{
   "completed_at" : "20170710T191922Z",
   "completed_status" : "Success",
   "created_at" : "2017-07-10 19:16:35 +0000",
   "current_step" : 5,
   "description" : "",
   "eplusout_err" : "Program Version,EnergyPlus, Version 8.7.0-78a111df4a, YMD=2017.07.10 19:18,IDD_Version 8.7.0\n   ************* IDF Context for following error/warning message:\n   ************* Note -- lines truncated at 300 characters, if necessary...\n   *************      5 Building,\n   ************* indicated Name=NECB 2011-RetailStripmall-NECB HDD Method-CAN_AB_Fort.McMurray.719320_CWEC.epw created: 2017-07-10 19:16:41 +0000\n   ************* Only last 1 lines before error line shown.....\n   *************      6   NECB 2011-RetailStripmall-NECB HDD Method-CAN_AB_Fort.McMurray.719320_CWEC.epw created: 2017-07-10 19:16:41 +0000, !- Name\n   ** Warning ** IP: IDF line~6 Alpha Argument length exceeds maximum, will be truncated=  NECB 2011-RetailStripmall-NECB HDD Method-CAN_AB_Fort.McMurray.719320_CWEC.epw created: 2017-07-10 19:16:41 +000\n   **   ~~~   ** Will be processed as Alpha=NECB 2011-RETAILSTRIPMALL-NECB HDD METHOD-CAN_AB_FORT.MCMURRAY.719320_CWEC.EPW CREATED: 2017-07-10 19:16:41 +0000\n   ************* Beginning Zone Sizing Calculations\n   ** Warning ** ProcessScheduleInput: Schedule:Day:Interval=\"ECONOMIZER MAX OA FRACTION 100 PCT DEFAULT\", Blank Schedule Type Limits Name input -- will not be validated.\n   ** Warning ** ProcessScheduleInput: Schedule:Day:Interval=\"SCHEDULE DAY 1\", Blank Schedule Type Limits Name input -- will not be validated.\n   ** Warning ** ProcessScheduleInput: Schedule:Day:Interval=\"SCHEDULE DAY 10\", Blank Schedule Type Limits Name input -- will not be validated.\n   ** Warning ** ProcessScheduleInput: Schedule:Day:Interval=\"SCHEDULE DAY 11\", Blank Schedule Type Limits Name input -- will not be validated.\n   ** Warning ** ProcessScheduleInput: Schedule:Day:Interval=\"SCHEDULE DAY 12\", Blank Schedule Type Limits Name input -- will not be validated.\n   ** Warning ** ProcessScheduleInput: Schedule:Day:Interval=\"SCHEDULE DAY 13\", Blank Schedule Type Limits Name input -- will not be validated.\n   ** Warning ** ProcessScheduleInput: Schedule:Day:Interval=\"SCHEDULE DAY 14\", Blank Schedule Type Limits Name input -- will not be validated.\n   ** Warning ** ProcessScheduleInput: Schedule:Day:Interval=\"SCHEDULE DAY 15\", Blank Schedule Type Limits Name input -- will not be validated.\n   ** Warning ** ProcessScheduleInput: Schedule:Day:Interval=\"SCHEDULE DAY 16\", Blank Schedule Type Limits Name input -- will not be validated.\n   ** Warning ** ProcessScheduleInput: Schedule:Day:Interval=\"SCHEDULE DAY 17\", Blank Schedule Type Limits Name input -- will not be validated.\n   ** Warning ** ProcessScheduleInput: Schedule:Day:Interval=\"SCHEDULE DAY 18\", Blank Schedule Type Limits Name input -- will not be validated.\n   ** Warning ** ProcessScheduleInput: Schedule:Day:Interval=\"SCHEDULE DAY 19\", Blank Schedule Type Limits Name input -- will not be validated.\n   ** Warning ** ProcessScheduleInput: Schedule:Day:Interval=\"SCHEDULE DAY 2\", Blank Schedule Type Limits Name input -- will not be validated.\n   ** Warning ** ProcessScheduleInput: Schedule:Day:Interval=\"SCHEDULE DAY 20\", Blank Schedule Type Limits Name input -- will not be validated.\n   ** Warning ** ProcessScheduleInput: Schedule:Day:Interval=\"SCHEDULE DAY 21\", Blank Schedule Type Limits Name input -- will not be validated.\n   ** Warning ** ProcessScheduleInput: Schedule:Day:Interval=\"SCHEDULE DAY 22\", Blank Schedule Type Limits Name input -- will not be validated.\n   ** Warning ** ProcessScheduleInput: Schedule:Day:Interval=\"SCHEDULE DAY 23\", Blank Schedule Type Limits Name input -- will not be validated.\n   ** Warning ** ProcessScheduleInput: Schedule:Day:Interval=\"SCHEDULE DAY 24\", Blank Schedule Type Limits Name input -- will not be validated.\n   ** Warning ** ProcessScheduleInput: Schedule:Day:Interval=\"SCHEDULE DAY 25\", Blank Schedule Type Limits Name input -- will not be validated.\n   ** Warning ** ProcessScheduleInput: Schedule:Day:Interval=\"SCHEDULE DAY 26\", Blank Schedule Type Limits Name input -- will not be validated.\n   ** Warning ** ProcessScheduleInput: Schedule:Day:Interval=\"SCHEDULE DAY 27\", Blank Schedule Type Limits Name input -- will not be validated.\n   ** Warning ** ProcessScheduleInput: Schedule:Day:Interval=\"SCHEDULE DAY 28\", Blank Schedule Type Limits Name input -- will not be validated.\n   ** Warning ** ProcessScheduleInput: Schedule:Day:Interval=\"SCHEDULE DAY 29\", Blank Schedule Type Limits Name input -- will not be validated.\n   ** Warning ** ProcessScheduleInput: Schedule:Day:Interval=\"SCHEDULE DAY 30\", Blank Schedule Type Limits Name input -- will not be validated.\n   ** Warning ** ProcessScheduleInput: Schedule:Day:Interval=\"SCHEDULE DAY 31\", Blank Schedule Type Limits Name input -- will not be validated.\n   ** Warning ** ProcessScheduleInput: Schedule:Day:Interval=\"SCHEDULE DAY 32\", Blank Schedule Type Limits Name input -- will not be validated.\n   ** Warning ** ProcessScheduleInput: Schedule:Day:Interval=\"SCHEDULE DAY 33\", Blank Schedule Type Limits Name input -- will not be validated.\n   ** Warning ** ProcessScheduleInput: Schedule:Day:Interval=\"SCHEDULE DAY 34\", Blank Schedule Type Limits Name input -- will not be validated.\n   ** Warning ** ProcessScheduleInput: Schedule:Day:Interval=\"SCHEDULE DAY 35\", Blank Schedule Type Limits Name input -- will not be validated.\n   ** Warning ** ProcessScheduleInput: Schedule:Day:Interval=\"SCHEDULE DAY 36\", Blank Schedule Type Limits Name input -- will not be validated.\n   ** Warning ** ProcessScheduleInput: Schedule:Day:Interval=\"SCHEDULE DAY 37\", Blank Schedule Type Limits Name input -- will not be validated.\n   ** Warning ** ProcessScheduleInput: Schedule:Day:Interval=\"SCHEDULE DAY 38\", Blank Schedule Type Limits Name input -- will not be validated.\n   ** Warning ** ProcessScheduleInput: Schedule:Day:Interval=\"SCHEDULE DAY 39\", Blank Schedule Type Limits Name input -- will not be validated.\n   ** Warning ** ProcessScheduleInput: Schedule:Day:Interval=\"SCHEDULE DAY 40\", Blank Schedule Type Limits Name input -- will not be validated.\n   ** Warning ** ProcessScheduleInput: Schedule:Day:Interval=\"SCHEDULE DAY 41\", Blank Schedule Type Limits Name input -- will not be validated.\n   ** Warning ** ProcessScheduleInput: Schedule:Day:Interval=\"SCHEDULE DAY 42\", Blank Schedule Type Limits Name input -- will not be validated.\n   ** Warning ** ProcessScheduleInput: Schedule:Day:Interval=\"SCHEDULE DAY 43\", Blank Schedule Type Limits Name input -- will not be validated.\n   ** Warning ** ProcessScheduleInput: Schedule:Day:Interval=\"SCHEDULE DAY 44\", Blank Schedule Type Limits Name input -- will not be validated.\n   ** Warning ** ProcessScheduleInput: Schedule:Day:Interval=\"SCHEDULE DAY 45\", Blank Schedule Type Limits Name input -- will not be validated.\n   ** Warning ** ProcessScheduleInput: Schedule:Day:Interval=\"SCHEDULE DAY 46\", Blank Schedule Type Limits Name input -- will not be validated.\n   ** Warning ** ProcessScheduleInput: Schedule:Day:Interval=\"SCHEDULE DAY 47\", Blank Schedule Type Limits Name input -- will not be validated.\n   ** Warning ** ProcessScheduleInput: Schedule:Day:Interval=\"SCHEDULE DAY 48\", Blank Schedule Type Limits Name input -- will not be validated.\n   ** Warning ** ProcessScheduleInput: Schedule:Day:Interval=\"SCHEDULE DAY 49\", Blank Schedule Type Limits Name input -- will not be validated.\n   ** Warning ** ProcessScheduleInput: Schedule:Day:Interval=\"SCHEDULE DAY 5\", Blank Schedule Type Limits Name input -- will not be validated.\n   ** Warning ** ProcessScheduleInput: Schedule:Day:Interval=\"SCHEDULE DAY 50\", Blank Schedule Type Limits Name input -- will not be validated.\n   ** Warning ** ProcessScheduleInput: Schedule:Day:Interval=\"SCHEDULE DAY 51\", Blank Schedule Type Limits Name input -- will not be validated.\n   ** Warning ** ProcessScheduleInput: Schedule:Day:Interval=\"SCHEDULE DAY 52\", Blank Schedule Type Limits Name input -- will not be validated.\n   ** Warning ** ProcessScheduleInput: Schedule:Day:Interval=\"SCHEDULE DAY 53\", Blank Schedule Type Limits Name input -- will not be validated.\n   ** Warning ** ProcessScheduleInput: Schedule:Day:Interval=\"SCHEDULE DAY 54\", Blank Schedule Type Limits Name input -- will not be validated.\n   ** Warning ** ProcessScheduleInput: Schedule:Day:Interval=\"SCHEDULE DAY 6\", Blank Schedule Type Limits Name input -- will not be validated.\n   ** Warning ** ProcessScheduleInput: Schedule:Day:Interval=\"SCHEDULE DAY 7\", Blank Schedule Type Limits Name input -- will not be validated.\n   ** Warning ** ProcessScheduleInput: Schedule:Day:Interval=\"SCHEDULE DAY 8\", Blank Schedule Type Limits Name input -- will not be validated.\n   ** Warning ** ProcessScheduleInput: Schedule:Day:Interval=\"SCHEDULE DAY 9\", Blank Schedule Type Limits Name input -- will not be validated.\n   ** Warning ** ProcessScheduleInput: Schedule:Year=\"ECONOMIZER MAX OA FRACTION 100 PCT\", Blank Schedule Type Limits Name input -- will not be validated.\n   ** Warning ** ProcessScheduleInput: Schedule:Year=\"SCHEDULE RULESET 10\", Blank Schedule Type Limits Name input -- will not be validated.\n   ** Warning ** ProcessScheduleInput: Schedule:Year=\"SCHEDULE RULESET 11\", Blank Schedule Type Limits Name input -- will not be validated.\n   ** Warning ** ProcessScheduleInput: Schedule:Year=\"SCHEDULE RULESET 12\", Blank Schedule Type Limits Name input -- will not be validated.\n   ** Warning ** ProcessScheduleInput: Schedule:Year=\"SCHEDULE RULESET 13\", Blank Schedule Type Limits Name input -- will not be validated.\n   ** Warning ** ProcessScheduleInput: Schedule:Year=\"SCHEDULE RULESET 14\", Blank Schedule Type Limits Name input -- will not be validated.\n   ** Warning ** ProcessScheduleInput: Schedule:Year=\"SCHEDULE RULESET 15\", Blank Schedule Type Limits Name input -- will not be validated.\n   ** Warning ** ProcessScheduleInput: Schedule:Year=\"SCHEDULE RULESET 16\", Blank Schedule Type Limits Name input -- will not be validated.\n   ** Warning ** ProcessScheduleInput: Schedule:Year=\"SCHEDULE RULESET 17\", Blank Schedule Type Limits Name input -- will not be validated.\n   ** Warning ** ProcessScheduleInput: Schedule:Year=\"SCHEDULE RULESET 18\", Blank Schedule Type Limits Name input -- will not be validated.\n   ** Warning ** ProcessScheduleInput: Schedule:Year=\"SCHEDULE RULESET 19\", Blank Schedule Type Limits Name input -- will not be validated.\n   ** Warning ** ProcessScheduleInput: Schedule:Year=\"SCHEDULE RULESET 20\", Blank Schedule Type Limits Name input -- will not be validated.\n   ** Warning ** ProcessScheduleInput: Schedule:Year=\"SCHEDULE RULESET 21\", Blank Schedule Type Limits Name input -- will not be validated.\n   ** Warning ** ProcessScheduleInput: Schedule:Year=\"SCHEDULE RULESET 22\", Blank Schedule Type Limits Name input -- will not be validated.\n   ** Warning ** ProcessScheduleInput: Schedule:Year=\"SCHEDULE RULESET 23\", Blank Schedule Type Limits Name input -- will not be validated.\n   ** Warning ** ProcessScheduleInput: Schedule:Year=\"SCHEDULE RULESET 24\", Blank Schedule Type Limits Name input -- will not be validated.\n   ** Warning ** ProcessScheduleInput: Schedule:Year=\"SCHEDULE RULESET 25\", Blank Schedule Type Limits Name input -- will not be validated.\n   ** Warning ** ProcessScheduleInput: Schedule:Year=\"SCHEDULE RULESET 26\", Blank Schedule Type Limits Name input -- will not be validated.\n   ** Warning ** ProcessScheduleInput: Schedule:Year=\"SCHEDULE RULESET 27\", Blank Schedule Type Limits Name input -- will not be validated.\n   ** Warning ** ProcessScheduleInput: Schedule:Year=\"SCHEDULE RULESET 28\", Blank Schedule Type Limits Name input -- will not be validated.\n   ** Warning ** ProcessScheduleInput: Schedule:Year=\"SCHEDULE RULESET 29\", Blank Schedule Type Limits Name input -- will not be validated.\n   ** Warning ** ProcessScheduleInput: Schedule:Year=\"SCHEDULE RULESET 3\", Blank Schedule Type Limits Name input -- will not be validated.\n   ** Warning ** ProcessScheduleInput: Schedule:Year=\"SCHEDULE RULESET 30\", Blank Schedule Type Limits Name input -- will not be validated.\n   ** Warning ** ProcessScheduleInput: Schedule:Year=\"SCHEDULE RULESET 31\", Blank Schedule Type Limits Name input -- will not be validated.\n   ** Warning ** ProcessScheduleInput: Schedule:Year=\"SCHEDULE RULESET 32\", Blank Schedule Type Limits Name input -- will not be validated.\n   ** Warning ** ProcessScheduleInput: Schedule:Year=\"SCHEDULE RULESET 4\", Blank Schedule Type Limits Name input -- will not be validated.\n   ** Warning ** ProcessScheduleInput: Schedule:Year=\"SCHEDULE RULESET 5\", Blank Schedule Type Limits Name input -- will not be validated.\n   ** Warning ** ProcessScheduleInput: Schedule:Year=\"SCHEDULE RULESET 6\", Blank Schedule Type Limits Name input -- will not be validated.\n   ** Warning ** ProcessScheduleInput: Schedule:Year=\"SCHEDULE RULESET 7\", Blank Schedule Type Limits Name input -- will not be validated.\n   ** Warning ** ProcessScheduleInput: Schedule:Year=\"SCHEDULE RULESET 8\", Blank Schedule Type Limits Name input -- will not be validated.\n   ** Warning ** ProcessScheduleInput: Schedule:Year=\"SCHEDULE RULESET 9\", Blank Schedule Type Limits Name input -- will not be validated.\n   ** Warning ** ProcessScheduleInput: Schedule:Constant=\"ALWAYS OFF DISCRETE\", Blank Schedule Type Limits Name input -- will not be validated.\n   ** Warning ** ProcessScheduleInput: Schedule:Constant=\"ALWAYS ON CONTINUOUS\", Blank Schedule Type Limits Name input -- will not be validated.\n   ** Warning ** CheckUsedConstructions: There are 24 nominally unused constructions in input.\n   **   ~~~   ** For explicit details on each unused construction, use Output:Diagnostics,DisplayExtraWarnings;\n   ************* Beginning System Sizing Calculations\n   ************* Beginning Plant Sizing Calculations\n   ** Warning ** GetDXCoils: Coil:Cooling:DX:SingleSpeed=\"COIL COOLING DX SINGLE SPEED 10 68KBTU/HR 9.7EER\", invalid\n   **   ~~~   ** ...Part Load Fraction Correlation Curve Name = DXCOOL-NECB2011-REF-COOLPLFFPLR 1 has out of range value.\n   **   ~~~   ** ...Curve maximum must be <= 1.0, curve max at PLR = 0.99 is 1.015\n   **   ~~~   ** ...Setting curve maximum to 1.0 and simulation continues.\n   ** Warning ** GetDXCoils: Coil:Cooling:DX:SingleSpeed=\"COIL COOLING DX SINGLE SPEED 1 67KBTU/HR 9.7EER\", invalid\n   **   ~~~   ** ...Part Load Fraction Correlation Curve Name = DXCOOL-NECB2011-REF-COOLPLFFPLR has out of range value.\n   **   ~~~   ** ...Curve maximum must be <= 1.0, curve max at PLR = 0.99 is 1.015\n   **   ~~~   ** ...Setting curve maximum to 1.0 and simulation continues.\n   ** Warning ** GetDXCoils: Coil:Cooling:DX:SingleSpeed=\"COIL COOLING DX SINGLE SPEED 3 35KBTU/HR 14.0SEER\", invalid\n   **   ~~~   ** ...Part Load Fraction Correlation Curve Name = DXCOOL-NECB2011-REF-COOLPLFFPLR 3 has out of range value.\n   **   ~~~   ** ...Curve maximum must be <= 1.0, curve max at PLR = 0.99 is 1.015\n   **   ~~~   ** ...Setting curve maximum to 1.0 and simulation continues.\n   ** Warning ** GetDXCoils: Coil:Cooling:DX:SingleSpeed=\"COIL COOLING DX SINGLE SPEED 2 35KBTU/HR 14.0SEER\", invalid\n   **   ~~~   ** ...Part Load Fraction Correlation Curve Name = DXCOOL-NECB2011-REF-COOLPLFFPLR 2 has out of range value.\n   **   ~~~   ** ...Curve maximum must be <= 1.0, curve max at PLR = 0.99 is 1.015\n   **   ~~~   ** ...Setting curve maximum to 1.0 and simulation continues.\n   ** Warning ** GetDXCoils: Coil:Cooling:DX:SingleSpeed=\"COIL COOLING DX SINGLE SPEED 6 35KBTU/HR 14.0SEER\", invalid\n   **   ~~~   ** ...Part Load Fraction Correlation Curve Name = DXCOOL-NECB2011-REF-COOLPLFFPLR 6 has out of range value.\n   **   ~~~   ** ...Curve maximum must be <= 1.0, curve max at PLR = 0.99 is 1.015\n   **   ~~~   ** ...Setting curve maximum to 1.0 and simulation continues.\n   ** Warning ** GetDXCoils: Coil:Cooling:DX:SingleSpeed=\"COIL COOLING DX SINGLE SPEED 8 35KBTU/HR 14.0SEER\", invalid\n   **   ~~~   ** ...Part Load Fraction Correlation Curve Name = DXCOOL-NECB2011-REF-COOLPLFFPLR 8 has out of range value.\n   **   ~~~   ** ...Curve maximum must be <= 1.0, curve max at PLR = 0.99 is 1.015\n   **   ~~~   ** ...Setting curve maximum to 1.0 and simulation continues.\n   ** Warning ** GetDXCoils: Coil:Cooling:DX:SingleSpeed=\"COIL COOLING DX SINGLE SPEED 7 35KBTU/HR 14.0SEER\", invalid\n   **   ~~~   ** ...Part Load Fraction Correlation Curve Name = DXCOOL-NECB2011-REF-COOLPLFFPLR 7 has out of range value.\n   **   ~~~   ** ...Curve maximum must be <= 1.0, curve max at PLR = 0.99 is 1.015\n   **   ~~~   ** ...Setting curve maximum to 1.0 and simulation continues.\n   ** Warning ** GetDXCoils: Coil:Cooling:DX:SingleSpeed=\"COIL COOLING DX SINGLE SPEED 5 35KBTU/HR 14.0SEER\", invalid\n   **   ~~~   ** ...Part Load Fraction Correlation Curve Name = DXCOOL-NECB2011-REF-COOLPLFFPLR 5 has out of range value.\n   **   ~~~   ** ...Curve maximum must be <= 1.0, curve max at PLR = 0.99 is 1.015\n   **   ~~~   ** ...Setting curve maximum to 1.0 and simulation continues.\n   ** Warning ** GetDXCoils: Coil:Cooling:DX:SingleSpeed=\"COIL COOLING DX SINGLE SPEED 4 35KBTU/HR 14.0SEER\", invalid\n   **   ~~~   ** ...Part Load Fraction Correlation Curve Name = DXCOOL-NECB2011-REF-COOLPLFFPLR 4 has out of range value.\n   **   ~~~   ** ...Curve maximum must be <= 1.0, curve max at PLR = 0.99 is 1.015\n   **   ~~~   ** ...Setting curve maximum to 1.0 and simulation continues.\n   ** Warning ** GetDXCoils: Coil:Cooling:DX:SingleSpeed=\"COIL COOLING DX SINGLE SPEED 9 36KBTU/HR 14.0SEER\", invalid\n   **   ~~~   ** ...Part Load Fraction Correlation Curve Name = DXCOOL-NECB2011-REF-COOLPLFFPLR 9 has out of range value.\n   **   ~~~   ** ...Curve maximum must be <= 1.0, curve max at PLR = 0.99 is 1.015\n   **   ~~~   ** ...Setting curve maximum to 1.0 and simulation continues.\n   ** Warning ** The Standard Ratings is calculated for Coil:Cooling:DX:SingleSpeed = COIL COOLING DX SINGLE SPEED 10 68KBTU/HR 9.7EER but not at the AHRI test condition due to curve out of bound.\n   **   ~~~   **  Review the Standard Ratings calculations in the Engineering Reference for this coil type. Also, use Output:Diagnostics, DisplayExtraWarnings for further guidance.\n   ** Warning ** The Standard Ratings is calculated for Coil:Cooling:DX:SingleSpeed = COIL COOLING DX SINGLE SPEED 1 67KBTU/HR 9.7EER but not at the AHRI test condition due to curve out of bound.\n   **   ~~~   **  Review the Standard Ratings calculations in the Engineering Reference for this coil type. Also, use Output:Diagnostics, DisplayExtraWarnings for further guidance.\n   ** Warning ** The Standard Ratings is calculated for Coil:Cooling:DX:SingleSpeed = COIL COOLING DX SINGLE SPEED 3 35KBTU/HR 14.0SEER but not at the AHRI test condition due to curve out of bound.\n   **   ~~~   **  Review the Standard Ratings calculations in the Engineering Reference for this coil type. Also, use Output:Diagnostics, DisplayExtraWarnings for further guidance.\n   ** Warning ** The Standard Ratings is calculated for Coil:Cooling:DX:SingleSpeed = COIL COOLING DX SINGLE SPEED 2 35KBTU/HR 14.0SEER but not at the AHRI test condition due to curve out of bound.\n   **   ~~~   **  Review the Standard Ratings calculations in the Engineering Reference for this coil type. Also, use Output:Diagnostics, DisplayExtraWarnings for further guidance.\n   ** Warning ** The Standard Ratings is calculated for Coil:Cooling:DX:SingleSpeed = COIL COOLING DX SINGLE SPEED 6 35KBTU/HR 14.0SEER but not at the AHRI test condition due to curve out of bound.\n   **   ~~~   **  Review the Standard Ratings calculations in the Engineering Reference for this coil type. Also, use Output:Diagnostics, DisplayExtraWarnings for further guidance.\n   ** Warning ** The Standard Ratings is calculated for Coil:Cooling:DX:SingleSpeed = COIL COOLING DX SINGLE SPEED 8 35KBTU/HR 14.0SEER but not at the AHRI test condition due to curve out of bound.\n   **   ~~~   **  Review the Standard Ratings calculations in the Engineering Reference for this coil type. Also, use Output:Diagnostics, DisplayExtraWarnings for further guidance.\n   ** Warning ** The Standard Ratings is calculated for Coil:Cooling:DX:SingleSpeed = COIL COOLING DX SINGLE SPEED 7 35KBTU/HR 14.0SEER but not at the AHRI test condition due to curve out of bound.\n   **   ~~~   **  Review the Standard Ratings calculations in the Engineering Reference for this coil type. Also, use Output:Diagnostics, DisplayExtraWarnings for further guidance.\n   ** Warning ** The Standard Ratings is calculated for Coil:Cooling:DX:SingleSpeed = COIL COOLING DX SINGLE SPEED 5 35KBTU/HR 14.0SEER but not at the AHRI test condition due to curve out of bound.\n   **   ~~~   **  Review the Standard Ratings calculations in the Engineering Reference for this coil type. Also, use Output:Diagnostics, DisplayExtraWarnings for further guidance.\n   ** Warning ** The Standard Ratings is calculated for Coil:Cooling:DX:SingleSpeed = COIL COOLING DX SINGLE SPEED 4 35KBTU/HR 14.0SEER but not at the AHRI test condition due to curve out of bound.\n   **   ~~~   **  Review the Standard Ratings calculations in the Engineering Reference for this coil type. Also, use Output:Diagnostics, DisplayExtraWarnings for further guidance.\n   ** Warning ** The Standard Ratings is calculated for Coil:Cooling:DX:SingleSpeed = COIL COOLING DX SINGLE SPEED 9 36KBTU/HR 14.0SEER but not at the AHRI test condition due to curve out of bound.\n   **   ~~~   **  Review the Standard Ratings calculations in the Engineering Reference for this coil type. Also, use Output:Diagnostics, DisplayExtraWarnings for further guidance.\n   ** Warning ** Check input. Pump nominal power or motor efficiency is set to 0, for pump=SERVICE WATER LOOP PUMP\n   ** Warning ** Output:Meter: invalid Name=\"DISTRICTCOOLING:FACILITY\" - not found.\n   ** Warning ** Output:Meter: invalid Name=\"DISTRICTHEATING:FACILITY\" - not found.\n   ** Warning ** Output:Meter:MeterFileOnly requested for \"Electricity:Facility\" (TimeStep), already on \"Output:Meter\". Will report to both eplusout.eso and eplusout.mtr\n   ************* Testing Individual Branch Integrity\n   ************* All Branches passed integrity testing\n   ************* Testing Individual Supply Air Path Integrity\n   ************* All Supply Air Paths passed integrity testing\n   ************* Testing Individual Return Air Path Integrity\n   ************* All Return Air Paths passed integrity testing\n   ************* No node connection errors were found.\n   ************* Beginning Simulation\n   ** Warning ** CalcDoe2DXCoil: Coil:Cooling:DX:SingleSpeed \"COIL COOLING DX SINGLE SPEED 1 67KBTU/HR 9.7EER\" - Air-cooled condenser inlet dry-bulb temperature below 0 C. Outdoor dry-bulb temperature = -13.18\n   **   ~~~   **  ... Occurrence info = RUN PERIOD 1, 01/01 09:02 - 09:05\n   **   ~~~   ** ... Operation at low ambient temperatures may require special performance curves.\n   ** Warning ** CalcDoe2DXCoil: Coil:Cooling:DX:SingleSpeed \"COIL COOLING DX SINGLE SPEED 3 35KBTU/HR 14.0SEER\" - Air-cooled condenser inlet dry-bulb temperature below 0 C. Outdoor dry-bulb temperature = -13.18\n   **   ~~~   **  ... Occurrence info = RUN PERIOD 1, 01/01 09:02 - 09:05\n   **   ~~~   ** ... Operation at low ambient temperatures may require special performance curves.\n   ** Warning ** CalcDoe2DXCoil: Coil:Cooling:DX:SingleSpeed \"COIL COOLING DX SINGLE SPEED 2 35KBTU/HR 14.0SEER\" - Air-cooled condenser inlet dry-bulb temperature below 0 C. Outdoor dry-bulb temperature = -13.18\n   **   ~~~   **  ... Occurrence info = RUN PERIOD 1, 01/01 09:02 - 09:05\n   **   ~~~   ** ... Operation at low ambient temperatures may require special performance curves.\n   ** Warning ** CalcDoe2DXCoil: Coil:Cooling:DX:SingleSpeed \"COIL COOLING DX SINGLE SPEED 6 35KBTU/HR 14.0SEER\" - Air-cooled condenser inlet dry-bulb temperature below 0 C. Outdoor dry-bulb temperature = -13.18\n   **   ~~~   **  ... Occurrence info = RUN PERIOD 1, 01/01 09:02 - 09:05\n   **   ~~~   ** ... Operation at low ambient temperatures may require special performance curves.\n   ** Warning ** CalcDoe2DXCoil: Coil:Cooling:DX:SingleSpeed \"COIL COOLING DX SINGLE SPEED 8 35KBTU/HR 14.0SEER\" - Air-cooled condenser inlet dry-bulb temperature below 0 C. Outdoor dry-bulb temperature = -13.18\n   **   ~~~   **  ... Occurrence info = RUN PERIOD 1, 01/01 09:02 - 09:05\n   **   ~~~   ** ... Operation at low ambient temperatures may require special performance curves.\n   ** Warning ** CalcDoe2DXCoil: Coil:Cooling:DX:SingleSpeed \"COIL COOLING DX SINGLE SPEED 7 35KBTU/HR 14.0SEER\" - Air-cooled condenser inlet dry-bulb temperature below 0 C. Outdoor dry-bulb temperature = -13.18\n   **   ~~~   **  ... Occurrence info = RUN PERIOD 1, 01/01 09:02 - 09:05\n   **   ~~~   ** ... Operation at low ambient temperatures may require special performance curves.\n   ** Warning ** CalcDoe2DXCoil: Coil:Cooling:DX:SingleSpeed \"COIL COOLING DX SINGLE SPEED 5 35KBTU/HR 14.0SEER\" - Air-cooled condenser inlet dry-bulb temperature below 0 C. Outdoor dry-bulb temperature = -13.18\n   **   ~~~   **  ... Occurrence info = RUN PERIOD 1, 01/01 09:02 - 09:05\n   **   ~~~   ** ... Operation at low ambient temperatures may require special performance curves.\n   ** Warning ** CalcDoe2DXCoil: Coil:Cooling:DX:SingleSpeed \"COIL COOLING DX SINGLE SPEED 4 35KBTU/HR 14.0SEER\" - Air-cooled condenser inlet dry-bulb temperature below 0 C. Outdoor dry-bulb temperature = -13.18\n   **   ~~~   **  ... Occurrence info = RUN PERIOD 1, 01/01 09:02 - 09:05\n   **   ~~~   ** ... Operation at low ambient temperatures may require special performance curves.\n   ** Warning ** CalcDoe2DXCoil: Coil:Cooling:DX:SingleSpeed \"COIL COOLING DX SINGLE SPEED 9 36KBTU/HR 14.0SEER\" - Air-cooled condenser inlet dry-bulb temperature below 0 C. Outdoor dry-bulb temperature = -13.18\n   **   ~~~   **  ... Occurrence info = RUN PERIOD 1, 01/01 09:02 - 09:05\n   **   ~~~   ** ... Operation at low ambient temperatures may require special performance curves.\n   ** Warning ** CalcDoe2DXCoil: Coil:Cooling:DX:SingleSpeed \"COIL COOLING DX SINGLE SPEED 3 35KBTU/HR 14.0SEER\" - Full load outlet air dry-bulb temperature < 2C. This indicates the possibility of coil frost/freeze. Outlet temperature = 0.10 C.\n   **   ~~~   **  ...Occurrence info = RUN PERIOD 1, 01/31 13:15 - 13:30\n   **   ~~~   ** ... Possible reasons for low outlet air dry-bulb temperatures are: This DX coil\n   **   ~~~   **    1) may have a low inlet air dry-bulb temperature. Inlet air temperature = 13.352 C.\n   **   ~~~   **    2) may have a low air flow rate per watt of cooling capacity. Check inputs.\n   **   ~~~   **    3) is used as part of a HX assisted cooling coil which uses a high sensible effectiveness. Check inputs.\n   ** Warning ** CalcDoe2DXCoil: Coil:Cooling:DX:SingleSpeed \"COIL COOLING DX SINGLE SPEED 8 35KBTU/HR 14.0SEER\" - Full load outlet air dry-bulb temperature < 2C. This indicates the possibility of coil frost/freeze. Outlet temperature = 7.48E-002 C.\n   **   ~~~   **  ...Occurrence info = RUN PERIOD 1, 01/31 13:15 - 13:30\n   **   ~~~   ** ... Possible reasons for low outlet air dry-bulb temperatures are: This DX coil\n   **   ~~~   **    1) may have a low inlet air dry-bulb temperature. Inlet air temperature = 13.331 C.\n   **   ~~~   **    2) may have a low air flow rate per watt of cooling capacity. Check inputs.\n   **   ~~~   **    3) is used as part of a HX assisted cooling coil which uses a high sensible effectiveness. Check inputs.\n   ** Warning ** CalcDoe2DXCoil: Coil:Cooling:DX:SingleSpeed \"COIL COOLING DX SINGLE SPEED 7 35KBTU/HR 14.0SEER\" - Full load outlet air dry-bulb temperature < 2C. This indicates the possibility of coil frost/freeze. Outlet temperature = 7.49E-002 C.\n   **   ~~~   **  ...Occurrence info = RUN PERIOD 1, 01/31 13:15 - 13:30\n   **   ~~~   ** ... Possible reasons for low outlet air dry-bulb temperatures are: This DX coil\n   **   ~~~   **    1) may have a low inlet air dry-bulb temperature. Inlet air temperature = 13.331 C.\n   **   ~~~   **    2) may have a low air flow rate per watt of cooling capacity. Check inputs.\n   **   ~~~   **    3) is used as part of a HX assisted cooling coil which uses a high sensible effectiveness. Check inputs.\n   ** Warning ** CalcDoe2DXCoil: Coil:Cooling:DX:SingleSpeed \"COIL COOLING DX SINGLE SPEED 2 35KBTU/HR 14.0SEER\" - Full load outlet air dry-bulb temperature < 2C. This indicates the possibility of coil frost/freeze. Outlet temperature = 0.14 C.\n   **   ~~~   **  ...Occurrence info = RUN PERIOD 1, 01/31 13:30 - 13:45\n   **   ~~~   ** ... Possible reasons for low outlet air dry-bulb temperatures are: This DX coil\n   **   ~~~   **    1) may have a low inlet air dry-bulb temperature. Inlet air temperature = 13.413 C.\n   **   ~~~   **    2) may have a low air flow rate per watt of cooling capacity. Check inputs.\n   **   ~~~   **    3) is used as part of a HX assisted cooling coil which uses a high sensible effectiveness. Check inputs.\n   ** Warning ** CalcDoe2DXCoil: Coil:Cooling:DX:SingleSpeed \"COIL COOLING DX SINGLE SPEED 6 35KBTU/HR 14.0SEER\" - Full load outlet air dry-bulb temperature < 2C. This indicates the possibility of coil frost/freeze. Outlet temperature = 0.13 C.\n   **   ~~~   **  ...Occurrence info = RUN PERIOD 1, 01/31 13:30 - 13:45\n   **   ~~~   ** ... Possible reasons for low outlet air dry-bulb temperatures are: This DX coil\n   **   ~~~   **    1) may have a low inlet air dry-bulb temperature. Inlet air temperature = 13.411 C.\n   **   ~~~   **    2) may have a low air flow rate per watt of cooling capacity. Check inputs.\n   **   ~~~   **    3) is used as part of a HX assisted cooling coil which uses a high sensible effectiveness. Check inputs.\n   ** Warning ** CalcDoe2DXCoil: Coil:Cooling:DX:SingleSpeed \"COIL COOLING DX SINGLE SPEED 5 35KBTU/HR 14.0SEER\" - Full load outlet air dry-bulb temperature < 2C. This indicates the possibility of coil frost/freeze. Outlet temperature = 0.13 C.\n   **   ~~~   **  ...Occurrence info = RUN PERIOD 1, 01/31 13:30 - 13:45\n   **   ~~~   ** ... Possible reasons for low outlet air dry-bulb temperatures are: This DX coil\n   **   ~~~   **    1) may have a low inlet air dry-bulb temperature. Inlet air temperature = 13.408 C.\n   **   ~~~   **    2) may have a low air flow rate per watt of cooling capacity. Check inputs.\n   **   ~~~   **    3) is used as part of a HX assisted cooling coil which uses a high sensible effectiveness. Check inputs.\n   ** Warning ** CalcDoe2DXCoil: Coil:Cooling:DX:SingleSpeed \"COIL COOLING DX SINGLE SPEED 4 35KBTU/HR 14.0SEER\" - Full load outlet air dry-bulb temperature < 2C. This indicates the possibility of coil frost/freeze. Outlet temperature = 0.11 C.\n   **   ~~~   **  ...Occurrence info = RUN PERIOD 1, 01/31 13:30 - 13:45\n   **   ~~~   ** ... Possible reasons for low outlet air dry-bulb temperatures are: This DX coil\n   **   ~~~   **    1) may have a low inlet air dry-bulb temperature. Inlet air temperature = 13.387 C.\n   **   ~~~   **    2) may have a low air flow rate per watt of cooling capacity. Check inputs.\n   **   ~~~   **    3) is used as part of a HX assisted cooling coil which uses a high sensible effectiveness. Check inputs.\n   ** Warning ** CalcDoe2DXCoil: Coil:Cooling:DX:SingleSpeed \"COIL COOLING DX SINGLE SPEED 1 67KBTU/HR 9.7EER\" - Full load outlet air dry-bulb temperature < 2C. This indicates the possibility of coil frost/freeze. Outlet temperature = 1.24 C.\n   **   ~~~   **  ...Occurrence info = RUN PERIOD 1, 02/13 11:00 - 11:15\n   **   ~~~   ** ... Possible reasons for low outlet air dry-bulb temperatures are: This DX coil\n   **   ~~~   **    1) may have a low inlet air dry-bulb temperature. Inlet air temperature = 14.478 C.\n   **   ~~~   **    2) may have a low air flow rate per watt of cooling capacity. Check inputs.\n   **   ~~~   **    3) is used as part of a HX assisted cooling coil which uses a high sensible effectiveness. Check inputs.\n   ** Warning ** CalcDoe2DXCoil: Coil:Cooling:DX:SingleSpeed \"COIL COOLING DX SINGLE SPEED 9 36KBTU/HR 14.0SEER\" - Full load outlet air dry-bulb temperature < 2C. This indicates the possibility of coil frost/freeze. Outlet temperature = 1.77 C.\n   **   ~~~   **  ...Occurrence info = RUN PERIOD 1, 02/13 11:15 - 11:30\n   **   ~~~   ** ... Possible reasons for low outlet air dry-bulb temperatures are: This DX coil\n   **   ~~~   **    1) may have a low inlet air dry-bulb temperature. Inlet air temperature = 14.988 C.\n   **   ~~~   **    2) may have a low air flow rate per watt of cooling capacity. Check inputs.\n   **   ~~~   **    3) is used as part of a HX assisted cooling coil which uses a high sensible effectiveness. Check inputs.\n   ** Warning ** CalcDoe2DXCoil: Coil:Cooling:DX:SingleSpeed \"COIL COOLING DX SINGLE SPEED 10 68KBTU/HR 9.7EER\" - Full load outlet air dry-bulb temperature < 2C. This indicates the possibility of coil frost/freeze. Outlet temperature = 0.27 C.\n   **   ~~~   **  ...Occurrence info = RUN PERIOD 1, 04/11 13:30 - 13:45\n   **   ~~~   ** ... Possible reasons for low outlet air dry-bulb temperatures are: This DX coil\n   **   ~~~   **    1) may have a low inlet air dry-bulb temperature. Inlet air temperature = 13.475 C.\n   **   ~~~   **    2) may have a low air flow rate per watt of cooling capacity. Check inputs.\n   **   ~~~   **    3) is used as part of a HX assisted cooling coil which uses a high sensible effectiveness. Check inputs.\n   ************* Simulation Error Summary *************\n   ************* There are 9 unused schedules in input.\n   ************* There are 9 unused week schedules in input.\n   ************* There are 32 unused day schedules in input.\n   ************* Use Output:Diagnostics,DisplayUnusedSchedules; to see them.\n   *************\n   ************* ===== Recurring Error Summary =====\n   ************* The following recurring error messages occurred.\n   *************\n   *************  ** Warning ** CalcDoe2DXCoil: Coil:Cooling:DX:SingleSpeed=\"COIL COOLING DX SINGLE SPEED 1 67KBTU/HR 9.7EER\" - Low condenser dry-bulb temperature error continues...\n   *************  **   ~~~   **   This error occurred 478 total times;\n   *************  **   ~~~   **   during Warmup 0 times;\n   *************  **   ~~~   **   during Sizing 0 times.\n   *************  **   ~~~   **   Max=-2.500000E-002 [C]  Min=-37.2 [C]\n   *************\n   *************  ** Warning ** CalcDoe2DXCoil: Coil:Cooling:DX:SingleSpeed=\"COIL COOLING DX SINGLE SPEED 3 35KBTU/HR 14.0SEER\" - Low condenser dry-bulb temperature error continues...\n   *************  **   ~~~   **   This error occurred 419 total times;\n   *************  **   ~~~   **   during Warmup 0 times;\n   *************  **   ~~~   **   during Sizing 0 times.\n   *************  **   ~~~   **   Max=-2.500000E-002 [C]  Min=-37.2 [C]\n   *************\n   *************  ** Warning ** CalcDoe2DXCoil: Coil:Cooling:DX:SingleSpeed=\"COIL COOLING DX SINGLE SPEED 2 35KBTU/HR 14.0SEER\" - Low condenser dry-bulb temperature error continues...\n   *************  **   ~~~   **   This error occurred 400 total times;\n   *************  **   ~~~   **   during Warmup 0 times;\n   *************  **   ~~~   **   during Sizing 0 times.\n   *************  **   ~~~   **   Max=-2.500000E-002 [C]  Min=-37.2 [C]\n   *************\n   *************  ** Warning ** CalcDoe2DXCoil: Coil:Cooling:DX:SingleSpeed=\"COIL COOLING DX SINGLE SPEED 6 35KBTU/HR 14.0SEER\" - Low condenser dry-bulb temperature error continues...\n   *************  **   ~~~   **   This error occurred 400 total times;\n   *************  **   ~~~   **   during Warmup 0 times;\n   *************  **   ~~~   **   during Sizing 0 times.\n   *************  **   ~~~   **   Max=-2.500000E-002 [C]  Min=-37.2 [C]\n   *************\n   *************  ** Warning ** CalcDoe2DXCoil: Coil:Cooling:DX:SingleSpeed=\"COIL COOLING DX SINGLE SPEED 8 35KBTU/HR 14.0SEER\" - Low condenser dry-bulb temperature error continues...\n   *************  **   ~~~   **   This error occurred 426 total times;\n   *************  **   ~~~   **   during Warmup 0 times;\n   *************  **   ~~~   **   during Sizing 0 times.\n   *************  **   ~~~   **   Max=-2.500000E-002 [C]  Min=-37.2 [C]\n   *************\n   *************  ** Warning ** CalcDoe2DXCoil: Coil:Cooling:DX:SingleSpeed=\"COIL COOLING DX SINGLE SPEED 7 35KBTU/HR 14.0SEER\" - Low condenser dry-bulb temperature error continues...\n   *************  **   ~~~   **   This error occurred 426 total times;\n   *************  **   ~~~   **   during Warmup 0 times;\n   *************  **   ~~~   **   during Sizing 0 times.\n   *************  **   ~~~   **   Max=-2.500000E-002 [C]  Min=-37.2 [C]\n   *************\n   *************  ** Warning ** CalcDoe2DXCoil: Coil:Cooling:DX:SingleSpeed=\"COIL COOLING DX SINGLE SPEED 5 35KBTU/HR 14.0SEER\" - Low condenser dry-bulb temperature error continues...\n   *************  **   ~~~   **   This error occurred 400 total times;\n   *************  **   ~~~   **   during Warmup 0 times;\n   *************  **   ~~~   **   during Sizing 0 times.\n   *************  **   ~~~   **   Max=-2.500000E-002 [C]  Min=-37.2 [C]\n   *************\n   *************  ** Warning ** CalcDoe2DXCoil: Coil:Cooling:DX:SingleSpeed=\"COIL COOLING DX SINGLE SPEED 4 35KBTU/HR 14.0SEER\" - Low condenser dry-bulb temperature error continues...\n   *************  **   ~~~   **   This error occurred 395 total times;\n   *************  **   ~~~   **   during Warmup 0 times;\n   *************  **   ~~~   **   during Sizing 0 times.\n   *************  **   ~~~   **   Max=-2.500000E-002 [C]  Min=-37.2 [C]\n   *************\n   *************  ** Warning ** CalcDoe2DXCoil: Coil:Cooling:DX:SingleSpeed=\"COIL COOLING DX SINGLE SPEED 9 36KBTU/HR 14.0SEER\" - Low condenser dry-bulb temperature error continues...\n   *************  **   ~~~   **   This error occurred 324 total times;\n   *************  **   ~~~   **   during Warmup 0 times;\n   *************  **   ~~~   **   during Sizing 0 times.\n   *************  **   ~~~   **   Max=-2.500000E-002 [C]  Min=-37.2 [C]\n   *************\n   *************  ** Warning ** CalcDoe2DXCoil: Coil:Cooling:DX:SingleSpeed=\"COIL COOLING DX SINGLE SPEED 3 35KBTU/HR 14.0SEER\" - Full load outlet temperature indicates a possibility of frost/freeze error continues. Outlet air temperature statistics follow:\n   *************  **   ~~~   **   This error occurred 47 total times;\n   *************  **   ~~~   **   during Warmup 0 times;\n   *************  **   ~~~   **   during Sizing 0 times.\n   *************  **   ~~~   **   Max=1.987197  Min=-0.343428\n   *************\n   *************  ** Warning ** CalcDoe2DXCoil: Coil:Cooling:DX:SingleSpeed=\"COIL COOLING DX SINGLE SPEED 8 35KBTU/HR 14.0SEER\" - Full load outlet temperature indicates a possibility of frost/freeze error continues. Outlet air temperature statistics follow:\n   *************  **   ~~~   **   This error occurred 49 total times;\n   *************  **   ~~~   **   during Warmup 0 times;\n   *************  **   ~~~   **   during Sizing 0 times.\n   *************  **   ~~~   **   Max=1.998149  Min=-0.374358\n   *************\n   *************  ** Warning ** CalcDoe2DXCoil: Coil:Cooling:DX:SingleSpeed=\"COIL COOLING DX SINGLE SPEED 7 35KBTU/HR 14.0SEER\" - Full load outlet temperature indicates a possibility of frost/freeze error continues. Outlet air temperature statistics follow:\n   *************  **   ~~~   **   This error occurred 49 total times;\n   *************  **   ~~~   **   during Warmup 0 times;\n   *************  **   ~~~   **   during Sizing 0 times.\n   *************  **   ~~~   **   Max=1.998561  Min=-0.374141\n   *************\n   *************  ** Warning ** CalcDoe2DXCoil: Coil:Cooling:DX:SingleSpeed=\"COIL COOLING DX SINGLE SPEED 2 35KBTU/HR 14.0SEER\" - Full load outlet temperature indicates a possibility of frost/freeze error continues. Outlet air temperature statistics follow:\n   *************  **   ~~~   **   This error occurred 41 total times;\n   *************  **   ~~~   **   during Warmup 0 times;\n   *************  **   ~~~   **   during Sizing 0 times.\n   *************  **   ~~~   **   Max=1.962728  Min=-0.295402\n   *************\n   *************  ** Warning ** CalcDoe2DXCoil: Coil:Cooling:DX:SingleSpeed=\"COIL COOLING DX SINGLE SPEED 6 35KBTU/HR 14.0SEER\" - Full load outlet temperature indicates a possibility of frost/freeze error continues. Outlet air temperature statistics follow:\n   *************  **   ~~~   **   This error occurred 41 total times;\n   *************  **   ~~~   **   during Warmup 0 times;\n   *************  **   ~~~   **   during Sizing 0 times.\n   *************  **   ~~~   **   Max=1.959441  Min=-0.298717\n   *************\n   *************  ** Warning ** CalcDoe2DXCoil: Coil:Cooling:DX:SingleSpeed=\"COIL COOLING DX SINGLE SPEED 5 35KBTU/HR 14.0SEER\" - Full load outlet temperature indicates a possibility of frost/freeze error continues. Outlet air temperature statistics follow:\n   *************  **   ~~~   **   This error occurred 41 total times;\n   *************  **   ~~~   **   during Warmup 0 times;\n   *************  **   ~~~   **   during Sizing 0 times.\n   *************  **   ~~~   **   Max=1.961339  Min=-0.299525\n   *************\n   *************  ** Warning ** CalcDoe2DXCoil: Coil:Cooling:DX:SingleSpeed=\"COIL COOLING DX SINGLE SPEED 4 35KBTU/HR 14.0SEER\" - Full load outlet temperature indicates a possibility of frost/freeze error continues. Outlet air temperature statistics follow:\n   *************  **   ~~~   **   This error occurred 40 total times;\n   *************  **   ~~~   **   during Warmup 0 times;\n   *************  **   ~~~   **   during Sizing 0 times.\n   *************  **   ~~~   **   Max=1.991344  Min=-0.308253\n   *************\n   *************  ** Warning ** CalcDoe2DXCoil: Coil:Cooling:DX:SingleSpeed=\"COIL COOLING DX SINGLE SPEED 1 67KBTU/HR 9.7EER\" - Full load outlet temperature indicates a possibility of frost/freeze error continues. Outlet air temperature statistics follow:\n   *************  **   ~~~   **   This error occurred 50 total times;\n   *************  **   ~~~   **   during Warmup 0 times;\n   *************  **   ~~~   **   during Sizing 0 times.\n   *************  **   ~~~   **   Max=1.997185  Min=-0.59829\n   *************\n   *************  ** Warning ** CalcDoe2DXCoil: Coil:Cooling:DX:SingleSpeed=\"COIL COOLING DX SINGLE SPEED 9 36KBTU/HR 14.0SEER\" - Full load outlet temperature indicates a possibility of frost/freeze error continues. Outlet air temperature statistics follow:\n   *************  **   ~~~   **   This error occurred 17 total times;\n   *************  **   ~~~   **   during Warmup 0 times;\n   *************  **   ~~~   **   during Sizing 0 times.\n   *************  **   ~~~   **   Max=1.771518  Min=0.555874\n   *************\n   *************  ** Warning ** CalcDoe2DXCoil: Coil:Cooling:DX:SingleSpeed=\"COIL COOLING DX SINGLE SPEED 10 68KBTU/HR 9.7EER\" - Full load outlet temperature indicates a possibility of frost/freeze error continues. Outlet air temperature statistics follow:\n   *************  **   ~~~   **   This error occurred 22 total times;\n   *************  **   ~~~   **   during Warmup 0 times;\n   *************  **   ~~~   **   during Sizing 0 times.\n   *************  **   ~~~   **   Max=1.988701  Min=0.272095\n   *************\n   *************\n   ************* ===== Final Error Summary =====\n   ************* The following error categories occurred.  Consider correcting or noting.\n   ************* Nominally Unused Constructions\n   ************* ..The nominally unused constructions warning is provided to alert you to potential conditions that can cause\n   ************* ..extra time during simulation. Each construction is calculated by the algorithm indicated in the HeatBalanceAlgorithm\n   ************* ..object. You may remove the constructions indicated (when you use the DisplayExtraWarnings option).\n   *************\n   ************* EnergyPlus Warmup Error Summary. During Warmup: 0 Warning; 0 Severe Errors.\n   ************* EnergyPlus Sizing Error Summary. During Sizing: 87 Warning; 0 Severe Errors.\n   ************* EnergyPlus Completed Successfully-- 4177 Warning; 0 Severe Errors; Elapsed Time=00hr 00min 56.34sec\n",
   "file_format_version" : "0.0.1",
   "file_paths" : [ "../weather", "../seeds", "../seed" ],
   "hash" : "A206960B",
   "measure_paths" : [ "../measures" ],
   "name" : "LHS Autogenerated 822",
   "osa_id" : "4fef0e0f-5396-4c55-a6e1-2cd6803db3ab",
   "osd_id" : "007acc33-e9bd-4ab6-b741-a8761ad3f7fc",
   "run_directory" : "./run",
   "seed_file" : "seed.osm",
   "started_at" : "20170710T191638Z",
   "steps" : [
      {
         "arguments" : {
            "__SKIP__" : false,
            "building_type" : "RetailStripmall",
            "climate_zone" : "NECB HDD Method",
            "epw_file" : "CAN_AB_Fort.McMurray.719320_CWEC.epw",
            "template" : "NECB 2011"
         },
         "measure_dir_name" : "create_prototype_building",
         "name" : "create_prototype_building",
         "result" : {
            "completed_at" : "20170710T191749Z",
            "measure_class_name" : "CreatePrototypeBuilding",
            "measure_display_name" : "Create Prototype Building",
            "measure_name" : "create_prototype_building",
            "measure_taxonomy" : "Whole Building.Space Types",
            "measure_type" : "ModelMeasure",
            "measure_uid" : "ae90fsd7-a651-467a-bc8d-29d310b0f937",
            "measure_version_id" : "c6ec5c18-5595-459f-a082-09a19c8c869c",
            "measure_version_modified" : "20170519T182315Z",
            "measure_xml_checksum" : "057E8D9D",
            "started_at" : "20170710T191640Z",
            "stderr" : "",
            "stdout" : "[OpenStudio.Measure] <0> OSArgumentVector is deprecated, use OpenStudio::Measure::OSArgumentVector instead.\n[openstudio.EpwFile] <0> Successive data points (1973-Jan-31 to 1971-Feb-01, ending on line 753) are greater than 1 day apart in EPW file '/usr/local/bundle/bundler/gems/openstudio-standards-f448df66933d/openstudio-standards/data/weather/CAN_AB_Fort.McMurray.719320_CWEC.epw'. Data will be treated as typical (TMY)\n[openstudio.setFileExtension] <0> Path p, '/usr/local/bundle/bundler/gems/openstudio-standards-f448df66933d/openstudio-standards/data/weather/CAN_AB_Fort.McMurray.719320_CWEC.ddy', has an unexpected file extension. Was expecting 'idf'.\n[openstudio.model.YearDescription] <1> 'UseWeatherFile' is not yet a supported option for YearDescription\n[openstudio.model.YearDescription] <1> 'UseWeatherFile' is not yet a supported option for YearDescription\n[openstudio.setFileExtension] <0> Path p, '/usr/local/bundle/bundler/gems/openstudio-standards-f448df66933d/openstudio-standards/data/weather/CAN_AB_Fort.McMurray.719320_CWEC.ddy', has an unexpected file extension. Was expecting 'idf'.\n[openstudio.model.YearDescription] <1> 'UseWeatherFile' is not yet a supported option for YearDescription\n[openstudio.model.YearDescription] <1> 'UseWeatherFile' is not yet a supported option for YearDescription\n[openstudio.EpwFile] <0> Successive data points (1973-Jan-31 to 1971-Feb-01, ending on line 753) are greater than 1 day apart in EPW file '/usr/local/bundle/bundler/gems/openstudio-standards-f448df66933d/openstudio-standards/data/weather/CAN_AB_Fort.McMurray.719320_CWEC.epw'. Data will be treated as typical (TMY)\n[openstudio.weather.Model] <0> Could not find ground temperatures; will use generic temperatures, which will skew results.\n[openstudio.setFileExtension] <0> Path p, '/usr/local/bundle/bundler/gems/openstudio-standards-f448df66933d/openstudio-standards/data/weather/CAN_AB_Fort.McMurray.719320_CWEC.ddy', has an unexpected file extension. Was expecting 'idf'.\n[openstudio.model.YearDescription] <1> 'UseWeatherFile' is not yet a supported option for YearDescription\n[openstudio.model.YearDescription] <1> 'UseWeatherFile' is not yet a supported option for YearDescription\n[openstudio.EpwFile] <0> Successive data points (1973-Jan-31 to 1971-Feb-01, ending on line 753) are greater than 1 day apart in EPW file '/usr/local/bundle/bundler/gems/openstudio-standards-f448df66933d/openstudio-standards/data/weather/CAN_AB_Fort.McMurray.719320_CWEC.epw'. Data will be treated as typical (TMY)\n[openstudio.setFileExtension] <0> Path p, '/usr/local/bundle/bundler/gems/openstudio-standards-f448df66933d/openstudio-standards/data/weather/CAN_AB_Fort.McMurray.719320_CWEC.ddy', has an unexpected file extension. Was expecting 'idf'.\n[openstudio.model.YearDescription] <1> 'UseWeatherFile' is not yet a supported option for YearDescription\n[openstudio.model.YearDescription] <1> 'UseWeatherFile' is not yet a supported option for YearDescription\n[openstudio.setFileExtension] <0> Path p, '/usr/local/bundle/bundler/gems/openstudio-standards-f448df66933d/openstudio-standards/data/weather/CAN_AB_Fort.McMurray.719320_CWEC.ddy', has an unexpected file extension. Was expecting 'idf'.\n[openstudio.model.YearDescription] <1> 'UseWeatherFile' is not yet a supported option for YearDescription\n[openstudio.model.YearDescription] <1> 'UseWeatherFile' is not yet a supported option for YearDescription\n[openstudio.EpwFile] <0> Successive data points (1973-Jan-31 to 1971-Feb-01, ending on line 753) are greater than 1 day apart in EPW file '/usr/local/bundle/bundler/gems/openstudio-standards-f448df66933d/openstudio-standards/data/weather/CAN_AB_Fort.McMurray.719320_CWEC.epw'. Data will be treated as typical (TMY)\n[openstudio.setFileExtension] <0> Path p, '/usr/local/bundle/bundler/gems/openstudio-standards-f448df66933d/openstudio-standards/data/weather/CAN_AB_Fort.McMurray.719320_CWEC.ddy', has an unexpected file extension. Was expecting 'idf'.\n[openstudio.model.YearDescription] <1> 'UseWeatherFile' is not yet a supported option for YearDescription\n[openstudio.model.YearDescription] <1> 'UseWeatherFile' is not yet a supported option for YearDescription\n[openstudio.setFileExtension] <0> Path p, '/usr/local/bundle/bundler/gems/openstudio-standards-f448df66933d/openstudio-standards/data/weather/CAN_AB_Fort.McMurray.719320_CWEC.ddy', has an unexpected file extension. Was expecting 'idf'.\n[openstudio.model.YearDescription] <1> 'UseWeatherFile' is not yet a supported option for YearDescription\n[openstudio.model.YearDescription] <1> 'UseWeatherFile' is not yet a supported option for YearDescription\n[utilities.idf.WorkspaceObject] <0> Object of type 'Schedule:Constant' and named 'Always Off Discrete', points to an object named OnOff 1 from field 1, but that object cannot be located.\n[utilities.idf.WorkspaceObject] <0> Object of type 'Schedule:Constant' and named 'Always On Continuous', points to an object named Fractional 1 from field 1, but that object cannot be located.\n[utilities.idf.WorkspaceObject] <0> Object of type 'Schedule:Constant' and named 'Always Off Discrete', points to an object named OnOff 1 from field 1, but that object cannot be located.\n[utilities.idf.WorkspaceObject] <0> Object of type 'Schedule:Constant' and named 'Always On Continuous', points to an object named Fractional 1 from field 1, but that object cannot be located.\n[openstudio.standards.Fan] <0> For Fan Constant Volume 1, there is no greater nominal HP.  Use the efficiency of the largest motor category.\n[openstudio.standards.Fan] <0> For Fan Constant Volume 10, there is no greater nominal HP.  Use the efficiency of the largest motor category.\n[openstudio.standards.Fan] <0> For Fan Constant Volume 2, there is no greater nominal HP.  Use the efficiency of the largest motor category.\n[openstudio.standards.Fan] <0> For Fan Constant Volume 3, there is no greater nominal HP.  Use the efficiency of the largest motor category.\n[openstudio.standards.Fan] <0> For Fan Constant Volume 4, there is no greater nominal HP.  Use the efficiency of the largest motor category.\n[openstudio.standards.Fan] <0> For Fan Constant Volume 5, there is no greater nominal HP.  Use the efficiency of the largest motor category.\n[openstudio.standards.Fan] <0> For Fan Constant Volume 6, there is no greater nominal HP.  Use the efficiency of the largest motor category.\n[openstudio.standards.Fan] <0> For Fan Constant Volume 7, there is no greater nominal HP.  Use the efficiency of the largest motor category.\n[openstudio.standards.Fan] <0> For Fan Constant Volume 8, there is no greater nominal HP.  Use the efficiency of the largest motor category.\n[openstudio.standards.Fan] <0> For Fan Constant Volume 9, there is no greater nominal HP.  Use the efficiency of the largest motor category.\n[openstudio.EpwFile] <0> Successive data points (1973-Jan-31 to 1971-Feb-01, ending on line 753) are greater than 1 day apart in EPW file '/usr/local/bundle/bundler/gems/openstudio-standards-f448df66933d/openstudio-standards/data/weather/CAN_AB_Fort.McMurray.719320_CWEC.epw'. Data will be treated as typical (TMY)\n[openstudio.setFileExtension] <0> Path p, '/usr/local/bundle/bundler/gems/openstudio-standards-f448df66933d/openstudio-standards/data/weather/CAN_AB_Fort.McMurray.719320_CWEC.ddy', has an unexpected file extension. Was expecting 'idf'.\n[openstudio.model.YearDescription] <1> 'UseWeatherFile' is not yet a supported option for YearDescription\n[openstudio.model.YearDescription] <1> 'UseWeatherFile' is not yet a supported option for YearDescription\n[openstudio.setFileExtension] <0> Path p, '/usr/local/bundle/bundler/gems/openstudio-standards-f448df66933d/openstudio-standards/data/weather/CAN_AB_Fort.McMurray.719320_CWEC.ddy', has an unexpected file extension. Was expecting 'idf'.\n[openstudio.model.YearDescription] <1> 'UseWeatherFile' is not yet a supported option for YearDescription\n[openstudio.model.YearDescription] <1> 'UseWeatherFile' is not yet a supported option for YearDescription\n[openstudio.EpwFile] <0> Successive data points (1973-Jan-31 to 1971-Feb-01, ending on line 753) are greater than 1 day apart in EPW file '/usr/local/bundle/bundler/gems/openstudio-standards-f448df66933d/openstudio-standards/data/weather/CAN_AB_Fort.McMurray.719320_CWEC.epw'. Data will be treated as typical (TMY)\n[openstudio.setFileExtension] <0> Path p, '/usr/local/bundle/bundler/gems/openstudio-standards-f448df66933d/openstudio-standards/data/weather/CAN_AB_Fort.McMurray.719320_CWEC.ddy', has an unexpected file extension. Was expecting 'idf'.\n[openstudio.model.YearDescription] <1> 'UseWeatherFile' is not yet a supported option for YearDescription\n[openstudio.model.YearDescription] <1> 'UseWeatherFile' is not yet a supported option for YearDescription\n[openstudio.setFileExtension] <0> Path p, '/usr/local/bundle/bundler/gems/openstudio-standards-f448df66933d/openstudio-standards/data/weather/CAN_AB_Fort.McMurray.719320_CWEC.ddy', has an unexpected file extension. Was expecting 'idf'.\n[openstudio.model.YearDescription] <1> 'UseWeatherFile' is not yet a supported option for YearDescription\n[openstudio.model.YearDescription] <1> 'UseWeatherFile' is not yet a supported option for YearDescription\n[openstudio.EpwFile] <0> Successive data points (1973-Jan-31 to 1971-Feb-01, ending on line 753) are greater than 1 day apart in EPW file '/usr/local/bundle/bundler/gems/openstudio-standards-f448df66933d/openstudio-standards/data/weather/CAN_AB_Fort.McMurray.719320_CWEC.epw'. Data will be treated as typical (TMY)\n[openstudio.setFileExtension] <0> Path p, '/usr/local/bundle/bundler/gems/openstudio-standards-f448df66933d/openstudio-standards/data/weather/CAN_AB_Fort.McMurray.719320_CWEC.ddy', has an unexpected file extension. Was expecting 'idf'.\n[openstudio.model.YearDescription] <1> 'UseWeatherFile' is not yet a supported option for YearDescription\n[openstudio.model.YearDescription] <1> 'UseWeatherFile' is not yet a supported option for YearDescription\n[openstudio.setFileExtension] <0> Path p, '/usr/local/bundle/bundler/gems/openstudio-standards-f448df66933d/openstudio-standards/data/weather/CAN_AB_Fort.McMurray.719320_CWEC.ddy', has an unexpected file extension. Was expecting 'idf'.\n[openstudio.model.YearDescription] <1> 'UseWeatherFile' is not yet a supported option for YearDescription\n[openstudio.model.YearDescription] <1> 'UseWeatherFile' is not yet a supported option for YearDescription\n[openstudio.EpwFile] <0> Successive data points (1973-Jan-31 to 1971-Feb-01, ending on line 753) are greater than 1 day apart in EPW file '/usr/local/bundle/bundler/gems/openstudio-standards-f448df66933d/openstudio-standards/data/weather/CAN_AB_Fort.McMurray.719320_CWEC.epw'. Data will be treated as typical (TMY)\n[openstudio.setFileExtension] <0> Path p, '/usr/local/bundle/bundler/gems/openstudio-standards-f448df66933d/openstudio-standards/data/weather/CAN_AB_Fort.McMurray.719320_CWEC.ddy', has an unexpected file extension. Was expecting 'idf'.\n[openstudio.model.YearDescription] <1> 'UseWeatherFile' is not yet a supported option for YearDescription\n[openstudio.model.YearDescription] <1> 'UseWeatherFile' is not yet a supported option for YearDescription\n[openstudio.setFileExtension] <0> Path p, '/usr/local/bundle/bundler/gems/openstudio-standards-f448df66933d/openstudio-standards/data/weather/CAN_AB_Fort.McMurray.719320_CWEC.ddy', has an unexpected file extension. Was expecting 'idf'.\n[openstudio.model.YearDescription] <1> 'UseWeatherFile' is not yet a supported option for YearDescription\n[openstudio.model.YearDescription] <1> 'UseWeatherFile' is not yet a supported option for YearDescription\n[openstudio.EpwFile] <0> Successive data points (1973-Jan-31 to 1971-Feb-01, ending on line 753) are greater than 1 day apart in EPW file '/usr/local/bundle/bundler/gems/openstudio-standards-f448df66933d/openstudio-standards/data/weather/CAN_AB_Fort.McMurray.719320_CWEC.epw'. Data will be treated as typical (TMY)\n[openstudio.setFileExtension] <0> Path p, '/usr/local/bundle/bundler/gems/openstudio-standards-f448df66933d/openstudio-standards/data/weather/CAN_AB_Fort.McMurray.719320_CWEC.ddy', has an unexpected file extension. Was expecting 'idf'.\n[openstudio.model.YearDescription] <1> 'UseWeatherFile' is not yet a supported option for YearDescription\n[openstudio.model.YearDescription] <1> 'UseWeatherFile' is not yet a supported option for YearDescription\n[openstudio.setFileExtension] <0> Path p, '/usr/local/bundle/bundler/gems/openstudio-standards-f448df66933d/openstudio-standards/data/weather/CAN_AB_Fort.McMurray.719320_CWEC.ddy', has an unexpected file extension. Was expecting 'idf'.\n[openstudio.model.YearDescription] <1> 'UseWeatherFile' is not yet a supported option for YearDescription\n[openstudio.model.YearDescription] <1> 'UseWeatherFile' is not yet a supported option for YearDescription\n[openstudio.EpwFile] <0> Successive data points (1973-Jan-31 to 1971-Feb-01, ending on line 753) are greater than 1 day apart in EPW file '/usr/local/bundle/bundler/gems/openstudio-standards-f448df66933d/openstudio-standards/data/weather/CAN_AB_Fort.McMurray.719320_CWEC.epw'. Data will be treated as typical (TMY)\n[openstudio.setFileExtension] <0> Path p, '/usr/local/bundle/bundler/gems/openstudio-standards-f448df66933d/openstudio-standards/data/weather/CAN_AB_Fort.McMurray.719320_CWEC.ddy', has an unexpected file extension. Was expecting 'idf'.\n[openstudio.model.YearDescription] <1> 'UseWeatherFile' is not yet a supported option for YearDescription\n[openstudio.model.YearDescription] <1> 'UseWeatherFile' is not yet a supported option for YearDescription\n[openstudio.setFileExtension] <0> Path p, '/usr/local/bundle/bundler/gems/openstudio-standards-f448df66933d/openstudio-standards/data/weather/CAN_AB_Fort.McMurray.719320_CWEC.ddy', has an unexpected file extension. Was expecting 'idf'.\n[openstudio.model.YearDescription] <1> 'UseWeatherFile' is not yet a supported option for YearDescription\n[openstudio.model.YearDescription] <1> 'UseWeatherFile' is not yet a supported option for YearDescription\n[openstudio.EpwFile] <0> Successive data points (1973-Jan-31 to 1971-Feb-01, ending on line 753) are greater than 1 day apart in EPW file '/usr/local/bundle/bundler/gems/openstudio-standards-f448df66933d/openstudio-standards/data/weather/CAN_AB_Fort.McMurray.719320_CWEC.epw'. Data will be treated as typical (TMY)\n[openstudio.setFileExtension] <0> Path p, '/usr/local/bundle/bundler/gems/openstudio-standards-f448df66933d/openstudio-standards/data/weather/CAN_AB_Fort.McMurray.719320_CWEC.ddy', has an unexpected file extension. Was expecting 'idf'.\n[openstudio.model.YearDescription] <1> 'UseWeatherFile' is not yet a supported option for YearDescription\n[openstudio.model.YearDescription] <1> 'UseWeatherFile' is not yet a supported option for YearDescription\n[openstudio.setFileExtension] <0> Path p, '/usr/local/bundle/bundler/gems/openstudio-standards-f448df66933d/openstudio-standards/data/weather/CAN_AB_Fort.McMurray.719320_CWEC.ddy', has an unexpected file extension. Was expecting 'idf'.\n[openstudio.model.YearDescription] <1> 'UseWeatherFile' is not yet a supported option for YearDescription\n[openstudio.model.YearDescription] <1> 'UseWeatherFile' is not yet a supported option for YearDescription\n[openstudio.EpwFile] <0> Successive data points (1973-Jan-31 to 1971-Feb-01, ending on line 753) are greater than 1 day apart in EPW file '/usr/local/bundle/bundler/gems/openstudio-standards-f448df66933d/openstudio-standards/data/weather/CAN_AB_Fort.McMurray.719320_CWEC.epw'. Data will be treated as typical (TMY)\n[openstudio.setFileExtension] <0> Path p, '/usr/local/bundle/bundler/gems/openstudio-standards-f448df66933d/openstudio-standards/data/weather/CAN_AB_Fort.McMurray.719320_CWEC.ddy', has an unexpected file extension. Was expecting 'idf'.\n[openstudio.model.YearDescription] <1> 'UseWeatherFile' is not yet a supported option for YearDescription\n[openstudio.model.YearDescription] <1> 'UseWeatherFile' is not yet a supported option for YearDescription\n[openstudio.setFileExtension] <0> Path p, '/usr/local/bundle/bundler/gems/openstudio-standards-f448df66933d/openstudio-standards/data/weather/CAN_AB_Fort.McMurray.719320_CWEC.ddy', has an unexpected file extension. Was expecting 'idf'.\n[openstudio.model.YearDescription] <1> 'UseWeatherFile' is not yet a supported option for YearDescription\n[openstudio.model.YearDescription] <1> 'UseWeatherFile' is not yet a supported option for YearDescription\n[openstudio.EpwFile] <0> Successive data points (1973-Jan-31 to 1971-Feb-01, ending on line 753) are greater than 1 day apart in EPW file '/usr/local/bundle/bundler/gems/openstudio-standards-f448df66933d/openstudio-standards/data/weather/CAN_AB_Fort.McMurray.719320_CWEC.epw'. Data will be treated as typical (TMY)\n[openstudio.setFileExtension] <0> Path p, '/usr/local/bundle/bundler/gems/openstudio-standards-f448df66933d/openstudio-standards/data/weather/CAN_AB_Fort.McMurray.719320_CWEC.ddy', has an unexpected file extension. Was expecting 'idf'.\n[openstudio.model.YearDescription] <1> 'UseWeatherFile' is not yet a supported option for YearDescription\n[openstudio.model.YearDescription] <1> 'UseWeatherFile' is not yet a supported option for YearDescription\n[openstudio.setFileExtension] <0> Path p, '/usr/local/bundle/bundler/gems/openstudio-standards-f448df66933d/openstudio-standards/data/weather/CAN_AB_Fort.McMurray.719320_CWEC.ddy', has an unexpected file extension. Was expecting 'idf'.\n[openstudio.model.YearDescription] <1> 'UseWeatherFile' is not yet a supported option for YearDescription\n[openstudio.model.YearDescription] <1> 'UseWeatherFile' is not yet a supported option for YearDescription\n[openstudio.EpwFile] <0> Successive data points (1973-Jan-31 to 1971-Feb-01, ending on line 753) are greater than 1 day apart in EPW file '/usr/local/bundle/bundler/gems/openstudio-standards-f448df66933d/openstudio-standards/data/weather/CAN_AB_Fort.McMurray.719320_CWEC.epw'. Data will be treated as typical (TMY)\n[openstudio.setFileExtension] <0> Path p, '/usr/local/bundle/bundler/gems/openstudio-standards-f448df66933d/openstudio-standards/data/weather/CAN_AB_Fort.McMurray.719320_CWEC.ddy', has an unexpected file extension. Was expecting 'idf'.\n[openstudio.model.YearDescription] <1> 'UseWeatherFile' is not yet a supported option for YearDescription\n[openstudio.model.YearDescription] <1> 'UseWeatherFile' is not yet a supported option for YearDescription\n[openstudio.setFileExtension] <0> Path p, '/usr/local/bundle/bundler/gems/openstudio-standards-f448df66933d/openstudio-standards/data/weather/CAN_AB_Fort.McMurray.719320_CWEC.ddy', has an unexpected file extension. Was expecting 'idf'.\n[openstudio.model.YearDescription] <1> 'UseWeatherFile' is not yet a supported option for YearDescription\n[openstudio.model.YearDescription] <1> 'UseWeatherFile' is not yet a supported option for YearDescription\n[openstudio.standards.Fan] <0> For Fan Constant Volume 1, there is no greater nominal HP.  Use the efficiency of the largest motor category.\n[openstudio.standards.Fan] <0> For Fan Constant Volume 10, there is no greater nominal HP.  Use the efficiency of the largest motor category.\n[openstudio.standards.Fan] <0> For Fan Constant Volume 2, there is no greater nominal HP.  Use the efficiency of the largest motor category.\n[openstudio.standards.Fan] <0> For Fan Constant Volume 3, there is no greater nominal HP.  Use the efficiency of the largest motor category.\n[openstudio.standards.Fan] <0> For Fan Constant Volume 4, there is no greater nominal HP.  Use the efficiency of the largest motor category.\n[openstudio.standards.Fan] <0> For Fan Constant Volume 5, there is no greater nominal HP.  Use the efficiency of the largest motor category.\n[openstudio.standards.Fan] <0> For Fan Constant Volume 6, there is no greater nominal HP.  Use the efficiency of the largest motor category.\n[openstudio.standards.Fan] <0> For Fan Constant Volume 7, there is no greater nominal HP.  Use the efficiency of the largest motor category.\n[openstudio.standards.Fan] <0> For Fan Constant Volume 8, there is no greater nominal HP.  Use the efficiency of the largest motor category.\n[openstudio.standards.Fan] <0> For Fan Constant Volume 9, there is no greater nominal HP.  Use the efficiency of the largest motor category.\n",
            "step_errors" : [],
            "step_files" : [],
            "step_info" : [
               "Started adding geometry",
               "Finished adding geometry",
               "Started adding weather file for climate zone: NECB HDD Method.",
               "Template =",
               "Setting LGstore1 to Space Function.Retail - sales",
               "Setting LGstore2 to Space Function.Retail - sales",
               "Setting SMstore1 to Space Function.Retail - sales",
               "Setting SMstore2 to Space Function.Retail - sales",
               "Setting SMstore3 to Space Function.Retail - sales",
               "Setting SMstore4 to Space Function.Retail - sales",
               "Setting SMstore5 to Space Function.Retail - sales",
               "Setting SMstore6 to Space Function.Retail - sales",
               "Setting SMstore7 to Space Function.Retail - sales",
               "Setting SMstore8 to Space Function.Retail - sales",
               "Started applying space types (loads)",
               "Space Function Retail - sales had no people, one has been created.",
               "Space Function Retail - sales set occupancy to 3.1 people/1000 ft^2.",
               "Space Function Retail - sales had no lights, one has been created.",
               "Space Function Retail - sales set LPD to 1.681531029 W/ft^2.",
               "Space Function Retail - sales had no electric equipment, one has been created.",
               "Space Function Retail - sales set electric EPD to 0.232255667 W/ft^2.",
               "Space Function Retail - sales had no ventilation specification, one has been created.",
               "Space Function Retail - sales set ventilation per area to 0.233 cfm/ft^2.",
               "Space Function Retail - sales had no infiltration objects, one has been created.",
               "Space Function Retail - sales set infiltration to 0.0 per ft^2 exterior surface area.",
               "Space Function Retail - sales set occupancy schedule to NECB-C-Occupancy.",
               "Space Function Retail - sales set occupant activity schedule to NECB-Activity.",
               "Space Function Retail - sales set lighting schedule to NECB-C-Lighting.",
               "Space Function Retail - sales set electric equipment schedule to NECB-C-Electric-Equipment.",
               "Space Function Retail - sales set infiltration schedule to Always On.",
               "Space Function Retail - sales set heating setpoint schedule to NECB-C-Thermostat Setpoint-Heating.",
               "Space Function Retail - sales set cooling setpoint schedule to NECB-C-Thermostat Setpoint-Cooling.",
               "Finished applying space types (loads)",
               "Started applying constructions",
               "Adding construction set: NECB 2011-NECB HDD Method-StripMall--is_residentialNo",
               "Adding construction Typical Insulated Exterior Mass Floor R-15.63.",
               "Adding construction Typical Insulated Exterior Mass Wall R-12.5.",
               "Adding construction Typical Insulated Metal Building Roof R-20.41.",
               "Adding construction Typical Interior Floor.",
               "Adding construction Typical Interior Wall.",
               "Adding construction Typical Interior Ceiling.",
               "Adding construction Typical Insulated Carpeted 6in Slab Floor.",
               "Adding construction U 0.55 SHGC 0.31 Dbl Ref-D Tint 6mm/6mm Air.",
               "Adding construction Typical Insulated Metal Door R-1.43.",
               "Adding construction U 0.35 SHGC 0.35 Dbl LoE (e2-.1) Tint 6mm/13mm Air.",
               "Adding construction Typical Overhead Door R-2.0.",
               "Adding construction U 0.48 SHGC 0.40 Dbl Ref-D Clr 6mm/13mm.",
               "Adding construction Typical Interior Window.",
               "Adding construction Typical Interior Door.",
               "Adding construction Typical Interior Partition.",
               "Finished applying constructions",
               "WWR NonRes = 0%; window = 0 ft2, wall = 0 ft2.",
               "WWR Res = 0%; window = 0 ft2, wall = 0 ft2.",
               "WWR Semiheated = 0%; window = 0 ft2, wall = 0 ft2.",
               "The skylight to roof ratios (SRRs) are: NonRes: 0%, Res: 0%.",
               "Started creating thermal zones",
               "Finished creating thermal zones",
               "Running simulation /mnt/openstudio/analysis_4fef0e0f-5396-4c55-a6e1-2cd6803db3ab/data_point_007acc33-e9bd-4ab6-b741-a8761ad3f7fc/run/000_create_prototype_building/output/RetailStripmall-NECB 2011-NECB HDD Method-CAN_AB_Fort.McMurray.719320_CWEC.epw/SR0.",
               "Finished run.",
               "Started Adding HVAC",
               "Finished adding HVAC",
               "Started Adding Service Water Heating",
               "Adding service water loop.",
               "Adding water heater.",
               "Template =",
               "Finished adding Service Water Heating",
               "Set sizing factors to 1.3 for heating and 1.3 for cooling.",
               "Running simulation /mnt/openstudio/analysis_4fef0e0f-5396-4c55-a6e1-2cd6803db3ab/data_point_007acc33-e9bd-4ab6-b741-a8761ad3f7fc/run/000_create_prototype_building/output/RetailStripmall-NECB 2011-NECB HDD Method-CAN_AB_Fort.McMurray.719320_CWEC.epw/SR1.",
               "Finished run.",
               "Started applying multizone vav OA sizing.",
               "Finished applying multizone vav OA sizing.",
               "Started applying prototype HVAC assumptions.",
               "For Fan Constant Volume 1: allowed_hp = 1.73HP; motor eff = 61.5%; total fan eff = 40% based on 2525 cfm.",
               "For Fan Constant Volume 10: allowed_hp = 1.76HP; motor eff = 61.5%; total fan eff = 40% based on 2569 cfm.",
               "For Fan Constant Volume 2: allowed_hp = 1.01HP; motor eff = 61.5%; total fan eff = 40% based on 1302 cfm.",
               "For Fan Constant Volume 3: allowed_hp = 1.01HP; motor eff = 61.5%; total fan eff = 40% based on 1328 cfm.",
               "For Fan Constant Volume 4: allowed_hp = 1.01HP; motor eff = 61.5%; total fan eff = 40% based on 1304 cfm.",
               "For Fan Constant Volume 5: allowed_hp = 1.01HP; motor eff = 61.5%; total fan eff = 40% based on 1302 cfm.",
               "For Fan Constant Volume 6: allowed_hp = 1.01HP; motor eff = 61.5%; total fan eff = 40% based on 1302 cfm.",
               "For Fan Constant Volume 7: allowed_hp = 1.01HP; motor eff = 61.5%; total fan eff = 40% based on 1324 cfm.",
               "For Fan Constant Volume 8: allowed_hp = 1.01HP; motor eff = 61.5%; total fan eff = 40% based on 1324 cfm.",
               "For Fan Constant Volume 9: allowed_hp = 1.01HP; motor eff = 61.5%; total fan eff = 40% based on 1340 cfm.",
               "Sp-SMstore3 Sys-3 Flr-1 Sch-C HPlcmt-north ZN NECB System 3 PSZ does not require an economizer because the total cooling capacity of 34701 Btu/hr is less than the minimum capacity of 68243 Btu/hr.",
               "Sp-SMstore7 Sys-3 Flr-1 Sch-C HPlcmt-north ZN NECB System 3 PSZ does not require an economizer because the total cooling capacity of 34755 Btu/hr is less than the minimum capacity of 68243 Btu/hr.",
               "Sp-SMstore2 Sys-3 Flr-1 Sch-C HPlcmt-north ZN NECB System 3 PSZ does not require an economizer because the total cooling capacity of 34712 Btu/hr is less than the minimum capacity of 68243 Btu/hr.",
               "Sp-LGstore2 Sys-3 Flr-1 Sch-C HPlcmt-north ZN NECB System 3 PSZ does not require an economizer because the total cooling capacity of 67313 Btu/hr is less than the minimum capacity of 68243 Btu/hr.",
               "Sp-SMstore5 Sys-3 Flr-1 Sch-C HPlcmt-north ZN NECB System 3 PSZ does not require an economizer because the total cooling capacity of 35301 Btu/hr is less than the minimum capacity of 68243 Btu/hr.",
               "Sp-SMstore1 Sys-3 Flr-1 Sch-C HPlcmt-north ZN NECB System 3 PSZ does not require an economizer because the total cooling capacity of 35408 Btu/hr is less than the minimum capacity of 68243 Btu/hr.",
               "Sp-SMstore6 Sys-3 Flr-1 Sch-C HPlcmt-north ZN NECB System 3 PSZ does not require an economizer because the total cooling capacity of 34707 Btu/hr is less than the minimum capacity of 68243 Btu/hr.",
               "Sp-SMstore4 Sys-3 Flr-1 Sch-C HPlcmt-north ZN NECB System 3 PSZ does not require an economizer because the total cooling capacity of 35300 Btu/hr is less than the minimum capacity of 68243 Btu/hr.",
               "Sp-SMstore8 Sys-3 Flr-1 Sch-C HPlcmt-east ZN NECB System 3 PSZ does not require an economizer because the total cooling capacity of 35730 Btu/hr is less than the minimum capacity of 68243 Btu/hr.",
               "Sp-LGstore1 Sys-3 Flr-1 Sch-C HPlcmt-west ZN NECB System 3 PSZ requires an economizer because the total cooling capacity of 68484 Btu/hr exceeds the minimum capacity of 68243 Btu/hr.",
               "Finished applying prototype HVAC assumptions.",
               "Started applying HVAC efficiency standards.",
               "For Sp-LGstore1 Sys-3 Flr-1 Sch-C HPlcmt-west ZN NECB System 3 PSZ, ERV not required based on 0% OA flow, design supply air flow of 2569cfm, and climate zone NECB HDD Method.",
               "For Sp-LGstore1 Sys-3 Flr-1 Sch-C HPlcmt-west ZN NECB System 3 PSZ, ERV not required based on exhaust heat content.",
               "For NECB 2011 NECB HDD Method:  Sp-LGstore1 Sys-3 Flr-1 Sch-C HPlcmt-west ZN NECB System 3 PSZ: DCV is not required for any system.",
               "For Sp-LGstore1 Sys-3 Flr-1 Sch-C HPlcmt-west ZN NECB System 3 PSZ: Annual occupied hours = 4168 hr/yr, assuming a 0.15 occupancy threshold.  This schedule will be used as the HVAC operation schedule.",
               "For Sp-LGstore1 Sys-3 Flr-1 Sch-C HPlcmt-west ZN NECB System 3 PSZ: Because the system has an economizer, it requires a motorized OA damper.",
               "For Sp-LGstore1 Sys-3 Flr-1 Sch-C HPlcmt-west ZN NECB System 3 PSZ: Setting motorized OA damper schedule to Sp-LGstore1 Sys-3 Flr-1 Sch-C HPlcmt-west ZN NECB System 3 PSZ Occ Sch.",
               "For Sp-LGstore2 Sys-3 Flr-1 Sch-C HPlcmt-north ZN NECB System 3 PSZ, ERV not required based on 0% OA flow, design supply air flow of 2525cfm, and climate zone NECB HDD Method.",
               "For Sp-LGstore2 Sys-3 Flr-1 Sch-C HPlcmt-north ZN NECB System 3 PSZ, ERV not required based on exhaust heat content.",
               "For NECB 2011 NECB HDD Method:  Sp-LGstore2 Sys-3 Flr-1 Sch-C HPlcmt-north ZN NECB System 3 PSZ: DCV is not required for any system.",
               "For Sp-LGstore2 Sys-3 Flr-1 Sch-C HPlcmt-north ZN NECB System 3 PSZ: Annual occupied hours = 4168 hr/yr, assuming a 0.15 occupancy threshold.  This schedule will be used as the HVAC operation schedule.",
               "For Sp-LGstore2 Sys-3 Flr-1 Sch-C HPlcmt-north ZN NECB System 3 PSZ: Setting motorized OA damper schedule to Sp-LGstore2 Sys-3 Flr-1 Sch-C HPlcmt-north ZN NECB System 3 PSZ Occ Sch.",
               "For Sp-SMstore1 Sys-3 Flr-1 Sch-C HPlcmt-north ZN NECB System 3 PSZ, ERV not required based on 0% OA flow, design supply air flow of 1328cfm, and climate zone NECB HDD Method.",
               "For Sp-SMstore1 Sys-3 Flr-1 Sch-C HPlcmt-north ZN NECB System 3 PSZ, ERV not required based on exhaust heat content.",
               "For NECB 2011 NECB HDD Method:  Sp-SMstore1 Sys-3 Flr-1 Sch-C HPlcmt-north ZN NECB System 3 PSZ: DCV is not required for any system.",
               "For Sp-SMstore1 Sys-3 Flr-1 Sch-C HPlcmt-north ZN NECB System 3 PSZ: Annual occupied hours = 4168 hr/yr, assuming a 0.15 occupancy threshold.  This schedule will be used as the HVAC operation schedule.",
               "For Sp-SMstore1 Sys-3 Flr-1 Sch-C HPlcmt-north ZN NECB System 3 PSZ: Setting motorized OA damper schedule to Sp-SMstore1 Sys-3 Flr-1 Sch-C HPlcmt-north ZN NECB System 3 PSZ Occ Sch.",
               "For Sp-SMstore2 Sys-3 Flr-1 Sch-C HPlcmt-north ZN NECB System 3 PSZ, ERV not required based on 0% OA flow, design supply air flow of 1302cfm, and climate zone NECB HDD Method.",
               "For Sp-SMstore2 Sys-3 Flr-1 Sch-C HPlcmt-north ZN NECB System 3 PSZ, ERV not required based on exhaust heat content.",
               "For NECB 2011 NECB HDD Method:  Sp-SMstore2 Sys-3 Flr-1 Sch-C HPlcmt-north ZN NECB System 3 PSZ: DCV is not required for any system.",
               "For Sp-SMstore2 Sys-3 Flr-1 Sch-C HPlcmt-north ZN NECB System 3 PSZ: Annual occupied hours = 4168 hr/yr, assuming a 0.15 occupancy threshold.  This schedule will be used as the HVAC operation schedule.",
               "For Sp-SMstore2 Sys-3 Flr-1 Sch-C HPlcmt-north ZN NECB System 3 PSZ: Setting motorized OA damper schedule to Sp-SMstore2 Sys-3 Flr-1 Sch-C HPlcmt-north ZN NECB System 3 PSZ Occ Sch.",
               "For Sp-SMstore3 Sys-3 Flr-1 Sch-C HPlcmt-north ZN NECB System 3 PSZ, ERV not required based on 0% OA flow, design supply air flow of 1302cfm, and climate zone NECB HDD Method.",
               "For Sp-SMstore3 Sys-3 Flr-1 Sch-C HPlcmt-north ZN NECB System 3 PSZ, ERV not required based on exhaust heat content.",
               "For NECB 2011 NECB HDD Method:  Sp-SMstore3 Sys-3 Flr-1 Sch-C HPlcmt-north ZN NECB System 3 PSZ: DCV is not required for any system.",
[...]
5rMJ5yGMVzkMeq3D9bwP7vGKswnlsoJFXjFU4j2atfOVXkdQbq2bfVQKwkK8GzEK+GDAL+VrALOSxCmYhj1UwC3msglnIYxXMQh6rYBYVYxXOQ77d4jzksQrnIY9VOA95rMJ5yGMVzkMeq3Ae8liF85DHKpyHPFbh+t8G9nnFWIXz2EAjrxircB7NWvnKxPd6Y9UsEh5gIV8NmIV8MWAW8rWAWchjFcxCHqtgFvJYBbOQxyqYhTxWwSwqxiqch3y7xXnIYxXOQx6rcB7yWIXzkMcqnIc8VuE85LEK5yGPVTgPeazC9b8N7POKsQrnsYFGXjFW4TyatfKVwbr1xqpZ8i7AQr4aMAv5YsAs5GsBs5DHKpiFPFbBLOSxCmYhj1UwC3msgllUjFU4D/l2i/OQxyqchzxW4TzksQrnIY9VOA95rMJ5yGMVzkMeq3Ae8liF638b2OcVYxXOYwONvGKswnk0a+Ur8wvrjVWzgEOAhXw1YBbyxYBZyNcCZiGPVTALeayCWchjFcxCHqtgFvJYBbOoDFtDeci3W5xHVZAVyqMq4wrlURV/hfKoynxDeVTFwaE8qpLiUB5VIXIoj6p8OVT/28A+r0ylQ3lsoJFXjFU4j9Wt/G2dhNd5dLM6UWN9uwiQLXNj29nNZadMgF0ZFbvIf850/l0yHYdZe9DrKM8bdFTf/M0f1IubvSswHmKtw3AY5PoySe+f3UXZLD/54fXXCJkuBF6loU5fT02cce0nGo77ZY6XOsimqZ5hmETm+Xlfc8A3l7nMZS5zmctc5jKXucxlLnOZy1zmMpe5zGUuc5nLXOYyl7nMZS5zmctc5jKXucxlLnOZy1zmMpe5zGUuc5nLXOYyl7nMZS5zmctc5jKX/1LL993kRqdpFOqXgflgrdftOX5e1Xw0Nlv+aOyZTiOdzT9e2+osPkA8iZO8G0djvfIjstnnPqe7+pO1Wbf86vlJEgd5lIwLqFaW68nuub5IUt2q98nnn/SlHofLL2j2s/ZBr6P65pPLPfNBZvNHK9YXuQFbIb2Q7b671PnpODfnp7C4mI5HJWl7R/2xQmJBqB+e/WblZ7nNEV2odn4VZd2svCr1jMzx6End4vydBqOr9v+AbdUW+Oaj4wX7XPfdJMkiI/i8+HGdV7M4jMxnqNLk1g5pgRWNQ232w67XsXz24njf9IkXkY5NvbXn53S2Ty7TZDrRofr6a/WP+c/vuu+ugmz++XezwXYer95/drU4Id3g8vKF8ejGenyZX6lvla/+rVrP4rilni4/IoujkW7vejtvem93Vu63T15Jkqr2++Kl9L5R7wubeanOfc3P/lnccewvkDlMGc/13rx/2/2g79XJycns5DVTLFXnl/297UtdHOepDj40efJHy+fYPt6cr/mrOzFlbYphXillkEP3XZBl0eVYh0MTEZG9Kc/k22ancnGhJ9Psqt30WhSX9OnsejbfSXH8tM6r7JpHNnXJ8jT5oOv5zB7b1CmZBKMov69nNX9w41dVWiysmqosbiTLt5Um28P65mOOxXZevvGoXeXZqtlst/qsHztlV631+I+rZgpz7O2pX377Vf331W+v1dmr17/++PP36qdX3/84VD+cvj6tJ/CiuGvru8CMaCpPVJakuRpPr4s6GKky0iRTQTYqhpdofFlDcXHujc6jzhx01Hn9m0uq82k6VpMgzfSLOAnydmBu+TvFpXz0s/PyZ7VO5uoR7ZHt/CWsEv643qSXh/mz3O7lZm8/CfVFMI1zNUmT4h6mn3TUk6+OjobD09Mnaw6eIQ5xiEMc4hCHOMQhDnGIQ5y/Jo7KptfFP4FVqM0PVRjcG6JUh6QhDWlIQxrSkIY0pCENaUhDmmqa2/K/Zv2J5jyeauIQhzjEIQ5xiEMc4hCHOMQhThOch+8N9Mz3Bp5Npe8N7Hvlb9iePdvfPz4mKUlJSlKSkpSkJCUpSUlKUpKSlKTbQeqXpEEukfZK0n7f948OSEpSkpKUpCQlKUlJSlKSkpSkJCXpdpD2DemLNBJI/eOS1PMOD/t9kpKUpCQlKUlJSlKSkpSkJCUpSUm6HaT7hvTXq6lEelSSHhfH4DuSkpSkJCUpSUlKUpKSlKQkJSlJSbodpAND+h8dSqSHJenz58Ph4SFJSUpSkpKUpCQlKUlJSlKSkpSkJN0O0oPynYmplkgPStLh8OCApCQlKUlJSlKSkpSkJCUpSUlKUpJuC+mhIX2ZSMmC/qAkPTry/cGApCQlKUlJSlKSkpSkJCUpSUlKUpJujHSBEqbBbXul2F03j/JYn10FE93N9V3efvJDMk2z1Rj3nz7zeXStx1mUjGOdlQorJPb21LMwVIEqldRtlF+pLLnWKuyveGZ2c9kNJhM9Dtst493aWfGExdEN8jxtt+5aHXXQs3zSffEkv/6Tsvw+1jO83WA8ukrS4vmtWF9Y0M41LpJxvnuro8ur3GicJ3FYX2N2bc4mu2cvszxJ9b46u892++pFnO566mx0tTtUP/wSj67z3XGSFpfg95/Vz6fD78zDcn2t+uqXs9/Vq9HIPPbJTtVF/XYvG6XRJP+X+Jhv98Lo5vPL4nNksUJLReFJa2QqflicpCAa6/Td4KilyjN30gqjbBIH90+jcVws7Z7HyejDNy2ZrxCdvQSV30+K55uTt/c+uAlmP618pjlugtQUpzpRYXQ9iXV3rG/Pbi7bra8+Zeyo/V6v/GPlZjOyYZAHhe6bP1pxcK7j1tNWqC+CaZyrSZpcRLFudWYr7+5aT71ur9O6CeKpnv99ZO5JxXOK28xweHra+tippeODdPognX2QzgCkcwDSOQTpHIF0jkE6Xg8lhKpoD1XSHqqmPVRRe6iq9lBl7aHq2kMVtoeqbB9V2T7sXo2qbB9V2b5VZatsen299CXVtTpaqkMLGfEc2cmIZ8hORjw/djLivreTEXe9nYy45+1kxB1vJyPudzsZuZFZ6oDqWG5jljqgSpabmKUOqJblFmapA6pmuYFZ6oDqWW5fljqo+zKonuXeZalTv55vo3Fu37bOzY/q64inx1JHPD2WOuLpsdQRt7uljrjdLXXE7W6pI253Sx1xu1vqyP3LVghV0XIHsxVC1bTcw2yFUFUtdzFbIVRdy33MVghV2XInsxWC3atRlS03M1uh+pX98FuLld8qLLW53tI/9GZfOwyw8Ndv0V+/xf76LQbrtzhYv8Xh+i2O1m9xvH6Lpc6+Lo8N7O+KN2ZxHvI7WzgP+U0vnIf8Ti/OQ34TGOchvz+M85DfOsZ5yO8q4/rfBva5v4k+voFG7m+gk/vNWvnKL2+sN1bNvt0RYCFfDZiFfDFgFvK1gFnIYxXMQh6rYBbyWAWzkMcqmIU8VsEsKn5zjfOQf/WH85DHKpyHPFbhPOSxCuchj1U4D3mswnnIYxXOQx6rcB7yWIXrfxvY5xW/4sd5bKCRV4xVOI9mrXzld2TVG6tmX6IFsJCvBsxCvhgwC/lawCzksQpmIY9VMAt5rIJZyGMVzEIeq2AWFWMVzkO+3eI85LEK5yGPVTgPeazCechjFc5DHqtwHvJYhfOQxyqchzxW4frfBvZ5xViF89hAI68Yq3AezVr5yq8iqTdWzb6rBGAhXw2YhXwxYBbytYBZyGMVzEIeq2AW8lgFs5DHKpiFPFbBLCrGKpyHfLvFechjFc5DHqtwHvJYhfOQxyqchzxW4TzksQrnIY9VOA95rML1vw3s84qxCuexgUZeMVbhPJq18pWJ7/XGqlkkPMBCvhowC/liwCzkawGzkMcqmIU8VsEs5LEKZiGPVTALeayCWVSMVTgP+XaL85DHKpyHPFbhPOSxCuchj1U4D3mswnnIYxXOQx6rcB7yWIXrfxvY5xVjFc5jA428YqzCeTRr5SuDdeuNVbPkXYCFfDVgFvLFgFnI1wJmIY9VMAt5rIJZyGMVzEIeq2AW8lgFs6gYq3Ae8u0W5yGPVTgPeazCechjFc5DHqtwHvJYhfOQxyqchzxW4TzksQrX/zawzyvGKpzHBhp5xViF82jWylfmF9Ybq2YBhwAL+WrALOSLAbOQrwXMQh6rYBbyWAWzkMcqmIU8VsEs5LEKZlEZtobykG+3OI+qICuUR1XGFcqjKv4K5VGV+YbyqIqDQ3lUJcWhPKpC5FAeVflyqP63gX1emUqH8thAI68Yq3Aeq1v52zoJr/PoZnWixvp2ESBb5sa2s5vLTpkAuzIqdpH/nOn8u2Q6DrP2oNdRnjfoqL75mz+oFzd7V2A8xFqH4TDI9WWS3j+7i7JZfvLD668RMl0IvEpDnb6emjjj2k80HPfLHC91kE1TPcMwiczz877mgG8uc5nLXOYyl7nMZS5zmctc5jKXucxlLnOZy1zmMpe5zGUuc5nLXOYyl7nMZS5zmctc5jKXucxlLnOZy1zmMpe5zGUuc5nLXOYyl7nMZS7/pZbvu8mNTtMo1C8D88Far9tz/Lyq+WhstvzR2DOdRjqbf7y21Vl8gHgSJ3k3jsZ65Udks899Tnf1J2uzbvnV85MkDvIoGRdQrSzXk91zfZGkulXvk88/6Us9Dpdf0Oxn7YNeR/XNJ5d75oPM5o9WrC9yA7ZCeiHbfXep89Nxbs5PYXExHY9K0vaO+mOFxIJQPzz7zcrPcpsjulDt/CrKull5VeoZmePRk7rF+TsNRlft/wHbqi3wzUfHC/a57rtJkkVG8Hnx4zqvZnEYmc9QpcmtHdICKxqH2uyHXa9j+ezF8b7pEy8iHZt6a8/P6WyfXKbJdKJD9fXX6h/zn991310F2fzz72aD7Txevf/sanFCusHl5Qvj0Y31+DK/Ut8qX/1btZ7FcUs9XX5EFkcj3d71dt703u6s3G+fvJIkVe33xUvpfaPeFzbzUp37mp/9s7jj2F8gc5gynuu9ef+2+0Hfq5OTk9nJa6ZYqs4v+3vbl7o4zlMdfGjy5I+Wz7F9vDlf81d3YsraFMO8Usogh+67IMuiy7EOhyYiIntTnsm3zU7l4kJPptlVu+m1KC7p09n1bL6T4vhpnVfZNY9s6pLlafJB1/OZPbapUzIJRlF+X89q/uDGr6q0WFg1VVncSJZvK022h/XNxxyL7bx841G7yrNVs9lu9Vk/dsquWuvxH1fNFObY21O//Par+u+r316rs1evf/3x5+/VT6++/3Gofjh9fVpP4EVx19Z3gRnRVJ6oLElzNZ5eF3UwUmWkSaaCbFQML9H4sobi4twbnUedOeio8/o3l1Tn03SsJkGa6RdxEuTtwNzyd4pL+ehn5+XPap3M1SPaI9v5S1gl/HG9SS8P82e53cvN3n4S6otgGudqkibFPUw/6agnXx0dDYenp0/WHDxDHOIQhzjEIQ5xiEMc4hCHOH9NHJVNr4t/AqtQmx+qMLg3RKkOSUMa0pCGNKQhDWlIQxrSkIY01TS35X/N+hPNeTzVxCEOcYhDHOIQhzjEIQ5xiEOcJjgP3xvome8NPJtK3xvY98rfsD17tr9/fExSkpKUpCQlKUlJSlKSkpSkJCUpSbeD1C9Jg1wi7ZWk/b7vHx2QlKQkJSlJSUpSkpKUpCQlKUlJStLtIO0b0hdpJJD6xyWp5x0e9vskJSlJSUpSkpKUpCQlKUlJSlKSknQ7SPcN6a9XU4n0qCQ9Lo7BdyQlKUlJSlKSkpSkJCUpSUlKUpKSdDtIB4b0PzqUSA9L0ufPh8PDQ5KSlKQkJSlJSUpSkpKUpCQlKUlJuh2kB+U7E1MtkR6UpMPhwQFJSUpSkpKUpCQlKUlJSlKSkpSkJN0W0kND+jKRkgX9QUl6dOT7gwFJSUpSkpKUpCQlKUlJSlKSkpSkJN0Y6QIlTIPb9kqxu24e5bE+uwomupvru7z95IdkmmarMe4/febz6FqPsygZxzorFVZI7O2pZ2GoAlUqqdsov1JZcq1V2F/xzOzmshtMJnoctlvGu7Wz4gmLoxvkedpu3bU66qBn+aT74kl+/Sdl+X2sZ3i7wXh0laTF81uxvrCgnWtcJON891ZHl1e50ThP4rC+xuzanE12z15meZLqgTq7z3b76kWc7nrqbHS1O1Q//BKPrvPdcZIWl+D3n9XPp8PvzMNyfa366pez39Wr0cg89slO1UX9di8bpdEk/5f4mG/3wujm88vic2SxQktF4UlrZCp+WJykIBrr9N3guKXKM3fSCqNsEgf3T6NxXCztnsfJ6MM3LZmvEJ29BJXfT4rnm5O39z64CWY/rXymOW6C1BSnOlFhdD2JdXesb89uLtutrz5l7Kj9Xq/8Y+VmM7JhkAeF7ps/WnFwruPW01aoL4JpnKtJmlxEsW51Zivv7lpPvW6v07oJ4qme/31k7knFc4rbzHB4etr62Kml44N0+iCdfZDOAKRzANI5BOkcgXSOQTpeDyWEqmgPVdIeqqY9VFF7qKr2UGXtoeraQxW2h6psH1XZPuxejapsH1XZvlVlq2x6fb30JdW1OlqqQwsZ8RzZyYhnyE5GPD92MuK+t5MRd72djLjn7WTEHW8nI+53Oxm5kVnqgOpYbmOWOqBKlpuYpQ6oluUWZqkDqma5gVnqgOpZbl+WOqj7Mqie5d5lqVO/nm+jcW7fts7Nj+rriKfHUkc8PZY64umx1BG3u6WOuN0tdcTtbqkjbndLHXG7W+rI/ctWCFXRcgezFULVtNzDbIVQVS13MVshVF3LfcxWCFXZciezFYLdq1GVLTczW6H6lf3wW4uV3yostbne0j/0Zl87DLDw12/RX7/F/votBuu3OFi/xeH6LY7Wb3G8foulzr4ujw3s74o3ZnEe8jtbOA/5TS+ch/xOL85DfhMY5yG/P4zzkN86xnnI7yrj+t8G9rm/iT6+gUbub6CT+81a+covb6w3Vs2+3RFgIV8NmIV8MWAW8rWAWchjFcxCHqtgFvJYBbOQxyqYhTxWwSwqfnON85B/9YfzkMcqnIc8VuE85LEK5yGPVTgPeazCechjFc5DHqtwHvJYhet/G9jnFb/ix3lsoJFXjFU4j2atfOV3ZNUbq2ZfogWwkK8GzEK+GDAL+VrALOSxCmYhj1UwC3msglnIYxXMQh6rYBYVYxXOQ77d4jzksQrnIY9VOA95rMJ5yGMVzkMeq3Ae8liF85DHKpyHPFbh+t8G9nnFWIXz2EAjrxircB7NWvnKryKpN1bNvqsEYCFfDZiFfDFgFvK1gFnIYxXMQh6rYBbyWAWzkMcqmIU8VsEsKsYqnId8u8V5yGMVzkMeq3Ae8liF85DHKpyHPFbhPOSxCuchj1U4D3mswvW/DezzirEK57GBRl4xVuE8mrXylYnv9caqWSQ8wEK+GjAL+WLALORrAbOQxyqYhTxWwSzksQpmIY9VMAt5rIJZVIxVOA/5dovzkMcqnIc8VuE85LEK5yGPVTgPeazCechjFc5DHqtwHvJYhet/G9jnFWMVzmMDjbxirMJ5NGvlK4N1641Vs+RdgIV8NWAW8sWAWcjXAmYhj1UwC3msglnIYxXMQh6rYBbyWAWzqBircB7y7RbnIY9VOA95rMJ5yGMVzkMeq3Ae8liF85DHKpyHPFbhPOSxCtf/NrDPK8YqnMcGGnnFWIXzaNbKV+YX1hurZgGHAAv5asAs5IsBs5CvBcxCHqtgFvJYBbOQxyqYhTxWwSzksQpmURm2hvKQb7c4j6ogK5RHVcYVyqMq/grlUZX5hvKoioNDeVQlxaE8qkLkUB5V+XKo/reBfV6ZSofy2EAjrxircB6rW/nbOgmv8+hmdaLG+nYRIFvmxrazm8tOmQC7Mip2kf+c6fy7ZDoOs/ag11GeN+iovvmbP6gXN3tXYDzEWofhMMj1/2vv/H/Ttr7///vnr7jzpIVo4GBIyJc1m1KarJPapmpaTVtURQZfwKljI1+TBE3539++xmRh7cG+5sBe2efpH7KMYz+fD9+vpxAfhlE8Pbn31ax+8uP9lygynQqcx56MP0x0OePSF2qO6SLHW+mqSSxnGLoic97uay7wjTDCCCOMMMIII4wwwggjjDDCCCOMMMIII4wwwggjjDDCCCOMMMIII4wwwggjjDDCCCOMMMIII4wwwggjjDDCCCOMMMIII4zwfyo8taNbGce+J9+6+sFax26u+LyqfjRWLT4aeyFjX6r88VqrPn+AeBxEiR34oSx8RFZ96znd4idrlZ199fw4CtzEj8IUylKJHDd6chDF0ir35PMbOZSht3hDs9dqnWZdtPWTy039ILP+YQVykGiwAum5rH01lMlpmOj2SS0Gk7Cfkda2xV8FEnNC+Xj1ZeGz3PrwB6KWjHxlq6xXyhnp48lFdtp+p25/VPsb2FRtjq8fHU/Zc92rcaR8LfgqfbnM3cwPLfMNqji6M0OaY/mhJ/V8aDh1w6vnx3XVCwe+DPR4q+VtOpsnwziajKUnfvhBfJe/fm9fjVyVP/+uJ9j20+j0m9G0QWx3ODzTHnYgw2EyEi9ES/wirJMgsMTR4hkq8Puy1nC2L5uftwvn21d3EsWidp3eSvMncZ3a5EM199Wv/ZiuOOYdpA89jHO9y+vP9hc5FcfHx7PGq6aYqebdfm16q/OjF0v3S5WLHwyvMT1ft1d+d8d6WOvBkI+UrJCDfeUq5Q9D6XV1iQh1mbXk52pNOe/o8USNalX7Iu3So1l/Vp9JQXBU5i5tfWZVF5XE0RdZzmd2blWnaOz2/WRazio/ufJdZRZzq6oq84VkcVmpMj2MFx99zKfz4sIjGsIxVTOZbuVZH+rZrlrq/IeinEIfOzvi/aeP4o/zTx/ExfmHj7+9+1W8Of/1t654ffrhtJzAWbpqy3tXp2giiYSK4kSEk5t0HPRFVtJECVf10+TFD4clFOdtr3We7MxuXfTKLy6xTCZxKMZurORZELlJzdVL/nbalU9e62WvlWrM4hTtiW1+C0XCD+ut9PKYf2bTPZvstS1PDtxJkIhxHKVrmNyqi63vDw663dPTrTUXngEOcIADHOAABzjAAQ5wgAOc/yaOUJOb9J/AwpP6ReG5U00USw80oAENaEADGtCABjSgAQ1oQLOc5i7706x/0PSCiQQOcIADHOAABzjAAQ5wgAMc4FTBefzeQEd/b+DFhPrewLaTfcJ2crK7e3gIUpCCFKQgBSlIQQpSkIIUpCAFKUifB2krI3UTirSZkbbbrdZBB6QgBSlIQQpSkIIUpCAFKUhBClKQPg/StiY9i32CtHWYkTrO/n67DVKQghSkIAUpSEEKUpCCFKQgBSlInwfprib9OJpQpAcZ6WF67L0EKUhBClKQghSkIAUpSEEKUpCCFKTPg3RPk/4uPYp0PyN99arb3d8HKUhBClKQghSkIAUpSEEKUpCCFKTPg7STvTMxkRRpJyPtdjsdkIIUpCAFKUhBClKQghSkIAUpSEH6XEj3NenbiKos2NrLSA8OWq29PZCCFKQgBSlIQQpSkIIUpCAFKUhBujHSOYoXu3e1QrF7O/GTQF6M3LG0E3mf1LZeR5NYFWNMv77ylX8jQ+VHYSBVplAgsbMjTjxPuCJTEnd+MhIqupHCaxdcqW6Htjsey9CrWdrb2i64YH7YbpLENeveqotO0/CiaXpRq/xFKpkGcobXcMP+KIrT661ADgxoc41BFCaNO+kPR4nW6EWBV15j1jcX48bFW5VEseyIi6lqtMVZEDcccdEfNbri9fugf5M0wihOu+DPd+LdafelPi2RN6It3l/8Kc77fX3u1vayTn2xo/qxP05+Js95seP5t98Ok9fQYqmW8L1jq69HfDdtJNcPZXzVaVoia7ljy/PVOHCnR34YpKFGL4j6X36yaL5UdHYLIpmO0+t14+1cu7fu7NWlV+rj1o314BTHwvNvxoG0Q3l3cTusWd9/zVgXu81m9qNwsmlZz03cVPfyLytwezKwjixPDtxJkIhxHA38QFr1WeTq3jpy7GbdunWDicx/7+s1Kb0mXWa63dNT66FeSqfFpNNm0tll0tlj0ukw6ewz6Rww6Rwy6ThNLiGuEe1wDWmHa0w7XIPa4RrVDtewdrjGtcM1sB2ukd3iGtkttrWaa2S3uEZ2y2hkCzW5uVn4kupSO1osPQMZso3MZMgWMpMh28dMhpz3ZjLkrDeTIee8mQw5481kyPluJkNvZIY6TOOY3sYMdZhGMr2JGeowjWV6CzPUYRrN9AZmqMM0nunty1CHa11mGs/03mWoU3483/lhYr5t9fRL5XXI5jHUIZvHUIdsHkMdcrob6pDT3VCHnO6GOuR0N9Qhp7uhDr1/mQpxjWh6BzMV4hrT9B5mKsQ1quldzFSIa1zT+5ipENfIpncyUyG2tZprZNObmalQ+ZH9+KlF4bcKU9tcc+EferOvHWawaK3for1+i931W+yt36Kzfov99VscrN/icP0WCzv7ujw2ML+XvDHL50G/s8XnQb/pxedBv9PL50G/CcznQb8/zOdBv3XM50G/q8y3/21gnrc2sY9vYCNvbWAnb1Xbygu/vLFcWjX7dkcGC7o32CzozmCzoPuCzYJOq9gs6LSKzYJOq9gs6LSKzYJOq9gslnxyzedBf/TH50GnVXwedFrF50GnVXwedFrF50GnVXwedFrF50GnVXwedFrFt/9tYJ4v+Yifz2MDG/mStIrPo9pWXvgdWeXSqtmXaDFY0L3BZkF3BpsF3RdsFnRaxWZBp1VsFnRaxWZBp1VsFnRaxWaxJK3i86CXWz4POq3i86DTKj4POq3i86DTKj4POq3i86DTKj4POq3i86DTKr79bwPzfElaxeexgY18SVrF51FtKy/8KpJyadXsu0oYLOjeYLOgO4PNgu4LNgs6rWKzoNMqNgs6rWKzoNMqNgs6rWKzWJJW8XnQyy2fB51W8XnQaRWfB51W8XnQaRWfB51W8XnQaRWfB51W8XnQaRXf/reBeb4kreLz2MBGviSt4vOotpUXVnwvl1bNSsIzWNC9wWZBdwabBd0XbBZ0WsVmQadVbBZ0WsVmQadVbBZ0WsVmsSSt4vOgl1s+Dzqt4vOg0yo+Dzqt4vOg0yo+Dzqt4vOg0yo+Dzqt4vOg0yq+/W8D83xJWsXnsYGNfElaxedRbSsvLKxbLq2aVd5lsKB7g82C7gw2C7ov2CzotIrNgk6r2CzotIrNgk6r2CzotIrNYklaxedBL7d8HnRaxedBp1V8HnRaxedBp1V8HnRaxedBp1V8HnRaxedBp1V8+98G5vmStIrPYwMb+ZK0is+j2lZeWL+wXFo1K3DIYEH3BpsF3RlsFnRfsFnQaRWbBZ1WsVnQaRWbBZ1WsVnQaRWbxdJia1we9HLL57GskBWXx7IaV1wey8pfcXksq/nG5bGsHByXx7JKcVwey4rIcXksqy/Htf9tYJ4vrUrH5bGBjXxJWsXnUbyVfy5T4TUv3SyORSjv5gVks7qxNXU7rGcVYAtLxc7rPyuZvIwmoadqe826cJy9umjr31p75crN3qcYj2WtPa/rJnIYxdOTe1/N6ic/3n+JItOpwHnsyfjDRJczLn2h5pgucryVrprEcoahKzLn7b7mAt8II4wwwggjjDDCCCOMMMIII4wwwggjjDDCCCOMMMIII4wwwggjjDDCCCOMMMIII4wwwggjjDDCCCOMMMIII4wwwggjjDDCCP+nwlM7upVx7HvyrasfrHXs5orPq+pHY9Xio7EXMvalyh+vterzB4jHQZTYgR/Kwkdk1bee0y1+slbZ2VfPj6PATfwoTKEslchxoycHUSytck8+v5FDGXqLNzR7rdZp1kVbP7nc1A8y6x9WIAeJBiuQnsvaV0OZnIaJbp/UYjAJ+xlpbVv8VSAxJ5SPV18WPsutD38gasnIV7bKeqWckT6eXGSn7Xfq9ke1v4FN1eb4+tHxlD3XvRpHyteCr9KXy9zN/NAy36CKozszpDmWH3pSz4eGUze8en5cV71w4MtAj7da3qazeTKMo8lYeuKHH8R3+ev39tXIVfnz73qCbT+NTr8ZTRvEdofDM+1hBzIcJiPxQrTEL8I6CQJLHC2eoQK/L2sNZ/uy+Xm7cL59dSdRLGrX6a00fxLXqU0+VHNf/dqP6Ypj3kH60MM417u8/mx/kVNxfHw8a7xqiplq3u3Xprc6P3qxdL9UufjB8BrT83V75Xd3rIe1Hgz5SMkKOdhXrlL+MJReV5eIUJdZS36u1pTzjh5P1KhWtS/SLj2a9Wf1mRQER2Xu0tZnVnVRSRx9keV8ZudWdYrGbt9PpuWs8pMr31VmMbeqqjJfSBaXlSrTw3jx0cd8Oi8uPKIhHFM1k+lWnvWhnu2qpc5/KMop9LGzI95/+ij+OP/0QVycf/j427tfxZvzX3/ritenH07LCZylq7a8d3WKJpJIqChORDi5ScdBX2QlTZRwVT9NXvxwWEJx3vZa58nO7NZFr/ziEstkEodi7MZKngWRm9RcveRvp1355LVe9lqpxixO0Z7Y5rdQJPyw3kovj/lnNt2zyV7b8uTAnQSJGMdRuobJrbrY+v7goNs9Pd1ac+EZ4AAHOMABDnCAAxzgAAc4wPlv4gg1uUn/CSw8qV8UnjvVRLH0QAMa0IAGNKABDWhAAxrQgAY0y2nusj/N+gdNL5hI4AAHOMABDnCAAxzgAAc4wAFOFZzH7w109PcGXkyo7w1sO9knbCcnu7uHhyAFKUhBClKQghSkIAUpSEEKUpCC9HmQtjJSN6FImxlpu91qHXRAClKQghSkIAUpSEEKUpCCFKQgBenzIG1r0rPYJ0hbhxmp4+zvt9sgBSlIQQpSkIIUpCAFKUhBClKQgvR5kO5q0o+jCUV6kJEepsfeS5CCFKQgBSlIQQpSkIIUpCAFKUhB+jxI9zTp79KjSPcz0levut39fZCCFKQgBSlIQQpSkIIUpCAFKUhB+jxIO9k7ExNJkXYy0m630wEpSEEKUpCCFKQgBSlIQQpSkIIUpM+FdF+Tvo2oyoKtvYz04KDV2tsDKUhBClKQghSkIAUpSEEKUpCCFKQbI52jeLF7VysUu7cTPwnkxcgdSzuR90lt63U0iVUxxvTrK1/5NzJUfhQGUmUKBRI7O+LE84QrMiVx5ycjoaIbKbx2wZXqdmi747EMvZqlva3tggvmh+0mSVyz7q266DQNL5qmF7XKX6SSaSBneA037I+iOL3eCuTAgDbXGERh0riT/nCUaI1eFHjlNWZ9czFuXLxVSRTLfXExVY22OAvihiMu+qNGV7x+H/RvkkYYxWkX/PlOvDvtvtSnJfJGtMX7iz/Feb+vz93aXtapL3ZUP/bHyc/kOS92PP/222HyGlos1RK+d2z19Yjvpo3k+qGMrzqOJbKWO7Y8X40Dd3rkh0EaavSCqP/lJ4vmS0VntyCS6Ti9XjfezrV7685eXXqlPm7dWA9OcSw8/2YcSDuUdxe3w5r1/deMdbHbbGY/CieblvXcxE11L/+yArcnA+vI8uTAnQSJGMfRwA+kVZ9Fru6tI8du1q1bN5jI/Pe+XpPSa9Jlpts9PbUe6qV0Wkw6bSadXSadPSadDpPOPpPOAZPOIZOO0+QS4hrRDteQdrjGtMM1qB2uUe1wDWuHa1w7XAPb4RrZLa6R3WJbq7lGdotrZLeMRrZQk5ubhS+pLrWjxdIzkCHbyEyGbCEzGbJ9zGTIeW8mQ856MxlyzpvJkDPeTIac72Yy9EZmqMM0jultzFCHaSTTm5ihDtNYprcwQx2m0UxvYIY6TOOZ3r4MdbjWZabxTO9dhjrlx/OdHybm21ZPv1Reh2weQx2yeQx1yOYx1CGnu6EOOd0NdcjpbqhDTndDHXK6G+rQ+5epENeIpncwUyGuMU3vYaZCXKOa3sVMhbjGNb2PmQpxjWx6JzMVYluruUY2vZmZCpUf2Y+fWhR+qzC1zTUX/qE3+9phBovW+i3a67fYXb/F3votOuu32F+/xcH6LQ7Xb7Gws6/LYwPze8kbs3we9DtbfB70m158HvQ7vXwe9JvAfB70+8N8HvRbx3we9LvKfPvfBuZ5axP7+AY28tYGdvJWta288Msby6VVs293ZLCge4PNgu4MNgu6L9gs6LSKzYJOq9gs6LSKzYJOq9gs6LSKzWLJJ9d8HvRHf3wedFrF50GnVXwedFrF50GnVXwedFrF50GnVXwedFrF50GnVXz73wbm+ZKP+Pk8NrCRL0mr+DyqbeWF35FVLq2afYkWgwXdG2wWdGewWdB9wWZBp1VsFnRaxWZBp1VsFnRaxWZBp1VsFkvSKj4Pernl86DTKj4POq3i86DTKj4POq3i86DTKj4POq3i86DTKj4POq3i2/82MM+XpFV8HhvYyJekVXwe1bbywq8iKZdWzb6rhMGC7g02C7oz2CzovmCzoNMqNgs6rWKzoNMqNgs6rWKzoNMqNoslaRWfB73c8nnQaRWfB51W8XnQaRWfB51W8XnQaRWfB51W8XnQaRWfB51W8e1/G5jnS9IqPo8NbORL0io+j2pbeWHF93Jp1awkPIMF3RtsFnRnsFnQfcFmQadVbBZ0WsVmQadVbBZ0WsVmQadVbBZL0io+D3q55fOg0yo+Dzqt4vOg0yo+Dzqt4vOg0yo+Dzqt4vOg0yo+Dzqt4tv/NjDPl6RVfB4b2MiXpFV8HtW28sLCuuXSqlnlXQYLujfYLOjOYLOg+4LNgk6r2CzotIrNgk6r2CzotIrNgk6r2CyWpFV8HvRyy+dBp1V8HnRaxedBp1V8HnRaxedBp1V8HnRaxedBp1V8HnRaxbf/bWCeL0mr+Dw2sJEvSav4PKpt5YX1C8ulVbMChwwWdG+wWdCdwWZB9wWbBZ1WsVnQaRWbBZ1WsVnQaRWbBZ1WsVksLbbG5UEvt3weywpZcXksq3HF5bGs/BWXx7Kab1wey8rBcXksqxTH5bGsiByXx7L6clz73wbm+dKqdFweG9jIl6RVfB7FW/nnMhVe89LN4liE8m5eQDarG1tTt8N6VgG2sFTsvP6zksnLaBJ6qrbXrAvH2auLtv6ttVeu3Ox9ivFY1trzum4ih1E8Pbn31ax+8uP9lygynQqcx56MP0x0OePSF2qO6SLHW+mqSSxnGLoic97uay7wjTDCCCOMMMIII4wwwggjjDDCCCOMMMIII4wwwggjjDDCCCOMMMIII4wwwggjjDDCCCOMMMIII4wwwggjjDDCCCOMMMIII4zwfyo8taNbGce+J9+6+sFax26u+LyqfjRWLT4aeyFjX6r88VqrPn+AeBxEiR34oSx8RFZ96znd4idrlZ199fw4CtzEj8IUylKJHDd6chDF0ir35PMbOZSht3hDs9dqnWZdtPWTy039ILP+YQVykGiwAum5rH01lMlpmOj2SS0Gk7Cfkda2xV8FEnNC+Xj1ZeGz3PrwB6KWjHxlq6xXyhnp48lFdtp+p25/VPsb2FRtjq8fHU/Zc92rcaR8LfgqfbnM3cwPLfMNqji6M0OaY/mhJ/V8aDh1w6vnx3XVCwe+DPR4q+VtOpsnwziajKUnfvhBfJe/fm9fjVyVP/+uJ9j20+j0m9G0QWx3ODzTHnYgw2EyEi9ES/wirJMgsMTR4hkq8Puy1nC2L5uftwvn21d3EsWidp3eSvMncZ3a5EM199Wv/ZiuOOYdpA89jHO9y+vP9hc5FcfHx7PGq6aYqebdfm16q/OjF0v3S5WLHwyvMT1ft1d+d8d6WOvBkI+UrJCDfeUq5Q9D6XV1iQh1mbXk52pNOe/o8USNalX7Iu3So1l/Vp9JQXBU5i5tfWZVF5XE0RdZzmd2blWnaOz2/WRazio/ufJdZRZzq6oq84VkcVmpMj2MFx99zKfz4sIjGsIxVTOZbuVZH+rZrlrq/IeinEIfOzvi/aeP4o/zTx/ExfmHj7+9+1W8Of/1t654ffrhtJzAWbpqy3tXp2giiYSK4kSEk5t0HPRFVtJECVf10+TFD4clFOdtr3We7MxuXfTKLy6xTCZxKMZurORZELlJzdVL/nbalU9e62WvlWrM4hTtiW1+C0XCD+ut9PKYf2bTPZvstS1PDtxJkIhxHKVrmNyqi63vDw663dPTrTUXngEOcIADHOAABzjAAQ5wgAOc/yaOUJOb9J/AwpP6ReG5U00USw80oAENaEADGtCABjSgAQ1oQLOc5i7706x/0PSCiQQOcIADHOAABzjAAQ5wgAMc4FTBefzeQEd/b+DFhPrewLaTfcJ2crK7e3gIUpCCFKQgBSlIQQpSkIIUpCAFKUifB2krI3UTirSZkbbbrdZBB6QgBSlIQQpSkIIUpCAFKUhBClKQPg/StiY9i32CtHWYkTrO/n67DVKQghSkIAUpSEEKUpCCFKQgBSlInwfprib9OJpQpAcZ6WF67L0EKUhBClKQghSkIAUpSEEKUpCCFKTPg3RPk/4uPYp0PyN99arb3d8HKUhBClKQghSkIAUpSEEKUpCCFKTPg7STvTMxkRRpJyPtdjsdkIIUpCAFKUhBClKQghSkIAUpSEH6XEj3NenbiKos2NrLSA8OWq29PZCCFKQgBSlIQQpSkIIUpCAFKUhBujHSOYoXu3e1QrF7O/GTQF6M3LG0E3mf1LZeR5NYFWNMv77ylX8jQ+VHYSBVplAgsbMjTjxPuCJTEnd+MhIqupHCaxdcqW6Htjsey9CrWdrb2i64YH7YbpLENeveqotO0/CiaXpRq/xFKpkGcobXcMP+KIrT661ADgxoc41BFCaNO+kPR4nW6EWBV15j1jcX48bFW5VEsTwQF1PVaIuzIG444qI/anTF6/dB/yZpSFcl4s934t1p96U+K5E3oi3eX/wpzvt9ferW9rI+fbGj+rE/Tn4mz3mx4/m33w6T19BiqZbwvWOrrwd8N20j1w9lfNVpWSJruGPL89U4cKdHfhikoUYviPpffrJovlR0dgsimY7T63Xb7Vy7t+7s1aVX6uPWjfXYFMfC82/GgbRDeXdxO6xZ33/NWBe7zWb2o3CuaVnPTdxU9/IvK3B7MrCOLE8O3EmQiHEcDfxAWvVZ5OreOnLsZt26dYOJtI46h/bhk+PgsG719QKVKqRrTrd7emo91Eupttai2l6L6u5aVPfWotpZi+r+WlQP1qJ6uBZVp7ke2fXMLmc908tZz/xy1jPBnPXMMGc9U8xZzxxz1jPJnPXMstZ6ZllrTXvYemZZaz2zrLXCLBNqcnOz8J3fFTKEWHoGoiXb1ky0ZMuaiZZsVzPRkmuXmWjJlctMtOS6ZSZactUyEy25ZpmJlk0MDFXXMqfKpgWGqmuZVWWTAkPVtcyrsimBoepaZlbZhMBQdS1zq2w6YKi6nv1qLXOrbC5gqFp1bt35YbJqGtDTJ5RXLdmshqolm9VQtWSzGqqWXLIMVUsuWYaqJZcsQ9WSS5ahaskly1C1bD5gKrue2VU2IzCVXc/8KpsTmMquZ4aVzQpMZdczx8rmBaay65llZTMDU9k17WHrmWVlkwNTWaNZ9rnMBw75B4niWITybv55RvYxRk3dDuvZBxKFn1zMP41UMnkZTUJP1faadeE4e3XR1r+19sp9+nGfYjx+yOp5XTeRwyientz7avZp3mNTlPjIMxU4jz0Zf5joD9dKX6g5poscb6WrJrGcYejPB/MuWPVD3OxzpEWrCxn7UuW4qVPeIeMgSmz94VahpfrWfReTKjsbd+MocBM/ClMoSyVy3OjJQRRLq9xIeiOHMvQWb2j2Wq2TjoK2Hgn6wzBH/8g/Iy38+Hgua18NZXIaJrp9UovBJOxnpLVt8VeJD0k1oXy8+rJwbujDH4haMvJVOq71deWM9PHkIjttv1O3P6r9DWyqNsfPPxvMda/GkfK14Kv05TJ3Mz+0zDeo4ujODGmO5Yee1BO34dQNr54f11UvHPgy0OOtlrfpbJ4M42gylp744QfxXf76vX01clW+nugJtv00Ov1mNG0Q2x0Oz7SHHchwmIzEC9ESvwjrJAgscbR4hgr8vqw1nO3L5uftwvn21Z1Esahdp7fS/Elcpzb5UM199Ws/HgvHvIP0oYdxrnd5/dn+ItPl7fh41njVFDPVvNuvTW91fvRi6X6pcvGD4TWm5+v2yu/uWA9rPRjykZJtjPbV7A+ApJf9CZC6zFryc7WmnHf0eKJGtap9kXbp0aw/q8+kIDgqc5e2PrOqi0ri6Iss5zM7t6pTNHb7fjItZ5WfXPmuMou5VVWV+UKyuKxUmR7Gi48+5tN5ceERDeGYqplMt/KsD/VsVy11/kNRTqGPnR3x/tNH8cf5pw/i4vzDx9/e/SrenP/6W1e8Pv1wWk7gLF215b2rUzSRREJFaSIdTm7ScdAXWYqohKv6afLih8MSivO21zpPdma3LnrlF5dYJpM4FGM3VvIsiNyk5uolfzvtyiev9bLXSjVmcYr2xDa/hSLhh3/hDzX/8QFs/teY+gPVf+XvRoEDHOAABzjAAQ5wgAMc4ADn2eN8/QcumiiWHmhAAxrQgAY0oAENaEADGtCAZjnNV38SqGn0n/gBBzjAAQ5wgAMc4AAHOMABDnD+xfKIH+XNWMZuMomlqJ1to0Di/1SBxN9dPeJey+w/Jzc9X4aJ0F2m6x5Kb5K2f0PsN8+eRwnE9jMogdjeWAnE7MHTqiWYmHTaTDq7TDp7TDodJp19Jp0DJp1DJp2F2gIrCXGNaIdrSDtcY9rhGtQO16h2uIa1wzWuHa6B7XCN7BbXyG6xrdVcI7vFNbJbRiO7fMm+BanqRfpWkCFbqHohvhVkyHlfvdjeCjLknK9eUG8FGXK+r1A0bxUdpnFMb2MrlMJbRYdpKNN72AoF7lbRYRrN9Aa2Qtm6VdZBpvFM714rFKNbRYdpPNNbV/UScwsyKxSVW0WHbJ4VCsetokNO9xWKw62iQ073FQrAraJDTvdVirytJMQ1oukdbJXSbSsJcQ1qehNbpSDbSkJc45rex1Yps7bSysg1sumtbJXiaSsJcY1sejdDSbRnURINYYQRRhhhhBFGGGGEEUYYYYQRRhjh/6Xw1I5uZRz7nnzr6jeqHLuJkvhP7gQl8R8PlMQ3OlASHyXxDQ6UxP/ngZL4/zxQEt/wQEl8lMT/5oGS+MABDnCAAxzgAAc4wAEOcIADnOdQUBI0oAENaEADGtCABjSgAQ1ong/N/zeFLIEDHOAABzjAAQ5wgAMc4ACnut+/UBL/lX8jQ+VHYSCVQkH8/62C+FH8RZwOBn7fl2F/+lgGf7MF8POz/xF5+v/z32f/fVTPf3n8Ty/ypvq/o+Qm+Pn//R+IrcNn"
               },
               {
                  "name" : "annual_peak_electric_demand",
                  "units" : "kW",
                  "value" : 82.738780000000006
               },
               {
                  "name" : "first_year_capital_cost",
                  "units" : "$",
                  "value" : 0
               },
               {
                  "name" : "annual_utility_cost",
                  "units" : "$",
                  "value" : 0
               },
               {
                  "name" : "total_lifecycle_cost",
                  "units" : "$",
                  "value" : 0
               }
            ],
            "step_warnings" : []
         }
      }
   ],
   "updated_at" : "20170710T191922Z",
   "weather_file" : "USA_CO_Denver.Intl.AP.725650_TMY3.epw"
}
