{
   "completed_at" : "20170710T190400Z",
   "completed_status" : "Success",
   "created_at" : "2017-07-10 19:01:49 +0000",
   "current_step" : 5,
   "description" : "",
   "eplusout_err" : "Program Version,EnergyPlus, Version 8.7.0-78a111df4a, YMD=2017.07.10 19:02,IDD_Version 8.7.0\n   ************* IDF Context for following error/warning message:\n   ************* Note -- lines truncated at 300 characters, if necessary...\n   *************      5 Building,\n   ************* indicated Name=NECB 2011-Warehouse-NECB HDD Method-CAN_ON_Toronto.716240_CWEC.epw created: 2017-07-10 19:01:55 +0000\n   ************* Only last 1 lines before error line shown.....\n   *************      6   NECB 2011-Warehouse-NECB HDD Method-CAN_ON_Toronto.716240_CWEC.epw created: 2017-07-10 19:01:55 +0000, !- Name\n   ** Warning ** IP: IDF line~6 Alpha Argument length exceeds maximum, will be truncated=  NECB 2011-Warehouse-NECB HDD Method-CAN_ON_Toronto.716240_CWEC.epw created: 2017-07-10 19:01:55 +000\n   **   ~~~   ** Will be processed as Alpha=NECB 2011-WAREHOUSE-NECB HDD METHOD-CAN_ON_TORONTO.716240_CWEC.EPW CREATED: 2017-07-10 19:01:55 +0000\n   ************* Beginning Zone Sizing Calculations\n   ** Warning ** ProcessScheduleInput: Schedule:Day:Interval=\"ECONOMIZER MAX OA FRACTION 100 PCT DEFAULT\", Blank Schedule Type Limits Name input -- will not be validated.\n   ** Warning ** ProcessScheduleInput: Schedule:Day:Interval=\"SCHEDULE DAY 1\", Blank Schedule Type Limits Name input -- will not be validated.\n   ** Warning ** ProcessScheduleInput: Schedule:Day:Interval=\"SCHEDULE DAY 10\", Blank Schedule Type Limits Name input -- will not be validated.\n   ** Warning ** ProcessScheduleInput: Schedule:Day:Interval=\"SCHEDULE DAY 11\", Blank Schedule Type Limits Name input -- will not be validated.\n   ** Warning ** ProcessScheduleInput: Schedule:Day:Interval=\"SCHEDULE DAY 12\", Blank Schedule Type Limits Name input -- will not be validated.\n   ** Warning ** ProcessScheduleInput: Schedule:Day:Interval=\"SCHEDULE DAY 13\", Blank Schedule Type Limits Name input -- will not be validated.\n   ** Warning ** ProcessScheduleInput: Schedule:Day:Interval=\"SCHEDULE DAY 14\", Blank Schedule Type Limits Name input -- will not be validated.\n   ** Warning ** ProcessScheduleInput: Schedule:Day:Interval=\"SCHEDULE DAY 15\", Blank Schedule Type Limits Name input -- will not be validated.\n   ** Warning ** ProcessScheduleInput: Schedule:Day:Interval=\"SCHEDULE DAY 16\", Blank Schedule Type Limits Name input -- will not be validated.\n   ** Warning ** ProcessScheduleInput: Schedule:Day:Interval=\"SCHEDULE DAY 17\", Blank Schedule Type Limits Name input -- will not be validated.\n   ** Warning ** ProcessScheduleInput: Schedule:Day:Interval=\"SCHEDULE DAY 18\", Blank Schedule Type Limits Name input -- will not be validated.\n   ** Warning ** ProcessScheduleInput: Schedule:Day:Interval=\"SCHEDULE DAY 19\", Blank Schedule Type Limits Name input -- will not be validated.\n   ** Warning ** ProcessScheduleInput: Schedule:Day:Interval=\"SCHEDULE DAY 2\", Blank Schedule Type Limits Name input -- will not be validated.\n   ** Warning ** ProcessScheduleInput: Schedule:Day:Interval=\"SCHEDULE DAY 5\", Blank Schedule Type Limits Name input -- will not be validated.\n   ** Warning ** ProcessScheduleInput: Schedule:Day:Interval=\"SCHEDULE DAY 6\", Blank Schedule Type Limits Name input -- will not be validated.\n   ** Warning ** ProcessScheduleInput: Schedule:Day:Interval=\"SCHEDULE DAY 7\", Blank Schedule Type Limits Name input -- will not be validated.\n   ** Warning ** ProcessScheduleInput: Schedule:Day:Interval=\"SCHEDULE DAY 8\", Blank Schedule Type Limits Name input -- will not be validated.\n   ** Warning ** ProcessScheduleInput: Schedule:Day:Interval=\"SCHEDULE DAY 9\", Blank Schedule Type Limits Name input -- will not be validated.\n   ** Warning ** ProcessScheduleInput: Schedule:Year=\"ECONOMIZER MAX OA FRACTION 100 PCT\", Blank Schedule Type Limits Name input -- will not be validated.\n   ** Warning ** ProcessScheduleInput: Schedule:Year=\"SCHEDULE RULESET 10\", Blank Schedule Type Limits Name input -- will not be validated.\n   ** Warning ** ProcessScheduleInput: Schedule:Year=\"SCHEDULE RULESET 11\", Blank Schedule Type Limits Name input -- will not be validated.\n   ** Warning ** ProcessScheduleInput: Schedule:Year=\"SCHEDULE RULESET 3\", Blank Schedule Type Limits Name input -- will not be validated.\n   ** Warning ** ProcessScheduleInput: Schedule:Year=\"SCHEDULE RULESET 4\", Blank Schedule Type Limits Name input -- will not be validated.\n   ** Warning ** ProcessScheduleInput: Schedule:Year=\"SCHEDULE RULESET 5\", Blank Schedule Type Limits Name input -- will not be validated.\n   ** Warning ** ProcessScheduleInput: Schedule:Year=\"SCHEDULE RULESET 6\", Blank Schedule Type Limits Name input -- will not be validated.\n   ** Warning ** ProcessScheduleInput: Schedule:Year=\"SCHEDULE RULESET 7\", Blank Schedule Type Limits Name input -- will not be validated.\n   ** Warning ** ProcessScheduleInput: Schedule:Year=\"SCHEDULE RULESET 8\", Blank Schedule Type Limits Name input -- will not be validated.\n   ** Warning ** ProcessScheduleInput: Schedule:Year=\"SCHEDULE RULESET 9\", Blank Schedule Type Limits Name input -- will not be validated.\n   ** Warning ** ProcessScheduleInput: Schedule:Constant=\"ALWAYS OFF DISCRETE\", Blank Schedule Type Limits Name input -- will not be validated.\n   ** Warning ** ProcessScheduleInput: Schedule:Constant=\"ALWAYS ON CONTINUOUS\", Blank Schedule Type Limits Name input -- will not be validated.\n   ** Warning ** CheckUsedConstructions: There are 22 nominally unused constructions in input.\n   **   ~~~   ** For explicit details on each unused construction, use Output:Diagnostics,DisplayExtraWarnings;\n   ************* Beginning System Sizing Calculations\n   ************* Beginning Plant Sizing Calculations\n   ** Warning ** GetDXCoils: Coil:Cooling:DX:SingleSpeed=\"COIL COOLING DX SINGLE SPEED 1 35KBTU/HR 14.0SEER\", invalid\n   **   ~~~   ** ...Part Load Fraction Correlation Curve Name = DXCOOL-NECB2011-REF-COOLPLFFPLR has out of range value.\n   **   ~~~   ** ...Curve maximum must be <= 1.0, curve max at PLR = 0.99 is 1.015\n   **   ~~~   ** ...Setting curve maximum to 1.0 and simulation continues.\n   ** Warning ** GetDXCoils: Coil:Cooling:DX:SingleSpeed=\"COIL COOLING DX SINGLE SPEED 3 184KBTU/HR 9.7EER\", invalid\n   **   ~~~   ** ...Part Load Fraction Correlation Curve Name = DXCOOL-NECB2011-REF-COOLPLFFPLR 2 has out of range value.\n   **   ~~~   ** ...Curve maximum must be <= 1.0, curve max at PLR = 0.99 is 1.015\n   **   ~~~   ** ...Setting curve maximum to 1.0 and simulation continues.\n   ** Warning ** GetDXCoils: Coil:Cooling:DX:SingleSpeed=\"COIL COOLING DX SINGLE SPEED 2 444KBTU/HR 8.21EER\", invalid\n   **   ~~~   ** ...Part Load Fraction Correlation Curve Name = DXCOOL-NECB2011-REF-COOLPLFFPLR 1 has out of range value.\n   **   ~~~   ** ...Curve maximum must be <= 1.0, curve max at PLR = 0.99 is 1.015\n   **   ~~~   ** ...Setting curve maximum to 1.0 and simulation continues.\n   ** Warning ** The Standard Ratings is calculated for Coil:Cooling:DX:SingleSpeed = COIL COOLING DX SINGLE SPEED 1 35KBTU/HR 14.0SEER but not at the AHRI test condition due to curve out of bound.\n   **   ~~~   **  Review the Standard Ratings calculations in the Engineering Reference for this coil type. Also, use Output:Diagnostics, DisplayExtraWarnings for further guidance.\n   ** Warning ** The Standard Ratings is calculated for Coil:Cooling:DX:SingleSpeed = COIL COOLING DX SINGLE SPEED 3 184KBTU/HR 9.7EER but not at the AHRI test condition due to curve out of bound.\n   **   ~~~   **  Review the Standard Ratings calculations in the Engineering Reference for this coil type. Also, use Output:Diagnostics, DisplayExtraWarnings for further guidance.\n   ** Warning ** The Standard Ratings is calculated for Coil:Cooling:DX:SingleSpeed = COIL COOLING DX SINGLE SPEED 2 444KBTU/HR 8.21EER but not at the AHRI test condition due to curve out of bound.\n   **   ~~~   **  Review the Standard Ratings calculations in the Engineering Reference for this coil type. Also, use Output:Diagnostics, DisplayExtraWarnings for further guidance.\n   ** Warning ** Check input. Pump nominal power or motor efficiency is set to 0, for pump=SERVICE WATER LOOP PUMP\n   ** Warning ** Output:Meter: invalid Name=\"DISTRICTCOOLING:FACILITY\" - not found.\n   ** Warning ** Output:Meter: invalid Name=\"DISTRICTHEATING:FACILITY\" - not found.\n   ** Warning ** Output:Meter:MeterFileOnly requested for \"Electricity:Facility\" (TimeStep), already on \"Output:Meter\". Will report to both eplusout.eso and eplusout.mtr\n   ************* Testing Individual Branch Integrity\n   ************* All Branches passed integrity testing\n   ************* Testing Individual Supply Air Path Integrity\n   ************* All Supply Air Paths passed integrity testing\n   ************* Testing Individual Return Air Path Integrity\n   ************* All Return Air Paths passed integrity testing\n   ************* No node connection errors were found.\n   ************* Beginning Simulation\n   ** Warning ** CalcDoe2DXCoil: Coil:Cooling:DX:SingleSpeed \"COIL COOLING DX SINGLE SPEED 1 35KBTU/HR 14.0SEER\" - Air-cooled condenser inlet dry-bulb temperature below 0 C. Outdoor dry-bulb temperature = -11.10\n   **   ~~~   **  ... Occurrence info = RUN PERIOD 1, 01/02 07:19 - 07:22\n   **   ~~~   ** ... Operation at low ambient temperatures may require special performance curves.\n   ** Warning ** CalcDoe2DXCoil: Coil:Cooling:DX:SingleSpeed \"COIL COOLING DX SINGLE SPEED 1 35KBTU/HR 14.0SEER\" - Full load outlet air dry-bulb temperature < 2C. This indicates the possibility of coil frost/freeze. Outlet temperature = 1.89 C.\n   **   ~~~   **  ...Occurrence info = RUN PERIOD 1, 02/14 13:15 - 13:30\n   **   ~~~   ** ... Possible reasons for low outlet air dry-bulb temperatures are: This DX coil\n   **   ~~~   **    1) may have a low inlet air dry-bulb temperature. Inlet air temperature = 17.366 C.\n   **   ~~~   **    2) may have a low air flow rate per watt of cooling capacity. Check inputs.\n   **   ~~~   **    3) is used as part of a HX assisted cooling coil which uses a high sensible effectiveness. Check inputs.\n   ************* Simulation Error Summary *************\n   ************* There are 9 unused schedules in input.\n   ************* There are 9 unused week schedules in input.\n   ************* There are 18 unused day schedules in input.\n   ************* Use Output:Diagnostics,DisplayUnusedSchedules; to see them.\n   *************\n   ************* ===== Recurring Error Summary =====\n   ************* The following recurring error messages occurred.\n   *************\n   *************  ** Warning ** CalcDoe2DXCoil: Coil:Cooling:DX:SingleSpeed=\"COIL COOLING DX SINGLE SPEED 1 35KBTU/HR 14.0SEER\" - Low condenser dry-bulb temperature error continues...\n   *************  **   ~~~   **   This error occurred 227 total times;\n   *************  **   ~~~   **   during Warmup 0 times;\n   *************  **   ~~~   **   during Sizing 0 times.\n   *************  **   ~~~   **   Max=-0.1 [C]  Min=-18.45 [C]\n   *************\n   *************  ** Warning ** CalcDoe2DXCoil: Coil:Cooling:DX:SingleSpeed=\"COIL COOLING DX SINGLE SPEED 1 35KBTU/HR 14.0SEER\" - Full load outlet temperature indicates a possibility of frost/freeze error continues. Outlet air temperature statistics follow:\n   *************  **   ~~~   **   This error occurred 5 total times;\n   *************  **   ~~~   **   during Warmup 0 times;\n   *************  **   ~~~   **   during Sizing 0 times.\n   *************  **   ~~~   **   Max=1.962658  Min=1.662372\n   *************\n   *************\n   ************* ===== Final Error Summary =====\n   ************* The following error categories occurred.  Consider correcting or noting.\n   ************* Nominally Unused Constructions\n   ************* ..The nominally unused constructions warning is provided to alert you to potential conditions that can cause\n   ************* ..extra time during simulation. Each construction is calculated by the algorithm indicated in the HeatBalanceAlgorithm\n   ************* ..object. You may remove the constructions indicated (when you use the DisplayExtraWarnings option).\n   *************\n   ************* EnergyPlus Warmup Error Summary. During Warmup: 0 Warning; 0 Severe Errors.\n   ************* EnergyPlus Sizing Error Summary. During Sizing: 31 Warning; 0 Severe Errors.\n   ************* EnergyPlus Completed Successfully-- 274 Warning; 0 Severe Errors; Elapsed Time=00hr 00min 47.42sec\n",
   "file_format_version" : "0.0.1",
   "file_paths" : [ "../weather", "../seeds", "../seed" ],
   "hash" : "1BE55101",
   "measure_paths" : [ "../measures" ],
   "name" : "LHS Autogenerated 612",
   "osa_id" : "4fef0e0f-5396-4c55-a6e1-2cd6803db3ab",
   "osd_id" : "02113d41-da78-4b02-852d-11607d092a36",
   "run_directory" : "./run",
   "seed_file" : "seed.osm",
   "started_at" : "20170710T190152Z",
   "steps" : [
      {
         "arguments" : {
            "__SKIP__" : false,
            "building_type" : "Warehouse",
            "climate_zone" : "NECB HDD Method",
            "epw_file" : "CAN_ON_Toronto.716240_CWEC.epw",
            "template" : "NECB 2011"
         },
         "measure_dir_name" : "create_prototype_building",
         "name" : "create_prototype_building",
         "result" : {
            "completed_at" : "20170710T190244Z",
            "measure_class_name" : "CreatePrototypeBuilding",
            "measure_display_name" : "Create Prototype Building",
            "measure_name" : "create_prototype_building",
            "measure_taxonomy" : "Whole Building.Space Types",
            "measure_type" : "ModelMeasure",
            "measure_uid" : "ae90fsd7-a651-467a-bc8d-29d310b0f937",
            "measure_version_id" : "c6ec5c18-5595-459f-a082-09a19c8c869c",
            "measure_version_modified" : "20170519T182315Z",
            "measure_xml_checksum" : "057E8D9D",
            "started_at" : "20170710T190154Z",
            "stderr" : "",
            "stdout" : "[OpenStudio.Measure] <0> OSArgumentVector is deprecated, use OpenStudio::Measure::OSArgumentVector instead.\n[openstudio.EpwFile] <0> Successive data points (1969-Jan-31 to 1965-Feb-01, ending on line 753) are greater than 1 day apart in EPW file '/usr/local/bundle/bundler/gems/openstudio-standards-f448df66933d/openstudio-standards/data/weather/CAN_ON_Toronto.716240_CWEC.epw'. Data will be treated as typical (TMY)\n[openstudio.setFileExtension] <0> Path p, '/usr/local/bundle/bundler/gems/openstudio-standards-f448df66933d/openstudio-standards/data/weather/CAN_ON_Toronto.716240_CWEC.ddy', has an unexpected file extension. Was expecting 'idf'.\n[openstudio.model.YearDescription] <1> 'UseWeatherFile' is not yet a supported option for YearDescription\n[openstudio.model.YearDescription] <1> 'UseWeatherFile' is not yet a supported option for YearDescription\n[openstudio.setFileExtension] <0> Path p, '/usr/local/bundle/bundler/gems/openstudio-standards-f448df66933d/openstudio-standards/data/weather/CAN_ON_Toronto.716240_CWEC.ddy', has an unexpected file extension. Was expecting 'idf'.\n[openstudio.model.YearDescription] <1> 'UseWeatherFile' is not yet a supported option for YearDescription\n[openstudio.model.YearDescription] <1> 'UseWeatherFile' is not yet a supported option for YearDescription\n[openstudio.EpwFile] <0> Successive data points (1969-Jan-31 to 1965-Feb-01, ending on line 753) are greater than 1 day apart in EPW file '/usr/local/bundle/bundler/gems/openstudio-standards-f448df66933d/openstudio-standards/data/weather/CAN_ON_Toronto.716240_CWEC.epw'. Data will be treated as typical (TMY)\n[openstudio.weather.Model] <0> Could not find ground temperatures; will use generic temperatures, which will skew results.\n[openstudio.setFileExtension] <0> Path p, '/usr/local/bundle/bundler/gems/openstudio-standards-f448df66933d/openstudio-standards/data/weather/CAN_ON_Toronto.716240_CWEC.ddy', has an unexpected file extension. Was expecting 'idf'.\n[openstudio.model.YearDescription] <1> 'UseWeatherFile' is not yet a supported option for YearDescription\n[openstudio.model.YearDescription] <1> 'UseWeatherFile' is not yet a supported option for YearDescription\n[openstudio.EpwFile] <0> Successive data points (1969-Jan-31 to 1965-Feb-01, ending on line 753) are greater than 1 day apart in EPW file '/usr/local/bundle/bundler/gems/openstudio-standards-f448df66933d/openstudio-standards/data/weather/CAN_ON_Toronto.716240_CWEC.epw'. Data will be treated as typical (TMY)\n[openstudio.setFileExtension] <0> Path p, '/usr/local/bundle/bundler/gems/openstudio-standards-f448df66933d/openstudio-standards/data/weather/CAN_ON_Toronto.716240_CWEC.ddy', has an unexpected file extension. Was expecting 'idf'.\n[openstudio.model.YearDescription] <1> 'UseWeatherFile' is not yet a supported option for YearDescription\n[openstudio.model.YearDescription] <1> 'UseWeatherFile' is not yet a supported option for YearDescription\n[openstudio.setFileExtension] <0> Path p, '/usr/local/bundle/bundler/gems/openstudio-standards-f448df66933d/openstudio-standards/data/weather/CAN_ON_Toronto.716240_CWEC.ddy', has an unexpected file extension. Was expecting 'idf'.\n[openstudio.model.YearDescription] <1> 'UseWeatherFile' is not yet a supported option for YearDescription\n[openstudio.model.YearDescription] <1> 'UseWeatherFile' is not yet a supported option for YearDescription\n[openstudio.EpwFile] <0> Successive data points (1969-Jan-31 to 1965-Feb-01, ending on line 753) are greater than 1 day apart in EPW file '/usr/local/bundle/bundler/gems/openstudio-standards-f448df66933d/openstudio-standards/data/weather/CAN_ON_Toronto.716240_CWEC.epw'. Data will be treated as typical (TMY)\n[openstudio.setFileExtension] <0> Path p, '/usr/local/bundle/bundler/gems/openstudio-standards-f448df66933d/openstudio-standards/data/weather/CAN_ON_Toronto.716240_CWEC.ddy', has an unexpected file extension. Was expecting 'idf'.\n[openstudio.model.YearDescription] <1> 'UseWeatherFile' is not yet a supported option for YearDescription\n[openstudio.model.YearDescription] <1> 'UseWeatherFile' is not yet a supported option for YearDescription\n[openstudio.setFileExtension] <0> Path p, '/usr/local/bundle/bundler/gems/openstudio-standards-f448df66933d/openstudio-standards/data/weather/CAN_ON_Toronto.716240_CWEC.ddy', has an unexpected file extension. Was expecting 'idf'.\n[openstudio.model.YearDescription] <1> 'UseWeatherFile' is not yet a supported option for YearDescription\n[openstudio.model.YearDescription] <1> 'UseWeatherFile' is not yet a supported option for YearDescription\n[utilities.idf.WorkspaceObject] <0> Object of type 'Schedule:Constant' and named 'Always Off Discrete', points to an object named OnOff 1 from field 1, but that object cannot be located.\n[utilities.idf.WorkspaceObject] <0> Object of type 'Schedule:Constant' and named 'Always On Continuous', points to an object named Fractional 1 from field 1, but that object cannot be located.\n[utilities.idf.WorkspaceObject] <0> Object of type 'Schedule:Constant' and named 'Always Off Discrete', points to an object named OnOff 1 from field 1, but that object cannot be located.\n[utilities.idf.WorkspaceObject] <0> Object of type 'Schedule:Constant' and named 'Always On Continuous', points to an object named Fractional 1 from field 1, but that object cannot be located.\n[openstudio.standards.Fan] <0> For Fan Constant Volume 1, there is no greater nominal HP.  Use the efficiency of the largest motor category.\n[openstudio.standards.Fan] <0> For Fan Constant Volume 2, there is no greater nominal HP.  Use the efficiency of the largest motor category.\n[openstudio.standards.Fan] <0> For Fan Constant Volume 3, there is no greater nominal HP.  Use the efficiency of the largest motor category.\n[openstudio.EpwFile] <0> Successive data points (1969-Jan-31 to 1965-Feb-01, ending on line 753) are greater than 1 day apart in EPW file '/usr/local/bundle/bundler/gems/openstudio-standards-f448df66933d/openstudio-standards/data/weather/CAN_ON_Toronto.716240_CWEC.epw'. Data will be treated as typical (TMY)\n[openstudio.setFileExtension] <0> Path p, '/usr/local/bundle/bundler/gems/openstudio-standards-f448df66933d/openstudio-standards/data/weather/CAN_ON_Toronto.716240_CWEC.ddy', has an unexpected file extension. Was expecting 'idf'.\n[openstudio.model.YearDescription] <1> 'UseWeatherFile' is not yet a supported option for YearDescription\n[openstudio.model.YearDescription] <1> 'UseWeatherFile' is not yet a supported option for YearDescription\n[openstudio.setFileExtension] <0> Path p, '/usr/local/bundle/bundler/gems/openstudio-standards-f448df66933d/openstudio-standards/data/weather/CAN_ON_Toronto.716240_CWEC.ddy', has an unexpected file extension. Was expecting 'idf'.\n[openstudio.model.YearDescription] <1> 'UseWeatherFile' is not yet a supported option for YearDescription\n[openstudio.model.YearDescription] <1> 'UseWeatherFile' is not yet a supported option for YearDescription\n[openstudio.EpwFile] <0> Successive data points (1969-Jan-31 to 1965-Feb-01, ending on line 753) are greater than 1 day apart in EPW file '/usr/local/bundle/bundler/gems/openstudio-standards-f448df66933d/openstudio-standards/data/weather/CAN_ON_Toronto.716240_CWEC.epw'. Data will be treated as typical (TMY)\n[openstudio.setFileExtension] <0> Path p, '/usr/local/bundle/bundler/gems/openstudio-standards-f448df66933d/openstudio-standards/data/weather/CAN_ON_Toronto.716240_CWEC.ddy', has an unexpected file extension. Was expecting 'idf'.\n[openstudio.model.YearDescription] <1> 'UseWeatherFile' is not yet a supported option for YearDescription\n[openstudio.model.YearDescription] <1> 'UseWeatherFile' is not yet a supported option for YearDescription\n[openstudio.setFileExtension] <0> Path p, '/usr/local/bundle/bundler/gems/openstudio-standards-f448df66933d/openstudio-standards/data/weather/CAN_ON_Toronto.716240_CWEC.ddy', has an unexpected file extension. Was expecting 'idf'.\n[openstudio.model.YearDescription] <1> 'UseWeatherFile' is not yet a supported option for YearDescription\n[openstudio.model.YearDescription] <1> 'UseWeatherFile' is not yet a supported option for YearDescription\n[openstudio.EpwFile] <0> Successive data points (1969-Jan-31 to 1965-Feb-01, ending on line 753) are greater than 1 day apart in EPW file '/usr/local/bundle/bundler/gems/openstudio-standards-f448df66933d/openstudio-standards/data/weather/CAN_ON_Toronto.716240_CWEC.epw'. Data will be treated as typical (TMY)\n[openstudio.setFileExtension] <0> Path p, '/usr/local/bundle/bundler/gems/openstudio-standards-f448df66933d/openstudio-standards/data/weather/CAN_ON_Toronto.716240_CWEC.ddy', has an unexpected file extension. Was expecting 'idf'.\n[openstudio.model.YearDescription] <1> 'UseWeatherFile' is not yet a supported option for YearDescription\n[openstudio.model.YearDescription] <1> 'UseWeatherFile' is not yet a supported option for YearDescription\n[openstudio.setFileExtension] <0> Path p, '/usr/local/bundle/bundler/gems/openstudio-standards-f448df66933d/openstudio-standards/data/weather/CAN_ON_Toronto.716240_CWEC.ddy', has an unexpected file extension. Was expecting 'idf'.\n[openstudio.model.YearDescription] <1> 'UseWeatherFile' is not yet a supported option for YearDescription\n[openstudio.model.YearDescription] <1> 'UseWeatherFile' is not yet a supported option for YearDescription\n[openstudio.standards.Fan] <0> For Fan Constant Volume 1, there is no greater nominal HP.  Use the efficiency of the largest motor category.\n[openstudio.standards.Fan] <0> For Fan Constant Volume 2, there is no greater nominal HP.  Use the efficiency of the largest motor category.\n[openstudio.standards.Fan] <0> For Fan Constant Volume 3, there is no greater nominal HP.  Use the efficiency of the largest motor category.\n",
            "step_errors" : [],
            "step_files" : [],
            "step_info" : [
               "Started adding geometry",
               "Finished adding geometry",
               "Started adding weather file for climate zone: NECB HDD Method.",
               "Template =",
               "Setting Zone3 Bulk Storage to Space Function.Warehouse - med/blk",
               "Setting Zone2 Fine Storage to Space Function.Warehouse - fine",
               "Setting Zone1 Office to Space Function.Office - enclosed",
               "Started applying space types (loads)",
               "Space Function Office - enclosed had no people, one has been created.",
               "Space Function Office - enclosed set occupancy to 4.65 people/1000 ft^2.",
               "Space Function Office - enclosed had no lights, one has been created.",
               "Space Function Office - enclosed set LPD to 1.105536975 W/ft^2.",
               "Space Function Office - enclosed had no electric equipment, one has been created.",
               "Space Function Office - enclosed set electric EPD to 0.696767001 W/ft^2.",
               "Space Function Office - enclosed had no ventilation specification, one has been created.",
               "Space Function Office - enclosed set ventilation per area to 0.085 cfm/ft^2.",
               "Space Function Office - enclosed had no infiltration objects, one has been created.",
               "Space Function Office - enclosed set infiltration to 0.0 per ft^2 exterior surface area.",
               "Space Function Office - enclosed set occupancy schedule to NECB-A-Occupancy.",
               "Space Function Office - enclosed set occupant activity schedule to NECB-Activity.",
               "Space Function Office - enclosed set lighting schedule to NECB-A-Lighting.",
               "Space Function Office - enclosed set electric equipment schedule to NECB-A-Electric-Equipment.",
               "Space Function Office - enclosed set infiltration schedule to Always On.",
               "Space Function Office - enclosed set heating setpoint schedule to NECB-A-Thermostat Setpoint-Heating.",
               "Space Function Office - enclosed set cooling setpoint schedule to NECB-A-Thermostat Setpoint-Cooling.",
               "Space Function Warehouse - fine had no people, one has been created.",
               "Space Function Warehouse - fine set occupancy to 1.86 people/1000 ft^2.",
               "Space Function Warehouse - fine had no lights, one has been created.",
               "Space Function Warehouse - fine set LPD to 0.947603122 W/ft^2.",
               "Space Function Warehouse - fine had no electric equipment, one has been created.",
               "Space Function Warehouse - fine set electric EPD to 0.092902267 W/ft^2.",
               "Space Function Warehouse - fine had no ventilation specification, one has been created.",
               "Space Function Warehouse - fine set ventilation per area to 0.06 cfm/ft^2.",
               "Space Function Warehouse - fine had no infiltration objects, one has been created.",
               "Space Function Warehouse - fine set infiltration to 0.0 per ft^2 exterior surface area.",
               "Space Function Warehouse - fine set occupancy schedule to NECB-A-Occupancy.",
               "Space Function Warehouse - fine set occupant activity schedule to NECB-Activity.",
               "Space Function Warehouse - fine set lighting schedule to NECB-A-Lighting.",
               "Space Function Warehouse - fine set electric equipment schedule to NECB-A-Electric-Equipment.",
               "Space Function Warehouse - fine set infiltration schedule to Always On.",
               "Space Function Warehouse - fine set heating setpoint schedule to NECB-A-Thermostat Setpoint-Heating.",
               "Space Function Warehouse - fine set cooling setpoint schedule to NECB-A-Thermostat Setpoint-Cooling.",
               "Space Function Warehouse - med/blk had no people, one has been created.",
               "Space Function Warehouse - med/blk set occupancy to 0.93 people/1000 ft^2.",
               "Space Function Warehouse - med/blk had no lights, one has been created.",
               "Space Function Warehouse - med/blk set LPD to 0.594574508 W/ft^2.",
               "Space Function Warehouse - med/blk had no electric equipment, one has been created.",
               "Space Function Warehouse - med/blk set electric EPD to 0.092902267 W/ft^2.",
               "Space Function Warehouse - med/blk had no ventilation specification, one has been created.",
               "Space Function Warehouse - med/blk set ventilation per area to 0.06 cfm/ft^2.",
               "Space Function Warehouse - med/blk had no infiltration objects, one has been created.",
               "Space Function Warehouse - med/blk set infiltration to 0.0 per ft^2 exterior surface area.",
               "Space Function Warehouse - med/blk set occupancy schedule to NECB-A-Occupancy.",
               "Space Function Warehouse - med/blk set occupant activity schedule to NECB-Activity.",
               "Space Function Warehouse - med/blk set lighting schedule to NECB-A-Lighting.",
               "Space Function Warehouse - med/blk set electric equipment schedule to NECB-A-Electric-Equipment.",
               "Space Function Warehouse - med/blk set infiltration schedule to Always On.",
               "Space Function Warehouse - med/blk set heating setpoint schedule to NECB-A-Thermostat Setpoint-Heating.",
               "Space Function Warehouse - med/blk set cooling setpoint schedule to NECB-A-Thermostat Setpoint-Cooling.",
               "Finished applying space types (loads)",
               "Started applying constructions",
               "Adding construction set: NECB 2011-NECB HDD Method-Warehouse--is_residentialNo",
               "Adding construction Typical Insulated Exterior Mass Floor R-15.63.",
               "Adding construction Typical Insulated Exterior Mass Wall R-12.5.",
               "Adding construction Typical Insulated Metal Building Roof R-20.41.",
               "Adding construction Typical Interior Floor.",
               "Adding construction Typical Interior Wall.",
               "Adding construction Typical Interior Ceiling.",
               "Adding construction Typical Insulated Carpeted 6in Slab Floor.",
               "Adding construction U 0.55 SHGC 0.31 Dbl Ref-D Tint 6mm/6mm Air.",
               "Adding construction Typical Insulated Metal Door R-1.43.",
               "Adding construction U 0.35 SHGC 0.35 Dbl LoE (e2-.1) Tint 6mm/13mm Air.",
               "Adding construction Typical Overhead Door R-2.0.",
               "Adding construction U 0.48 SHGC 0.40 Dbl Ref-D Clr 6mm/13mm.",
               "Adding construction Typical Interior Window.",
               "Adding construction Typical Interior Door.",
               "Adding construction Typical Interior Partition.",
               "Finished applying constructions",
               "WWR NonRes = 0%; window = 0 ft2, wall = 0 ft2.",
               "WWR Res = 0%; window = 0 ft2, wall = 0 ft2.",
               "WWR Semiheated = 0%; window = 0 ft2, wall = 0 ft2.",
               "The skylight to roof ratios (SRRs) are: NonRes: 2%, Res: 0%.",
               "Started creating thermal zones",
               "Finished creating thermal zones",
               "Running simulation /mnt/openstudio/analysis_4fef0e0f-5396-4c55-a6e1-2cd6803db3ab/data_point_02113d41-da78-4b02-852d-11607d092a36/run/000_create_prototype_building/output/Warehouse-NECB 2011-NECB HDD Method-CAN_ON_Toronto.716240_CWEC.epw/SR0.",
               "Finished run.",
               "Started Adding HVAC",
               "Finished adding HVAC",
               "Started Adding Service Water Heating",
               "Adding service water loop.",
               "Adding water heater.",
               "Template =",
               "Finished adding Service Water Heating",
               "Set sizing factors to 1.3 for heating and 1.3 for cooling.",
               "Running simulation /mnt/openstudio/analysis_4fef0e0f-5396-4c55-a6e1-2cd6803db3ab/data_point_02113d41-da78-4b02-852d-11607d092a36/run/000_create_prototype_building/output/Warehouse-NECB 2011-NECB HDD Method-CAN_ON_Toronto.716240_CWEC.epw/SR1.",
               "Finished run.",
               "Started applying multizone vav OA sizing.",
               "Finished applying multizone vav OA sizing.",
               "Started applying prototype HVAC assumptions.",
               "For Fan Constant Volume 1: allowed_hp = 1.01HP; motor eff = 61.5%; total fan eff = 40% based on 1169 cfm.",
               "For Fan Constant Volume 2: allowed_hp = 9.72HP; motor eff = 61.5%; total fan eff = 40% based on 14202 cfm.",
               "For Fan Constant Volume 3: allowed_hp = 4.2HP; motor eff = 61.5%; total fan eff = 40% based on 6140 cfm.",
               "Sp-Zone2 Fine Storage Sys-4 Flr-1 Sch-A HPlcmt-south ZN NECB System 4 PSZ requires an economizer because the total cooling capacity of 184252 Btu/hr exceeds the minimum capacity of 68243 Btu/hr.",
               "Sp-Zone3 Bulk Storage Sys-4 Flr-1 Sch-A HPlcmt-east ZN NECB System 4 PSZ requires an economizer because the total cooling capacity of 444464 Btu/hr exceeds the minimum capacity of 68243 Btu/hr.",
               "Sp-Zone1 Office Sys-3 Flr-1 Sch-A HPlcmt-south ZN NECB System 3 PSZ does not require an economizer because the total cooling capacity of 35300 Btu/hr is less than the minimum capacity of 68243 Btu/hr.",
               "Finished applying prototype HVAC assumptions.",
               "Started applying HVAC efficiency standards.",
               "For Sp-Zone1 Office Sys-3 Flr-1 Sch-A HPlcmt-south ZN NECB System 3 PSZ, ERV not required based on 0% OA flow, design supply air flow of 1169cfm, and climate zone NECB HDD Method.",
               "For Sp-Zone1 Office Sys-3 Flr-1 Sch-A HPlcmt-south ZN NECB System 3 PSZ, ERV not required based on exhaust heat content.",
               "For NECB 2011 NECB HDD Method:  Sp-Zone1 Office Sys-3 Flr-1 Sch-A HPlcmt-south ZN NECB System 3 PSZ: DCV is not required for any system.",
               "For Sp-Zone1 Office Sys-3 Flr-1 Sch-A HPlcmt-south ZN NECB System 3 PSZ: Annual occupied hours = 2860 hr/yr, assuming a 0.15 occupancy threshold.  This schedule will be used as the HVAC operation schedule.",
               "For Sp-Zone1 Office Sys-3 Flr-1 Sch-A HPlcmt-south ZN NECB System 3 PSZ: Setting motorized OA damper schedule to Sp-Zone1 Office Sys-3 Flr-1 Sch-A HPlcmt-south ZN NECB System 3 PSZ Occ Sch.",
               "For Sp-Zone2 Fine Storage Sys-4 Flr-1 Sch-A HPlcmt-south ZN NECB System 4 PSZ, ERV not required based on 0% OA flow, design supply air flow of 6140cfm, and climate zone NECB HDD Method.",
               "For Sp-Zone2 Fine Storage Sys-4 Flr-1 Sch-A HPlcmt-south ZN NECB System 4 PSZ, ERV not required based on exhaust heat content.",
               "For NECB 2011 NECB HDD Method:  Sp-Zone2 Fine Storage Sys-4 Flr-1 Sch-A HPlcmt-south ZN NECB System 4 PSZ: DCV is not required for any system.",
               "For Sp-Zone2 Fine Storage Sys-4 Flr-1 Sch-A HPlcmt-south ZN NECB System 4 PSZ: Annual occupied hours = 2860 hr/yr, assuming a 0.15 occupancy threshold.  This schedule will be used as the HVAC operation schedule.",
               "For Sp-Zone2 Fine Storage Sys-4 Flr-1 Sch-A HPlcmt-south ZN NECB System 4 PSZ: Because the system has an economizer, it requires a motorized OA damper.",
               "For Sp-Zone2 Fine Storage Sys-4 Flr-1 Sch-A HPlcmt-south ZN NECB System 4 PSZ: Setting motorized OA damper schedule to Sp-Zone2 Fine Storage Sys-4 Flr-1 Sch-A HPlcmt-south ZN NECB System 4 PSZ Occ Sch.",
               "For Sp-Zone3 Bulk Storage Sys-4 Flr-1 Sch-A HPlcmt-east ZN NECB System 4 PSZ, ERV not required based on 0% OA flow, design supply air flow of 14202cfm, and climate zone NECB HDD Method.",
               "For Sp-Zone3 Bulk Storage Sys-4 Flr-1 Sch-A HPlcmt-east ZN NECB System 4 PSZ, ERV not required based on exhaust heat content.",
               "For NECB 2011 NECB HDD Method:  Sp-Zone3 Bulk Storage Sys-4 Flr-1 Sch-A HPlcmt-east ZN NECB System 4 PSZ: DCV is not required for any system.",
               "For Sp-Zone3 Bulk Storage Sys-4 Flr-1 Sch-A HPlcmt-east ZN NECB System 4 PSZ: Annual occupied hours = 2860 hr/yr, assuming a 0.15 occupancy threshold.  This schedule will be used as the HVAC operation schedule.",
               "For Sp-Zone3 Bulk Storage Sys-4 Flr-1 Sch-A HPlcmt-east ZN NECB System 4 PSZ: Because the system has an economizer, it requires a motorized OA damper.",
               "For Sp-Zone3 Bulk Storage Sys-4 Flr-1 Sch-A HPlcmt-east ZN NECB System 4 PSZ: Setting motorized OA damper schedule to Sp-Zone3 Bulk Storage Sys-4 Flr-1 Sch-A HPlcmt-east ZN NECB System 4 PSZ Occ Sch.",
               "For Fan Constant Volume 1: motor nameplate = 0.7283863098787915HP, motor eff = 61.5%.",
               "For Fan Constant Volume 2: motor nameplate = 9HP, motor eff = 61.5%.",
               "For Fan Constant Volume 3: motor nameplate = 4HP, motor eff = 61.5%.",
               "For Service Water Loop Pump: brake hp = 0.0HP, motor nameplate = 0.1HP, motor eff = 70.0%.",
               "For Pump Variable Speed 1: brake hp = 1.12HP, motor nameplate = 1.5HP, motor eff = 86.5%.",
               "For NECB 2011: Coil Cooling DX Single Speed 1: AirCooled All Other Single Package Capacity = 35kBtu/hr; SEER = 14.0",
               "For NECB 2011: Coil Cooling DX Single Speed 2: AirCooled All Other Single Package Capacity = 444kBtu/hr; EER = 8.21",
               "For NECB 2011: Coil Cooling DX Single Speed 3: AirCooled All Other Single Package Capacity = 184kBtu/hr; EER = 9.7",
               "For NECB 2011: Primary Boiler: Gas Hot Water Capacity = 417kBtu/hr; Thermal Efficiency = 0.83",
               "For NECB 2011: Secondary Boiler: Gas Hot Water Capacity = 417kBtu/hr; Thermal Efficiency = 0.83",
               "For NECB 2011: 40.0gal NaturalGas Water Heater - 40kBtu/hr 0.82 Therm Eff; thermal efficiency = 0.82, skin-loss UA = 6Btu/hr",
               "Finished applying HVAC efficiency standards.",
               "Started adding daylighting controls.",
               "Finished adding daylighting controls.",
               "Total Time = 49sec."
            ],
            "step_result" : "Success",
            "step_values" : [
               {
                  "name" : "building_type",
                  "value" : "Warehouse"
               },
               {
                  "name" : "template",
                  "value" : "NECB 2011"
               },
               {
                  "name" : "climate_zone",
                  "value" : "NECB HDD Method"
               },
               {
                  "name" : "epw_file",
                  "value" : "CAN_ON_Toronto.716240_CWEC.epw"
               }
            ],
            "step_warnings" : [
               "[openstudio.EpwFile] Successive data points (1969-Jan-31 to 1965-Feb-01, ending on line 753) are greater than 1 day apart in EPW file '/usr/local/bundle/bundler/gems/openstudio-standards-f448df66933d/openstudio-standards/data/weather/CAN_ON_Toronto.716240_CWEC.epw'. Data will be treated as typical (TMY)",
               "[openstudio.EpwFile] Successive data points (1969-Jan-31 to 1965-Feb-01, ending on line 753) are greater than 1 day apart in EPW file '/usr/local/bundle/bundler/gems/openstudio-standards-f448df66933d/openstudio-standards/data/weather/CAN_ON_Toronto.716240_CWEC.epw'. Data will be treated as typical (TMY)",
               "[openstudio.weather.Model] Could not find ground temperatures; will use generic temperatures, which will skew results.",
               "[openstudio.EpwFile] Successive data points (1969-Jan-31 to 1965-Feb-01, ending on line 753) are greater than 1 day apart in EPW file '/usr/local/bundle/bundler/gems/openstudio-standards-f448df66933d/openstudio-standards/data/weather/CAN_ON_Toronto.716240_CWEC.epw'. Data will be treated as typical (TMY)",
               "[openstudio.EpwFile] Successive data points (1969-Jan-31 to 1965-Feb-01, ending on line 753) are greater than 1 day apart in EPW file '/usr/local/bundle/bundler/gems/openstudio-standards-f448df66933d/openstudio-standards/data/weather/CAN_ON_Toronto.716240_CWEC.epw'. Data will be treated as typical (TMY)",
               "[openstudio.standards.Fan] For Fan Constant Volume 1, there is no greater nominal HP.  Use the efficiency of the largest motor category.",
               "[openstudio.standards.Fan] For Fan Constant Volume 2, there is no greater nominal HP.  Use the efficiency of the largest motor category.",
               "[openstudio.standards.Fan] For Fan Constant Volume 3, there is no greater nominal HP.  Use the efficiency of the largest motor category.",
               "[openstudio.EpwFile] Successive data points (1969-Jan-31 to 1965-Feb-01, ending on line 753) are greater than 1 day apart in EPW file '/usr/local/bundle/bundler/gems/openstudio-standards-f448df66933d/openstudio-standards/data/weather/CAN_ON_Toronto.716240_CWEC.epw'. Data will be treated as typical (TMY)",
               "[openstudio.EpwFile] Successive data points (1969-Jan-31 to 1965-Feb-01, ending on line 753) are greater than 1 day apart in EPW file '/usr/local/bundle/bundler/gems/openstudio-standards-f448df66933d/openstudio-standards/data/weather/CAN_ON_Toronto.716240_CWEC.epw'. Data will be treated as typical (TMY)",
               "[openstudio.EpwFile] Successive data points (1969-Jan-31 to 1965-Feb-01, ending on line 753) are greater than 1 day apart in EPW file '/usr/local/bundle/bundler/gems/openstudio-standards-f448df66933d/openstudio-standards/data/weather/CAN_ON_Toronto.716240_CWEC.epw'. Data will be treated as typical (TMY)",
               "[openstudio.standards.Fan] For Fan Constant Volume 1, there is no greater nominal HP.  Use the efficiency of the largest motor category.",
               "[openstudio.standards.Fan] For Fan Constant Volume 2, there is no greater nominal HP.  Use the efficiency of the largest motor category.",
               "[openstudio.standards.Fan] For Fan Constant Volume 3, there is no greater nominal HP.  Use the efficiency of the largest motor category."
            ]
         }
      },
      {
         "arguments" : {
            "__SKIP__" : false
         },
         "measure_dir_name" : "view_model",
         "name" : "view_model",
         "result" : {
            "completed_at" : "20170710T190244Z",
            "measure_class_name" : "ViewModel",
            "measure_display_name" : "ViewModel",
            "measure_name" : "view_model",
            "measure_taxonomy" : "Reporting.QAQC",
            "measure_type" : "ModelMeasure",
            "measure_uid" : "f4669f10-fda5-489d-8e1c-7ca3c2d40378",
            "measure_version_id" : "f4975c5f-7c25-42a2-927b-02d99b4427ef",
            "measure_version_modified" : "20170526T150340Z",
            "measure_xml_checksum" : "1E1F8B97",
            "started_at" : "20170710T190244Z",
            "stderr" : "",
            "stdout" : "[OpenStudio.Measure] <0> OSArgumentVector is deprecated, use OpenStudio::Measure::OSArgumentVector instead.\n",
            "step_errors" : [],
            "step_files" : [
               "/mnt/openstudio/analysis_4fef0e0f-5396-4c55-a6e1-2cd6803db3ab/data_point_02113d41-da78-4b02-852d-11607d092a36/run/001_view_model/report.html",
               "/mnt/openstudio/analysis_4fef0e0f-5396-4c55-a6e1-2cd6803db3ab/data_point_02113d41-da78-4b02-852d-11607d092a36/run/001_view_model/report.json"
            ],
            "step_final_condition" : "Report written to <a href='file:////mnt/openstudio/analysis_4fef0e0f-5396-4c55-a6e1-2cd6803db3ab/data_point_02113d41-da78-4b02-852d-11607d092a36/run/001_view_model/report.html'>report.html</a>.",
            "step_info" : [ "No changes made to the model." ],
            "step_result" : "NA",
            "step_values" : [
               {
                  "name" : "view_model_html_zip",
[...]
tceOnE5FEV1J4w5I7k+txz51O1YEiLWW9tVFyw+rquWkaL46Q2ekb3qQOfBno35Skc3XuisLruuFoEsWtu8NODDUuojDt3kh/PEmVxnkUePoai9H57fjox+6r7oeJjK+iJHVTcSLTaeRnwj9LN/XD8YuNovF6uZmMYn+a/ov8zstNz79+vJm8hxbLtITvHbZGyp2Psud3/VDGZ4N+S+Sdctjy/GQauPMDP1Tn4XTPg2j06YcWzZeJLh5BpPNpdr/ql81L99pdfFp4p7ryQ3qux+JwdRZPKG9Orsft1ncPGTtiSx1tk/1TGkn3DnQ5/euUqC9K+VHnqDrD/AywkZp+1IlPi2p/a+dNFSgN2JSGbEpbbErbbEo7bEq7bEp7bEr7bEprh29aSvF5ucPn5g6fnzt8ju7webrD5+oOn687fM7u8Hn7gM/bB4xzOp+3D/i8fWDo7Q8LL2lmwFh6BkIFfWUmVNBTZkIF/WQmVDAnmAkVzAhmQgXzgZlQwWxgJlQwF5gJFSU+QyU23y5Ke4ZKbN5dlPQMldj8uyjlGSqxeXhRwjNUYvPxonRnqMQ3f7P5eFGuM1Qy8fEHhS8005yqjWGgVNBNhkoF3WSoVNBNhkoFU4GhUsFUYKhUMBUYKhVMBYZKBVOBoVJRvjOV4vPyooxnKsXn50U5z1SKz9OLsp6pFJ+vF+U9Uyk+by/KfKZSjHM6n7cXJT9TqVJvx2H0OIx+KaRxGw6jf3DhMHodLBxGj8Poq1w4jF5dOIweh9HnFw6jL/4mDqMvF1AXDqN/Gmc2Agc4wAEOcIADHOAABzjAAc6Tx/nGjnIEDWhAAxrQgAY0oAENaEADmqdD822d2Qgc4AAHOMABDnCAAxzgAAc43xTOVyzO9mqU+td+On8rr2Ug2v9BebZvsTzbcpCeRiU25wlUYnMaq8TW7/W3WQqxWQkNuYS2uIS2uYR2uIR2uYT2uIT2uYTW3su3U2LzbYfNuR0273bY3Nth82+HzcEdNg932FzcYfPxAZuPD/jmbzYfH7D5+MDMx/Urrq1rVS+4ZqND91L1cms2OvQsUL3Ymo0OPQNUL7Vmo0NHv0WhNSshLo8uSG8WVdashLicuiC3WZRYsxLi8uuCxGZRX81qZuTy7IKsZlFczUqIy7MLUlr1ymrrOhaF1ayE6C6yKKtmJUQHv0VRNSshOvgtSqpZCdHBb1NQzU6JzbcLMptNNTU7JTb3LkhuNqXU7JTYPLwgv9nUUbObK9l8vCDF2RRRs1Ni8/GCLIcKaqighgpqDwhRQU1dqKCGCmqooFZwoYIaKqgZPRUqqK3ZN/g+Kqjdv1BB7e6qYcPWN1ZoADjAAQ5wgAMc4AAHOMABDnCePM43Vn8ANKABDWhAAxrQgAY0oAENaJ4Ozd+m7gFwgAMc4AAHOMABDnCAAxzgVLf3FSqooWDaN1Uw7WQ0kd4s62X1OlQiU+H0n0bZtMETKJs2aKxs2k7+UmjVEjdcQkMuoS0uoW0uoR0uoV0uoT0uoX0uobW37+2U2HzbYXNuh827HTb3dtj822FzcIfNwx02F3fYfHzA5uMDvvmbzccHbD4+MPNx/bJp61rVy6bZ6NC9VL1smo0OPQtUL5tmo0PPANXLptno0NFvUTbNSojLowvSm0XZNCshLqcuyG0WZdOshLj8uiCxWZRNs5oZuTy7IKtZlE2zEuLy7IKUVr1s2rqORdk0KyG6iyzKplkJ0cFvUTbNSogOfouyaVZCdPDblE2zU2Lz7YLMZlM2zU6Jzb0LkptN2TQ7JTYPL8hvNmXT7OZKNh8vSHE2ZdPslNh8vCDLoWwayqahbNoDQpRNUxfKpqFsGsqmFVwom4ayaUZPhbJpa/YNvo+yafcvlE27u2rYpfWNVRcADnCAAxzgAAc4wAEOcIADnCeP840VHQANaEADGtCABjSgAQ1oQAOap0Pztyl2ABzgAAc4wAEOcIADHOAABzjV7aFs2vJC2bS7smnO0yibNnwCZdOGjZVN6/cGLFXTbHSGTDpbTDrbTDo7TDq7TDp7TDr7TDprL91bCXF5tMPl0g6XTztcTu1webXD5dYOl187XI7tcHn2gMuzB2xzNZdnD7g8e2Dk2frl0dakqldHs5Ahe6h6bTQLGTLuq1dGs5AhY756XTQLGTLeLaqi2egw+TGdxixKotnoMLkyncMs6qHZ6DB5M53ALIqh2cyDTP5MZy+LSmg2Okz+TKeu6mXQ1mQsqqDZ6JDdY1EDzUaHDHeLCmg2OmS4W9Q/s9Ehw92m+pmVEJdH0xnMpvSZlRCXU9NJzKbumZUQl1/Tecym6JnVzMjl2XQqs6l4ZiXE5dl0NkO5M5Q7Q7mzB4Qod6YulDtDuTOUOyu4UO4M5c6MngrlztbsG3wf5c7uXyh3dnfVsLvqG6sKABzgAAc4wAEOcIADHOAABzhPHucbKxYAGtCABjSgAQ1oQAMa0IAGNE+H5m9TpAA4wAEOcIADHOAABzjAAQ5wqttDubPlhXJnq3Jnw6dR7WzrCVQ722qw2ll/m6ncmYXQkEtoi0tom0toh0tol0toj0ton0voi7ftbZTYfNthc26HzbsdNvd22PzbYXNwh83DHTYXd9h8fMDm4wO++ZvNxwdsPj4w83GTKmj3tWzKoFXXoXvJphBadR16FrAphVZdh54BbIqhVdeho9+qHJqFEJdHF6Q3q4poFkJcTl2Q26yKolkIcfl1QWKzqotmMTNyeXZBVrMqjWYhxOXZBSnNpjrafR2r8mgWQnQXWRVIsxCig9+qRJqFEB38VkXSLITo4Lcrk2ajxObbBZnNrlKajRKbexckN7tiaTZKbB5ekN/s6qXZzJVsPl6Q4uxKptkosfl4QZZD1TRUTUPVtAeEqJqmLlRNQ9U0VE0ruFA1DVXTjJ4KVdPW7Bt8H1XT7l+omnZ31bBJ6xsrLgAc4AAHOMABDnCAAxzgAAc4Tx7nG6s5ABrQgAY0oAENaEADGtCABjRPh+ZvU+sAOMABDnCAAxzgAAc4wAEOcKrbQ9W05YWqaauqaVtPo2ra9hOomrbdWNW0nfyd0KoVbriEhlxCW1xC21xCO1xCu1xCe1xC+1xCay/f2ymx+bbD5twOm3c7bO7tsPm3w+bgDpuHO2wu7rD5+IDNxwd88zebjw/YfHxg5uP6VdPWtapXTbPRoXupetU0Gx16FqheNc1Gh54BqldNs9Gho9+iapqVEJdHF6Q3i6ppVkJcTl2Q2yyqplkJcfl1QWKzqJpmNTNyeXZBVrOommYlxOXZBSmtetW0dR2LqmlWQnQXWVRNsxKig9+iapqVEB38FlXTrITo4LepmmanxObbBZnNpmqanRKbexckN5uqaXZKbB5ekN9sqqbZzZVsPl6Q4myqptkpsfl4QZZD1TRUTUPVtAeEqJqmLlRNQ9U0VE0ruFA1DVXTjJ4KVdPW7Bt8H1XT7l+omnZ31bBJ6xsrLgAc4AAHOMABDnCAAxzgAAc4Tx7nG6s5ABrQgAY0oAENaEADGtCABjRPh+ZvU+sAOMABDnCAAxzgAAc4wAEOcKrbQ9W05YWqaauqadtPo2razhOomrbTWNW0fm/AUjTNRmfIpLPFpLPNpLPDpLPLpLPHpLPPpLP2zr2VEJdHO1wu7XD5tMPl1A6XVztcbu1w+bXD5dgOl2cPuDx7wDZXc3n2gMuzB0aerV8dbU2qenE0Cxmyh6qXRrOQIeO+emE0Cxky5quXRbOQIePdoiiajQ6TH9NpzKIimo0OkyvTOcyiHJqNDpM30wnMohaazTzI5M909rIohGajw+TPdOqqXgVtTcaiCJqNDtk9FiXQbHTIcLcogGajQ4a7RfkzGx0y3G2Kn1kJcXk0ncFsKp9ZCXE5NZ3EbMqeWQlx+TWdx2xqnlnNjFyeTacym4JnVkJcnk1nM1Q7Q7UzVDt7QIhqZ+pCtTNUO0O1s4IL1c5Q7czoqVDtbM2+wfdR7ez+hWpnd1cNm6u+saIAwAEOcIADHOAABzjAAQ5wgPPkcb6xWgGgAQ1oQAMa0IAGNKABDWhA83Ro/jY1CoADHOAABzjAAQ5wgAMc4ACnuj1UO1teqHa2qna28zSqne0+gWpnuw1WO+tvM5U7sxAacgltcQltcwntcAntcgntcQntcwl98ba9jRKbbztszu2webfD5t4Om387bA7usHm4w+biDpuPD9h8fMA3f7P5+IDNxwdmPm5SBe2+lk0ZtOo6dC/ZFEKrrkPPAjal0Krr0DOATTG06jp09FuVQ7MQ4vLogvRmVRHNQojLqQtym1VRNAshLr8uSGxWddEsZkYuzy7Ialal0SyEuDy7IKXZVEe7r2NVHs1CiO4iqwJpFkJ08FuVSLMQooPfqkiahRAd/HZl0myU2Hy7ILPZVUqzUWJz74LkZlcszUaJzcML8ptdvTSbuZLNxwtSnF3JNBslNh8vyHKomoaqaaia9oAQVdPUhappqJqGqmkFF6qmoWqa0VOhatqafYPvo2ra/QtV0+6uGjZpfWPFBYADHOAABzjAAQ5wgAMc4ADnyeN8YzUHQAMa0IAGNKABDWhAAxrQgObp0Pxtah0ABzjAAQ5wgAMc4AAHOMABTnV7qJq2vFA1bVU1bfdpVE3bewJV0/Yaq5q2k78TWrXCDZfQkEtoi0tom0toh0tol0toj0ton0to7eV7OyU233bYnNth826Hzb0dNv922BzcYfNwh83FHTYfH7D5+IBv/mbz8QGbjw/MfFy/atq6VvWqaTY6dC9Vr5pmo0PPAtWrptno0DNA9appNjp09FtUTbMS4vLogvRmUTXNSojLqQtym0XVNCshLr8uSGwWVdOsZkYuzy7IahZV06yEuDy7IKVVr5q2rmNRNc1KiO4ii6ppVkJ08FtUTbMSooPfomqalRAd/DZV0+yU2Hy7ILPZVE2zU2Jz74LkZlM1zU6JzcML8ptN1TS7uZLNxwtSnE3VNDslNh8vyHKomoaqaaia9oAQVdPUhappqJqGqmkFF6qmoWqa0VOhatqafYPvo2ra/QtV0+6uGjZpfWPFBYADHOAABzjAAQ5wgAMc4ADnyeN8YzUHQAMa0IAGNKABDWhAAxrQgObp0Pxtah0ABzjAAQ5wgAMc4AAHOMABTnV7qJq2vFA1bVU1be9pVE3bfwJV0/Ybq5rW7w1YiqbZ6AyZdLaYdLaZdHaYdHaZdPaYdPaZdNbeubcS4vJoh8ulHS6fdric2uHyaofLrR0uv3a4HNvh8uwBl2cP2OZqLs8ecHn2wMiz9aujrUlVL45mIUP2UPXSaBYyZNxXL4xmIUPGfPWyaBYyZLxbFEWz0WHyYzqNWVREs9FhcmU6h1mUQ7PRYfJmOoFZ1EKzmQeZ/JnOXhaF0Gx0mPyZTl3Vq6CtyVgUQbPRIbvHogSajQ4Z7hYF0Gx0yHC3KH9mo0OGu03xMyshLo+mM5hN5TMrIS6nppOYTdkzKyEuv6bzmE3NM6uZkcuz6VRmU/DMSojLs+lshmpnqHaGamcPCFHtTF2odoZqZ6h2VnCh2hmqnRk9Faqdrdk3+D6qnd2/UO3s7qphc9U3VhQAOMABDnCAAxzgAAc4wAEOcJ48zjdWKwA0oAENaEADGtCABjSgAQ1ong7N36ZGAXCAAxzgAAc4wAEOcIADHOBUt4dqZ8sL1c5W1c72n0S1s2H/2692ljE2Ve3M2er3+vcuZ4ul+Bmj7LAe2a16ZLfrkd2pR3a3Htm9emT365Fde9efU7emOHNqCjSnpkhzago1p6ZYc2oKNqemaHNqCjenpngb1BRvg7ryWk3xNqgp3gY28aZfVa5IuXqROT5V3d6tXoKOT1V3JqteoI5PVXcWq16+jk9VdwazKG7HKFtPdGkvFywq4THK1hNg2msFi7J5jLL1xJj2QsGixh5jVqgnyrRXCRYF+Rhl64ky7SVC9ep9RaoWxfwYZXW71qLUH6Os7gRmUQiQUVZ3ArMoE8goqzuB2RQR5NStKc60Vwo2FQc5dWsKNe3Fgk15Qk7dmqJNe71gU8uQM0/UFG/aSwabwoecujXFm/aqAVUSUSURVRIfEKJKorpQJRFVElElseBClURUSTR6KlRJXLNv8H1USbx/oUri3VXDpsxvrJgIcIADHOAABzjAAQ5wgAMc4Dx5nG+sxghoQAMa0IAGNKABDWhAAxrQPB2av01tE+AABzjAAQ5wgAMc4AAHOMCpbu8rVEn8IK+mMnbTWSxF+80GiiZ+W0UTZXztj6T4j6s8720UTYUaMLXPeav/5mkUUHSeQAFFp7kCiur/q1ZqYtIZMulsMelsM+nsMOnsMunsMensM+msFxiwEeLyaIfLpR0un3a4nNrh8mqHy60dLr92uBzb4fLsAZdnD9jmai7PHnB59sDIsw0K+92XsqjkV12G7CGLWn3VZci4t6jGV12GjHmLenvVZch4t6moZ6HD5Md0GrMpkmehw+TKdA6zqXtnocPkzXQCsyllZzEPMvkznb1sqtNZ6DD5M526LArO3ZexqTBnoUN2j00NOQsdMtxtqsRZ6JDhblMHzkKHDHerSm82QlweTWcwq+JtNkJcTk0nMat6bDZCXH5N5zGrEms2MyOXZ9OpzKpqmo0Ql2fT2eyB0O+xH8V+OheO6Ir2ySzcUCWpdrr/xw27faeb//9rOeqqX2A+nub6az/ovXq1tbW/z2BiUL+JYf0mtuo3sV2/iZ36TezWb2KvfhP79ZtYy+x12Wggvp0GAtxpIMKdBkLcaSDGnQaC3Gkgyp0GwtxpIM4HDcT5oIk83kCcDxqI80G1OB/kNtyUstHXW1YNh4PB3g6DCXo02EzQg8Fmgh4LNhP0lMtmgp5x2UzQEy6bCXq+ZTNBT7dsJgqWVXw2GojvgmUVn40GIrxgWcVno4EYL1hW8dloIMoLllV8NhqI84JlFZ+NJvJ4A3FesKzis1EtzofKxpvYJ2wM9vWWVY6zuzscMpigR4PNBD0YbCbosWAzQU+5bCboGZfNBD3hspmg51s2E/TeKDYTBRsC+WzQO6r4bNCbrfhs0Puw+GzQW7T4bND7Evls0FsW+WzQuxn5bNAbHflsNBDnBcsqPhtN5PEGEnnBsorPRrVUvqVsfJjMKBt7esuq/eza/pHBBD0abCbowWAzQY8Fmwl6WcVmgl5WsZmgl1VsJuhlFZsJerplM1GwrOKzQS+r+GzQyyo+G/Syis8Gvazis0Evq/hs0MsqPhv0sorPBr2s4rPRQJwXLKv4bDSRxxtI5AXLKj4b1VL5trLxH+lRNnb1llWvXx8d7e4ymKBHg80EPRhsJuixYDNBL6vYTNDLKjYT9LKKzQS9rGIzQU+3bCYKllV8NuhlFZ8NelnFZ4NeVvHZoJdVfDboZRWfDXpZxWeDXlbx2aCXVXw2GojzgmUVn40m8ngDibxgWcVno1oq38mXbjNJ2djRW1YdHe3ssJigR4PNBD0YbCbosWAzQS+r2EzQyyo2E/Syis0EvaxiM0FPt2wmCpZVfDboZRWfDXpZxWeDXlbx2aCXVXw26GUVnw16WcVng15W8dmgl1V8NhqI84JlFZ+NJvJ4A4m8YFnFZ6NaKt9VNn6NqG3xg229ZdXe3mCwvc1ggh4NNhP0YLCZoMeCzQS9rGIzQS+r2EzQyyo2E/Syis1EUd0pJhOFxda4bBRVq+KyUVTIistGUY0rLhtF5a+4bBTVfOOyUVQOjstGUaU4LhtFReS4bDQQ5wXLKj4bTeTxBhJ5wbKKz0Z5Kv+oU+F1WZNZHIpQ3qwKyOZ1Y9vJ9biTV4AtLRW7KuycyPTHaBZ6SXu73xGOs90RQ/V/g229crO3GcZdUWrPO3JTOY7i+atbP1mURb57fo3q0ZnAu9iT8fuZqlKsfaPimK9z/CrdZBbLBYYqtLzs95rLc6MZzWhGM5rRjGY0oxnNaEYzmtGMZjSjGc1oRjOa0YxmNKMZzWhGM5rRjGY0oxnNaEYzmtGMZjSjGc1oRjOa0YxmNKMZzWhGM5rRjGY0o/lZNc970bWMY9+Tv7rqxVqn17d8X1W9Gpusvxp7ImNfJsvXa1ud1QvE0yBKe4EfytJXZJPH3tMtf7M26eVHz0+jwE39KMygWkkqp91zeRHFsqX35vNbOZaht/5Ai8/aO/2OGKo3l/vqRWb1TyuQF6kCK5FeyfbOxjI9DlPVP5mJi1k4yknbG+LPEokVoby7+7T0XW51+ReinU78pJfko6JnSF33bupl/Xfsjibtv4BN1Vb46tXxjH2pezaNEl8Jvs4+1nma1aVkHqGKoxszpBWWH3pSxUPX6Rjevbouq9544ctA+Vt72aeLOBnH0WwqPfH99+Ify89ve2cTN1m+/64CbON+6/zR1qxDeu54/EbZ6AUyHKcT8VIMxL9F61UQtMTB+jeSwB/JdtfZOO1/3CiNtwdPEsWifZk9Sv8HcZmZWbrq0q767J/ZjGM+QOpSbrzUO7382Psk5+Lw8HDRedUUc9XlsF+aPurqOo+l+6nKzZ8N7zH9vuqv5dMdKrdWzrD0lLyQQ+/MTRJ/HErvSJWISE7znvxYrStXAz2dJZN21bHIhvRgMZ7VIykIDnSesqe+WdVKksbRJ6lnZ/HdqpaiqTvy07meqeWXKz9VbmJlqqrKaiJZn1aqhIfx5KOuVTivTzyiKxxTNZNw02f93Mmzqtb3P5etKdS1uSl+/+OD+O+7P96Lk3fvP/zy20/i7buffjkSPx+/P9YTeJPN2vLWVUs0kUYiieJUhLOrzA9GIi9pkgg3GWWLFz8cayiu+l7p3MvMbkec608usUxncSimbpzIN0Hkpm1XTfkb2VDe++w8/0yrM8uXaPfMLh+hTPhzvZVe7tafebjnwd5+4ckLdxakYhpH2RwmX3TEi+/29o6Ojo9f1Fx4BjjAAQ5wgAMc4AAHOMABDnCeJ45IZlfZj8DCk+pD4blzRRRLDzSgAQ1oQAMa0IAGNKABDWhAU0xzk2/N+oLmPJhJ4AAHOMABDnCAAxzgAAc4wAFOFZy7cwMddW7gyYw6N3Do5H9he/Vqa2t/H6QgBSlIQQpSkIIUpCAFKUhBClKQPg3SQU7qphRpPycdDgeDvR2QghSkIAUpSEEKUpCCFKQgBSlIQfo0SIeK9E3sE6SD/ZzUcXZ3h0OQghSkIAUpSEEKUpCCFKQgBSlIQfo0SLcU6YfJjCLdy0n3s2v7R5CCFKQgBSlIQQpSkIIUpCAFKUhB+jRItxXpf6RHke7mpK9fHx3t7oIUpCAFKUhBClKQghSkIAUpSEEK0qdBupP/ZmImKdKdnPToaGcHpCAFKUhBClKQghSkIAUpSEEKUpA+FdJdRfprRFUWHGznpHt7g8H2NkhBClKQghSkIAUpSEEKUpCCFKQgbYx0heLF7k27VOy2l/ppIE8m7lT2Unmbtl/8HM3ipBxj/vDO1/6VDBM/CgOZ5AolEpub4pXnCVfkSuLGTyciia6k8IYldybX4547ncrQa7eU7dZGyQ2rq+emadxu3bY6YqdveNM8u2mgf1OSzgO5wOu64WgSxdn9rUBeGNAuNS6iMO3eSH88SZXGeRR4+hqLsTmZdv8XhdIR7y4u/JEUJ/OkOxRvgrjriJPRpPtK/Px7MLpKu0k0y4bhf7+J346PflRfS+WVGIrfT/4n3o1G6rsvNooG9uVmMor9afov8jsvNz3/+vFm8h5aLNMSvnfYGimvP8o6yvVDGZ8NBy2R995hy/OTaeDOD/wwyJq650E0+vRDi+bLRBePINL5NLtfdeDmpXvtLj4tvFNd126sHFQcCs+/mgayF8qbk+txu/XdQ8aO2Or3839KA07Jem7qZrqnf7YC91wGrYOWJy/cWZCKaRxd+IFsdRYtZ7etA6fX77Su3WAml/8/UvNSdk821RwdHR+3Pne0dAZMOkMmnS0mnW0mnR0mnV0mnT0mnX0mHafPJcTl0Q6XSztcPu1wObXD5dUOl1s7XH7tcDm2w+XZAy7PHrDN1VyePeDy7IGRZ4tkdnW1dlC1VkaLpWcgQ/aRmQzZQ2YyZP+YyZBxbyZDRr2ZDBnzZjJkxJvJkPFuJkMnMkMdJj+m05ihDpMn00nMUIfJl+kUZqjD5M10AjPUYfJnOn0Z6nDNy0z+TOcuQx19f77xw9Q8bZ2rj/R1yO4x1CG7x1CH7B5DHTLcDXXIcDfUIcPdUIcMd0MdMtwNdej8ZSrE5dF0BjMV4vJpOoeZCnF5NZ3FTIW4/JrOY6ZCXJ5NZzJTIba5msuz6WRmKqTv2Xd/uSg9WZhKc/21H/QWRw8zmBjUb2JYv4mt+k1s129ip34Tu/Wb2KvfxH79JtYye102Gohvp4EAdxqIcKeBEHcaiHGngSB3Gohyp4EwdxqI80EDcT5oIo83EOeDBuJ8UC3OSw9w1FtWLU54ZDBBjwabCXow2EzQY8Fmgp5y2UzQMy6bCXrCZTNBz7dsJujpls1EwbKKz0YD8V2wrOKz0UCEFyyr+Gw0EOMFyyo+Gw1EecGyis9GA3FesKzis9FEHm8gzguWVXw2qsV56TlZesuqxUFaDCbo0WAzQQ8Gmwl6LNhM0FMumwl6xmUzQU+4bCbo+ZbNBL03is1EwYZAPhv0jio+G/RmKz4b9D4sPhv0Fi0+G/S+RD4b9JZFPhv0bkY+G/RGRz4bDcR5wbKKz0YTebyBRF6wrOKzUS2Vlx5HoresWpxXwmCCHg02E/RgsJmgx4LNBL2sYjNBL6vYTNDLKjYT9LKKzQQ93bKZKFhW8dmgl1V8NuhlFZ8NelnFZ4NeVvHZoJdVfDboZRWfDXpZxWeDXlbx2WggzguWVXw2msjjDSTygmUVn41qqby06rvesmpRFp7BBD0abCbowWAzQY8Fmwl6WcVmgl5WsZmgl1VsJuhlFZsJerplM1GwrOKzQS+r+GzQyyo+G/Syis8Gvazis0Evq/hs0MsqPhv0sorPBr2s4rPRQJwXLKv4bDSRxxtI5AXLKj4b1VJ5aXFdvWXVovougwl6NNhM0IPBZoIeCzYT9LKKzQS9rGIzQS+r2EzQyyo2E/R0y2aiYFnFZ4NeVvHZoJdVfDboZRWfDXpZxWeDXlbx2aCXVXw26GUVnw16WcVno4E4L1hW8dloIo83kMgLllV8Nqql8tIahnrLqkWRQwYT9GiwmaAHg80EPRZsJuhlFZsJelnFZoJeVrGZoJdVbCaK6k4xmSgstsZlo6haFZeNokJWXDaKalxx2Sgqf8Vlo6jmG5eNonJwXDaKKsVx2SgqIsdlo4E4L1hW8dloIo83kMgLllV8NspT+UedCq/L8s3iUITyZlVANq8b206ux528AmxpqdhVDehEpj9Gs9BL2tv9jnCc7Y4Yqv8bbOuVm73NMO5KW3vekZvKcRTPX936yaKG8t3zaxSazgTexZ6M389USWPtGxXHfJ3jV+kms1guMFRV5mW/11zkG81oRjOa0YxmNKMZzWhGM5rRjGY0oxnNaEYzmtGMZjSjGc1oRjOa0YxmNKMZzWhGM5rRjGY0oxnNaEYzmtGMZjSjGc1oRjOa0YxmNKMZzc+qed6LrmUc+5781VUv1jq9vuX7qurV2GT91dgTGfsyWb5e2+qsXiCeBlHaC/xQlr4imzz2nm75m7VJLz96fhoFbupHYQbVSlI57Z7LiyiWLb03n9/KsQy99QdafNbe6XfEUL253FcvMqt/WoG8SBVYifRKtnc2lulxmKr+yUxczMJRTtreEH+WSKwI5d3dp6XvcqvLvxDtdOInvSQfFT1D6rp3Uy/rv2N3NGn/BWyqtsJXr45n7Evds2mU+ErwdfaxztOsLiXzCFUc3ZghrbD80JMqHrpOx/Du1XVZ9cYLXwbK39rLPl3EyTiOZlPpie+/F/9Yfn7bO5u4yfL9dxVgG/db54+2Zh3Sc8fjN8pGL5DhOJ2Il2Ig/i1ar4KgJQ7Wv5EE/ki2u87Gaf/jRmm8PXiSKBbty+xR+j+Iy8zM0lWXdtVn/8xmHPMBUpdy46Xe6eXH3ic5F4eHh4vOq6aYqy6H/dL0UVfXeSzdT1Vu/mx4j+n3VX8tn+5QubVyhqWn5IUcemdukvjjUHpHqkREcpr35MdqXbka6OksmbSrjkU2pAeL8aweSUFwoPOUPfXNqlaSNI4+ST07i+9WtRRN3ZGfzvVMLb9c+alyEytTVVVWE8n6tFIlPIwnH3Wtwnl94hFd4ZiqmYSbPuvnTp5Vtb7/uWxNoa7NTfH7Hx/Ef9/98V6cvHv/4ZfffhJv3/30y5H4+fj9sZ7Am2zWlreuWqKJNBJJFKcinF1lfjASeUmTRLjJKFu8+OFYQ3HV90rnXmZ2O+Jcf3KJZTqLQzF140S+CSI3bbtqyt/IhvLeZ+f5Z1qdWb5Eu2d2+Qhlwp/rrfRyt/7Mwz0P9vYLT164syAV0zjK5jD5oiNefLe3d3R0fPyi5sIzwAEOcIADHOAABzjAAQ5wgPM8cUQyu8p+BBaeVB8Kz50rolh6oAENaEADGtCABjSgAQ1oQAOaYpqbfGvWFzTnwUwCBzjAAQ5wgAMc4AAHOMABDnCq4NydG+iocwNPZtS5gUMn/wvbq1dbW/v7IAUpSEEKUpCCFKQgBSlIQQpSkIL0aZAOclI3pUj7OelwOBjs7YAUpCAFKUhBClKQghSkIAUpSEEK0qdBOlSkb2KfIB3s56SOs7s7HIIUpCAFKUhBClKQghSkIAUpSEEK0qdBuqVIP0xmFOleTrqfXds/ghSkIAUpSEEKUpCCFKQgBSlIQQrSp0G6rUj/Iz2KdDcnff366Gh3F6QgBSlIQQpSkIIUpCAFKUhBClKQPg3Snfw3EzNJke7kpEdHOzsgBSlIQQpSkIIUpCAFKUhBClKQgvSpkO4q0l8jqrLgYDsn3dsbDLa3QQpSkIIUpCAFKUhBClKQghSkIAVpY6QrFC92b9qlYre91E8DeTJxp7KXytu0/eLnaBYn5Rjzh3e+9q9kmPhRGMgkVyiR2NwUrzxPuCJXEjd+OhFJdCWFNyy5M7ke99zpVIZeu6VstzZKblhdPTdN43brttURO33Dm+bZTQP9m5J0HsgFXtcNR5Mozu5vBfLCgHapcRGFafdG+uNJqjTOo8DT11iMzcm0+78olAPxxg+lOEmj2B1n/50n3S3xJoi7jjgZTbqvxM+/B6OrtJtEs2ww/veb+O346Ef1tVReiS3x+8n/xLvRSH33xUbR8L7cTEaxP03/RX7n5abnXz/eTN5Di2VawvcOWyPl+0dZd7nZY8Znw2FL5H142PL8ZBq48wM/DLKm7nkQjT790KL5MtHFI4h0Ps3uV924eeleu4tPC+9U17UbKzcVh8Lzr6aB7IXy5uR63G5995CxI7b6/fyf0rBTsp6bupnu6Z+twD2XQeug5ckLdxakYhpHF34gW51Fy9lt68Dp9TutazeYyeX/j9TslN2TTThHR8fHrc8dLZ0Bk86QSWeLSWebSWeHSWeXSWePSWefScfpcwlxebTD5dIOl087XE7tcHm1w+XWDpdfO1yO7XB59oDLswdsczWXZw+4PHtg5NkimV1drR1XrZXRYukZyJB9ZCZD9pCZDNk/ZjJk3JvJkFFvJkPGvJkMGfFmMmS8m8nQicxQh8mP6TRmqMPkyXQSM9Rh8mU6hRnqMHkzncAMdZj8mU5fhjpc8zKTP9O5y1BH359v/DA1T1vn6iN9HbJ7DHXI7jHUIbvHUIcMd0MdMtwNdchwN9Qhw91Qhwx3Qx06f5kKcXk0ncFMhbh8ms5hpkJcXk1nMVMhLr+m85ipEJdn05nMVIhtrubybDqZmQrpe/bd3y9Kzxem0lx/7Qe9xQHEDCYG9ZsY1m9iq34T2/Wb2KnfxG79JvbqN7Ffv4m1zF6XjQbi22kgwJ0GItxpIMSdBmLcaSDInQai3GkgzJ0G4nzQQJwPmsjjDcT5oIE4H1SL89JjHPWWVYtzHhlM0KPBZoIeDDYT9FiwmaCnXDYT9IzLZoKecNlM0PMtmwl6umUzUbCs4rPRQHwXLKv4bDQQ4QXLKj4bDcR4wbKKz0YDUV6wrOKz0UCcFyyr+Gw0kccbiPOCZRWfjWpxXnpalt6yanGcFoMJejTYTNCDwWaCHgs2E/SUy2aCnnHZTNATLpsJer5lM0HvjWIzUbAhkM8GvaOKzwa92YrPBr0Pi88GvUWLzwa9L5HPBr1lkc8GvZuRzwa90ZHPRgNxXrCs4rPRRB5vIJEXLKv4bFRL5aWHkugtqxanljCYoEeDzQQ9GGwm6LFgM0Evq9hM0MsqNhP0sorNBL2sYjNBT7dsJgqWVXw26GUVnw16WcVng15W8dmgl1V8NuhlFZ8NelnFZ4NeVvHZoJdVfDYaiPOCZRWfjSbyeAOJvGBZxWejWiovrf2ut6xaFIdnMEGPBpsJejDYTNBjwWaCXlaxmaCXVWwm6GUVmwl6WcVmgp5u2UwULKv4bNDLKj4b9LKKzwa9rOKzQS+r+GzQyyo+G/Syis8Gvazis0Evq/hsNBDnBcsqPhtN5PEGEnnBsorPRrVUXlpiV29ZtajBy2CCHg02E/RgsJmgx4LNBL2sYjNBL6vYTNDLKjYT9LKKzQQ93bKZKFhW8dmgl1V8NuhlFZ8NelnFZ4NeVvHZoJdVfDboZRWfDXpZxWeDXlbx2WggzguWVXw2msjjDSTygmUVn41qqby0kqHesmpR6pDBBD0abCbowWAzQY8Fmwl6WcVmgl5WsZmgl1VsJuhlFZuJorpTTCYKi61x2SiqVsVlo6iQFZeNohpXXDaKyl9x2Siq+cZlo6gcHJeNokpxXDaKishx2WggzguWVXw2msjjDSTygmUVn43yVP5Rp8LrsoizOBShvFkVkM3rxraT63EnrwBbWip2VQk6kemP0Sz0kvZ2vyMcZ7sjhur/Btt65WZvM4y7Ateed+SmchzF81e3frKopHz3/BrlpjOBd7En4/czVdhY+0bFMV/n+FW6ySyWCwxVm3nZ7zWX+kYzmtGMZjSjGc1oRjOa0YxmNKMZzWhGM5rRjGY0oxnNaEYzmtGMZjSjGc1oRjOa0YxmNKMZzWhGM5rRjGY0oxnNaEYzmtGMZjSjGc1oRvOzap73omsZx74nf3XVi7VOr2/5vqp6NTZZfzX2RMa+TJav17Y6qxeIp0GU9gI/lKWvyCaPvadb/mZt0suPnp9GgZv6UZhBtZJUTrvn8iKKZUvvzee3cixDb/2BFp+1d/odMVRvLvfVi8zqn1YgL1IFViK9ku2djWV6HKaqfzITF7NwlJO2N8SfJRIrQnl392npu9zq8i9EO534SS/JR0XPkLru3dTL+u/YHU3afwGbqq3w1avjGftS92waJb4SfJ19rPM0q0vJPEIVRzdmSCssP/Skioeu0zG8e3VdVr3xwpeB8rf2sk8XcTKOo9lUeuL778U/lp/f9s4mbrJ8/10F2Mb91vmjrVmH9Nzx+I2y0QtkOE4n4qUYiH+L1qsgaImD9W8kgT+S7a6zcdr/uFEabw+eJIpF+zJ7lP4P4jIzs3TVpV312T+zGcd8gNSl3Hipd3r5sfdJzsXh4eGi86op5qrLYb80fdTVdR5L91OVmz8b3mP6fdVfy6c7VG6tnGHpKXkhh96ZmyT+OJTekSoRkZzmPfmxWleuBno6SybtqmORDenBYjyrR1IQHOg8ZU99s6qVJI2jT1LPzuK7VS1FU3fkp3M9U8svV36q3MTKVFWV1USyPq1UCQ/jyUdd/397Z9ucNq7F8ff3U+h6ZzZkLhAMgTxss3dSQprOtE0npLOzzXQyAgtwYmyPJSdhdvLdr2VMFpK6SH5oy96/XoTUsv76ST7nSK3cw8KdVwMPqRFTV03H3dRZH6vxqqp0/+O6PYUsOzvk46dL8uf5pwvSP7+4fPvhDXl3/uZtl5z1LnpqAqdR1GYPVG7RiPAI9wJB3HAa2cGQxClNOKF8GG1ebHesoLiYe6mztDLTKhmoB5eAiTBwiU8Dzk4dj4oKlSF/O3qUS9cG8TWlyVy/RVvqNhnCOuHHcjO9PO0/Y3ePnb2yZbERDR1B/MCLYhjbqpKtX/b3u91eb6vkxDPAAQ5wgAMc4AAHOMABDnCA88/EITycRn8FJhaTF4lFZ5IoYBZoQAMa0IAGNKABDWhAAxrQgObbNPfxq1nPaAZOyIADHOAABzjAAQ5wgAMc4AAHOFlwnr430JTfG9gP0743sGXGJ2zHx7u7BwcgBSlIQQpSkIIUpCAFKUhBClKQgnQzSJsxKRVppI2YtNVqNvc7IAUpSEEKUpCCFKQgBSlIQQpSkIJ0M0hbkvQ0sFNImwcxqWnu7bVaIAUpSEEKUpCCFKQgBSlIQQpSkIJ0M0h3JenlJEwj3Y9JD6LSfg1SkIIUpCAFKUhBClKQghSkIAUpSDeDtC1J/2BWGuleTHpy0u3u7YEUpCAFKUhBClKQghSkIAUpSEEK0s0g7cT/MhGyNNJOTNrtdjogBSlIQQpSkIIUpCAFKUhBClKQgnRTSPck6XsvLbNgsx2T7u83m+02SEEKUpCCFKQgBSlIQQpSkIIUpCD9bqQLFCug95W1Yg91YQuH9SfUZ3XBHkRl68wLA74eY/ay5Yk9ZS63PddhPFZYI7GzQ44ti1ASK5F7W0wI96aMWK01LfnduE59n7lWxZB9G9trGixKnQoRVIwHo0o6Dc1Gs6hRU70RFzOHzfFq1B1OvCBqbzhspEGbaIw8V9TumT2eCKkx8BxLXWP+bPp+7bPnshZ5HTq3pC+8gI4Z6c94bZecOkHNJP3hpHZMzj46w6moMcoF+fyBfOh1X8u7BJuSXfKx/5mcD4fy1q3tbz3dVzt8GNi++D31nlc7ln339erUNulikRaxrSNjKE2/G80WtV0WXLd2DRJP4ZFh2dx36OzQdp2oqjZwvOHtb0Y6XyQ6HwIRMz9qL2dx54be0fnVb7aU5Y4G0krJEbHsqe+wusvu+3fjivHLS8Yq2W004h9rvU7KWlTQSPfqL8OhA+YYh4bFRjR0BPEDb2Q7zKjOa64fjEOz3qgad9QJmXHYOagfLJX9g6oxlKEqUoiiT7fb6xmPVSXVZimqrVJUd0tRbZei2ilFda8U1f1SVA9KUTUb5ciW411mOe5lluNfZjkOZpbjYWY5LmaW42NmOU5mluNlzXK8rFnSGlaOlzXL8bJmDi8jPJxOV779O8MOIWCWhqji3OqJKs6snqjivOqJKsYuPVHFyKUnqhi39EQVo5aeqGLM0hNV3RhoqpbiU6rbAk3VUrxKdVOgqVqKX6luCTRVS/Es1Q2BpmopvqW6HdBULWe9KsW3VPcCmqpZfevedkXebcBA3qCuqjitmqqK06qpqjitmqqKIUtTVTFkaaoqhixNVcWQpamqGLI0VVX3A7qy5XiX6o5AV7Yc/1LdE+jKluNhqrsCXdlyfEx1X6ArW46Xqe4MdGVLWsPK8TLVzYGurJaXfVE5cEiOFMkRcdn94jwjPsao8LtxNT6QWHtysTiX5Ey89kLX4pV2o0pMs10lLflbs612+vEQYTwdt1pWlwo29oLZ8YPN5+d6T1OhcPgZCZwHFgsuQnnMptxQcsxWOd4zysOAzTHkSWHyCPIe58bnSKtd9VlgM57gRj0lD8R3PFGXh1tru+RfG/d6Ul6P7c73HCpsz42gDC6YXxuwkRcwQ82S3rExc63VAc2vVTqRFbSkJcjDMFP+SE5L1x4kL2Tr12Mmeq6Q8xN1MQrdYUxa2SZ/KRyXSkL21PpqrW/IYo9IRUxsHtm1bKfWkSxLjerR/PXocFL5G1hXbYGfnA0mute+x20peBJdVhnNokiZr1AF3r0e0gLLdi0mHbdmVjVbL8pN1oYjmznS3irJnM79ZBx4oc8s8uuv5N/J9Yf69YTyJJ5IB9terp19tTaakDodj09lH3WHuWMxIa9Ik/yXGMeOY5DD1Tu4Yw9ZpWZuXzW+bK/1txcj8QJSuYmG0viN3ETdJKaa9Cuv/eeImPoPSBZpxone1c2X+i2LwtvR0XzysinGqsljv9Ed6qIMAkZvszR+1Gyje7+cr2R0R9KspTEklhIvjPXr+atAzIpfBuJX8Ux+yTaViwfth3xSyfosokd6OH+e2T3JcQ5VRlmXd2bthYvAu2Vq/czvzdqT59OhLWZqXSU3Zx5V3MWiq6wqi0CyGlayuId28JFl4c6rgYfUiKmrpuNu6qyP1XhVVbr/cd2eQpadHfLx0yX58/zTBemfX1y+/fCGvDt/87ZLznoXPTWB0yhqswcqt2hEeIR70UbaDaeRHQxJvEXkhPJhtHmx3bGC4mLupc7SykyrZKAeXAImwsAlPg04O3U8KipUhvzt6FEuXRvE15Qmc/0WbanbZAjrhB9/wCubzw5gk/cy5YHqD3mDFDjAAQ5wgAMc4AAHOMABDnA2HuflCy6SKGAWaEADGtCABjSgAQ1oQAMa0IDm2zQvXgmUNPIVP+AABzjAAQ5wgAMc4AAHOMABzg9MlHjJpj4LqAgDRiqn20iV+FOlSvyDSos7Y/HH8XRgM1cQ+chk3kNmhdH818he43QzUiC2NyAFYvu7pUCM/+Np1hRMBem0CtLZLUinXZBOpyCdvYJ09gvSOShIZyW3QC6hoizaLMqkzaJs2izKqM2irNosyqzNouzaLMqwzaIsu1mUZTcLi9VFWXazKMtualm2esq+FansSfpyyKTOUPZEfDlkUv0+e7K9HDKpPp89oV4OmVR/z5E0L49OQXacvozlSIWXR6cgU05fw3IkuMujU5A1py9gOdLW5YmDBdlz+uqVIxldHp2C7Dl96cqeYm5FJkdSuTw6qdOTI3FcHp1Ud8+RHC6PTqq750gAl0cn1d3zJHnLJVSURaevYHlSt+USKsqo0xexPAnZcgkVZdfp61ieNGu5ImNRlp2+lOVJnpZLqCjLTl/NkBJtI1KioRrVqEY1qlGNalSjGtWoRjWqUY1qVKP6Z6qe1b07FgS2xd5T+Q9VZr2BlPhLI0FK/KeClPhaBSnxkRJfoyAl/vOClPjPC1LiaxakxEdK/K8WpMQHDnCAAxzgAAc4wAEOcIADHOBsQkJJ0IAGNKABDWhAAxrQgAY0oNkcmv+bRJbAAQ5wgAMc4AAHOMABDnCAk72/H5AS/8SeMpfbnuswzpEQ/+dKiO8Ft6Q3GtlDm7nD2VMa/O+bAD+5+1nN8p8Xv88/n9STX54+Bp41k58TMXV+/9f/AMN5g88="
               },
               {
                  "name" : "annual_peak_electric_demand",
                  "units" : "kW",
                  "value" : 108.69356000000001
               },
               {
                  "name" : "first_year_capital_cost",
                  "units" : "$",
                  "value" : 0
               },
               {
                  "name" : "annual_utility_cost",
                  "units" : "$",
                  "value" : 0
               },
               {
                  "name" : "total_lifecycle_cost",
                  "units" : "$",
                  "value" : 0
               }
            ],
            "step_warnings" : []
         }
      }
   ],
   "updated_at" : "20170710T190400Z",
   "weather_file" : "USA_CO_Denver.Intl.AP.725650_TMY3.epw"
}
