{
   "completed_at" : "20170710T182616Z",
   "completed_status" : "Success",
   "created_at" : "2017-07-10 18:24:12 +0000",
   "current_step" : 5,
   "description" : "",
   "eplusout_err" : "Program Version,EnergyPlus, Version 8.7.0-78a111df4a, YMD=2017.07.10 18:25,IDD_Version 8.7.0\n   ************* Beginning Zone Sizing Calculations\n   ** Warning ** ProcessScheduleInput: Schedule:Day:Interval=\"ECONOMIZER MAX OA FRACTION 100 PCT DEFAULT\", Blank Schedule Type Limits Name input -- will not be validated.\n   ** Warning ** ProcessScheduleInput: Schedule:Day:Interval=\"SCHEDULE DAY 1\", Blank Schedule Type Limits Name input -- will not be validated.\n   ** Warning ** ProcessScheduleInput: Schedule:Day:Interval=\"SCHEDULE DAY 10\", Blank Schedule Type Limits Name input -- will not be validated.\n   ** Warning ** ProcessScheduleInput: Schedule:Day:Interval=\"SCHEDULE DAY 11\", Blank Schedule Type Limits Name input -- will not be validated.\n   ** Warning ** ProcessScheduleInput: Schedule:Day:Interval=\"SCHEDULE DAY 12\", Blank Schedule Type Limits Name input -- will not be validated.\n   ** Warning ** ProcessScheduleInput: Schedule:Day:Interval=\"SCHEDULE DAY 13\", Blank Schedule Type Limits Name input -- will not be validated.\n   ** Warning ** ProcessScheduleInput: Schedule:Day:Interval=\"SCHEDULE DAY 14\", Blank Schedule Type Limits Name input -- will not be validated.\n   ** Warning ** ProcessScheduleInput: Schedule:Day:Interval=\"SCHEDULE DAY 15\", Blank Schedule Type Limits Name input -- will not be validated.\n   ** Warning ** ProcessScheduleInput: Schedule:Day:Interval=\"SCHEDULE DAY 16\", Blank Schedule Type Limits Name input -- will not be validated.\n   ** Warning ** ProcessScheduleInput: Schedule:Day:Interval=\"SCHEDULE DAY 17\", Blank Schedule Type Limits Name input -- will not be validated.\n   ** Warning ** ProcessScheduleInput: Schedule:Day:Interval=\"SCHEDULE DAY 18\", Blank Schedule Type Limits Name input -- will not be validated.\n   ** Warning ** ProcessScheduleInput: Schedule:Day:Interval=\"SCHEDULE DAY 19\", Blank Schedule Type Limits Name input -- will not be validated.\n   ** Warning ** ProcessScheduleInput: Schedule:Day:Interval=\"SCHEDULE DAY 2\", Blank Schedule Type Limits Name input -- will not be validated.\n   ** Warning ** ProcessScheduleInput: Schedule:Day:Interval=\"SCHEDULE DAY 5\", Blank Schedule Type Limits Name input -- will not be validated.\n   ** Warning ** ProcessScheduleInput: Schedule:Day:Interval=\"SCHEDULE DAY 6\", Blank Schedule Type Limits Name input -- will not be validated.\n   ** Warning ** ProcessScheduleInput: Schedule:Day:Interval=\"SCHEDULE DAY 7\", Blank Schedule Type Limits Name input -- will not be validated.\n   ** Warning ** ProcessScheduleInput: Schedule:Day:Interval=\"SCHEDULE DAY 8\", Blank Schedule Type Limits Name input -- will not be validated.\n   ** Warning ** ProcessScheduleInput: Schedule:Day:Interval=\"SCHEDULE DAY 9\", Blank Schedule Type Limits Name input -- will not be validated.\n   ** Warning ** ProcessScheduleInput: Schedule:Year=\"ECONOMIZER MAX OA FRACTION 100 PCT\", Blank Schedule Type Limits Name input -- will not be validated.\n   ** Warning ** ProcessScheduleInput: Schedule:Year=\"SCHEDULE RULESET 10\", Blank Schedule Type Limits Name input -- will not be validated.\n   ** Warning ** ProcessScheduleInput: Schedule:Year=\"SCHEDULE RULESET 11\", Blank Schedule Type Limits Name input -- will not be validated.\n   ** Warning ** ProcessScheduleInput: Schedule:Year=\"SCHEDULE RULESET 3\", Blank Schedule Type Limits Name input -- will not be validated.\n   ** Warning ** ProcessScheduleInput: Schedule:Year=\"SCHEDULE RULESET 4\", Blank Schedule Type Limits Name input -- will not be validated.\n   ** Warning ** ProcessScheduleInput: Schedule:Year=\"SCHEDULE RULESET 5\", Blank Schedule Type Limits Name input -- will not be validated.\n   ** Warning ** ProcessScheduleInput: Schedule:Year=\"SCHEDULE RULESET 6\", Blank Schedule Type Limits Name input -- will not be validated.\n   ** Warning ** ProcessScheduleInput: Schedule:Year=\"SCHEDULE RULESET 7\", Blank Schedule Type Limits Name input -- will not be validated.\n   ** Warning ** ProcessScheduleInput: Schedule:Year=\"SCHEDULE RULESET 8\", Blank Schedule Type Limits Name input -- will not be validated.\n   ** Warning ** ProcessScheduleInput: Schedule:Year=\"SCHEDULE RULESET 9\", Blank Schedule Type Limits Name input -- will not be validated.\n   ** Warning ** ProcessScheduleInput: Schedule:Constant=\"ALWAYS OFF DISCRETE\", Blank Schedule Type Limits Name input -- will not be validated.\n   ** Warning ** ProcessScheduleInput: Schedule:Constant=\"ALWAYS ON CONTINUOUS\", Blank Schedule Type Limits Name input -- will not be validated.\n   ** Warning ** CheckUsedConstructions: There are 22 nominally unused constructions in input.\n   **   ~~~   ** For explicit details on each unused construction, use Output:Diagnostics,DisplayExtraWarnings;\n   ************* Beginning System Sizing Calculations\n   ************* Beginning Plant Sizing Calculations\n   ** Warning ** GetDXCoils: Coil:Cooling:DX:SingleSpeed=\"COIL COOLING DX SINGLE SPEED 1 35KBTU/HR 14.0SEER\", invalid\n   **   ~~~   ** ...Part Load Fraction Correlation Curve Name = DXCOOL-NECB2011-REF-COOLPLFFPLR has out of range value.\n   **   ~~~   ** ...Curve maximum must be <= 1.0, curve max at PLR = 0.99 is 1.015\n   **   ~~~   ** ...Setting curve maximum to 1.0 and simulation continues.\n   ** Warning ** GetDXCoils: Coil:Cooling:DX:SingleSpeed=\"COIL COOLING DX SINGLE SPEED 3 180KBTU/HR 9.7EER\", invalid\n   **   ~~~   ** ...Part Load Fraction Correlation Curve Name = DXCOOL-NECB2011-REF-COOLPLFFPLR 2 has out of range value.\n   **   ~~~   ** ...Curve maximum must be <= 1.0, curve max at PLR = 0.99 is 1.015\n   **   ~~~   ** ...Setting curve maximum to 1.0 and simulation continues.\n   ** Warning ** GetDXCoils: Coil:Cooling:DX:SingleSpeed=\"COIL COOLING DX SINGLE SPEED 2 419KBTU/HR 8.21EER\", invalid\n   **   ~~~   ** ...Part Load Fraction Correlation Curve Name = DXCOOL-NECB2011-REF-COOLPLFFPLR 1 has out of range value.\n   **   ~~~   ** ...Curve maximum must be <= 1.0, curve max at PLR = 0.99 is 1.015\n   **   ~~~   ** ...Setting curve maximum to 1.0 and simulation continues.\n   ** Warning ** The Standard Ratings is calculated for Coil:Cooling:DX:SingleSpeed = COIL COOLING DX SINGLE SPEED 1 35KBTU/HR 14.0SEER but not at the AHRI test condition due to curve out of bound.\n   **   ~~~   **  Review the Standard Ratings calculations in the Engineering Reference for this coil type. Also, use Output:Diagnostics, DisplayExtraWarnings for further guidance.\n   ** Warning ** The Standard Ratings is calculated for Coil:Cooling:DX:SingleSpeed = COIL COOLING DX SINGLE SPEED 3 180KBTU/HR 9.7EER but not at the AHRI test condition due to curve out of bound.\n   **   ~~~   **  Review the Standard Ratings calculations in the Engineering Reference for this coil type. Also, use Output:Diagnostics, DisplayExtraWarnings for further guidance.\n   ** Warning ** The Standard Ratings is calculated for Coil:Cooling:DX:SingleSpeed = COIL COOLING DX SINGLE SPEED 2 419KBTU/HR 8.21EER but not at the AHRI test condition due to curve out of bound.\n   **   ~~~   **  Review the Standard Ratings calculations in the Engineering Reference for this coil type. Also, use Output:Diagnostics, DisplayExtraWarnings for further guidance.\n   ** Warning ** Check input. Pump nominal power or motor efficiency is set to 0, for pump=SERVICE WATER LOOP PUMP\n   ** Warning ** Output:Meter: invalid Name=\"DISTRICTCOOLING:FACILITY\" - not found.\n   ** Warning ** Output:Meter: invalid Name=\"DISTRICTHEATING:FACILITY\" - not found.\n   ** Warning ** Output:Meter:MeterFileOnly requested for \"Electricity:Facility\" (TimeStep), already on \"Output:Meter\". Will report to both eplusout.eso and eplusout.mtr\n   ************* Testing Individual Branch Integrity\n   ************* All Branches passed integrity testing\n   ************* Testing Individual Supply Air Path Integrity\n   ************* All Supply Air Paths passed integrity testing\n   ************* Testing Individual Return Air Path Integrity\n   ************* All Return Air Paths passed integrity testing\n   ************* No node connection errors were found.\n   ************* Beginning Simulation\n   ** Warning ** CalcDoe2DXCoil: Coil:Cooling:DX:SingleSpeed \"COIL COOLING DX SINGLE SPEED 1 35KBTU/HR 14.0SEER\" - Air-cooled condenser inlet dry-bulb temperature below 0 C. Outdoor dry-bulb temperature = -1.93\n   **   ~~~   **  ... Occurrence info = RUN PERIOD 1, 01/03 06:03 - 06:05\n   **   ~~~   ** ... Operation at low ambient temperatures may require special performance curves.\n   ** Warning ** CalcDoe2DXCoil: Coil:Cooling:DX:SingleSpeed \"COIL COOLING DX SINGLE SPEED 1 35KBTU/HR 14.0SEER\" - Full load outlet air dry-bulb temperature < 2C. This indicates the possibility of coil frost/freeze. Outlet temperature = 0.88 C.\n   **   ~~~   **  ...Occurrence info = RUN PERIOD 1, 02/08 14:15 - 14:30\n   **   ~~~   ** ... Possible reasons for low outlet air dry-bulb temperatures are: This DX coil\n   **   ~~~   **    1) may have a low inlet air dry-bulb temperature. Inlet air temperature = 16.463 C.\n   **   ~~~   **    2) may have a low air flow rate per watt of cooling capacity. Check inputs.\n   **   ~~~   **    3) is used as part of a HX assisted cooling coil which uses a high sensible effectiveness. Check inputs.\n   ************* Simulation Error Summary *************\n   ************* There are 9 unused schedules in input.\n   ************* There are 9 unused week schedules in input.\n   ************* There are 18 unused day schedules in input.\n   ************* Use Output:Diagnostics,DisplayUnusedSchedules; to see them.\n   *************\n   ************* ===== Recurring Error Summary =====\n   ************* The following recurring error messages occurred.\n   *************\n   *************  ** Warning ** CalcDoe2DXCoil: Coil:Cooling:DX:SingleSpeed=\"COIL COOLING DX SINGLE SPEED 1 35KBTU/HR 14.0SEER\" - Low condenser dry-bulb temperature error continues...\n   *************  **   ~~~   **   This error occurred 233 total times;\n   *************  **   ~~~   **   during Warmup 0 times;\n   *************  **   ~~~   **   during Sizing 0 times.\n   *************  **   ~~~   **   Max=-5.000000E-002 [C]  Min=-20. [C]\n   *************\n   *************  ** Warning ** CalcDoe2DXCoil: Coil:Cooling:DX:SingleSpeed=\"COIL COOLING DX SINGLE SPEED 1 35KBTU/HR 14.0SEER\" - Full load outlet temperature indicates a possibility of frost/freeze error continues. Outlet air temperature statistics follow:\n   *************  **   ~~~   **   This error occurred 6 total times;\n   *************  **   ~~~   **   during Warmup 0 times;\n   *************  **   ~~~   **   during Sizing 0 times.\n   *************  **   ~~~   **   Max=1.998676  Min=0.879371\n   *************\n   *************\n   ************* ===== Final Error Summary =====\n   ************* The following error categories occurred.  Consider correcting or noting.\n   ************* Nominally Unused Constructions\n   ************* ..The nominally unused constructions warning is provided to alert you to potential conditions that can cause\n   ************* ..extra time during simulation. Each construction is calculated by the algorithm indicated in the HeatBalanceAlgorithm\n   ************* ..object. You may remove the constructions indicated (when you use the DisplayExtraWarnings option).\n   *************\n   ************* EnergyPlus Warmup Error Summary. During Warmup: 0 Warning; 0 Severe Errors.\n   ************* EnergyPlus Sizing Error Summary. During Sizing: 31 Warning; 0 Severe Errors.\n   ************* EnergyPlus Completed Successfully-- 280 Warning; 0 Severe Errors; Elapsed Time=00hr 00min 36.86sec\n",
   "file_format_version" : "0.0.1",
   "file_paths" : [ "../weather", "../seeds", "../seed" ],
   "hash" : "D41D9706",
   "measure_paths" : [ "../measures" ],
   "name" : "LHS Autogenerated 89",
   "osa_id" : "4fef0e0f-5396-4c55-a6e1-2cd6803db3ab",
   "osd_id" : "056eb439-93fb-4227-95d0-f977718fdbce",
   "run_directory" : "./run",
   "seed_file" : "seed.osm",
   "started_at" : "20170710T182419Z",
   "steps" : [
      {
         "arguments" : {
            "__SKIP__" : false,
            "building_type" : "Warehouse",
            "climate_zone" : "NECB HDD Method",
            "epw_file" : "CAN_ON_London.716230_CWEC.epw",
            "template" : "NECB 2011"
         },
         "measure_dir_name" : "create_prototype_building",
         "name" : "create_prototype_building",
         "result" : {
            "completed_at" : "20170710T182512Z",
            "measure_class_name" : "CreatePrototypeBuilding",
            "measure_display_name" : "Create Prototype Building",
            "measure_name" : "create_prototype_building",
            "measure_taxonomy" : "Whole Building.Space Types",
            "measure_type" : "ModelMeasure",
            "measure_uid" : "ae90fsd7-a651-467a-bc8d-29d310b0f937",
            "measure_version_id" : "c6ec5c18-5595-459f-a082-09a19c8c869c",
            "measure_version_modified" : "20170519T182315Z",
            "measure_xml_checksum" : "057E8D9D",
            "started_at" : "20170710T182421Z",
            "stderr" : "",
            "stdout" : "[OpenStudio.Measure] <0> OSArgumentVector is deprecated, use OpenStudio::Measure::OSArgumentVector instead.\n[openstudio.EpwFile] <0> Successive data points (1962-Jan-31 to 1988-Feb-01, ending on line 753) are greater than 1 day apart in EPW file '/usr/local/bundle/bundler/gems/openstudio-standards-f448df66933d/openstudio-standards/data/weather/CAN_ON_London.716230_CWEC.epw'. Data will be treated as typical (TMY)\n[openstudio.setFileExtension] <0> Path p, '/usr/local/bundle/bundler/gems/openstudio-standards-f448df66933d/openstudio-standards/data/weather/CAN_ON_London.716230_CWEC.ddy', has an unexpected file extension. Was expecting 'idf'.\n[openstudio.model.YearDescription] <1> 'UseWeatherFile' is not yet a supported option for YearDescription\n[openstudio.model.YearDescription] <1> 'UseWeatherFile' is not yet a supported option for YearDescription\n[openstudio.setFileExtension] <0> Path p, '/usr/local/bundle/bundler/gems/openstudio-standards-f448df66933d/openstudio-standards/data/weather/CAN_ON_London.716230_CWEC.ddy', has an unexpected file extension. Was expecting 'idf'.\n[openstudio.model.YearDescription] <1> 'UseWeatherFile' is not yet a supported option for YearDescription\n[openstudio.model.YearDescription] <1> 'UseWeatherFile' is not yet a supported option for YearDescription\n[openstudio.EpwFile] <0> Successive data points (1962-Jan-31 to 1988-Feb-01, ending on line 753) are greater than 1 day apart in EPW file '/usr/local/bundle/bundler/gems/openstudio-standards-f448df66933d/openstudio-standards/data/weather/CAN_ON_London.716230_CWEC.epw'. Data will be treated as typical (TMY)\n[openstudio.weather.Model] <0> Could not find ground temperatures; will use generic temperatures, which will skew results.\n[openstudio.setFileExtension] <0> Path p, '/usr/local/bundle/bundler/gems/openstudio-standards-f448df66933d/openstudio-standards/data/weather/CAN_ON_London.716230_CWEC.ddy', has an unexpected file extension. Was expecting 'idf'.\n[openstudio.model.YearDescription] <1> 'UseWeatherFile' is not yet a supported option for YearDescription\n[openstudio.model.YearDescription] <1> 'UseWeatherFile' is not yet a supported option for YearDescription\n[openstudio.EpwFile] <0> Successive data points (1962-Jan-31 to 1988-Feb-01, ending on line 753) are greater than 1 day apart in EPW file '/usr/local/bundle/bundler/gems/openstudio-standards-f448df66933d/openstudio-standards/data/weather/CAN_ON_London.716230_CWEC.epw'. Data will be treated as typical (TMY)\n[openstudio.setFileExtension] <0> Path p, '/usr/local/bundle/bundler/gems/openstudio-standards-f448df66933d/openstudio-standards/data/weather/CAN_ON_London.716230_CWEC.ddy', has an unexpected file extension. Was expecting 'idf'.\n[openstudio.model.YearDescription] <1> 'UseWeatherFile' is not yet a supported option for YearDescription\n[openstudio.model.YearDescription] <1> 'UseWeatherFile' is not yet a supported option for YearDescription\n[openstudio.setFileExtension] <0> Path p, '/usr/local/bundle/bundler/gems/openstudio-standards-f448df66933d/openstudio-standards/data/weather/CAN_ON_London.716230_CWEC.ddy', has an unexpected file extension. Was expecting 'idf'.\n[openstudio.model.YearDescription] <1> 'UseWeatherFile' is not yet a supported option for YearDescription\n[openstudio.model.YearDescription] <1> 'UseWeatherFile' is not yet a supported option for YearDescription\n[openstudio.EpwFile] <0> Successive data points (1962-Jan-31 to 1988-Feb-01, ending on line 753) are greater than 1 day apart in EPW file '/usr/local/bundle/bundler/gems/openstudio-standards-f448df66933d/openstudio-standards/data/weather/CAN_ON_London.716230_CWEC.epw'. Data will be treated as typical (TMY)\n[openstudio.setFileExtension] <0> Path p, '/usr/local/bundle/bundler/gems/openstudio-standards-f448df66933d/openstudio-standards/data/weather/CAN_ON_London.716230_CWEC.ddy', has an unexpected file extension. Was expecting 'idf'.\n[openstudio.model.YearDescription] <1> 'UseWeatherFile' is not yet a supported option for YearDescription\n[openstudio.model.YearDescription] <1> 'UseWeatherFile' is not yet a supported option for YearDescription\n[openstudio.setFileExtension] <0> Path p, '/usr/local/bundle/bundler/gems/openstudio-standards-f448df66933d/openstudio-standards/data/weather/CAN_ON_London.716230_CWEC.ddy', has an unexpected file extension. Was expecting 'idf'.\n[openstudio.model.YearDescription] <1> 'UseWeatherFile' is not yet a supported option for YearDescription\n[openstudio.model.YearDescription] <1> 'UseWeatherFile' is not yet a supported option for YearDescription\n[utilities.idf.WorkspaceObject] <0> Object of type 'Schedule:Constant' and named 'Always Off Discrete', points to an object named OnOff 1 from field 1, but that object cannot be located.\n[utilities.idf.WorkspaceObject] <0> Object of type 'Schedule:Constant' and named 'Always On Continuous', points to an object named Fractional 1 from field 1, but that object cannot be located.\n[utilities.idf.WorkspaceObject] <0> Object of type 'Schedule:Constant' and named 'Always Off Discrete', points to an object named OnOff 1 from field 1, but that object cannot be located.\n[utilities.idf.WorkspaceObject] <0> Object of type 'Schedule:Constant' and named 'Always On Continuous', points to an object named Fractional 1 from field 1, but that object cannot be located.\n[openstudio.standards.Fan] <0> For Fan Constant Volume 1, there is no greater nominal HP.  Use the efficiency of the largest motor category.\n[openstudio.standards.Fan] <0> For Fan Constant Volume 2, there is no greater nominal HP.  Use the efficiency of the largest motor category.\n[openstudio.standards.Fan] <0> For Fan Constant Volume 3, there is no greater nominal HP.  Use the efficiency of the largest motor category.\n[openstudio.EpwFile] <0> Successive data points (1962-Jan-31 to 1988-Feb-01, ending on line 753) are greater than 1 day apart in EPW file '/usr/local/bundle/bundler/gems/openstudio-standards-f448df66933d/openstudio-standards/data/weather/CAN_ON_London.716230_CWEC.epw'. Data will be treated as typical (TMY)\n[openstudio.setFileExtension] <0> Path p, '/usr/local/bundle/bundler/gems/openstudio-standards-f448df66933d/openstudio-standards/data/weather/CAN_ON_London.716230_CWEC.ddy', has an unexpected file extension. Was expecting 'idf'.\n[openstudio.model.YearDescription] <1> 'UseWeatherFile' is not yet a supported option for YearDescription\n[openstudio.model.YearDescription] <1> 'UseWeatherFile' is not yet a supported option for YearDescription\n[openstudio.setFileExtension] <0> Path p, '/usr/local/bundle/bundler/gems/openstudio-standards-f448df66933d/openstudio-standards/data/weather/CAN_ON_London.716230_CWEC.ddy', has an unexpected file extension. Was expecting 'idf'.\n[openstudio.model.YearDescription] <1> 'UseWeatherFile' is not yet a supported option for YearDescription\n[openstudio.model.YearDescription] <1> 'UseWeatherFile' is not yet a supported option for YearDescription\n[openstudio.EpwFile] <0> Successive data points (1962-Jan-31 to 1988-Feb-01, ending on line 753) are greater than 1 day apart in EPW file '/usr/local/bundle/bundler/gems/openstudio-standards-f448df66933d/openstudio-standards/data/weather/CAN_ON_London.716230_CWEC.epw'. Data will be treated as typical (TMY)\n[openstudio.setFileExtension] <0> Path p, '/usr/local/bundle/bundler/gems/openstudio-standards-f448df66933d/openstudio-standards/data/weather/CAN_ON_London.716230_CWEC.ddy', has an unexpected file extension. Was expecting 'idf'.\n[openstudio.model.YearDescription] <1> 'UseWeatherFile' is not yet a supported option for YearDescription\n[openstudio.model.YearDescription] <1> 'UseWeatherFile' is not yet a supported option for YearDescription\n[openstudio.setFileExtension] <0> Path p, '/usr/local/bundle/bundler/gems/openstudio-standards-f448df66933d/openstudio-standards/data/weather/CAN_ON_London.716230_CWEC.ddy', has an unexpected file extension. Was expecting 'idf'.\n[openstudio.model.YearDescription] <1> 'UseWeatherFile' is not yet a supported option for YearDescription\n[openstudio.model.YearDescription] <1> 'UseWeatherFile' is not yet a supported option for YearDescription\n[openstudio.EpwFile] <0> Successive data points (1962-Jan-31 to 1988-Feb-01, ending on line 753) are greater than 1 day apart in EPW file '/usr/local/bundle/bundler/gems/openstudio-standards-f448df66933d/openstudio-standards/data/weather/CAN_ON_London.716230_CWEC.epw'. Data will be treated as typical (TMY)\n[openstudio.setFileExtension] <0> Path p, '/usr/local/bundle/bundler/gems/openstudio-standards-f448df66933d/openstudio-standards/data/weather/CAN_ON_London.716230_CWEC.ddy', has an unexpected file extension. Was expecting 'idf'.\n[openstudio.model.YearDescription] <1> 'UseWeatherFile' is not yet a supported option for YearDescription\n[openstudio.model.YearDescription] <1> 'UseWeatherFile' is not yet a supported option for YearDescription\n[openstudio.setFileExtension] <0> Path p, '/usr/local/bundle/bundler/gems/openstudio-standards-f448df66933d/openstudio-standards/data/weather/CAN_ON_London.716230_CWEC.ddy', has an unexpected file extension. Was expecting 'idf'.\n[openstudio.model.YearDescription] <1> 'UseWeatherFile' is not yet a supported option for YearDescription\n[openstudio.model.YearDescription] <1> 'UseWeatherFile' is not yet a supported option for YearDescription\n[openstudio.standards.Fan] <0> For Fan Constant Volume 1, there is no greater nominal HP.  Use the efficiency of the largest motor category.\n[openstudio.standards.Fan] <0> For Fan Constant Volume 2, there is no greater nominal HP.  Use the efficiency of the largest motor category.\n[openstudio.standards.Fan] <0> For Fan Constant Volume 3, there is no greater nominal HP.  Use the efficiency of the largest motor category.\n",
            "step_errors" : [],
            "step_files" : [],
            "step_info" : [
               "Started adding geometry",
               "Finished adding geometry",
               "Started adding weather file for climate zone: NECB HDD Method.",
               "Template =",
               "Setting Zone3 Bulk Storage to Space Function.Warehouse - med/blk",
               "Setting Zone2 Fine Storage to Space Function.Warehouse - fine",
               "Setting Zone1 Office to Space Function.Office - enclosed",
               "Started applying space types (loads)",
               "Space Function Office - enclosed had no people, one has been created.",
               "Space Function Office - enclosed set occupancy to 4.65 people/1000 ft^2.",
               "Space Function Office - enclosed had no lights, one has been created.",
               "Space Function Office - enclosed set LPD to 1.105536975 W/ft^2.",
               "Space Function Office - enclosed had no electric equipment, one has been created.",
               "Space Function Office - enclosed set electric EPD to 0.696767001 W/ft^2.",
               "Space Function Office - enclosed had no ventilation specification, one has been created.",
               "Space Function Office - enclosed set ventilation per area to 0.085 cfm/ft^2.",
               "Space Function Office - enclosed had no infiltration objects, one has been created.",
               "Space Function Office - enclosed set infiltration to 0.0 per ft^2 exterior surface area.",
               "Space Function Office - enclosed set occupancy schedule to NECB-A-Occupancy.",
               "Space Function Office - enclosed set occupant activity schedule to NECB-Activity.",
               "Space Function Office - enclosed set lighting schedule to NECB-A-Lighting.",
               "Space Function Office - enclosed set electric equipment schedule to NECB-A-Electric-Equipment.",
               "Space Function Office - enclosed set infiltration schedule to Always On.",
               "Space Function Office - enclosed set heating setpoint schedule to NECB-A-Thermostat Setpoint-Heating.",
               "Space Function Office - enclosed set cooling setpoint schedule to NECB-A-Thermostat Setpoint-Cooling.",
               "Space Function Warehouse - fine had no people, one has been created.",
               "Space Function Warehouse - fine set occupancy to 1.86 people/1000 ft^2.",
               "Space Function Warehouse - fine had no lights, one has been created.",
               "Space Function Warehouse - fine set LPD to 0.947603122 W/ft^2.",
               "Space Function Warehouse - fine had no electric equipment, one has been created.",
               "Space Function Warehouse - fine set electric EPD to 0.092902267 W/ft^2.",
               "Space Function Warehouse - fine had no ventilation specification, one has been created.",
               "Space Function Warehouse - fine set ventilation per area to 0.06 cfm/ft^2.",
               "Space Function Warehouse - fine had no infiltration objects, one has been created.",
               "Space Function Warehouse - fine set infiltration to 0.0 per ft^2 exterior surface area.",
               "Space Function Warehouse - fine set occupancy schedule to NECB-A-Occupancy.",
               "Space Function Warehouse - fine set occupant activity schedule to NECB-Activity.",
               "Space Function Warehouse - fine set lighting schedule to NECB-A-Lighting.",
               "Space Function Warehouse - fine set electric equipment schedule to NECB-A-Electric-Equipment.",
               "Space Function Warehouse - fine set infiltration schedule to Always On.",
               "Space Function Warehouse - fine set heating setpoint schedule to NECB-A-Thermostat Setpoint-Heating.",
               "Space Function Warehouse - fine set cooling setpoint schedule to NECB-A-Thermostat Setpoint-Cooling.",
               "Space Function Warehouse - med/blk had no people, one has been created.",
               "Space Function Warehouse - med/blk set occupancy to 0.93 people/1000 ft^2.",
               "Space Function Warehouse - med/blk had no lights, one has been created.",
               "Space Function Warehouse - med/blk set LPD to 0.594574508 W/ft^2.",
               "Space Function Warehouse - med/blk had no electric equipment, one has been created.",
               "Space Function Warehouse - med/blk set electric EPD to 0.092902267 W/ft^2.",
               "Space Function Warehouse - med/blk had no ventilation specification, one has been created.",
               "Space Function Warehouse - med/blk set ventilation per area to 0.06 cfm/ft^2.",
               "Space Function Warehouse - med/blk had no infiltration objects, one has been created.",
               "Space Function Warehouse - med/blk set infiltration to 0.0 per ft^2 exterior surface area.",
               "Space Function Warehouse - med/blk set occupancy schedule to NECB-A-Occupancy.",
               "Space Function Warehouse - med/blk set occupant activity schedule to NECB-Activity.",
               "Space Function Warehouse - med/blk set lighting schedule to NECB-A-Lighting.",
               "Space Function Warehouse - med/blk set electric equipment schedule to NECB-A-Electric-Equipment.",
               "Space Function Warehouse - med/blk set infiltration schedule to Always On.",
               "Space Function Warehouse - med/blk set heating setpoint schedule to NECB-A-Thermostat Setpoint-Heating.",
               "Space Function Warehouse - med/blk set cooling setpoint schedule to NECB-A-Thermostat Setpoint-Cooling.",
               "Finished applying space types (loads)",
               "Started applying constructions",
               "Adding construction set: NECB 2011-NECB HDD Method-Warehouse--is_residentialNo",
               "Adding construction Typical Insulated Exterior Mass Floor R-15.63.",
               "Adding construction Typical Insulated Exterior Mass Wall R-12.5.",
               "Adding construction Typical Insulated Metal Building Roof R-20.41.",
               "Adding construction Typical Interior Floor.",
               "Adding construction Typical Interior Wall.",
               "Adding construction Typical Interior Ceiling.",
               "Adding construction Typical Insulated Carpeted 6in Slab Floor.",
               "Adding construction U 0.55 SHGC 0.31 Dbl Ref-D Tint 6mm/6mm Air.",
               "Adding construction Typical Insulated Metal Door R-1.43.",
               "Adding construction U 0.35 SHGC 0.35 Dbl LoE (e2-.1) Tint 6mm/13mm Air.",
               "Adding construction Typical Overhead Door R-2.0.",
               "Adding construction U 0.48 SHGC 0.40 Dbl Ref-D Clr 6mm/13mm.",
               "Adding construction Typical Interior Window.",
               "Adding construction Typical Interior Door.",
               "Adding construction Typical Interior Partition.",
               "Finished applying constructions",
               "WWR NonRes = 0%; window = 0 ft2, wall = 0 ft2.",
               "WWR Res = 0%; window = 0 ft2, wall = 0 ft2.",
               "WWR Semiheated = 0%; window = 0 ft2, wall = 0 ft2.",
               "The skylight to roof ratios (SRRs) are: NonRes: 2%, Res: 0%.",
               "Started creating thermal zones",
               "Finished creating thermal zones",
               "Running simulation /mnt/openstudio/analysis_4fef0e0f-5396-4c55-a6e1-2cd6803db3ab/data_point_056eb439-93fb-4227-95d0-f977718fdbce/run/000_create_prototype_building/output/Warehouse-NECB 2011-NECB HDD Method-CAN_ON_London.716230_CWEC.epw/SR0.",
               "Finished run.",
               "Started Adding HVAC",
               "Finished adding HVAC",
               "Started Adding Service Water Heating",
               "Adding service water loop.",
               "Adding water heater.",
               "Template =",
               "Finished adding Service Water Heating",
               "Set sizing factors to 1.3 for heating and 1.3 for cooling.",
               "Running simulation /mnt/openstudio/analysis_4fef0e0f-5396-4c55-a6e1-2cd6803db3ab/data_point_056eb439-93fb-4227-95d0-f977718fdbce/run/000_create_prototype_building/output/Warehouse-NECB 2011-NECB HDD Method-CAN_ON_London.716230_CWEC.epw/SR1.",
               "Finished run.",
               "Started applying multizone vav OA sizing.",
               "Finished applying multizone vav OA sizing.",
               "Started applying prototype HVAC assumptions.",
               "For Fan Constant Volume 1: allowed_hp = 1.01HP; motor eff = 61.5%; total fan eff = 40% based on 1155 cfm.",
               "For Fan Constant Volume 2: allowed_hp = 9.16HP; motor eff = 61.5%; total fan eff = 40% based on 13396 cfm.",
               "For Fan Constant Volume 3: allowed_hp = 4.11HP; motor eff = 61.5%; total fan eff = 40% based on 6012 cfm.",
               "Sp-Zone3 Bulk Storage Sys-4 Flr-1 Sch-A HPlcmt-east ZN NECB System 4 PSZ requires an economizer because the total cooling capacity of 419145 Btu/hr exceeds the minimum capacity of 68243 Btu/hr.",
               "Sp-Zone1 Office Sys-3 Flr-1 Sch-A HPlcmt-south ZN NECB System 3 PSZ does not require an economizer because the total cooling capacity of 34524 Btu/hr is less than the minimum capacity of 68243 Btu/hr.",
               "Sp-Zone2 Fine Storage Sys-4 Flr-1 Sch-A HPlcmt-south ZN NECB System 4 PSZ requires an economizer because the total cooling capacity of 179935 Btu/hr exceeds the minimum capacity of 68243 Btu/hr.",
               "Finished applying prototype HVAC assumptions.",
               "Started applying HVAC efficiency standards.",
               "For Sp-Zone1 Office Sys-3 Flr-1 Sch-A HPlcmt-south ZN NECB System 3 PSZ, ERV not required based on 0% OA flow, design supply air flow of 1155cfm, and climate zone NECB HDD Method.",
               "For Sp-Zone1 Office Sys-3 Flr-1 Sch-A HPlcmt-south ZN NECB System 3 PSZ, ERV not required based on exhaust heat content.",
               "For NECB 2011 NECB HDD Method:  Sp-Zone1 Office Sys-3 Flr-1 Sch-A HPlcmt-south ZN NECB System 3 PSZ: DCV is not required for any system.",
               "For Sp-Zone1 Office Sys-3 Flr-1 Sch-A HPlcmt-south ZN NECB System 3 PSZ: Annual occupied hours = 2860 hr/yr, assuming a 0.15 occupancy threshold.  This schedule will be used as the HVAC operation schedule.",
               "For Sp-Zone1 Office Sys-3 Flr-1 Sch-A HPlcmt-south ZN NECB System 3 PSZ: Setting motorized OA damper schedule to Sp-Zone1 Office Sys-3 Flr-1 Sch-A HPlcmt-south ZN NECB System 3 PSZ Occ Sch.",
               "For Sp-Zone2 Fine Storage Sys-4 Flr-1 Sch-A HPlcmt-south ZN NECB System 4 PSZ, ERV not required based on 0% OA flow, design supply air flow of 6012cfm, and climate zone NECB HDD Method.",
               "For Sp-Zone2 Fine Storage Sys-4 Flr-1 Sch-A HPlcmt-south ZN NECB System 4 PSZ, ERV not required based on exhaust heat content.",
               "For NECB 2011 NECB HDD Method:  Sp-Zone2 Fine Storage Sys-4 Flr-1 Sch-A HPlcmt-south ZN NECB System 4 PSZ: DCV is not required for any system.",
               "For Sp-Zone2 Fine Storage Sys-4 Flr-1 Sch-A HPlcmt-south ZN NECB System 4 PSZ: Annual occupied hours = 2860 hr/yr, assuming a 0.15 occupancy threshold.  This schedule will be used as the HVAC operation schedule.",
               "For Sp-Zone2 Fine Storage Sys-4 Flr-1 Sch-A HPlcmt-south ZN NECB System 4 PSZ: Because the system has an economizer, it requires a motorized OA damper.",
               "For Sp-Zone2 Fine Storage Sys-4 Flr-1 Sch-A HPlcmt-south ZN NECB System 4 PSZ: Setting motorized OA damper schedule to Sp-Zone2 Fine Storage Sys-4 Flr-1 Sch-A HPlcmt-south ZN NECB System 4 PSZ Occ Sch.",
               "For Sp-Zone3 Bulk Storage Sys-4 Flr-1 Sch-A HPlcmt-east ZN NECB System 4 PSZ, ERV not required based on 0% OA flow, design supply air flow of 13396cfm, and climate zone NECB HDD Method.",
               "For Sp-Zone3 Bulk Storage Sys-4 Flr-1 Sch-A HPlcmt-east ZN NECB System 4 PSZ, ERV not required based on exhaust heat content.",
               "For NECB 2011 NECB HDD Method:  Sp-Zone3 Bulk Storage Sys-4 Flr-1 Sch-A HPlcmt-east ZN NECB System 4 PSZ: DCV is not required for any system.",
               "For Sp-Zone3 Bulk Storage Sys-4 Flr-1 Sch-A HPlcmt-east ZN NECB System 4 PSZ: Annual occupied hours = 2860 hr/yr, assuming a 0.15 occupancy threshold.  This schedule will be used as the HVAC operation schedule.",
               "For Sp-Zone3 Bulk Storage Sys-4 Flr-1 Sch-A HPlcmt-east ZN NECB System 4 PSZ: Because the system has an economizer, it requires a motorized OA damper.",
               "For Sp-Zone3 Bulk Storage Sys-4 Flr-1 Sch-A HPlcmt-east ZN NECB System 4 PSZ: Setting motorized OA damper schedule to Sp-Zone3 Bulk Storage Sys-4 Flr-1 Sch-A HPlcmt-east ZN NECB System 4 PSZ Occ Sch.",
               "For Fan Constant Volume 1: motor nameplate = 0.7196063869595479HP, motor eff = 61.5%.",
               "For Fan Constant Volume 2: motor nameplate = 8HP, motor eff = 61.5%.",
               "For Fan Constant Volume 3: motor nameplate = 4HP, motor eff = 61.5%.",
               "For Service Water Loop Pump: brake hp = 0.0HP, motor nameplate = 0.1HP, motor eff = 70.0%.",
               "For Pump Variable Speed 1: brake hp = 1.04HP, motor nameplate = 1.5HP, motor eff = 86.5%.",
               "For NECB 2011: Coil Cooling DX Single Speed 1: AirCooled All Other Single Package Capacity = 35kBtu/hr; SEER = 14.0",
               "For NECB 2011: Coil Cooling DX Single Speed 2: AirCooled All Other Single Package Capacity = 419kBtu/hr; EER = 8.21",
               "For NECB 2011: Coil Cooling DX Single Speed 3: AirCooled All Other Single Package Capacity = 180kBtu/hr; EER = 9.7",
               "For NECB 2011: Primary Boiler: Gas Hot Water Capacity = 387kBtu/hr; Thermal Efficiency = 0.83",
               "For NECB 2011: Secondary Boiler: Gas Hot Water Capacity = 387kBtu/hr; Thermal Efficiency = 0.83",
               "For NECB 2011: 40.0gal NaturalGas Water Heater - 40kBtu/hr 0.82 Therm Eff; thermal efficiency = 0.82, skin-loss UA = 6Btu/hr",
               "Finished applying HVAC efficiency standards.",
               "Started adding daylighting controls.",
               "Finished adding daylighting controls.",
               "Total Time = 50sec."
            ],
            "step_result" : "Success",
            "step_values" : [
               {
                  "name" : "building_type",
                  "value" : "Warehouse"
               },
               {
                  "name" : "template",
                  "value" : "NECB 2011"
               },
               {
                  "name" : "climate_zone",
                  "value" : "NECB HDD Method"
               },
               {
                  "name" : "epw_file",
                  "value" : "CAN_ON_London.716230_CWEC.epw"
               }
            ],
            "step_warnings" : [
               "[openstudio.EpwFile] Successive data points (1962-Jan-31 to 1988-Feb-01, ending on line 753) are greater than 1 day apart in EPW file '/usr/local/bundle/bundler/gems/openstudio-standards-f448df66933d/openstudio-standards/data/weather/CAN_ON_London.716230_CWEC.epw'. Data will be treated as typical (TMY)",
               "[openstudio.EpwFile] Successive data points (1962-Jan-31 to 1988-Feb-01, ending on line 753) are greater than 1 day apart in EPW file '/usr/local/bundle/bundler/gems/openstudio-standards-f448df66933d/openstudio-standards/data/weather/CAN_ON_London.716230_CWEC.epw'. Data will be treated as typical (TMY)",
               "[openstudio.weather.Model] Could not find ground temperatures; will use generic temperatures, which will skew results.",
               "[openstudio.EpwFile] Successive data points (1962-Jan-31 to 1988-Feb-01, ending on line 753) are greater than 1 day apart in EPW file '/usr/local/bundle/bundler/gems/openstudio-standards-f448df66933d/openstudio-standards/data/weather/CAN_ON_London.716230_CWEC.epw'. Data will be treated as typical (TMY)",
               "[openstudio.EpwFile] Successive data points (1962-Jan-31 to 1988-Feb-01, ending on line 753) are greater than 1 day apart in EPW file '/usr/local/bundle/bundler/gems/openstudio-standards-f448df66933d/openstudio-standards/data/weather/CAN_ON_London.716230_CWEC.epw'. Data will be treated as typical (TMY)",
               "[openstudio.standards.Fan] For Fan Constant Volume 1, there is no greater nominal HP.  Use the efficiency of the largest motor category.",
               "[openstudio.standards.Fan] For Fan Constant Volume 2, there is no greater nominal HP.  Use the efficiency of the largest motor category.",
               "[openstudio.standards.Fan] For Fan Constant Volume 3, there is no greater nominal HP.  Use the efficiency of the largest motor category.",
               "[openstudio.EpwFile] Successive data points (1962-Jan-31 to 1988-Feb-01, ending on line 753) are greater than 1 day apart in EPW file '/usr/local/bundle/bundler/gems/openstudio-standards-f448df66933d/openstudio-standards/data/weather/CAN_ON_London.716230_CWEC.epw'. Data will be treated as typical (TMY)",
               "[openstudio.EpwFile] Successive data points (1962-Jan-31 to 1988-Feb-01, ending on line 753) are greater than 1 day apart in EPW file '/usr/local/bundle/bundler/gems/openstudio-standards-f448df66933d/openstudio-standards/data/weather/CAN_ON_London.716230_CWEC.epw'. Data will be treated as typical (TMY)",
               "[openstudio.EpwFile] Successive data points (1962-Jan-31 to 1988-Feb-01, ending on line 753) are greater than 1 day apart in EPW file '/usr/local/bundle/bundler/gems/openstudio-standards-f448df66933d/openstudio-standards/data/weather/CAN_ON_London.716230_CWEC.epw'. Data will be treated as typical (TMY)",
               "[openstudio.standards.Fan] For Fan Constant Volume 1, there is no greater nominal HP.  Use the efficiency of the largest motor category.",
               "[openstudio.standards.Fan] For Fan Constant Volume 2, there is no greater nominal HP.  Use the efficiency of the largest motor category.",
               "[openstudio.standards.Fan] For Fan Constant Volume 3, there is no greater nominal HP.  Use the efficiency of the largest motor category."
            ]
         }
      },
      {
         "arguments" : {
            "__SKIP__" : false
         },
         "measure_dir_name" : "view_model",
         "name" : "view_model",
         "result" : {
            "completed_at" : "20170710T182513Z",
            "measure_class_name" : "ViewModel",
            "measure_display_name" : "ViewModel",
            "measure_name" : "view_model",
            "measure_taxonomy" : "Reporting.QAQC",
            "measure_type" : "ModelMeasure",
            "measure_uid" : "f4669f10-fda5-489d-8e1c-7ca3c2d40378",
            "measure_version_id" : "f4975c5f-7c25-42a2-927b-02d99b4427ef",
            "measure_version_modified" : "20170526T150340Z",
            "measure_xml_checksum" : "1E1F8B97",
            "started_at" : "20170710T182512Z",
            "stderr" : "",
            "stdout" : "[OpenStudio.Measure] <0> OSArgumentVector is deprecated, use OpenStudio::Measure::OSArgumentVector instead.\n",
            "step_errors" : [],
            "step_files" : [
               "/mnt/openstudio/analysis_4fef0e0f-5396-4c55-a6e1-2cd6803db3ab/data_point_056eb439-93fb-4227-95d0-f977718fdbce/run/001_view_model/report.html",
               "/mnt/openstudio/analysis_4fef0e0f-5396-4c55-a6e1-2cd6803db3ab/data_point_056eb439-93fb-4227-95d0-f977718fdbce/run/001_view_model/report.json"
            ],
            "step_final_condition" : "Report written to <a href='file:////mnt/openstudio/analysis_4fef0e0f-5396-4c55-a6e1-2cd6803db3ab/data_point_056eb439-93fb-4227-95d0-f977718fdbce/run/001_view_model/report.html'>report.html</a>.",
            "step_info" : [ "No changes made to the model." ],
            "step_result" : "NA",
            "step_values" : [
               {
                  "name" : "view_model_html_zip",
[...]
qjRGR7W7wYjYQnci1x66cTkUTXUowGJXcmN+OeN52qA0Vaynprq+SG1dXz0jReHCGz1ze8SR344urflKRzde6Kwut64XASxa37w04MNS6jMO3eSn88SZXGRRSM9DUWo/Pb6cmP3RfddxMZX0dJ6qXiTKbTyM+Ef5Ze6ofjZ1tF4/V8OxnG/jT9F/md59sj/+bLzeQ9tFimJfzRcWuo3Pkke37PD2V87vZbIu+U49bIT6aBNz/yQ3UeTvciiIYff2jRfJno4hFEOp9m96t+2b7ybrzFp4V3qis/pOdmLI5XZ/GE8vbsZtxuffeYsSN21NE22T+lkfTgQJf3f50S9VkpP+ocVWeQnwE2VNOPOvFpUe1v7bypAiWXTWnAprTDprTLprTHprTPpnTApnTIprR2+KalFJ+XO3xu7vD5ucPn6A6fpzt8ru7w+brD5+wOn7e7fN7uMs7pfN7u8nm7a+jtjwsvaWbAWI4MhAr6ykyooKfMhAr6yUyoYE4wEyqYEcyECuYDM6GC2cBMqGAuMBMqSnyGSmy+XZT2DJXYvLso6Rkqsfl3UcozVGLz8KKEZ6jE5uNF6c5QiW/+ZvPxolxnqGTi448KX2imOVUbw0CpoJsMlQq6yVCpoJsMlQqmAkOlgqnAUKlgKjBUKpgKDJUKpgJDpaJ8ZyrF5+VFGc9Uis/Pi3KeqRSfpxdlPVMpPl8vynumUnzeXpT5TKUY53Q+by9KfqZSpd6Ow+hxGP1SSOM2HEb/6MJh9DpYOIweh9FXuXAYvbpwGD0Oo88vHEZf/E0cRl8uoC4cRr8ZZzYCBzjAAQ5wgAMc4AAHOMABzsbjfGNHOYIGNKABDWhAAxrQgAY0oAHN5tB8W2c2Agc4wAEOcIADHOAABzjAAc43hfMVi7O9GKb+jZ/OX8sbGYj2f1Ce7Vssz7YcpM2oxOZsQCU2p7FKbP1ef5elEJuV0IBLaIdLaJdLaI9LaJ9L6IBL6JBLaO29fDslNt922JzbYfNuh829HTb/dtgc3GHzcIfNxR02H3fZfNzlm7/ZfNxl83HXzMf1K66ta1UvuGajQ/dS9XJrNjr0LFC92JqNDj0DVC+1ZqNDR79FoTUrIS6PLkhvFlXWrIS4nLogt1mUWLMS4vLrgsRmUV/Nambk8uyCrGZRXM1KiMuzC1Ja9cpq6zoWhdWshOgusiirZiVEB79FUTUrITr4LUqqWQnRwW9TUM1Oic23CzKbTTU1OyU29y5Ibjal1OyU2Dy8IL/Z1FGzmyvZfLwgxdkUUbNTYvPxgiyHCmqooIYKao8IUUFNXaighgpqqKBWcKGCGiqoGT0VKqit2Tf4PiqoPbxQQe3+qmHD1jdWaAA4wAEOcIADHOAABzjAAQ5wNh7nG6s/ABrQgAY0oAENaEADGtCABjSbQ/O3qXsAHOAABzjAAQ5wgAMc4AAHONXtfYUKaiiY9k0VTDsbTuRolvWyeh0qkalw+ptRNs3dgLJpbmNl0/byl0KrlrjhEhpwCe1wCe1yCe1xCe1zCR1wCR1yCa29fW+nxObbDptzO2ze7bC5t8Pm3w6bgztsHu6wubjD5uMum4+7fPM3m4+7bD7umvm4ftm0da3qZdNsdOheql42zUaHngWql02z0aFngOpl02x06Oi3KJtmJcTl0QXpzaJsmpUQl1MX5DaLsmlWQlx+XZDYLMqmWc2MXJ5dkNUsyqZZCXF5dkFKq142bV3HomyalRDdRRZl06yE6OC3KJtmJUQHv0XZNCshOvhtyqbZKbH5dkFmsymbZqfE5t4Fyc2mbJqdEpuHF+Q3m7JpdnMlm48XpDibsml2Smw+XpDlUDYNZdNQNu0RIcqmqQtl01A2DWXTCi6UTUPZNKOnQtm0NfsG30fZtIcXyqbdXzXs0vrGqgsABzjAAQ5wgAMc4AAHOMABzsbjfGNFB0ADGtCABjSgAQ1oQAMa0IBmc2j+NsUOgAMc4AAHOMABDnCAAxzgAKe6PZRNW14om3ZfNs3ZjLJpgw0omzZorGxav+eyVE2z0Rkw6eww6ewy6ewx6ewz6Rww6Rwy6ay9dG8lxOXRDpdLO1w+7XA5tcPl1Q6XWztcfu1wObbD5dkul2e7bHM1l2e7XJ7tGnm2fnm0Nanq1dEsZMgeql4bzUKGjPvqldEsZMiYr14XzUKGjHeLqmg2Okx+TKcxi5JoNjpMrkznMIt6aDY6TN5MJzCLYmg28yCTP9PZy6ISmo0Okz/Tqat6GbQ1GYsqaDY6ZPdY1ECz0SHD3aICmo0OGe4W9c9sdMhwt6l+ZiXE5dF0BrMpfWYlxOXUdBKzqXtmJcTl13Qesyl6ZjUzcnk2ncpsKp5ZCXF5Np3NUO4M5c5Q7uwRIcqdqQvlzlDuDOXOCi6UO0O5M6OnQrmzNfsG30e5s4cXyp3dXzXsrvrGqgIABzjAAQ5wgAMc4AAHOMABzsbjfGPFAkADGtCABjSgAQ1oQAMa0IBmc2j+NkUKgAMc4AAHOMABDnCAAxzgAKe6PZQ7W14od7YqdzbYjGpnOxtQ7WynwWpn/V2mcmcWQgMuoR0uoV0uoT0uoX0uoQMuoUMuoc/etrdRYvNth825HTbvdtjc22Hzb4fNwR02D3fYXNxh83GXzcddvvmbzcddNh93zXzcpAraQy2bMmjVdehesimEVl2HngVsSqFV16FnAJtiaNV16Oi3KodmIcTl0QXpzaoimoUQl1MX5DaromgWQlx+XZDYrOqiWcyMXJ5dkNWsSqNZCHF5dkFKs6mO9lDHqjyahRDdRVYF0iyE6OC3KpFmIUQHv1WRNAshOvjtyqTZKLH5dkFms6uUZqPE5t4Fyc2uWJqNEpuHF+Q3u3ppNnMlm48XpDi7kmk2Smw+XpDlUDUNVdNQNe0RIaqmqQtV01A1DVXTCi5UTUPVNKOnQtW0NfsG30fVtIcXqqbdXzVs0vrGigsABzjAAQ5wgAMc4AAHOMABzsbjfGM1B0ADGtCABjSgAQ1oQAMa0IBmc2j+NrUOgAMc4AAHOMABDnCAAxzgAKe6PVRNW16omraqmrazGVXTdjegatpuY1XT9vJ3QqtWuOESGnAJ7XAJ7XIJ7XEJ7XMJHXAJHXIJrb18b6fE5tsOm3M7bN7tsLm3w+bfDpuDO2we7rC5uMPm4y6bj7t88zebj7tsPu6a+bh+1bR1repV02x06F6qXjXNRoeeBapXTbPRoWeA6lXTbHTo6LeommYlxOXRBenNomqalRCXUxfkNouqaVZCXH5dkNgsqqZZzYxcnl2Q1SyqplkJcXl2QUqrXjVtXceiapqVEN1FFlXTrITo4LeommYlRAe/RdU0KyE6+G2qptkpsfl2QWazqZpmp8Tm3gXJzaZqmp0Sm4cX5Debqml2cyWbjxekOJuqaXZKbD5ekOVQNQ1V01A17REhqqapC1XTUDUNVdMKLlRNQ9U0o6dC1bQ1+wbfR9W0hxeqpt1fNWzS+saKCwAHOMABDnCAAxzgAAc4wAHOxuN8YzUHQAMa0IAGNKABDWhAAxrQgGZzaP42tQ6AAxzgAAc4wAEOcIADHOAAp7o9VE1bXqiatqqatrsZVdP2NqBq2l5jVdP6PZelaJqNzoBJZ4dJZ5dJZ49JZ59J54BJ55BJZ+2deyshLo92uFza4fJph8upHS6vdrjc2uHya4fLsR0uz3a5PNtlm6u5PNvl8mzXyLP1q6OtSVUvjmYhQ/ZQ9dJoFjJk3FcvjGYhQ8Z89bJoFjJkvFsURbPRYfJjOo1ZVESz0WFyZTqHWZRDs9Fh8mY6gVnUQrOZB5n8mc5eFoXQbHSY/JlOXdWroK3JWBRBs9Ehu8eiBJqNDhnuFgXQbHTIcLcof2ajQ4a7TfEzKyEuj6YzmE3lMyshLqemk5hN2TMrIS6/pvOYTc0zq5mRy7PpVGZT8MxKiMuz6WyGameodoZqZ48IUe1MXah2hmpnqHZWcKHaGaqdGT0Vqp2t2Tf4PqqdPbxQ7ez+qmFz1TdWFAA4wAEOcIADHOAABzjAAQ5wNh7nG6sVABrQgAY0oAENaEADGtCABjSbQ/O3qVEAHOAABzjAAQ5wgAMc4AAHONXtodrZ8kK1s1W1s73NqHa2vwHVzvYbrHbW32Uqd2YhNOAS2uES2uUS2uMS2ucSOuASOuQS+uxtexslNt922JzbYfNuh829HTb/dtgc3GHzcIfNxR02H3fZfNzlm7/ZfNxl83HXzMdNqqA91LIpg1Zdh+4lm0Jo1XXoWcCmFFp1HXoGsCmGVl2Hjn6rcmgWQlweXZDerCqiWQhxOXVBbrMqimYhxOXXBYnNqi6axczI5dkFWc2qNJqFEJdnF6Q0m+poD3WsyqNZCNFdZFUgzUKIDn6rEmkWQnTwWxVJsxCig9+uTJqNEptvF2Q2u0ppNkps7l2Q3OyKpdkosXl4QX6zq5dmM1ey+XhBirMrmWajxObjBVkOVdNQNQ1V0x4RomqaulA1DVXTUDWt4ELVNFRNM3oqVE1bs2/wfVRNe3ihatr9VcMmrW+suABwgAMc4AAHOMABDnCAAxzgbDzON1ZzADSgAQ1oQAMa0IAGNKABDWg2h+ZvU+sAOMABDnCAAxzgAAc4wAEOcKrbQ9W05YWqaauqafubUTXtYAOqph00VjVtL38ntGqFGy6hAZfQDpfQLpfQHpfQPpfQAZfQIZfQ2sv3dkpsvu2wObfD5t0Om3s7bP7tsDm4w+bhDpuLO2w+7rL5uMs3f7P5uMvm466Zj+tXTVvXql41zUaH7qXqVdNsdOhZoHrVNBsdegaoXjXNRoeOfouqaVZCXB5dkN4sqqZZCXE5dUFus6iaZiXE5dcFic2iaprVzMjl2QVZzaJqmpUQl2cXpLTqVdPWdSyqplkJ0V1kUTXNSogOfouqaVZCdPBbVE2zEqKD36Zqmp0Sm28XZDabqml2SmzuXZDcbKqm2SmxeXhBfrOpmmY3V7L5eEGKs6maZqfE5uMFWQ5V01A1DVXTHhGiapq6UDUNVdNQNa3gQtU0VE0zeipUTVuzb/B9VE17eKFq2v1Vwyatb6y4AHCAAxzgAAc4wAEOcIADHOBsPM43VnMANKABDWhAAxrQgAY0oAENaDaH5m9T6wA4wAEOcIADHOAABzjAAQ5wqttD1bTlhappq6ppB5tRNe1wA6qmHTZWNa3fc1mKptnoDJh0dph0dpl09ph09pl0Dph0Dpl01t65txLi8miHy6UdLp92uJza4fJqh8utHS6/drgc2+HybJfLs122uZrLs10uz3aNPFu/OtqaVPXiaBYyZA9VL41mIUPGffXCaBYyZMxXL4tmIUPGu0VRNBsdJj+m05hFRTQbHSZXpnOYRTk0Gx0mb6YTmEUtNJt5kMmf6exlUQjNRofJn+nUVb0K2pqMRRE0Gx2yeyxKoNnokOFuUQDNRocMd4vyZzY6ZLjbFD+zEuLyaDqD2VQ+sxLicmo6idmUPbMS4vJrOo/Z1Dyzmhm5PJtOZTYFz6yEuDybzmaodoZqZ6h29ogQ1c7UhWpnqHaGamcFF6qdodqZ0VOh2tmafYPvo9rZwwvVzu6vGjZXfWNFAYADHOAABzjAAQ5wgAMc4ABn43G+sVoBoAENaEADGtCABjSgAQ1oQLM5NH+bGgXAAQ5wgAMc4AAHOMABDnCAU90eqp0tL1Q7W1U7O9yIameD/rdf7SxjbKrambPT7/UfXM4OS/EzRtlBPbI79cju1iO7V4/sfj2yB/XIHtYju/auP6duTXHm1BRoTk2R5tQUak5NsebUFGxOTdHm1BRuTk3x5tYUb25dea2meHNrijfXJt70q8oVKVcvMsenqtu71UvQ8anqzmTVC9TxqerOYtXL1/Gp6s5gFsXtGGXriS7t5YJFJTxG2XoCTHutYFE2j1G2nhjTXihY1NhjzAr1RJn2KsGiIB+jbD1Rpr1EqF69r0jVopgfo6xu11qU+mOU1Z3ALAoBMsrqTmAWZQIZZXUnMJsigpy6NcWZ9krBpuIgp25Noaa9WLApT8ipW1O0aa8XbGoZcuaJmuJNe8lgU/iQU7emeNNeNaBKIqokokriI0JUSVQXqiSiSiKqJBZcqJKIKolGT4UqiWv2Db6PKokPL1RJvL9q2JT5jRUTAQ5wgAMc4AAHOMABDnCAA5yNx/nGaoyABjSgAQ1oQAMa0IAGNKABzebQ/G1qmwAHOMABDnCAAxzgAAc4wAFOdXtfoUriO3k9lbGXzmIp2q+2UDTx2yqaKOMbfyjFfzzlea+jaCrUgKl9zjv9V5tRQNHZgAKKTnMFFNX/V63UxKQzYNLZYdLZZdLZY9LZZ9I5YNI5ZNJZLzBgI8Tl0Q6XSztcPu1wObXD5dUOl1s7XH7tcDm2w+XZLpdnu2xzNZdnu1ye7Rp5tkFhv4dSFpX8qsuQPWRRq6+6DBn3FtX4qsuQMW9Rb6+6DBnvNhX1LHSY/JhOYzZF8ix0mFyZzmE2de8sdJi8mU5gNqXsLOZBJn+ms5dNdToLHSZ/plOXRcG5hzI2FeYsdMjusakhZ6FDhrtNlTgLHTLcberAWeiQ4W5V6c1GiMuj6QxmVbzNRojLqekkZlWPzUaIy6/pPGZVYs1mZuTybDqVWVVNsxHi8mw6mz0S+j32o9hP58IRXdE+m4VbqiTVXvf/eGG373Tz/38ph131C8wvp7n+2g96L17s7BweMphw6zcxqN/ETv0mdus3sVe/if36TRzUb+KwfhNrmb0uGw3Et9NAgDsNRLjTQIg7DcS400CQOw1EudNAmDsNxLnbQJy7TeTxBuLcbSDO3Wpx7uY2vJSy0ddbVg0Grnuwx2CCHg02E/RgsJmgx4LNBD3lspmgZ1w2E/SEy2aCnm/ZTNDTLZuJgmUVn40G4rtgWcVno4EIL1hW8dloIMYLllV8NhqI8oJlFZ+NBuK8YFnFZ6OJPN5AnBcsq/hsVIvzgbLxKvYJG+6h3rLKcfb3BwMGE/RosJmgB4PNBD0WbCboKZfNBD3jspmgJ1w2E/R8y2aC3hvFZqJgQyCfDXpHFZ8NerMVnw16HxafDXqLFp8Nel8inw16yyKfDXo3I58NeqMjn40G4rxgWcVno4k83kAiL1hW8dmolsp3lI13kxll40BvWXWYXbs/MpigR4PNBD0YbCbosWAzQS+r2EzQyyo2E/Syis0EvaxiM0FPt2wmCpZVfDboZRWfDXpZxWeDXlbx2aCXVXw26GUVnw16WcVng15W8dmgl1V8NhqI84JlFZ+NJvJ4A4m8YFnFZ6NaKt9VNv4jR5SNfb1l1cuXJyf7+wwm6NFgM0EPBpsJeizYTNDLKjYT9LKKzQS9rGIzQS+r2EzQ0y2biYJlFZ8NelnFZ4NeVvHZoJdVfDboZRWfDXpZxWeDXlbx2aCXVXw26GUVn40G4rxgWcVno4k83kAiL1hW8dmolsr38qXbTFI29vSWVScne3ssJujRYDNBDwabCXos2EzQyyo2E/Syis0EvaxiM0Evq9hM0NMtm4mCZRWfDXpZxWeDXlbx2aCXVXw26GUVnw16WcVng15W8dmgl1V8NuhlFZ+NBuK8YFnFZ6OJPN5AIi9YVvHZqJbK95WNXyNqW7y7q7esOjhw3d1dBhP0aLCZoAeDzQQ9Fmwm6GUVmwl6WcVmgl5WsZmgl1VsJorqTjGZKCy2xmWjqFoVl42iQlZcNopqXHHZKCp/xWWjqOYbl42icnBcNooqxXHZKCoix2WjgTgvWFbx2WgijzeQyAuWVXw2ylP5B50Kr8uazOJYhPJ2VUA2rxvbTm7GnbwCbGmp2FVh50SmP0azcJS0d/sd4Ti7HTFQ/+fu6pWbvcsw7otSj0YnXirHUTx/cecni7LI98+vUT06E3gTj2T8dqaqFGvfqDjm6xy/Si+ZxXKBoQotL/u95vLcaEYzmtGMZjSjGc1oRjOa0YxmNKMZzWhGM5rRjGY0oxnNaEYzmtGMZjSjGc1oRjOa0YxmNKMZzWhGM5rRjGY0oxnNaEYzmtGMZjSjGc1oflLN8150I+PYH8lfPfVirdPrW76vql6NTdZfjT2TsS+T5eu1rc7qBeJpEKW9wA9l6SuyyZfe0y1/szbp5UfPT6PAS/0ozKBaSSqn3Qt5GcWypffm82s5luFo/YEWn7X3+h0xUG8u99WLzOqfViAvUwVWIr2S7Z2PZXoapqp/MhOXs3CYk7a3xJ8lEitCeX/3+9J3udXlX4p2OvGTXpKPip4hdT24qZf136k3nLT/AjZVW+GrV8cz9qXu+TRKfCX4MvtY52lWl5L5AlUc3ZohrbD8cCRVPHSdjuHdq+uq6o2XvgyUv7WXfbqIk3EczaZyJL7/Xvxj+fld73ziJcv331WAbT1snX+xNeuQnjcev1I2eoEMx+lEPBeu+LdovQiCljha/0YS+EPZ7jpb7/sftkrj7dGTRLFoX2WP0v9BXGVmlq66tKs++2c245gPkLqUGy/13l996H2Uc3F8fLzovGqKuepy2K9MH3V1XcTS+1jl5k+G95h+X/XX8umOlVsrZ1h6Sl7IoXfuJYk/DuXoRJWISN7nPfmhWleuBno6SybtqmORDenRYjyrR1IQHOk8ZU99s6qVJI2jj1LPzuK7VS1FU2/op3M9U8svV36q3MTKVFWV1USyPq1UCQ/jyUddq3Ben3hEVzimaibhps/6qZNnVa3vfypbU6hre1v8/sc78d83f7wVZ2/evvvlt5/E6zc//XIifj59e6on8CqbteWdp5ZoIo1EEsWpCGfXmR8MRV7SJBFeMswWL3441lBc9b3SeZCZvY640J9cYpnO4lBMvTiRr4LIS9uemvK3sqF88NlF/plWZ5Yv0R6YXT5CmfCneiu93K8/83DPg739bCQvvVmQimkcZXOYfNYRz747ODg5OT19VnPhGeAABzjAAQ5wgAMc4AAHOMB5mjgimV1nPwKLkVQfipE3V0SxHIEGNKABDWhAAxrQgAY0oAENaIppbvOtWZ/RXAQzCRzgAAc4wAEOcIADHOAABzjAqYJzf26go84NPJtR5wYOnPwvbC9e7OwcHoIUpCAFKUhBClKQghSkIAUpSEEK0s0gdXNSL6VI+znpYOC6B3sgBSlIQQpSkIIUpCAFKUhBClKQgnQzSAeK9FXsE6TuYU7qOPv7gwFIQQpSkIIUpCAFKUhBClKQghSkIN0M0h1F+m4yo0gPctLD7Nr9EaQgBSlIQQpSkIIUpCAFKUhBClKQbgbpriL9jxxRpPs56cuXJyf7+yAFKUhBClKQghSkIAUpSEEKUpCCdDNI9/LfTMwkRbqXk56c7O2BFKQgBSlIQQpSkIIUpCAFKUhBCtJNId1XpL9GVGVBdzcnPThw3d1dkIIUpCAFKUhBClKQghSkIAUpSEHaGOkKZRR7t+1Ssbte6qeBPJt4U9lL5V3afvZzNIuTcoz54ztf+tcyTPwoDGSSK5RIbG+LF6OR8ESuJG79dCKS6FqK0aDkzuRm3POmUxmO2i1lu7VVcsPq6nlpGrdbd62O2Osb3jTPbnL1b0rSeSAXeF0vHE6iOLu/FchLA9qlxmUUpt1b6Y8nqdK4iIKRvsZibM6m3f9FoXTEm8tLfyjF2TzpDsSrIO464mw46b4QP/8eDK/TbhLNsmH432/it9OTH9XXUnktBuL3s/+JN8Oh+u6zraKBfb6dDGN/mv6L/M7z7ZF/8+Vm8h5aLNMS/ui4NVRef5J1lOeHMj4fuC2R995xa+Qn08CbH/lhkDV1L4Jo+PGHFs2XiS4eQaTzaXa/6sDtK+/GW3xaeKe6brxYOag4FiP/ehrIXihvz27G7dZ3jxk7Yqffz/8pDTglO/JSL9N9/2cr8C5k0DpqjeSlNwtSMY2jSz+Qrc6i5fyudeT0+p3WjRfM5PL/h2peyu7JppqTk9PT1qeOlo7LpDNg0tlh0tll0tlj0tln0jlg0jlk0nH6XEJcHu1wubTD5dMOl1M7XF7tcLm1w+XXDpdjO1ye7XJ5tss2V3N5tsvl2a6RZ4tkdn29dlC1VkaL5chAhuwjMxmyh8xkyP4xkyHj3kyGjHozGTLmzWTIiDeTIePdTIZOZIY6TH5MpzFDHSZPppOYoQ6TL9MpzFCHyZvpBGaow+TPdPoy1OGal5n8mc5dhjr6/nzrh6l52rpQH+nrkN1jqEN2j6EO2T2GOmS4G+qQ4W6oQ4a7oQ4Z7oY6ZLgb6tD5y1SIy6PpDGYqxOXTdA4zFeLyajqLmQpx+TWdx0yFuDybzmSmQmxzNZdn08nMVEjfs+//clF6sjCV5vprP+gtjh5mMOHWb2JQv4md+k3s1m9ir34T+/WbOKjfxGH9JtYye102Gohvp4EAdxqIcKeBEHcaiHGngSB3Gohyp4EwdxqIc7eBOHebyOMNxLnbQJy71eK89ABHvWXV4oRHBhP0aLCZoAeDzQQ9Fmwm6CmXzQQ947KZoCdcNhP0fMtmgp5u2UwULKv4bDQQ3wXLKj4bDUR4wbKKz0YDMV6wrOKz0UCUFyyr+Gw0EOcFyyo+G03k8QbivGBZxWejWpyXnpOlt6xaHKTFYIIeDTYT9GCwmaDHgs0EPeWymaBnXDYT9ITLZoKeb9lM0Huj2EwUbAjks0HvqOKzQW+24rNB78Pis0Fv0eKzQe9L5LNBb1nks0HvZuSzQW905LPRQJwXLKv4bDSRxxtI5AXLKj4b1VJ56XEkesuqxXklDCbo0WAzQQ8Gmwl6LNhM0MsqNhP0sorNBL2sYjNBL6vYTNDTLZuJgmUVnw16WcVng15W8dmgl1V8NuhlFZ8NelnFZ4NeVvHZoJdVfDboZRWfjQbivGBZxWejiTzeQCIvWFbx2aiWykurvustqxZl4RlM0KPBZoIeDDYT9FiwmaCXVWwm6GUVmwl6WcVmgl5WsZmgp1s2EwXLKj4b9LKKzwa9rOKzQS+r+GzQyyo+G/Syis8Gvazis0Evq/hs0MsqPhsNxHnBsorPRhN5vIFEXrCs4rNRLZWXFtfVW1Ytqu8ymKBHg80EPRhsJuixYDNBL6vYTNDLKjYT9LKKzQS9rGIzQU+3bCYKllV8NuhlFZ8NelnFZ4NeVvHZoJdVfDboZRWfDXpZxWeDXlbx2aCXVXw2GojzgmUVn40m8ngDibxgWcVno1oqL61hqLesWhQ5ZDBBjwabCXow2EzQY8Fmgl5WsZmgl1VsJuhlFZsJelnFZqKo7hSTicJia1w2iqpVcdkoKmTFZaOoxhWXjaLyV1w2imq+cdkoKgfHZaOoUhyXjaIiclw2GojzgmUVn40m8ngDibxgWcVnozyVf9Cp8Los3yyORShvVwVk87qx7eRm3MkrwJaWil3VgE5k+mM0C0dJe7ffEY6z2xED9X/url652bsM47609Wh04qVyHMXzF3d+sqihfP/8GoWmM4E38UjGb2eqpLH2jYpjvs7xq/SSWSwXGKoq87Lfay7yjWY0oxnNaEYzmtGMZjSjGc1oRjOa0YxmNKMZzWhGM5rRjGY0oxnNaEYzmtGMZjSjGc1oRjOa0YxmNKMZzWhGM5rRjGY0oxnNaEYzmtGM5ifVPO9FNzKO/ZH81VMv1jq9vuX7qurV2GT91dgzGfsyWb5e2+qsXiCeBlHaC/xQlr4im3zpPd3yN2uTXn70/DQKvNSPwgyqlaRy2r2Ql1EsW3pvPr+WYxmO1h9o8Vl7r98RA/Xmcl+9yKz+aQXyMlVgJdIr2d75WKanYar6JzNxOQuHOWl7S/xZIrEilPd3vy99l1td/qVopxM/6SX5qOgZUteDm3pZ/516w0n7L2BTtRW+enU8Y1/qnk+jxFeCL7OPdZ5mdSmZL1DF0a0Z0grLD0dSxUPX6Rjevbquqt546ctA+Vt72aeLOBnH0WwqR+L778U/lp/f9c4nXrJ8/10F2NbD1vkXW7MO6Xnj8StloxfIcJxOxHPhin+L1osgaImj9W8kgT+U7a6z9b7/Yas03h49SRSL9lX2KP0fxFVmZumqS7vqs39mM475AKlLufFS7/3Vh95HORfHx8eLzqummKsuh/3K9FFX10UsvY9Vbv5keI/p91V/LZ/uWLm1coalp+SFHHrnXpL441COTlSJiOR93pMfqnXlaqCns2TSrjoW2ZAeLcazeiQFwZHOU/bUN6taSdI4+ij17Cy+W9VSNPWGfjrXM7X8cuWnyk2sTFVVWU0k69NKlfAwnnzUtQrn9YlHdIVjqmYSbvqsnzp5VtX6/qeyNYW6trfF73+8E/9988dbcfbm7btffvtJvH7z0y8n4ufTt6d6Aq+yWVveeWqJJtJIJFGcinB2nfnBUOQlTRLhJcNs8eKHYw3FVd8rnQeZ2euIC/3JJZbpLA7F1IsT+SqIvLTtqSl/KxvKB59d5J9pdWb5Eu2B2eUjlAl/qrfSy/36Mw/3PNjbz0by0psFqZjGUTaHyWcd8ey7g4OTk9PTZzUXngEOcIADHOAABzjAAQ5wgAOcp4kjktl19iOwGEn1oRh5c0UUyxFoQAMa0IAGNKABDWhAAxrQgKaY5jbfmvUZzUUwk8ABDnCAAxzgAAc4wAEOcIADnCo49+cGOurcwLMZdW7gwMn/wvbixc7O4SFIQQpSkIIUpCAFKUhBClKQghSkIN0MUjcn9VKKtJ+TDgaue7AHUpCCFKQgBSlIQQpSkIIUpCAFKUg3g3SgSF/FPkHqHuakjrO/PxiAFKQgBSlIQQpSkIIUpCAFKUhBCtLNIN1RpO8mM4r0ICc9zK7dH0EKUpCCFKQgBSlIQQpSkIIUpCAF6WaQ7irS/8gRRbqfk758eXKyvw9SkIIUpCAFKUhBClKQghSkIAUpSDeDdC//zcRMUqR7OenJyd4eSEEKUpCCFKQgBSlIQQpSkIIUpCDdFNJ9RfprRFUWdHdz0oMD193dBSlIQQpSkIIUpCAFKUhBClKQghSkjZGuUEaxd9suFbvrpX4ayLOJN5W9VN6l7Wc/R7M4KceYP77zpX8tw8SPwkAmuUKJxPa2eDEaCU/kSuLWTyciia6lGA1K7kxuxj1vOpXhqN1StltbJTesrp6XpnG7ddfqiL2+4U3z7CZX/6YknQdygdf1wuEkirP7W4G8NKBdalxGYdq9lf54kiqNiygY6WssxuZs2v1fFEpXvPJDKc7SKPbG2X/nSXdHvAririPOhpPuC/Hz78HwOu0m0SwbjP/9Jn47PflRfS2V12JH/H72P/FmOFTffbZVNLzPt5Nh7E/Tf5Hfeb498m++3EzeQ4tlWsIfHbeGyvdPsu7ysseMzweDlsj78Lg18pNp4M2P/DDImroXQTT8+EOL5stEF48g0vk0u1914/aVd+MtPi28U103XqzcVByLkX89DWQvlLdnN+N267vHjB2x0+/n/5SGnZIdeamX6b7/sxV4FzJoHbVG8tKbBamYxtGlH8hWZ9Fyftc6cnr9TuvGC2Zy+f9DNTtl92QTzsnJ6WnrU0dLx2XSGTDp7DDp7DLp7DHp7DPpHDDpHDLpOH0uIS6Pdrhc2uHyaYfLqR0ur3a43Nrh8muHy7EdLs92uTzbZZuruTzb5fJs18izRTK7vl47rloro8VyZCBD9pGZDNlDZjJk/5jJkHFvJkNGvZkMGfNmMmTEm8mQ8W4mQycyQx0mP6bTmKEOkyfTScxQh8mX6RRmqMPkzXQCM9Rh8mc6fRnqcM3LTP5M5y5DHX1/vvXD1DxtXaiP9HXI7jHUIbvHUIfsHkMdMtwNdchwN9Qhw91Qhwx3Qx0y3A116PxlKsTl0XQGMxXi8mk6h5kKcXk1ncVMhbj8ms5jpkJcnk1nMlMhtrmay7PpZGYqpO/Z93+/KD1fmEpz/bUf9BYHEDOYcOs3MajfxE79JnbrN7FXv4n9+k0c1G/isH4Ta5m9LhsNxLfTQIA7DUS400CIOw3EuNNAkDsNRLnTQJg7DcS520Ccu03k8Qbi3G0gzt1qcV56jKPesmpxziODCXo02EzQg8Fmgh4LNhP0lMtmgp5x2UzQEy6bCXq+ZTNBT7dsJgqWVXw2GojvgmUVn40GIrxgWcVno4EYL1hW8dloIMoLllV8NhqI84JlFZ+NJvJ4A3FesKzis1EtzktPy9JbVi2O02IwQY8Gmwl6MNhM0GPBZoKectlM0DMumwl6wmUzQc+3bCbovVFsJgo2BPLZoHdU8dmgN1vx2aD3YfHZoLdo8dmg9yXy2aC3LPLZoHcz8tmgNzry2WggzguWVXw2msjjDSTygmUVn41qqbz0UBK9ZdXi1BIGE/RosJmgB4PNBD0WbCboZRWbCXpZxWaCXlaxmaCXVWwm6OmWzUTBsorPBr2s4rNBL6v4bNDLKj4b9LKKzwa9rOKzQS+r+GzQyyo+G/Syis9GA3FesKzis9FEHm8gkRcsq/hsVEvlpbXf9ZZVi+LwDCbo0WAzQQ8Gmwl6LNhM0MsqNhP0sorNBL2sYjNBL6vYTNDTLZuJgmUVnw16WcVng15W8dmgl1V8NuhlFZ8NelnFZ4NeVvHZoJdVfDboZRWfjQbivGBZxWejiTzeQCIvWFbx2aiWyktL7OotqxY1eBlM0KPBZoIeDDYT9FiwmaCXVWwm6GUVmwl6WcVmgl5WsZmgp1s2EwXLKj4b9LKKzwa9rOKzQS+r+GzQyyo+G/Syis8Gvazis0Evq/hs0MsqPhsNxHnBsorPRhN5vIFEXrCs4rNRLZWXVjLUW1YtSh0ymKBHg80EPRhsJuixYDNBL6vYTNDLKjYT9LKKzQS9rGIzUVR3islEYbE1LhtF1aq4bBQVsuKyUVTjistGUfkrLhtFNd+4bBSVg+OyUVQpjstGURE5LhsNxHnBsorPRhN5vIFEXrCs4rNRnso/6FR4XRZxFscilLerArJ53dh2cjPu5BVgS0vFripBJzL9MZqFo6S92+8Ix9ntiIH6P3dXr9zsXYZxX+B6NDrxUjmO4vmLOz9ZVFK+f36NctOZwJt4JOO3M1XYWPtGxTFf5/hVeskslgsMVZt52e81l/pGM5rRjGY0oxnNaEYzmtGMZjSjGc1oRjOa0YxmNKMZzWhGM5rRjGY0oxnNaEYzmtGMZjSjGc1oRjOa0YxmNKMZzWhGM5rRjGY0oxnNaEbzk2qe96IbGcf+SP7qqRdrnV7f8n1V9Wpssv5q7JmMfZksX69tdVYvEE+DKO0FfihLX5FNvvSebvmbtUkvP3p+GgVe6kdhBtVKUjntXsjLKJYtvTefX8uxDEfrD7T4rL3X74iBenO5r15kVv+0AnmZKrAS6ZVs73ws09MwVf2TmbichcOctL0l/iyRWBHK+7vfl77LrS7/UrTTiZ/0knxU9Ayp68FNvaz/Tr3hpP0XsKnaCl+9Op6xL3XPp1HiK8GX2cc6T7O6lMwXqOLo1gxpheWHI6nioet0DO9eXVdVb7z0ZaD8rb3s00WcjONoNpUj8f334h/Lz+965xMvWb7/rgJs62Hr/IutWYf0vPH4lbLRC2Q4TifiuXDFv0XrRRC0xNH6N5LAH8p219l63/+wVRpvj54kikX7KnuU/g/iKjOzdNWlXfXZP7MZx3yA1KXceKn3/upD76Oci+Pj40XnVVPMVZfDfmX6qKvrIpbexyo3fzK8x/T7qr+WT3es3Fo5w9JT8kIOvXMvSfxxKEcnqkRE8j7vyQ/VunI10NNZMmlXHYtsSI8W41k9koLgSOcpe+qbVa0kaRx9lHp2Ft+taimaekM/neuZWn658lPlJlamqqqsJpL1aaVKeBhPPupahfP6xCO6wjFVMwk3fdZPnTyran3/U9maQl3b2+L3P96J/7754604e/P23S+//SRev/nplxPx8+n/397Z9rZta3H8/f0UvBqwKLi2Y9mx87BmF6njrAPWpog7DGtRBLRF20pkSRCpJMaQ7z5RlnPtJKpJPbT17p8v4lQU//yROueQLdXjy76awHkctdk9lVs0InzC/VAQL5rFdjAiSUoTTigfxZsXx5soKC7nXuqsrMy0RobqwSVkIgo9EtCQs3PXp8KkMuTvxo9y5dowuaY0mZu3aCvdpkPYJPxQbaaXx/1n4u6Js5s7NhvTyBUkCP04hrGdGtn54fCw1+v3dypOPAMc4AAHOMABDnCAAxzgAAc4/0wcwqNZ/FdgYjN5kdh0LolCZoMGNKABDWhAAxrQgAY0oAENaL5Mc5e8mvWEZuhGDDjAAQ5wgAMc4AAHOMABDnCAkwfn8XsDLfm9gYMo63sD21ZywnZ6ur9/dARSkIIUpCAFKUhBClKQghSkIAUpSLeDtJWQUpFF2kxI2+1W67ALUpCCFKQgBSlIQQpSkIIUpCAFKUi3g7QtSc9DJ4O0dZSQWtbBQbsNUpCCFKQgBSlIQQpSkIIUpCAFKUi3g3Rfkn6YRlmkhwnpUVw6r0EKUpCCFKQgBSlIQQpSkIIUpCAF6XaQdiTpH8zOIj1ISM/Oer2DA5CCFKQgBSlIQQpSkIIUpCAFKUhBuh2k3eRfJiKWRdpNSHu9bhekIAUpSEEKUpCCFKQgBSlIQQpSkG4L6YEkfetnZRZsdRLSw8NWq9MBKUhBClKQghSkIAUpSEEKUpCCFKRfjXSJYof0ztwodt8QjnDZYEoD1hDsXpg7b/wo5Jsx5s9bnjkz5nHH91zGE4UNEnt75NS2CSWJErlzxJRwf8aI3d7Qkt9OGjQImGebhuzb2N3QYFkaVIjQNO6NGuk2NRvN40Yt9UZczF22wKtTbzT1w7i94bKxBm2qMfY9Ub9jzmQqpMbQd211jcWzGQT1j77H2uR15N6QgfBDOmFkMOf1fXLuhnWLDEbT+il5894dzUSdUS7Ix3fkXb/3Wt4l2Izsk/eDj+RiNJK37ux+6em+2uOj0AnEz5n3vNqznduXqzPbZIvFWsSxT4yRNP1ePFvU8Vh41d43SDKFJ4bt8MCl82PHc+Oq+tD1Rzc/Gdl8sehiCETMg7i9nMW9a3pLF1e/2FKWWxpKKyUnxHZmgcsaHrsb3E5M44fnjDWy32wmPzZ6nZS1qaCx7qe/DJcOmWscGzYb08gVJAj9seMyo7aoubo3jq1Gs2bcUjdixnH3qHG0Ug6PasZIhqpYIY4+vV6/bzzUlFRblai2K1Hdr0S1U4lqtxLVg0pUDytRPapE1WpWI1uNd1nVuJdVjX9Z1TiYVY2HWdW4mFWNj1nVOJlVjZe1qvGyVkVrWDVe1qrGy1oFvIzwaDZb+/bvHDuEkNkaoopzqyeqOLN6oorzqieqGLv0RBUjl56oYtzSE1WMWnqiijFLT1R1Y6CpWolPqW4LNFUr8SrVTYGmaiV+pbol0FStxLNUNwSaqpX4lup2QFO1mvWqEt9S3Qtoqub1rTvHE0W3AUN5g7qq4rRqqipOq6aq4rRqqiqGLE1VxZClqaoYsjRVFUOWpqpiyNJUVd0P6MpW412qOwJd2Wr8S3VPoCtbjYep7gp0ZavxMdV9ga5sNV6mujPQla1oDavGy1Q3B7qyWl72WeXAIT1SJCfEY3fL84zkGMPkt5NaciCx8eRieS7JmXjtR57NzU6zRiyrUyNt+Vuro3b6cR9jPB632naPCjbxw/npvcMX53qPU6Fw+BkLXIQ2Cy8jecym3FByzNc53jLKo5AtMORJYfoIih7nJudI610NWOgwnuLGPaUPJHB90ZCHWxu75C+NezMpbyR2F/guFY7vxVAGFyyoD9nYD5mhZkm/sQnz7PUBLa6Z3dgK2tIS5GGYJX+kp6UbD5KXso2rCRN9T8j5ibsYR94oITV3yV8Kx6WSkD22/rTRN2RxxsQUU4fHdi3bqXUky0qjRjx/fTqamv8D1lVb4qdng6nuVeBzRwqexZdVRrMsUuYFqtC/00NaYjmezaTj1q2aZutluc7bcOwwV9qbmc7pwk8moR8FzCY//kj+nV6/b1xNKU/jiXSw3dXa+Yu18YQ06GRyLvtouMybiCl5RVrkv8Q4dV2DHK/fwV1nxMy6tfup+Xl3o789G4kfEvM6HkrzJ3Idd5OaatqvvPafE2LpPyBZpBmnep+uPzduWBzeTk4Wk5dPMVFNH/u17lCXZRgyepOn8YNmG9375XylozuRZi2NIbWUZGFsXC1eBWJ28jIQ/5TM5Od8U7l80EHEp2beZxE/0uPF88zvSa57rDLKhrwzby9chP4NU+tncW/envyAjhwxV+sqvTn3qJIull3lVVkGkvWwksc9tIOPLEt3Xg88pE4sXTUdd1Nnfaglq6rS/Q+b9hSy7O2R979/IH9e/H5JBheXH3599wv57eKXX3vkTf+yryZwHkdtdk/lFo0In3A/3kh70Sy2gxFJtoicUD6KNy+ON1FQXM691FlZmWmNDNWDS8hEFHokoCFn565PhUllyN+NH+XKtWFyTWkyN2/RVrpNh7BJ+OEbvLL55AA2fS9THqh+kzdIgQMc4AAHOMABDnCAAxzgAGfrcZ6/4CKJQmaDBjSgAQ1oQAMa0IAGNKABDWi+TPPslUBJI1/xAw5wgAMc4AAHOMABDnCAAxzgfMNEiR/YLGAhFVHIiHm+i1SJ31WqxD+otLg3LPk4nQ0d5gkiH5nMe8jsKJ7/Ojlonm9HCsTOFqRA7Hy1FIjJfzzNm4KpJJ12STr7Jel0StLplqRzUJLOYUk6RyXprOUWKCRUlkVbZZm0VZZNW2UZtVWWVVtlmbVVll1bZRm2VZZlt8qy7FZpsbosy26VZdktLctWT9m3JpU/SV8BmcwZyp+Ir4BMpt/nT7ZXQCbT5/Mn1Csgk+nvBZLmFdEpyY6zl7ECqfCK6JRkytlrWIEEd0V0SrLm7AWsQNq6InGwJHvOXr0KJKMrolOSPWcvXflTzK3JFEgqV0Qnc3oKJI4ropPp7gWSwxXRyXT3AgngiuhkunuRJG+FhMqy6OwVrEjqtkJCZRl19iJWJCFbIaGy7Dp7HSuSZq1QZCzLsrOXsiLJ0woJlWXZ2asZUqJtRUo0VKMa1ahGNapRjWpUoxrVqEY1qlGNalR/T9Xzhn/LwtCx2Vsq/6HKajSREn9lJEiJ/1iQEl+rICU+UuJrFKTEf1qQEv9pQUp8zYKU+EiJ/2JBSnzgAAc4wAEOcIADHOAABzjAAc42JJQEDWhAAxrQgAY0oAENaEADmu2h+b9JZAkc4AAHOMABDnCAAxzgAAc4+fv7Binxz5wZ87jjey7jHAnxv6+E+H54Q/rjsTNymDeaP6bB/7oJ8NO7n9Ss/nn5++LzUT395fFj6Ntz+TkVM/fnf/0NMV2Xuw=="
               },
               {
                  "name" : "annual_peak_electric_demand",
                  "units" : "kW",
                  "value" : 109.38025
               },
               {
                  "name" : "first_year_capital_cost",
                  "units" : "$",
                  "value" : 0
               },
               {
                  "name" : "annual_utility_cost",
                  "units" : "$",
                  "value" : 0
               },
               {
                  "name" : "total_lifecycle_cost",
                  "units" : "$",
                  "value" : 0
               }
            ],
            "step_warnings" : []
         }
      }
   ],
   "updated_at" : "20170710T182616Z",
   "weather_file" : "USA_CO_Denver.Intl.AP.725650_TMY3.epw"
}
