{
   "completed_at" : "20170710T182610Z",
   "completed_status" : "Success",
   "created_at" : "2017-07-10 18:23:48 +0000",
   "current_step" : 5,
   "description" : "",
   "eplusout_err" : "Program Version,EnergyPlus, Version 8.7.0-78a111df4a, YMD=2017.07.10 18:25,IDD_Version 8.7.0\n   ************* IDF Context for following error/warning message:\n   ************* Note -- lines truncated at 300 characters, if necessary...\n   *************      5 Building,\n   ************* indicated Name=NECB 2011-SmallOffice-NECB HDD Method-CAN_BC_Prince.George.718960_CWEC.epw created: 2017-07-10 18:24:00 +0000\n   ************* Only last 1 lines before error line shown.....\n   *************      6   NECB 2011-SmallOffice-NECB HDD Method-CAN_BC_Prince.George.718960_CWEC.epw created: 2017-07-10 18:24:00 +0000, !- Name\n   ** Warning ** IP: IDF line~6 Alpha Argument length exceeds maximum, will be truncated=  NECB 2011-SmallOffice-NECB HDD Method-CAN_BC_Prince.George.718960_CWEC.epw created: 2017-07-10 18:24:00 +000\n   **   ~~~   ** Will be processed as Alpha=NECB 2011-SMALLOFFICE-NECB HDD METHOD-CAN_BC_PRINCE.GEORGE.718960_CWEC.EPW CREATED: 2017-07-10 18:24:00 +0000\n   ************* Beginning Zone Sizing Calculations\n   ** Warning ** ProcessScheduleInput: Schedule:Day:Interval=\"ECONOMIZER MAX OA FRACTION 100 PCT DEFAULT\", Blank Schedule Type Limits Name input -- will not be validated.\n   ** Warning ** ProcessScheduleInput: Schedule:Day:Interval=\"SCHEDULE DAY 1\", Blank Schedule Type Limits Name input -- will not be validated.\n   ** Warning ** ProcessScheduleInput: Schedule:Day:Interval=\"SCHEDULE DAY 10\", Blank Schedule Type Limits Name input -- will not be validated.\n   ** Warning ** ProcessScheduleInput: Schedule:Day:Interval=\"SCHEDULE DAY 11\", Blank Schedule Type Limits Name input -- will not be validated.\n   ** Warning ** ProcessScheduleInput: Schedule:Day:Interval=\"SCHEDULE DAY 12\", Blank Schedule Type Limits Name input -- will not be validated.\n   ** Warning ** ProcessScheduleInput: Schedule:Day:Interval=\"SCHEDULE DAY 13\", Blank Schedule Type Limits Name input -- will not be validated.\n   ** Warning ** ProcessScheduleInput: Schedule:Day:Interval=\"SCHEDULE DAY 14\", Blank Schedule Type Limits Name input -- will not be validated.\n   ** Warning ** ProcessScheduleInput: Schedule:Day:Interval=\"SCHEDULE DAY 15\", Blank Schedule Type Limits Name input -- will not be validated.\n   ** Warning ** ProcessScheduleInput: Schedule:Day:Interval=\"SCHEDULE DAY 16\", Blank Schedule Type Limits Name input -- will not be validated.\n   ** Warning ** ProcessScheduleInput: Schedule:Day:Interval=\"SCHEDULE DAY 17\", Blank Schedule Type Limits Name input -- will not be validated.\n   ** Warning ** ProcessScheduleInput: Schedule:Day:Interval=\"SCHEDULE DAY 18\", Blank Schedule Type Limits Name input -- will not be validated.\n   ** Warning ** ProcessScheduleInput: Schedule:Day:Interval=\"SCHEDULE DAY 19\", Blank Schedule Type Limits Name input -- will not be validated.\n   ** Warning ** ProcessScheduleInput: Schedule:Day:Interval=\"SCHEDULE DAY 2\", Blank Schedule Type Limits Name input -- will not be validated.\n   ** Warning ** ProcessScheduleInput: Schedule:Day:Interval=\"SCHEDULE DAY 20\", Blank Schedule Type Limits Name input -- will not be validated.\n   ** Warning ** ProcessScheduleInput: Schedule:Day:Interval=\"SCHEDULE DAY 21\", Blank Schedule Type Limits Name input -- will not be validated.\n   ** Warning ** ProcessScheduleInput: Schedule:Day:Interval=\"SCHEDULE DAY 22\", Blank Schedule Type Limits Name input -- will not be validated.\n   ** Warning ** ProcessScheduleInput: Schedule:Day:Interval=\"SCHEDULE DAY 23\", Blank Schedule Type Limits Name input -- will not be validated.\n   ** Warning ** ProcessScheduleInput: Schedule:Day:Interval=\"SCHEDULE DAY 5\", Blank Schedule Type Limits Name input -- will not be validated.\n   ** Warning ** ProcessScheduleInput: Schedule:Day:Interval=\"SCHEDULE DAY 6\", Blank Schedule Type Limits Name input -- will not be validated.\n   ** Warning ** ProcessScheduleInput: Schedule:Day:Interval=\"SCHEDULE DAY 7\", Blank Schedule Type Limits Name input -- will not be validated.\n   ** Warning ** ProcessScheduleInput: Schedule:Day:Interval=\"SCHEDULE DAY 8\", Blank Schedule Type Limits Name input -- will not be validated.\n   ** Warning ** ProcessScheduleInput: Schedule:Day:Interval=\"SCHEDULE DAY 9\", Blank Schedule Type Limits Name input -- will not be validated.\n   ** Warning ** ProcessScheduleInput: Schedule:Year=\"ECONOMIZER MAX OA FRACTION 100 PCT\", Blank Schedule Type Limits Name input -- will not be validated.\n   ** Warning ** ProcessScheduleInput: Schedule:Year=\"SCHEDULE RULESET 10\", Blank Schedule Type Limits Name input -- will not be validated.\n   ** Warning ** ProcessScheduleInput: Schedule:Year=\"SCHEDULE RULESET 11\", Blank Schedule Type Limits Name input -- will not be validated.\n   ** Warning ** ProcessScheduleInput: Schedule:Year=\"SCHEDULE RULESET 12\", Blank Schedule Type Limits Name input -- will not be validated.\n   ** Warning ** ProcessScheduleInput: Schedule:Year=\"SCHEDULE RULESET 13\", Blank Schedule Type Limits Name input -- will not be validated.\n   ** Warning ** ProcessScheduleInput: Schedule:Year=\"SCHEDULE RULESET 14\", Blank Schedule Type Limits Name input -- will not be validated.\n   ** Warning ** ProcessScheduleInput: Schedule:Year=\"SCHEDULE RULESET 15\", Blank Schedule Type Limits Name input -- will not be validated.\n   ** Warning ** ProcessScheduleInput: Schedule:Year=\"SCHEDULE RULESET 16\", Blank Schedule Type Limits Name input -- will not be validated.\n   ** Warning ** ProcessScheduleInput: Schedule:Year=\"SCHEDULE RULESET 17\", Blank Schedule Type Limits Name input -- will not be validated.\n   ** Warning ** ProcessScheduleInput: Schedule:Year=\"SCHEDULE RULESET 3\", Blank Schedule Type Limits Name input -- will not be validated.\n   ** Warning ** ProcessScheduleInput: Schedule:Year=\"SCHEDULE RULESET 4\", Blank Schedule Type Limits Name input -- will not be validated.\n   ** Warning ** ProcessScheduleInput: Schedule:Year=\"SCHEDULE RULESET 5\", Blank Schedule Type Limits Name input -- will not be validated.\n   ** Warning ** ProcessScheduleInput: Schedule:Year=\"SCHEDULE RULESET 6\", Blank Schedule Type Limits Name input -- will not be validated.\n   ** Warning ** ProcessScheduleInput: Schedule:Year=\"SCHEDULE RULESET 7\", Blank Schedule Type Limits Name input -- will not be validated.\n   ** Warning ** ProcessScheduleInput: Schedule:Year=\"SCHEDULE RULESET 8\", Blank Schedule Type Limits Name input -- will not be validated.\n   ** Warning ** ProcessScheduleInput: Schedule:Year=\"SCHEDULE RULESET 9\", Blank Schedule Type Limits Name input -- will not be validated.\n   ** Warning ** ProcessScheduleInput: Schedule:Constant=\"ALWAYS OFF DISCRETE\", Blank Schedule Type Limits Name input -- will not be validated.\n   ** Warning ** ProcessScheduleInput: Schedule:Constant=\"ALWAYS ON CONTINUOUS\", Blank Schedule Type Limits Name input -- will not be validated.\n   ** Warning ** CheckUsedConstructions: There are 22 nominally unused constructions in input.\n   **   ~~~   ** For explicit details on each unused construction, use Output:Diagnostics,DisplayExtraWarnings;\n   ************* Beginning System Sizing Calculations\n   ************* Beginning Plant Sizing Calculations\n   ** Warning ** GetDXCoils: Coil:Cooling:DX:SingleSpeed=\"COIL COOLING DX SINGLE SPEED 5 16KBTU/HR 14.0SEER\", invalid\n   **   ~~~   ** ...Part Load Fraction Correlation Curve Name = DXCOOL-NECB2011-REF-COOLPLFFPLR 4 has out of range value.\n   **   ~~~   ** ...Curve maximum must be <= 1.0, curve max at PLR = 0.99 is 1.015\n   **   ~~~   ** ...Setting curve maximum to 1.0 and simulation continues.\n   ** Warning ** GetDXCoils: Coil:Cooling:DX:SingleSpeed=\"COIL COOLING DX SINGLE SPEED 4 22KBTU/HR 14.0SEER\", invalid\n   **   ~~~   ** ...Part Load Fraction Correlation Curve Name = DXCOOL-NECB2011-REF-COOLPLFFPLR 3 has out of range value.\n   **   ~~~   ** ...Curve maximum must be <= 1.0, curve max at PLR = 0.99 is 1.015\n   **   ~~~   ** ...Setting curve maximum to 1.0 and simulation continues.\n   ** Warning ** GetDXCoils: Coil:Cooling:DX:SingleSpeed=\"COIL COOLING DX SINGLE SPEED 2 18KBTU/HR 14.0SEER\", invalid\n   **   ~~~   ** ...Part Load Fraction Correlation Curve Name = DXCOOL-NECB2011-REF-COOLPLFFPLR 1 has out of range value.\n   **   ~~~   ** ...Curve maximum must be <= 1.0, curve max at PLR = 0.99 is 1.015\n   **   ~~~   ** ...Setting curve maximum to 1.0 and simulation continues.\n   ** Warning ** GetDXCoils: Coil:Cooling:DX:SingleSpeed=\"COIL COOLING DX SINGLE SPEED 1 15KBTU/HR 14.0SEER\", invalid\n   **   ~~~   ** ...Part Load Fraction Correlation Curve Name = DXCOOL-NECB2011-REF-COOLPLFFPLR has out of range value.\n   **   ~~~   ** ...Curve maximum must be <= 1.0, curve max at PLR = 0.99 is 1.015\n   **   ~~~   ** ...Setting curve maximum to 1.0 and simulation continues.\n   ** Warning ** GetDXCoils: Coil:Cooling:DX:SingleSpeed=\"COIL COOLING DX SINGLE SPEED 3 20KBTU/HR 14.0SEER\", invalid\n   **   ~~~   ** ...Part Load Fraction Correlation Curve Name = DXCOOL-NECB2011-REF-COOLPLFFPLR 2 has out of range value.\n   **   ~~~   ** ...Curve maximum must be <= 1.0, curve max at PLR = 0.99 is 1.015\n   **   ~~~   ** ...Setting curve maximum to 1.0 and simulation continues.\n   ** Warning ** The Standard Ratings is calculated for Coil:Cooling:DX:SingleSpeed = COIL COOLING DX SINGLE SPEED 5 16KBTU/HR 14.0SEER but not at the AHRI test condition due to curve out of bound.\n   **   ~~~   **  Review the Standard Ratings calculations in the Engineering Reference for this coil type. Also, use Output:Diagnostics, DisplayExtraWarnings for further guidance.\n   ** Warning ** The Standard Ratings is calculated for Coil:Cooling:DX:SingleSpeed = COIL COOLING DX SINGLE SPEED 4 22KBTU/HR 14.0SEER but not at the AHRI test condition due to curve out of bound.\n   **   ~~~   **  Review the Standard Ratings calculations in the Engineering Reference for this coil type. Also, use Output:Diagnostics, DisplayExtraWarnings for further guidance.\n   ** Warning ** The Standard Ratings is calculated for Coil:Cooling:DX:SingleSpeed = COIL COOLING DX SINGLE SPEED 2 18KBTU/HR 14.0SEER but not at the AHRI test condition due to curve out of bound.\n   **   ~~~   **  Review the Standard Ratings calculations in the Engineering Reference for this coil type. Also, use Output:Diagnostics, DisplayExtraWarnings for further guidance.\n   ** Warning ** The Standard Ratings is calculated for Coil:Cooling:DX:SingleSpeed = COIL COOLING DX SINGLE SPEED 1 15KBTU/HR 14.0SEER but not at the AHRI test condition due to curve out of bound.\n   **   ~~~   **  Review the Standard Ratings calculations in the Engineering Reference for this coil type. Also, use Output:Diagnostics, DisplayExtraWarnings for further guidance.\n   ** Warning ** The Standard Ratings is calculated for Coil:Cooling:DX:SingleSpeed = COIL COOLING DX SINGLE SPEED 3 20KBTU/HR 14.0SEER but not at the AHRI test condition due to curve out of bound.\n   **   ~~~   **  Review the Standard Ratings calculations in the Engineering Reference for this coil type. Also, use Output:Diagnostics, DisplayExtraWarnings for further guidance.\n   ** Warning ** Check input. Pump nominal power or motor efficiency is set to 0, for pump=SERVICE WATER LOOP PUMP\n   ** Warning ** Output:Meter: invalid Name=\"DISTRICTCOOLING:FACILITY\" - not found.\n   ** Warning ** Output:Meter: invalid Name=\"DISTRICTHEATING:FACILITY\" - not found.\n   ** Warning ** Output:Meter:MeterFileOnly requested for \"Electricity:Facility\" (TimeStep), already on \"Output:Meter\". Will report to both eplusout.eso and eplusout.mtr\n   ************* Testing Individual Branch Integrity\n   ************* All Branches passed integrity testing\n   ************* Testing Individual Supply Air Path Integrity\n   ************* All Supply Air Paths passed integrity testing\n   ************* Testing Individual Return Air Path Integrity\n   ************* All Return Air Paths passed integrity testing\n   ************* No node connection errors were found.\n   ************* Beginning Simulation\n   ** Warning ** CalcDoe2DXCoil: Coil:Cooling:DX:SingleSpeed \"COIL COOLING DX SINGLE SPEED 4 22KBTU/HR 14.0SEER\" - Air-cooled condenser inlet dry-bulb temperature below 0 C. Outdoor dry-bulb temperature = -18.83\n   **   ~~~   **  ... Occurrence info = RUN PERIOD 1, 01/02 06:03 - 06:05\n   **   ~~~   ** ... Operation at low ambient temperatures may require special performance curves.\n   ** Warning ** CalcDoe2DXCoil: Coil:Cooling:DX:SingleSpeed \"COIL COOLING DX SINGLE SPEED 1 15KBTU/HR 14.0SEER\" - Air-cooled condenser inlet dry-bulb temperature below 0 C. Outdoor dry-bulb temperature = -18.83\n   **   ~~~   **  ... Occurrence info = RUN PERIOD 1, 01/02 06:03 - 06:05\n   **   ~~~   ** ... Operation at low ambient temperatures may require special performance curves.\n   ** Warning ** CalcDoe2DXCoil: Coil:Cooling:DX:SingleSpeed \"COIL COOLING DX SINGLE SPEED 1 15KBTU/HR 14.0SEER\" - Full load outlet air dry-bulb temperature < 2C. This indicates the possibility of coil frost/freeze. Outlet temperature = -1.21 C.\n   **   ~~~   **  ...Occurrence info = RUN PERIOD 1, 01/02 06:03 - 06:05\n   **   ~~~   ** ... Possible reasons for low outlet air dry-bulb temperatures are: This DX coil\n   **   ~~~   **    1) may have a low inlet air dry-bulb temperature. Inlet air temperature = 12.511 C.\n   **   ~~~   **    2) may have a low air flow rate per watt of cooling capacity. Check inputs.\n   **   ~~~   **    3) is used as part of a HX assisted cooling coil which uses a high sensible effectiveness. Check inputs.\n   ** Warning ** CalcDoe2DXCoil: Coil:Cooling:DX:SingleSpeed \"COIL COOLING DX SINGLE SPEED 3 20KBTU/HR 14.0SEER\" - Air-cooled condenser inlet dry-bulb temperature below 0 C. Outdoor dry-bulb temperature = -18.83\n   **   ~~~   **  ... Occurrence info = RUN PERIOD 1, 01/02 06:03 - 06:05\n   **   ~~~   ** ... Operation at low ambient temperatures may require special performance curves.\n   ** Warning ** CalcDoe2DXCoil: Coil:Cooling:DX:SingleSpeed \"COIL COOLING DX SINGLE SPEED 5 16KBTU/HR 14.0SEER\" - Air-cooled condenser inlet dry-bulb temperature below 0 C. Outdoor dry-bulb temperature = -16.55\n   **   ~~~   **  ... Occurrence info = RUN PERIOD 1, 01/02 21:15 - 21:17\n   **   ~~~   ** ... Operation at low ambient temperatures may require special performance curves.\n   ** Warning ** CalcDoe2DXCoil: Coil:Cooling:DX:SingleSpeed \"COIL COOLING DX SINGLE SPEED 5 16KBTU/HR 14.0SEER\" - Full load outlet air dry-bulb temperature < 2C. This indicates the possibility of coil frost/freeze. Outlet temperature = -2.01 C.\n   **   ~~~   **  ...Occurrence info = RUN PERIOD 1, 01/02 21:15 - 21:17\n   **   ~~~   ** ... Possible reasons for low outlet air dry-bulb temperatures are: This DX coil\n   **   ~~~   **    1) may have a low inlet air dry-bulb temperature. Inlet air temperature = 11.676 C.\n   **   ~~~   **    2) may have a low air flow rate per watt of cooling capacity. Check inputs.\n   **   ~~~   **    3) is used as part of a HX assisted cooling coil which uses a high sensible effectiveness. Check inputs.\n   ** Warning ** CalcDoe2DXCoil: Coil:Cooling:DX:SingleSpeed \"COIL COOLING DX SINGLE SPEED 2 18KBTU/HR 14.0SEER\" - Air-cooled condenser inlet dry-bulb temperature below 0 C. Outdoor dry-bulb temperature = -16.55\n   **   ~~~   **  ... Occurrence info = RUN PERIOD 1, 01/02 21:15 - 21:17\n   **   ~~~   ** ... Operation at low ambient temperatures may require special performance curves.\n   ** Warning ** CalcDoe2DXCoil: Coil:Cooling:DX:SingleSpeed \"COIL COOLING DX SINGLE SPEED 2 18KBTU/HR 14.0SEER\" - Full load outlet air dry-bulb temperature < 2C. This indicates the possibility of coil frost/freeze. Outlet temperature = 1.64 C.\n   **   ~~~   **  ...Occurrence info = RUN PERIOD 1, 01/02 21:30 - 21:35\n   **   ~~~   ** ... Possible reasons for low outlet air dry-bulb temperatures are: This DX coil\n   **   ~~~   **    1) may have a low inlet air dry-bulb temperature. Inlet air temperature = 15.321 C.\n   **   ~~~   **    2) may have a low air flow rate per watt of cooling capacity. Check inputs.\n   **   ~~~   **    3) is used as part of a HX assisted cooling coil which uses a high sensible effectiveness. Check inputs.\n   ************* Simulation Error Summary *************\n   ************* There are 9 unused schedules in input.\n   ************* There are 9 unused week schedules in input.\n   ************* There are 16 unused day schedules in input.\n   ************* Use Output:Diagnostics,DisplayUnusedSchedules; to see them.\n   *************\n   ************* ===== Recurring Error Summary =====\n   ************* The following recurring error messages occurred.\n   *************\n   *************  ** Warning ** CalcDoe2DXCoil: Coil:Cooling:DX:SingleSpeed=\"COIL COOLING DX SINGLE SPEED 4 22KBTU/HR 14.0SEER\" - Low condenser dry-bulb temperature error continues...\n   *************  **   ~~~   **   This error occurred 402 total times;\n   *************  **   ~~~   **   during Warmup 0 times;\n   *************  **   ~~~   **   during Sizing 0 times.\n   *************  **   ~~~   **   Max=-2.500000E-002 [C]  Min=-35.975 [C]\n   *************\n   *************  ** Warning ** CalcDoe2DXCoil: Coil:Cooling:DX:SingleSpeed=\"COIL COOLING DX SINGLE SPEED 1 15KBTU/HR 14.0SEER\" - Low condenser dry-bulb temperature error continues...\n   *************  **   ~~~   **   This error occurred 417 total times;\n   *************  **   ~~~   **   during Warmup 0 times;\n   *************  **   ~~~   **   during Sizing 0 times.\n   *************  **   ~~~   **   Max=-2.500000E-002 [C]  Min=-21.45 [C]\n   *************\n   *************  ** Warning ** CalcDoe2DXCoil: Coil:Cooling:DX:SingleSpeed=\"COIL COOLING DX SINGLE SPEED 1 15KBTU/HR 14.0SEER\" - Full load outlet temperature indicates a possibility of frost/freeze error continues. Outlet air temperature statistics follow:\n   *************  **   ~~~   **   This error occurred 195 total times;\n   *************  **   ~~~   **   during Warmup 0 times;\n   *************  **   ~~~   **   during Sizing 0 times.\n   *************  **   ~~~   **   Max=1.999347  Min=-1.948336\n   *************\n   *************  ** Warning ** CalcDoe2DXCoil: Coil:Cooling:DX:SingleSpeed=\"COIL COOLING DX SINGLE SPEED 3 20KBTU/HR 14.0SEER\" - Low condenser dry-bulb temperature error continues...\n   *************  **   ~~~   **   This error occurred 254 total times;\n   *************  **   ~~~   **   during Warmup 0 times;\n   *************  **   ~~~   **   during Sizing 0 times.\n   *************  **   ~~~   **   Max=-1.387779E-017 [C]  Min=-35.975 [C]\n   *************\n   *************  ** Warning ** CalcDoe2DXCoil: Coil:Cooling:DX:SingleSpeed=\"COIL COOLING DX SINGLE SPEED 5 16KBTU/HR 14.0SEER\" - Low condenser dry-bulb temperature error continues...\n   *************  **   ~~~   **   This error occurred 396 total times;\n   *************  **   ~~~   **   during Warmup 0 times;\n   *************  **   ~~~   **   during Sizing 0 times.\n   *************  **   ~~~   **   Max=-2.500000E-002 [C]  Min=-17.55 [C]\n   *************\n   *************  ** Warning ** CalcDoe2DXCoil: Coil:Cooling:DX:SingleSpeed=\"COIL COOLING DX SINGLE SPEED 5 16KBTU/HR 14.0SEER\" - Full load outlet temperature indicates a possibility of frost/freeze error continues. Outlet air temperature statistics follow:\n   *************  **   ~~~   **   This error occurred 316 total times;\n   *************  **   ~~~   **   during Warmup 0 times;\n   *************  **   ~~~   **   during Sizing 0 times.\n   *************  **   ~~~   **   Max=1.997037  Min=-2.008072\n   *************\n   *************  ** Warning ** CalcDoe2DXCoil: Coil:Cooling:DX:SingleSpeed=\"COIL COOLING DX SINGLE SPEED 2 18KBTU/HR 14.0SEER\" - Low condenser dry-bulb temperature error continues...\n   *************  **   ~~~   **   This error occurred 626 total times;\n   *************  **   ~~~   **   during Warmup 0 times;\n   *************  **   ~~~   **   during Sizing 0 times.\n   *************  **   ~~~   **   Max=-2.500000E-002 [C]  Min=-30.85 [C]\n   *************\n   *************  ** Warning ** CalcDoe2DXCoil: Coil:Cooling:DX:SingleSpeed=\"COIL COOLING DX SINGLE SPEED 2 18KBTU/HR 14.0SEER\" - Full load outlet temperature indicates a possibility of frost/freeze error continues. Outlet air temperature statistics follow:\n   *************  **   ~~~   **   This error occurred 15 total times;\n   *************  **   ~~~   **   during Warmup 0 times;\n   *************  **   ~~~   **   during Sizing 0 times.\n   *************  **   ~~~   **   Max=1.914675  Min=0.979678\n   *************\n   *************\n   ************* ===== Final Error Summary =====\n   ************* The following error categories occurred.  Consider correcting or noting.\n   ************* Nominally Unused Constructions\n   ************* ..The nominally unused constructions warning is provided to alert you to potential conditions that can cause\n   ************* ..extra time during simulation. Each construction is calculated by the algorithm indicated in the HeatBalanceAlgorithm\n   ************* ..object. You may remove the constructions indicated (when you use the DisplayExtraWarnings option).\n   *************\n   ************* EnergyPlus Warmup Error Summary. During Warmup: 0 Warning; 0 Severe Errors.\n   ************* EnergyPlus Sizing Error Summary. During Sizing: 41 Warning; 0 Severe Errors.\n   ************* EnergyPlus Completed Successfully-- 2677 Warning; 0 Severe Errors; Elapsed Time=00hr 00min 33.45sec\n",
   "file_format_version" : "0.0.1",
   "file_paths" : [ "../weather", "../seeds", "../seed" ],
   "hash" : "2D833FC0",
   "measure_paths" : [ "../measures" ],
   "name" : "LHS Autogenerated 41",
   "osa_id" : "4fef0e0f-5396-4c55-a6e1-2cd6803db3ab",
   "osd_id" : "0828f577-3fa0-426c-aaa5-1e89caf3563b",
   "run_directory" : "./run",
   "seed_file" : "seed.osm",
   "started_at" : "20170710T182357Z",
   "steps" : [
      {
         "arguments" : {
            "__SKIP__" : false,
            "building_type" : "SmallOffice",
            "climate_zone" : "NECB HDD Method",
            "epw_file" : "CAN_BC_Prince.George.718960_CWEC.epw",
            "template" : "NECB 2011"
         },
         "measure_dir_name" : "create_prototype_building",
         "name" : "create_prototype_building",
         "result" : {
            "completed_at" : "20170710T182507Z",
            "measure_class_name" : "CreatePrototypeBuilding",
            "measure_display_name" : "Create Prototype Building",
            "measure_name" : "create_prototype_building",
            "measure_taxonomy" : "Whole Building.Space Types",
            "measure_type" : "ModelMeasure",
            "measure_uid" : "ae90fsd7-a651-467a-bc8d-29d310b0f937",
            "measure_version_id" : "c6ec5c18-5595-459f-a082-09a19c8c869c",
            "measure_version_modified" : "20170519T182315Z",
            "measure_xml_checksum" : "057E8D9D",
            "started_at" : "20170710T182359Z",
            "stderr" : "",
            "stdout" : "[OpenStudio.Measure] <0> OSArgumentVector is deprecated, use OpenStudio::Measure::OSArgumentVector instead.\n[openstudio.EpwFile] <0> Successive data points (1988-Jan-31 to 1976-Feb-01, ending on line 753) are greater than 1 day apart in EPW file '/usr/local/bundle/bundler/gems/openstudio-standards-f448df66933d/openstudio-standards/data/weather/CAN_BC_Prince.George.718960_CWEC.epw'. Data will be treated as typical (TMY)\n[openstudio.setFileExtension] <0> Path p, '/usr/local/bundle/bundler/gems/openstudio-standards-f448df66933d/openstudio-standards/data/weather/CAN_BC_Prince.George.718960_CWEC.ddy', has an unexpected file extension. Was expecting 'idf'.\n[openstudio.model.YearDescription] <1> 'UseWeatherFile' is not yet a supported option for YearDescription\n[openstudio.model.YearDescription] <1> 'UseWeatherFile' is not yet a supported option for YearDescription\n[openstudio.setFileExtension] <0> Path p, '/usr/local/bundle/bundler/gems/openstudio-standards-f448df66933d/openstudio-standards/data/weather/CAN_BC_Prince.George.718960_CWEC.ddy', has an unexpected file extension. Was expecting 'idf'.\n[openstudio.model.YearDescription] <1> 'UseWeatherFile' is not yet a supported option for YearDescription\n[openstudio.model.YearDescription] <1> 'UseWeatherFile' is not yet a supported option for YearDescription\n[openstudio.EpwFile] <0> Successive data points (1988-Jan-31 to 1976-Feb-01, ending on line 753) are greater than 1 day apart in EPW file '/usr/local/bundle/bundler/gems/openstudio-standards-f448df66933d/openstudio-standards/data/weather/CAN_BC_Prince.George.718960_CWEC.epw'. Data will be treated as typical (TMY)\n[openstudio.weather.Model] <0> Could not find ground temperatures; will use generic temperatures, which will skew results.\n[openstudio.setFileExtension] <0> Path p, '/usr/local/bundle/bundler/gems/openstudio-standards-f448df66933d/openstudio-standards/data/weather/CAN_BC_Prince.George.718960_CWEC.ddy', has an unexpected file extension. Was expecting 'idf'.\n[openstudio.model.YearDescription] <1> 'UseWeatherFile' is not yet a supported option for YearDescription\n[openstudio.model.YearDescription] <1> 'UseWeatherFile' is not yet a supported option for YearDescription\n[openstudio.EpwFile] <0> Successive data points (1988-Jan-31 to 1976-Feb-01, ending on line 753) are greater than 1 day apart in EPW file '/usr/local/bundle/bundler/gems/openstudio-standards-f448df66933d/openstudio-standards/data/weather/CAN_BC_Prince.George.718960_CWEC.epw'. Data will be treated as typical (TMY)\n[openstudio.setFileExtension] <0> Path p, '/usr/local/bundle/bundler/gems/openstudio-standards-f448df66933d/openstudio-standards/data/weather/CAN_BC_Prince.George.718960_CWEC.ddy', has an unexpected file extension. Was expecting 'idf'.\n[openstudio.model.YearDescription] <1> 'UseWeatherFile' is not yet a supported option for YearDescription\n[openstudio.model.YearDescription] <1> 'UseWeatherFile' is not yet a supported option for YearDescription\n[openstudio.setFileExtension] <0> Path p, '/usr/local/bundle/bundler/gems/openstudio-standards-f448df66933d/openstudio-standards/data/weather/CAN_BC_Prince.George.718960_CWEC.ddy', has an unexpected file extension. Was expecting 'idf'.\n[openstudio.model.YearDescription] <1> 'UseWeatherFile' is not yet a supported option for YearDescription\n[openstudio.model.YearDescription] <1> 'UseWeatherFile' is not yet a supported option for YearDescription\n[openstudio.EpwFile] <0> Successive data points (1988-Jan-31 to 1976-Feb-01, ending on line 753) are greater than 1 day apart in EPW file '/usr/local/bundle/bundler/gems/openstudio-standards-f448df66933d/openstudio-standards/data/weather/CAN_BC_Prince.George.718960_CWEC.epw'. Data will be treated as typical (TMY)\n[openstudio.setFileExtension] <0> Path p, '/usr/local/bundle/bundler/gems/openstudio-standards-f448df66933d/openstudio-standards/data/weather/CAN_BC_Prince.George.718960_CWEC.ddy', has an unexpected file extension. Was expecting 'idf'.\n[openstudio.model.YearDescription] <1> 'UseWeatherFile' is not yet a supported option for YearDescription\n[openstudio.model.YearDescription] <1> 'UseWeatherFile' is not yet a supported option for YearDescription\n[openstudio.setFileExtension] <0> Path p, '/usr/local/bundle/bundler/gems/openstudio-standards-f448df66933d/openstudio-standards/data/weather/CAN_BC_Prince.George.718960_CWEC.ddy', has an unexpected file extension. Was expecting 'idf'.\n[openstudio.model.YearDescription] <1> 'UseWeatherFile' is not yet a supported option for YearDescription\n[openstudio.model.YearDescription] <1> 'UseWeatherFile' is not yet a supported option for YearDescription\n[utilities.idf.WorkspaceObject] <0> Object of type 'Schedule:Constant' and named 'Always Off Discrete', points to an object named OnOff 1 from field 1, but that object cannot be located.\n[utilities.idf.WorkspaceObject] <0> Object of type 'Schedule:Constant' and named 'Always On Continuous', points to an object named Fractional 1 from field 1, but that object cannot be located.\n[utilities.idf.WorkspaceObject] <0> Object of type 'Schedule:Constant' and named 'Always Off Discrete', points to an object named OnOff 1 from field 1, but that object cannot be located.\n[utilities.idf.WorkspaceObject] <0> Object of type 'Schedule:Constant' and named 'Always On Continuous', points to an object named Fractional 1 from field 1, but that object cannot be located.\n[openstudio.standards.Fan] <0> For Fan Constant Volume 1, there is no greater nominal HP.  Use the efficiency of the largest motor category.\n[openstudio.standards.Fan] <0> For Fan Constant Volume 2, there is no greater nominal HP.  Use the efficiency of the largest motor category.\n[openstudio.standards.Fan] <0> For Fan Constant Volume 3, there is no greater nominal HP.  Use the efficiency of the largest motor category.\n[openstudio.standards.Fan] <0> For Fan Constant Volume 4, there is no greater nominal HP.  Use the efficiency of the largest motor category.\n[openstudio.standards.Fan] <0> For Fan Constant Volume 5, there is no greater nominal HP.  Use the efficiency of the largest motor category.\n[openstudio.EpwFile] <0> Successive data points (1988-Jan-31 to 1976-Feb-01, ending on line 753) are greater than 1 day apart in EPW file '/usr/local/bundle/bundler/gems/openstudio-standards-f448df66933d/openstudio-standards/data/weather/CAN_BC_Prince.George.718960_CWEC.epw'. Data will be treated as typical (TMY)\n[openstudio.setFileExtension] <0> Path p, '/usr/local/bundle/bundler/gems/openstudio-standards-f448df66933d/openstudio-standards/data/weather/CAN_BC_Prince.George.718960_CWEC.ddy', has an unexpected file extension. Was expecting 'idf'.\n[openstudio.model.YearDescription] <1> 'UseWeatherFile' is not yet a supported option for YearDescription\n[openstudio.model.YearDescription] <1> 'UseWeatherFile' is not yet a supported option for YearDescription\n[openstudio.setFileExtension] <0> Path p, '/usr/local/bundle/bundler/gems/openstudio-standards-f448df66933d/openstudio-standards/data/weather/CAN_BC_Prince.George.718960_CWEC.ddy', has an unexpected file extension. Was expecting 'idf'.\n[openstudio.model.YearDescription] <1> 'UseWeatherFile' is not yet a supported option for YearDescription\n[openstudio.model.YearDescription] <1> 'UseWeatherFile' is not yet a supported option for YearDescription\n[openstudio.EpwFile] <0> Successive data points (1988-Jan-31 to 1976-Feb-01, ending on line 753) are greater than 1 day apart in EPW file '/usr/local/bundle/bundler/gems/openstudio-standards-f448df66933d/openstudio-standards/data/weather/CAN_BC_Prince.George.718960_CWEC.epw'. Data will be treated as typical (TMY)\n[openstudio.setFileExtension] <0> Path p, '/usr/local/bundle/bundler/gems/openstudio-standards-f448df66933d/openstudio-standards/data/weather/CAN_BC_Prince.George.718960_CWEC.ddy', has an unexpected file extension. Was expecting 'idf'.\n[openstudio.model.YearDescription] <1> 'UseWeatherFile' is not yet a supported option for YearDescription\n[openstudio.model.YearDescription] <1> 'UseWeatherFile' is not yet a supported option for YearDescription\n[openstudio.setFileExtension] <0> Path p, '/usr/local/bundle/bundler/gems/openstudio-standards-f448df66933d/openstudio-standards/data/weather/CAN_BC_Prince.George.718960_CWEC.ddy', has an unexpected file extension. Was expecting 'idf'.\n[openstudio.model.YearDescription] <1> 'UseWeatherFile' is not yet a supported option for YearDescription\n[openstudio.model.YearDescription] <1> 'UseWeatherFile' is not yet a supported option for YearDescription\n[openstudio.EpwFile] <0> Successive data points (1988-Jan-31 to 1976-Feb-01, ending on line 753) are greater than 1 day apart in EPW file '/usr/local/bundle/bundler/gems/openstudio-standards-f448df66933d/openstudio-standards/data/weather/CAN_BC_Prince.George.718960_CWEC.epw'. Data will be treated as typical (TMY)\n[openstudio.setFileExtension] <0> Path p, '/usr/local/bundle/bundler/gems/openstudio-standards-f448df66933d/openstudio-standards/data/weather/CAN_BC_Prince.George.718960_CWEC.ddy', has an unexpected file extension. Was expecting 'idf'.\n[openstudio.model.YearDescription] <1> 'UseWeatherFile' is not yet a supported option for YearDescription\n[openstudio.model.YearDescription] <1> 'UseWeatherFile' is not yet a supported option for YearDescription\n[openstudio.setFileExtension] <0> Path p, '/usr/local/bundle/bundler/gems/openstudio-standards-f448df66933d/openstudio-standards/data/weather/CAN_BC_Prince.George.718960_CWEC.ddy', has an unexpected file extension. Was expecting 'idf'.\n[openstudio.model.YearDescription] <1> 'UseWeatherFile' is not yet a supported option for YearDescription\n[openstudio.model.YearDescription] <1> 'UseWeatherFile' is not yet a supported option for YearDescription\n[openstudio.EpwFile] <0> Successive data points (1988-Jan-31 to 1976-Feb-01, ending on line 753) are greater than 1 day apart in EPW file '/usr/local/bundle/bundler/gems/openstudio-standards-f448df66933d/openstudio-standards/data/weather/CAN_BC_Prince.George.718960_CWEC.epw'. Data will be treated as typical (TMY)\n[openstudio.setFileExtension] <0> Path p, '/usr/local/bundle/bundler/gems/openstudio-standards-f448df66933d/openstudio-standards/data/weather/CAN_BC_Prince.George.718960_CWEC.ddy', has an unexpected file extension. Was expecting 'idf'.\n[openstudio.model.YearDescription] <1> 'UseWeatherFile' is not yet a supported option for YearDescription\n[openstudio.model.YearDescription] <1> 'UseWeatherFile' is not yet a supported option for YearDescription\n[openstudio.setFileExtension] <0> Path p, '/usr/local/bundle/bundler/gems/openstudio-standards-f448df66933d/openstudio-standards/data/weather/CAN_BC_Prince.George.718960_CWEC.ddy', has an unexpected file extension. Was expecting 'idf'.\n[openstudio.model.YearDescription] <1> 'UseWeatherFile' is not yet a supported option for YearDescription\n[openstudio.model.YearDescription] <1> 'UseWeatherFile' is not yet a supported option for YearDescription\n[openstudio.EpwFile] <0> Successive data points (1988-Jan-31 to 1976-Feb-01, ending on line 753) are greater than 1 day apart in EPW file '/usr/local/bundle/bundler/gems/openstudio-standards-f448df66933d/openstudio-standards/data/weather/CAN_BC_Prince.George.718960_CWEC.epw'. Data will be treated as typical (TMY)\n[openstudio.setFileExtension] <0> Path p, '/usr/local/bundle/bundler/gems/openstudio-standards-f448df66933d/openstudio-standards/data/weather/CAN_BC_Prince.George.718960_CWEC.ddy', has an unexpected file extension. Was expecting 'idf'.\n[openstudio.model.YearDescription] <1> 'UseWeatherFile' is not yet a supported option for YearDescription\n[openstudio.model.YearDescription] <1> 'UseWeatherFile' is not yet a supported option for YearDescription\n[openstudio.setFileExtension] <0> Path p, '/usr/local/bundle/bundler/gems/openstudio-standards-f448df66933d/openstudio-standards/data/weather/CAN_BC_Prince.George.718960_CWEC.ddy', has an unexpected file extension. Was expecting 'idf'.\n[openstudio.model.YearDescription] <1> 'UseWeatherFile' is not yet a supported option for YearDescription\n[openstudio.model.YearDescription] <1> 'UseWeatherFile' is not yet a supported option for YearDescription\n[openstudio.standards.Fan] <0> For Fan Constant Volume 1, there is no greater nominal HP.  Use the efficiency of the largest motor category.\n[openstudio.standards.Fan] <0> For Fan Constant Volume 2, there is no greater nominal HP.  Use the efficiency of the largest motor category.\n[openstudio.standards.Fan] <0> For Fan Constant Volume 3, there is no greater nominal HP.  Use the efficiency of the largest motor category.\n[openstudio.standards.Fan] <0> For Fan Constant Volume 4, there is no greater nominal HP.  Use the efficiency of the largest motor category.\n[openstudio.standards.Fan] <0> For Fan Constant Volume 5, there is no greater nominal HP.  Use the efficiency of the largest motor category.\n",
            "step_errors" : [],
            "step_files" : [],
            "step_info" : [
               "Started adding geometry",
               "Finished adding geometry",
               "Started adding weather file for climate zone: NECB HDD Method.",
               "Template =",
               "Setting Attic to Space Function.- undefined -",
               "Setting Core_ZN to Space Function.Office - enclosed",
               "Setting Perimeter_ZN_1 to Space Function.Office - enclosed",
               "Setting Perimeter_ZN_2 to Space Function.Office - enclosed",
               "Setting Perimeter_ZN_3 to Space Function.Office - enclosed",
               "Setting Perimeter_ZN_4 to Space Function.Office - enclosed",
               "Started applying space types (loads)",
               "Space Function - undefined - had no ventilation specification, one has been created.",
               "Space Function - undefined - had no infiltration objects, one has been created.",
               "Space Function - undefined - set infiltration to 0.0 per ft^2 exterior surface area.",
               "Space Function - undefined - set infiltration schedule to Always On.",
               "Space Function Office - enclosed had no people, one has been created.",
               "Space Function Office - enclosed set occupancy to 4.65 people/1000 ft^2.",
               "Space Function Office - enclosed had no lights, one has been created.",
               "Space Function Office - enclosed set LPD to 1.105536975 W/ft^2.",
               "Space Function Office - enclosed had no electric equipment, one has been created.",
               "Space Function Office - enclosed set electric EPD to 0.696767001 W/ft^2.",
               "Space Function Office - enclosed had no ventilation specification, one has been created.",
               "Space Function Office - enclosed set ventilation per area to 0.085 cfm/ft^2.",
               "Space Function Office - enclosed had no infiltration objects, one has been created.",
               "Space Function Office - enclosed set infiltration to 0.0 per ft^2 exterior surface area.",
               "Space Function Office - enclosed set occupancy schedule to NECB-A-Occupancy.",
               "Space Function Office - enclosed set occupant activity schedule to NECB-Activity.",
               "Space Function Office - enclosed set lighting schedule to NECB-A-Lighting.",
               "Space Function Office - enclosed set electric equipment schedule to NECB-A-Electric-Equipment.",
               "Space Function Office - enclosed set infiltration schedule to Always On.",
               "Space Function Office - enclosed set heating setpoint schedule to NECB-A-Thermostat Setpoint-Heating.",
               "Space Function Office - enclosed set cooling setpoint schedule to NECB-A-Thermostat Setpoint-Cooling.",
               "Finished applying space types (loads)",
               "For NECB 2011, no exterior wall area was found, no infiltration will be added.",
               "Started applying constructions",
               "Adding construction set: NECB 2011-NECB HDD Method-Office--is_residentialNo",
               "Adding construction Typical Insulated Exterior Mass Floor R-15.63.",
               "Adding construction Typical Insulated Exterior Mass Wall R-12.5.",
               "Adding construction Typical Insulated Metal Building Roof R-20.41.",
               "Adding construction Typical Interior Floor.",
               "Adding construction Typical Interior Wall.",
               "Adding construction Typical Interior Ceiling.",
               "Adding construction Typical Insulated Carpeted 6in Slab Floor.",
               "Adding construction U 0.55 SHGC 0.31 Dbl Ref-D Tint 6mm/6mm Air.",
               "Adding construction Typical Insulated Metal Door R-1.43.",
               "Adding construction U 0.35 SHGC 0.35 Dbl LoE (e2-.1) Tint 6mm/13mm Air.",
               "Adding construction Typical Overhead Door R-2.0.",
               "Adding construction U 0.48 SHGC 0.40 Dbl Ref-D Clr 6mm/13mm.",
               "Adding construction Typical Interior Window.",
               "Adding construction Typical Interior Door.",
               "Adding construction Typical Interior Partition.",
               "Finished applying constructions",
               "WWR NonRes = 0%; window = 0 ft2, wall = 0 ft2.",
               "WWR Res = 0%; window = 0 ft2, wall = 0 ft2.",
               "WWR Semiheated = 0%; window = 0 ft2, wall = 0 ft2.",
               "The skylight to roof ratios (SRRs) are: NonRes: 0%, Res: 0%.",
               "Started creating thermal zones",
               "Finished creating thermal zones",
               "Running simulation /mnt/openstudio/analysis_4fef0e0f-5396-4c55-a6e1-2cd6803db3ab/data_point_0828f577-3fa0-426c-aaa5-1e89caf3563b/run/000_create_prototype_building/output/SmallOffice-NECB 2011-NECB HDD Method-CAN_BC_Prince.George.718960_CWEC.epw/SR0.",
               "Finished run.",
               "Started Adding HVAC",
               "Finished adding HVAC",
               "Started Adding Service Water Heating",
               "Adding service water loop.",
               "Adding water heater.",
               "Template =",
               "Finished adding Service Water Heating",
               "Set sizing factors to 1.3 for heating and 1.3 for cooling.",
               "Running simulation /mnt/openstudio/analysis_4fef0e0f-5396-4c55-a6e1-2cd6803db3ab/data_point_0828f577-3fa0-426c-aaa5-1e89caf3563b/run/000_create_prototype_building/output/SmallOffice-NECB 2011-NECB HDD Method-CAN_BC_Prince.George.718960_CWEC.epw/SR1.",
               "Finished run.",
               "Started applying multizone vav OA sizing.",
               "Finished applying multizone vav OA sizing.",
               "Started applying prototype HVAC assumptions.",
               "For Fan Constant Volume 1: allowed_hp = 1.01HP; motor eff = 61.5%; total fan eff = 40% based on 544 cfm.",
               "For Fan Constant Volume 2: allowed_hp = 1.01HP; motor eff = 61.5%; total fan eff = 40% based on 668 cfm.",
               "For Fan Constant Volume 3: allowed_hp = 1.01HP; motor eff = 61.5%; total fan eff = 40% based on 749 cfm.",
               "For Fan Constant Volume 4: allowed_hp = 1.01HP; motor eff = 61.5%; total fan eff = 40% based on 821 cfm.",
               "For Fan Constant Volume 5: allowed_hp = 1.01HP; motor eff = 61.5%; total fan eff = 40% based on 602 cfm.",
               "Sp-Perimeter_ZN_3 Sys-3 Flr-1 Sch-A HPlcmt-north ZN NECB System 3 PSZ does not require an economizer because the total cooling capacity of 14502 Btu/hr is less than the minimum capacity of 68243 Btu/hr.",
               "Sp-Perimeter_ZN_4 Sys-3 Flr-1 Sch-A HPlcmt-west ZN NECB System 3 PSZ does not require an economizer because the total cooling capacity of 19971 Btu/hr is less than the minimum capacity of 68243 Btu/hr.",
               "Sp-Perimeter_ZN_2 Sys-3 Flr-1 Sch-A HPlcmt-east ZN NECB System 3 PSZ does not require an economizer because the total cooling capacity of 17802 Btu/hr is less than the minimum capacity of 68243 Btu/hr.",
               "Sp-Perimeter_ZN_1 Sys-3 Flr-1 Sch-A HPlcmt-south ZN NECB System 3 PSZ does not require an economizer because the total cooling capacity of 21890 Btu/hr is less than the minimum capacity of 68243 Btu/hr.",
               "Sp-Core_ZN Sys-3 Flr-1 Sch-A HPlcmt-core ZN NECB System 3 PSZ does not require an economizer because the total cooling capacity of 16045 Btu/hr is less than the minimum capacity of 68243 Btu/hr.",
               "Finished applying prototype HVAC assumptions.",
               "Started applying HVAC efficiency standards.",
               "For Sp-Core_ZN Sys-3 Flr-1 Sch-A HPlcmt-core ZN NECB System 3 PSZ, ERV not required based on 0% OA flow, design supply air flow of 602cfm, and climate zone NECB HDD Method.",
               "For Sp-Core_ZN Sys-3 Flr-1 Sch-A HPlcmt-core ZN NECB System 3 PSZ, ERV not required based on exhaust heat content.",
               "For NECB 2011 NECB HDD Method:  Sp-Core_ZN Sys-3 Flr-1 Sch-A HPlcmt-core ZN NECB System 3 PSZ: DCV is not required for any system.",
               "For Sp-Core_ZN Sys-3 Flr-1 Sch-A HPlcmt-core ZN NECB System 3 PSZ: Unoccupied fan shutoff not required because system fan HP of 0.61 HP is less than the minimum threshold of 0.75 HP.",
               "For Sp-Core_ZN Sys-3 Flr-1 Sch-A HPlcmt-core ZN NECB System 3 PSZ: Setting motorized OA damper schedule to Always On Discrete.",
               "For Sp-Perimeter_ZN_1 Sys-3 Flr-1 Sch-A HPlcmt-south ZN NECB System 3 PSZ, ERV not required based on 0% OA flow, design supply air flow of 821cfm, and climate zone NECB HDD Method.",
               "For Sp-Perimeter_ZN_1 Sys-3 Flr-1 Sch-A HPlcmt-south ZN NECB System 3 PSZ, ERV not required based on exhaust heat content.",
               "For NECB 2011 NECB HDD Method:  Sp-Perimeter_ZN_1 Sys-3 Flr-1 Sch-A HPlcmt-south ZN NECB System 3 PSZ: DCV is not required for any system.",
               "For Sp-Perimeter_ZN_1 Sys-3 Flr-1 Sch-A HPlcmt-south ZN NECB System 3 PSZ: Annual occupied hours = 2860 hr/yr, assuming a 0.15 occupancy threshold.  This schedule will be used as the HVAC operation schedule.",
               "For Sp-Perimeter_ZN_1 Sys-3 Flr-1 Sch-A HPlcmt-south ZN NECB System 3 PSZ: Setting motorized OA damper schedule to Sp-Perimeter_ZN_1 Sys-3 Flr-1 Sch-A HPlcmt-south ZN NECB System 3 PSZ Occ Sch.",
               "For Sp-Perimeter_ZN_2 Sys-3 Flr-1 Sch-A HPlcmt-east ZN NECB System 3 PSZ, ERV not required based on 0% OA flow, design supply air flow of 668cfm, and climate zone NECB HDD Method.",
               "For Sp-Perimeter_ZN_2 Sys-3 Flr-1 Sch-A HPlcmt-east ZN NECB System 3 PSZ, ERV not required based on exhaust heat content.",
               "For NECB 2011 NECB HDD Method:  Sp-Perimeter_ZN_2 Sys-3 Flr-1 Sch-A HPlcmt-east ZN NECB System 3 PSZ: DCV is not required for any system.",
               "For Sp-Perimeter_ZN_2 Sys-3 Flr-1 Sch-A HPlcmt-east ZN NECB System 3 PSZ: Unoccupied fan shutoff not required because system fan HP of 0.68 HP is less than the minimum threshold of 0.75 HP.",
               "For Sp-Perimeter_ZN_2 Sys-3 Flr-1 Sch-A HPlcmt-east ZN NECB System 3 PSZ: Setting motorized OA damper schedule to Always On Discrete.",
               "For Sp-Perimeter_ZN_3 Sys-3 Flr-1 Sch-A HPlcmt-north ZN NECB System 3 PSZ, ERV not required based on 0% OA flow, design supply air flow of 544cfm, and climate zone NECB HDD Method.",
               "For Sp-Perimeter_ZN_3 Sys-3 Flr-1 Sch-A HPlcmt-north ZN NECB System 3 PSZ, ERV not required based on exhaust heat content.",
               "For NECB 2011 NECB HDD Method:  Sp-Perimeter_ZN_3 Sys-3 Flr-1 Sch-A HPlcmt-north ZN NECB System 3 PSZ: DCV is not required for any system.",
               "For Sp-Perimeter_ZN_3 Sys-3 Flr-1 Sch-A HPlcmt-north ZN NECB System 3 PSZ: Unoccupied fan shutoff not required because system fan HP of 0.55 HP is less than the minimum threshold of 0.75 HP.",
               "For Sp-Perimeter_ZN_3 Sys-3 Flr-1 Sch-A HPlcmt-north ZN NECB System 3 PSZ: Setting motorized OA damper schedule to Always On Discrete.",
               "For Sp-Perimeter_ZN_4 Sys-3 Flr-1 Sch-A HPlcmt-west ZN NECB System 3 PSZ, ERV not required based on 0% OA flow, design supply air flow of 749cfm, and climate zone NECB HDD Method.",
               "For Sp-Perimeter_ZN_4 Sys-3 Flr-1 Sch-A HPlcmt-west ZN NECB System 3 PSZ, ERV not required based on exhaust heat content.",
               "For NECB 2011 NECB HDD Method:  Sp-Perimeter_ZN_4 Sys-3 Flr-1 Sch-A HPlcmt-west ZN NECB System 3 PSZ: DCV is not required for any system.",
               "For Sp-Perimeter_ZN_4 Sys-3 Flr-1 Sch-A HPlcmt-west ZN NECB System 3 PSZ: Annual occupied hours = 2860 hr/yr, assuming a 0.15 occupancy threshold.  This schedule will be used as the HVAC operation schedule.",
               "For Sp-Perimeter_ZN_4 Sys-3 Flr-1 Sch-A HPlcmt-west ZN NECB System 3 PSZ: Setting motorized OA damper schedule to Sp-Perimeter_ZN_4 Sys-3 Flr-1 Sch-A HPlcmt-west ZN NECB System 3 PSZ Occ Sch.",
               "For Fan Constant Volume 1: motor nameplate = 0.3388626489422168HP, motor eff = 61.5%.",
               "For Fan Constant Volume 2: motor nameplate = 0.41599015961793684HP, motor eff = 61.5%.",
               "For Fan Constant Volume 3: motor nameplate = 0.46667320685630775HP, motor eff = 61.5%.",
               "For Fan Constant Volume 4: motor nameplate = 0.511500753951733HP, motor eff = 61.5%.",
               "For Fan Constant Volume 5: motor nameplate = 0.3749276772349512HP, motor eff = 61.5%.",
               "For Service Water Loop Pump: brake hp = 0.0HP, motor nameplate = 0.1HP, motor eff = 70.0%.",
               "For Pump Variable Speed 1: brake hp = 0.11HP, motor nameplate = 1.0HP, motor eff = 85.5%.",
               "For NECB 2011: Coil Cooling DX Single Speed 1: AirCooled All Other Single Package Capacity = 15kBtu/hr; SEER = 14.0",
               "For NECB 2011: Coil Cooling DX Single Speed 2: AirCooled All Other Single Package Capacity = 18kBtu/hr; SEER = 14.0",
               "For NECB 2011: Coil Cooling DX Single Speed 3: AirCooled All Other Single Package Capacity = 20kBtu/hr; SEER = 14.0",
               "For NECB 2011: Coil Cooling DX Single Speed 4: AirCooled All Other Single Package Capacity = 22kBtu/hr; SEER = 14.0",
               "For NECB 2011: Coil Cooling DX Single Speed 5: AirCooled All Other Single Package Capacity = 16kBtu/hr; SEER = 14.0",
               "For NECB 2011: Primary Boiler: Gas Hot Water Capacity = 79kBtu/hr; AFUE = 0.85",
               "For NECB 2011: Secondary Boiler: Gas Hot Water Capacity = 0kBtu/hr; AFUE = 0.85",
               "For NECB 2011: 40.0gal NaturalGas Water Heater - 40kBtu/hr 0.82 Therm Eff; thermal efficiency = 0.82, skin-loss UA = 6Btu/hr",
               "Finished applying HVAC efficiency standards.",
               "Started adding daylighting controls.",
               "For Attic, daylighting control not applicable because no exterior fenestration is present.",
               "For Core_ZN, daylighting control not applicable because no exterior fenestration is present.",
               "Finished adding daylighting controls.",
               "Total Time = 68sec."
            ],
            "step_result" : "Success",
            "step_values" : [
               {
                  "name" : "building_type",
                  "value" : "SmallOffice"
               },
               {
                  "name" : "template",
                  "value" : "NECB 2011"
               },
               {
                  "name" : "climate_zone",
                  "value" : "NECB HDD Method"
               },
               {
                  "name" : "epw_file",
                  "value" : "CAN_BC_Prince.George.718960_CWEC.epw"
               }
            ],
            "step_warnings" : [
               "[openstudio.EpwFile] Successive data points (1988-Jan-31 to 1976-Feb-01, ending on line 753) are greater than 1 day apart in EPW file '/usr/local/bundle/bundler/gems/openstudio-standards-f448df66933d/openstudio-standards/data/weather/CAN_BC_Prince.George.718960_CWEC.epw'. Data will be treated as typical (TMY)",
               "[openstudio.EpwFile] Successive data points (1988-Jan-31 to 1976-Feb-01, ending on line 753) are greater than 1 day apart in EPW file '/usr/local/bundle/bundler/gems/openstudio-standards-f448df66933d/openstudio-standards/data/weather/CAN_BC_Prince.George.718960_CWEC.epw'. Data will be treated as typical (TMY)",
               "[openstudio.weather.Model] Could not find ground temperatures; will use generic temperatures, which will skew results.",
               "[openstudio.EpwFile] Successive data points (1988-Jan-31 to 1976-Feb-01, ending on line 753) are greater than 1 day apart in EPW file '/usr/local/bundle/bundler/gems/openstudio-standards-f448df66933d/openstudio-standards/data/weather/CAN_BC_Prince.George.718960_CWEC.epw'. Data will be treated as typical (TMY)",
               "[openstudio.EpwFile] Successive data points (1988-Jan-31 to 1976-Feb-01, ending on line 753) are greater than 1 day apart in EPW file '/usr/local/bundle/bundler/gems/openstudio-standards-f448df66933d/openstudio-standards/data/weather/CAN_BC_Prince.George.718960_CWEC.epw'. Data will be treated as typical (TMY)",
               "[openstudio.standards.Fan] For Fan Constant Volume 1, there is no greater nominal HP.  Use the efficiency of the largest motor category.",
               "[openstudio.standards.Fan] For Fan Constant Volume 2, there is no greater nominal HP.  Use the efficiency of the largest motor category.",
               "[openstudio.standards.Fan] For Fan Constant Volume 3, there is no greater nominal HP.  Use the efficiency of the largest motor category.",
               "[openstudio.standards.Fan] For Fan Constant Volume 4, there is no greater nominal HP.  Use the efficiency of the largest motor category.",
               "[openstudio.standards.Fan] For Fan Constant Volume 5, there is no greater nominal HP.  Use the efficiency of the largest motor category.",
               "[openstudio.EpwFile] Successive data points (1988-Jan-31 to 1976-Feb-01, ending on line 753) are greater than 1 day apart in EPW file '/usr/local/bundle/bundler/gems/openstudio-standards-f448df66933d/openstudio-standards/data/weather/CAN_BC_Prince.George.718960_CWEC.epw'. Data will be treated as typical (TMY)",
               "[openstudio.EpwFile] Successive data points (1988-Jan-31 to 1976-Feb-01, ending on line 753) are greater than 1 day apart in EPW file '/usr/local/bundle/bundler/gems/openstudio-standards-f448df66933d/openstudio-standards/data/weather/CAN_BC_Prince.George.718960_CWEC.epw'. Data will be treated as typical (TMY)",
               "[openstudio.EpwFile] Successive data points (1988-Jan-31 to 1976-Feb-01, ending on line 753) are greater than 1 day apart in EPW file '/usr/local/bundle/bundler/gems/openstudio-standards-f448df66933d/openstudio-standards/data/weather/CAN_BC_Prince.George.718960_CWEC.epw'. Data will be treated as typical (TMY)",
               "[openstudio.EpwFile] Successive data points (1988-Jan-31 to 1976-Feb-01, ending on line 753) are greater than 1 day apart in EPW file '/usr/local/bundle/bundler/gems/openstudio-standards-f448df66933d/openstudio-standards/data/weather/CAN_BC_Prince.George.718960_CWEC.epw'. Data will be treated as typical (TMY)",
               "[openstudio.EpwFile] Successive data points (1988-Jan-31 to 1976-Feb-01, ending on line 753) are greater than 1 day apart in EPW file '/usr/local/bundle/bundler/gems/openstudio-standards-f448df66933d/openstudio-standards/data/weather/CAN_BC_Prince.George.718960_CWEC.epw'. Data will be treated as typical (TMY)",
               "[openstudio.standards.Fan] For Fan Constant Volume 1, there is no greater nominal HP.  Use the efficiency of the largest motor category.",
               "[openstudio.standards.Fan] For Fan Constant Volume 2, there is no greater nominal HP.  Use the efficiency of the largest motor category.",
               "[openstudio.standards.Fan] For Fan Constant Volume 3, there is no greater nominal HP.  Use the efficiency of the largest motor category.",
               "[openstudio.standards.Fan] For Fan Constant Volume 4, there is no greater nominal HP.  Use the efficiency of the largest motor category.",
               "[openstudio.standards.Fan] For Fan Constant Volume 5, there is no greater nominal HP.  Use the efficiency of the largest motor category."
            ]
         }
      },
      {
         "arguments" : {
            "__SKIP__" : false
         },
         "measure_dir_name" : "view_model",
         "name" : "view_model",
         "result" : {
            "completed_at" : "20170710T182507Z",
            "measure_class_name" : "ViewModel",
            "measure_display_name" : "ViewModel",
            "measure_name" : "view_model",
            "measure_taxonomy" : "Reporting.QAQC",
            "measure_type" : "ModelMeasure",
            "measure_uid" : "f4669f10-fda5-489d-8e1c-7ca3c2d40378",
            "measure_version_id" : "f4975c5f-7c25-42a2-927b-02d99b4427ef",
            "measure_version_modified" : "20170526T150340Z",
            "measure_xml_checksum" : "1E1F8B97",
            "started_at" : "20170710T182507Z",
            "stderr" : "",
            "stdout" : "[OpenStudio.Measure] <0> OSArgumentVector is deprecated, use OpenStudio::Measure::OSArgumentVector instead.\n",
            "step_errors" : [],
            "step_files" : [
               "/mnt/openstudio/analysis_4fef0e0f-5396-4c55-a6e1-2cd6803db3ab/data_point_0828f577-3fa0-426c-aaa5-1e89caf3563b/run/001_view_model/report.html",
               "/mnt/openstudio/analysis_4fef0e0f-5396-4c55-a6e1-2cd6803db3ab/data_point_0828f577-3fa0-426c-aaa5-1e89caf3563b/run/001_view_model/report.json"
            ],
            "step_final_condition" : "Report written to <a href='file:////mnt/openstudio/analysis_4fef0e0f-5396-4c55-a6e1-2cd6803db3ab/data_point_0828f577-3fa0-426c-aaa5-1e89caf3563b/run/001_view_model/report.html'>report.html</a>.",
            "step_info" : [ "No changes made to the model." ],
            "step_result" : "NA",
            "step_values" : [
               {
                  "name" : "view_model_html_zip",
[...]
zIuH6eTFD8YaiMu+lzgrmdnrsDP9wSUSySwK2NSLYvFyEnpJ25ND/lb6KFc+O8s+0+rM4inaitlFE4qAvzyCTtVXu9IzAar5LvNHkc0CHdABHdABHdABHdABHdABHdDZeDr3VT8ko0iMwAZswAZswAZswAZswAZswAZswCafzT2dJMlG6h6BDuiADuiADuiADuiADuiADuiAThk6+hpg2S9sc00vMAVTMAVTMAVTMAVTMAVTMAVTMAVTMN0MpoViihnTuTgimIIpmIIpmIIpmIIpmIIpmIIpmIIpmG4GUyMF1oz1XFEVrMEarMEarMEarMEarMEarMEarMEarMH6EVkvaY0i77pdCHbjJH4yEScX3lQ4ibhJ2j/8Fs6iuJjG7f0734vLqYi8ZBYJ1n65JTEKQHZ22IvRiHksw2LXfnLB4vBSsFGv4M74aux406k8UKQlrbe2Cm5YFsdLkmh+hMyga3iTPPDF1b8pTm7luSuS3rYXDC/CqHV32IkhxnkYJNvXwh9fJBLjLJyM9DHmT+fN8dHP2y+231+I6DKMEy9hJyKZhn4K/JvwEj8Y/7CV97ye78TDyJ8mPymveb4z8q8erlbeowZLsZg/OmwNpTsfpe33/EBEp67bYlmnHLZGfjydeLfP/ECeh7N9NgmHn39sqfmloPMmsOR2mt4v+2Xnk3flzT/NvVOW7JCeqzE7XJ7FE4jrk6txu/XdfY4dtiuPtkn/FEbSyoEuH/4+JeorKT/VOaq8l50BNpTDjzzxaa72t3beVA6SS4bUI0PaJUPqkyENyJD2yJD2yZAOyJDWDt+0hKLzck7n5pzOzzmdo3M6T+d0rs7pfJ3TOTun83aXzttdwjGdzttdOm93Db39vvCSZgaMxMgAKKevzIByesoMKKefzIByxgQzoJwRwQwoZzwwA8oZDcyAcsYCM6C8xGeIRObbeWnPEInMu/OSniESmX/npTxDJDIPz0t4hkhkPp6X7gyR6MZvMh/Py3WGSCY+fk/4QjPNSW0MA6ScbjJEyukmQ6ScbjJEyhkKDJFyhgJDpJyhwBApZygwRMoZCgyR8vKdKRSdl+dlPFMoOj/Py3mmUHSenpf1TKHofD0v75lC0Xl7XuYzhSIc0+m8PS/5mUIVejsOo8dh9AsgjdtwGP29gsPodWjhMHocRl+m4DB6WXAYPQ6jzwoOo8+/EofRFwPIgsPoN+PMRtABHdABHdABHdABHdABHdABnY2n88SOcgQbsAEbsAEbsAEbsAEbsAEbsNkcNk/rzEbQAR3QAR3QAR3QAR3QAR3QAZ0nRecRxdleDBP/yk9uX4krMWHtf0Oe7SnKsy0e0mYosfU2QImtV5sSW9fp9kmE2KyAelRAu1RAfSqgARXQHhXQPhXQARXQ2r58OyQy3+Zkzs3JvJuTuTcn829O5uCczMM5mYtzMh93yXzcpRu/yXzcJfNx18zH9RXX1rHKC67Z4Kh7qbzcmg2OehQoL7Zmg6MeAcpLrdngqKPfQmjNCojKo3PSm4XKmhUQlVPn5DYLiTUrICq/zklsFvpqViMjlWfnZDULcTUrICrPzklp5ZXV1nEshNWsgNRdZCGrZgWkDn4LUTUrIHXwW0iqWQGpg99GUM0Oicy3czKbjZqaHRKZe+ckNxspNTskMg/PyW82Omp2YyWZj+ekOBsRNTskMh/PyXJQUIOCGhTU7jGEgposUFCDghoU1HIKFNSgoGbUKiiordk3uB4KaqsFCmp3pYIFW09MaAB0QAd0QAd0QAd0QAd0QAd0QGfj6Twx/QGwARuwARuwARuwARuwARuwAZvNYfPN6B6ADuiADuiADuiADuiADuiADuiUt/cICmoQTHtSgmknwwsxmqW9LLdDxSJhvLsZsmm7GyCbtlubbNog2xRaVuKGCqhHBbRLBdSnAhpQAe1RAe1TAR1QAa3tvrdDIvNtTubcnMy7OZl7czL/5mQOzsk8nJO5OCfzcZfMx1268ZvMx10yH3fNfFxfNm0dq7xsmg2OupfKy6bZ4KhHgfKyaTY46hGgvGyaDY46+i1k06yAqDw6J71ZyKZZAVE5dU5us5BNswKi8uucxGYhm2Y1MlJ5dk5Ws5BNswKi8uyclFZeNm0dx0I2zQpI3UUWsmlWQOrgt5BNswJSB7+FbJoVkDr4bWTT7JDIfDsns9nIptkhkbl3TnKzkU2zQyLz8Jz8ZiObZjdWkvl4ToqzkU2zQyLz8ZwsB9k0yKZBNu0eQ8imyQLZNMimQTYtp0A2DbJpRq2CbNqafYPrIZu2WiCbdlcqWKX1xNQFQAd0QAd0QAd0QAd0QAd0QAd0Np7OExMdABuwARuwARuwARuwARuwARuw2Rw234zYAeiADuiADuiADuiADuiADuiATnl7kE1bFMim3cmm8c2QTetvgGxavzbZtK7jkqim2eD0iHB2iXD6RDgDIpw9Ipx9IpwDIpy1TfdWQFQezalcmlP5NKdyak7l1ZzKrTmVX3Mqx+ZUnu1SebZLNlZTebZL5dmukWfry6OtQZVXR7OAUfZQeW00Cxhl3JdXRrOAUcZ8eV00CxhlvFuootngEPmxOo1ZSKLZ4BC5sjqHWeih2eAQebM6gVmIodmMg0T+rM5eFkpoNjhE/qxOXeVl0NZgLFTQbHCU3WOhgWaDowx3CwU0GxxluFvon9ngKMPdRv3MCojKo9UZzEb6zAqIyqnVScxG98wKiMqv1XnMRvTMamSk8mx1KrNRPLMCovJsdTaD3BnkziB3do8h5M5kgdwZ5M4gd5ZTIHcGuTOjVkHubM2+wfWQO1stkDu7KxWsrnpiqgCgAzqgAzqgAzqgAzqgAzqgAzobT+eJiQWADdiADdiADdiADdiADdiADdhsDptvRqQAdEAHdEAHdEAHdEAHdEAHdECnvD3InS0K5M7u5M7czZA7G2yA3NmgRrmzbp9I78wCqEcFtEsF1KcCGlAB7VEB7VMBHVABfbXd3gaJzLc5mXNzMu/mZO7Nyfybkzk4J/NwTubinMzHXTIfd+nGbzIfd8l83DXzcRMZtFUsGx208jjqXrJRQiuPox4FbLTQyuOoRwAbNbTyOOrot9JDswCi8uic9GYliWYBROXUObnNShXNAojKr3MSm5UwmsXISOXZOVnNShvNAojKs3NSmo082iqOlT6aBZC6i6wU0iyA1MFvpZFmAaQOfiuVNAsgdfDb6aTZIJH5dk5ms5NKs0Eic++c5GanlmaDRObhOfnNTjDNZqwk8/GcFGenmWaDRObjOVkOsmmQTYNs2j2GkE2TBbJpkE2DbFpOgWwaZNOMWgXZtDX7BtdDNm21QDbtrlSwSuuJqQuADuiADuiADuiADuiADuiADuhsPJ0nJjoANmADNmADNmADNmADNmADNmCzOWy+GbED0AEd0AEd0AEd0AEd0AEd0AGd8vYgm7YokE27k03rbYZs2t4GyKbt1SabNsg2hZaVuKEC6lEB7VIB9amABlRAe1RA+1RAB1RAa7vv7ZDIfJuTOTcn825O5t6czL85mYNzMg/nZC7OyXzcJfNxl278JvNxl8zHXTMf15dNW8cqL5tmg6PupfKyaTY46lGgvGyaDY56BCgvm2aDo45+C9k0KyAqj85JbxayaVZAVE6dk9ssZNOsgKj8OiexWcimWY2MVJ6dk9UsZNOsgKg8OyellZdNW8exkE2zAlJ3kYVsmhWQOvgtZNOsgNTBbyGbZgWkDn4b2TQ7JDLfzslsNrJpdkhk7p2T3Gxk0+yQyDw8J7/ZyKbZjZVkPp6T4mxk0+yQyHw8J8tBNg2yaZBNu8cQsmmyQDYNsmmQTcspkE2DbJpRqyCbtmbf4HrIpq0WyKbdlQpWaT0xdQHQAR3QAR3QAR3QAR3QAR3QAZ2Np/PERAfABmzABmzABmzABmzABmzABmw2h803I3YAOqADOqADOqADOqADOqADOqBT3h5k0xYFsml3smm7myGbtr8Bsmn7tcmmdR2XRDXNBqdHhLNLhNMnwhkQ4ewR4ewT4RwQ4axturcCovJoTuXSnMqnOZVTcyqv5lRuzan8mlM5NqfybJfKs12ysZrKs10qz3aNPFtfHm0Nqrw6mgWMsofKa6NZwCjjvrwymgWMMubL66JZwCjj3UIVzQaHyI/VacxCEs0Gh8iV1TnMQg/NBofIm9UJzEIMzWYcJPJndfayUEKzwSHyZ3XqKi+DtgZjoYJmg6PsHgsNNBscZbhbKKDZ4CjD3UL/zAZHGe426mdWQFQerc5gNtJnVkBUTq1OYja6Z1ZAVH6tzmM2omdWIyOVZ6tTmY3imRUQlWersxnkziB3BrmzewwhdyYL5M4gdwa5s5wCuTPInRm1CnJna/YNrofc2WqB3NldqWB11RNTBQAd0AEd0AEd0AEd0AEd0AEd0Nl4Ok9MLABswAZswAZswAZswAZswAZswGZz2HwzIgWgAzqgAzqgAzqgAzqgAzqgAzrl7UHubFEgd3Ynd9bfDLmzgw2QOzuoUe6s2yfSO7MA6lEB7VIB9amABlRAe1RA+1RAB1RAX223t0Ei821O5tyczLs5mXtzMv/mZA7OyTyck7k4J/Nxl8zHXbrxm8zHXTIfd8183EQGbRXLRgetPI66l2yU0MrjqEcBGy208jjqEcBGDa08jjr6rfTQLICoPDonvVlJolkAUTl1Tm6zUkWzAKLy65zEZiWMZjEyUnl2Tlaz0kazAKLy7JyUZiOPtopjpY9mAaTuIiuFNAsgdfBbaaRZAKmD30olzQJIHfx2Omk2SGS+nZPZ7KTSbJDI3DsnudmppdkgkXl4Tn6zE0yzGSvJfDwnxdlpptkgkfl4TpaDbBpk0yCbdo8hZNNkgWwaZNMgm5ZTIJsG2TSjVkE2bc2+wfWQTVstkE27KxWs0npi6gKgAzqgAzqgAzqgAzqgAzqgAzobT+eJiQ6ADdiADdiADdiADdiADdiADdhsDptvRuwAdEAHdEAHdEAHdEAHdEAHdECnvD3Ipi0KZNPuZNMGGyGb1us+fdm0lGNdsmmDbFNoWYkbKqAeFdAuFVCfCmhABbRHBbRPBXRABbS2+94Oicy3OZlzczLv5mTuzcn8m5M5OCfzcE7m4pzMx10yH3fpxm8yH3fJfNw183F92bR1rPKyaTY46l4qL5tmg6MeBcrLptngqEeA8rJpNjjq6LeQTbMCovLonPRmIZtmBUTl1Dm5zUI2zQqIyq9zEpuFbJrVyEjl2TlZzUI2zQqIyrNzUlp52bR1HAvZNCsgdRdZyKZZAamD30I2zQpIHfwWsmlWQOrgt5FNs0Mi8+2czGYjm2aHRObeOcnNRjbNDonMw3Pym41smt1YSebjOSnORjbNDonMx3OyHGTTIJsG2bR7DCGbJgtk0yCbBtm0nALZNMimGbUKsmlr9g2uh2zaaoFs2l2pYJXWE1MXAB3QAR3QAR3QAR3QAR3QAR3Q2Xg6T0x0AGzABmzABmzABmzABmzABmzAZnPYfDNiB6ADOqADOqADOqADOqADOqADOuXtQTZtUSCbdiebtrcZsml8A2TTeG2yaV3HJVFNs8HpEeHsEuH0iXAGRDh7RDj7RDgHRDhrm+6tgKg8mlO5NKfyaU7l1JzKqzmVW3Mqv+ZUjs2pPNul8myXbKym8myXyrNdI8/Wl0dbgyqvjmYBo+yh8tpoFjDKuC+vjGYBo4z58rpoFjDKeLdQRbPBIfJjdRqzkESzwSFyZXUOs9BDs8Eh8mZ1ArMQQ7MZB4n8WZ29LJTQbHCI/FmdusrLoK3BWKig2eAou8dCA80GRxnuFgpoNjjKcLfQP7PBUYa7jfqZFRCVR6szmI30mRUQlVOrk5iN7pkVEJVfq/OYjeiZ1chI5dnqVGajeGYFROXZ6mwGuTPInUHu7B5DyJ3JArkzyJ1B7iynQO4McmdGrYLc2Zp9g+shd7ZaIHd2VypYXfXEVAFAB3RAB3RAB3RAB3RAB3RAB3Q2ns4TEwsAG7ABG7ABG7ABG7ABG7ABG7DZHDbfjEgB6IAO6IAO6IAO6IAO6IAO6IBOeXuQO1sUyJ0t5c56m6F25m6A2plbo9pZt08kd2YB1KMC2qUC6lMBDaiA9qiA9qmADqiAvtptb4NE5tuczLk5mXdzMvfmZP7NyRyck3k4J3NxTubjLpmPu3TjN5mPu2Q+7pr5uIkK2iqWjQxaeRx1L9kIoZXHUY8CNlJo5XHUI4CNGFp5HHX0W8mhWQBReXROerNSRLMAonLqnNxmJYpmAUTl1zmJzUoXzWJkpPLsnKxmJY1mAUTl2TkpzUYdbRXHSh7NAkjdRVYCaRZA6uC3kkizAFIHv5VImgWQOvjtZNJskMh8Oyez2Sml2SCRuXdOcrMTS7NBIvPwnPxmp5dmM1aS+XhOirOTTLNBIvPxnCwH1TSopkE17R5DqKbJAtU0qKZBNS2nQDUNqmlGrYJq2pp9g+uhmrZaoJp2VypYpPXExAVAB3RAB3RAB3RAB3RAB3RAB3Q2ns4T0xwAG7ABG7ABG7ABG7ABG7ABG7DZHDbfjNYB6IAO6IAO6IAO6IAO6IAO6IBOeXtQTVsUqKYtVdN2N0M1rbcBqmm92lTTBtme0LIKN1RAPSqgXSqgPhXQgApojwponwrogApobfO9HRKZb3My5+Zk3s3J3JuT+Tcnc3BO5uGczMU5mY+7ZD7u0o3fZD7ukvm4a+bj+qpp61jlVdNscNS9VF41zQZHPQqUV02zwVGPAOVV02xw1NFvoZpmBUTl0TnpzUI1zQqIyqlzcpuFapoVEJVf5yQ2C9U0q5GRyrNzspqFapoVEJVn56S08qpp6zgWqmlWQOouslBNswJSB7+FapoVkDr4LVTTrIDUwW+jmmaHRObbOZnNRjXNDonMvXOSm41qmh0SmYfn5Dcb1TS7sZLMx3NSnI1qmh0SmY/nZDmopkE1Dapp9xhCNU0WqKZBNQ2qaTkFqmlQTTNqFVTT1uwbXA/VtNUC1bS7UsEirScmLgA6oAM6oAM6oAM6oAM6oAM6oLPxdJ6Y5gDYgA3YgA3YgA3YgA3YgA3YgM3msPlmtA5AB3RAB3RAB3RAB3RAB3RAB3TK24Nq2qJANW2pmtbfDNW03Q1QTdutTTWt67gkomk2OD0inF0inD4RzoAIZ48IZ58I54AIZ23PvRUQlUdzKpfmVD7NqZyaU3k1p3JrTuXXnMqxOZVnu1Se7ZKN1VSe7VJ5tmvk2frqaGtQ5cXRLGCUPVReGs0CRhn35YXRLGCUMV9eFs0CRhnvFqJoNjhEfqxOYxaKaDY4RK6szmEWcmg2OETerE5gFlpoNuMgkT+rs5eFEJoNDpE/q1NXeRW0NRgLETQbHGX3WEig2eAow91CAM0GRxnuFvJnNjjKcLcRP7MCovJodQazUT6zAqJyanUSs5E9swKi8mt1HrPRPLMaGak8W53KbATPrICoPFudzaB2BrUzqJ3dYwi1M1mgdga1M6id5RSonUHtzKhVUDtbs29wPdTOVgvUzu5KBYurnpgoAOiADuiADuiADuiADuiADuiAzsbTeWJaAWADNmADNmADNmADNmADNmADNpvD5pvRKAAd0AEd0AEd0AEd0AEd0AEd0ClvD2pniwK1s6Xa2WAz1M76G6B21q9R7azbJ5I7swDqUQHtUgH1qYAGVEB7VED7VEAHVEBf7ba3QSLzbU7m3JzMuzmZe3My/+ZkDs7JPJyTuTgn83GXzMdduvGbzMddMh93zXzcRAVtFctGBq08jrqXbITQyuOoRwEbKbTyOOoRwEYMrTyOOvqt5NAsgKg8Oie9WSmiWQBROXVObrMSRbMAovLrnMRmpYtmMTJSeXZOVrOSRrMAovLsnJRmo462imMlj2YBpO4iK4E0CyB18FtJpFkAqYPfSiTNAkgd/HYyaTZIZL6dk9nslNJskMjcOye52Yml2SCReXhOfrPTS7MZK8l8PCfF2Umm2SCR+XhOloNqGlTToJp2jyFU02SBahpU06CallOgmgbVNKNWQTVtzb7B9VBNWy1QTbsrFSzSemLiAqADOqADOqADOqADOqADOqADOhtP54lpDoAN2IAN2IAN2IAN2IAN2IAN2GwOm29G6wB0QAd0QAd0QAd0QAd0QAd0QKe8PaimLQpU05aqaXuboZo22ADVtEFtqmmDbE9oWYUbKqAeFdAuFVCfCmhABbRHBbRPBXRABbS2+d4Oicy3OZlzczLv5mTuzcn8m5M5OCfzcE7m4pzMx10yH3fpxm8yH3fJfNw183F91bR1rPKqaTY46l4qr5pmg6MeBcqrptngqEeA8qppNjjq6LdQTbMCovLonPRmoZpmBUTl1Dm5zUI1zQqIyq9zEpuFaprVyEjl2TlZzUI1zQqIyrNzUlp51bR1HAvVNCsgdRdZqKZZAamD30I1zQpIHfwWqmlWQOrgt1FNs0Mi8+2czGajmmaHRObeOcnNRjXNDonMw3Pym41qmt1YSebjOSnORjXNDonMx3OyHFTToJoG1bR7DKGaJgtU06CaBtW0nALVNKimGbUKqmlr9g2uh2raaoFq2l2pYJHWExMXAB3QAR3QAR3QAR3QAR3QAR3Q2Xg6T0xzAGzABmzABmzABmzABmzABmzAZnPYfDNaB6ADOqADOqADOqADOqADOqADOuXtQTVtUaCatlRN298M1bS9DVBN26tNNa3ruCSiaTY4PSKcXSKcPhHOgAhnjwhnnwjngAhnbc+9FRCVR3Mql+ZUPs2pnJpTeTWncmtO5decyrE5lWe7VJ7tko3VVJ7tUnm2a+TZ+upoa1DlxdEsYJQ9VF4azQJGGfflhdEsYJQxX14WzQJGGe8Womg2OER+rE5jFopoNjhErqzOYRZyaDY4RN6sTmAWWmg24yCRP6uzl4UQmg0OkT+rU1d5FbQ1GAsRNBscZfdYSKDZ4CjD3UIAzQZHGe4W8mc2OMpwtxE/swKi8mh1BrNRPrMConJqdRKzkT2zAqLya3Ues9E8sxoZqTxbncpsBM+sgKg8W53NoHYGtTOond1jCLUzWaB2BrUzqJ3lFKidQe3MqFVQO1uzb3A91M5WC9TO7koFi6uemCgA6IAO6IAO6IAO6IAO6IAO6IDOxtN5YloBYAM2YAM2YAM2YAM2YAM2YAM2m8Pmm9EoAB3QAR3QAR3QAR3QAR3QAR3QKW8PameLArWzpdrZwWaone1vgNrZfm1qZ3y363RXCt8lET8jhO1VA7tbDWy/GthBNbB71cDuVwN7UA3s2l5/StyK4oxXFGi8okjjFYUaryjWeEXBxiuKNl5RuPGK4s2tKN7cqvJaRfHmVhRvrk286avK5SGXF5mjQ9Xt3fISdHSouiNZeYE6OlTdUay8fB0dqu4IZiFuRwhbTXRpTxcslPAIYasJMO25goVsHiFsNTGmPVGw0NgjzArVRJn2LMFCkI8Qtpoo054ilFfvy0O1EPMjhNXtWgupP0JY3QHMQgiQEFZ3ALOQCSSE1R3AbEQEKXErijPtmYKN4iAlbkWhpj1ZsJEnpMStKNq05ws2WoaUeaKieNOeMtgIH1LiVhRv2rMGqCRCJREqifcYQiVRFqgkQiURKok5BSqJUEk0ahVUEtfsG1wPlcTVApXEu1LBoswnJiYCOqADOqADOqADOqADOqADOqCz8XSemMYI2IAN2IAN2IAN2IAN2IAN2IDN5rD5ZrRNQAd0QAd0QAd0QAd0QAd0QAd0ytt7BJXE9+JyKiIvmUWCtV9uQTTxaYkmiujKHwr2b0963qswnDL5wOQ6593uy80QUDzYAAHFg/oEFOW/yyo1EeH0iHB2iXD6RDgDIpw9Ipx9IpwDIpx1gQEbICqP5lQuzal8mlM5Nafyak7l1pzKrzmVY3Mqz3apPNslG6upPNul8mzXyLMNhP1WoSyU/MrDKHvIQquvPIwy7i3U+MrDKGPeQm+vPIwy3m0U9SxwiPxYncZsRPIscIhcWZ3DbHTvLHCIvFmdwGyk7CzGQSJ/VmcvG3U6Cxwif1anLgvBuVUYG4U5Cxxl99hoyFngKMPdRiXOAkcZ7jY6cBY4ynC3UnqzAaLyaHUGsxJvswGicmp1ErPSY7MBovJrdR6zklizGRmpPFudyqxU02yAqDxbnc3uAf0R+WHkJ7eMs23WPpkFW1KSarD9316w3eXb2b9/EcPtHlelue7aF70XL3Z3Dw4ITLjVm+hVb2K3ehP96k0MqjexV72J/epNHFRvYi2zV2WjhvjmNQQ4ryHCeQ0hzmuIcV5DkPMaopzXEOa8hjh3a4hzt448XkOcuzXEuVsuzt3MhpeobHT1plW9nuvuDwhMqJ8GmQn1wyAzoX4WZCbUQy6ZCfWIS2ZCPeCSmVCPt2Qm1MMtmYmcaRWdjRriO2daRWejhgjPmVbR2aghxnOmVXQ2aojynGkVnY0a4jxnWkVno448XkOc50yr6GyUi/OetPEy8hU23AO9aRXne3u9HoEJ9dMgM6F+GGQm1M+CzIR6yCUzoR5xyUyoB1wyE+rxlsyEem0UmYmcBYF0NtQrquhsqBdb0dlQr8Ois6FeokVnQ70ukc6GeskinQ31akY6G+qFjnQ2aojznGkVnY068ngNiTxnWkVno1wq35U23l/MVDb29aZVB2np/0xgQv00yEyoHwaZCfWzIDOhnlaRmVBPq8hMqKdVZCbU0yoyE+rhlsxEzrSKzoZ6WkVnQz2torOhnlbR2VBPq+hsqKdVdDbU0yo6G+ppFZ0N9bSKzkYNcZ4zraKzUUceryGR50yr6GyUS+V9aePfYqSysac3rfrll6OjvT0CE+qnQWZC/TDITKifBZkJ9bSKzIR6WkVmQj2tIjOhnlaRmVAPt2QmcqZVdDbU0yo6G+ppFZ0N9bSKzoZ6WkVnQz2torOhnlbR2VBPq+hsqKdVdDZqiPOcaRWdjTryeA2JPGdaRWejXCofZFO3mVDZGOhNq46OBgMSE+qnQWZC/TDITKifBZkJ9bSKzIR6WkVmQj2tIjOhnlaRmVAPt2QmcqZVdDbU0yo6G+ppFZ0N9bSKzoZ6WkVnQz2torOhnlbR2VBPq+hsqKdVdDZqiPOcaRWdjTryeA2JPGdaRWejXCrfkzZeh6pl8W5fb1q1v++6/T6BCfXTIDOhfhhkJtTPgsyEelpFZkI9rSIzoZ5WkZlQT6vITOTpThGZyBVbo7KRp1ZFZSNPyIrKRp7GFZWNPPkrKht5mm9UNvLk4Khs5CnFUdnIE5GjslFDnOdMq+hs1JHHa0jkOdMqOhvFqfyjjsLrQpOZHbJAXC8FZDPd2HZ8Ne5kCrCFUrFLYedYJD+Hs2AUt/vdDuO832E9+S+3ryc3e5PSuBOlHo2OvESMw+j2xY0fz2WR79qvoR6dAryNRiJ6N5Mqxdo3Sh636zxeCy+eRWJOQwotL/q9YnluVKMa1ahGNapRjWpUoxrVqEY1qlGNalSjGtWoRjWqUY1qVKMa1ahGNapRjWpUoxrVqEY1qlGNalSjGtWoRjWqUY1qVKMa1ahGNapRjWpUN6r61gmvRBT5I/HakxtrudO13K8qt8bG61tjT0Tki3ixvbbVWW4gnk7CxJn4gSjcIhs/tE+3eGdt7GRHz0/DiZf4YZCSasWJmG6fifMwEi29nc+vxFgEo/UGzT9rD7od1pM7l7tyI7P805r8//bOt7dtm2vj759PwWlA42C2Ytn5v2ZD6jptgbUpkhbDGhSBbNG2ElkyJDmJUeS736IsZXEbWqR85C17Lr1IUx3xOj+RPORpJR/zQSzACqRzWfNyyOOuH4v+SVwMpn4/Ja1tsm8FEjkhf2h9UfhZbnG4A1aLR25kRumoqDkSx6NGZtJ/Xbs/qv0NrKuW44uPjifsme7lJIhcIfg6Oa1yN/khZJ6gCoNbPaQcy/UdLuKhYdU1W+fHVdmGA5d7Yr7Vsj6dx8kwDKYT7rAXL9hP2fk783JkR9nn30WAbT62zp60Jh1i2sPhifBhetwfxiP2krXY78w49jyDHS5eEXlun9ca1uZF8+tmYbz9cCdByGpXya00f2VXiZtsqmZ+xblfkhVHf4DEIaZxpndx9dW85jN2dHQ077xyiqlqNuxXureaH72Q29dlGt9rttG9XvRXdndHYlqLyZDNlLSQg3lpR5E79LnTESUioou0J7+W68p8oCfTaFQrOxbJkB7Ox7N8JHneocpdmuLKsl6iOAyuuZqf+bVlPQUTu+/GMzVX2cWl7yp1kbsqq5IvJIvLSpnw0F58xJGH8+LCwxrM0lXTCTd11vt6uqsqXX9flFOIY2uLffz8if11+vmMnZ+efXr34Q374/TNuw572z3rqgmcJKs2v7NFisbigEVBGDN/Ok7mQZ+lJU0iZkf9JHlx/aGCYt73QufRzmzXWU99cQl5PA19NrHDiJ94gR3XbLHkbyZD+ehcLz2n1JnFKdojt9ktFAnfV1vp5SH/TMM9DfbahsMH9tSL2SQMkjWMb9TZxs/7+51Ot7tRceEZ4AAHOMABDnCAAxzgAAc4wPlv4rBoOk7+CcwcLk4yx54JopA7oAENaEADGtCABjSgAQ1oQAOa5TS36atZ39H0vCkHDnCAAxzgAAc4wAEOcIADHOCUwXn43kBLfG/g+VT2vYFtK33Cdny8vX1wAFKQghSkIAUpSEEKUpCCFKQgBSlInwdpKyW1YxlpMyVtt1ut/V2QghSkIAUpSEEKUpCCFKQgBSlIQfo8SNuC9CR0JaStg5TUsvb22m2QghSkIAUpSEEKUpCCFKQgBSlIQfo8SLcF6afRVEa6n5IeJMfOK5CCFKQgBSlIQQpSkIIUpCAFKUhB+jxIdwTpn9yRke6lpK9fdzp7eyAFKUhBClKQghSkIAUpSEEKUpCC9HmQ7qb/MzHlMtLdlLTT2d0FKUhBClKQghSkIAUpSEEKUpCCFKTPhXRPkL4PZJUFWzsp6f5+q7WzA1KQghSkIAUpSEEKUpCCFKQgBSlI10aaozihfVsrFLszYzf2+PnInnAz5ndxbeNtMA2jYozZjy1fu2PuR27gezxKFQoktrbYseMwm6VK7NaNRywKxpw57YKW0c3QtCcT7js1Q/g2Ngsa5Idpx3FYM+6MOtttajaaJY1a6o2ieObxOV7D9vujIEzaGx4faNBmGoPAjxu33B2OYqHRCzxHXWM+NueTxkceJgMU8/Dyy4dLi53PokabnXhhI/m9P2ocs7cfvf44bkTBNBmILx/Yh27nlbgs5mPWZh/Pv7DTfl9cu7G5bGhfbkX90J3Ev0mvebnluDdPm6Vt5GKJFnOdI6Mv5n0n6Srb9ZOb3G4aLO2/I8Nxo4lnzw5d30tMjZ4X9K9/NeR8iej8Flg8myTtRRduXdk39vzs0pbiuLFDMUXZEXPc8cTjps9vz2+GNePnHxnrbLvZTH8UhpyQdezYTnQvvhme3eOecWg4fGBPvZhNwmDgetyozy2Xd8ahZTbrxo3tTXn2e1+sTEmbZLHpdLpd476upNMi0mkT6WwT6ewQ6ewS6ewR6ewT6RwQ6VhNKiGqGW1RTWmLak5bVJPaoprVFtW0tqjmtUU1sS2qmd2imtktsrWaama3qGZ2S2tms2g6Hi98VbXSjhZyR0NG2kd6MtIe0pOR9o+ejDTu9WSkUa8nI415PRlpxOvJSONdT0a+kWnqEM1j+TamqUM0k+WbmKYO0VyWb2GaOkSzWb6BaeoQzWf59qWpQ7UuE81n+d6lqaM+n29dP9bftnrilLqOtHs0daTdo6kj7R5NHWm4a+pIw11TRxrumjrScNfUkYa7po58/9IVoprR8h1MV4hqTsv3MF0hqlkt38V0hajmtXwf0xWimtnynUxXiGytpprZ8s1MV0h9Zj88uyj8bmHZNtdc+Ife/MuHCVy0qnfRrt7FdvUudqp3sVu9i73qXexX7+KgehcLO3tVPtYQ39YaAtxaQ4Rbawhxaw0xbq0hyK01RLm1hjC31hDnrTXEeWsd+/ga4ry1hjhvlYvzwq9wVEur5t/xSOBCPhpkLuSDQeZCPhZkLuRLLpkL+YpL5kK+4JK5kK+3ZC7kyy2ZiyVpFZ2PNcT3krSKzscaInxJWkXnYw0xviStovOxhihfklbR+VhDnC9Jq+h8rGMfX0OcL0mr6HyUi/PCb8pSS6vmX6VF4EI+GmQu5INB5kI+FmQu5EsumQv5ikvmQr7gkrmQr7dkLuTvRpG5WPJCIJ0P+RtVdD7kL1vR+ZC/h0XnQ/6KFp0P+XuJdD7kryzS+ZC/zUjnQ/6iI52PNcT5krSKzsc69vE1bORL0io6H+W28sIvJFFLq+bfWELgQj4aZC7kg0HmQj4WZC7kaRWZC3laReZCnlaRuZCnVWQu5MstmYslaRWdD3laRedDnlbR+ZCnVXQ+5GkVnQ95WkXnQ55W0fmQp1V0PuRpFZ2PNcT5krSKzsc69vE1bORL0io6H+W28sK672pp1bwwPIEL+WiQuZAPBpkL+ViQuZCnVWQu5GkVmQt5WkXmQp5WkbmQL7dkLpakVXQ+5GkVnQ95WkXnQ55W0fmQp1V0PuRpFZ0PeVpF50OeVtH5kKdVdD7WEOdL0io6H+vYx9ewkS9Jq+h8lNvKC8vrqqVV8/q7BC7ko0HmQj4YZC7kY0HmQp5WkbmQp1VkLuRpFZkLeVpF5kK+3JK5WJJW0fmQp1V0PuRpFZ0PeVpF50OeVtH5kKdVdD7kaRWdD3laRedDnlbR+VhDnC9Jq+h8rGMfX8NGviStovNRbisvrGKollbNyxwSuJCPBpkL+WCQuZCPBZkLeVpF5kKeVpG5kKdVZC7kaRWZi2V1p4hcLC22RuVjWbUqKh/LCllR+VhW44rKx7LyV1Q+ltV8o/KxrBwclY9lleKofCwrIkflYw1xviStovOxjn18DRv5krSKzkfxVv5VpcJrVsCZHTGf3+YFZNO6sbXoZlhPK8AWlorNq0BHPH4VTH0nqu0068yyduqsLX5r7aiVm71LMB6KWztOx475MAhnx3duNK+i/HD/CqWmE4HT0OHh2VQUNVZuKDhmixzvuR1NQz7HEHWZs36vuMw3zDDDDDPMMMMMM8wwwwwzzDDDDDPMMMMMM8wwwwwzzDDDDDPMMMMMM8wwwwwzzDDDDDPMMMMMM8wwwwwzzDDDDDPMMMMMM8z/KfPMDG54GLoOf2+LD9ZaZnPFz6uKj8ZGix+NPeehy6Ps47VGPf8A8cQLYtNzfV74Ednoqc/pFn+yNjLTr56fBJ4du4GfQBlRzCeNHh8EITfUPvn8Bx9y31m8ofm52m6zztrik8tN8UFm8cPw+CAWYAXSuax5OeRx149F/yQuBlO/n5LWNtm3AomckD+0vij8LLc43AGrxSM3MqN0VNQcieNRIzPpv67dH9X+BtZVy/HFR8cT9kz3chJErhB8nZxWuZv8EDJPUIXBrR5SjuX6Dhfx0LDqmq3z46psw4HLPTHfalmfzuNkGAbTCXfYixfsp+z8nXk5sqPs8+8iwDYfW2dPWpMOMe3h8ET4MD3uD+MRe8la7HdmHHuewQ4Xr4g8t89rDWvzovl1szDefriTIGS1q+RWmr+yq8RNNlUzv+LcL8mKoz9A4hDTONO7uPpqXvMZOzo6mndeOcVUNRv2K91bzY9eyO3rMo3vNdvoXi/6K7u7IzGtxWTIZkpayMG8tKPIHfrc6YgSEdFF2pNfy3VlPtCTaTSqlR2LZEgP5+NZPpI871DlLk1xZVkvURwG11zNz/zasp6Cid1345maq+zi0neVushdlVXJF5LFZaVMeGgvPuLIw3lx4WENZumq6YSbOut9Pd1Vla6/L8opxLG1xT5+/sT+Ov18xs5Pzz69+/CG/XH65l2Hve2eddUETpJVm9/ZIkVjccCiIIyZPx0n86DP0pImEbOjfpK8uP5QQTHve6HzaGe266ynvriEPJ6GPpvYYcRPvMCOa7ZY8jeToXx0rpeeU+rM4hTtkdvsFoqE76ut9PKQf6bhngZ7bcPhA3vqxWwSBskaxjfqbOPn/f1Op9vdqLjwDHCAAxzgAAc4wAEOcIADHOD8N3FYNB0n/wRmDhcnmWPPBFHIHdCABjSgAQ1oQAMa0IAGNKABzXKa2/TVrO9oet6UAwc4wAEOcIADHOAABzjAAQ5wyuA8fG+gJb438Hwq+97AtpU+YTs+3t4+OAApSEEKUpCCFKQgBSlIQQpSkIIUpM+DtJWS2rGMtJmSttut1v4uSEEKUpCCFKQgBSlIQQpSkIIUpCB9HqRtQXoSuhLS1kFKall7e+02SEEKUpCCFKQgBSlIQQpSkIIUpCB9HqTbgvTTaCoj3U9JD5Jj5xVIQQpSkIIUpCAFKUhBClKQghSkIH0epDuC9E/uyEj3UtLXrzudvT2QghSkIAUpSEEKUpCCFKQgBSlIQfo8SHfT/5mYchnpbkra6ezughSkIAUpSEEKUpCCFKQgBSlIQQrS50K6J0jfB7LKgq2dlHR/v9Xa2QEpSEEKUpCCFKQgBSlIQQpSkIIUpGsjzVGc0L6tFYrdmbEbe/x8ZE+4GfO7uLbxNpiGUTHG7MeWr90x9yM38D0epQoFEltb7NhxmM1SJXbrxiMWBWPOnHZBy+hmaNqTCfedmiF8G5sFDfLDtOM4rBl3Rp3tNjUbzZJGLfVGUTzz+ByvYfv9URAm7Q2PDzRoM41B4MeNW+4OR7HQ6AWeo64xH5vzSeMjD5MBinl4+eXD5TY7n0WNNjvxwobFzvujxjF7+9Hrj4WjKGZfPrAP3c4rcVXMx6zNPp5/Yaf9vrh0Y3PZyL7civqhO4l/k17zcstxb542S9vIxRIt5jpHRl9M+07SU7brJ/e4bRks7b4jw3GjiWfPDl3fS0yNnhf0r3815HyJ6PwWWDybJO1FD25d2Tf2/OzSluK4sUMxQ9kRc9zxxOOmz2/Pb4Y14+cfGetsu9lMfxRGnJB17NhOdC++GZ7d455xaDh8YE+9mE3CYOB63KjPLZd3xqFlNuvGje1NuXG4e2AePDr2D+pGXyxTiUKy8nQ63a5xX1dSbVWi2q5EdbsS1Z1KVHcrUd2rRHW/EtWDSlStZjWy1USXVU14WdXEl1VNgFnVRJhVTYhZ1cSYVU2QWdVEWauaKGtVtIdVE2WtaqKstUKUsWg6Hi9883eJDCHkjoaoYt/qiSr2rJ6oYr/qiSquXXqiiiuXnqjiuqUnqrhq6Ykqrll6oqqJgaZqJTGlmhZoqlYSVapJgaZqJXGlmhJoqlYSWaoJgaZqJbGlmg5oqlazX1USW6q5gKZq2di6df141TSgJy5QV1XsVk1VxW7VVFXsVk1VxSVLU1VxydJUVVyyNFUVlyxNVcUlS1NVNR/Qla0mulQzAl3ZauJLNSfQla0mwlSzAl3ZamJMNS/Qla0mylQzA13ZivawaqJMNTnQldWKsq8qDxyyx4nsiPn8Nn+ekT7GqEU3w3r6QKLwyUX+TDLi8atg6jtRbadZZ5a1U2dt8VtrR+3px12C8fCo1XE6dsyHQTg7vnOj+TO9h65QePCZCJyGDg/PpuIRm3JDwTFb5HjP7Wga8jmGeEqYDcGqj3LT50iLrs556PIow008ZQMy8YLYFA+3Cl1GT913MWlkpvNuEnh27AZ+AmVEMZ80enwQhNxQm0l/8CH3ncUbmp+r7SazoC1mgngYZokf2ZPSwofIuax5OeRx149F/yQuBlO/n5LWNtk3hUelgpA/tL4ojA1xuANWi0dulMxr0U7NkTgeNTKT/uva/VHtb2BdtRw/ezaY6V5OgsgVgq+T0yp3kx9C5gmqMLjVQ8qxXN/hInAbVl2zdX5clW04cLkn5lst69N5nAzDYDrhDnvxgv2Unb8zL0d2lK0nIsA2H1tnT1qTDjHt4fBE+DA97g/jEXvJWux3Zhx7nsEOF6+IPLfPaw1r86L5dbMw3n64kyBktavkVpq/sqvETTZVM7/i3C9HzNIfIHGIaZzpXVx9Na95srwdHc07r5xiqpoN+5XureZHL+T2dZnG95ptdK8X/ZXd3ZGY1mIyZDMl3RjNy/lrQNxJXwSKLtKe/FquK/OBnkyjUa3sWCRDejgfz/KR5HmHKndpiivLeoniMLjman7m15b1FEzsvhvP1FxlF5e+q9RF7qqsSr6QLC4rZcJDe/ERRx7OiwsPazBLV00n3NRZ7+vprqp0/X1RTiGOrS328fMn9tfp5zN2fnr26d2HN+yP0zfvOuxt96yrJnCSrNr8zhYpGosDFgVJIu1Px8k86LM0RYyYHfWT5MX1hwqKed8LnUc7s11nPfXFJeTxNPTZxA4jfuIFdlyzxZK/mQzlo3O99JxSZxanaI/cZrdQJHz/D7yu+d0D2OydTPFA9R95exQ4wAEOcIADHOAABzjAAQ5wnj3Ojy+4CKKQO6ABDWhAAxrQgAY0oAENaEADmuU0P7wSKGjEK37AAQ5wgAMc4AAHOMABDnCAA5x/sEjiJz6e8NCOpyFntZNNlEn8V5VJ/NMWM+4tT/84Hvdc7sdMDJmoe8idadL/DbbXPHkeJRBbz6AEYmttJRDTD56WLcFEpNMm0tkm0tkh0tkl0tkj0tkn0jkg0lmoLbCSENWMtqimtEU1py2qSW1RzWqLalpbVPPaoprYFtXMblHN7BbZWk01s1tUM7ulNbPVS/YtSJUv0reCjLSHyhfiW0FGGvfli+2tICON+fIF9VaQkcb7CkXzVtEhmsfybWyFUnir6BBNZfketkKBu1V0iGazfANboWzdKusg0XyW714rFKNbRYdoPsu3rvIl5hZkVigqt4qOtHtWKBy3io403FcoDreKjjTcVygAt4qONNxXKfK2khDVjJbvYKuUbltJiGpSyzexVQqyrSRENa/l+9gqZdZWWhmpZrZ8K1uleNpKQlQzW76boSTasyiJBjPMMMMMM8wwwwwzzDDDDDPMMMMM87/JPDODGx6GrsPf2+I/qiyziZL4j+4EJfEfDpTE1zpQEh8l8TUOlMT//kBJ/O8PlMTXPFASHyXxnzxQEh84wAEOcIADHOAABzjAAQ5wgPMcCkqCBjSgAQ1oQAMa0IAGNKABzfOh+X9TyBI4wAEOcIADHOAABzjAAQ5wyvv7B0riv3bH3I/cwPd4FKEg/r+rIH4QXrPuYOD2Xe73Zw9l8NdbAD+7+jvL47/nv8//fFDPfnn4oxc4M/HnKB57v/3f/wAkXqi4"
               },
               {
                  "name" : "annual_peak_electric_demand",
                  "units" : "kW",
                  "value" : 16.954910000000002
               },
               {
                  "name" : "first_year_capital_cost",
                  "units" : "$",
                  "value" : 0
               },
               {
                  "name" : "annual_utility_cost",
                  "units" : "$",
                  "value" : 6460.7799999999997
               },
               {
                  "name" : "total_lifecycle_cost",
                  "units" : "$",
                  "value" : 109778.53
               }
            ],
            "step_warnings" : []
         }
      }
   ],
   "updated_at" : "20170710T182610Z",
   "weather_file" : "USA_CO_Denver.Intl.AP.725650_TMY3.epw"
}
