{
   "completed_at" : "20170710T192920Z",
   "completed_status" : "Success",
   "created_at" : "2017-07-10 19:06:05 +0000",
   "current_step" : 5,
   "description" : "",
   "eplusout_err" : "Program Version,EnergyPlus, Version 8.7.0-78a111df4a, YMD=2017.07.10 19:16,IDD_Version 8.7.0\n   ************* IDF Context for following error/warning message:\n   ************* Note -- lines truncated at 300 characters, if necessary...\n   *************   5098 Schedule:Week:Daily,\n   ************* indicated Name=Schedule:Week:Daily {35235b86-594e-49e1-b29a-0402deb91f39}\n   ************* Only last 10 lines before error line shown.....\n   *************   5099   Schedule:Week:Daily {35235b86-594e-49e1-b29a-0402deb91f39}, !- Name\n   *************   5100   Sp-ER_Exam1_Mult4_Flr_1 Sys-3 Flr-1 Sch-H HPlcmt-south ZN NECB System 3 PSZ Occ Sch Sunday, !- Sunday Schedule:Day Name\n   *************   5101   Sp-ER_Exam1_Mult4_Flr_1 Sys-3 Flr-1 Sch-H HPlcmt-south ZN NECB System 3 PSZ Occ Sch Monday, !- Monday Schedule:Day Name\n   *************   5102   Sp-ER_Exam1_Mult4_Flr_1 Sys-3 Flr-1 Sch-H HPlcmt-south ZN NECB System 3 PSZ Occ Sch Tuesday, !- Tuesday Schedule:Day Name\n   *************   5103   Sp-ER_Exam1_Mult4_Flr_1 Sys-3 Flr-1 Sch-H HPlcmt-south ZN NECB System 3 PSZ Occ Sch Wednesday, !- Wednesday Schedule:Day Name\n   *************   5104   Sp-ER_Exam1_Mult4_Flr_1 Sys-3 Flr-1 Sch-H HPlcmt-south ZN NECB System 3 PSZ Occ Sch Thursday, !- Thursday Schedule:Day Name\n   *************   5105   Sp-ER_Exam1_Mult4_Flr_1 Sys-3 Flr-1 Sch-H HPlcmt-south ZN NECB System 3 PSZ Occ Sch Friday, !- Friday Schedule:Day Name\n   *************   5106   Sp-ER_Exam1_Mult4_Flr_1 Sys-3 Flr-1 Sch-H HPlcmt-south ZN NECB System 3 PSZ Occ Sch Saturday, !- Saturday Schedule:Day Name\n   *************   5107   Sp-ER_Exam1_Mult4_Flr_1 Sys-3 Flr-1 Sch-H HPlcmt-south ZN NECB System 3 PSZ Occ Sch Default, !- Holiday Schedule:Day Name\n   *************   5108   Sp-ER_Exam1_Mult4_Flr_1 Sys-3 Flr-1 Sch-H HPlcmt-south ZN NECB System 3 PSZ Occ Sch Summer Design Day, !- SummerDesignDay Schedule:Day Name\n   ** Warning ** IP: IDF line~5108 Alpha Argument length exceeds maximum, will be truncated=  Sp-ER_Exam1_Mult4_Flr_1 Sys-3 Flr-1 Sch-H HPlcmt-south ZN NECB System 3 PSZ Occ Sch Summer Design Da\n   **   ~~~   ** Will be processed as Alpha=SP-ER_EXAM1_MULT4_FLR_1 SYS-3 FLR-1 SCH-H HPLCMT-SOUTH ZN NECB SYSTEM 3 PSZ OCC SCH SUMMER DESIGN DAY\n   ************* IDF Context for following error/warning message:\n   ************* Note -- lines truncated at 300 characters, if necessary...\n   *************   5098 Schedule:Week:Daily,\n   ************* indicated Name=Schedule:Week:Daily {35235b86-594e-49e1-b29a-0402deb91f39}\n   ************* Only last 10 lines before error line shown.....\n   *************   5100   Sp-ER_Exam1_Mult4_Flr_1 Sys-3 Flr-1 Sch-H HPlcmt-south ZN NECB System 3 PSZ Occ Sch Sunday, !- Sunday Schedule:Day Name\n   *************   5101   Sp-ER_Exam1_Mult4_Flr_1 Sys-3 Flr-1 Sch-H HPlcmt-south ZN NECB System 3 PSZ Occ Sch Monday, !- Monday Schedule:Day Name\n   *************   5102   Sp-ER_Exam1_Mult4_Flr_1 Sys-3 Flr-1 Sch-H HPlcmt-south ZN NECB System 3 PSZ Occ Sch Tuesday, !- Tuesday Schedule:Day Name\n   *************   5103   Sp-ER_Exam1_Mult4_Flr_1 Sys-3 Flr-1 Sch-H HPlcmt-south ZN NECB System 3 PSZ Occ Sch Wednesday, !- Wednesday Schedule:Day Name\n   *************   5104   Sp-ER_Exam1_Mult4_Flr_1 Sys-3 Flr-1 Sch-H HPlcmt-south ZN NECB System 3 PSZ Occ Sch Thursday, !- Thursday Schedule:Day Name\n   *************   5105   Sp-ER_Exam1_Mult4_Flr_1 Sys-3 Flr-1 Sch-H HPlcmt-south ZN NECB System 3 PSZ Occ Sch Friday, !- Friday Schedule:Day Name\n   *************   5106   Sp-ER_Exam1_Mult4_Flr_1 Sys-3 Flr-1 Sch-H HPlcmt-south ZN NECB System 3 PSZ Occ Sch Saturday, !- Saturday Schedule:Day Name\n   *************   5107   Sp-ER_Exam1_Mult4_Flr_1 Sys-3 Flr-1 Sch-H HPlcmt-south ZN NECB System 3 PSZ Occ Sch Default, !- Holiday Schedule:Day Name\n   *************   5108   Sp-ER_Exam1_Mult4_Flr_1 Sys-3 Flr-1 Sch-H HPlcmt-south ZN NECB System 3 PSZ Occ Sch Summer Design Day, !- SummerDesignDay Schedule:Day Name\n   *************   5109   Sp-ER_Exam1_Mult4_Flr_1 Sys-3 Flr-1 Sch-H HPlcmt-south ZN NECB System 3 PSZ Occ Sch Winter Design Day, !- WinterDesignDay Schedule:Day Name\n   ** Warning ** IP: IDF line~5109 Alpha Argument length exceeds maximum, will be truncated=  Sp-ER_Exam1_Mult4_Flr_1 Sys-3 Flr-1 Sch-H HPlcmt-south ZN NECB System 3 PSZ Occ Sch Winter Design Da\n   **   ~~~   ** Will be processed as Alpha=SP-ER_EXAM1_MULT4_FLR_1 SYS-3 FLR-1 SCH-H HPLCMT-SOUTH ZN NECB SYSTEM 3 PSZ OCC SCH WINTER DESIGN DAY\n   ************* IDF Context for following error/warning message:\n   ************* Note -- lines truncated at 300 characters, if necessary...\n   *************   5129 Schedule:Day:Interval,\n   ************* indicated Name=Sp-ER_Exam1_Mult4_Flr_1 Sys-3 Flr-1 Sch-H HPlcmt-south ZN NECB System 3 PSZ Occ Sch Summer Design Day\n   ************* Only last 1 lines before error line shown.....\n   *************   5130   Sp-ER_Exam1_Mult4_Flr_1 Sys-3 Flr-1 Sch-H HPlcmt-south ZN NECB System 3 PSZ Occ Sch Summer Design Day, !- Name\n   ** Warning ** IP: IDF line~5130 Alpha Argument length exceeds maximum, will be truncated=  Sp-ER_Exam1_Mult4_Flr_1 Sys-3 Flr-1 Sch-H HPlcmt-south ZN NECB System 3 PSZ Occ Sch Summer Design Da\n   **   ~~~   ** Will be processed as Alpha=SP-ER_EXAM1_MULT4_FLR_1 SYS-3 FLR-1 SCH-H HPLCMT-SOUTH ZN NECB SYSTEM 3 PSZ OCC SCH SUMMER DESIGN DAY\n   ************* IDF Context for following error/warning message:\n   ************* Note -- lines truncated at 300 characters, if necessary...\n   *************   5136 Schedule:Day:Interval,\n   ************* indicated Name=Sp-ER_Exam1_Mult4_Flr_1 Sys-3 Flr-1 Sch-H HPlcmt-south ZN NECB System 3 PSZ Occ Sch Winter Design Day\n   ************* Only last 1 lines before error line shown.....\n   *************   5137   Sp-ER_Exam1_Mult4_Flr_1 Sys-3 Flr-1 Sch-H HPlcmt-south ZN NECB System 3 PSZ Occ Sch Winter Design Day, !- Name\n   ** Warning ** IP: IDF line~5137 Alpha Argument length exceeds maximum, will be truncated=  Sp-ER_Exam1_Mult4_Flr_1 Sys-3 Flr-1 Sch-H HPlcmt-south ZN NECB System 3 PSZ Occ Sch Winter Design Da\n   **   ~~~   ** Will be processed as Alpha=SP-ER_EXAM1_MULT4_FLR_1 SYS-3 FLR-1 SCH-H HPLCMT-SOUTH ZN NECB SYSTEM 3 PSZ OCC SCH WINTER DESIGN DAY\n   ************* IDF Context for following error/warning message:\n   ************* Note -- lines truncated at 300 characters, if necessary...\n   *************   5892 Schedule:Week:Daily,\n   ************* indicated Name=Schedule:Week:Daily {a4e39ac2-05ea-400d-be26-047cf00e9922}\n   ************* Only last 10 lines before error line shown.....\n   *************   5893   Schedule:Week:Daily {a4e39ac2-05ea-400d-be26-047cf00e9922}, !- Name\n   *************   5894   Sp-ER_NurseStn_Lobby_Flr_1 Sys-3 Flr-1 Sch-H HPlcmt-east ZN NECB System 3 PSZ Occ Sch Sunday, !- Sunday Schedule:Day Name\n   *************   5895   Sp-ER_NurseStn_Lobby_Flr_1 Sys-3 Flr-1 Sch-H HPlcmt-east ZN NECB System 3 PSZ Occ Sch Monday, !- Monday Schedule:Day Name\n   *************   5896   Sp-ER_NurseStn_Lobby_Flr_1 Sys-3 Flr-1 Sch-H HPlcmt-east ZN NECB System 3 PSZ Occ Sch Tuesday, !- Tuesday Schedule:Day Name\n   *************   5897   Sp-ER_NurseStn_Lobby_Flr_1 Sys-3 Flr-1 Sch-H HPlcmt-east ZN NECB System 3 PSZ Occ Sch Wednesday, !- Wednesday Schedule:Day Name\n   *************   5898   Sp-ER_NurseStn_Lobby_Flr_1 Sys-3 Flr-1 Sch-H HPlcmt-east ZN NECB System 3 PSZ Occ Sch Thursday, !- Thursday Schedule:Day Name\n   *************   5899   Sp-ER_NurseStn_Lobby_Flr_1 Sys-3 Flr-1 Sch-H HPlcmt-east ZN NECB System 3 PSZ Occ Sch Friday, !- Friday Schedule:Day Name\n   *************   5900   Sp-ER_NurseStn_Lobby_Flr_1 Sys-3 Flr-1 Sch-H HPlcmt-east ZN NECB System 3 PSZ Occ Sch Saturday, !- Saturday Schedule:Day Name\n   *************   5901   Sp-ER_NurseStn_Lobby_Flr_1 Sys-3 Flr-1 Sch-H HPlcmt-east ZN NECB System 3 PSZ Occ Sch Default, !- Holiday Schedule:Day Name\n   *************   5902   Sp-ER_NurseStn_Lobby_Flr_1 Sys-3 Flr-1 Sch-H HPlcmt-east ZN NECB System 3 PSZ Occ Sch Summer Design Day, !- SummerDesignDay Schedule:Day Name\n   ** Warning ** IP: IDF line~5902 Alpha Argument length exceeds maximum, will be truncated=  Sp-ER_NurseStn_Lobby_Flr_1 Sys-3 Flr-1 Sch-H HPlcmt-east ZN NECB System 3 PSZ Occ Sch Summer Design Da\n   **   ~~~   ** Will be processed as Alpha=SP-ER_NURSESTN_LOBBY_FLR_1 SYS-3 FLR-1 SCH-H HPLCMT-EAST ZN NECB SYSTEM 3 PSZ OCC SCH SUMMER DESIGN DAY\n   ************* IDF Context for following error/warning message:\n   ************* Note -- lines truncated at 300 characters, if necessary...\n   *************   5892 Schedule:Week:Daily,\n   ************* indicated Name=Schedule:Week:Daily {a4e39ac2-05ea-400d-be26-047cf00e9922}\n   ************* Only last 10 lines before error line shown.....\n   *************   5894   Sp-ER_NurseStn_Lobby_Flr_1 Sys-3 Flr-1 Sch-H HPlcmt-east ZN NECB System 3 PSZ Occ Sch Sunday, !- Sunday Schedule:Day Name\n   *************   5895   Sp-ER_NurseStn_Lobby_Flr_1 Sys-3 Flr-1 Sch-H HPlcmt-east ZN NECB System 3 PSZ Occ Sch Monday, !- Monday Schedule:Day Name\n   *************   5896   Sp-ER_NurseStn_Lobby_Flr_1 Sys-3 Flr-1 Sch-H HPlcmt-east ZN NECB System 3 PSZ Occ Sch Tuesday, !- Tuesday Schedule:Day Name\n   *************   5897   Sp-ER_NurseStn_Lobby_Flr_1 Sys-3 Flr-1 Sch-H HPlcmt-east ZN NECB System 3 PSZ Occ Sch Wednesday, !- Wednesday Schedule:Day Name\n   *************   5898   Sp-ER_NurseStn_Lobby_Flr_1 Sys-3 Flr-1 Sch-H HPlcmt-east ZN NECB System 3 PSZ Occ Sch Thursday, !- Thursday Schedule:Day Name\n   *************   5899   Sp-ER_NurseStn_Lobby_Flr_1 Sys-3 Flr-1 Sch-H HPlcmt-east ZN NECB System 3 PSZ Occ Sch Friday, !- Friday Schedule:Day Name\n   *************   5900   Sp-ER_NurseStn_Lobby_Flr_1 Sys-3 Flr-1 Sch-H HPlcmt-east ZN NECB System 3 PSZ Occ Sch Saturday, !- Saturday Schedule:Day Name\n   *************   5901   Sp-ER_NurseStn_Lobby_Flr_1 Sys-3 Flr-1 Sch-H HPlcmt-east ZN NECB System 3 PSZ Occ Sch Default, !- Holiday Schedule:Day Name\n   *************   5902   Sp-ER_NurseStn_Lobby_Flr_1 Sys-3 Flr-1 Sch-H HPlcmt-east ZN NECB System 3 PSZ Occ Sch Summer Design Day, !- SummerDesignDay Schedule:Day Name\n   *************   5903   Sp-ER_NurseStn_Lobby_Flr_1 Sys-3 Flr-1 Sch-H HPlcmt-east ZN NECB System 3 PSZ Occ Sch Winter Design Day, !- WinterDesignDay Schedule:Day Name\n   ** Warning ** IP: IDF line~5903 Alpha Argument length exceeds maximum, will be truncated=  Sp-ER_NurseStn_Lobby_Flr_1 Sys-3 Flr-1 Sch-H HPlcmt-east ZN NECB System 3 PSZ Occ Sch Winter Design Da\n   **   ~~~   ** Will be processed as Alpha=SP-ER_NURSESTN_LOBBY_FLR_1 SYS-3 FLR-1 SCH-H HPLCMT-EAST ZN NECB SYSTEM 3 PSZ OCC SCH WINTER DESIGN DAY\n   ************* IDF Context for following error/warning message:\n   ************* Note -- lines truncated at 300 characters, if necessary...\n   *************   5923 Schedule:Day:Interval,\n   ************* indicated Name=Sp-ER_NurseStn_Lobby_Flr_1 Sys-3 Flr-1 Sch-H HPlcmt-east ZN NECB System 3 PSZ Occ Sch Summer Design Day\n   ************* Only last 1 lines before error line shown.....\n   *************   5924   Sp-ER_NurseStn_Lobby_Flr_1 Sys-3 Flr-1 Sch-H HPlcmt-east ZN NECB System 3 PSZ Occ Sch Summer Design Day, !- Name\n   ** Warning ** IP: IDF line~5924 Alpha Argument length exceeds maximum, will be truncated=  Sp-ER_NurseStn_Lobby_Flr_1 Sys-3 Flr-1 Sch-H HPlcmt-east ZN NECB System 3 PSZ Occ Sch Summer Design Da\n   **   ~~~   ** Will be processed as Alpha=SP-ER_NURSESTN_LOBBY_FLR_1 SYS-3 FLR-1 SCH-H HPLCMT-EAST ZN NECB SYSTEM 3 PSZ OCC SCH SUMMER DESIGN DAY\n   ************* IDF Context for following error/warning message:\n   ************* Note -- lines truncated at 300 characters, if necessary...\n   *************   5930 Schedule:Day:Interval,\n   ************* indicated Name=Sp-ER_NurseStn_Lobby_Flr_1 Sys-3 Flr-1 Sch-H HPlcmt-east ZN NECB System 3 PSZ Occ Sch Winter Design Day\n   ************* Only last 1 lines before error line shown.....\n   *************   5931   Sp-ER_NurseStn_Lobby_Flr_1 Sys-3 Flr-1 Sch-H HPlcmt-east ZN NECB System 3 PSZ Occ Sch Winter Design Day, !- Name\n   ** Warning ** IP: IDF line~5931 Alpha Argument length exceeds maximum, will be truncated=  Sp-ER_NurseStn_Lobby_Flr_1 Sys-3 Flr-1 Sch-H HPlcmt-east ZN NECB System 3 PSZ Occ Sch Winter Design Da\n   **   ~~~   ** Will be processed as Alpha=SP-ER_NURSESTN_LOBBY_FLR_1 SYS-3 FLR-1 SCH-H HPLCMT-EAST ZN NECB SYSTEM 3 PSZ OCC SCH WINTER DESIGN DAY\n   ************* IDF Context for following error/warning message:\n   ************* Note -- lines truncated at 300 characters, if necessary...\n   *************   6693 Schedule:Week:Daily,\n   ************* indicated Name=Schedule:Week:Daily {a419038f-0416-4b44-bd74-4da9ed2a45ad}\n   ************* Only last 10 lines before error line shown.....\n   *************   6694   Schedule:Week:Daily {a419038f-0416-4b44-bd74-4da9ed2a45ad}, !- Name\n   *************   6695   Sp-ER_Triage_Mult4_Flr_1 Sys-3 Flr-1 Sch-H HPlcmt-north ZN NECB System 3 PSZ Occ Sch Sunday, !- Sunday Schedule:Day Name\n   *************   6696   Sp-ER_Triage_Mult4_Flr_1 Sys-3 Flr-1 Sch-H HPlcmt-north ZN NECB System 3 PSZ Occ Sch Monday, !- Monday Schedule:Day Name\n   *************   6697   Sp-ER_Triage_Mult4_Flr_1 Sys-3 Flr-1 Sch-H HPlcmt-north ZN NECB System 3 PSZ Occ Sch Tuesday, !- Tuesday Schedule:Day Name\n   *************   6698   Sp-ER_Triage_Mult4_Flr_1 Sys-3 Flr-1 Sch-H HPlcmt-north ZN NECB System 3 PSZ Occ Sch Wednesday, !- Wednesday Schedule:Day Name\n   *************   6699   Sp-ER_Triage_Mult4_Flr_1 Sys-3 Flr-1 Sch-H HPlcmt-north ZN NECB System 3 PSZ Occ Sch Thursday, !- Thursday Schedule:Day Name\n   *************   6700   Sp-ER_Triage_Mult4_Flr_1 Sys-3 Flr-1 Sch-H HPlcmt-north ZN NECB System 3 PSZ Occ Sch Friday, !- Friday Schedule:Day Name\n   *************   6701   Sp-ER_Triage_Mult4_Flr_1 Sys-3 Flr-1 Sch-H HPlcmt-north ZN NECB System 3 PSZ Occ Sch Saturday, !- Saturday Schedule:Day Name\n   *************   6702   Sp-ER_Triage_Mult4_Flr_1 Sys-3 Flr-1 Sch-H HPlcmt-north ZN NECB System 3 PSZ Occ Sch Default, !- Holiday Schedule:Day Name\n   *************   6703   Sp-ER_Triage_Mult4_Flr_1 Sys-3 Flr-1 Sch-H HPlcmt-north ZN NECB System 3 PSZ Occ Sch Summer Design Day, !- SummerDesignDay Schedule:Day Name\n   ** Warning ** IP: IDF line~6703 Alpha Argument length exceeds maximum, will be truncated=  Sp-ER_Triage_Mult4_Flr_1 Sys-3 Flr-1 Sch-H HPlcmt-north ZN NECB System 3 PSZ Occ Sch Summer Design Da\n   **   ~~~   ** Will be processed as Alpha=SP-ER_TRIAGE_MULT4_FLR_1 SYS-3 FLR-1 SCH-H HPLCMT-NORTH ZN NECB SYSTEM 3 PSZ OCC SCH SUMMER DESIGN DAY\n   ************* IDF Context for following error/warning message:\n   ************* Note -- lines truncated at 300 characters, if necessary...\n   *************   6693 Schedule:Week:Daily,\n   ************* indicated Name=Schedule:Week:Daily {a419038f-0416-4b44-bd74-4da9ed2a45ad}\n   ************* Only last 10 lines before error line shown.....\n   *************   6695   Sp-ER_Triage_Mult4_Flr_1 Sys-3 Flr-1 Sch-H HPlcmt-north ZN NECB System 3 PSZ Occ Sch Sunday, !- Sunday Schedule:Day Name\n   *************   6696   Sp-ER_Triage_Mult4_Flr_1 Sys-3 Flr-1 Sch-H HPlcmt-north ZN NECB System 3 PSZ Occ Sch Monday, !- Monday Schedule:Day Name\n   *************   6697   Sp-ER_Triage_Mult4_Flr_1 Sys-3 Flr-1 Sch-H HPlcmt-north ZN NECB System 3 PSZ Occ Sch Tuesday, !- Tuesday Schedule:Day Name\n   *************   6698   Sp-ER_Triage_Mult4_Flr_1 Sys-3 Flr-1 Sch-H HPlcmt-north ZN NECB System 3 PSZ Occ Sch Wednesday, !- Wednesday Schedule:Day Name\n   *************   6699   Sp-ER_Triage_Mult4_Flr_1 Sys-3 Flr-1 Sch-H HPlcmt-north ZN NECB System 3 PSZ Occ Sch Thursday, !- Thursday Schedule:Day Name\n   *************   6700   Sp-ER_Triage_Mult4_Flr_1 Sys-3 Flr-1 Sch-H HPlcmt-north ZN NECB System 3 PSZ Occ Sch Friday, !- Friday Schedule:Day Name\n   *************   6701   Sp-ER_Triage_Mult4_Flr_1 Sys-3 Flr-1 Sch-H HPlcmt-north ZN NECB System 3 PSZ Occ Sch Saturday, !- Saturday Schedule:Day Name\n   *************   6702   Sp-ER_Triage_Mult4_Flr_1 Sys-3 Flr-1 Sch-H HPlcmt-north ZN NECB System 3 PSZ Occ Sch Default, !- Holiday Schedule:Day Name\n   *************   6703   Sp-ER_Triage_Mult4_Flr_1 Sys-3 Flr-1 Sch-H HPlcmt-north ZN NECB System 3 PSZ Occ Sch Summer Design Day, !- SummerDesignDay Schedule:Day Name\n   *************   6704   Sp-ER_Triage_Mult4_Flr_1 Sys-3 Flr-1 Sch-H HPlcmt-north ZN NECB System 3 PSZ Occ Sch Winter Design Day, !- WinterDesignDay Schedule:Day Name\n   ** Warning ** IP: IDF line~6704 Alpha Argument length exceeds maximum, will be truncated=  Sp-ER_Triage_Mult4_Flr_1 Sys-3 Flr-1 Sch-H HPlcmt-north ZN NECB System 3 PSZ Occ Sch Winter Design Da\n   **   ~~~   ** Will be processed as Alpha=SP-ER_TRIAGE_MULT4_FLR_1 SYS-3 FLR-1 SCH-H HPLCMT-NORTH ZN NECB SYSTEM 3 PSZ OCC SCH WINTER DESIGN DAY\n   ************* IDF Context for following error/warning message:\n   ************* Note -- lines truncated at 300 characters, if necessary...\n   *************   6724 Schedule:Day:Interval,\n   ************* indicated Name=Sp-ER_Triage_Mult4_Flr_1 Sys-3 Flr-1 Sch-H HPlcmt-north ZN NECB System 3 PSZ Occ Sch Summer Design Day\n   ************* Only last 1 lines before error line shown.....\n   *************   6725   Sp-ER_Triage_Mult4_Flr_1 Sys-3 Flr-1 Sch-H HPlcmt-north ZN NECB System 3 PSZ Occ Sch Summer Design Day, !- Name\n   ** Warning ** IP: IDF line~6725 Alpha Argument length exceeds maximum, will be truncated=  Sp-ER_Triage_Mult4_Flr_1 Sys-3 Flr-1 Sch-H HPlcmt-north ZN NECB System 3 PSZ Occ Sch Summer Design Da\n   **   ~~~   ** Will be processed as Alpha=SP-ER_TRIAGE_MULT4_FLR_1 SYS-3 FLR-1 SCH-H HPLCMT-NORTH ZN NECB SYSTEM 3 PSZ OCC SCH SUMMER DESIGN DAY\n   ************* IDF Context for following error/warning message:\n   ************* Note -- lines truncated at 300 characters, if necessary...\n   *************   6731 Schedule:Day:Interval,\n   ************* indicated Name=Sp-ER_Triage_Mult4_Flr_1 Sys-3 Flr-1 Sch-H HPlcmt-north ZN NECB System 3 PSZ Occ Sch Winter Design Day\n   ************* Only last 1 lines before error line shown.....\n   *************   6732   Sp-ER_Triage_Mult4_Flr_1 Sys-3 Flr-1 Sch-H HPlcmt-north ZN NECB System 3 PSZ Occ Sch Winter Design Day, !- Name\n   ** Warning ** IP: IDF line~6732 Alpha Argument length exceeds maximum, will be truncated=  Sp-ER_Triage_Mult4_Flr_1 Sys-3 Flr-1 Sch-H HPlcmt-north ZN NECB System 3 PSZ Occ Sch Winter Design Da\n   **   ~~~   ** Will be processed as Alpha=SP-ER_TRIAGE_MULT4_FLR_1 SYS-3 FLR-1 SCH-H HPLCMT-NORTH ZN NECB SYSTEM 3 PSZ OCC SCH WINTER DESIGN DAY\n   ************* IDF Context for following error/warning message:\n   ************* Note -- lines truncated at 300 characters, if necessary...\n   *************   7423 Schedule:Week:Daily,\n   ************* indicated Name=Schedule:Week:Daily {aa305d93-30c0-4b6a-b9a3-6e0011818763}\n   ************* Only last 10 lines before error line shown.....\n   *************   7424   Schedule:Week:Daily {aa305d93-30c0-4b6a-b9a3-6e0011818763}, !- Name\n   *************   7425   Sp-ICU_NurseStn_Lobby_Flr_2 Sys-3 Flr-4 Sch-H HPlcmt-core ZN NECB System 3 PSZ Occ Sch Sunday, !- Sunday Schedule:Day Name\n   *************   7426   Sp-ICU_NurseStn_Lobby_Flr_2 Sys-3 Flr-4 Sch-H HPlcmt-core ZN NECB System 3 PSZ Occ Sch Monday, !- Monday Schedule:Day Name\n   *************   7427   Sp-ICU_NurseStn_Lobby_Flr_2 Sys-3 Flr-4 Sch-H HPlcmt-core ZN NECB System 3 PSZ Occ Sch Tuesday, !- Tuesday Schedule:Day Name\n   *************   7428   Sp-ICU_NurseStn_Lobby_Flr_2 Sys-3 Flr-4 Sch-H HPlcmt-core ZN NECB System 3 PSZ Occ Sch Wednesday, !- Wednesday Schedule:Day Name\n   *************   7429   Sp-ICU_NurseStn_Lobby_Flr_2 Sys-3 Flr-4 Sch-H HPlcmt-core ZN NECB System 3 PSZ Occ Sch Thursday, !- Thursday Schedule:Day Name\n   *************   7430   Sp-ICU_NurseStn_Lobby_Flr_2 Sys-3 Flr-4 Sch-H HPlcmt-core ZN NECB System 3 PSZ Occ Sch Friday, !- Friday Schedule:Day Name\n   *************   7431   Sp-ICU_NurseStn_Lobby_Flr_2 Sys-3 Flr-4 Sch-H HPlcmt-core ZN NECB System 3 PSZ Occ Sch Saturday, !- Saturday Schedule:Day Name\n   *************   7432   Sp-ICU_NurseStn_Lobby_Flr_2 Sys-3 Flr-4 Sch-H HPlcmt-core ZN NECB System 3 PSZ Occ Sch Default, !- Holiday Schedule:Day Name\n   *************   7433   Sp-ICU_NurseStn_Lobby_Flr_2 Sys-3 Flr-4 Sch-H HPlcmt-core ZN NECB System 3 PSZ Occ Sch Summer Design Day, !- SummerDesignDay Schedule:Day Name\n   ** Warning ** IP: IDF line~7433 Alpha Argument length exceeds maximum, will be truncated=  Sp-ICU_NurseStn_Lobby_Flr_2 Sys-3 Flr-4 Sch-H HPlcmt-core ZN NECB System 3 PSZ Occ Sch Summer Design Da\n   **   ~~~   ** Will be processed as Alpha=SP-ICU_NURSESTN_LOBBY_FLR_2 SYS-3 FLR-4 SCH-H HPLCMT-CORE ZN NECB SYSTEM 3 PSZ OCC SCH SUMMER DESIGN DAY\n   ************* IDF Context for following error/warning message:\n   ************* Note -- lines truncated at 300 characters, if necessary...\n   *************   7423 Schedule:Week:Daily,\n   ************* indicated Name=Schedule:Week:Daily {aa305d93-30c0-4b6a-b9a3-6e0011818763}\n   ************* Only last 10 lines before error line shown.....\n   *************   7425   Sp-ICU_NurseStn_Lobby_Flr_2 Sys-3 Flr-4 Sch-H HPlcmt-core ZN NECB System 3 PSZ Occ Sch Sunday, !- Sunday Schedule:Day Name\n   *************   7426   Sp-ICU_NurseStn_Lobby_Flr_2 Sys-3 Flr-4 Sch-H HPlcmt-core ZN NECB System 3 PSZ Occ Sch Monday, !- Monday Schedule:Day Name\n   *************   7427   Sp-ICU_NurseStn_Lobby_Flr_2 Sys-3 Flr-4 Sch-H HPlcmt-core ZN NECB System 3 PSZ Occ Sch Tuesday, !- Tuesday Schedule:Day Name\n   *************   7428   Sp-ICU_NurseStn_Lobby_Flr_2 Sys-3 Flr-4 Sch-H HPlcmt-core ZN NECB System 3 PSZ Occ Sch Wednesday, !- Wednesday Schedule:Day Name\n   *************   7429   Sp-ICU_NurseStn_Lobby_Flr_2 Sys-3 Flr-4 Sch-H HPlcmt-core ZN NECB System 3 PSZ Occ Sch Thursday, !- Thursday Schedule:Day Name\n   *************   7430   Sp-ICU_NurseStn_Lobby_Flr_2 Sys-3 Flr-4 Sch-H HPlcmt-core ZN NECB System 3 PSZ Occ Sch Friday, !- Friday Schedule:Day Name\n   *************   7431   Sp-ICU_NurseStn_Lobby_Flr_2 Sys-3 Flr-4 Sch-H HPlcmt-core ZN NECB System 3 PSZ Occ Sch Saturday, !- Saturday Schedule:Day Name\n   *************   7432   Sp-ICU_NurseStn_Lobby_Flr_2 Sys-3 Flr-4 Sch-H HPlcmt-core ZN NECB System 3 PSZ Occ Sch Default, !- Holiday Schedule:Day Name\n   *************   7433   Sp-ICU_NurseStn_Lobby_Flr_2 Sys-3 Flr-4 Sch-H HPlcmt-core ZN NECB System 3 PSZ Occ Sch Summer Design Day, !- SummerDesignDay Schedule:Day Name\n   *************   7434   Sp-ICU_NurseStn_Lobby_Flr_2 Sys-3 Flr-4 Sch-H HPlcmt-core ZN NECB System 3 PSZ Occ Sch Winter Design Day, !- WinterDesignDay Schedule:Day Name\n   ** Warning ** IP: IDF line~7434 Alpha Argument length exceeds maximum, will be truncated=  Sp-ICU_NurseStn_Lobby_Flr_2 Sys-3 Flr-4 Sch-H HPlcmt-core ZN NECB System 3 PSZ Occ Sch Winter Design Da\n   **   ~~~   ** Will be processed as Alpha=SP-ICU_NURSESTN_LOBBY_FLR_2 SYS-3 FLR-4 SCH-H HPLCMT-CORE ZN NECB SYSTEM 3 PSZ OCC SCH WINTER DESIGN DAY\n   ************* IDF Context for following error/warning message:\n   ************* Note -- lines truncated at 300 characters, if necessary...\n   *************   7454 Schedule:Day:Interval,\n   ************* indicated Name=Sp-ICU_NurseStn_Lobby_Flr_2 Sys-3 Flr-4 Sch-H HPlcmt-core ZN NECB System 3 PSZ Occ Sch Summer Design Day\n   ************* Only last 1 lines before error line shown.....\n   *************   7455   Sp-ICU_NurseStn_Lobby_Flr_2 Sys-3 Flr-4 Sch-H HPlcmt-core ZN NECB System 3 PSZ Occ Sch Summer Design Day, !- Name\n   ** Warning ** IP: IDF line~7455 Alpha Argument length exceeds maximum, will be truncated=  Sp-ICU_NurseStn_Lobby_Flr_2 Sys-3 Flr-4 Sch-H HPlcmt-core ZN NECB System 3 PSZ Occ Sch Summer Design Da\n   **   ~~~   ** Will be processed as Alpha=SP-ICU_NURSESTN_LOBBY_FLR_2 SYS-3 FLR-4 SCH-H HPLCMT-CORE ZN NECB SYSTEM 3 PSZ OCC SCH SUMMER DESIGN DAY\n   ************* IDF Context for following error/warning message:\n   ************* Note -- lines truncated at 300 characters, if necessary...\n   *************   7461 Schedule:Day:Interval,\n   ************* indicated Name=Sp-ICU_NurseStn_Lobby_Flr_2 Sys-3 Flr-4 Sch-H HPlcmt-core ZN NECB System 3 PSZ Occ Sch Winter Design Day\n   ************* Only last 1 lines before error line shown.....\n   *************   7462   Sp-ICU_NurseStn_Lobby_Flr_2 Sys-3 Flr-4 Sch-H HPlcmt-core ZN NECB System 3 PSZ Occ Sch Winter Design Day, !- Name\n   ** Warning ** IP: IDF line~7462 Alpha Argument length exceeds maximum, will be truncated=  Sp-ICU_NurseStn_Lobby_Flr_2 Sys-3 Flr-4 Sch-H HPlcmt-core ZN NECB System 3 PSZ Occ Sch Winter Design Da\n   **   ~~~   ** Will be processed as Alpha=SP-ICU_NURSESTN_LOBBY_FLR_2 SYS-3 FLR-4 SCH-H HPLCMT-CORE ZN NECB SYSTEM 3 PSZ OCC SCH WINTER DESIGN DAY\n   ************* IDF Context for following error/warning message:\n   ************* Note -- lines truncated at 300 characters, if necessary...\n   *************   8272 Schedule:Week:Daily,\n   ************* indicated Name=Schedule:Week:Daily {e7a59e28-581b-4c4b-9360-ffc4abf04789}\n   ************* Only last 10 lines before error line shown.....\n   *************   8273   Schedule:Week:Daily {e7a59e28-581b-4c4b-9360-ffc4abf04789}, !- Name\n   *************   8274   Sp-IC_PatRoom3_Mult6_Flr_2 Sys-3 Flr-4 Sch-H HPlcmt-west ZN NECB System 3 PSZ Occ Sch Sunday, !- Sunday Schedule:Day Name\n   *************   8275   Sp-IC_PatRoom3_Mult6_Flr_2 Sys-3 Flr-4 Sch-H HPlcmt-west ZN NECB System 3 PSZ Occ Sch Monday, !- Monday Schedule:Day Name\n   *************   8276   Sp-IC_PatRoom3_Mult6_Flr_2 Sys-3 Flr-4 Sch-H HPlcmt-west ZN NECB System 3 PSZ Occ Sch Tuesday, !- Tuesday Schedule:Day Name\n   *************   8277   Sp-IC_PatRoom3_Mult6_Flr_2 Sys-3 Flr-4 Sch-H HPlcmt-west ZN NECB System 3 PSZ Occ Sch Wednesday, !- Wednesday Schedule:Day Name\n   *************   8278   Sp-IC_PatRoom3_Mult6_Flr_2 Sys-3 Flr-4 Sch-H HPlcmt-west ZN NECB System 3 PSZ Occ Sch Thursday, !- Thursday Schedule:Day Name\n   *************   8279   Sp-IC_PatRoom3_Mult6_Flr_2 Sys-3 Flr-4 Sch-H HPlcmt-west ZN NECB System 3 PSZ Occ Sch Friday, !- Friday Schedule:Day Name\n   *************   8280   Sp-IC_PatRoom3_Mult6_Flr_2 Sys-3 Flr-4 Sch-H HPlcmt-west ZN NECB System 3 PSZ Occ Sch Saturday, !- Saturday Schedule:Day Name\n   *************   8281   Sp-IC_PatRoom3_Mult6_Flr_2 Sys-3 Flr-4 Sch-H HPlcmt-west ZN NECB System 3 PSZ Occ Sch Default, !- Holiday Schedule:Day Name\n   *************   8282   Sp-IC_PatRoom3_Mult6_Flr_2 Sys-3 Flr-4 Sch-H HPlcmt-west ZN NECB System 3 PSZ Occ Sch Summer Design Day, !- SummerDesignDay Schedule:Day Name\n   ** Warning ** IP: IDF line~8282 Alpha Argument length exceeds maximum, will be truncated=  Sp-IC_PatRoom3_Mult6_Flr_2 Sys-3 Flr-4 Sch-H HPlcmt-west ZN NECB System 3 PSZ Occ Sch Summer Design Da\n   **   ~~~   ** Will be processed as Alpha=SP-IC_PATROOM3_MULT6_FLR_2 SYS-3 FLR-4 SCH-H HPLCMT-WEST ZN NECB SYSTEM 3 PSZ OCC SCH SUMMER DESIGN DAY\n   ************* IDF Context for following error/warning message:\n   ************* Note -- lines truncated at 300 characters, if necessary...\n   *************   8272 Schedule:Week:Daily,\n   ************* indicated Name=Schedule:Week:Daily {e7a59e28-581b-4c4b-9360-ffc4abf04789}\n   ************* Only last 10 lines before error line shown.....\n   *************   8274   Sp-IC_PatRoom3_Mult6_Flr_2 Sys-3 Flr-4 Sch-H HPlcmt-west ZN NECB System 3 PSZ Occ Sch Sunday, !- Sunday Schedule:Day Name\n   *************   8275   Sp-IC_PatRoom3_Mult6_Flr_2 Sys-3 Flr-4 Sch-H HPlcmt-west ZN NECB System 3 PSZ Occ Sch Monday, !- Monday Schedule:Day Name\n   *************   8276   Sp-IC_PatRoom3_Mult6_Flr_2 Sys-3 Flr-4 Sch-H HPlcmt-west ZN NECB System 3 PSZ Occ Sch Tuesday, !- Tuesday Schedule:Day Name\n   *************   8277   Sp-IC_PatRoom3_Mult6_Flr_2 Sys-3 Flr-4 Sch-H HPlcmt-west ZN NECB System 3 PSZ Occ Sch Wednesday, !- Wednesday Schedule:Day Name\n   *************   8278   Sp-IC_PatRoom3_Mult6_Flr_2 Sys-3 Flr-4 Sch-H HPlcmt-west ZN NECB System 3 PSZ Occ Sch Thursday, !- Thursday Schedule:Day Name\n   *************   8279   Sp-IC_PatRoom3_Mult6_Flr_2 Sys-3 Flr-4 Sch-H HPlcmt-west ZN NECB System 3 PSZ Occ Sch Friday, !- Friday Schedule:Day Name\n   *************   8280   Sp-IC_PatRoom3_Mult6_Flr_2 Sys-3 Flr-4 Sch-H HPlcmt-west ZN NECB System 3 PSZ Occ Sch Saturday, !- Saturday Schedule:Day Name\n   *************   8281   Sp-IC_PatRoom3_Mult6_Flr_2 Sys-3 Flr-4 Sch-H HPlcmt-west ZN NECB System 3 PSZ Occ Sch Default, !- Holiday Schedule:Day Name\n   *************   8282   Sp-IC_PatRoom3_Mult6_Flr_2 Sys-3 Flr-4 Sch-H HPlcmt-west ZN NECB System 3 PSZ Occ Sch Summer Design Day, !- SummerDesignDay Schedule:Day Name\n   *************   8283   Sp-IC_PatRoom3_Mult6_Flr_2 Sys-3 Flr-4 Sch-H HPlcmt-west ZN NECB System 3 PSZ Occ Sch Winter Design Day, !- WinterDesignDay Schedule:Day Name\n   ** Warning ** IP: IDF line~8283 Alpha Argument length exceeds maximum, will be truncated=  Sp-IC_PatRoom3_Mult6_Flr_2 Sys-3 Flr-4 Sch-H HPlcmt-west ZN NECB System 3 PSZ Occ Sch Winter Design Da\n   **   ~~~   ** Will be processed as Alpha=SP-IC_PATROOM3_MULT6_FLR_2 SYS-3 FLR-4 SCH-H HPLCMT-WEST ZN NECB SYSTEM 3 PSZ OCC SCH WINTER DESIGN DAY\n   ************* IDF Context for following error/warning message:\n   ************* Note -- lines truncated at 300 characters, if necessary...\n   *************   8303 Schedule:Day:Interval,\n   ************* indicated Name=Sp-IC_PatRoom3_Mult6_Flr_2 Sys-3 Flr-4 Sch-H HPlcmt-west ZN NECB System 3 PSZ Occ Sch Summer Design Day\n   ************* Only last 1 lines before error line shown.....\n   *************   8304   Sp-IC_PatRoom3_Mult6_Flr_2 Sys-3 Flr-4 Sch-H HPlcmt-west ZN NECB System 3 PSZ Occ Sch Summer Design Day, !- Name\n   ** Warning ** IP: IDF line~8304 Alpha Argument length exceeds maximum, will be truncated=  Sp-IC_PatRoom3_Mult6_Flr_2 Sys-3 Flr-4 Sch-H HPlcmt-west ZN NECB System 3 PSZ Occ Sch Summer Design Da\n   **   ~~~   ** Will be processed as Alpha=SP-IC_PATROOM3_MULT6_FLR_2 SYS-3 FLR-4 SCH-H HPLCMT-WEST ZN NECB SYSTEM 3 PSZ OCC SCH SUMMER DESIGN DAY\n   ************* IDF Context for following error/warning message:\n   ************* Note -- lines truncated at 300 characters, if necessary...\n   *************   8310 Schedule:Day:Interval,\n   ************* indicated Name=Sp-IC_PatRoom3_Mult6_Flr_2 Sys-3 Flr-4 Sch-H HPlcmt-west ZN NECB System 3 PSZ Occ Sch Winter Design Day\n   ************* Only last 1 lines before error line shown.....\n   *************   8311   Sp-IC_PatRoom3_Mult6_Flr_2 Sys-3 Flr-4 Sch-H HPlcmt-west ZN NECB System 3 PSZ Occ Sch Winter Design Day, !- Name\n   ** Warning ** IP: IDF line~8311 Alpha Argument length exceeds maximum, will be truncated=  Sp-IC_PatRoom3_Mult6_Flr_2 Sys-3 Flr-4 Sch-H HPlcmt-west ZN NECB System 3 PSZ Occ Sch Winter Design Da\n   **   ~~~   ** Will be processed as Alpha=SP-IC_PATROOM3_MULT6_FLR_2 SYS-3 FLR-4 SCH-H HPLCMT-WEST ZN NECB SYSTEM 3 PSZ OCC SCH WINTER DESIGN DAY\n   ************* IDF Context for following error/warning message:\n   ************* Note -- lines truncated at 300 characters, if necessary...\n   *************  10967 Schedule:Week:Daily,\n   ************* indicated Name=Schedule:Week:Daily {4c0d2962-7463-4c1b-9e37-acd407ec7678}\n   ************* Only last 10 lines before error line shown.....\n   *************  10968   Schedule:Week:Daily {4c0d2962-7463-4c1b-9e37-acd407ec7678}, !- Name\n   *************  10969   Sp-NurseStn_Lobby_Flr_5 Sys-3 Flr-6 Sch-H HPlcmt-south ZN NECB System 3 PSZ Occ Sch Sunday, !- Sunday Schedule:Day Name\n   *************  10970   Sp-NurseStn_Lobby_Flr_5 Sys-3 Flr-6 Sch-H HPlcmt-south ZN NECB System 3 PSZ Occ Sch Monday, !- Monday Schedule:Day Name\n   *************  10971   Sp-NurseStn_Lobby_Flr_5 Sys-3 Flr-6 Sch-H HPlcmt-south ZN NECB System 3 PSZ Occ Sch Tuesday, !- Tuesday Schedule:Day Name\n   *************  10972   Sp-NurseStn_Lobby_Flr_5 Sys-3 Flr-6 Sch-H HPlcmt-south ZN NECB System 3 PSZ Occ Sch Wednesday, !- Wednesday Schedule:Day Name\n   *************  10973   Sp-NurseStn_Lobby_Flr_5 Sys-3 Flr-6 Sch-H HPlcmt-south ZN NECB System 3 PSZ Occ Sch Thursday, !- Thursday Schedule:Day Name\n   *************  10974   Sp-NurseStn_Lobby_Flr_5 Sys-3 Flr-6 Sch-H HPlcmt-south ZN NECB System 3 PSZ Occ Sch Friday, !- Friday Schedule:Day Name\n   *************  10975   Sp-NurseStn_Lobby_Flr_5 Sys-3 Flr-6 Sch-H HPlcmt-south ZN NECB System 3 PSZ Occ Sch Saturday, !- Saturday Schedule:Day Name\n   *************  10976   Sp-NurseStn_Lobby_Flr_5 Sys-3 Flr-6 Sch-H HPlcmt-south ZN NECB System 3 PSZ Occ Sch Default, !- Holiday Schedule:Day Name\n   *************  10977   Sp-NurseStn_Lobby_Flr_5 Sys-3 Flr-6 Sch-H HPlcmt-south ZN NECB System 3 PSZ Occ Sch Summer Design Day, !- SummerDesignDay Schedule:Day Name\n   ** Warning ** IP: IDF line~10977 Alpha Argument length exceeds maximum, will be truncated=  Sp-NurseStn_Lobby_Flr_5 Sys-3 Flr-6 Sch-H HPlcmt-south ZN NECB System 3 PSZ Occ Sch Summer Design Da\n   **   ~~~   ** Will be processed as Alpha=SP-NURSESTN_LOBBY_FLR_5 SYS-3 FLR-6 SCH-H HPLCMT-SOUTH ZN NECB SYSTEM 3 PSZ OCC SCH SUMMER DESIGN DAY\n   ************* IDF Context for following error/warning message:\n   ************* Note -- lines truncated at 300 characters, if necessary...\n   *************  10967 Schedule:Week:Daily,\n   ************* indicated Name=Schedule:Week:Daily {4c0d2962-7463-4c1b-9e37-acd407ec7678}\n   ************* Only last 10 lines before error line shown.....\n   *************  10969   Sp-NurseStn_Lobby_Flr_5 Sys-3 Flr-6 Sch-H HPlcmt-south ZN NECB System 3 PSZ Occ Sch Sunday, !- Sunday Schedule:Day Name\n   *************  10970   Sp-NurseStn_Lobby_Flr_5 Sys-3 Flr-6 Sch-H HPlcmt-south ZN NECB System 3 PSZ Occ Sch Monday, !- Monday Schedule:Day Name\n   *************  10971   Sp-NurseStn_Lobby_Flr_5 Sys-3 Flr-6 Sch-H HPlcmt-south ZN NECB System 3 PSZ Occ Sch Tuesday, !- Tuesday Schedule:Day Name\n   *************  10972   Sp-NurseStn_Lobby_Flr_5 Sys-3 Flr-6 Sch-H HPlcmt-south ZN NECB System 3 PSZ Occ Sch Wednesday, !- Wednesday Schedule:Day Name\n   *************  10973   Sp-NurseStn_Lobby_Flr_5 Sys-3 Flr-6 Sch-H HPlcmt-south ZN NECB System 3 PSZ Occ Sch Thursday, !- Thursday Schedule:Day Name\n   *************  10974   Sp-NurseStn_Lobby_Flr_5 Sys-3 Flr-6 Sch-H HPlcmt-south ZN NECB System 3 PSZ Occ Sch Friday, !- Friday Schedule:Day Name\n   *************  10975   Sp-NurseStn_Lobby_Flr_5 Sys-3 Flr-6 Sch-H HPlcmt-south ZN NECB System 3 PSZ Occ Sch Saturday, !- Saturday Schedule:Day Name\n   *************  10976   Sp-NurseStn_Lobby_Flr_5 Sys-3 Flr-6 Sch-H HPlcmt-south ZN NECB System 3 PSZ Occ Sch Default, !- Holiday Schedule:Day Name\n   *************  10977   Sp-NurseStn_Lobby_Flr_5 Sys-3 Flr-6 Sch-H HPlcmt-south ZN NECB System 3 PSZ Occ Sch Summer Design Day, !- SummerDesignDay Schedule:Day Name\n   *************  10978   Sp-NurseStn_Lobby_Flr_5 Sys-3 Flr-6 Sch-H HPlcmt-south ZN NECB System 3 PSZ Occ Sch Winter Design Day, !- WinterDesignDay Schedule:Day Name\n   ** Warning ** IP: IDF line~10978 Alpha Argument length exceeds maximum, will be truncated=  Sp-NurseStn_Lobby_Flr_5 Sys-3 Flr-6 Sch-H HPlcmt-south ZN NECB System 3 PSZ Occ Sch Winter Design Da\n   **   ~~~   ** Will be processed as Alpha=SP-NURSESTN_LOBBY_FLR_5 SYS-3 FLR-6 SCH-H HPLCMT-SOUTH ZN NECB SYSTEM 3 PSZ OCC SCH WINTER DESIGN DAY\n   ************* IDF Context for following error/warning message:\n   ************* Note -- lines truncated at 300 characters, if necessary...\n   *************  10998 Schedule:Day:Interval,\n   ************* indicated Name=Sp-NurseStn_Lobby_Flr_5 Sys-3 Flr-6 Sch-H HPlcmt-south ZN NECB System 3 PSZ Occ Sch Summer Design Day\n   ************* Only last 1 lines before error line shown.....\n   *************  10999   Sp-NurseStn_Lobby_Flr_5 Sys-3 Flr-6 Sch-H HPlcmt-south ZN NECB System 3 PSZ Occ Sch Summer Design Day, !- Name\n   ** Warning ** IP: IDF line~10999 Alpha Argument length exceeds maximum, will be truncated=  Sp-NurseStn_Lobby_Flr_5 Sys-3 Flr-6 Sch-H HPlcmt-south ZN NECB System 3 PSZ Occ Sch Summer Design Da\n   **   ~~~   ** Will be processed as Alpha=SP-NURSESTN_LOBBY_FLR_5 SYS-3 FLR-6 SCH-H HPLCMT-SOUTH ZN NECB SYSTEM 3 PSZ OCC SCH SUMMER DESIGN DAY\n   ************* IDF Context for following error/warning message:\n   ************* Note -- lines truncated at 300 characters, if necessary...\n   *************  11005 Schedule:Day:Interval,\n   ************* indicated Name=Sp-NurseStn_Lobby_Flr_5 Sys-3 Flr-6 Sch-H HPlcmt-south ZN NECB System 3 PSZ Occ Sch Winter Design Day\n   ************* Only last 1 lines before error line shown.....\n   *************  11006   Sp-NurseStn_Lobby_Flr_5 Sys-3 Flr-6 Sch-H HPlcmt-south ZN NECB System 3 PSZ Occ Sch Winter Design Day, !- Name\n   ** Warning ** IP: IDF line~11006 Alpha Argument length exceeds maximum, will be truncated=  Sp-NurseStn_Lobby_Flr_5 Sys-3 Flr-6 Sch-H HPlcmt-south ZN NECB System 3 PSZ Occ Sch Winter Design Da\n   **   ~~~   ** Will be processed as Alpha=SP-NURSESTN_LOBBY_FLR_5 SYS-3 FLR-6 SCH-H HPLCMT-SOUTH ZN NECB SYSTEM 3 PSZ OCC SCH WINTER DESIGN DAY\n   ************* IDF Context for following error/warning message:\n   ************* Note -- lines truncated at 300 characters, if necessary...\n   *************  14142 Schedule:Week:Daily,\n   ************* indicated Name=Schedule:Week:Daily {334e9543-dfac-4faa-9b3b-aa8fa087dae5}\n   ************* Only last 10 lines before error line shown.....\n   *************  14143   Schedule:Week:Daily {334e9543-dfac-4faa-9b3b-aa8fa087dae5}, !- Name\n   *************  14144   Sp-OR_NurseStn_Lobby_Flr_2 Sys-3 Flr-4 Sch-H HPlcmt-south ZN NECB System 3 PSZ Occ Sch Sunday, !- Sunday Schedule:Day Name\n   *************  14145   Sp-OR_NurseStn_Lobby_Flr_2 Sys-3 Flr-4 Sch-H HPlcmt-south ZN NECB System 3 PSZ Occ Sch Monday, !- Monday Schedule:Day Name\n   *************  14146   Sp-OR_NurseStn_Lobby_Flr_2 Sys-3 Flr-4 Sch-H HPlcmt-south ZN NECB System 3 PSZ Occ Sch Tuesday, !- Tuesday Schedule:Day Name\n   *************  14147   Sp-OR_NurseStn_Lobby_Flr_2 Sys-3 Flr-4 Sch-H HPlcmt-south ZN NECB System 3 PSZ Occ Sch Wednesday, !- Wednesday Schedule:Day Name\n   *************  14148   Sp-OR_NurseStn_Lobby_Flr_2 Sys-3 Flr-4 Sch-H HPlcmt-south ZN NECB System 3 PSZ Occ Sch Thursday, !- Thursday Schedule:Day Name\n   *************  14149   Sp-OR_NurseStn_Lobby_Flr_2 Sys-3 Flr-4 Sch-H HPlcmt-south ZN NECB System 3 PSZ Occ Sch Friday, !- Friday Schedule:Day Name\n   *************  14150   Sp-OR_NurseStn_Lobby_Flr_2 Sys-3 Flr-4 Sch-H HPlcmt-south ZN NECB System 3 PSZ Occ Sch Saturday, !- Saturday Schedule:Day Name\n   *************  14151   Sp-OR_NurseStn_Lobby_Flr_2 Sys-3 Flr-4 Sch-H HPlcmt-south ZN NECB System 3 PSZ Occ Sch Default, !- Holiday Schedule:Day Name\n   *************  14152   Sp-OR_NurseStn_Lobby_Flr_2 Sys-3 Flr-4 Sch-H HPlcmt-south ZN NECB System 3 PSZ Occ Sch Summer Design Day, !- SummerDesignDay Schedule:Day Name\n   ** Warning ** IP: IDF line~14152 Alpha Argument length exceeds maximum, will be truncated=  Sp-OR_NurseStn_Lobby_Flr_2 Sys-3 Flr-4 Sch-H HPlcmt-south ZN NECB System 3 PSZ Occ Sch Summer Design Da\n   **   ~~~   ** Will be processed as Alpha=SP-OR_NURSESTN_LOBBY_FLR_2 SYS-3 FLR-4 SCH-H HPLCMT-SOUTH ZN NECB SYSTEM 3 PSZ OCC SCH SUMMER DESIGN DAY\n   ************* IDF Context for following error/warning message:\n   ************* Note -- lines truncated at 300 characters, if necessary...\n   *************  14142 Schedule:Week:Daily,\n   ************* indicated Name=Schedule:Week:Daily {334e9543-dfac-4faa-9b3b-aa8fa087dae5}\n   ************* Only last 10 lines before error line shown.....\n   *************  14144   Sp-OR_NurseStn_Lobby_Flr_2 Sys-3 Flr-4 Sch-H HPlcmt-south ZN NECB System 3 PSZ Occ Sch Sunday, !- Sunday Schedule:Day Name\n   *************  14145   Sp-OR_NurseStn_Lobby_Flr_2 Sys-3 Flr-4 Sch-H HPlcmt-south ZN NECB System 3 PSZ Occ Sch Monday, !- Monday Schedule:Day Name\n   *************  14146   Sp-OR_NurseStn_Lobby_Flr_2 Sys-3 Flr-4 Sch-H HPlcmt-south ZN NECB System 3 PSZ Occ Sch Tuesday, !- Tuesday Schedule:Day Name\n   *************  14147   Sp-OR_NurseStn_Lobby_Flr_2 Sys-3 Flr-4 Sch-H HPlcmt-south ZN NECB System 3 PSZ Occ Sch Wednesday, !- Wednesday Schedule:Day Name\n   *************  14148   Sp-OR_NurseStn_Lobby_Flr_2 Sys-3 Flr-4 Sch-H HPlcmt-south ZN NECB System 3 PSZ Occ Sch Thursday, !- Thursday Schedule:Day Name\n   *************  14149   Sp-OR_NurseStn_Lobby_Flr_2 Sys-3 Flr-4 Sch-H HPlcmt-south ZN NECB System 3 PSZ Occ Sch Friday, !- Friday Schedule:Day Name\n   *************  14150   Sp-OR_NurseStn_Lobby_Flr_2 Sys-3 Flr-4 Sch-H HPlcmt-south ZN NECB System 3 PSZ Occ Sch Saturday, !- Saturday Schedule:Day Name\n   *************  14151   Sp-OR_NurseStn_Lobby_Flr_2 Sys-3 Flr-4 Sch-H HPlcmt-south ZN NECB System 3 PSZ Occ Sch Default, !- Holiday Schedule:Day Name\n   *************  14152   Sp-OR_NurseStn_Lobby_Flr_2 Sys-3 Flr-4 Sch-H HPlcmt-south ZN NECB System 3 PSZ Occ Sch Summer Design Day, !- SummerDesignDay Schedule:Day Name\n   *************  14153   Sp-OR_NurseStn_Lobby_Flr_2 Sys-3 Flr-4 Sch-H HPlcmt-south ZN NECB System 3 PSZ Occ Sch Winter Design Day, !- WinterDesignDay Schedule:Day Name\n   ** Warning ** IP: IDF line~14153 Alpha Argument length exceeds maximum, will be truncated=  Sp-OR_NurseStn_Lobby_Flr_2 Sys-3 Flr-4 Sch-H HPlcmt-south ZN NECB System 3 PSZ Occ Sch Winter Design Da\n   **   ~~~   ** Will be processed as Alpha=SP-OR_NURSESTN_LOBBY_FLR_2 SYS-3 FLR-4 SCH-H HPLCMT-SOUTH ZN NECB SYSTEM 3 PSZ OCC SCH WINTER DESIGN DAY\n   ************* IDF Context for following error/warning message:\n   ************* Note -- lines truncated at 300 characters, if necessary...\n   *************  14173 Schedule:Day:Interval,\n   ************* indicated Name=Sp-OR_NurseStn_Lobby_Flr_2 Sys-3 Flr-4 Sch-H HPlcmt-south ZN NECB System 3 PSZ Occ Sch Summer Design Day\n   ************* Only last 1 lines before error line shown.....\n   *************  14174   Sp-OR_NurseStn_Lobby_Flr_2 Sys-3 Flr-4 Sch-H HPlcmt-south ZN NECB System 3 PSZ Occ Sch Summer Design Day, !- Name\n   ** Warning ** IP: IDF line~14174 Alpha Argument length exceeds maximum, will be truncated=  Sp-OR_NurseStn_Lobby_Flr_2 Sys-3 Flr-4 Sch-H HPlcmt-south ZN NECB System 3 PSZ Occ Sch Summer Design Da\n   **   ~~~   ** Will be processed as Alpha=SP-OR_NURSESTN_LOBBY_FLR_2 SYS-3 FLR-4 SCH-H HPLCMT-SOUTH ZN NECB SYSTEM 3 PSZ OCC SCH SUMMER DESIGN DAY\n   ************* IDF Context for following error/warning message:\n   ************* Note -- lines truncated at 300 characters, if necessary...\n   *************  14180 Schedule:Day:Interval,\n   ************* indicated Name=Sp-OR_NurseStn_Lobby_Flr_2 Sys-3 Flr-4 Sch-H HPlcmt-south ZN NECB System 3 PSZ Occ Sch Winter Design Day\n   ************* Only last 1 lines before error line shown.....\n   *************  14181   Sp-OR_NurseStn_Lobby_Flr_2 Sys-3 Flr-4 Sch-H HPlcmt-south ZN NECB System 3 PSZ Occ Sch Winter Design Day, !- Name\n   ** Warning ** IP: IDF line~14181 Alpha Argument length exceeds maximum, will be truncated=  Sp-OR_NurseStn_Lobby_Flr_2 Sys-3 Flr-4 Sch-H HPlcmt-south ZN NECB System 3 PSZ Occ Sch Winter Design Da\n   **   ~~~   ** Will be processed as Alpha=SP-OR_NURSESTN_LOBBY_FLR_2 SYS-3 FLR-4 SCH-H HPLCMT-SOUTH ZN NECB SYSTEM 3 PSZ OCC SCH WINTER DESIGN DAY\n   ************* IDF Context for following error/warning message:\n   ************* Note -- lines truncated at 300 characters, if necessary...\n   *************  14485 Schedule:Week:Daily,\n   ************* indicated Name=Schedule:Week:Daily {8e4dfa4e-f399-4eb7-810a-dfe49af191fe}\n   ************* Only last 10 lines before error line shown.....\n   *************  14486   Schedule:Week:Daily {8e4dfa4e-f399-4eb7-810a-dfe49af191fe}, !- Name\n   *************  14487   Sp-PatRoom1_Mult10_Flr_3 Sys-3 Flr-2 Sch-H HPlcmt-south ZN NECB System 3 PSZ Occ Sch Sunday, !- Sunday Schedule:Day Name\n   *************  14488   Sp-PatRoom1_Mult10_Flr_3 Sys-3 Flr-2 Sch-H HPlcmt-south ZN NECB System 3 PSZ Occ Sch Monday, !- Monday Schedule:Day Name\n   *************  14489   Sp-PatRoom1_Mult10_Flr_3 Sys-3 Flr-2 Sch-H HPlcmt-south ZN NECB System 3 PSZ Occ Sch Tuesday, !- Tuesday Schedule:Day Name\n   *************  14490   Sp-PatRoom1_Mult10_Flr_3 Sys-3 Flr-2 Sch-H HPlcmt-south ZN NECB System 3 PSZ Occ Sch Wednesday, !- Wednesday Schedule:Day Name\n   *************  14491   Sp-PatRoom1_Mult10_Flr_3 Sys-3 Flr-2 Sch-H HPlcmt-south ZN NECB System 3 PSZ Occ Sch Thursday, !- Thursday Schedule:Day Name\n   *************  14492   Sp-PatRoom1_Mult10_Flr_3 Sys-3 Flr-2 Sch-H HPlcmt-south ZN NECB System 3 PSZ Occ Sch Friday, !- Friday Schedule:Day Name\n   *************  14493   Sp-PatRoom1_Mult10_Flr_3 Sys-3 Flr-2 Sch-H HPlcmt-south ZN NECB System 3 PSZ Occ Sch Saturday, !- Saturday Schedule:Day Name\n   *************  14494   Sp-PatRoom1_Mult10_Flr_3 Sys-3 Flr-2 Sch-H HPlcmt-south ZN NECB System 3 PSZ Occ Sch Default, !- Holiday Schedule:Day Name\n   *************  14495   Sp-PatRoom1_Mult10_Flr_3 Sys-3 Flr-2 Sch-H HPlcmt-south ZN NECB System 3 PSZ Occ Sch Summer Design Day, !- SummerDesignDay Schedule:Day Name\n   ** Warning ** IP: IDF line~14495 Alpha Argument length exceeds maximum, will be truncated=  Sp-PatRoom1_Mult10_Flr_3 Sys-3 Flr-2 Sch-H HPlcmt-south ZN NECB System 3 PSZ Occ Sch Summer Design Da\n   **   ~~~   ** Will be processed as Alpha=SP-PATROOM1_MULT10_FLR_3 SYS-3 FLR-2 SCH-H HPLCMT-SOUTH ZN NECB SYSTEM 3 PSZ OCC SCH SUMMER DESIGN DAY\n   ************* IDF Context for following error/warning message:\n   ************* Note -- lines truncated at 300 characters, if necessary...\n   *************  14485 Schedule:Week:Daily,\n   ************* indicated Name=Schedule:Week:Daily {8e4dfa4e-f399-4eb7-810a-dfe49af191fe}\n   ************* Only last 10 lines before error line shown.....\n   *************  14487   Sp-PatRoom1_Mult10_Flr_3 Sys-3 Flr-2 Sch-H HPlcmt-south ZN NECB System 3 PSZ Occ Sch Sunday, !- Sunday Schedule:Day Name\n   *************  14488   Sp-PatRoom1_Mult10_Flr_3 Sys-3 Flr-2 Sch-H HPlcmt-south ZN NECB System 3 PSZ Occ Sch Monday, !- Monday Schedule:Day Name\n   *************  14489   Sp-PatRoom1_Mult10_Flr_3 Sys-3 Flr-2 Sch-H HPlcmt-south ZN NECB System 3 PSZ Occ Sch Tuesday, !- Tuesday Schedule:Day Name\n   *************  14490   Sp-PatRoom1_Mult10_Flr_3 Sys-3 Flr-2 Sch-H HPlcmt-south ZN NECB System 3 PSZ Occ Sch Wednesday, !- Wednesday Schedule:Day Name\n   *************  14491   Sp-PatRoom1_Mult10_Flr_3 Sys-3 Flr-2 Sch-H HPlcmt-south ZN NECB System 3 PSZ Occ Sch Thursday, !- Thursday Schedule:Day Name\n   *************  14492   Sp-PatRoom1_Mult10_Flr_3 Sys-3 Flr-2 Sch-H HPlcmt-south ZN NECB System 3 PSZ Occ Sch Friday, !- Friday Schedule:Day Name\n   *************  14493   Sp-PatRoom1_Mult10_Flr_3 Sys-3 Flr-2 Sch-H HPlcmt-south ZN NECB System 3 PSZ Occ Sch Saturday, !- Saturday Schedule:Day Name\n   *************  14494   Sp-PatRoom1_Mult10_Flr_3 Sys-3 Flr-2 Sch-H HPlcmt-south ZN NECB System 3 PSZ Occ Sch Default, !- Holiday Schedule:Day Name\n   *************  14495   Sp-PatRoom1_Mult10_Flr_3 Sys-3 Flr-2 Sch-H HPlcmt-south ZN NECB System 3 PSZ Occ Sch Summer Design Day, !- SummerDesignDay Schedule:Day Name\n   *************  14496   Sp-PatRoom1_Mult10_Flr_3 Sys-3 Flr-2 Sch-H HPlcmt-south ZN NECB System 3 PSZ Occ Sch Winter Design Day, !- WinterDesignDay Schedule:Day Name\n   ** Warning ** IP: IDF line~14496 Alpha Argument length exceeds maximum, will be truncated=  Sp-PatRoom1_Mult10_Flr_3 Sys-3 Flr-2 Sch-H HPlcmt-south ZN NECB System 3 PSZ Occ Sch Winter Design Da\n   **   ~~~   ** Will be processed as Alpha=SP-PATROOM1_MULT10_FLR_3 SYS-3 FLR-2 SCH-H HPLCMT-SOUTH ZN NECB SYSTEM 3 PSZ OCC SCH WINTER DESIGN DAY\n   ************* IDF Context for following error/warning message:\n   ************* Note -- lines truncated at 300 characters, if necessary...\n   *************  14516 Schedule:Day:Interval,\n   ************* indicated Name=Sp-PatRoom1_Mult10_Flr_3 Sys-3 Flr-2 Sch-H HPlcmt-south ZN NECB System 3 PSZ Occ Sch Summer Design Day\n   ************* Only last 1 lines before error line shown.....\n   *************  14517   Sp-PatRoom1_Mult10_Flr_3 Sys-3 Flr-2 Sch-H HPlcmt-south ZN NECB System 3 PSZ Occ Sch Summer Design Day, !- Name\n   ** Warning ** IP: IDF line~14517 Alpha Argument length exceeds maximum, will be truncated=  Sp-PatRoom1_Mult10_Flr_3 Sys-3 Flr-2 Sch-H HPlcmt-south ZN NECB System 3 PSZ Occ Sch Summer Design Da\n   **   ~~~   ** Will be processed as Alpha=SP-PATROOM1_MULT10_FLR_3 SYS-3 FLR-2 SCH-H HPLCMT-SOUTH ZN NECB SYSTEM 3 PSZ OCC SCH SUMMER DESIGN DAY\n   ************* IDF Context for following error/warning message:\n   ************* Note -- lines truncated at 300 characters, if necessary...\n   *************  14523 Schedule:Day:Interval,\n   ************* indicated Name=Sp-PatRoom1_Mult10_Flr_3 Sys-3 Flr-2 Sch-H HPlcmt-south ZN NECB System 3 PSZ Occ Sch Winter Design Day\n   ************* Only last 1 lines before error line shown.....\n   *************  14524   Sp-PatRoom1_Mult10_Flr_3 Sys-3 Flr-2 Sch-H HPlcmt-south ZN NECB System 3 PSZ Occ Sch Winter Design Day, !- Name\n   ** Warning ** IP: IDF line~14524 Alpha Argument length exceeds maximum, will be truncated=  Sp-PatRoom1_Mult10_Flr_3 Sys-3 Flr-2 Sch-H HPlcmt-south ZN NECB System 3 PSZ Occ Sch Winter Design Da\n   **   ~~~   ** Will be processed as Alpha=SP-PATROOM1_MULT10_FLR_3 SYS-3 FLR-2 SCH-H HPLCMT-SOUTH ZN NECB SYSTEM 3 PSZ OCC SCH WINTER DESIGN DAY\n   ************* IDF Context for following error/warning message:\n   ************* Note -- lines truncated at 300 characters, if necessary...\n   *************  14828 Schedule:Week:Daily,\n   ************* indicated Name=Schedule:Week:Daily {88668a6f-b826-4ac5-86e1-c154fa23c2d2}\n   ************* Only last 10 lines before error line shown.....\n   *************  14829   Schedule:Week:Daily {88668a6f-b826-4ac5-86e1-c154fa23c2d2}, !- Name\n   *************  14830   Sp-PatRoom1_Mult10_Flr_4 Sys-3 Flr-3 Sch-H HPlcmt-south ZN NECB System 3 PSZ Occ Sch Sunday, !- Sunday Schedule:Day Name\n   *************  14831   Sp-PatRoom1_Mult10_Flr_4 Sys-3 Flr-3 Sch-H HPlcmt-south ZN NECB System 3 PSZ Occ Sch Monday, !- Monday Schedule:Day Name\n   *************  14832   Sp-PatRoom1_Mult10_Flr_4 Sys-3 Flr-3 Sch-H HPlcmt-south ZN NECB System 3 PSZ Occ Sch Tuesday, !- Tuesday Schedule:Day Name\n   *************  14833   Sp-PatRoom1_Mult10_Flr_4 Sys-3 Flr-3 Sch-H HPlcmt-south ZN NECB System 3 PSZ Occ Sch Wednesday, !- Wednesday Schedule:Day Name\n   *************  14834   Sp-PatRoom1_Mult10_Flr_4 Sys-3 Flr-3 Sch-H HPlcmt-south ZN NECB System 3 PSZ Occ Sch Thursday, !- Thursday Schedule:Day Name\n   *************  14835   Sp-PatRoom1_Mult10_Flr_4 Sys-3 Flr-3 Sch-H HPlcmt-south ZN NECB System 3 PSZ Occ Sch Friday, !- Friday Schedule:Day Name\n   *************  14836   Sp-PatRoom1_Mult10_Flr_4 Sys-3 Flr-3 Sch-H HPlcmt-south ZN NECB System 3 PSZ Occ Sch Saturday, !- Saturday Schedule:Day Name\n   *************  14837   Sp-PatRoom1_Mult10_Flr_4 Sys-3 Flr-3 Sch-H HPlcmt-south ZN NECB System 3 PSZ Occ Sch Default, !- Holiday Schedule:Day Name\n   *************  14838   Sp-PatRoom1_Mult10_Flr_4 Sys-3 Flr-3 Sch-H HPlcmt-south ZN NECB System 3 PSZ Occ Sch Summer Design Day, !- SummerDesignDay Schedule:Day Name\n   ** Warning ** IP: IDF line~14838 Alpha Argument length exceeds maximum, will be truncated=  Sp-PatRoom1_Mult10_Flr_4 Sys-3 Flr-3 Sch-H HPlcmt-south ZN NECB System 3 PSZ Occ Sch Summer Design Da\n   **   ~~~   ** Will be processed as Alpha=SP-PATROOM1_MULT10_FLR_4 SYS-3 FLR-3 SCH-H HPLCMT-SOUTH ZN NECB SYSTEM 3 PSZ OCC SCH SUMMER DESIGN DAY\n   ************* IDF Context for following error/warning message:\n   ************* Note -- lines truncated at 300 characters, if necessary...\n   *************  14828 Schedule:Week:Daily,\n   ************* indicated Name=Schedule:Week:Daily {88668a6f-b826-4ac5-86e1-c154fa23c2d2}\n   ************* Only last 10 lines before error line shown.....\n   *************  14830   Sp-PatRoom1_Mult10_Flr_4 Sys-3 Flr-3 Sch-H HPlcmt-south ZN NECB System 3 PSZ Occ Sch Sunday, !- Sunday Schedule:Day Name\n   *************  14831   Sp-PatRoom1_Mult10_Flr_4 Sys-3 Flr-3 Sch-H HPlcmt-south ZN NECB System 3 PSZ Occ Sch Monday, !- Monday Schedule:Day Name\n   *************  14832   Sp-PatRoom1_Mult10_Flr_4 Sys-3 Flr-3 Sch-H HPlcmt-south ZN NECB System 3 PSZ Occ Sch Tuesday, !- Tuesday Schedule:Day Name\n   *************  14833   Sp-PatRoom1_Mult10_Flr_4 Sys-3 Flr-3 Sch-H HPlcmt-south ZN NECB System 3 PSZ Occ Sch Wednesday, !- Wednesday Schedule:Day Name\n   *************  14834   Sp-PatRoom1_Mult10_Flr_4 Sys-3 Flr-3 Sch-H HPlcmt-south ZN NECB System 3 PSZ Occ Sch Thursday, !- Thursday Schedule:Day Name\n   *************  14835   Sp-PatRoom1_Mult10_Flr_4 Sys-3 Flr-3 Sch-H HPlcmt-south ZN NECB System 3 PSZ Occ Sch Friday, !- Friday Schedule:Day Name\n   *************  14836   Sp-PatRoom1_Mult10_Flr_4 Sys-3 Flr-3 Sch-H HPlcmt-south ZN NECB System 3 PSZ Occ Sch Saturday, !- Saturday Schedule:Day Name\n   *************  14837   Sp-PatRoom1_Mult10_Flr_4 Sys-3 Flr-3 Sch-H HPlcmt-south ZN NECB System 3 PSZ Occ Sch Default, !- Holiday Schedule:Day Name\n   *************  14838   Sp-PatRoom1_Mult10_Flr_4 Sys-3 Flr-3 Sch-H HPlcmt-south ZN NECB System 3 PSZ Occ Sch Summer Design Day, !- SummerDesignDay Schedule:Day Name\n   *************  14839   Sp-PatRoom1_Mult10_Flr_4 Sys-3 Flr-3 Sch-H HPlcmt-south ZN NECB System 3 PSZ Occ Sch Winter Design Day, !- WinterDesignDay Schedule:Day Name\n   ** Warning ** IP: IDF line~14839 Alpha Argument length exceeds maximum, will be truncated=  Sp-PatRoom1_Mult10_Flr_4 Sys-3 Flr-3 Sch-H HPlcmt-south ZN NECB System 3 PSZ Occ Sch Winter Design Da\n   **   ~~~   ** Will be processed as Alpha=SP-PATROOM1_MULT10_FLR_4 SYS-3 FLR-3 SCH-H HPLCMT-SOUTH ZN NECB SYSTEM 3 PSZ OCC SCH WINTER DESIGN DAY\n   ************* IDF Context for following error/warning message:\n   ************* Note -- lines truncated at 300 characters, if necessary...\n   *************  14859 Schedule:Day:Interval,\n   ************* indicated Name=Sp-PatRoom1_Mult10_Flr_4 Sys-3 Flr-3 Sch-H HPlcmt-south ZN NECB System 3 PSZ Occ Sch Summer Design Day\n   ************* Only last 1 lines before error line shown.....\n   *************  14860   Sp-PatRoom1_Mult10_Flr_4 Sys-3 Flr-3 Sch-H HPlcmt-south ZN NECB System 3 PSZ Occ Sch Summer Design Day, !- Name\n   ** Warning ** IP: IDF line~14860 Alpha Argument length exceeds maximum, will be truncated=  Sp-PatRoom1_Mult10_Flr_4 Sys-3 Flr-3 Sch-H HPlcmt-south ZN NECB System 3 PSZ Occ Sch Summer Design Da\n   **   ~~~   ** Will be processed as Alpha=SP-PATROOM1_MULT10_FLR_4 SYS-3 FLR-3 SCH-H HPLCMT-SOUTH ZN NECB SYSTEM 3 PSZ OCC SCH SUMMER DESIGN DAY\n   ************* IDF Context for following error/warning message:\n   ************* Note -- lines truncated at 300 characters, if necessary...\n   *************  14866 Schedule:Day:Interval,\n   ************* indicated Name=Sp-PatRoom1_Mult10_Flr_4 Sys-3 Flr-3 Sch-H HPlcmt-south ZN NECB System 3 PSZ Occ Sch Winter Design Day\n   ************* Only last 1 lines before error line shown.....\n   *************  14867   Sp-PatRoom1_Mult10_Flr_4 Sys-3 Flr-3 Sch-H HPlcmt-south ZN NECB System 3 PSZ Occ Sch Winter Design Day, !- Name\n   ** Warning ** IP: IDF line~14867 Alpha Argument length exceeds maximum, will be truncated=  Sp-PatRoom1_Mult10_Flr_4 Sys-3 Flr-3 Sch-H HPlcmt-south ZN NECB System 3 PSZ Occ Sch Winter Design Da\n   **   ~~~   ** Will be processed as Alpha=SP-PATROOM1_MULT10_FLR_4 SYS-3 FLR-3 SCH-H HPLCMT-SOUTH ZN NECB SYSTEM 3 PSZ OCC SCH WINTER DESIGN DAY\n   ************* IDF Context for following error/warning message:\n   ************* Note -- lines truncated at 300 characters, if necessary...\n   *************  15733 Schedule:Week:Daily,\n   ************* indicated Name=Schedule:Week:Daily {2c2c1959-11af-4755-8b4c-36884842bec3}\n   ************* Only last 10 lines before error line shown.....\n   *************  15734   Schedule:Week:Daily {2c2c1959-11af-4755-8b4c-36884842bec3}, !- Name\n   *************  15735   Sp-PatRoom3_Mult10_Flr_3 Sys-3 Flr-2 Sch-H HPlcmt-east ZN NECB System 3 PSZ Occ Sch Sunday, !- Sunday Schedule:Day Name\n   *************  15736   Sp-PatRoom3_Mult10_Flr_3 Sys-3 Flr-2 Sch-H HPlcmt-east ZN NECB System 3 PSZ Occ Sch Monday, !- Monday Schedule:Day Name\n   *************  15737   Sp-PatRoom3_Mult10_Flr_3 Sys-3 Flr-2 Sch-H HPlcmt-east ZN NECB System 3 PSZ Occ Sch Tuesday, !- Tuesday Schedule:Day Name\n   *************  15738   Sp-PatRoom3_Mult10_Flr_3 Sys-3 Flr-2 Sch-H HPlcmt-east ZN NECB System 3 PSZ Occ Sch Wednesday, !- Wednesday Schedule:Day Name\n   *************  15739   Sp-PatRoom3_Mult10_Flr_3 Sys-3 Flr-2 Sch-H HPlcmt-east ZN NECB System 3 PSZ Occ Sch Thursday, !- Thursday Schedule:Day Name\n   *************  15740   Sp-PatRoom3_Mult10_Flr_3 Sys-3 Flr-2 Sch-H HPlcmt-east ZN NECB System 3 PSZ Occ Sch Friday, !- Friday Schedule:Day Name\n   *************  15741   Sp-PatRoom3_Mult10_Flr_3 Sys-3 Flr-2 Sch-H HPlcmt-east ZN NECB System 3 PSZ Occ Sch Saturday, !- Saturday Schedule:Day Name\n   *************  15742   Sp-PatRoom3_Mult10_Flr_3 Sys-3 Flr-2 Sch-H HPlcmt-east ZN NECB System 3 PSZ Occ Sch Default, !- Holiday Schedule:Day Name\n   *************  15743   Sp-PatRoom3_Mult10_Flr_3 Sys-3 Flr-2 Sch-H HPlcmt-east ZN NECB System 3 PSZ Occ Sch Summer Design Day, !- SummerDesignDay Schedule:Day Name\n   ** Warning ** IP: IDF line~15743 Alpha Argument length exceeds maximum, will be truncated=  Sp-PatRoom3_Mult10_Flr_3 Sys-3 Flr-2 Sch-H HPlcmt-east ZN NECB System 3 PSZ Occ Sch Summer Design Da\n   **   ~~~   ** Will be processed as Alpha=SP-PATROOM3_MULT10_FLR_3 SYS-3 FLR-2 SCH-H HPLCMT-EAST ZN NECB SYSTEM 3 PSZ OCC SCH SUMMER DESIGN DAY\n   ************* IDF Context for following error/warning message:\n   ************* Note -- lines truncated at 300 characters, if necessary...\n   *************  15733 Schedule:Week:Daily,\n   ************* indicated Name=Schedule:Week:Daily {2c2c1959-11af-4755-8b4c-36884842bec3}\n   ************* Only last 10 lines before error line shown.....\n   *************  15735   Sp-PatRoom3_Mult10_Flr_3 Sys-3 Flr-2 Sch-H HPlcmt-east ZN NECB System 3 PSZ Occ Sch Sunday, !- Sunday Schedule:Day Name\n   *************  15736   Sp-PatRoom3_Mult10_Flr_3 Sys-3 Flr-2 Sch-H HPlcmt-east ZN NECB System 3 PSZ Occ Sch Monday, !- Monday Schedule:Day Name\n   *************  15737   Sp-PatRoom3_Mult10_Flr_3 Sys-3 Flr-2 Sch-H HPlcmt-east ZN NECB System 3 PSZ Occ Sch Tuesday, !- Tuesday Schedule:Day Name\n   *************  15738   Sp-PatRoom3_Mult10_Flr_3 Sys-3 Flr-2 Sch-H HPlcmt-east ZN NECB System 3 PSZ Occ Sch Wednesday, !- Wednesday Schedule:Day Name\n   *************  15739   Sp-PatRoom3_Mult10_Flr_3 Sys-3 Flr-2 Sch-H HPlcmt-east ZN NECB System 3 PSZ Occ Sch Thursday, !- Thursday Schedule:Day Name\n   *************  15740   Sp-PatRoom3_Mult10_Flr_3 Sys-3 Flr-2 Sch-H HPlcmt-east ZN NECB System 3 PSZ Occ Sch Friday, !- Friday Schedule:Day Name\n   *************  15741   Sp-PatRoom3_Mult10_Flr_3 Sys-3 Flr-2 Sch-H HPlcmt-east ZN NECB System 3 PSZ Occ Sch Saturday, !- Saturday Schedule:Day Name\n   *************  15742   Sp-PatRoom3_Mult10_Flr_3 Sys-3 Flr-2 Sch-H HPlcmt-east ZN NECB System 3 PSZ Occ Sch Default, !- Holiday Schedule:Day Name\n   *************  15743   Sp-PatRoom3_Mult10_Flr_3 Sys-3 Flr-2 Sch-H HPlcmt-east ZN NECB System 3 PSZ Occ Sch Summer Design Day, !- SummerDesignDay Schedule:Day Name\n   *************  15744   Sp-PatRoom3_Mult10_Flr_3 Sys-3 Flr-2 Sch-H HPlcmt-east ZN NECB System 3 PSZ Occ Sch Winter Design Day, !- WinterDesignDay Schedule:Day Name\n   ** Warning ** IP: IDF line~15744 Alpha Argument length exceeds maximum, will be truncated=  Sp-PatRoom3_Mult10_Flr_3 Sys-3 Flr-2 Sch-H HPlcmt-east ZN NECB System 3 PSZ Occ Sch Winter Design Da\n   **   ~~~   ** Will be processed as Alpha=SP-PATROOM3_MULT10_FLR_3 SYS-3 FLR-2 SCH-H HPLCMT-EAST ZN NECB SYSTEM 3 PSZ OCC SCH WINTER DESIGN DAY\n   ************* IDF Context for following error/warning message:\n   ************* Note -- lines truncated at 300 characters, if necessary...\n   *************  15764 Schedule:Day:Interval,\n   ************* indicated Name=Sp-PatRoom3_Mult10_Flr_3 Sys-3 Flr-2 Sch-H HPlcmt-east ZN NECB System 3 PSZ Occ Sch Summer Design Day\n   ************* Only last 1 lines before error line shown.....\n   *************  15765   Sp-PatRoom3_Mult10_Flr_3 Sys-3 Flr-2 Sch-H HPlcmt-east ZN NECB System 3 PSZ Occ Sch Summer Design Day, !- Name\n   ** Warning ** IP: IDF line~15765 Alpha Argument length exceeds maximum, will be truncated=  Sp-PatRoom3_Mult10_Flr_3 Sys-3 Flr-2 Sch-H HPlcmt-east ZN NECB System 3 PSZ Occ Sch Summer Design Da\n   **   ~~~   ** Will be processed as Alpha=SP-PATROOM3_MULT10_FLR_3 SYS-3 FLR-2 SCH-H HPLCMT-EAST ZN NECB SYSTEM 3 PSZ OCC SCH SUMMER DESIGN DAY\n   ************* IDF Context for following error/warning message:\n   ************* Note -- lines truncated at 300 characters, if necessary...\n   *************  15771 Schedule:Day:Interval,\n   ************* indicated Name=Sp-PatRoom3_Mult10_Flr_3 Sys-3 Flr-2 Sch-H HPlcmt-east ZN NECB System 3 PSZ Occ Sch Winter Design Day\n   ************* Only last 1 lines before error line shown.....\n   *************  15772   Sp-PatRoom3_Mult10_Flr_3 Sys-3 Flr-2 Sch-H HPlcmt-east ZN NECB System 3 PSZ Occ Sch Winter Design Day, !- Name\n   ** Warning ** IP: IDF line~15772 Alpha Argument length exceeds maximum, will be truncated=  Sp-PatRoom3_Mult10_Flr_3 Sys-3 Flr-2 Sch-H HPlcmt-east ZN NECB System 3 PSZ Occ Sch Winter Design Da\n   **   ~~~   ** Will be processed as Alpha=SP-PATROOM3_MULT10_FLR_3 SYS-3 FLR-2 SCH-H HPLCMT-EAST ZN NECB SYSTEM 3 PSZ OCC SCH WINTER DESIGN DAY\n   ************* IDF Context for following error/warning message:\n   ************* Note -- lines truncated at 300 characters, if necessary...\n   *************  16076 Schedule:Week:Daily,\n   ************* indicated Name=Schedule:Week:Daily {1f0d7038-2365-4861-8d5f-ffd03f4c0907}\n   ************* Only last 10 lines before error line shown.....\n   *************  16077   Schedule:Week:Daily {1f0d7038-2365-4861-8d5f-ffd03f4c0907}, !- Name\n   *************  16078   Sp-PatRoom3_Mult10_Flr_4 Sys-3 Flr-3 Sch-H HPlcmt-east ZN NECB System 3 PSZ Occ Sch Sunday, !- Sunday Schedule:Day Name\n   *************  16079   Sp-PatRoom3_Mult10_Flr_4 Sys-3 Flr-3 Sch-H HPlcmt-east ZN NECB System 3 PSZ Occ Sch Monday, !- Monday Schedule:Day Name\n   *************  16080   Sp-PatRoom3_Mult10_Flr_4 Sys-3 Flr-3 Sch-H HPlcmt-east ZN NECB System 3 PSZ Occ Sch Tuesday, !- Tuesday Schedule:Day Name\n   *************  16081   Sp-PatRoom3_Mult10_Flr_4 Sys-3 Flr-3 Sch-H HPlcmt-east ZN NECB System 3 PSZ Occ Sch Wednesday, !- Wednesday Schedule:Day Name\n   *************  16082   Sp-PatRoom3_Mult10_Flr_4 Sys-3 Flr-3 Sch-H HPlcmt-east ZN NECB System 3 PSZ Occ Sch Thursday, !- Thursday Schedule:Day Name\n   *************  16083   Sp-PatRoom3_Mult10_Flr_4 Sys-3 Flr-3 Sch-H HPlcmt-east ZN NECB System 3 PSZ Occ Sch Friday, !- Friday Schedule:Day Name\n   *************  16084   Sp-PatRoom3_Mult10_Flr_4 Sys-3 Flr-3 Sch-H HPlcmt-east ZN NECB System 3 PSZ Occ Sch Saturday, !- Saturday Schedule:Day Name\n   *************  16085   Sp-PatRoom3_Mult10_Flr_4 Sys-3 Flr-3 Sch-H HPlcmt-east ZN NECB System 3 PSZ Occ Sch Default, !- Holiday Schedule:Day Name\n   *************  16086   Sp-PatRoom3_Mult10_Flr_4 Sys-3 Flr-3 Sch-H HPlcmt-east ZN NECB System 3 PSZ Occ Sch Summer Design Day, !- SummerDesignDay Schedule:Day Name\n   ** Warning ** IP: IDF line~16086 Alpha Argument length exceeds maximum, will be truncated=  Sp-PatRoom3_Mult10_Flr_4 Sys-3 Flr-3 Sch-H HPlcmt-east ZN NECB System 3 PSZ Occ Sch Summer Design Da\n   **   ~~~   ** Will be processed as Alpha=SP-PATROOM3_MULT10_FLR_4 SYS-3 FLR-3 SCH-H HPLCMT-EAST ZN NECB SYSTEM 3 PSZ OCC SCH SUMMER DESIGN DAY\n   ************* IDF Context for following error/warning message:\n   ************* Note -- lines truncated at 300 characters, if necessary...\n   *************  16076 Schedule:Week:Daily,\n   ************* indicated Name=Schedule:Week:Daily {1f0d7038-2365-4861-8d5f-ffd03f4c0907}\n   ************* Only last 10 lines before error line shown.....\n   *************  16078   Sp-PatRoom3_Mult10_Flr_4 Sys-3 Flr-3 Sch-H HPlcmt-east ZN NECB System 3 PSZ Occ Sch Sunday, !- Sunday Schedule:Day Name\n   *************  16079   Sp-PatRoom3_Mult10_Flr_4 Sys-3 Flr-3 Sch-H HPlcmt-east ZN NECB System 3 PSZ Occ Sch Monday, !- Monday Schedule:Day Name\n   *************  16080   Sp-PatRoom3_Mult10_Flr_4 Sys-3 Flr-3 Sch-H HPlcmt-east ZN NECB System 3 PSZ Occ Sch Tuesday, !- Tuesday Schedule:Day Name\n   *************  16081   Sp-PatRoom3_Mult10_Flr_4 Sys-3 Flr-3 Sch-H HPlcmt-east ZN NECB System 3 PSZ Occ Sch Wednesday, !- Wednesday Schedule:Day Name\n   *************  16082   Sp-PatRoom3_Mult10_Flr_4 Sys-3 Flr-3 Sch-H HPlcmt-east ZN NECB System 3 PSZ Occ Sch Thursday, !- Thursday Schedule:Day Name\n   *************  16083   Sp-PatRoom3_Mult10_Flr_4 Sys-3 Flr-3 Sch-H HPlcmt-east ZN NECB System 3 PSZ Occ Sch Friday, !- Friday Schedule:Day Name\n   *************  16084   Sp-PatRoom3_Mult10_Flr_4 Sys-3 Flr-3 Sch-H HPlcmt-east ZN NECB System 3 PSZ Occ Sch Saturday, !- Saturday Schedule:Day Name\n   *************  16085   Sp-PatRoom3_Mult10_Flr_4 Sys-3 Flr-3 Sch-H HPlcmt-east ZN NECB System 3 PSZ Occ Sch Default, !- Holiday Schedule:Day Name\n   *************  16086   Sp-PatRoom3_Mult10_Flr_4 Sys-3 Flr-3 Sch-H HPlcmt-east ZN NECB System 3 PSZ Occ Sch Summer Design Day, !- SummerDesignDay Schedule:Day Name\n   *************  16087   Sp-PatRoom3_Mult10_Flr_4 Sys-3 Flr-3 Sch-H HPlcmt-east ZN NECB System 3 PSZ Occ Sch Winter Design Day, !- WinterDesignDay Schedule:Day Name\n   ** Warning ** IP: IDF line~16087 Alpha Argument length exceeds maximum, will be truncated=  Sp-PatRoom3_Mult10_Flr_4 Sys-3 Flr-3 Sch-H HPlcmt-east ZN NECB System 3 PSZ Occ Sch Winter Design Da\n   **   ~~~   ** Will be processed as Alpha=SP-PATROOM3_MULT10_FLR_4 SYS-3 FLR-3 SCH-H HPLCMT-EAST ZN NECB SYSTEM 3 PSZ OCC SCH WINTER DESIGN DAY\n   ************* IDF Context for following error/warning message:\n   ************* Note -- lines truncated at 300 characters, if necessary...\n   *************  16107 Schedule:Day:Interval,\n   ************* indicated Name=Sp-PatRoom3_Mult10_Flr_4 Sys-3 Flr-3 Sch-H HPlcmt-east ZN NECB System 3 PSZ Occ Sch Summer Design Day\n   ************* Only last 1 lines before error line shown.....\n   *************  16108   Sp-PatRoom3_Mult10_Flr_4 Sys-3 Flr-3 Sch-H HPlcmt-east ZN NECB System 3 PSZ Occ Sch Summer Design Day, !- Name\n   ** Warning ** IP: IDF line~16108 Alpha Argument length exceeds maximum, will be truncated=  Sp-PatRoom3_Mult10_Flr_4 Sys-3 Flr-3 Sch-H HPlcmt-east ZN NECB System 3 PSZ Occ Sch Summer Design Da\n   **   ~~~   ** Will be processed as Alpha=SP-PATROOM3_MULT10_FLR_4 SYS-3 FLR-3 SCH-H HPLCMT-EAST ZN NECB SYSTEM 3 PSZ OCC SCH SUMMER DESIGN DAY\n   ************* IDF Context for following error/warning message:\n   ************* Note -- lines truncated at 300 characters, if necessary...\n   *************  16114 Schedule:Day:Interval,\n   ************* indicated Name=Sp-PatRoom3_Mult10_Flr_4 Sys-3 Flr-3 Sch-H HPlcmt-east ZN NECB System 3 PSZ Occ Sch Winter Design Day\n   ************* Only last 1 lines before error line shown.....\n   *************  16115   Sp-PatRoom3_Mult10_Flr_4 Sys-3 Flr-3 Sch-H HPlcmt-east ZN NECB System 3 PSZ Occ Sch Winter Design Day, !- Name\n   ** Warning ** IP: IDF line~16115 Alpha Argument length exceeds maximum, will be truncated=  Sp-PatRoom3_Mult10_Flr_4 Sys-3 Flr-3 Sch-H HPlcmt-east ZN NECB System 3 PSZ Occ Sch Winter Design Da\n   **   ~~~   ** Will be processed as Alpha=SP-PATROOM3_MULT10_FLR_4 SYS-3 FLR-3 SCH-H HPLCMT-EAST ZN NECB SYSTEM 3 PSZ OCC SCH WINTER DESIGN DAY\n   ************* IDF Context for following error/warning message:\n   ************* Note -- lines truncated at 300 characters, if necessary...\n   *************  16981 Schedule:Week:Daily,\n   ************* indicated Name=Schedule:Week:Daily {43a09377-09c3-41f0-a503-6583e383862e}\n   ************* Only last 10 lines before error line shown.....\n   *************  16982   Schedule:Week:Daily {43a09377-09c3-41f0-a503-6583e383862e}, !- Name\n   *************  16983   Sp-PatRoom5_Mult10_Flr_3 Sys-3 Flr-2 Sch-H HPlcmt-north ZN NECB System 3 PSZ Occ Sch Sunday, !- Sunday Schedule:Day Name\n   *************  16984   Sp-PatRoom5_Mult10_Flr_3 Sys-3 Flr-2 Sch-H HPlcmt-north ZN NECB System 3 PSZ Occ Sch Monday, !- Monday Schedule:Day Name\n   *************  16985   Sp-PatRoom5_Mult10_Flr_3 Sys-3 Flr-2 Sch-H HPlcmt-north ZN NECB System 3 PSZ Occ Sch Tuesday, !- Tuesday Schedule:Day Name\n   *************  16986   Sp-PatRoom5_Mult10_Flr_3 Sys-3 Flr-2 Sch-H HPlcmt-north ZN NECB System 3 PSZ Occ Sch Wednesday, !- Wednesday Schedule:Day Name\n   *************  16987   Sp-PatRoom5_Mult10_Flr_3 Sys-3 Flr-2 Sch-H HPlcmt-north ZN NECB System 3 PSZ Occ Sch Thursday, !- Thursday Schedule:Day Name\n   *************  16988   Sp-PatRoom5_Mult10_Flr_3 Sys-3 Flr-2 Sch-H HPlcmt-north ZN NECB System 3 PSZ Occ Sch Friday, !- Friday Schedule:Day Name\n   *************  16989   Sp-PatRoom5_Mult10_Flr_3 Sys-3 Flr-2 Sch-H HPlcmt-north ZN NECB System 3 PSZ Occ Sch Saturday, !- Saturday Schedule:Day Name\n   *************  16990   Sp-PatRoom5_Mult10_Flr_3 Sys-3 Flr-2 Sch-H HPlcmt-north ZN NECB System 3 PSZ Occ Sch Default, !- Holiday Schedule:Day Name\n   *************  16991   Sp-PatRoom5_Mult10_Flr_3 Sys-3 Flr-2 Sch-H HPlcmt-north ZN NECB System 3 PSZ Occ Sch Summer Design Day, !- SummerDesignDay Schedule:Day Name\n   ** Warning ** IP: IDF line~16991 Alpha Argument length exceeds maximum, will be truncated=  Sp-PatRoom5_Mult10_Flr_3 Sys-3 Flr-2 Sch-H HPlcmt-north ZN NECB System 3 PSZ Occ Sch Summer Design Da\n   **   ~~~   ** Will be processed as Alpha=SP-PATROOM5_MULT10_FLR_3 SYS-3 FLR-2 SCH-H HPLCMT-NORTH ZN NECB SYSTEM 3 PSZ OCC SCH SUMMER DESIGN DAY\n   ************* IDF Context for following error/warning message:\n   ************* Note -- lines truncated at 300 characters, if necessary...\n   *************  16981 Schedule:Week:Daily,\n   ************* indicated Name=Schedule:Week:Daily {43a09377-09c3-41f0-a503-6583e383862e}\n   ************* Only last 10 lines before error line shown.....\n   *************  16983   Sp-PatRoom5_Mult10_Flr_3 Sys-3 Flr-2 Sch-H HPlcmt-north ZN NECB System 3 PSZ Occ Sch Sunday, !- Sunday Schedule:Day Name\n   *************  16984   Sp-PatRoom5_Mult10_Flr_3 Sys-3 Flr-2 Sch-H HPlcmt-north ZN NECB System 3 PSZ Occ Sch Monday, !- Monday Schedule:Day Name\n   *************  16985   Sp-PatRoom5_Mult10_Flr_3 Sys-3 Flr-2 Sch-H HPlcmt-north ZN NECB System 3 PSZ Occ Sch Tuesday, !- Tuesday Schedule:Day Name\n   *************  16986   Sp-PatRoom5_Mult10_Flr_3 Sys-3 Flr-2 Sch-H HPlcmt-north ZN NECB System 3 PSZ Occ Sch Wednesday, !- Wednesday Schedule:Day Name\n   *************  16987   Sp-PatRoom5_Mult10_Flr_3 Sys-3 Flr-2 Sch-H HPlcmt-north ZN NECB System 3 PSZ Occ Sch Thursday, !- Thursday Schedule:Day Name\n   *************  16988   Sp-PatRoom5_Mult10_Flr_3 Sys-3 Flr-2 Sch-H HPlcmt-north ZN NECB System 3 PSZ Occ Sch Friday, !- Friday Schedule:Day Name\n   *************  16989   Sp-PatRoom5_Mult10_Flr_3 Sys-3 Flr-2 Sch-H HPlcmt-north ZN NECB System 3 PSZ Occ Sch Saturday, !- Saturday Schedule:Day Name\n   *************  16990   Sp-PatRoom5_Mult10_Flr_3 Sys-3 Flr-2 Sch-H HPlcmt-north ZN NECB System 3 PSZ Occ Sch Default, !- Holiday Schedule:Day Name\n   *************  16991   Sp-PatRoom5_Mult10_Flr_3 Sys-3 Flr-2 Sch-H HPlcmt-north ZN NECB System 3 PSZ Occ Sch Summer Design Day, !- SummerDesignDay Schedule:Day Name\n   *************  16992   Sp-PatRoom5_Mult10_Flr_3 Sys-3 Flr-2 Sch-H HPlcmt-north ZN NECB System 3 PSZ Occ Sch Winter Design Day, !- WinterDesignDay Schedule:Day Name\n   ** Warning ** IP: IDF line~16992 Alpha Argument length exceeds maximum, will be truncated=  Sp-PatRoom5_Mult10_Flr_3 Sys-3 Flr-2 Sch-H HPlcmt-north ZN NECB System 3 PSZ Occ Sch Winter Design Da\n   **   ~~~   ** Will be processed as Alpha=SP-PATROOM5_MULT10_FLR_3 SYS-3 FLR-2 SCH-H HPLCMT-NORTH ZN NECB SYSTEM 3 PSZ OCC SCH WINTER DESIGN DAY\n   ************* IDF Context for following error/warning message:\n   ************* Note -- lines truncated at 300 characters, if necessary...\n   *************  17012 Schedule:Day:Interval,\n   ************* indicated Name=Sp-PatRoom5_Mult10_Flr_3 Sys-3 Flr-2 Sch-H HPlcmt-north ZN NECB System 3 PSZ Occ Sch Summer Design Day\n   ************* Only last 1 lines before error line shown.....\n   *************  17013   Sp-PatRoom5_Mult10_Flr_3 Sys-3 Flr-2 Sch-H HPlcmt-north ZN NECB System 3 PSZ Occ Sch Summer Design Day, !- Name\n   ** Warning ** IP: IDF line~17013 Alpha Argument length exceeds maximum, will be truncated=  Sp-PatRoom5_Mult10_Flr_3 Sys-3 Flr-2 Sch-H HPlcmt-north ZN NECB System 3 PSZ Occ Sch Summer Design Da\n   **   ~~~   ** Will be processed as Alpha=SP-PATROOM5_MULT10_FLR_3 SYS-3 FLR-2 SCH-H HPLCMT-NORTH ZN NECB SYSTEM 3 PSZ OCC SCH SUMMER DESIGN DAY\n   ************* IDF Context for following error/warning message:\n   ************* Note -- lines truncated at 300 characters, if necessary...\n   *************  17019 Schedule:Day:Interval,\n   ************* indicated Name=Sp-PatRoom5_Mult10_Flr_3 Sys-3 Flr-2 Sch-H HPlcmt-north ZN NECB System 3 PSZ Occ Sch Winter Design Day\n   ************* Only last 1 lines before error line shown.....\n   *************  17020   Sp-PatRoom5_Mult10_Flr_3 Sys-3 Flr-2 Sch-H HPlcmt-north ZN NECB System 3 PSZ Occ Sch Winter Design Day, !- Name\n   ** Warning ** IP: IDF line~17020 Alpha Argument length exceeds maximum, will be truncated=  Sp-PatRoom5_Mult10_Flr_3 Sys-3 Flr-2 Sch-H HPlcmt-north ZN NECB System 3 PSZ Occ Sch Winter Design Da\n   **   ~~~   ** Will be processed as Alpha=SP-PATROOM5_MULT10_FLR_3 SYS-3 FLR-2 SCH-H HPLCMT-NORTH ZN NECB SYSTEM 3 PSZ OCC SCH WINTER DESIGN DAY\n   ************* IDF Context for following error/warning message:\n   ************* Note -- lines truncated at 300 characters, if necessary...\n   *************  17324 Schedule:Week:Daily,\n   ************* indicated Name=Schedule:Week:Daily {bf9dc386-84c5-4b7a-9af2-3aed3ee6a9bb}\n   ************* Only last 10 lines before error line shown.....\n   *************  17325   Schedule:Week:Daily {bf9dc386-84c5-4b7a-9af2-3aed3ee6a9bb}, !- Name\n   *************  17326   Sp-PatRoom5_Mult10_Flr_4 Sys-3 Flr-3 Sch-H HPlcmt-north ZN NECB System 3 PSZ Occ Sch Sunday, !- Sunday Schedule:Day Name\n   *************  17327   Sp-PatRoom5_Mult10_Flr_4 Sys-3 Flr-3 Sch-H HPlcmt-north ZN NECB System 3 PSZ Occ Sch Monday, !- Monday Schedule:Day Name\n   *************  17328   Sp-PatRoom5_Mult10_Flr_4 Sys-3 Flr-3 Sch-H HPlcmt-north ZN NECB System 3 PSZ Occ Sch Tuesday, !- Tuesday Schedule:Day Name\n   *************  17329   Sp-PatRoom5_Mult10_Flr_4 Sys-3 Flr-3 Sch-H HPlcmt-north ZN NECB System 3 PSZ Occ Sch Wednesday, !- Wednesday Schedule:Day Name\n   *************  17330   Sp-PatRoom5_Mult10_Flr_4 Sys-3 Flr-3 Sch-H HPlcmt-north ZN NECB System 3 PSZ Occ Sch Thursday, !- Thursday Schedule:Day Name\n   *************  17331   Sp-PatRoom5_Mult10_Flr_4 Sys-3 Flr-3 Sch-H HPlcmt-north ZN NECB System 3 PSZ Occ Sch Friday, !- Friday Schedule:Day Name\n   *************  17332   Sp-PatRoom5_Mult10_Flr_4 Sys-3 Flr-3 Sch-H HPlcmt-north ZN NECB System 3 PSZ Occ Sch Saturday, !- Saturday Schedule:Day Name\n   *************  17333   Sp-PatRoom5_Mult10_Flr_4 Sys-3 Flr-3 Sch-H HPlcmt-north ZN NECB System 3 PSZ Occ Sch Default, !- Holiday Schedule:Day Name\n   *************  17334   Sp-PatRoom5_Mult10_Flr_4 Sys-3 Flr-3 Sch-H HPlcmt-north ZN NECB System 3 PSZ Occ Sch Summer Design Day, !- SummerDesignDay Schedule:Day Name\n   ** Warning ** IP: IDF line~17334 Alpha Argument length exceeds maximum, will be truncated=  Sp-PatRoom5_Mult10_Flr_4 Sys-3 Flr-3 Sch-H HPlcmt-north ZN NECB System 3 PSZ Occ Sch Summer Design Da\n   **   ~~~   ** Will be processed as Alpha=SP-PATROOM5_MULT10_FLR_4 SYS-3 FLR-3 SCH-H HPLCMT-NORTH ZN NECB SYSTEM 3 PSZ OCC SCH SUMMER DESIGN DAY\n   ************* IDF Context for following error/warning message:\n   ************* Note -- lines truncated at 300 characters, if necessary...\n   *************  17324 Schedule:Week:Daily,\n   ************* indicated Name=Schedule:Week:Daily {bf9dc386-84c5-4b7a-9af2-3aed3ee6a9bb}\n   ************* Only last 10 lines before error line shown.....\n   *************  17326   Sp-PatRoom5_Mult10_Flr_4 Sys-3 Flr-3 Sch-H HPlcmt-north ZN NECB System 3 PSZ Occ Sch Sunday, !- Sunday Schedule:Day Name\n   *************  17327   Sp-PatRoom5_Mult10_Flr_4 Sys-3 Flr-3 Sch-H HPlcmt-north ZN NECB System 3 PSZ Occ Sch Monday, !- Monday Schedule:Day Name\n   *************  17328   Sp-PatRoom5_Mult10_Flr_4 Sys-3 Flr-3 Sch-H HPlcmt-north ZN NECB System 3 PSZ Occ Sch Tuesday, !- Tuesday Schedule:Day Name\n   *************  17329   Sp-PatRoom5_Mult10_Flr_4 Sys-3 Flr-3 Sch-H HPlcmt-north ZN NECB System 3 PSZ Occ Sch Wednesday, !- Wednesday Schedule:Day Name\n   *************  17330   Sp-PatRoom5_Mult10_Flr_4 Sys-3 Flr-3 Sch-H HPlcmt-north ZN NECB System 3 PSZ Occ Sch Thursday, !- Thursday Schedule:Day Name\n   *************  17331   Sp-PatRoom5_Mult10_Flr_4 Sys-3 Flr-3 Sch-H HPlcmt-north ZN NECB System 3 PSZ Occ Sch Friday, !- Friday Schedule:Day Name\n   *************  17332   Sp-PatRoom5_Mult10_Flr_4 Sys-3 Flr-3 Sch-H HPlcmt-north ZN NECB System 3 PSZ Occ Sch Saturday, !- Saturday Schedule:Day Name\n   *************  17333   Sp-PatRoom5_Mult10_Flr_4 Sys-3 Flr-3 Sch-H HPlcmt-north ZN NECB System 3 PSZ Occ Sch Default, !- Holiday Schedule:Day Name\n   *************  17334   Sp-PatRoom5_Mult10_Flr_4 Sys-3 Flr-3 Sch-H HPlcmt-north ZN NECB System 3 PSZ Occ Sch Summer Design Day, !- SummerDesignDay Schedule:Day Name\n   *************  17335   Sp-PatRoom5_Mult10_Flr_4 Sys-3 Flr-3 Sch-H HPlcmt-north ZN NECB System 3 PSZ Occ Sch Winter Design Day, !- WinterDesignDay Schedule:Day Name\n   ** Warning ** IP: IDF line~17335 Alpha Argument length exceeds maximum, will be truncated=  Sp-PatRoom5_Mult10_Flr_4 Sys-3 Flr-3 Sch-H HPlcmt-north ZN NECB System 3 PSZ Occ Sch Winter Design Da\n   **   ~~~   ** Will be processed as Alpha=SP-PATROOM5_MULT10_FLR_4 SYS-3 FLR-3 SCH-H HPLCMT-NORTH ZN NECB SYSTEM 3 PSZ OCC SCH WINTER DESIGN DAY\n   ************* IDF Context for following error/warning message:\n   ************* Note -- lines truncated at 300 characters, if necessary...\n   *************  17355 Schedule:Day:Interval,\n   ************* indicated Name=Sp-PatRoom5_Mult10_Flr_4 Sys-3 Flr-3 Sch-H HPlcmt-north ZN NECB System 3 PSZ Occ Sch Summer Design Day\n   ************* Only last 1 lines before error line shown.....\n   *************  17356   Sp-PatRoom5_Mult10_Flr_4 Sys-3 Flr-3 Sch-H HPlcmt-north ZN NECB System 3 PSZ Occ Sch Summer Design Day, !- Name\n   ** Warning ** IP: IDF line~17356 Alpha Argument length exceeds maximum, will be truncated=  Sp-PatRoom5_Mult10_Flr_4 Sys-3 Flr-3 Sch-H HPlcmt-north ZN NECB System 3 PSZ Occ Sch Summer Design Da\n   **   ~~~   ** Will be processed as Alpha=SP-PATROOM5_MULT10_FLR_4 SYS-3 FLR-3 SCH-H HPLCMT-NORTH ZN NECB SYSTEM 3 PSZ OCC SCH SUMMER DESIGN DAY\n   ************* IDF Context for following error/warning message:\n   ************* Note -- lines truncated at 300 characters, if necessary...\n   *************  17362 Schedule:Day:Interval,\n   ************* indicated Name=Sp-PatRoom5_Mult10_Flr_4 Sys-3 Flr-3 Sch-H HPlcmt-north ZN NECB System 3 PSZ Occ Sch Winter Design Day\n   ************* Only last 1 lines before error line shown.....\n   *************  17363   Sp-PatRoom5_Mult10_Flr_4 Sys-3 Flr-3 Sch-H HPlcmt-north ZN NECB System 3 PSZ Occ Sch Winter Design Day, !- Name\n   ** Warning ** IP: IDF line~17363 Alpha Argument length exceeds maximum, will be truncated=  Sp-PatRoom5_M
[...]
9Sfxy9tPPA/Hh5PxEz8FpOmvLB0elaCIJRRxGiQhmt+k4GIqspEksnHiYJi9eMNbwuGx75efZyuw0xbX+5BLJZBYFYupEsTz1QydpOGrK30q78tm+62yfVmOWp2jPZPNLKHP8uNlKL0/5ZxbuWbA33rhy5Mz8REyjMJ3D5JumePP9/v5gcHLyZsOFZ4ADHOAABzjAAQ5wgAMc4ADnr4kj4tlt+iewcKXaKVxnrogi6YIGNKABDWhAAxrQgAY0oAENaIpp7rOvZv2J5tqfSeAABzjAAQ5wgAMc4AAHOMABThWcp/cG2uq9gRcz6r2BPTu7w3Z8vLNzcABSkIIUpCAFKUhBClKQghSkIAUpSF8HaTcjdRKKtJOR9nrd7v4uSEEKUpCCFKQgBSlIQQpSkIIUpCB9HaQ9RXoaeQRp9yAjte29vV4PpCAFKUhBClKQghSkIAUpSEEKUpC+DtIdRfp5MqNI9zPSg3TrvwMpSEEKUpCCFKQgBSlIQQpSkIIUpK+DtK9If5cuRbqXkb5/Pxjs7YEUpCAFKUhBClKQghSkIAUpSEEK0tdBupt9MjGTFOluRjoY7O6CFKQgBSlIQQpSkIIUpCAFKUhBCtLXQrqnSD+GVGXBbj8j3d/vdvt9kIIUpCAFKUhBClKQghSkIAUpSEFaG+kSxY2c+0aps4d24iW+vJg4U9lO5EPSePMhnEVxOcb82zPfe7cyiL0w8GWceShxsb0tjl1XOCLzJO69ZCLi8FYKt1dyZnw3bjvTqQzchqW0ra2SE5Zb20mSqGE9WE2x2zE8aZ6e1NU/KU7mvlzgtZxgOAmj9HzLlyMD2tzHKAyS1r30xpNE+bgOfVffx6JvLqatT05yHoa3e1cfZ35id65O/ehqR1zM41ZPpL+nPy+Gk9YH8eGTP7xVenEi/v2r+PVk8E4dlchb0ROfLv4tzoZDdeibraIOfrsdDyNvmvydPObttuvdvWwmz6Gdpb6E5x5ZQzX6B2mDOV4go6uuvW+JrBmPLNeLp74zP/QCP7W1rv1w+PVHiwZMvS6uQSTzaXq+asntG+fOWewtPFNtd06kRqo4Eq53O/VlO5D3F3fjhvX9C5BNsdPpZD9KQ0/5dZ3ESR1f/mH5zrX0rUPLlSMn7VgxjcKR50urubBcPViHdrvTtO4cfybz34dqhkrPSSedweDkxHpsavnpMvnpMfnZYfLTZ/Kzy+Rnj8nPPpOfAyY/dofLEdeItrmGtM01pm2uQW1zjWqba1jbXOPa5hrYNtfI7nKN7C7bXM01srtcI7trNLJFPLu9XXlltdaKFknXwA3ZRmZuyBYyc0O2j5kbMu7N3JBRb+aGjHkzN2TEm7kh493MDb2QGfphGsf0Mmboh2kk04uYoR+msUwvYYZ+mEYzvYAZ+mEaz/TyZeiHa15mGs/02mXoR38833tBYr5sXatd+n7I5jH0QzaPoR+yeQz9kOFu6IcMd0M/ZLgb+iHD3dAPGe6Gfuj1y9QR14imVzBTR1xjml7DTB1xjWp6FTN1xDWu6XXM1BHXyKZXMlNHbHM118imFzNTR/oj++keRuk7hqllrrPyh97iJcQMEt3NS/Q2L7GzeYn+5iV2Ny+xt3mJ/c1LHGxeYmVl35RGDfFd8MEsnwb9yRafBv2hF58G/Ukvnwb9ITCfBv35MJ8G/dExnwb9qTLf+ldDnHfrWMdrWMi7Nazk3WpLeemrHPXSqsW7Hhkk6N5gk6A7g02C7gs2CTqtYpOg0yo2CTqtYpOg0yo2CTqtYpMouHPNp0Hf+uPToNMqPg06reLToNMqPg06reLToNMqPg06reLToNMqPg06reJb/2qI84Jb/HwaNSzkBWkVn0a1pbz0jVl6adXilVoMEnRvsEnQncEmQfcFmwSdVrFJ0GkVmwSdVrFJ0GkVmwSdVrFJFKRVfBr0dMunQadVfBp0WsWnQadVfBp0WsWnQadVfBp0WsWnQadVfBp0WsW3/tUQ5wVpFZ9GDQt5QVrFp1FtKS99MYleWrV4cwmDBN0bbBJ0Z7BJ0H3BJkGnVWwSdFrFJkGnVWwSdFrFJkGnVWwSBWkVnwY93fJp0GkVnwadVvFp0GkVnwadVvFp0GkVnwadVvFp0GkVnwadVvGtfzXEeUFaxadRw0JekFbxaVRbykvrv+ulVYsC8QwSdG+wSdCdwSZB9wWbBJ1WsUnQaRWbBJ1WsUnQaRWbBJ1WsUkUpFV8GvR0y6dBp1V8GnRaxadBp1V8GnRaxadBp1V8GnRaxadBp1V8GnRaxbf+1RDnBWkVn0YNC3lBWsWnUW0pLy2zq5dWLerwMkjQvcEmQXcGmwTdF2wSdFrFJkGnVWwSdFrFJkGnVWwSdFrFJlGQVvFp0NMtnwadVvFp0GkVnwadVvFp0GkVnwadVvFp0GkVnwadVvFp0GkV3/pXQ5wXpFV8GjUs5AVpFZ9GtaW8tJqhXlq1KHfIIEH3BpsE3RlsEnRfsEnQaRWbBJ1WsUnQaRWbBJ1WsUnQaRWbRGGxNS4Nerrl0ygqZMWlUVTjikujqPwVl0ZRzTcujaJycFwaRZXiuDSKishxaRTVl+Na/2qI88KqdFwaNSzkBWkVn0b5Uv5Fp8JrXshZHIlA3i8ryGaFYxvx3biZVYAtLRW7rAYdy+RdOAvcuNHvNIVt95uip37r9vXKzT6kGE9Frl134CRyHEbz4wcvXlRTfrp+jZLTqYOzyJXR+UwVN9Y+UXHMVzk+SieeRXKBoeoz5+2+4XLfMMMMM8wwwwwzzDDDDDPMMMMMM8wwwwwzzDDDDDPMMMMMM8wwwwwzzDDDDDPMMMMMM8wwwwwzzDDDDDPMMMMMM8wwwwwzzDD/pczzdngno8hz5UdHPVhrtztrPq+qHo2NVx+NvZCRJ+P88VqruXyAeOqHSdv3Aln6iGz80nO65U/Wxu3s1fPT0HcSLwxSKCtO5LR1LUdhJC29J59/kWMZuKsXtNjX2O00RU89udxRDzKrH5YvR4kCK3G9dNu+GsvkJEhU+6QSo1kwzEgbW+KPEhdLQvl09mXps9xq80aikUy8uB1nvaInpLZnJ7XT9jtxhpPGf4BNvS3x1aPjKXvu92oaxp5y+D7drXM1y025eYEqCu/NkJZYXuBKFQ8tu2l49nK7qXriyJO+Gm+NvE0XcTKOwtlUuuKHH8R3+f6H9tXEifPn31WAbT23zl+0pg3SdsbjU6XR9mUwTibireiKfwjr2Pctcbh6ROx7Q9lo2VuXnS9bpfH2zZWEkWjcpJfS+VHcpDL5UM111b6/pTOOeQepTQ3j3N/lzZf2VzkXR0dHi8ar5jHzmnf7jemlLrfrSDpfq5z8aHiO6fGqvfKrO1LDWg2GfKRkhRzaV04ce+NAugNVIiK+zFryS7WmXHb0dBZPGlX7Iu3Sw0V/Vo8k3z/Uucq2OrKqSpxE4Vepp7M4tqpSOHWGXjLXk8oPrnxVmcRSqqqX5USyOq1UCQ/jyUdty3BenXhES9im3kzCTZ/1sZmtqlrHP5blFGrb3haffvss/nX227m4ODv//POvP4lfzn76eSA+nJyf6Dk4TWdt+eCoFE0koYjDKBHB7DYdB0ORlTSJhRMP0+TFC8YaHpdtr/w8W5mdprjWn1wimcyiQEydKJanfugkDUdN+VtpVz7bd53t02rM8hTtmWx+CWWOHzdb6eUp/8zCPQv2xhtXjpyZn4hpFKZzmHzTFG++398fDE5O3my48AxwgAMc4AAHOMABDnCAAxzg/DVxRDy7Tf8EFq5UO4XrzBVRJF3QgAY0oAENaEADGtCABjSgAU0xzX321aw/0Vz7Mwkc4AAHOMABDnCAAxzgAAc4wKmC8/TeQFu9N/BiRr03sGdnd9iOj3d2Dg5AClKQghSkIAUpSEEKUpCCFKQgBenrIO1mpE5CkXYy0l6v293fBSlIQQpSkIIUpCAFKUhBClKQghSkr4O0p0hPI48g7R5kpLa9t9frgRSkIAUpSEEKUpCCFKQgBSlIQQrS10G6o0g/T2YU6X5GepBu/XcgBSlIQQpSkIIUpCAFKUhBClKQgvR1kPYV6e/SpUj3MtL37weDvT2QghSkIAUpSEEKUpCCFKQgBSlIQfo6SHezTyZmkiLdzUgHg91dkIIUpCAFKUhBClKQghSkIAUpSEH6Wkj3FOnHkKos2O1npPv73W6/D1KQghSkIAUpSEEKUpCCFKQgBSlIayNdoriRc98odfbQTrzElxcTZyrbiXxIGm8+hLMoLseYf3vme+9WBrEXBr6MMw8lLra3xbHrCkdknsS9l0xEHN5K4fZKzozvxm1nOpWB27CUtrVVcsJyaztJEjWsB6spdjuGJ83Tk7r6J8XJ3JcLvJYTDCdhlJ5v+XJkQJv7GIVB0rqX3niSKB/Xoe/q+1j0zcW09Wkyjz9PZORM51enfnTVExfzuNUT6e+trrgYTloD8eGTP7xNWsMwkuLfv4pfTwbv1FGJvBU98eni3+JsOFSHvtkq6ty32/Ew8qbJ38lj3m673t3LZvIc2lnqS3jukTVUI3+QNpbjBTK66toHlsia8MhyvXjqO/NDL/BTW+vaD4dff7RowNTr4hpEMp+m56tW3L5x7pzF3sIz1XbnRGqUiiPherdTX7YDeX9xN25Y378A2RQ7nU72ozTslF/XSZzU8eUflu9cS986tFw5cmZ+IqZROPJ8aTUXlqsH69Bud5rWnePPZP77UM1O6TnphDMYnJxYj00tP10mPz0mPztMfvpMfnaZ/Owx+dln8nPA5MfucDniGtE215C2uca0zTWoba5RbXMNa5trXNtcA9vmGtldrpHdZZuruUZ2l2tkd41Gtohnt7crr6vWWtEi6Rq4IdvIzA3ZQmZuyPYxc0PGvZkbMurN3JAxb+aGjHgzN2S8m7mhFzJDP0zjmF7GDP0wjWR6ETP0wzSW6SXM0A/TaKYXMEM/TOOZXr4M/XDNy0zjmV67DP3oj+d7L0jMl61rtUvfD9k8hn7I5jH0QzaPoR8y3A39kOFu6IcMd0M/ZLgb+iHD3dAPvX6ZOuIa0fQKZuqIa0zTa5ipI65RTa9ipo64xjW9jpk64hrZ9Epm6ohtruYa2fRiZupIf2Q/3b8ofb+w3ueNixcQM0jQf92ySdB/97JJ0H8Rs0nQnwKxSdCfD7FJ0J8csUnQnymxSdCfNrFJFHzEyqdRQ3wXfDDLp1FDhBd8nMunUUOMF3wIzKdRQ5QXfHTMp1FDnBd84MynUcc6XkOcF3yCzadRLc5LX+Ool1Yt3vPIIEH3BpsE3RlsEnRfsEnQUy6bBD3jsknQEy6bBD3fsknQ0y2bREFaxadRQ3wXpFV8GjVEeEFaxadRQ4wXpFV8GjVEeUFaxadRQ5wXpFV8GnWs4zXEeUFaxadRLc5L35all1YtXqfFIEH3BpsE3RlsEnRfsEnQUy6bBD3jsknQEy6bBD3fsknQ0y2bREFaxadRQ3wXpFV8GjVEeEFaxadRQ4wXpFV8GjVEeUFaxadRQ5wXpFV8GnWs4zXEeUFaxadRLc5LX0qil1Yt3lrCIEH3BpsE3RlsEnRfsEnQUy6bBD3jsknQEy6bBD3fsknQ0y2bREFaxadRQ3wXpFV8GjVEeEFaxadRQ4wXpFV8GjVEeUFaxadRQ5wXpFV8GnWs4zXEeUFaxadRLc5La7/rpVWL4vAMEnRvsEnQncEmQfcFmwQ95bJJ0DMumwQ94bJJ0PMtmwQ93bJJFKRVfBo1xHdBWsWnUUOEF6RVfBo1xHhBWsWnUUOUF6RVfBo1xHlBWsWnUcc6XkOcF6RVfBrV4ry0xK5eWrWowcsgQfcGmwTdGWwSdF+wSdBTLpsEPeOySdATLpsEPd+ySdDTLZtEQVrFp1FDfBekVXwaNUR4QVrFp1FDjBekVXwaNUR5QVrFp1FDnBekVXwadazjNcR5QVrFp1EtzksrGeqlVYtShwwSRXVumCSKKuAwSRTVxmGSKKoHxSRRVCmKSaKohhSTRFF1KSaJorpTTBKFxda4NGqI78ISbVwaNUR4YWE3Lo0aYrywHByXRg1RXlhEjkujhjgvLD3HpVHHOl5DnBfWsuPSKI/zLzoVXvMizuJIBPJ+WUE2KxzbiO/GzawCbGmp2GUl6Fgm78JZ4MaNfqcpbLvfFD31W7evV272IcV4KnDtugMnkeMwmh8/ePGikvLT9WuUm04dnEWujM5nqrCx9omKY77K8VE68SySCwxVmzlv9w2X+oYZZphhhhlmmGGGGWaYYYYZZphhhhlmmGGGGWaYYYYZZphhhhlmmGGGGWaYYYYZZphhhhlmmGGGGWaYYYYZZphhhhlmmGGG+S9lnrfDOxlFnis/OurBWrvdWfN5VfVobLz6aOyFjDwZ54/XWs3lA8RTP0zavhfI0kdk45ee0y1/sjZuZ6+en4a+k3hhkEJZcSKnrWs5CiNp6T35/Iscy8BdvaDFvsZupyl66snljnqQWf2wfDlKFFiJ66Xb9tVYJidBotonlRjNgmFG2tgSf5S4WBLKp7MvS5/lVps3Eo1k4sXtOOsVPSG1PTupnbbfiTOcNP4DbOptia8eHU/Zc79X0zD2lMP36W6dq1luys0LVFF4b4a0xPICV6p4aNlNw7OX203VE0ee9NV4a+RtuoiTcRTOptIVP/wgvsv3P7SvJk6cP/+uAmzruXX+ojVtkLYzHp8qjbYvg3EyEW9FV/xDWMe+b4nD1SNi3xvKRsveuux82SqNt2+uJIxE4ya9lM6P4iaVyYdqrqv2/S2dccw7SG1qGOf+Lm++tL/KuTg6Olo0XjWPmde8229ML3W5XUfS+Vrl5EfDc0yPV+2VX92RGtZqMOQjJSvk0L5y4tgbB9IdqBIR8WXWkl+qNeWyo6ezeNKo2hdplx4u+rN6JPn+oc5VttWRVVXiJAq/Sj2dxbFVlcKpM/SSuZ5UfnDlq8okllJVvSwnktVppUp4GE8+aluG8+rEI1rCNvVmEm76rI/NbFXVOv6xLKdQ2/a2+PTbZ/Gvs9/OxcXZ+eeff/1J/HL2088D8eHk/ETPwWk6a8sHR6VoIglFHEaJCGa36TgYiqykSSyceJgmL14w1vC4bHvl59nK7DTFtf7kEslkFgVi6kSxPPVDJ2k4asrfSrvy2b7rbJ9WY5anaM9k80soc/y42UovT/lnFu5ZsDfeuHLkzPxETKMwncPkm6Z48/3+/mBwcvJmw4VngAMc4AAHOMABDnCAAxzgAOeviSPi2W36J7BwpdopXGeuiCLpggY0oAENaEADGtCABjSgAQ1oimnus69m/Ynm2p9J4AAHOMABDnCAAxzgAAc4wAFOFZyn9wba6r2BFzPqvYE9O7vDdny8s3NwAFKQghSkIAUpSEEKUpCCFKQgBSlIXwdpNyN1Eoq0k5H2et3u/i5IQQpSkIIUpCAFKUhBClKQghSkIH0dpD1Fehp5BGn3ICO17b29Xg+kIAUpSEEKUpCCFKQgBSlIQQpSkL4O0h1F+nkyo0j3M9KDdOu/AylIQQpSkIIUpCAFKUhBClKQghSkr4O0r0h/ly5FupeRvn8/GOztgRSkIAUpSEEKUpCCFKQgBSlIQQrS10G6m30yMZMU6W5GOhjs7oIUpCAFKUhBClKQghSkIAUpSEEK0tdCuqdIP4ZUZcFuPyPd3+92+32QghSkIAUpSEEKUpCCFKQgBSlIQVob6RLFjZz7Rqmzh3biJb68mDhT2U7kQ9J48yGcRXE5xvzbM997tzKIvTDwZZx5KHGxvS2OXVc4IvMk7r1kIuLwVgq3V3JmfDduO9OpDNyGpbStrZITllvbSZKoYT1YTbHbMTxpnp7U1T8pTua+XOC1nGA4CaP0fMuXIwPa3McoDJLWvfTGk0T5uA59V9/Hom8upq1zx/XSkTmeX5360dWOuJjHrZ5If09/XgwnrQ/iwyd/eJu0hmEkxb9/Fb+eDN6poxJ5K3ri08W/xdlwqA59s1XUtW+342HkTZO/k8e83Xa9u5fN5Dm0s9SX8Nwja6jG/SBtKscLZHTV7XYskTXgkeV68dR35ode4Ke21rUfDr/+aNGAqdfFNYhkPk3PV224fePcOYu9hWeq7c6J1BgVR8L1bqe+bAfy/uJu3LC+fwGyKXY6nexHadApv66TOKnjyz8s37mWvnVouXLkzPxETKNw5PnSai4sVw/Wod3uNK07x59J67Dfb/cOnm29ftMaqqkqdZHOPoPByYn12NRy292M295m3O5sxm1/M253N+N2bzNu9zfj9mAzbu3OhvxuKM7sDQWavaFIszcUavaGYs3eULDZG4o2e0PhZm8o3robirfupta1DcVbd0Px1l0n3kQ8u71deSl4lcwhkq6BV932NfOq27pmXnXb1syr7kxm5lV3HjPzqjuLmXnVncPMvOrOYGZetRMGQ7ebiS7tdMHQ7WbiSztZMHS7mQjTThUM3W4mxrQTBUO3m4ky7TTB0O2G1rDNRJl2jmDotnKU3XtBsnZ6cK2O0Her27SGbnWb1tCtbtMautWdwAzd6k5ghm51JzBDt7oTmKFb3QnM0K12nmDqd0Nxpp0pmPrdUKRp5wqmfjcUa9rZgqnfDUWbdr5g6ndD8aadMZj63dS6tqF4004aTP2axdsXnRsX+Z1JcSQCeb+8MZLdD2nEd+NmdmOj9A7I8vZmLJN34Sxw40a/0xS23W+Knvqt29e7i/KQYjzdtXXdgZPIcRjNjx+8eHF78KktNO6hpg7OIldG5zN1t077RMUxX+X4KJ14FskFhrrhmPfBuneFsxtSq1IXMvJknOOmSnmHTP0waau7ZKWS8UvXXU4at7OBNw19J/HCIIWy4kROW9dyFEbS0htJv8ixDNzVC1rsa+ymo6CnRoK6qWarH/lN19L70Uu37auxTE6CRLVPKjGaBcOMtLEl/tC466oI5dPZl6WxoTZvJBrJxIvTca3O0xNS27OT2mn7nTjDSeM/wKbelvj5Pcbc79U0jD3l8H26W+dqlpty8wJVFN6bIS2xvMCVKnBbdtPw7OV2U/XEkSd9Nd4aeZsu4mQchbOpdMUPP4jv8v0P7auJE+fziQqwrefW+YvWtEHaznh8qjTavgzGyUS8FV3xD2Ed+74lDlePiH1vKBste+uy82WrNN6+uZIwEo2b9FI6P4qbVCYfqrmu2ve3I2Gbd5Da1DDO/V3efGl/len0dnS0aLxqHjOvebffmF7qcruOpPO1ysmPhueYHq/aK7+6IzWs1WDIR0q2MLavFt8okm72naL4MmvJL9WactnR01k8aVTti7RLDxf9WT2SfP9Q5yrb6siqKnEShV+lns7i2KpK4dQZeslcTyo/uPJVZRJLqapelhPJ6rRSJTyMJx+1LcN5deIRLWGbejMJN33Wx2a2qmod/1iWU6hte1t8+u2z+NfZb+fi4uz888+//iR+Ofvp54H4cHJ+oufgNJ215YOjUjSRhCIO00Q6mN2m42AoshQxFk48TJMXLxhreFy2vfLzbGV2muJaf3KJZDKLAjF1olie+qGTNBw15W+lXfls33W2T6sxy1O0Z7L5JZQ5fvwvfPPzT3ds8693qhuw/5UvogIHOMABDnCAAxzgAAc4wAHOq8f59psviiiSLmhAAxrQgAY0oAENaEADGtCAppjmm+8EKhr1FT/gAAc4wAEOcIADHOAABzjAAc5/sd7iZ3k7lZGTzCIpGqdbqLj4v1VxcTad+nNx7EVCddQrqZlov4aaiTZqJhqXNkDNRHO3qJmImonmpQ1QM7GaX9RMRM1E1ExEzUTUTETNxJfcomYiaiaiZqJxmoCaieZuUTMRNRNRM9E0TUDNxGp+UTMRNRNRMxE1E1+4cYGaiS9woGYiaiYK1EzUw0LNRNRMrLKhZqLaUDMRNROzDTUTi49EzcRyB2pDzcTXUVoEOMABDnCAAxzgAAc4wAEOcF49zv9YxRHQgAY0oAENaEADGtCABjSgeT00/99UOgEOcIADHOAABzjAAQ5wgAOc6nqomfjyhpqJi5qJwn4lVRO7r6FqYre2qonZ71XLMzH56TH52WHy02fys8vkZ4/Jzz6TnwMmPytVBdZyxDWiba4hbXONaZtrUNtco9rmGtY217i2uQa2zTWyu1wju8s2V3ON7C7XyO4ajWz9an4rrqqX71vDDdlC1Qv0reGGjPvqJfjWcEPGfPUie2u4IeN9jTJ66/hhGsf0MrZGZbx1/DANZXoNW6PY3Tp+mEYzvYCtUb9unXmQaTzTq9caJenW8cM0numlq3qVuRU3a5SVW8cP2TxrFI5bxw8Z7muUhlvHDxnuaxR/W8cPGe7rlHdbyxHXiKZXsHUqtq3liGtQ04vYOkXY1nLENa7pdWydumprzYxcI5teytYplbaWI66RTa9m3zj6FHlh5CVzYYuWaFzMgi1Vh2q39X+doNWxW9nv7+Ww1bOpZa6z8ofe8fHOzsEBg0R38xK9zUvsbF6iv3mJ3c1L7G1eYn/zEgebl1hZ2TelUUN82zUEuF1DhNs1hLhdQ4zbNQS5XUOU2zWEuV1DnHdriPNuHet4DXHerSHOu9XivJtpOAml0dFLq3q9bnd/l0GC7g02Cboz2CTovmCToKdcNgl6xmWToCdcNgl6vmWToKdbNomCtIpPo4b4Lkir+DRqiPCCtIpPo4YYL0ir+DRqiPKCtIpPo4Y4L0ir+DTqWMdriPOCtIpPo1qc95TGaeQRGt0DvbTKtvf2ej0GCbo32CTozmCToPuCTYKectkk6BmXTYKecNkk6PmWTYL+bhSbRMEXAvk06G9U8WnQX7bi06C/h8WnQX9Fi0+D/l4inwb9lUU+DfrbjHwa9Bcd+TRqiPOCtIpPo451vIaFvCCt4tOotpTvKI3Pkxmlsa+XVql3LvXfMUjQvcEmQXcGmwTdF2wSdFrFJkGnVWwSdFrFJkGnVWwS9HTLJlGQVvFp0GkVnwadVvFp0GkVnwadVvFp0GkVnwadVvFp0GkVnwadVvFp1BDnBWkVn0Yd63gNC3lBWsWnUW0p7yuN36VLaezppVXv3w8Ge3sMEnRvsEnQncEmQfcFmwSdVrFJ0GkVmwSdVrFJ0GkVmwQ93bJJFKRVfBp0WsWnQadVfBp0WsWnQadVfBp0WsWnQadVfBp0WsWnQadVfBo1xHlBWsWnUcc6XsNCXpBW8WlUW8p3s9RtJimNXb20ajDY3WWRoHuDTYLuDDYJui/YJOi0ik2CTqvYJOi0ik2CTqvYJOjplk2iIK3i06DTKj4NOq3i06DTKj4NOq3i06DTKj4NOq3i06DTKj4NOq3i06ghzgvSKj6NOtbxGhbygrSKT6PaUr6nND6G1Nfiu329tGp/v9vt9xkk6N5gk6A7g02C7gs2CTqtYpOg0yo2CTqtYpOg0yo2iaK6U0wShcXWuDSKqlVxaRQVsuLSKKpxxaVRVP6KS6Oo5huXRlE5OC6NokpxXBpFReS4NGqI84K0ik+jjnW8hoW8IK3i0yhfyr/oVHjNCzGLIxHI+2UF2axwbCO+GzezCrClpWKX1ZxjmbwLZ4EbN/qdprDtflP01G/dvl652YcU46kStesOnESOw2h+/ODFi1rIT9evUTI6dXAWuTI6n6nSxNonKo75KsdH6cSzSC4wVHXlvN03XJMbZphhhhlmmGGGGWaYYYYZZphhhhlmmGGGGWaYYYYZZphhhhlmmGGGGWaYYYYZZphhhhlmmGGGGWaYYYYZZphhhhlmmGGGGea/lHneDu9kFHmu/OioB2vtdmfN51XVo7Hx6qOxFzLyZJw/Xms1lw8QT/0wafteIEsfkY1fek63/MnauJ29en4a+k7ihUEKZcWJnLau5SiMpKX35PMvciwDd/WCFvsau52m6KknlzvqQWb1w/LlKFFgJa6XbttXY5mcBIlqn1RiNAuGGWljS/xR4mJJKJ/Ovix9lltt3kg0kokXt+OsV/SE1PbspHbafifOcNL4D7CptyW+enQ8Zc/9Xk3D2FMO36e7da5muSk3L1BF4b0Z0hLLC1yp4qFlNw3PXm43VU8cedJX462Rt+kiTsZROJtKV/zwg/gu3//Qvpo4cf78uwqwrefW+YvWtEHaznh8qjTavgzGyUS8FV3xD2Ed+74lDlePiH1vKBste+uy82WrNN6+uZIwEo2b9FI6P4qbVCYfqrmu2ve3dMYx7yC1qWGc+7u8+dL+Kufi6Oho0XjVPGZe826/Mb3U5XYdSedrlZMfDc8xPV61V351R2pYq8GQj5SskEP7yoljbxxId6BKRMSXWUt+qdaUy46ezuJJo2pfpF16uOjP6pHk+4c6V9lWR1ZViZMo/Cr1dBbHVlUKp87QS+Z6UvnBla8qk1hKVfWynEhWp5Uq4WE8+ahtGc6rE49oCdvUm0m46bM+NrNVVev4x7KcQm3b2+LTb5/Fv85+OxcXZ+eff/71J/HL2U8/D8SHk/MTPQen6awtHxyVookkFHEYJSKY3abjYCiykiaxcOJhmrx4wVjD47LtlZ9nK7PTFNf6k0skk1kUiKkTxfLUD52k4agpfyvtymf7rrN9Wo1ZnqI9k80voczx42YrvTzln1m4Z8HeeOPKkTPzEzGNwnQOk2+a4s33+/uDwcnJmw0XngEOcIADHOAABzjAAQ5wgAOcvyaOiGe36Z/AwpVqp3CduSKKpAsa0IAGNKABDWhAAxrQgAY0oCmmuc++mvUnmmt/JoEDHOAABzjAAQ5wgAMc4AAHOFVwnt4baKv3Bl7MqPcG9uzsDtvx8c7OwQFIQQpSkIIUpCAFKUhBClKQghSkIH0dpN2M1Eko0k5G2ut1u/u7IAUpSEEKUpCCFKQgBSlIQQpSkIL0dZD2FOlp5BGk3YOM1Lb39no9kIIUpCAFKUhBClKQghSkIAUpSEH6Okh3FOnnyYwi3c9ID9Kt/w6kIAUpSEEKUpCCFKQgBSlIQQpSkL4O0r4i/V26FOleRvr+/WCwtwdSkIIUpCAFKUhBClKQghSkIAUpSF8H6W72ycRMUqS7GelgsLsLUpCCFKQgBSlIQQpSkIIUpCAFKUhfC+meIv0YUpUFu/2MdH+/2+33QQpSkIIUpCAFKUhBClKQghSkIAVpbaRLFDdy7hulzh7aiZf48mLiTGU7kQ9J482HcBbF5Rjzb898793KIPbCwJdx5qHExfa2OHZd4YjMk7j3komIw1sp3F7JmfHduO1MpzJwG5bStrZKTlhubSdJoob1YDXFbsfwpHl6Ulf/pDiZ+3KB13KC4SSM0vMtX44MaHMfozBIWvfSG08S5eM69F19H4u++efxPxcNfC4n0kmELc6GQ3ExnLzZKuqmt9vxMPKmyd/JY95uu97dy2byHNpZ6kt47pE1VGN4kF624wUyuup2e5bIGuPIcr146jvzQy/wU1vr2g+HX3+0aMDU6+IaRDKfpuer9ti+ce6cxd7CM9V250RqvIkj4Xq3U1+2A3l/cTduWN+/ANkUO51O9qM0gJRf10mc1PHlH5bvXEvfOrRcOXJmfiKmUTjyfGk1F5arB+vQbnea1p3jz2T++1DNM+k56dQxGJycWI9NLT9dJj89Jj87TH76TH52mfzsMfnZZ/JzwOTH7nA54hrRNteQtrnGtM01qG2uUW1zDWuba1zbXAPb5hrZXa6R3WWbq7lGdpdrZHeNRraIZ7e3Ky+e1lrRIukauCHbyMwN2UJmbsj2MXNDxr2ZGzLqzdyQMW/mhox4MzdkvJu5oRcyQz9M45hexgz9MI1kehEz9MM0luklzNAP02imFzBDP0zjmV6+DP1wzctM45leuwz96I/ney9IzJeta7VL3w/ZPIZ+yOYx9EM2j6EfMtwN/ZDhbuiHDHdDP2S4G/ohw93QD71+mTriGtH0CmbqiGtM02uYqSOuUU2vYqaOuMY1vY6ZOuIa2fRKZuqIba7mGtn0YmbqSH9kP92JKH1TMLXMdVb+0Fu8SphBort5id7mJXY2L9HfvMTu5iX2Ni+xv3mJg81LrKzsm9KoIb7tGgLcriHC7RpC3K4hxu0agtyuIcrtGsLcriHOuzXEebeOdbyGOO/WEOfdanFe+kJGvbRq8cZGBgm6N9gk6M5gk6D7gk2CnnLZJOgZl02CnnDZJOj5lk2Cnm7ZJArSKj6NGuK7IK3i06ghwgvSKj6NGmK8IK3i06ghygvSKj6NGuK8IK3i06hjHa8hzgvSKj6NanFe+t4rvbRq8WIsBgm6N9gk6M5gk6D7gk2CnnLZJOgZl02CnnDZJOj5lk2C/m4Um0TBFwL5NOhvVPFp0F+24tOgv4fFp0F/RYtPg/5eIp8G/ZVFPg3624x8GvQXHfk0aojzgq9H8mnUEOcFX6rk06hhJS9Iq4o0Sl8vopdWLd4/wiBBp1VsEnRnsEnQfcEmQadVbBJ0WsUmQadVbBJ0WsUmQU+3bBIFaRWfBj3d8mnQ0y2fBp1W8WnQaRWfBp1W8WnQaRWfBp1W8WnQaRWfRg1xXpBW8WnUEOcFaRWfRg0reUFaVaRRWsVdL61alHlnkKDTKjYJujPYJOi+YJOg0yo2CTqtYpOg0yo2CTqtYpOgp1s2iYK0ik+Dnm75NOjplk+DTqv4NOi0ik+DTqv4NOi0ik+DTqv4NOi0ik+jhjgvSKv4NGqI84K0ik+jhpW8IK0q0igtlquXVi2q6TJI0GkVmwTdGWwSdF+wSdBpFZsEnVaxSdBpFZsEnVaxSdDTLZtEQVrFp0FPt3wa9HTLp0GnVXwadFrFp0GnVXwadFrFp0GnVXwadFrFp1FDnBekVXwaNcR5QVrFp1HDSl6QVhVplNYk1EurFkULGSTotIpNgu4MNgm6L9gk6LSKTYJOq9gk6LSKTYJOq9gkiupOMUkUFlvj0qCnWz6NokJWXBpFNa64NIrKX3FpFNV849IoKgfHpVFUKY5Lo6iIHJdGDXFeWHqOS6OGOC8sWMelUcNKXpBWLTW+6FR4zcsxiyMRyPtlBdmscGwjvhs3swqwpaVilzWdY5m8C2eBGzf6naaw7X5T9NRv3b5eudmHFOOpVLXrDpxEjsNofvzgxYuayE/Xr1E4OnVwFrkyOp+pEsXaJyqO+SrHR+nEs0guMFSV5bzdN1y0G2aYYYYZZphhhhlmmGGGGWaYYYYZZphhhhlmmGGGGWaYYYYZZphhhhlmmGGGGWaYYYYZZphhhhlmmGGGGWaYYYYZZphhhhnmv5R53g7vZBR5rvzoqAdr7XZnzedV1aOx8eqjsRcy8mScP15rNZcPEE/9MGn7XiBLH5GNX3pOt/zJ2ridvXp+GvpO4oVBCmXFiZy2ruUojKSl9+TzL3IsA3f1ghb7GrudpuipJ5c76kFm9cPy5ShRYCWul27bV2OZnASJap9UYjQLhhlpY0v8UeJiSSifzr4sfZZbbd5INJKJF7fjrFf0hNT27KR22n4nznDS+A+wqbclvnp0PGXP/V5Nw9hTDt+nu3WuZrkpNy9QReG9GdISywtcqeKhZTcNz15uN1VPHHnSV+OtkbfpIk7GUTibSlf88IP4Lt//0L6aOHH+/LsKsK3n1vmL1rRB2s54fKo02r4MxslEvBVd8Q9hHfu+JQ5Xj4h9bygbLXvrsvNlqzTevrmSMBKNm/RSOj+Km1QmH6q5rtr3t3TGMe8gtalhnPu7vPnS/irn4ujoaNF41TxmXvNuvzG91OV2HUnna5WTHw3PMT1etVd+dUdqWKvBkI+UrJBD+8qJY28cSHegSkTEl1lLfqnWlMuOns7iSaNqX6Rderjoz+qR5PuHOlfZVkdWVYmTKPwq9XQWx1ZVCqfO0EvmelL5wZWvKpNYSlX1spxIVqeVKuFhPPmobRnOqxOPaAnb1JtJuOmzPjazVVXr+MeynEJt29vi02+fxb/OfjsXF2fnn3/+9Sfxy9lPPw/Eh5PzEz0Hp+msLR8claKJJBRxGCUimN2m42AospImsXDiYZq8eMFYw+Oy7ZWfZyuz0xTX+pNLJJNZFIipE8Xy1A+dpOGoKX8r7cpn+66zfVqNWZ6iPZPNL6HM8eNmK7085Z9ZuGfB3njjypEz8xMxjcJ0DpNvmuLN9/v7g8HJyZsNF54BDnCAAxzgAAc4wAEOcIADnL8mjohnt+mfwMKVaqdwnbkiiqQLGtCABjSgAQ1oQAMa0IAGNKApprnPvpr1J5prfyaBAxzgAAc4wAEOcIADHOAABzhVcJ7eG2ir9wZezKj3Bvbs7A7b8fHOzsEBSEEKUpCCFKQgBSlIQQpSkIIUpCB9HaTdjNRJKNJORtrrdbv7uyAFKUhBClKQghSkIAUpSEEKUpCC9HWQ9hTpaeQRpN2DjNS29/Z6PZCCFKQgBSlIQQpSkIIUpCAFKUhB+jpIdxTp58mMIt3PSA/Srf8OpCAFKUhBClKQghSkIAUpSEEKUpC+DtK+Iv1duhTpXkb6/v1gsLcHUpCCFKQgBSlIQQpSkIIUpCAFKUhfB+lu9snETFKkuxnpYLC7C1KQghSkIAUpSEEKUpCCFKQgBSlIXwvpniL9GFKVBbv9jHR/v9vt90EKUpCCFKQgBSlIQQpSkIIUpCAFaW2kSxQ3cu4bpc4e2omX+PJi4kxlO5EPSePNh3AWxeUY82/PfO/dyiD2wsCXceahxMX2tjh2XeGIzJO495KJiMNbKdxeyZnx3bjtTKcycBuW0ra2Sk5Ybm0nSaKG9WA1xW7H8KR5elJX/6Q4mftygddyguEkjNLzLV+ODGhzH6MwSFr30htPEuXjOvRdfR+Lvvnn8T8XDXwuJ9JJxNlwKC6GkzdbRZ30djseRt40+Tt5zNtt17t72UyeQztLfQnPPbKGagQP0ot2vEBGV93ujiWypjiyXC+e+s780Av81Na69sPh1x8tGjD1urgGkcyn6fmqNbZvnDtnsbfwTLXdOZEabeJIuN7t1JftQN5f3I0b1vcvQDbFTqeT/SgNH+XXdRIndXz5h+U719K3Di1XjpyZn4hpFI48X1rNheXqwTq0252mdef4M2kd7h60D55t+wdNa6jmnNRDOo0MBicn1mNTy2t3I157G/G6sxGv/Y143d2I172NeN3fiNeDjXi1O5txu5nosjcTXvZm4sveTIDZm4kwezMhZm8mxuzNBJm9mSjrbibKuhtawzYTZd3NRFl3jSgT8ez2duU13hUyhEi6Bk4129bMqWbLmjnVbFczp5pzl5lTzZnLzKnmvGXmVHPWMnOqOWeZOdVNDAy9biSmdNMCQ68biSrdpMDQ60biSjclMPS6kcjSTQgMvW4ktnTTAUOvm1mvNhJburmAodeqsXXvBcm6acC1OkDfq2azGnrVbFZDr5rNauhVc8oy9Ko5ZRl61ZyyDL1qTlmGXjWnLEOvuvmAqdvNRJduRmDqdjPxpZsTmLrdTITpZgWmbjcTY7p5ganbzUSZbmZg6nZDa9hmokw3OTB1axRlX3RuOOT3BsWRCOT98oZGdh+jEd+Nm9kNidI7F8sbjLFM3oWzwI0b/U5T2Ha/KXrqt25f7+7HQ4rxdN/UdQdOIsdhND9+8OLFDbqnptC4i5k6OItcGZ3P1P0y7RMVx3yV46N04lkkFxjqll/eBevel81uJK1KXcjIk3GOmyrlHTL1w6St7m6VSsYvXXc5adzOxt009J3EC4MUyooTOW1dy1EYSUtvJP0ixzJwVy9osa+xm46CnhoJ6maYrX7ktz1L7wgv3bavxjI5CRLVPqnEaBYMM9LGlvhD476nIpRPZ1+WxobavJFoJBMvTse1Ok9PSG3PTmqn7XfiDCeN/wCbelvi5/cGc79X0zD2lMP36W6dq1luys0LVFF4b4a0xPICV6rAbdlNw7OX203VE0ee9NV4a+RtuoiTcRTOptIVP/wgvsv3P7SvJk6czycqwLaeW+cvWtMGaTvj8anSaPsyGCcT8VZ0xT+Edez7ljhcPSL2vaFstOyty86XrdJ4++ZKwkg0btJL6fwoblKZfKjmumrf346Ebd5BalPDOPd3efOl/VWm09vR0aLxqnnMvObdfmN6qcvtOpLO1yonPxqeY3q8aq/86o7UsFaDIR8p2cLYvlp8p0e62bd64susJb9Ua8plR09n8aRRtS/SLj1c9Gf1SPL9Q52rbKsjq6rESRR+lXo6i2OrKoVTZ+glcz2p/ODKV5VJLKWqellOJKvTSpXwMJ581LYM59WJR7SEberNJNz0WR+b2aqqdfxjWU6htu1t8em3z+JfZ7+di4uz888///qT+OXsp58H4sPJ+Ymeg9N01pYPjkrRRBKKOEwT6WB2m46DochSxFg48TBNXrxgrOFx2fbKz7OV2WmKa/3JJZLJLArE1IlieeqHTtJw1JS/lXbls33X2T6txixP0Z7J5pdQ5vjxv/Ddyz/dgM2/YKluqP5XvgoKHOAABzjAAQ5wgAMc4AAHOK8e59svuCiiSLqgAQ1oQAMa0IAGNKABDWhAA5pimm++Eqho1Ff8gAMc4AAHOMABDnCAAxzgAAc4/8WKh5/l7VRGTjKLpGicbqHm4f9UzcPfHTXiPsjsn+Pba08GiVBdpiofSneWtn9L7HVOX0kRxP5rKILYr60IYvboadUiTEx+ekx+dpj89Jn87DL52WPys8/k54DJz0p1gbUccY1om2tI21xj2uYa1DbXqLa5hrXNNa5troFtc43sLtfI7rLN1Vwju8s1srtGI1u/aN+Kq+pl+tZwQ7ZQ9VJ8a7gh4756ub013JAxX72k3hpuyHhfo2zeOn6YxjG9jK1RDG8dP0xDmV7D1ihxt44fptFML2BrFK5bZx5kGs/06rVGObp1/DCNZ3rpql5kbsXNGmXl1vFDNs8apePW8UOG+xrl4dbxQ4b7GiXg1vFDhvs6Zd7WcsQ1oukVbJ3ibWs54hrU9CK2Tkm2tRxxjWt6HVun0NpaMyPXyKaXsnXKp63liGtk06sZiqK9iqJoMMMMM8wwwwwzzDDDDDPMMMMMM8ww/y+Z5+3wTkaR58qPjvqgym53UBT/2ZWgKP7ThqL4RhuK4qMovsGGovh/3lAU/88biuIbbiiKj6L4L24oig8c4AAHOMABDnCAAxzgAAc4wHkNJSVBAxrQgAY0oAENaEADGtCA5vXQ/H9TyhI4wAEOcIADHOAABzjAAQ5wquv9F4riv/duZRB7YeDLOEZJ/P+tkvhh9FWcjEbe0JPBcP5UCL/eEvj50X+yPP//8vfFv0/e81+e/rkO3bn6d5Lc+n//P/8P11XqhA=="
               },
               {
                  "name" : "annual_peak_electric_demand",
                  "units" : "kW",
                  "value" : 667.80352000000005
               },
               {
                  "name" : "first_year_capital_cost",
                  "units" : "$",
                  "value" : 0
               },
               {
                  "name" : "annual_utility_cost",
                  "units" : "$",
                  "value" : 0
               },
               {
                  "name" : "total_lifecycle_cost",
                  "units" : "$",
                  "value" : 0
               }
            ],
            "step_warnings" : []
         }
      }
   ],
   "updated_at" : "20170710T192920Z",
   "weather_file" : "USA_CO_Denver.Intl.AP.725650_TMY3.epw"
}
