{
   "completed_at" : "20170710T194027Z",
   "completed_status" : "Success",
   "created_at" : "2017-07-10 19:35:06 +0000",
   "current_step" : 5,
   "description" : "",
   "eplusout_err" : "Program Version,EnergyPlus, Version 8.7.0-78a111df4a, YMD=2017.07.10 19:37,IDD_Version 8.7.0\n   ************* IDF Context for following error/warning message:\n   ************* Note -- lines truncated at 300 characters, if necessary...\n   *************      5 Building,\n   ************* indicated Name=NECB 2011-LargeHotel-NECB HDD Method-CAN_SK_North.Battleford.718760_CWEC.epw created: 2017-07-10 19:35:12 +0000\n   ************* Only last 1 lines before error line shown.....\n   *************      6   NECB 2011-LargeHotel-NECB HDD Method-CAN_SK_North.Battleford.718760_CWEC.epw created: 2017-07-10 19:35:12 +0000, !- Name\n   ** Warning ** IP: IDF line~6 Alpha Argument length exceeds maximum, will be truncated=  NECB 2011-LargeHotel-NECB HDD Method-CAN_SK_North.Battleford.718760_CWEC.epw created: 2017-07-10 19:35:12 +000\n   **   ~~~   ** Will be processed as Alpha=NECB 2011-LARGEHOTEL-NECB HDD METHOD-CAN_SK_NORTH.BATTLEFORD.718760_CWEC.EPW CREATED: 2017-07-10 19:35:12 +0000\n   ************* Beginning Zone Sizing Calculations\n   ** Warning ** ProcessScheduleInput: Schedule:Day:Interval=\"ECONOMIZER MAX OA FRACTION 100 PCT DEFAULT\", Blank Schedule Type Limits Name input -- will not be validated.\n   ** Warning ** ProcessScheduleInput: Schedule:Day:Interval=\"SCHEDULE DAY 1\", Blank Schedule Type Limits Name input -- will not be validated.\n   ** Warning ** ProcessScheduleInput: Schedule:Day:Interval=\"SCHEDULE DAY 10\", Blank Schedule Type Limits Name input -- will not be validated.\n   ** Warning ** ProcessScheduleInput: Schedule:Day:Interval=\"SCHEDULE DAY 11\", Blank Schedule Type Limits Name input -- will not be validated.\n   ** Warning ** ProcessScheduleInput: Schedule:Day:Interval=\"SCHEDULE DAY 12\", Blank Schedule Type Limits Name input -- will not be validated.\n   ** Warning ** ProcessScheduleInput: Schedule:Day:Interval=\"SCHEDULE DAY 13\", Blank Schedule Type Limits Name input -- will not be validated.\n   ** Warning ** ProcessScheduleInput: Schedule:Day:Interval=\"SCHEDULE DAY 14\", Blank Schedule Type Limits Name input -- will not be validated.\n   ** Warning ** ProcessScheduleInput: Schedule:Day:Interval=\"SCHEDULE DAY 15\", Blank Schedule Type Limits Name input -- will not be validated.\n   ** Warning ** ProcessScheduleInput: Schedule:Day:Interval=\"SCHEDULE DAY 16\", Blank Schedule Type Limits Name input -- will not be validated.\n   ** Warning ** ProcessScheduleInput: Schedule:Day:Interval=\"SCHEDULE DAY 17\", Blank Schedule Type Limits Name input -- will not be validated.\n   ** Warning ** ProcessScheduleInput: Schedule:Day:Interval=\"SCHEDULE DAY 18\", Blank Schedule Type Limits Name input -- will not be validated.\n   ** Warning ** ProcessScheduleInput: Schedule:Day:Interval=\"SCHEDULE DAY 19\", Blank Schedule Type Limits Name input -- will not be validated.\n   ** Warning ** ProcessScheduleInput: Schedule:Day:Interval=\"SCHEDULE DAY 2\", Blank Schedule Type Limits Name input -- will not be validated.\n   ** Warning ** ProcessScheduleInput: Schedule:Day:Interval=\"SCHEDULE DAY 20\", Blank Schedule Type Limits Name input -- will not be validated.\n   ** Warning ** ProcessScheduleInput: Schedule:Day:Interval=\"SCHEDULE DAY 21\", Blank Schedule Type Limits Name input -- will not be validated.\n   ** Warning ** ProcessScheduleInput: Schedule:Day:Interval=\"SCHEDULE DAY 22\", Blank Schedule Type Limits Name input -- will not be validated.\n   ** Warning ** ProcessScheduleInput: Schedule:Day:Interval=\"SCHEDULE DAY 23\", Blank Schedule Type Limits Name input -- will not be validated.\n   ** Warning ** ProcessScheduleInput: Schedule:Day:Interval=\"SCHEDULE DAY 24\", Blank Schedule Type Limits Name input -- will not be validated.\n   ** Warning ** ProcessScheduleInput: Schedule:Day:Interval=\"SCHEDULE DAY 25\", Blank Schedule Type Limits Name input -- will not be validated.\n   ** Warning ** ProcessScheduleInput: Schedule:Day:Interval=\"SCHEDULE DAY 26\", Blank Schedule Type Limits Name input -- will not be validated.\n   ** Warning ** ProcessScheduleInput: Schedule:Day:Interval=\"SCHEDULE DAY 27\", Blank Schedule Type Limits Name input -- will not be validated.\n   ** Warning ** ProcessScheduleInput: Schedule:Day:Interval=\"SCHEDULE DAY 28\", Blank Schedule Type Limits Name input -- will not be validated.\n   ** Warning ** ProcessScheduleInput: Schedule:Day:Interval=\"SCHEDULE DAY 29\", Blank Schedule Type Limits Name input -- will not be validated.\n   ** Warning ** ProcessScheduleInput: Schedule:Day:Interval=\"SCHEDULE DAY 30\", Blank Schedule Type Limits Name input -- will not be validated.\n   ** Warning ** ProcessScheduleInput: Schedule:Day:Interval=\"SCHEDULE DAY 31\", Blank Schedule Type Limits Name input -- will not be validated.\n   ** Warning ** ProcessScheduleInput: Schedule:Day:Interval=\"SCHEDULE DAY 32\", Blank Schedule Type Limits Name input -- will not be validated.\n   ** Warning ** ProcessScheduleInput: Schedule:Day:Interval=\"SCHEDULE DAY 33\", Blank Schedule Type Limits Name input -- will not be validated.\n   ** Warning ** ProcessScheduleInput: Schedule:Day:Interval=\"SCHEDULE DAY 34\", Blank Schedule Type Limits Name input -- will not be validated.\n   ** Warning ** ProcessScheduleInput: Schedule:Day:Interval=\"SCHEDULE DAY 35\", Blank Schedule Type Limits Name input -- will not be validated.\n   ** Warning ** ProcessScheduleInput: Schedule:Day:Interval=\"SCHEDULE DAY 36\", Blank Schedule Type Limits Name input -- will not be validated.\n   ** Warning ** ProcessScheduleInput: Schedule:Day:Interval=\"SCHEDULE DAY 37\", Blank Schedule Type Limits Name input -- will not be validated.\n   ** Warning ** ProcessScheduleInput: Schedule:Day:Interval=\"SCHEDULE DAY 38\", Blank Schedule Type Limits Name input -- will not be validated.\n   ** Warning ** ProcessScheduleInput: Schedule:Day:Interval=\"SCHEDULE DAY 39\", Blank Schedule Type Limits Name input -- will not be validated.\n   ** Warning ** ProcessScheduleInput: Schedule:Day:Interval=\"SCHEDULE DAY 40\", Blank Schedule Type Limits Name input -- will not be validated.\n   ** Warning ** ProcessScheduleInput: Schedule:Day:Interval=\"SCHEDULE DAY 41\", Blank Schedule Type Limits Name input -- will not be validated.\n   ** Warning ** ProcessScheduleInput: Schedule:Day:Interval=\"SCHEDULE DAY 42\", Blank Schedule Type Limits Name input -- will not be validated.\n   ** Warning ** ProcessScheduleInput: Schedule:Day:Interval=\"SCHEDULE DAY 43\", Blank Schedule Type Limits Name input -- will not be validated.\n   ** Warning ** ProcessScheduleInput: Schedule:Day:Interval=\"SCHEDULE DAY 44\", Blank Schedule Type Limits Name input -- will not be validated.\n   ** Warning ** ProcessScheduleInput: Schedule:Day:Interval=\"SCHEDULE DAY 45\", Blank Schedule Type Limits Name input -- will not be validated.\n   ** Warning ** ProcessScheduleInput: Schedule:Day:Interval=\"SCHEDULE DAY 46\", Blank Schedule Type Limits Name input -- will not be validated.\n   ** Warning ** ProcessScheduleInput: Schedule:Day:Interval=\"SCHEDULE DAY 47\", Blank Schedule Type Limits Name input -- will not be validated.\n   ** Warning ** ProcessScheduleInput: Schedule:Day:Interval=\"SCHEDULE DAY 48\", Blank Schedule Type Limits Name input -- will not be validated.\n   ** Warning ** ProcessScheduleInput: Schedule:Day:Interval=\"SCHEDULE DAY 49\", Blank Schedule Type Limits Name input -- will not be validated.\n   ** Warning ** ProcessScheduleInput: Schedule:Day:Interval=\"SCHEDULE DAY 50\", Blank Schedule Type Limits Name input -- will not be validated.\n   ** Warning ** ProcessScheduleInput: Schedule:Day:Interval=\"SCHEDULE DAY 51\", Blank Schedule Type Limits Name input -- will not be validated.\n   ** Warning ** ProcessScheduleInput: Schedule:Day:Interval=\"SCHEDULE DAY 52\", Blank Schedule Type Limits Name input -- will not be validated.\n   ** Warning ** ProcessScheduleInput: Schedule:Day:Interval=\"SCHEDULE DAY 53\", Blank Schedule Type Limits Name input -- will not be validated.\n   ** Warning ** ProcessScheduleInput: Schedule:Day:Interval=\"SCHEDULE DAY 54\", Blank Schedule Type Limits Name input -- will not be validated.\n   ** Warning ** ProcessScheduleInput: Schedule:Day:Interval=\"SCHEDULE DAY 55\", Blank Schedule Type Limits Name input -- will not be validated.\n   ** Warning ** ProcessScheduleInput: Schedule:Day:Interval=\"SCHEDULE DAY 56\", Blank Schedule Type Limits Name input -- will not be validated.\n   ** Warning ** ProcessScheduleInput: Schedule:Day:Interval=\"SCHEDULE DAY 57\", Blank Schedule Type Limits Name input -- will not be validated.\n   ** Warning ** ProcessScheduleInput: Schedule:Day:Interval=\"SCHEDULE DAY 58\", Blank Schedule Type Limits Name input -- will not be validated.\n   ** Warning ** ProcessScheduleInput: Schedule:Day:Interval=\"SCHEDULE DAY 59\", Blank Schedule Type Limits Name input -- will not be validated.\n   ** Warning ** ProcessScheduleInput: Schedule:Day:Interval=\"SCHEDULE DAY 60\", Blank Schedule Type Limits Name input -- will not be validated.\n   ** Warning ** ProcessScheduleInput: Schedule:Day:Interval=\"SCHEDULE DAY 61\", Blank Schedule Type Limits Name input -- will not be validated.\n   ** Warning ** ProcessScheduleInput: Schedule:Day:Interval=\"SCHEDULE DAY 62\", Blank Schedule Type Limits Name input -- will not be validated.\n   ** Warning ** ProcessScheduleInput: Schedule:Day:Interval=\"SCHEDULE DAY 63\", Blank Schedule Type Limits Name input -- will not be validated.\n   ** Warning ** ProcessScheduleInput: Schedule:Day:Interval=\"SCHEDULE DAY 64\", Blank Schedule Type Limits Name input -- will not be validated.\n   ** Warning ** ProcessScheduleInput: Schedule:Day:Interval=\"SCHEDULE DAY 65\", Blank Schedule Type Limits Name input -- will not be validated.\n   ** Warning ** ProcessScheduleInput: Schedule:Day:Interval=\"SCHEDULE DAY 66\", Blank Schedule Type Limits Name input -- will not be validated.\n   ** Warning ** ProcessScheduleInput: Schedule:Day:Interval=\"SCHEDULE DAY 67\", Blank Schedule Type Limits Name input -- will not be validated.\n   ** Warning ** ProcessScheduleInput: Schedule:Day:Interval=\"SCHEDULE DAY 68\", Blank Schedule Type Limits Name input -- will not be validated.\n   ** Warning ** ProcessScheduleInput: Schedule:Day:Interval=\"SCHEDULE DAY 69\", Blank Schedule Type Limits Name input -- will not be validated.\n   ** Warning ** ProcessScheduleInput: Schedule:Day:Interval=\"SCHEDULE DAY 70\", Blank Schedule Type Limits Name input -- will not be validated.\n   ** Warning ** ProcessScheduleInput: Schedule:Day:Interval=\"SCHEDULE DAY 71\", Blank Schedule Type Limits Name input -- will not be validated.\n   ** Warning ** ProcessScheduleInput: Schedule:Day:Interval=\"SCHEDULE DAY 72\", Blank Schedule Type Limits Name input -- will not be validated.\n   ** Warning ** ProcessScheduleInput: Schedule:Day:Interval=\"SCHEDULE DAY 73\", Blank Schedule Type Limits Name input -- will not be validated.\n   ** Warning ** ProcessScheduleInput: Schedule:Day:Interval=\"SCHEDULE DAY 74\", Blank Schedule Type Limits Name input -- will not be validated.\n   ** Warning ** ProcessScheduleInput: Schedule:Day:Interval=\"SCHEDULE DAY 75\", Blank Schedule Type Limits Name input -- will not be validated.\n   ** Warning ** ProcessScheduleInput: Schedule:Day:Interval=\"SCHEDULE DAY 76\", Blank Schedule Type Limits Name input -- will not be validated.\n   ** Warning ** ProcessScheduleInput: Schedule:Day:Interval=\"SCHEDULE DAY 77\", Blank Schedule Type Limits Name input -- will not be validated.\n   ** Warning ** ProcessScheduleInput: Schedule:Day:Interval=\"SCHEDULE DAY 78\", Blank Schedule Type Limits Name input -- will not be validated.\n   ** Warning ** ProcessScheduleInput: Schedule:Day:Interval=\"SCHEDULE DAY 8\", Blank Schedule Type Limits Name input -- will not be validated.\n   ** Warning ** ProcessScheduleInput: Schedule:Day:Interval=\"SCHEDULE DAY 9\", Blank Schedule Type Limits Name input -- will not be validated.\n   ** Warning ** ProcessScheduleInput: Schedule:Year=\"ECONOMIZER MAX OA FRACTION 100 PCT\", Blank Schedule Type Limits Name input -- will not be validated.\n   ** Warning ** ProcessScheduleInput: Schedule:Year=\"SCHEDULE RULESET 10\", Blank Schedule Type Limits Name input -- will not be validated.\n   ** Warning ** ProcessScheduleInput: Schedule:Year=\"SCHEDULE RULESET 11\", Blank Schedule Type Limits Name input -- will not be validated.\n   ** Warning ** ProcessScheduleInput: Schedule:Year=\"SCHEDULE RULESET 12\", Blank Schedule Type Limits Name input -- will not be validated.\n   ** Warning ** ProcessScheduleInput: Schedule:Year=\"SCHEDULE RULESET 13\", Blank Schedule Type Limits Name input -- will not be validated.\n   ** Warning ** ProcessScheduleInput: Schedule:Year=\"SCHEDULE RULESET 14\", Blank Schedule Type Limits Name input -- will not be validated.\n   ** Warning ** ProcessScheduleInput: Schedule:Year=\"SCHEDULE RULESET 15\", Blank Schedule Type Limits Name input -- will not be validated.\n   ** Warning ** ProcessScheduleInput: Schedule:Year=\"SCHEDULE RULESET 16\", Blank Schedule Type Limits Name input -- will not be validated.\n   ** Warning ** ProcessScheduleInput: Schedule:Year=\"SCHEDULE RULESET 17\", Blank Schedule Type Limits Name input -- will not be validated.\n   ** Warning ** ProcessScheduleInput: Schedule:Year=\"SCHEDULE RULESET 18\", Blank Schedule Type Limits Name input -- will not be validated.\n   ** Warning ** ProcessScheduleInput: Schedule:Year=\"SCHEDULE RULESET 19\", Blank Schedule Type Limits Name input -- will not be validated.\n   ** Warning ** ProcessScheduleInput: Schedule:Year=\"SCHEDULE RULESET 20\", Blank Schedule Type Limits Name input -- will not be validated.\n   ** Warning ** ProcessScheduleInput: Schedule:Year=\"SCHEDULE RULESET 21\", Blank Schedule Type Limits Name input -- will not be validated.\n   ** Warning ** ProcessScheduleInput: Schedule:Year=\"SCHEDULE RULESET 22\", Blank Schedule Type Limits Name input -- will not be validated.\n   ** Warning ** ProcessScheduleInput: Schedule:Year=\"SCHEDULE RULESET 23\", Blank Schedule Type Limits Name input -- will not be validated.\n   ** Warning ** ProcessScheduleInput: Schedule:Year=\"SCHEDULE RULESET 24\", Blank Schedule Type Limits Name input -- will not be validated.\n   ** Warning ** ProcessScheduleInput: Schedule:Year=\"SCHEDULE RULESET 25\", Blank Schedule Type Limits Name input -- will not be validated.\n   ** Warning ** ProcessScheduleInput: Schedule:Year=\"SCHEDULE RULESET 26\", Blank Schedule Type Limits Name input -- will not be validated.\n   ** Warning ** ProcessScheduleInput: Schedule:Year=\"SCHEDULE RULESET 27\", Blank Schedule Type Limits Name input -- will not be validated.\n   ** Warning ** ProcessScheduleInput: Schedule:Year=\"SCHEDULE RULESET 28\", Blank Schedule Type Limits Name input -- will not be validated.\n   ** Warning ** ProcessScheduleInput: Schedule:Year=\"SCHEDULE RULESET 29\", Blank Schedule Type Limits Name input -- will not be validated.\n   ** Warning ** ProcessScheduleInput: Schedule:Year=\"SCHEDULE RULESET 3\", Blank Schedule Type Limits Name input -- will not be validated.\n   ** Warning ** ProcessScheduleInput: Schedule:Year=\"SCHEDULE RULESET 30\", Blank Schedule Type Limits Name input -- will not be validated.\n   ** Warning ** ProcessScheduleInput: Schedule:Year=\"SCHEDULE RULESET 31\", Blank Schedule Type Limits Name input -- will not be validated.\n   ** Warning ** ProcessScheduleInput: Schedule:Year=\"SCHEDULE RULESET 32\", Blank Schedule Type Limits Name input -- will not be validated.\n   ** Warning ** ProcessScheduleInput: Schedule:Year=\"SCHEDULE RULESET 33\", Blank Schedule Type Limits Name input -- will not be validated.\n   ** Warning ** ProcessScheduleInput: Schedule:Year=\"SCHEDULE RULESET 34\", Blank Schedule Type Limits Name input -- will not be validated.\n   ** Warning ** ProcessScheduleInput: Schedule:Year=\"SCHEDULE RULESET 35\", Blank Schedule Type Limits Name input -- will not be validated.\n   ** Warning ** ProcessScheduleInput: Schedule:Year=\"SCHEDULE RULESET 36\", Blank Schedule Type Limits Name input -- will not be validated.\n   ** Warning ** ProcessScheduleInput: Schedule:Year=\"SCHEDULE RULESET 37\", Blank Schedule Type Limits Name input -- will not be validated.\n   ** Warning ** ProcessScheduleInput: Schedule:Year=\"SCHEDULE RULESET 38\", Blank Schedule Type Limits Name input -- will not be validated.\n   ** Warning ** ProcessScheduleInput: Schedule:Year=\"SCHEDULE RULESET 39\", Blank Schedule Type Limits Name input -- will not be validated.\n   ** Warning ** ProcessScheduleInput: Schedule:Year=\"SCHEDULE RULESET 4\", Blank Schedule Type Limits Name input -- will not be validated.\n   ** Warning ** ProcessScheduleInput: Schedule:Year=\"SCHEDULE RULESET 40\", Blank Schedule Type Limits Name input -- will not be validated.\n   ** Warning ** ProcessScheduleInput: Schedule:Year=\"SCHEDULE RULESET 41\", Blank Schedule Type Limits Name input -- will not be validated.\n   ** Warning ** ProcessScheduleInput: Schedule:Year=\"SCHEDULE RULESET 42\", Blank Schedule Type Limits Name input -- will not be validated.\n   ** Warning ** ProcessScheduleInput: Schedule:Year=\"SCHEDULE RULESET 43\", Blank Schedule Type Limits Name input -- will not be validated.\n   ** Warning ** ProcessScheduleInput: Schedule:Year=\"SCHEDULE RULESET 44\", Blank Schedule Type Limits Name input -- will not be validated.\n   ** Warning ** ProcessScheduleInput: Schedule:Year=\"SCHEDULE RULESET 45\", Blank Schedule Type Limits Name input -- will not be validated.\n   ** Warning ** ProcessScheduleInput: Schedule:Year=\"SCHEDULE RULESET 46\", Blank Schedule Type Limits Name input -- will not be validated.\n   ** Warning ** ProcessScheduleInput: Schedule:Year=\"SCHEDULE RULESET 47\", Blank Schedule Type Limits Name input -- will not be validated.\n   ** Warning ** ProcessScheduleInput: Schedule:Year=\"SCHEDULE RULESET 48\", Blank Schedule Type Limits Name input -- will not be validated.\n   ** Warning ** ProcessScheduleInput: Schedule:Year=\"SCHEDULE RULESET 49\", Blank Schedule Type Limits Name input -- will not be validated.\n   ** Warning ** ProcessScheduleInput: Schedule:Year=\"SCHEDULE RULESET 5\", Blank Schedule Type Limits Name input -- will not be validated.\n   ** Warning ** ProcessScheduleInput: Schedule:Year=\"SCHEDULE RULESET 50\", Blank Schedule Type Limits Name input -- will not be validated.\n   ** Warning ** ProcessScheduleInput: Schedule:Year=\"SCHEDULE RULESET 51\", Blank Schedule Type Limits Name input -- will not be validated.\n   ** Warning ** ProcessScheduleInput: Schedule:Year=\"SCHEDULE RULESET 52\", Blank Schedule Type Limits Name input -- will not be validated.\n   ** Warning ** ProcessScheduleInput: Schedule:Year=\"SCHEDULE RULESET 53\", Blank Schedule Type Limits Name input -- will not be validated.\n   ** Warning ** ProcessScheduleInput: Schedule:Year=\"SCHEDULE RULESET 54\", Blank Schedule Type Limits Name input -- will not be validated.\n   ** Warning ** ProcessScheduleInput: Schedule:Year=\"SCHEDULE RULESET 55\", Blank Schedule Type Limits Name input -- will not be validated.\n   ** Warning ** ProcessScheduleInput: Schedule:Year=\"SCHEDULE RULESET 56\", Blank Schedule Type Limits Name input -- will not be validated.\n   ** Warning ** ProcessScheduleInput: Schedule:Year=\"SCHEDULE RULESET 57\", Blank Schedule Type Limits Name input -- will not be validated.\n   ** Warning ** ProcessScheduleInput: Schedule:Year=\"SCHEDULE RULESET 58\", Blank Schedule Type Limits Name input -- will not be validated.\n   ** Warning ** ProcessScheduleInput: Schedule:Year=\"SCHEDULE RULESET 59\", Blank Schedule Type Limits Name input -- will not be validated.\n   ** Warning ** ProcessScheduleInput: Schedule:Year=\"SCHEDULE RULESET 6\", Blank Schedule Type Limits Name input -- will not be validated.\n   ** Warning ** ProcessScheduleInput: Schedule:Year=\"SCHEDULE RULESET 7\", Blank Schedule Type Limits Name input -- will not be validated.\n   ** Warning ** ProcessScheduleInput: Schedule:Year=\"SCHEDULE RULESET 8\", Blank Schedule Type Limits Name input -- will not be validated.\n   ** Warning ** ProcessScheduleInput: Schedule:Year=\"SCHEDULE RULESET 9\", Blank Schedule Type Limits Name input -- will not be validated.\n   ** Warning ** ProcessScheduleInput: Schedule:Constant=\"ALWAYS OFF DISCRETE\", Blank Schedule Type Limits Name input -- will not be validated.\n   ** Warning ** ProcessScheduleInput: Schedule:Constant=\"ALWAYS ON CONTINUOUS\", Blank Schedule Type Limits Name input -- will not be validated.\n   ** Warning ** CheckUsedConstructions: There are 23 nominally unused constructions in input.\n   **   ~~~   ** For explicit details on each unused construction, use Output:Diagnostics,DisplayExtraWarnings;\n   ** Warning ** GetInternalHeatGains: ElectricEquipment Combination of ZoneList and Object Name generate a name too long.\n   **   ~~~   ** Object Name=\"SPACE FUNCTION HOSPITAL - LAUNDRY/WASHING ELEC EQUIP\".\n   **   ~~~   ** ZoneList/Zone Name=\"SP-LAUNDRY_FLR_1 SYS-3 FLR-1 SCH-C HPLCMT-EAST ZN\".\n   **   ~~~   ** Item length=[101] > Maximum Length=[100]. You may need to shorten the names.\n   **   ~~~   ** Shortening the Object Name by [2] characters will assure uniqueness for this ZoneList.\n   **   ~~~   ** name that will be used (may be needed in reporting)=\"SP-LAUNDRY_FLR_1 SYS-3 FLR-1 SCH-C HPLCMT-EAST ZN SPACE FUNCTION HOSPITAL - LAUNDRY/WASHING ELEC EQUIP\".\n   ** Warning ** GetInternalHeatGains: ElectricEquipment Combination of ZoneList and Object Name generate a name too long.\n   **   ~~~   ** Object Name=\"SPACE FUNCTION HOTEL/MOTEL - ROOMS ELEC EQUIP\".\n   **   ~~~   ** ZoneList/Zone Name=\"SP-ROOM_3_MULT19_FLR_3 SYS-1 FLR-2 SCH-F HPLCMT-SOUTH ZN\".\n   **   ~~~   ** Item length=[101] > Maximum Length=[100]. You may need to shorten the names.\n   **   ~~~   ** Shortening the Object Name by [2] characters will assure uniqueness for this ZoneList.\n   **   ~~~   ** name that will be used (may be needed in reporting)=\"SP-ROOM_3_MULT19_FLR_3 SYS-1 FLR-2 SCH-F HPLCMT-SOUTH ZN SPACE FUNCTION HOTEL/MOTEL - ROOMS ELEC EQUIP\".\n   ** Warning ** GetInternalHeatGains: ElectricEquipment Combination of ZoneList and Object Name generate a name too long.\n   **   ~~~   ** Object Name=\"SPACE FUNCTION HOTEL/MOTEL - ROOMS ELEC EQUIP\".\n   **   ~~~   ** ZoneList/Zone Name=\"SP-ROOM_4_MULT19_FLR_3 SYS-1 FLR-2 SCH-F HPLCMT-NORTH ZN\".\n   **   ~~~   ** Item length=[101] > Maximum Length=[100]. You may need to shorten the names.\n   **   ~~~   ** Shortening the Object Name by [2] characters will assure uniqueness for this ZoneList.\n   **   ~~~   ** name that will be used (may be needed in reporting)=\"SP-ROOM_4_MULT19_FLR_3 SYS-1 FLR-2 SCH-F HPLCMT-NORTH ZN SPACE FUNCTION HOTEL/MOTEL - ROOMS ELEC EQUIP\".\n   ** Warning ** Calculated design heating load for zone=SP-BASEMENT SYS-4 FLR-3 SCH-E HPLCMT-NORTH ZN is zero.\n   **   ~~~   ** Check Sizing:Zone and ZoneControl:Thermostat inputs.\n   ** Warning ** Calculated design heating load for zone=SP-LOBBY_FLR_1 SYS-6 FLR-1 SCH-H HPLCMT-NORTH ZN is zero.\n   **   ~~~   ** Check Sizing:Zone and ZoneControl:Thermostat inputs.\n   ************* Beginning System Sizing Calculations\n   ** Warning ** Since Zone Minimum Air Flow Input Method = CONSTANT, input for Fixed Minimum Air Flow Rate will be ignored.\n   **   ~~~   ** Occurs in AirTerminal:SingleDuct:VAV:Reheat = AIR TERMINAL SINGLE DUCT VAV REHEAT 5\n   ** Warning ** Since Zone Minimum Air Flow Input Method = CONSTANT, input for Fixed Minimum Air Flow Rate will be ignored.\n   **   ~~~   ** Occurs in AirTerminal:SingleDuct:VAV:Reheat = AIR TERMINAL SINGLE DUCT VAV REHEAT 3\n   ** Warning ** Since Zone Minimum Air Flow Input Method = CONSTANT, input for Fixed Minimum Air Flow Rate will be ignored.\n   **   ~~~   ** Occurs in AirTerminal:SingleDuct:VAV:Reheat = AIR TERMINAL SINGLE DUCT VAV REHEAT 2\n   ** Warning ** Since Zone Minimum Air Flow Input Method = CONSTANT, input for Fixed Minimum Air Flow Rate will be ignored.\n   **   ~~~   ** Occurs in AirTerminal:SingleDuct:VAV:Reheat = AIR TERMINAL SINGLE DUCT VAV REHEAT 4\n   ** Warning ** Since Zone Minimum Air Flow Input Method = CONSTANT, input for Fixed Minimum Air Flow Rate will be ignored.\n   **   ~~~   ** Occurs in AirTerminal:SingleDuct:VAV:Reheat = AIR TERMINAL SINGLE DUCT VAV REHEAT 1\n   ** Warning ** GetDXCoils: Coil:Cooling:DX:SingleSpeed=\"COIL COOLING DX SINGLE SPEED 8 48KBTU/HR 9.3EER\", invalid\n   **   ~~~   ** ...Part Load Fraction Correlation Curve Name = DXCOOL-NECB2011-REF-COOLPLFFPLR 16 has out of range value.\n   **   ~~~   ** ...Curve maximum must be <= 1.0, curve max at PLR = 0.99 is 1.015\n   **   ~~~   ** ...Setting curve maximum to 1.0 and simulation continues.\n   ** Warning ** GetDXCoils: Coil:Cooling:DX:SingleSpeed=\"COIL COOLING DX SINGLE SPEED 5 18KBTU/HR 9.3EER\", invalid\n   **   ~~~   ** ...Part Load Fraction Correlation Curve Name = DXCOOL-NECB2011-REF-COOLPLFFPLR 13 has out of range value.\n   **   ~~~   ** ...Curve maximum must be <= 1.0, curve max at PLR = 0.99 is 1.015\n   **   ~~~   ** ...Setting curve maximum to 1.0 and simulation continues.\n   ** Warning ** GetDXCoils: Coil:Cooling:DX:SingleSpeed=\"COIL COOLING DX SINGLE SPEED 9 20KBTU/HR 9.3EER\", invalid\n   **   ~~~   ** ...Part Load Fraction Correlation Curve Name = DXCOOL-NECB2011-REF-COOLPLFFPLR 17 has out of range value.\n   **   ~~~   ** ...Curve maximum must be <= 1.0, curve max at PLR = 0.99 is 1.015\n   **   ~~~   ** ...Setting curve maximum to 1.0 and simulation continues.\n   ** Warning ** GetDXCoils: Coil:Cooling:DX:SingleSpeed=\"COIL COOLING DX SINGLE SPEED 6 17KBTU/HR 9.3EER\", invalid\n   **   ~~~   ** ...Part Load Fraction Correlation Curve Name = DXCOOL-NECB2011-REF-COOLPLFFPLR 14 has out of range value.\n   **   ~~~   ** ...Curve maximum must be <= 1.0, curve max at PLR = 0.99 is 1.015\n   **   ~~~   ** ...Setting curve maximum to 1.0 and simulation continues.\n   ** Warning ** GetDXCoils: Coil:Cooling:DX:SingleSpeed=\"COIL COOLING DX SINGLE SPEED 10 20KBTU/HR 9.3EER\", invalid\n   **   ~~~   ** ...Part Load Fraction Correlation Curve Name = DXCOOL-NECB2011-REF-COOLPLFFPLR 1 has out of range value.\n   **   ~~~   ** ...Curve maximum must be <= 1.0, curve max at PLR = 0.99 is 1.015\n   **   ~~~   ** ...Setting curve maximum to 1.0 and simulation continues.\n   ** Warning ** GetDXCoils: Coil:Cooling:DX:SingleSpeed=\"COIL COOLING DX SINGLE SPEED 7 5KBTU/HR 11.0EER\", invalid\n   **   ~~~   ** ...Part Load Fraction Correlation Curve Name = DXCOOL-NECB2011-REF-COOLPLFFPLR 15 has out of range value.\n   **   ~~~   ** ...Curve maximum must be <= 1.0, curve max at PLR = 0.99 is 1.015\n   **   ~~~   ** ...Setting curve maximum to 1.0 and simulation continues.\n   ** Warning ** GetDXCoils: Coil:Cooling:DX:SingleSpeed=\"COIL COOLING DX SINGLE SPEED 11 10KBTU/HR 10.3EER\", invalid\n   **   ~~~   ** ...Part Load Fraction Correlation Curve Name = DXCOOL-NECB2011-REF-COOLPLFFPLR 2 has out of range value.\n   **   ~~~   ** ...Curve maximum must be <= 1.0, curve max at PLR = 0.99 is 1.015\n   **   ~~~   ** ...Setting curve maximum to 1.0 and simulation continues.\n   ** Warning ** GetDXCoils: Coil:Cooling:DX:SingleSpeed=\"COIL COOLING DX SINGLE SPEED 2 3KBTU/HR 11.0EER\", invalid\n   **   ~~~   ** ...Part Load Fraction Correlation Curve Name = DXCOOL-NECB2011-REF-COOLPLFFPLR 10 has out of range value.\n   **   ~~~   ** ...Curve maximum must be <= 1.0, curve max at PLR = 0.99 is 1.015\n   **   ~~~   ** ...Setting curve maximum to 1.0 and simulation continues.\n   ** Warning ** GetDXCoils: Coil:Cooling:DX:SingleSpeed=\"COIL COOLING DX SINGLE SPEED 4 17KBTU/HR 9.3EER\", invalid\n   **   ~~~   ** ...Part Load Fraction Correlation Curve Name = DXCOOL-NECB2011-REF-COOLPLFFPLR 12 has out of range value.\n   **   ~~~   ** ...Curve maximum must be <= 1.0, curve max at PLR = 0.99 is 1.015\n   **   ~~~   ** ...Setting curve maximum to 1.0 and simulation continues.\n   ** Warning ** GetDXCoils: Coil:Cooling:DX:SingleSpeed=\"COIL COOLING DX SINGLE SPEED 3 17KBTU/HR 9.3EER\", invalid\n   **   ~~~   ** ...Part Load Fraction Correlation Curve Name = DXCOOL-NECB2011-REF-COOLPLFFPLR 11 has out of range value.\n   **   ~~~   ** ...Curve maximum must be <= 1.0, curve max at PLR = 0.99 is 1.015\n   **   ~~~   ** ...Setting curve maximum to 1.0 and simulation continues.\n   ** Warning ** GetDXCoils: Coil:Cooling:DX:SingleSpeed=\"COIL COOLING DX SINGLE SPEED 1 185KBTU/HR 9.7EER\", invalid\n   **   ~~~   ** ...Part Load Fraction Correlation Curve Name = DXCOOL-NECB2011-REF-COOLPLFFPLR has out of range value.\n   **   ~~~   ** ...Curve maximum must be <= 1.0, curve max at PLR = 0.99 is 1.015\n   **   ~~~   ** ...Setting curve maximum to 1.0 and simulation continues.\n   ** Warning ** GetDXCoils: Coil:Cooling:DX:SingleSpeed=\"COIL COOLING DX SINGLE SPEED 14 81KBTU/HR 9.7EER\", invalid\n   **   ~~~   ** ...Part Load Fraction Correlation Curve Name = DXCOOL-NECB2011-REF-COOLPLFFPLR 5 has out of range value.\n   **   ~~~   ** ...Curve maximum must be <= 1.0, curve max at PLR = 0.99 is 1.015\n   **   ~~~   ** ...Setting curve maximum to 1.0 and simulation continues.\n   ** Warning ** GetDXCoils: Coil:Cooling:DX:SingleSpeed=\"COIL COOLING DX SINGLE SPEED 18 77KBTU/HR 9.7EER\", invalid\n   **   ~~~   ** ...Part Load Fraction Correlation Curve Name = DXCOOL-NECB2011-REF-COOLPLFFPLR 9 has out of range value.\n   **   ~~~   ** ...Curve maximum must be <= 1.0, curve max at PLR = 0.99 is 1.015\n   **   ~~~   ** ...Setting curve maximum to 1.0 and simulation continues.\n   ** Warning ** GetDXCoils: Coil:Cooling:DX:SingleSpeed=\"COIL COOLING DX SINGLE SPEED 13 62KBTU/HR 14.0SEER\", invalid\n   **   ~~~   ** ...Part Load Fraction Correlation Curve Name = DXCOOL-NECB2011-REF-COOLPLFFPLR 4 has out of range value.\n   **   ~~~   ** ...Curve maximum must be <= 1.0, curve max at PLR = 0.99 is 1.015\n   **   ~~~   ** ...Setting curve maximum to 1.0 and simulation continues.\n   ** Warning ** GetDXCoils: Coil:Cooling:DX:SingleSpeed=\"COIL COOLING DX SINGLE SPEED 15 81KBTU/HR 9.7EER\", invalid\n   **   ~~~   ** ...Part Load Fraction Correlation Curve Name = DXCOOL-NECB2011-REF-COOLPLFFPLR 6 has out of range value.\n   **   ~~~   ** ...Curve maximum must be <= 1.0, curve max at PLR = 0.99 is 1.015\n   **   ~~~   ** ...Setting curve maximum to 1.0 and simulation continues.\n   ** Warning ** GetDXCoils: Coil:Cooling:DX:SingleSpeed=\"COIL COOLING DX SINGLE SPEED 16 38KBTU/HR 14.0SEER\", invalid\n   **   ~~~   ** ...Part Load Fraction Correlation Curve Name = DXCOOL-NECB2011-REF-COOLPLFFPLR 7 has out of range value.\n   **   ~~~   ** ...Curve maximum must be <= 1.0, curve max at PLR = 0.99 is 1.015\n   **   ~~~   ** ...Setting curve maximum to 1.0 and simulation continues.\n   ** Warning ** GetDXCoils: Coil:Cooling:DX:SingleSpeed=\"COIL COOLING DX SINGLE SPEED 12 15KBTU/HR 14.0SEER\", invalid\n   **   ~~~   ** ...Part Load Fraction Correlation Curve Name = DXCOOL-NECB2011-REF-COOLPLFFPLR 3 has out of range value.\n   **   ~~~   ** ...Curve maximum must be <= 1.0, curve max at PLR = 0.99 is 1.015\n   **   ~~~   ** ...Setting curve maximum to 1.0 and simulation continues.\n   ** Warning ** GetDXCoils: Coil:Cooling:DX:SingleSpeed=\"COIL COOLING DX SINGLE SPEED 17 6KBTU/HR 14.0SEER\", invalid\n   **   ~~~   ** ...Part Load Fraction Correlation Curve Name = DXCOOL-NECB2011-REF-COOLPLFFPLR 8 has out of range value.\n   **   ~~~   ** ...Curve maximum must be <= 1.0, curve max at PLR = 0.99 is 1.015\n   **   ~~~   ** ...Setting curve maximum to 1.0 and simulation continues.\n   ************* Beginning Plant Sizing Calculations\n   ** Warning ** The Standard Ratings is calculated for Coil:Cooling:DX:SingleSpeed = COIL COOLING DX SINGLE SPEED 8 48KBTU/HR 9.3EER but not at the AHRI test condition due to curve out of bound.\n   **   ~~~   **  Review the Standard Ratings calculations in the Engineering Reference for this coil type. Also, use Output:Diagnostics, DisplayExtraWarnings for further guidance.\n   ** Warning ** The Standard Ratings is calculated for Coil:Cooling:DX:SingleSpeed = COIL COOLING DX SINGLE SPEED 5 18KBTU/HR 9.3EER but not at the AHRI test condition due to curve out of bound.\n   **   ~~~   **  Review the Standard Ratings calculations in the Engineering Reference for this coil type. Also, use Output:Diagnostics, DisplayExtraWarnings for further guidance.\n   ** Warning ** The Standard Ratings is calculated for Coil:Cooling:DX:SingleSpeed = COIL COOLING DX SINGLE SPEED 9 20KBTU/HR 9.3EER but not at the AHRI test condition due to curve out of bound.\n   **   ~~~   **  Review the Standard Ratings calculations in the Engineering Reference for this coil type. Also, use Output:Diagnostics, DisplayExtraWarnings for further guidance.\n   ** Warning ** The Standard Ratings is calculated for Coil:Cooling:DX:SingleSpeed = COIL COOLING DX SINGLE SPEED 6 17KBTU/HR 9.3EER but not at the AHRI test condition due to curve out of bound.\n   **   ~~~   **  Review the Standard Ratings calculations in the Engineering Reference for this coil type. Also, use Output:Diagnostics, DisplayExtraWarnings for further guidance.\n   ** Warning ** The Standard Ratings is calculated for Coil:Cooling:DX:SingleSpeed = COIL COOLING DX SINGLE SPEED 10 20KBTU/HR 9.3EER but not at the AHRI test condition due to curve out of bound.\n   **   ~~~   **  Review the Standard Ratings calculations in the Engineering Reference for this coil type. Also, use Output:Diagnostics, DisplayExtraWarnings for further guidance.\n   ** Warning ** The Standard Ratings is calculated for Coil:Cooling:DX:SingleSpeed = COIL COOLING DX SINGLE SPEED 7 5KBTU/HR 11.0EER but not at the AHRI test condition due to curve out of bound.\n   **   ~~~   **  Review the Standard Ratings calculations in the Engineering Reference for this coil type. Also, use Output:Diagnostics, DisplayExtraWarnings for further guidance.\n   ** Warning ** The Standard Ratings is calculated for Coil:Cooling:DX:SingleSpeed = COIL COOLING DX SINGLE SPEED 11 10KBTU/HR 10.3EER but not at the AHRI test condition due to curve out of bound.\n   **   ~~~   **  Review the Standard Ratings calculations in the Engineering Reference for this coil type. Also, use Output:Diagnostics, DisplayExtraWarnings for further guidance.\n   ** Warning ** The Standard Ratings is calculated for Coil:Cooling:DX:SingleSpeed = COIL COOLING DX SINGLE SPEED 2 3KBTU/HR 11.0EER but not at the AHRI test condition due to curve out of bound.\n   **   ~~~   **  Review the Standard Ratings calculations in the Engineering Reference for this coil type. Also, use Output:Diagnostics, DisplayExtraWarnings for further guidance.\n   ** Warning ** The Standard Ratings is calculated for Coil:Cooling:DX:SingleSpeed = COIL COOLING DX SINGLE SPEED 4 17KBTU/HR 9.3EER but not at the AHRI test condition due to curve out of bound.\n   **   ~~~   **  Review the Standard Ratings calculations in the Engineering Reference for this coil type. Also, use Output:Diagnostics, DisplayExtraWarnings for further guidance.\n   ** Warning ** The Standard Ratings is calculated for Coil:Cooling:DX:SingleSpeed = COIL COOLING DX SINGLE SPEED 3 17KBTU/HR 9.3EER but not at the AHRI test condition due to curve out of bound.\n   **   ~~~   **  Review the Standard Ratings calculations in the Engineering Reference for this coil type. Also, use Output:Diagnostics, DisplayExtraWarnings for further guidance.\n   ** Warning ** The Standard Ratings is calculated for Coil:Cooling:DX:SingleSpeed = COIL COOLING DX SINGLE SPEED 1 185KBTU/HR 9.7EER but not at the AHRI test condition due to curve out of bound.\n   **   ~~~   **  Review the Standard Ratings calculations in the Engineering Reference for this coil type. Also, use Output:Diagnostics, DisplayExtraWarnings for further guidance.\n   ** Warning ** The Standard Ratings is calculated for Coil:Cooling:DX:SingleSpeed = COIL COOLING DX SINGLE SPEED 14 81KBTU/HR 9.7EER but not at the AHRI test condition due to curve out of bound.\n   **   ~~~   **  Review the Standard Ratings calculations in the Engineering Reference for this coil type. Also, use Output:Diagnostics, DisplayExtraWarnings for further guidance.\n   ** Warning ** The Standard Ratings is calculated for Coil:Cooling:DX:SingleSpeed = COIL COOLING DX SINGLE SPEED 18 77KBTU/HR 9.7EER but not at the AHRI test condition due to curve out of bound.\n   **   ~~~   **  Review the Standard Ratings calculations in the Engineering Reference for this coil type. Also, use Output:Diagnostics, DisplayExtraWarnings for further guidance.\n   ** Warning ** The Standard Ratings is calculated for Coil:Cooling:DX:SingleSpeed = COIL COOLING DX SINGLE SPEED 13 62KBTU/HR 14.0SEER but not at the AHRI test condition due to curve out of bound.\n   **   ~~~   **  Review the Standard Ratings calculations in the Engineering Reference for this coil type. Also, use Output:Diagnostics, DisplayExtraWarnings for further guidance.\n   ** Warning ** The Standard Ratings is calculated for Coil:Cooling:DX:SingleSpeed = COIL COOLING DX SINGLE SPEED 15 81KBTU/HR 9.7EER but not at the AHRI test condition due to curve out of bound.\n   **   ~~~   **  Review the Standard Ratings calculations in the Engineering Reference for this coil type. Also, use Output:Diagnostics, DisplayExtraWarnings for further guidance.\n   ** Warning ** The Standard Ratings is calculated for Coil:Cooling:DX:SingleSpeed = COIL COOLING DX SINGLE SPEED 16 38KBTU/HR 14.0SEER but not at the AHRI test condition due to curve out of bound.\n   **   ~~~   **  Review the Standard Ratings calculations in the Engineering Reference for this coil type. Also, use Output:Diagnostics, DisplayExtraWarnings for further guidance.\n   ** Warning ** The Standard Ratings is calculated for Coil:Cooling:DX:SingleSpeed = COIL COOLING DX SINGLE SPEED 12 15KBTU/HR 14.0SEER but not at the AHRI test condition due to curve out of bound.\n   **   ~~~   **  Review the Standard Ratings calculations in the Engineering Reference for this coil type. Also, use Output:Diagnostics, DisplayExtraWarnings for further guidance.\n   ** Warning ** The Standard Ratings is calculated for Coil:Cooling:DX:SingleSpeed = COIL COOLING DX SINGLE SPEED 17 6KBTU/HR 14.0SEER but not at the AHRI test condition due to curve out of bound.\n   **   ~~~   **  Review the Standard Ratings calculations in the Engineering Reference for this coil type. Also, use Output:Diagnostics, DisplayExtraWarnings for further guidance.\n   ** Warning ** Missing temperature setpoint for LeavingSetpointModulated mode chiller named PRIMARY CHILLER WATERCOOLED SCROLL 31TONS 0.8KW/TON\n   **   ~~~   **   A temperature setpoint is needed at the outlet node of a chiller in variable flow mode, use a SetpointManager\n   **   ~~~   **   The overall loop setpoint will be assumed for chiller. The simulation continues ... \n   ** Warning ** Missing temperature setpoint for LeavingSetpointModulated mode chiller named SECONDARY CHILLER WATERCOOLED SCROLL 0TONS 0.8KW/TON\n   **   ~~~   **   A temperature setpoint is needed at the outlet node of a chiller in variable flow mode, use a SetpointManager\n   **   ~~~   **   The overall loop setpoint will be assumed for chiller. The simulation continues ... \n   ** Warning ** Missing temperature setpoint for LeavingSetpointModulated mode Boiler named PRIMARY BOILER 2791KBTU/HR 0.833 COMBUSTION EFF\n   **   ~~~   **   A temperature setpoint is needed at the outlet node of a boiler in variable flow mode, use a SetpointManager\n   **   ~~~   **   The overall loop setpoint will be assumed for Boiler. The simulation continues ... \n   ** Warning ** Output:Meter: invalid Name=\"DISTRICTCOOLING:FACILITY\" - not found.\n   ** Warning ** Output:Meter: invalid Name=\"DISTRICTHEATING:FACILITY\" - not found.\n   ** Warning ** Output:Meter:MeterFileOnly requested for \"Electricity:Facility\" (TimeStep), already on \"Output:Meter\". Will report to both eplusout.eso and eplusout.mtr\n   ************* Testing Individual Branch Integrity\n   ************* All Branches passed integrity testing\n   ************* Testing Individual Supply Air Path Integrity\n   ************* All Supply Air Paths passed integrity testing\n   ************* Testing Individual Return Air Path Integrity\n   ************* All Return Air Paths passed integrity testing\n   ************* No node connection errors were found.\n   ************* Beginning Simulation\n   ** Warning ** CalcDoe2DXCoil: Coil:Cooling:DX:SingleSpeed \"COIL COOLING DX SINGLE SPEED 16 38KBTU/HR 14.0SEER\" - Air-cooled condenser inlet dry-bulb temperature below 0 C. Outdoor dry-bulb temperature = -20.80\n   **   ~~~   **  ... Occurrence info = RUN PERIOD 1, 01/01 01:01 - 01:03\n   **   ~~~   ** ... Operation at low ambient temperatures may require special performance curves.\n   ** Warning ** CalcDoe2DXCoil: Coil:Cooling:DX:SingleSpeed \"COIL COOLING DX SINGLE SPEED 16 38KBTU/HR 14.0SEER\" - Full load outlet air dry-bulb temperature < 2C. This indicates the possibility of coil frost/freeze. Outlet temperature = -0.13 C.\n   **   ~~~   **  ...Occurrence info = RUN PERIOD 1, 01/01 01:01 - 01:03\n   **   ~~~   ** ... Possible reasons for low outlet air dry-bulb temperatures are: This DX coil\n   **   ~~~   **    1) may have a low inlet air dry-bulb temperature. Inlet air temperature = 13.307 C.\n   **   ~~~   **    2) may have a low air flow rate per watt of cooling capacity. Check inputs.\n   **   ~~~   **    3) is used as part of a HX assisted cooling coil which uses a high sensible effectiveness. Check inputs.\n   ** Warning ** CalcDoe2DXCoil: Coil:Cooling:DX:SingleSpeed \"COIL COOLING DX SINGLE SPEED 7 5KBTU/HR 11.0EER\" - Air-cooled condenser inlet dry-bulb temperature below 0 C. Outdoor dry-bulb temperature = -10.95\n   **   ~~~   **  ... Occurrence info = RUN PERIOD 1, 01/01 11:19 - 11:22\n   **   ~~~   ** ... Operation at low ambient temperatures may require special performance curves.\n   ** Warning ** CalcDoe2DXCoil: Coil:Cooling:DX:SingleSpeed \"COIL COOLING DX SINGLE SPEED 11 10KBTU/HR 10.3EER\" - Air-cooled condenser inlet dry-bulb temperature below 0 C. Outdoor dry-bulb temperature = -10.95\n   **   ~~~   **  ... Occurrence info = RUN PERIOD 1, 01/01 11:26 - 11:30\n   **   ~~~   ** ... Operation at low ambient temperatures may require special performance curves.\n   ** Warning ** CalcDoe2DXCoil: Coil:Cooling:DX:SingleSpeed \"COIL COOLING DX SINGLE SPEED 13 62KBTU/HR 14.0SEER\" - Air-cooled condenser inlet dry-bulb temperature below 0 C. Outdoor dry-bulb temperature = -10.38\n   **   ~~~   **  ... Occurrence info = RUN PERIOD 1, 01/02 07:02 - 07:04\n   **   ~~~   ** ... Operation at low ambient temperatures may require special performance curves.\n   ** Warning ** SimHVAC: Maximum iterations (20) exceeded for all HVAC loops, at RUN PERIOD 1, 01/03 11:50 - 11:55\n   **   ~~~   ** The solution for one or more of the Air Loop HVAC systems did not appear to converge\n   **   ~~~   ** ...use Output:Diagnostics,DisplayExtraWarnings; to show more details on each max iteration exceeded.\n   ** Warning ** SimHVAC: Maximum iterations (20) exceeded for all HVAC loops, at RUN PERIOD 1, 01/03 12:00 - 12:15\n   **   ~~~   ** The solution for one or more of the Air Loop HVAC systems did not appear to converge\n   ** Warning ** CalcDoe2DXCoil: Coil:Cooling:DX:SingleSpeed \"COIL COOLING DX SINGLE SPEED 5 18KBTU/HR 9.3EER\" - Air-cooled condenser inlet dry-bulb temperature below 0 C. Outdoor dry-bulb temperature = -25.55\n   **   ~~~   **  ... Occurrence info = RUN PERIOD 1, 01/03 15:30 - 15:45\n   **   ~~~   ** ... Operation at low ambient temperatures may require special performance curves.\n   ** Warning ** SimHVAC: Maximum iterations (20) exceeded for all HVAC loops, at RUN PERIOD 1, 01/03 16:15 - 16:30\n   **   ~~~   ** The solution for one or more of the Air Loop HVAC systems did not appear to converge\n   ** Warning ** SimHVAC: Maximum iterations (20) exceeded for all HVAC loops, at RUN PERIOD 1, 01/03 16:15 - 16:22\n   **   ~~~   ** The solution for one or more of the Air Loop HVAC systems did not appear to converge\n   ** Warning ** SimHVAC: Maximum iterations (20) exceeded for all HVAC loops, at RUN PERIOD 1, 01/03 16:23 - 16:30\n   **   ~~~   ** The solution for one or more of the Air Loop HVAC systems did not appear to converge\n   ** Warning ** SimHVAC: Maximum iterations (20) exceeded for all HVAC loops, at RUN PERIOD 1, 01/03 16:40 - 16:45\n   **   ~~~   ** The solution for one or more of the Air Loop HVAC systems did not appear to converge\n   ** Warning ** SimHVAC: Maximum iterations (20) exceeded for all HVAC loops, at RUN PERIOD 1, 01/04 11:25 - 11:30\n   **   ~~~   ** The solution for one or more of the Air Loop HVAC systems did not appear to converge\n   ** Warning ** SimHVAC: Maximum iterations (20) exceeded for all HVAC loops, at RUN PERIOD 1, 01/04 11:30 - 11:45\n   **   ~~~   ** The solution for one or more of the Air Loop HVAC systems did not appear to converge\n   ** Warning ** CalcDoe2DXCoil: Coil:Cooling:DX:SingleSpeed \"COIL COOLING DX SINGLE SPEED 4 17KBTU/HR 9.3EER\" - Air-cooled condenser inlet dry-bulb temperature below 0 C. Outdoor dry-bulb temperature = -28.70\n   **   ~~~   **  ... Occurrence info = RUN PERIOD 1, 01/04 12:45 - 12:52\n   **   ~~~   ** ... Operation at low ambient temperatures may require special performance curves.\n   ** Warning ** CalcDoe2DXCoil: Coil:Cooling:DX:SingleSpeed \"COIL COOLING DX SINGLE SPEED 9 20KBTU/HR 9.3EER\" - Air-cooled condenser inlet dry-bulb temperature below 0 C. Outdoor dry-bulb temperature = -27.08\n   **   ~~~   **  ... Occurrence info = RUN PERIOD 1, 01/04 15:00 - 15:15\n   **   ~~~   ** ... Operation at low ambient temperatures may require special performance curves.\n   ** Warning ** SimHVAC: Maximum iterations (20) exceeded for all HVAC loops, at RUN PERIOD 1, 01/04 16:15 - 16:30\n   **   ~~~   ** The solution for one or more of the Air Loop HVAC systems did not appear to converge\n   ** Warning ** SimHVAC: Maximum iterations (20) exceeded for all HVAC loops, at RUN PERIOD 1, 01/04 16:30 - 16:45\n   **   ~~~   ** The solution for one or more of the Air Loop HVAC systems did not appear to converge\n   ** Warning ** SimHVAC: Maximum iterations (20) exceeded for all HVAC loops, at RUN PERIOD 1, 01/04 16:30 - 16:38\n   **   ~~~   ** The solution for one or more of the Air Loop HVAC systems did not appear to converge\n   ** Warning ** SimHVAC: Maximum iterations (20) exceeded for all HVAC loops, at RUN PERIOD 1, 01/04 16:38 - 16:45\n   **   ~~~   ** The solution for one or more of the Air Loop HVAC systems did not appear to converge\n   ** Warning ** SimHVAC: Maximum iterations (20) exceeded for all HVAC loops, at RUN PERIOD 1, 01/04 17:04 - 17:08\n   **   ~~~   ** The solution for one or more of the Air Loop HVAC systems did not appear to converge\n   ** Warning ** SimHVAC: Maximum iterations (20) exceeded for all HVAC loops, at RUN PERIOD 1, 01/04 17:30 - 17:35\n   **   ~~~   ** The solution for one or more of the Air Loop HVAC systems did not appear to converge\n   ** Warning ** CalcDoe2DXCoil: Coil:Cooling:DX:SingleSpeed \"COIL COOLING DX SINGLE SPEED 7 5KBTU/HR 11.0EER\" - Full load outlet air dry-bulb temperature < 2C. This indicates the possibility of coil frost/freeze. Outlet temperature = 2.00 C.\n   **   ~~~   **  ...Occurrence info = RUN PERIOD 1, 01/04 20:30 - 20:45\n   **   ~~~   ** ... Possible reasons for low outlet air dry-bulb temperatures are: This DX coil\n   **   ~~~   **    1) may have a low inlet air dry-bulb temperature. Inlet air temperature = 15.479 C.\n   **   ~~~   **    2) may have a low air flow rate per watt of cooling capacity. Check inputs.\n   **   ~~~   **    3) is used as part of a HX assisted cooling coil which uses a high sensible effectiveness. Check inputs.\n   ** Warning ** CalcDoe2DXCoil: Coil:Cooling:DX:SingleSpeed \"COIL COOLING DX SINGLE SPEED 17 6KBTU/HR 14.0SEER\" - Air-cooled condenser inlet dry-bulb temperature below 0 C. Outdoor dry-bulb temperature = -5.55\n   **   ~~~   **  ... Occurrence info = RUN PERIOD 1, 01/16 07:04 - 07:06\n   **   ~~~   ** ... Operation at low ambient temperatures may require special performance curves.\n   ** Warning ** CalcDoe2DXCoil: Coil:Cooling:DX:SingleSpeed \"COIL COOLING DX SINGLE SPEED 17 6KBTU/HR 14.0SEER\" - Full load outlet air dry-bulb temperature < 2C. This indicates the possibility of coil frost/freeze. Outlet temperature = -1.94 C.\n   **   ~~~   **  ...Occurrence info = RUN PERIOD 1, 01/16 07:04 - 07:06\n   **   ~~~   ** ... Possible reasons for low outlet air dry-bulb temperatures are: This DX coil\n   **   ~~~   **    1) may have a low inlet air dry-bulb temperature. Inlet air temperature = 11.856 C.\n   **   ~~~   **    2) may have a low air flow rate per watt of cooling capacity. Check inputs.\n   **   ~~~   **    3) is used as part of a HX assisted cooling coil which uses a high sensible effectiveness. Check inputs.\n   ** Warning ** CalcDoe2DXCoil: Coil:Cooling:DX:SingleSpeed \"COIL COOLING DX SINGLE SPEED 6 17KBTU/HR 9.3EER\" - Air-cooled condenser inlet dry-bulb temperature below 0 C. Outdoor dry-bulb temperature = -7.85\n   **   ~~~   **  ... Occurrence info = RUN PERIOD 1, 01/16 16:15 - 16:30\n   **   ~~~   ** ... Operation at low ambient temperatures may require special performance curves.\n   ** Warning ** CalcDoe2DXCoil: Coil:Cooling:DX:SingleSpeed \"COIL COOLING DX SINGLE SPEED 10 20KBTU/HR 9.3EER\" - Air-cooled condenser inlet dry-bulb temperature below 0 C. Outdoor dry-bulb temperature = -13.00\n   **   ~~~   **  ... Occurrence info = RUN PERIOD 1, 01/18 16:23 - 16:30\n   **   ~~~   ** ... Operation at low ambient temperatures may require special performance curves.\n   ** Warning ** CalcDoe2DXCoil: Coil:Cooling:DX:SingleSpeed \"COIL COOLING DX SINGLE SPEED 3 17KBTU/HR 9.3EER\" - Air-cooled condenser inlet dry-bulb temperature below 0 C. Outdoor dry-bulb temperature = -1.70\n   **   ~~~   **  ... Occurrence info = RUN PERIOD 1, 02/11 10:53 - 11:00\n   **   ~~~   ** ... Operation at low ambient temperatures may require special performance curves.\n   ** Warning ** CalcDoe2DXCoil: Coil:Cooling:DX:SingleSpeed \"COIL COOLING DX SINGLE SPEED 8 48KBTU/HR 9.3EER\" - Air-cooled condenser inlet dry-bulb temperature below 0 C. Outdoor dry-bulb temperature = -1.98\n   **   ~~~   **  ... Occurrence info = RUN PERIOD 1, 02/15 16:30 - 16:45\n   **   ~~~   ** ... Operation at low ambient temperatures may require special performance curves.\n   ** Warning ** CalcDoe2DXCoil: Coil:Cooling:DX:SingleSpeed \"COIL COOLING DX SINGLE SPEED 2 3KBTU/HR 11.0EER\" - Air-cooled condenser inlet dry-bulb temperature below 0 C. Outdoor dry-bulb temperature = -0.55\n   **   ~~~   **  ... Occurrence info = RUN PERIOD 1, 03/14 21:24 - 21:27\n   **   ~~~   ** ... Operation at low ambient temperatures may require special performance curves.\n   ** Warning ** CalcDoe2DXCoil: Coil:Cooling:DX:SingleSpeed \"COIL COOLING DX SINGLE SPEED 12 15KBTU/HR 14.0SEER\" - Full load outlet air dry-bulb temperature < 2C. This indicates the possibility of coil frost/freeze. Outlet temperature = 1.14 C.\n   **   ~~~   **  ...Occurrence info = RUN PERIOD 1, 04/17 15:30 - 15:45\n   **   ~~~   ** ... Possible reasons for low outlet air dry-bulb temperatures are: This DX coil\n   **   ~~~   **    1) may have a low inlet air dry-bulb temperature. Inlet air temperature = 15.912 C.\n   **   ~~~   **    2) may have a low air flow rate per watt of cooling capacity. Check inputs.\n   **   ~~~   **    3) is used as part of a HX assisted cooling coil which uses a high sensible effectiveness. Check inputs.\n   ** Warning ** CalcDoe2DXCoil: Coil:Cooling:DX:SingleSpeed \"COIL COOLING DX SINGLE SPEED 14 81KBTU/HR 9.7EER\" - Full load outlet air dry-bulb temperature < 2C. This indicates the possibility of coil frost/freeze. Outlet temperature = 2.00 C.\n   **   ~~~   **  ...Occurrence info = RUN PERIOD 1, 04/24 19:00 - 19:08\n   **   ~~~   ** ... Possible reasons for low outlet air dry-bulb temperatures are: This DX coil\n   **   ~~~   **    1) may have a low inlet air dry-bulb temperature. Inlet air temperature = 18.975 C.\n   **   ~~~   **    2) may have a low air flow rate per watt of cooling capacity. Check inputs.\n   **   ~~~   **    3) is used as part of a HX assisted cooling coil which uses a high sensible effectiveness. Check inputs.\n   ** Warning ** CalcDoe2DXCoil: Coil:Cooling:DX:SingleSpeed \"COIL COOLING DX SINGLE SPEED 15 81KBTU/HR 9.7EER\" - Full load outlet air dry-bulb temperature < 2C. This indicates the possibility of coil frost/freeze. Outlet temperature = 2.00 C.\n   **   ~~~   **  ...Occurrence info = RUN PERIOD 1, 04/24 19:00 - 19:08\n   **   ~~~   ** ... Possible reasons for low outlet air dry-bulb temperatures are: This DX coil\n   **   ~~~   **    1) may have a low inlet air dry-bulb temperature. Inlet air temperature = 18.975 C.\n   **   ~~~   **    2) may have a low air flow rate per watt of cooling capacity. Check inputs.\n   **   ~~~   **    3) is used as part of a HX assisted cooling coil which uses a high sensible effectiveness. Check inputs.\n   ** Warning ** CalcDoe2DXCoil: Coil:Cooling:DX:SingleSpeed \"COIL COOLING DX SINGLE SPEED 18 77KBTU/HR 9.7EER\" - Full load outlet air dry-bulb temperature < 2C. This indicates the possibility of coil frost/freeze. Outlet temperature = 1.80 C.\n   **   ~~~   **  ...Occurrence info = RUN PERIOD 1, 06/14 07:00 - 07:03\n   **   ~~~   ** ... Possible reasons for low outlet air dry-bulb temperatures are: This DX coil\n   **   ~~~   **    1) may have a low inlet air dry-bulb temperature. Inlet air temperature = 13.725 C.\n   **   ~~~   **    2) may have a low air flow rate per watt of cooling capacity. Check inputs.\n   **   ~~~   **    3) is used as part of a HX assisted cooling coil which uses a high sensible effectiveness. Check inputs.\n   ************* Simulation Error Summary *************\n   ************* There are 9 unused schedules in input.\n   ************* There are 9 unused week schedules in input.\n   ************* There are 35 unused day schedules in input.\n   ************* Use Output:Diagnostics,DisplayUnusedSchedules; to see them.\n   *************\n   ************* ===== Recurring Error Summary =====\n   ************* The following recurring error messages occurred.\n   *************\n   *************  ** Warning ** Plant loop falling below lower temperature limit, PlantLoop=\"MAIN SERVICE WATER LOOP\"\n   *************  **   ~~~   **   This error occurred 67 total times;\n   *************  **   ~~~   **   during Warmup 4 times;\n   *************  **   ~~~   **   during Sizing 0 times.\n   *************  **   ~~~   **   Min=0.138332\n   *************\n   *************  ** Warning ** CalcDoe2DXCoil: Coil:Cooling:DX:SingleSpeed=\"COIL COOLING DX SINGLE SPEED 16 38KBTU/HR 14.0SEER\" - Low condenser dry-bulb temperature error continues...\n   *************  **   ~~~   **   This error occurred 822 total times;\n   *************  **   ~~~   **   during Warmup 0 times;\n   *************  **   ~~~   **   during Sizing 0 times.\n   *************  **   ~~~   **   Max=-2.500000E-002 [C]  Min=-35.6 [C]\n   *************\n   *************  ** Warning ** CalcDoe2DXCoil: Coil:Cooling:DX:SingleSpeed=\"COIL COOLING DX SINGLE SPEED 16 38KBTU/HR 14.0SEER\" - Full load outlet temperature indicates a possibility of frost/freeze error continues. Outlet air temperature statistics follow:\n   *************  **   ~~~   **   This error occurred 17 total times;\n   *************  **   ~~~   **   during Warmup 0 times;\n   *************  **   ~~~   **   during Sizing 0 times.\n   *************  **   ~~~   **   Max=1.876238  Min=-0.151189\n   *************\n   *************  ** Warning ** CalcDoe2DXCoil: Coil:Cooling:DX:SingleSpeed=\"COIL COOLING DX SINGLE SPEED 7 5KBTU/HR 11.0EER\" - Low condenser dry-bulb temperature error continues...\n   *************  **   ~~~   **   This error occurred 9696 total times;\n   *************  **   ~~~   **   during Warmup 0 times;\n   *************  **   ~~~   **   during Sizing 0 times.\n   *************  **   ~~~   **   Max=-2.775558E-017 [C]  Min=-33.9 [C]\n   *************\n   *************  ** Warning ** CalcDoe2DXCoil: Coil:Cooling:DX:SingleSpeed=\"COIL COOLING DX SINGLE SPEED 11 10KBTU/HR 10.3EER\" - Low condenser dry-bulb temperature error continues...\n   *************  **   ~~~   **   This error occurred 4643 total times;\n   *************  **   ~~~   **   during Warmup 0 times;\n   *************  **   ~~~   **   during Sizing 0 times.\n   *************  **   ~~~   **   Max=-2.775558E-017 [C]  Min=-32.8 [C]\n   *************\n   *************  ** Warning ** CalcDoe2DXCoil: Coil:Cooling:DX:SingleSpeed=\"COIL COOLING DX SINGLE SPEED 13 62KBTU/HR 14.0SEER\" - Low condenser dry-bulb temperature error continues...\n   *************  **   ~~~   **   This error occurred 558 total times;\n   *************  **   ~~~   **   during Warmup 0 times;\n   *************  **   ~~~   **   during Sizing 0 times.\n   *************  **   ~~~   **   Max=-0.1 [C]  Min=-34.325 [C]\n   *************\n   *************  ** Warning ** CalcDoe2DXCoil: Coil:Cooling:DX:SingleSpeed=\"COIL COOLING DX SINGLE SPEED 5 18KBTU/HR 9.3EER\" - Low condenser dry-bulb temperature error continues...\n   *************  **   ~~~   **   This error occurred 3248 total times;\n   *************  **   ~~~   **   during Warmup 0 times;\n   *************  **   ~~~   **   during Sizing 0 times.\n   *************  **   ~~~   **   Max=-2.775558E-017 [C]  Min=-30.825 [C]\n   *************\n   *************  ** Warning ** CalcDoe2DXCoil: Coil:Cooling:DX:SingleSpeed=\"COIL COOLING DX SINGLE SPEED 4 17KBTU/HR 9.3EER\" - Low condenser dry-bulb temperature error continues...\n   *************  **   ~~~   **   This error occurred 3604 total times;\n   *************  **   ~~~   **   during Warmup 0 times;\n   *************  **   ~~~   **   during Sizing 0 times.\n   *************  **   ~~~   **   Max=-2.775558E-017 [C]  Min=-31.9 [C]\n   *************\n   *************  ** Warning ** CalcDoe2DXCoil: Coil:Cooling:DX:SingleSpeed=\"COIL COOLING DX SINGLE SPEED 9 20KBTU/HR 9.3EER\" - Low condenser dry-bulb temperature error continues...\n   *************  **   ~~~   **   This error occurred 2325 total times;\n   *************  **   ~~~   **   during Warmup 0 times;\n   *************  **   ~~~   **   during Sizing 0 times.\n   *************  **   ~~~   **   Max=-2.775558E-017 [C]  Min=-30.55 [C]\n   *************\n   *************  ** Warning ** CalcDoe2DXCoil: Coil:Cooling:DX:SingleSpeed=\"COIL COOLING DX SINGLE SPEED 7 5KBTU/HR 11.0EER\" - Full load outlet temperature indicates a possibility of frost/freeze error continues. Outlet air temperature statistics follow:\n   *************  **   ~~~   **   This error occurred 12 total times;\n   *************  **   ~~~   **   during Warmup 0 times;\n   *************  **   ~~~   **   during Sizing 0 times.\n   *************  **   ~~~   **   Max=1.999147  Min=1.809449\n   *************\n   *************  ** Warning ** SimHVAC: Exceeding Maximum iterations for all HVAC loops, during RUN PERIOD 1 continues\n   *************  **   ~~~   **   This error occurred 79 total times;\n   *************  **   ~~~   **   during Warmup 0 times;\n   *************  **   ~~~   **   during Sizing 0 times.\n   *************\n   *************  ** Warning ** CalcDoe2DXCoil: Coil:Cooling:DX:SingleSpeed=\"COIL COOLING DX SINGLE SPEED 17 6KBTU/HR 14.0SEER\" - Low condenser dry-bulb temperature error continues...\n   *************  **   ~~~   **   This error occurred 147 total times;\n   *************  **   ~~~   **   during Warmup 0 times;\n   *************  **   ~~~   **   during Sizing 0 times.\n   *************  **   ~~~   **   Max=-0.125 [C]  Min=-9.85 [C]\n   *************\n   *************  ** Warning ** CalcDoe2DXCoil: Coil:Cooling:DX:SingleSpeed=\"COIL COOLING DX SINGLE SPEED 17 6KBTU/HR 14.0SEER\" - Full load outlet temperature indicates a possibility of frost/freeze error continues. Outlet air temperature statistics follow:\n   *************  **   ~~~   **   This error occurred 172 total times;\n   *************  **   ~~~   **   during Warmup 0 times;\n   *************  **   ~~~   **   during Sizing 0 times.\n   *************  **   ~~~   **   Max=1.957904  Min=-2.027132\n   *************\n   *************  ** Warning ** CalcDoe2DXCoil: Coil:Cooling:DX:SingleSpeed=\"COIL COOLING DX SINGLE SPEED 6 17KBTU/HR 9.3EER\" - Low condenser dry-bulb temperature error continues...\n   *************  **   ~~~   **   This error occurred 1191 total times;\n   *************  **   ~~~   **   during Warmup 0 times;\n   *************  **   ~~~   **   during Sizing 0 times.\n   *************  **   ~~~   **   Max=-2.775558E-017 [C]  Min=-25.725 [C]\n   *************\n   *************  ** Warning ** CalcDoe2DXCoil: Coil:Cooling:DX:SingleSpeed=\"COIL COOLING DX SINGLE SPEED 10 20KBTU/HR 9.3EER\" - Low condenser dry-bulb temperature error continues...\n   *************  **   ~~~   **   This error occurred 928 total times;\n   *************  **   ~~~   **   during Warmup 0 times;\n   *************  **   ~~~   **   during Sizing 0 times.\n   *************  **   ~~~   **   Max=-2.775558E-017 [C]  Min=-25.725 [C]\n   *************\n   *************  ** Warning ** CalcDoe2DXCoil: Coil:Cooling:DX:SingleSpeed=\"COIL COOLING DX SINGLE SPEED 3 17KBTU/HR 9.3EER\" - Low condenser dry-bulb temperature error continues...\n   *************  **   ~~~   **   This error occurred 1464 total times;\n   *************  **   ~~~   **   during Warmup 0 times;\n   *************  **   ~~~   **   during Sizing 0 times.\n   *************  **   ~~~   **   Max=-2.500000E-002 [C]  Min=-23.2 [C]\n   *************\n   *************  ** Warning ** CalcDoe2DXCoil: Coil:Cooling:DX:SingleSpeed=\"COIL COOLING DX SINGLE SPEED 8 48KBTU/HR 9.3EER\" - Low condenser dry-bulb temperature error continues...\n   *************  **   ~~~   **   This error occurred 92 total times;\n   *************  **   ~~~   **   during Warmup 0 times;\n   *************  **   ~~~   **   during Sizing 0 times.\n   *************  **   ~~~   **   Max=-2.775558E-017 [C]  Min=-8.9 [C]\n   *************\n   *************  ** Warning ** CalcDoe2DXCoil: Coil:Cooling:DX:SingleSpeed=\"COIL COOLING DX SINGLE SPEED 2 3KBTU/HR 11.0EER\" - Low condenser dry-bulb temperature error continues...\n   *************  **   ~~~   **   This error occurred 422 total times;\n   *************  **   ~~~   **   during Warmup 0 times;\n   *************  **   ~~~   **   during Sizing 0 times.\n   *************  **   ~~~   **   Max=-2.775558E-017 [C]  Min=-5.525 [C]\n   *************\n   *************  ** Warning ** CalcDoe2DXCoil: Coil:Cooling:DX:SingleSpeed=\"COIL COOLING DX SINGLE SPEED 12 15KBTU/HR 14.0SEER\" - Full load outlet temperature indicates a possibility of frost/freeze error continues. Outlet air temperature statistics follow:\n   *************  **   ~~~   **   This error occurred 271 total times;\n   *************  **   ~~~   **   during Warmup 0 times;\n   *************  **   ~~~   **   during Sizing 0 times.\n   *************  **   ~~~   **   Max=1.99628  Min=-1.938938\n   *************\n   *************  ** Warning ** CalcDoe2DXCoil: Coil:Cooling:DX:SingleSpeed=\"COIL COOLING DX SINGLE SPEED 14 81KBTU/HR 9.7EER\" - Full load outlet temperature indicates a possibility of frost/freeze error continues. Outlet air temperature statistics follow:\n   *************  **   ~~~   **   This error occurred 26 total times;\n   *************  **   ~~~   **   during Warmup 0 times;\n   *************  **   ~~~   **   during Sizing 0 times.\n   *************  **   ~~~   **   Max=1.999475  Min=0.954681\n   *************\n   *************  ** Warning ** CalcDoe2DXCoil: Coil:Cooling:DX:SingleSpeed=\"COIL COOLING DX SINGLE SPEED 15 81KBTU/HR 9.7EER\" - Full load outlet temperature indicates a possibility of frost/freeze error continues. Outlet air temperature statistics follow:\n   *************  **   ~~~   **   This error occurred 32 total times;\n   *************  **   ~~~   **   during Warmup 0 times;\n   *************  **   ~~~   **   during Sizing 0 times.\n   *************  **   ~~~   **   Max=1.999475  Min=0.78092\n   *************\n   *************  ** Warning ** CalcDoe2DXCoil: Coil:Cooling:DX:SingleSpeed=\"COIL COOLING DX SINGLE SPEED 18 77KBTU/HR 9.7EER\" - Full load outlet temperature indicates a possibility of frost/freeze error continues. Outlet air temperature statistics follow:\n   *************  **   ~~~   **   This error occurred 30 total times;\n   *************  **   ~~~   **   during Warmup 0 times;\n   *************  **   ~~~   **   during Sizing 0 times.\n   *************  **   ~~~   **   Max=1.95886  Min=0.446751\n   *************\n   *************\n   ************* ===== Final Error Summary =====\n   ************* The following error categories occurred.  Consider correcting or noting.\n   ************* Nominally Unused Constructions\n   ************* ..The nominally unused constructions warning is provided to alert you to potential conditions that can cause\n   ************* ..extra time during simulation. Each construction is calculated by the algorithm indicated in the HeatBalanceAlgorithm\n   ************* ..object. You may remove the constructions indicated (when you use the DisplayExtraWarnings option).\n   *************\n   ************* EnergyPlus Warmup Error Summary. During Warmup: 0 Warning; 0 Severe Errors.\n   ************* EnergyPlus Sizing Error Summary. During Sizing: 163 Warning; 0 Severe Errors.\n   ************* EnergyPlus Completed Successfully-- 30048 Warning; 0 Severe Errors; Elapsed Time=00hr 02min 40.71sec\n",
   "file_format_version" : "0.0.1",
   "file_paths" : [ "../weather", "../seeds", "../seed" ],
   "hash" : "2E2DDE54",
   "measure_paths" : [ "../measures" ],
   "name" : "LHS Autogenerated 1089",
   "osa_id" : "4fef0e0f-5396-4c55-a6e1-2cd6803db3ab",
   "osd_id" : "090cdd84-0399-4673-baca-da8f281f59a8",
   "run_directory" : "./run",
   "seed_file" : "seed.osm",
   "started_at" : "20170710T193509Z",
   "steps" : [
      {
         "arguments" : {
            "__SKIP__" : false,
            "building_type" : "LargeHotel",
            "climate_zone" : "NECB HDD Method",
            "epw_file" : "CAN_SK_North.Battleford.718760_CWEC.epw",
            "template" : "NECB 2011"
         },
         "measure_dir_name" : "create_prototype_building",
         "name" : "create_prototype_building",
         "result" : {
            "completed_at" : "20170710T193702Z",
            "measure_class_name" : "CreatePrototypeBuilding",
            "measure_display_name" : "Create Prototype Building",
            "measure_name" : "create_prototype_building",
            "measure_taxonomy" : "Whole Building.Space Types",
            "measure_type" : "ModelMeasure",
            "measure_uid" : "ae90fsd7-a651-467a-bc8d-29d310b0f937",
            "measure_version_id" : "c6ec5c18-5595-459f-a082-09a19c8c869c",
            "measure_version_modified" : "20170519T182315Z",
            "measure_xml_checksum" : "057E8D9D",
            "started_at" : "20170710T193511Z",
            "stderr" : "",
[...]
5q8eTaryq3WFrVVVkuJKvLSp3pUXnxMcdyOq8uPGpXOVXVqky38qyfO/muWur5n9f1FOZ4+lT9+ts79e83v71Vp2/evvvplx/Uz29++OlY/Xjy9qScwKts1da3nmnRVBqpJIpTNZldZXUwUnmkSaK8ZJQ1L8FkXEJxee2NzoOd2euo8/KLS6zTWTxRUy9O9Ksw8tK2Z5b8nexWPnjsPH+s1MVc36I9sF28hHXCnzeb9HLff+bTPZ/s7Se+vvBmYaqmcZStYfpJRz355uDg+Pjk5MmGg2eIQxziEIc4xCEOcYhDHOIQ58+Jo5LZVfafwMrX5kHle3eGKNY+aUhDGtKQhjSkIQ1pSEMa0pCmmOYm/2jWH2jOw5kmDnGIQxziEIc4xCEOcYhDHOLUwbn/3UDH/G7g6Uz63cC+k7/D9vz53t7hIUlJSlKSkpSkJCUpSUlKUpKSlKQk3Q5SNyf1Uom0l5P2+657MCQpSUlKUpKSlKQkJSlJSUpSkpKUpNtB2jekr+JAIHUPc1LH2d/v90lKUpKSlKQkJSlJSUpSkpKUpCQl6XaQ7hnSd5czifQgJz3MjsELkpKUpCQlKUlJSlKSkpSkJCUpSUm6HaQDQ/ov7Uuk+znpy5fHx/v7JCUpSUlKUpKSlKQkJSlJSUpSkpJ0O0iH+V8mZloiHeakx8fDIUlJSlKSkpSkJCUpSUlKUpKSlKQk3RbSfUP6OpKSBd1BTnpw4LqDAUlJSlKSkpSkJCUpSUlKUpKSlKQkbYx0ieLH3k17rdhtNw3SUJ9eelPdTfVt2n7yYzSLk/UYd1+e+TK40pMkiCahTnKFNRJPn6rnvq88lSupmyC9VEl0pZXfX3Nmcj3uetOpnvjtlvFu7aw5YXl0vTSN263bVkcNexVPustOcsuflKR3oZ7j7XqT0WUUZ+e3Qn1RgXahcRFN0t0bHYwvU6NxHoV+eY35vTmd7r7wEp3doFSd3iW7e+pVGO/21enocvdE/fhrOLpKdydRnN2C//yifjk5fmGeluortad+Pf2PejMamec+2Sm6qd8/TUZxME3/IT7n+6d+cP31YfEcWSzTUoF/1BqZij/OLpIXTHR85ji9lsov3VHLD5Jp6N09CyZhNrZ7HkajT9+1ZMBMdf4aVHo3zc43V+/pR+/amz9aeKY5rr3YVKc6Un5wNQ11d6JvTq/H7dY3X4HsqL1eL/+ftdPN6Ppe6mXC739vhd65DlvPWr6+8GZhqqZxdBGEutWZj5zdtp453V6nde2FM73498isStk52UJzfHxy0vrcKaXjgnT6IJ09kM4ApDME6eyDdA5AOocgHaeHEkJVtIMqaQdV0w6qqB1UVTuosnZQde2gCttBVbaLqmwXtlajKttFVbZbqbJVMru6WvmZ6lI7Wqz9CjLiNaomI16hajLi9akmI877ajLirK8mI875ajLijK8mI873ajLyRlZRB1TH8jZWUQdUyfImVlEHVMvyFlZRB1TN8gZWUQdUz/L2VVEHtS6D6lneuyrqlK/nm2CSVt+2zs1D5XXEy1NRR7w8FXXEy1NRR5zuFXXE6V5RR5zuFXXE6V5RR5zuFXXk/auqEKqi5R2sqhCqpuU9rKoQqqrlXayqEKqu5X2sqhCqsuWdrKoQbK1GVba8mVUVKl/Z9+9brP1dYWmb6638h978h4cBFu7mLfqbt9jbvMVg8xbDzVvsb97iYPMWh5u3WNnZN+XRwPx2GpjgTgMz3GlgijsNzHGngUnuNDDLnQamudPAPHcbmOduE/t4A/PcbWCeu/Xm+dqfbyzXVs1/3xFgId8NmIV8M2AW8r2AWchLLsxCXnFhFvKCC7OQ11uYhbzcwiwK3rnGechv/eE85HcFcR7yG4Y4jwameEFbhfNoYJIXtFU4jwameUFbhdv/5LYK59HEPt7ARl7QVuE86s3ztb+SVa6tmv+MFsBCvhswC/lmwCzkewGzkJdcmIW84sIs5AUXZiGvtzAL+bNRMIuCtgrnIbdVOA+5rcJ5yG0VzkP+iBbOQ/5cIs5D/sgizkP+NCPOQ/6gI86jgXle0FbhPJrYxxvYyAvaKpxHva187Y+RlGur5r9WArCQ7wbMQr4ZMAv5XsAs5LYKZiG3VTALua2CWchtFcxCXm5hFgVtFc5DbqtwHnJbhfOQ2yqch9xW4TzktgrnIbdVOA+5rcJ5yG0VzqOBeV7QVuE8mtjHG9jIC9oqnEe9rXxt5nu5tmoeCg+wkO8GzEK+GTAL+V7ALOS2CmYht1UwC7mtglnIbRXMQl5uYRYFbRXOQ26rcB5yW4XzkNsqnIfcVuE85LYK5yG3VTgPua3CechtFc6jgXle0FbhPJrYxxvYyAvaKpxHva18bbRuubZqnr0LsJDvBsxCvhkwC/lewCzktgpmIbdVMAu5rYJZyG0VzEJebmEWBW0VzkNuq3AecluF85DbKpyH3FbhPOS2Cucht1U4D7mtwnnIbRXOo4F5XtBW4Tya2Mcb2MgL2iqcR72tfG2CYbm2ah5xCLCQ7wbMQr4ZMAv5XsAs5LYKZiG3VTALua2CWchtFcyiKHcKZFEYtobyKEqrQnkUBVmhPIoyrlAeRfFXKI+izDeUR1EcHMqjKCkO5VEUIofyaGCeF7RVOI8m9vEGNvKCtgrnsX4r/1Am4XUR3qyO1ETfLBNk8+DYdnI97uQJsGujYpcJ0IlOX0SziZ+0B72OcpxBR/XNv9xBubjZ2wzjPtja94+9VI+j+O75bZDME5TvX3+JmOlM4E3s6/jtzAQalz7RcNytcrzWXjKL9RzDZDIvrvuGI745zGEOc5jDHOYwhznMYQ5zmMMc5jCHOcxhDnOYwxzmMIc5zGEOc5jDHOYwhznMYQ5zmMMc5jCHOcxhDnOYwxzmMIc5zGEOc5jDHOYwhzn8pxq+60bXOo4DX7/2zBdrnW7P8vuq5quxyepXY091HOhk8fXaVmf5BeJpGKXdMJjotV+RTb72Pd3136xNuvlPz0+j0EuDaJJBtZJUT3fP9UUU61a5bz7/rMd64q++oPlj7WGvo/rmm8s980Vm8z+tUF+kBmyN9FK2ezbW6ckkNdcns7iYTUY5aXtH/b5GYkmo789+v/a73OYILlQ7vQySbpLflXJG5nhwUje7fife6LL9X+Cqakt889XxjH2hezaNksAIvsweLvNqloeR+QpVHN1UQ1piBRNfm/mw63Qqnr08PtY98SLQoam39uKazufJOI5mU+2rb79Vf1s8fts9u/SSxfffzQTbeTh699XR7IJ0vfH4lfHohnoyTi/V98pV/1St52HYUs9Wn5GEwUi3d52d970PO2vn2xevJIpV+2P2UnrfqY+ZzaJUF77msb9nK071G2QOU8YLvfcfP3Q/6Tt1dHQ0v3j1FHPVxW3/WPWlLo/zWHuf6pz8ueI5VZ9vrtfi1R2ZsjbFsKiUPMihe+YlSTCeaP/YREQk7/Mr+aHepVze6OksuWzXvRfZLX02v5/1Z1IYPivzKrvmmXVdkjSOPulyPvPn1nWKpt4oSO/KWS2eXPtV5RZLq7oqy4VkdVmpMz0qLz7mWE7n1YVH7SqnqlqV6Vae9XMn31VLPf/zup7CHE+fql9/e6f+/ea3t+r0zdt3P/3yg/r5zQ8/HasfT96elBN4la3a+tYzLZpKI5VEcaoms6usDkYqjzRJlJeMsuYlmIxLKC6vvdF5sDN7HXVefnGJdTqLJ2rqxYl+FUZe2vbMkr+T3coHj53nj5W6mOtbtAe2i5ewTvjzZpNe7vvPfLrnk739xNcX3ixM1TSOsjVMP+moJ98cHBwfn5w82XDwDHGIQxziEIc4xCEOcYhDHOL8OXFUMrvK/hNY+do8qHzvzhDF2icNaUhDGtKQhjSkIQ1pSEMa0hTT3OQfzfoDzXk408QhDnGIQxziEIc4xCEOcYhDnDo4978b6JjfDTydSb8b2Hfyd9ieP9/bOzwkKUlJSlKSkpSkJCUpSUlKUpKSlKTbQermpF4qkfZy0n7fdQ+GJCUpSUlKUpKSlKQkJSlJSUpSkpJ0O0j7hvRVHAik7mFO6jj7+/0+SUlKUpKSlKQkJSlJSUpSkpKUpCTdDtI9Q/ruciaRHuSkh9kxeEFSkpKUpCQlKUlJSlKSkpSkJCUpSbeDdGBI/6V9iXQ/J3358vh4f5+kJCUpSUlKUpKSlKQkJSlJSUpSkm4H6TD/y8RMS6TDnPT4eDgkKUlJSlKSkpSkJCUpSUlKUpKSlKTbQrpvSF9HUrKgO8hJDw5cdzAgKUlJSlKSkpSkJCUpSUlKUpKSlKSNkS5R/Ni7aa8Vu+2mQRrq00tvqrupvk3bT36MZnGyHuPuyzNfBld6kgTRJNRJrrBG4ulT9dz3ladyJXUTpJcqia608vtrzkyux11vOtUTv90y3q2dNScsj66XpnG7ddvqqGGv4kl32Ulu+ZOS9C7Uc7xdbzK6jOLs/FaoLyrQLjQuokm6e6OD8WVqNM6j0C+vMb83p9Pd4yiOAz+Kz16F8dlQnd4lu32V/Xt3T52OLndP1I+/hqOrdDeJZtmN+M8v6peT4xfmaam+Un316+l/1JvRyDz3yU7Rrf3+aTKKg2n6D/E53z/1g+uvD4vnyGKZlgr8o9bI1P1xdqm8YKLjM8dxWiq/gEctP0imoXf3LJiE2djueRiNPn3XkgEz1flrUOndNDvfXMOnH71rb/5o4ZnmuPZiU6PqSPnB1TTU3Ym+Ob0et1vffAWyo/Z6vfx/1k46o+t7qZcJv/+9FXrnOmw9a/n6wpuFqZrG0UUQ6lZnPnJ223rmdHud1rUXzvTi3yOzNmXnZMvN8fHJSetzp5SOC9Lpg3T2QDoDkM4QpLMP0jkA6RyCdJweSghV0Q6qpB1UTTuoonZQVe2gytpB1bWDKmwHVdkuqrJd2FqNqmwXVdlupcpWyezqauXHqkvtaLH2K8iI16iajHiFqsmI16eajDjvq8mIs76ajDjnq8mIM76ajDjfq8nIG1lFHVAdy9tYRR1QJcubWEUdUC3LW1hFHVA1yxtYRR1QPcvbV0Ud1LoMqmd576qoU76eb4JJWn3bOjcPldcRL09FHfHyVNQRL09FHXG6V9QRp3tFHXG6V9QRp3tFHXG6V9SR96+qQqiKlnewqkKompb3sKpCqKqWd7GqQqi6lvexqkKoypZ3sqpCsLUaVdnyZlZVqHxl3797sfbXhaVtrrfyH3rznx8GWMj/dQuz6G/+Vext3mKweYvh5i32N29xsHmLw81brOzsm/JoYH4X/GEW5yH/ZQvnIf/RC+ch/6UX5yH/ERjnIf99GOch/+kY5yH/VRm3/8l/cMZ5yH+Lxnk0MM8L/oKN86i3la/9Ecdyb+POf+URYCHfDZiF3FbBLOR7AbOQ2yqYhdxWwSzktgpmIbdVMAu5rYJZFLRVOI8G5ndBW4XzkJdbnIfcVuE85LYK5yG3VTgPua3CechtFc5Dbqtw+5/cVuE8mtjHG5jnBW0VzqPePF/7W1nl2qr5j2kBLFxx94BZyG0VzEJuq2AWclsFs5DbKpiF3FbBLOS2CmYht1Uwi4K2CufRwPwuaKtwHvJyi/OQl1uch9xW4TzktgrnIbdVOA+5rcJ5yG0Vbv+T2yqcRxP7eAPzvKCtwnnUm+drf5KkXFs1/80SgIXcVsEs5LYKZiG3VTALua2CWchtFcxCbqtgFnJbBbOQ2yqYRUFbhfNoYH4XtFU4D3m5xXnIyy3OQ26rcB5yW4XzkNsqnIfcVuE85LYKt//JbRXOo4l9vIF5XtBW4TzqzfO1ye/l2qp5NDzAQm6rYBZyWwWzkNsqmIXcVsEs5LYKZiG3VTALua2CWchtFcyioK3CeTQwvwvaKpyHvNziPOTlFucht1U4D7mtwnnIbRXOQ26rcB5yW4Xb/+S2CufRxD7ewDwvaKtwHvXm+dqA3XJt1TyBF2Aht1UwC7mtglnIbRXMQm6rYBZyWwWzkNsqmIXcVsEs5LYKZlHQVuE8GpjfBW0VzkNebnEe8nKL85DbKpyH3FbhPOS2Cucht1U4D7mtwu1/cluF82hiH29gnhe0VTiPevN8bY5hubZqHnQIsJDbKpiF3FbBLOS2CmYht1UwC7mtglnIbRXMQm6rYBZyWwWzKGircB4NzO/CiDaUR1HGFcqjKP4K5VGU+YbyKIqDQ3kUJcWhPIpC5FAeRflyqP2vKHoO5dHEPt7APC/MskN5rJ/nH8okvC4inNWRmuibZYJsHhzbTq7HnTwBdm1U7DIHOtHpi2g28ZP2oNdRjjPoqL75lzsoFzd7m2Hcx1v7/rGX6nEU3z2/DZJ5jvL96y8RNp0JvIl9Hb+dmVjj0icajrtVjtfaS2axnmOYZObFdd9w0DeHOcxhDnOYwxzmMIc5zGEOc5jDHOYwhznMYQ5zmMMc5jCHOcxhDnOYwxzmMIc5zGEOc5jDHOYwhznMYQ5zmMMc5jCHOcxhDnOYwxzmMIf/VMN33ehax3Hg69ee+WKt0+1Zfl/VfDU2Wf1q7KmOA50svl7b6iy/QDwNo7QbBhO99iuyyde+p7v+m7VJN//p+WkUemkQTTKoVpLq6e65vohi3Sr3zeef9VhP/NUXNH+sPex1VN98c7lnvshs/qcV6ovUgK2RXsp2z8Y6PZmk5vpkFhezySgnbe+o39dILAn1/dnv136X2xzBhWqnl0HSTfK7Us7IHA9O6mbX78QbXbb/C1xVbYlvvjqesS90z6ZREhjBl9nDZV7N8jAyX6GKo5tqSEusYOJrMx92nU7Fs5fHx7onXgQ6NPXWXlzT+TwZx9Fsqn317bfqb4vHb7tnl16y+P67mWA7D0fvvjqaXZCuNx6/Mh7dUE/G6aX6Xrnqn6r1PAxb6tnqM5IwGOn2rrPzvvdhZ+18++KVRLFqf8xeSu879TGzWZTqwtc89vdsxal+g8xhynih9/7jh+4nfaeOjo7mF6+eYq66uO0fq77U5XEea+9TnZM/Vzyn6vPN9Vq8uiNT1qYYFpWSBzl0z7wkCcYT7R+biIjkfX4lP9S7lMsbPZ0ll+269yK7pc/m97P+TArDZ2VeZdc8s65LksbRJ13OZ/7cuk7R1BsF6V05q8WTa7+q3GJpVVdluZCsLit1pkflxcccy+m8uvCoXeVUVasy3cqzfu7ku2qp539e11OY4+lT9etv79S/3/z2Vp2+efvup19+UD+/+eGnY/XjyduTcgKvslVb33qmRVNppJIoTtVkdpXVwUjlkSaJ8pJR1rwEk3EJxeW1NzoPdmavo87LLy6xTmfxRE29ONGvwshL255Z8neyW/ngsfP8sVIXc32L9sB28RLWCX/ebNLLff+ZT/d8sref+PrCm4WpmsZRtobpJx315JuDg+Pjk5MnGw6eIQ5xiEMc4hCHOMQhDnGIQ5w/J45KZlfZfwIrX5sHle/dGaJY+6QhDWlIQxrSkIY0pCENaUhDmmKam/yjWX+gOQ9nmjjEIQ5xiEMc4hCHOMQhDnGIUwfn/ncDHfO7gacz6XcD+07+Dtvz53t7h4ckJSlJSUpSkpKUpCQlKUlJSlKSknQ7SN2c1Esl0l5O2u+77sGQpCQlKUlJSlKSkpSkJCUpSUlKUpJuB2nfkL6KA4HUPcxJHWd/v98nKUlJSlKSkpSkJCUpSUlKUpKSlKTbQbpnSN9dziTSg5z0MDsGL0hKUpKSlKQkJSlJSUpSkpKUpCQl6XaQDgzpv7Qvke7npC9fHh/v75OUpCQlKUlJSlKSkpSkJCUpSUlK0u0gHeZ/mZhpiXSYkx4fD4ckJSlJSUpSkpKUpCQlKUlJSlKSknRbSPcN6etIShZ0BznpwYHrDgYkJSlJSUpSkpKUpCQlKUlJSlKSkrQx0iWKH3s37bVit900SEN9eulNdTfVt2n7yY/RLE7WY9x9eebL4EpPkiCahDrJFdZIPH2qnvu+8lSupG6C9FIl0ZVWfn/Nmcn1uOtNp3rit1vGu7Wz5oTl0fXSNG63blsdNexVPOkuO8ktf1KS3oV6jrfrTUaXUZyd3wr1RQXahcZFNEl3b3QwvkyNxnkU+uU15vfmdLr7MpgEk/HZqzA+G6rTu2S3r7J/7+6p09Hl7gv146/h6CrdnURxdhv+84v65eT4hXlaqq9UX/16+h/1ZjQyz32yU3Rjv3+ajOJgmv5DfM73T/3g+uvD4jmyWKalAv+oNTJVf5xdKC+Y6PjMcdyWyi/fUcsPkmno3T0LJmE2tnseRqNP37VkwEx1/hpUejfNzjdX8OlH79qbP1p4pjmuvdhUqDpSfnA1DXV3om9Or8ft1jdfgeyovV4v/5+1U87o+l7qZcLvf2+F3rkOW89avr7wZmGqpnF0EYS61ZmPnN22njndXqd17YUzvfj3yKxM2TnZYnN8fHLS+twppeOCdPognT2QzgCkMwTp7IN0DkA6hyAdp4cSQlW0gyppB1XTDqqoHVRVO6iydlB17aAK20FVtouqbBe2VqMq20VVtlupslUyu7pa+anqUjtarP0KMuI1qiYjXqFqMuL1qSYjzvtqMuKsryYjzvlqMuKMryYjzvdqMvJGVlEHVMfyNlZRB1TJ8iZWUQdUy/IWVlEHVM3yBlZRB1TP8vZVUQe1LoPqWd67KuqUr+ebYJJW37bOzUPldcTLU1FHvDwVdcTLU1FHnO4VdcTpXlFHnO4VdcTpXlFHnO4VdeT9q6oQqqLlHayqEKqm5T2sqhCqquVdrKoQqq7lfayqEKqy5Z2sqhBsrUZVtryZVRUqX9n3712s/W1haZvrrfyH3vzHhwEW8n/dwiz6m38Ve5u3GGzeYrh5i/3NWxxs3uJw8xYrO/umPBqY3wV/mMV5yH/ZwnnIf/TCech/6cV5yH8ExnnIfx/Gech/OsZ5yH9Vxu1/8h+ccR7y36JxHg3M84K/YOM86m3la3/CsdzbuPPfeARYyHcDZiG3VTAL+V7ALOS2CmYht1UwC7mtglnIbRXMQm6rYBYFbRXOo4H5XdBW4Tzk5RbnIbdVOA+5rcJ5yG0VzkNuq3AecluF85DbKtz+J7dVOI8m9vEG5nlBW4XzqDfP1/5SVrm2av5TWgALV9w9YBZyWwWzkNsqmIXcVsEs5LYKZiG3VTALua2CWchtFcyioK3CeTQwvwvaKpyHvNziPOTlFucht1U4D7mtwnnIbRXOQ26rcB5yW4Xb/+S2CufRxD7ewDwvaKtwHvXm+dofJCnXVs1/sQRgIbdVMAu5rYJZyG0VzEJuq2AWclsFs5DbKpiF3FbBLOS2CmZR0FbhPBqY3wVtFc5DXm5xHvJyi/OQ2yqch9xW4TzktgrnIbdVOA+5rcLtf3JbhfNoYh9vYJ4XtFU4j3rzfG3ue7m2ah4MD7CQ2yqYhdxWwSzktgpmIbdVMAu5rYJZyG0VzEJuq2AWclsFsyhoq3AeDczvgrYK5yEvtzgPebnFechtFc5DbqtwHnJbhfOQ2yqch9xW4fY/ua3CeTSxjzcwzwvaKpxHvXm+Nl63XFs1z98FWMhtFcxCbqtgFnJbBbOQ2yqYhdxWwSzktgpmIbdVMAu5rYJZFLRVOI8G5ndBW4XzkJdbnIe83OI85LYK5yG3VTgPua3CechtFc5Dbqtw+5/cVuE8mtjHG5jnBW0VzqPePF+bYliurZrHHAIs5LYKZiG3VTALua2CWchtFcxCbqtgFnJbBbOQ2yqYhdxWwSwK2iqcRwPzuzCiDeVRlHGF8iiKv0J5FGW+oTyK4uBQHkVJcSiPohA5lEdRvhxq/yuKnkN5NLGPNzDPC7PsUB7r5/mHMgmviwBndaQm+maZIJsHx7aT63EnT4BdGxW7TIFOdPoimk38pD3odZTjDDqqb/7lDsrFzd5mGPfh1r5/7KV6HMV3z2+DZJ6ifP/6S0RNZwJvYl/Hb2cm1Lj0iYbjbpXjtfaSWaznGCaXeXHdNxzzzWEOc5jDHOYwhznMYQ5zmMMc5jCHOcxhDnOYwxzmMIc5zGEOc5jDHOYwhznMYQ5zmMMc5jCHOcxhDnOYwxzmMIc5zGEOc5jDHOYwhznM4T/V8F03utZxHPj6tWe+WOt0e5bfVzVfjU1Wvxp7quNAJ4uv17Y6yy8QT8Mo7YbBRK/9imzyte/prv9mbdLNf3p+GoVeGkSTDKqVpHq6e64voli3yn3z+Wc91hN/9QXNH2sPex3VN99c7pkvMpv/aYX6IjVga6SXst2zsU5PJqm5PpnFxWwyyknbO+r3NRJLQn1/9vu13+U2R3Ch2ullkHST/K6UMzLHg5O62fU78UaX7f8CV1Vb4puvjmfsC92zaZQERvBl9nCZV7M8jMxXqOLophrSEiuY+NrMh12nU/Hs5fGx7okXgQ5NvbUX13Q+T8ZxNJtqX337rfrb4vHb7tmllyy+/24m2M7D0buvjmYXpOuNx6+MRzfUk3F6qb5Xrvqnaj0Pw5Z6tvqMJAxGur3r7LzvfdhZO9++eCVRrNofs5fS+059zGwWpbrwNY/9PVtxqt8gc5gyXui9//ih+0nfqaOjo/nFq6eYqy5u+8eqL3V5nMfa+1Tn5M8Vz6n6fHO9Fq/uyJS1KYZFpeRBDt0zL0mC8UT7xyYiInmfX8kP9S7l8kZPZ8llu+69yG7ps/n9rD+TwvBZmVfZNc+s65KkcfRJl/OZP7euUzT1RkF6V85q8eTaryq3WFrVVVkuJKvLSp3pUXnxMcdyOq8uPGpXOVXVqky38qyfO/muWur5n9f1FOZ4+lT9+ts79e83v71Vp2/evvvplx/Uz29++OlY/Xjy9qScwKts1da3nmnRVBqpJIpTNZldZXUwUnmkSaK8ZJQ1L8FkXEJxee2NzoOd2euo8/KLS6zTWTxRUy9O9Ksw8tK2Z5b8nexWPnjsPH+s1MVc36I9sF28hHXCnzeb9HLff+bTPZ/s7Se+vvBmYaqmcZStYfpJRz355uDg+Pjk5MmGg2eIQxziEIc4xCEOcYhDHOIQ58+Jo5LZVfafwMrX5kHle3eGKNY+aUhDGtKQhjSkIQ1pSEMa0pCmmOYm/2jWH2jOw5kmDnGIQxziEIc4xCEOcYhDHOLUwbn/3UDH/G7g6Uz63cC+k7/D9vz53t7hIUlJSlKSkpSkJCUpSUlKUpKSlKQk3Q5SNyf1Uom0l5P2+657MCQpSUlKUpKSlKQkJSlJSUpSkpKUpNtB2jekr+JAIHUPc1LH2d/v90lKUpKSlKQkJSlJSUpSkpKUpCQl6XaQ7hnSd5czifQgJz3MjsELkpKUpCQlKUlJSlKSkpSkJCUpSUm6HaQDQ/ov7Uuk+znpy5fHx/v7JCUpSUlKUpKSlKQkJSlJSUpSkpJ0O0iH+V8mZloiHeakx8fDIUlJSlKSkpSkJCUpSUlKUpKSlKQk3RbSfUP6OpKSBd1BTnpw4LqDAUlJSlKSkpSkJCUpSUlKUpKSlKQkbYx0ieLH3k17rdhtNw3SUJ9eelPdTfVt2n7yYzSLk/UYd1+e+TK40pMkiCahTnKFNRJPn6rnvq88lSupmyC9VEl0pZXfX3Nmcj3uetOpnvjtlvFu7aw5YXl0vTSN263bVkcNexVPustOcsuflKR3oZ7j7XqT0WUUZ+e3Qn1RgXahcRFN0t0bHYwvU6NxHoV+eY35vTmd7v5/QTq61JOzV2F8NlSnd8luX2X/3t1Tp6PL3Rfqx1/D0VW6q70kVf/5Rf1ycvzCPCvVV6qvfj39j3ozGpmnPtkpurHfP01GcTBN/yE+5/unfnD99WHxHFks01KBf9Qamao/zi6UF0x0fOY4/ZbKL99Ryw+SaejdPQsmYTa2ex5Go0/ftWTATHX+GlR6N83ON1fw6Ufv2ps/WnimOa692FSoOlJ+cDUNdXeib06vx+3WN1+B7Ki9Xi//n7VTzuj6Xuplwu9/b4XeuQ5bz1q+vvBmYaqmcXQRhLrVmY+c3baeOd1ep3XthTPdejYYdPuHD47+oNMamYUqk8jWnuPjk5PW504pWXczsv3NyO5tRnawGdnhZmT3NyN7sBnZw83IOr0N6W5onjkbmmjOhmaas6Gp5mxorjkbmmzOhmabs6Hp5mxovrkbmm/upva1Dc03d0PzzbWZbyqZXV2t/CR4nc4h1n4F1bLXt5pq2atbTbXsta2mWnYlq6Zadh2rplp2FaumWnYNq6ZadgWrplq6Yagou5nZVbpdqCi7mflVulmoKLuZGVa6Vagou5k5VrpRqCi7mVlWuk2oKLuhPWwzs6x0j1BRtvYsuwkmqXV7cG6eUV627KWtKFv20laULXtpK8qWXcAqypZdwCrKll3AKsqWXcAqypZdwCrKlu4TqupuaJ6V7hSq6m5oppXuFarqbmiule4WqupuaLaV7heq6m5ovpXuGKrqbmpf29B8K900VNWtNt8+lHnjYvG+pDpSE32zfGMkfz+knVyPO/kbG2vfAVm+uZno9EU0m/hJe9DrKMcZdFTf/MsdlHsX5TbDuH/P1vePvVSPo/ju+W2QzN8cvL8WJd5BzQTexL6O387Me3WlTzQcd6scr7WXzGI9xzBvNy7uge17wvkbUqtWpzoOdLLAzZwWN2QaRmnXvEu21jL52uteT5p088KbRqGXBtEkg2olqZ7unuuLKNatcpX0sx7rib/6guaPtYdZFfRNJZg31RzzP4u3XNe+G72U7Z6NdXoySc31ySwuZpNRTtreUb+XeM/VEOr7s9+vnRvmCC5UO70MkqyuzXnljMzx4KRudv1OvNFl+7/AVdWW+Iv3GBe6Z9MoCYzgy+zhMq9meRiZr1DF0U01pCVWMPG1mbi7Tqfi2cvjY90TLwIdmnprL67pfJ6M42g21b769lv1t8Xjt92zSy9ZrCdmgu08HL376mh2QbreePzKeHRDPRmnl+p75ap/qtbzMGypZ6vPSMJgpNu7zs773oedtfPti1cSxar9MXspve/Ux8xmUaoLX/PY34+UU/0GmcOU8ULv/ccP3U86W96OjuYXr55irrq47R+rvtTlcR5r71Odkz9XPKfq8831Wry6I1PWphgWlZJvjN2z+eeJtJ9/oih5n1/JD/Uu5fJGT2fJZbvuvchu6bP5/aw/k8LwWZlX2TXPrOuSpHH0SZfzmT+3rlM09UZBelfOavHk2q8qt1ha1VVZLiSry0qd6VF58THHcjqvLjxqVzlV1apMt/Ksnzv5rlrq+Z/X9RTmePpU/frbO/XvN7+9Vadv3r776Zcf1M9vfvjpWP148vaknMCrbNXWt55p0VQaqSTKGunJ7Cqrg5HKW8REeckoa16CybiE4vLaG50HO7PXUeflF5dYp7N4oqZenOhXYeSlbc8s+TvZrXzw2Hn+WKmLub5Fe2C7eAnrhD//Dz73+Yd3bBcf7jRvwP5PPoZKHOIQhzjEIQ5xiEMc4hCHOFuP8+UnXwxRrH3SkIY0pCENaUhDGtKQhjSkIU0xzRefCTQ05iN+xCEOcYhDHOIQhzjEIQ5xiEOc/2Ha4jt9NdWxl85irdqvdpi3+LjyFmfTaXinngexMjdqSzIT97YhM3GvsczE/N91w5lAOn2Qzh5IZwDSGYJ09kE6ByCdQ5DOSqaAlRCqoh1USTuomnZQRe2gqtpBlbWDqmsHVdgOqrJdVGW7sLUaVdkuqrLdSpVdPstvRap+eJ+FjHiF6sfzWciI875+AJ+FjDjn60fsWciI890iRM9GB1TH8jZmkYtnowMqZXkPs4i6s9EBVbO8gVmk19msg6B6lncvi0A6Gx1QPctbV/2MuRUZi1A5Gx3x8ljExtnoiNPdIhjORkec7hbRbzY64nS3CXezEkJVtLyD2eS1WQmhilrexGwi2KyEUHUt72M2qWpWKyOqsuWtzCYozUoIVdnybvaF0P3vPTnm955OZ9LvPfWdcn9vfP58b+/wEGAh/9ctzEL+716YhfxfxDAL+a9AMAv570MwC/kvRzAL+W9KMAv5r00wi4I/seI8GpjfBX+YxXk0MMML/pyL82hgjhf8ERjn0cAsL/jTMc6jgXle8AdnnEcT+3gD87zgL9g4j3rz3M09vFTy6JVrq/p91z0YAizkuwGzkG8GzEK+FzALecmFWcgrLsxCXnBhFvJ6C7OQl1uYRUFbhfNoYH4XtFU4jwZmeEFbhfNoYI4XtFU4jwZmeUFbhfNoYJ4XtFU4jyb28QbmeUFbhfOoN8/7xuNVHEi/Tn5Yrq1ynP39fh9gId8NmIV8M2AW8r2AWchLLsxCXnFhFvKCC7OQ11uYhbzcwiwK2iqcRwPzu6Ctwnk0MMML2iqcRwNzvKCtwnk0MMsL2iqcRwPzvKCtwnk0sY83MM8L2iqcR715vmc83l3OJI+Dcm2V+cWlwQuAhXw3YBbyzYBZyPcCZiEvuTALecWFWcgLLsxCXm9hFvJyC7MoaKtwHg3M74K2CufRwAwvaKtwHg3M8YK2CufRwCwvaKtwHg3M84K2CufRxD7ewDwvaKtwHvXm+cB4/Ev7ksd+ubbq5cvj4/19gIV8N2AW8s2AWcj3AmYhL7kwC3nFhVnICy7MQl5vYRbycguzKGircB4NzO+Ctgrn0cAML2ircB4NzPGCtgrn0cAsL2ircB4NzPOCtgrn0cQ+3sA8L2ircB715vkwb91mWvIYlmurjo+HQ4iFfDdgFvLNgFnI9wJmIS+5MAt5xYVZyAsuzEJeb2EW8nILsyhoq3AeDczvgrYK59HADC9oq3AeDczxgrYK59HALC9oq3AeDczzgrYK59HEPt7APC9oq3Ae9eb5vvF4HUkfi3cH5dqqgwPXHQwAFkU5NyCLogQckEVRNg7IoigPCmRRlBQFsijKkAJZFKVLgSyKcqdAFoVhayiPBuZ3YUQbyqOBGV4Y7IbyaGCOF8bBoTwamOWFIXIojwbmeWH0HMqjiX28gXlemGWH8lg/zz+USXhdxDCrIzXRN8sE2Tw4tp1cjzt5AuzaqNhllnOi0xfRbOIn7UGvoxxn0FF98y93UC5u9jbDuM+h9v1jL9XjKL57fhsk8yTk+9dfIjA6E3gT+zp+OzPBxKVPNBx3qxyvtZfMYj3HMNnKi+u+4URuDnOYwxzmMIc5zGEOc5jDHOYwhznMYQ5zmMMc5jCHOcxhDnOYwxzmMIc5zGEOc5jDHOYwhznMYQ5zmMMc5jCHOcxhDnOYwxzmMIc5zGEO/6mG77rRtY7jwNevPfPFWqfbs/y+qvlqbLL61dhTHQc6WXy9ttVZfoF4GkZpNwwmeu1XZJOvfU93/Tdrk27+0/PTKPTSIJpkUK0k1dPdc30RxbpV7pvPP+uxnvirL2j+WHvY66i++eZyz3yR2fxPK9QXqQFbI72U7Z6NdXoySc31ySwuZpNRTtreUb+vkVgS6vuz36/9Lrc5ggvVTi+DpJvkd6WckTkenNTNrt+JN7ps/xe4qtoS33x1PGNf6J5NoyQwgi+zh8u8muVhZL5CFUc31ZCWWMHE12Y+7Dqdimcvj491T7wIdGjqrb24pvN5Mo6j2VT76ttv1d8Wj992zy69ZPH9dzPBdh6O3n11NLsgXW88fmU8uqGejNNL9b1y1T9V63kYttSz1WckYTDS7V1n533vw87a+fbFK4li1f6YvZTed+pjZrMo1YWveezv2YpT/QaZw5TxQu/9xw/dT/pOHR0dzS9ePcVcdXHbP1Z9qcvjPNbepzonf654TtXnm+u1eHVHpqxNMSwqJQ9y6J55SRKMJ9o/NhERyfv8Sn6odymXN3o6Sy7bde9Fdkufze9n/ZkUhs/KvMqueWZdlySNo0+6nM/8uXWdoqk3CtK7claLJ9d+VbnF0qquynIhWV1W6kyPyouPOZbTeXXhUbvKqapWZbqVZ/3cyXfVUs//vK6nMMfTp+rX396pf7/57a06ffP23U+//KB+fvPDT8fqx5O3J+UEXmWrtr71TIum0kglUZyqyewqq4ORyiNNEuUlo6x5CSbjEorLa290HuzMXkedl19cYp3O4omaenGiX4WRl7Y9s+TvZLfywWPn+WOlLub6Fu2B7eIlrBP+vNmkl/v+M5/u+WRvP/H1hTcLUzWNo2wN00866sk3BwfHxycnTzYcPEMc4hCHOMQhDnGIQxziEIc4f04clcyusv8EVr42DyrfuzNEsfZJQxrSkIY0pCENaUhDGtKQhjTFNDf5R7P+QHMezjRxiEMc4hCHOMQhDnGIQxziEKcOzv3vBjrmdwNPZ9LvBvad/B2258/39g4PSUpSkpKUpCQlKUlJSlKSkpSkJCXpdpC6OamXSqS9nLTfd92DIUlJSlKSkpSkJCUpSUlKUpKSlKQk3Q7SviF9FQcCqXuYkzrO/n6/T1KSkpSkJCUpSUlKUpKSlKQkJSlJt4N0z5C+u5xJpAc56WF2DF6QlKQkJSlJSUpSkpKUpCQlKUlJStLtIB0Y0n9pXyLdz0lfvjw+3t8nKUlJSlKSkpSkJCUpSUlKUpKSlKTbQTrM/zIx0xLpMCc9Ph4OSUpSkpKUpCQlKUlJSlKSkpSkJCXptpDuG9LXkZQs6A5y0oMD1x0MSEpSkpKUpCQlKUlJSlKSkpSkJCVpY6RLFD/2btprxW67aZCG+vTSm+puqm/T9pMfo1mcrMe4+/LMl8GVniRBNAl1kiuskXj6VD33feWpXEndBOmlSqIrrfz+mjOT63HXm071xG+3jHdrZ80Jy6PrpWncbt22OmrYq3jSXXaSW/6kJL0L9Rxv15uMLqM4O78V6osKtAuNi2iS7t7oYHyZGo3zKPTLa8zvzf95/n/mF/itvtReqt6MRup0dPlkp+gmff80GcXBNP2H+Jzvn/rB9deHxXNksUxLBf5Ra2Qq+Dh70V4w0fGZ4wxaKr8URy0/SKahd/csmITZ2O55GI0+fdeSATPV+WtQ6d00O99cjacfvWtv/mjhmea49mJTbepI+cHVNNTdib45vR63W998BbKj9nq9/H/WTh+j63uplwm//70Veuc6bD1r+frCm4WpmsbRRRDqVmc+cnbbeuZ0e53WtRfOdOvZ8LB7+OA4OOy0RmbNyRSyZeT4+OSk9blTStXdiGp/I6p7G1EdbER1uBHV/Y2oHmxE9XAjqk5vM7KbmV3OZqaXs5n55WxmgjmbmWHOZqaYs5k55mxmkjmbmWXuZmaZu6E9bDOzzN3MLHMtZplKZldXKz/jXaNDiLVfQbTkta0mWvLKVhMteV2riZZcu6qJlly5qomWXLeqiZZctaqJllyzqomWbQwqqm5kTpVtCyqqbmRWlW0KKqpuZF6VbQkqqm5kZpVtCCqqbmRulW0HKqpuZr/ayNwq2wtUVK07t26CSWrbBpybJ5RXLXlZK6qWvKwVVUte1oqqJZesiqoll6yKqiWXrIqqJZesiqoll6yKqmX7gaqym5ldZTuCqrKbmV9le4KqspuZYWW7gqqym5ljZfuCqrKbmWVlO4OqshvawzYzy8o2B1VlK82yD2XecFi8N6iO1ETfLN/QyN/HaCfX407+hsTady6WbzAmOn0RzSZ+0h70OspxBh3VN/9yB+Xe/bjNMO7fN/X9Yy/V4yi+e34bJPM36O4vRYl3MTOBN7Gv47cz835Z6RMNx90qx2vtJbNYzzHMW36LW2D7vmz+RtKq1amOA50scDOnxQ2ZhlHaNe9urbVMvva615Mm3bzuplHopUE0yaBaSaqnu+f6Iop1q1wl/azHeuKvvqD5Y+1hVgV9UwnmzTDH/M/ibc+17wgvZbtnY52eTFJzfTKLi9lklJO2d9TvJd73NIT6/uz3a+eGOYIL1U4vgySra3NeOSNzPDipm12/E2902f4vcFW1Jf7ivcGF7tk0SgIj+DJ7uMyrWR5G5itUcXRTDWmJFUx8bSburtOpePby+Fj3xItAh6be2otrOp8n4ziaTbWvvv1W/W3x+G337NJLFuuJmWA7D0fvvjqaXZCuNx6/Mh7dUE/G6aX6Xrnqn6r1PAxb6tnqM5IwGOn2rrPzvvdhZ+18++KVRLFqf8xeSu879TGzWZTqwtc89vcj5VS/QeYwZbzQe//xQ/eTzpa3o6P5xaunmKsubvvHqi91eZzH2vtU5+TPFc+p+nxzvRav7siUtSmGRaXkG2P3bP6ZHu3nn+pJ3udX8kO9S7m80dNZctmuey+yW/psfj/rz6QwfFbmVXbNM+u6JGkcfdLlfObPresUTb1RkN6Vs1o8ufaryi2WVnVVlgvJ6rJSZ3pUXnzMsZzOqwuP2lVOVbUq06086+dOvquWev7ndT2FOZ4+Vb/+9k79+81vb9Xpm7fvfvrlB/Xzmx9+OlY/nrw9KSfwKlu19a1nWjSVRiqJskZ6MrvK6mCk8hYxUV4yypqXYDIuobi89kbnwc7sddR5+cUl1uksnqipFyf6VRh5adszS/5OdisfPHaeP1bqYq5v0R7YLl7COuHP/4PPXv7hDdjFByzNG6r/k4+CEoc4xCEOcYhDHOIQhzjEIc7W43z5ARdDFGufNKQhDWlIQxrSkIY0pCENaUhTTPPFRwINjfmIH3GIQxziEIc4xCEOcYhDHOIQ53+YePhOX0117KWzWKv2qx1mHj6qzMN/eabiftT5/3l+dR7oSarMLTPJh9qfZdd/V+33Xm1JCOJwG0IQh42FIOZfPa0bwgTS6YN09kA6A5DOEKSzD9I5AOkcgnRW0gWshFAV7aBK2kHVtIMqagdV1Q6qrB1UXTuownZQle2iKtuFrdWoynZRle1WquzyoX0rUvVj+ixkxCtUP4rPQkac9/Xj9ixkxDlfP1LPQkac7xaxeTY6oDqWtzGLMDwbHVApy3uYRcSdjQ6omuUNzCK4zmYdBNWzvHtZxNHZ6IDqWd666ofMrchYxMrZ6IiXxyI6zkZHnO4W8XA2OuJ0t4iAs9ERp7tNzJuVEKqi5R3MJrzNSghV1PImZhPJZiWEqmt5H7MJWrNaGVGVLW9lNvFpVkKoypZ3M4aibUUoGoc5zGEOc5jDHOYwhznMYQ5zmMMc5jCHH9PwXTe61nEc+Pq1Z/5Q5XR7DMV/8EoYin9/MBS/0sFQfIbiVzgYiv/Hg6H4fzwYil/xYCg+Q/G/ejAUnzjEIQ5xiEMc4hCHOMQhDnGIsw2RkqQhDWlIQxrSkIY0pCENaUizPTR/mShL4hCHOMQhDnGIQxziEIc4xKnv9z8IxX8ZXOlJEkSTUCcJI/EfVyR+FH9SJxcXwSjQk9HdfRB+sxH4i2f/YeTh/7/89/z/3qsv/nH/f84j/87838v0KvzH//P/A8CZit8="
               },
               {
                  "name" : "annual_peak_electric_demand",
                  "units" : "kW",
                  "value" : 263.32117
               },
               {
                  "name" : "first_year_capital_cost",
                  "units" : "$",
                  "value" : 0
               },
               {
                  "name" : "annual_utility_cost",
                  "units" : "$",
                  "value" : 0
               },
               {
                  "name" : "total_lifecycle_cost",
                  "units" : "$",
                  "value" : 0
               }
            ],
            "step_warnings" : []
         }
      }
   ],
   "updated_at" : "20170710T194027Z",
   "weather_file" : "USA_CO_Denver.Intl.AP.725650_TMY3.epw"
}
