{
   "completed_at" : "20170710T193419Z",
   "completed_status" : "Success",
   "created_at" : "2017-07-10 19:29:02 +0000",
   "current_step" : 5,
   "description" : "",
   "eplusout_err" : "Program Version,EnergyPlus, Version 8.7.0-78a111df4a, YMD=2017.07.10 19:30,IDD_Version 8.7.0\n   ************* IDF Context for following error/warning message:\n   ************* Note -- lines truncated at 300 characters, if necessary...\n   *************      5 Building,\n   ************* indicated Name=NECB 2011-MidriseApartment-NECB HDD Method-CAN_ON_Toronto.716240_CWEC.epw created: 2017-07-10 19:29:08 +0000\n   ************* Only last 1 lines before error line shown.....\n   *************      6   NECB 2011-MidriseApartment-NECB HDD Method-CAN_ON_Toronto.716240_CWEC.epw created: 2017-07-10 19:29:08 +0000, !- Name\n   ** Warning ** IP: IDF line~6 Alpha Argument length exceeds maximum, will be truncated=  NECB 2011-MidriseApartment-NECB HDD Method-CAN_ON_Toronto.716240_CWEC.epw created: 2017-07-10 19:29:08 +000\n   **   ~~~   ** Will be processed as Alpha=NECB 2011-MIDRISEAPARTMENT-NECB HDD METHOD-CAN_ON_TORONTO.716240_CWEC.EPW CREATED: 2017-07-10 19:29:08 +0000\n   ************* Beginning Zone Sizing Calculations\n   ** Warning ** ProcessScheduleInput: Schedule:Day:Interval=\"ECONOMIZER MAX OA FRACTION 100 PCT DEFAULT\", Blank Schedule Type Limits Name input -- will not be validated.\n   ** Warning ** ProcessScheduleInput: Schedule:Day:Interval=\"SCHEDULE DAY 1\", Blank Schedule Type Limits Name input -- will not be validated.\n   ** Warning ** ProcessScheduleInput: Schedule:Day:Interval=\"SCHEDULE DAY 10\", Blank Schedule Type Limits Name input -- will not be validated.\n   ** Warning ** ProcessScheduleInput: Schedule:Day:Interval=\"SCHEDULE DAY 11\", Blank Schedule Type Limits Name input -- will not be validated.\n   ** Warning ** ProcessScheduleInput: Schedule:Day:Interval=\"SCHEDULE DAY 12\", Blank Schedule Type Limits Name input -- will not be validated.\n   ** Warning ** ProcessScheduleInput: Schedule:Day:Interval=\"SCHEDULE DAY 13\", Blank Schedule Type Limits Name input -- will not be validated.\n   ** Warning ** ProcessScheduleInput: Schedule:Day:Interval=\"SCHEDULE DAY 14\", Blank Schedule Type Limits Name input -- will not be validated.\n   ** Warning ** ProcessScheduleInput: Schedule:Day:Interval=\"SCHEDULE DAY 15\", Blank Schedule Type Limits Name input -- will not be validated.\n   ** Warning ** ProcessScheduleInput: Schedule:Day:Interval=\"SCHEDULE DAY 16\", Blank Schedule Type Limits Name input -- will not be validated.\n   ** Warning ** ProcessScheduleInput: Schedule:Day:Interval=\"SCHEDULE DAY 17\", Blank Schedule Type Limits Name input -- will not be validated.\n   ** Warning ** ProcessScheduleInput: Schedule:Day:Interval=\"SCHEDULE DAY 18\", Blank Schedule Type Limits Name input -- will not be validated.\n   ** Warning ** ProcessScheduleInput: Schedule:Day:Interval=\"SCHEDULE DAY 19\", Blank Schedule Type Limits Name input -- will not be validated.\n   ** Warning ** ProcessScheduleInput: Schedule:Day:Interval=\"SCHEDULE DAY 2\", Blank Schedule Type Limits Name input -- will not be validated.\n   ** Warning ** ProcessScheduleInput: Schedule:Day:Interval=\"SCHEDULE DAY 20\", Blank Schedule Type Limits Name input -- will not be validated.\n   ** Warning ** ProcessScheduleInput: Schedule:Day:Interval=\"SCHEDULE DAY 21\", Blank Schedule Type Limits Name input -- will not be validated.\n   ** Warning ** ProcessScheduleInput: Schedule:Day:Interval=\"SCHEDULE DAY 22\", Blank Schedule Type Limits Name input -- will not be validated.\n   ** Warning ** ProcessScheduleInput: Schedule:Day:Interval=\"SCHEDULE DAY 23\", Blank Schedule Type Limits Name input -- will not be validated.\n   ** Warning ** ProcessScheduleInput: Schedule:Day:Interval=\"SCHEDULE DAY 24\", Blank Schedule Type Limits Name input -- will not be validated.\n   ** Warning ** ProcessScheduleInput: Schedule:Day:Interval=\"SCHEDULE DAY 25\", Blank Schedule Type Limits Name input -- will not be validated.\n   ** Warning ** ProcessScheduleInput: Schedule:Day:Interval=\"SCHEDULE DAY 26\", Blank Schedule Type Limits Name input -- will not be validated.\n   ** Warning ** ProcessScheduleInput: Schedule:Day:Interval=\"SCHEDULE DAY 27\", Blank Schedule Type Limits Name input -- will not be validated.\n   ** Warning ** ProcessScheduleInput: Schedule:Day:Interval=\"SCHEDULE DAY 28\", Blank Schedule Type Limits Name input -- will not be validated.\n   ** Warning ** ProcessScheduleInput: Schedule:Day:Interval=\"SCHEDULE DAY 29\", Blank Schedule Type Limits Name input -- will not be validated.\n   ** Warning ** ProcessScheduleInput: Schedule:Day:Interval=\"SCHEDULE DAY 30\", Blank Schedule Type Limits Name input -- will not be validated.\n   ** Warning ** ProcessScheduleInput: Schedule:Day:Interval=\"SCHEDULE DAY 31\", Blank Schedule Type Limits Name input -- will not be validated.\n   ** Warning ** ProcessScheduleInput: Schedule:Day:Interval=\"SCHEDULE DAY 32\", Blank Schedule Type Limits Name input -- will not be validated.\n   ** Warning ** ProcessScheduleInput: Schedule:Day:Interval=\"SCHEDULE DAY 33\", Blank Schedule Type Limits Name input -- will not be validated.\n   ** Warning ** ProcessScheduleInput: Schedule:Day:Interval=\"SCHEDULE DAY 34\", Blank Schedule Type Limits Name input -- will not be validated.\n   ** Warning ** ProcessScheduleInput: Schedule:Day:Interval=\"SCHEDULE DAY 35\", Blank Schedule Type Limits Name input -- will not be validated.\n   ** Warning ** ProcessScheduleInput: Schedule:Day:Interval=\"SCHEDULE DAY 36\", Blank Schedule Type Limits Name input -- will not be validated.\n   ** Warning ** ProcessScheduleInput: Schedule:Day:Interval=\"SCHEDULE DAY 37\", Blank Schedule Type Limits Name input -- will not be validated.\n   ** Warning ** ProcessScheduleInput: Schedule:Day:Interval=\"SCHEDULE DAY 38\", Blank Schedule Type Limits Name input -- will not be validated.\n   ** Warning ** ProcessScheduleInput: Schedule:Day:Interval=\"SCHEDULE DAY 39\", Blank Schedule Type Limits Name input -- will not be validated.\n   ** Warning ** ProcessScheduleInput: Schedule:Day:Interval=\"SCHEDULE DAY 40\", Blank Schedule Type Limits Name input -- will not be validated.\n   ** Warning ** ProcessScheduleInput: Schedule:Day:Interval=\"SCHEDULE DAY 41\", Blank Schedule Type Limits Name input -- will not be validated.\n   ** Warning ** ProcessScheduleInput: Schedule:Day:Interval=\"SCHEDULE DAY 42\", Blank Schedule Type Limits Name input -- will not be validated.\n   ** Warning ** ProcessScheduleInput: Schedule:Day:Interval=\"SCHEDULE DAY 43\", Blank Schedule Type Limits Name input -- will not be validated.\n   ** Warning ** ProcessScheduleInput: Schedule:Day:Interval=\"SCHEDULE DAY 44\", Blank Schedule Type Limits Name input -- will not be validated.\n   ** Warning ** ProcessScheduleInput: Schedule:Day:Interval=\"SCHEDULE DAY 45\", Blank Schedule Type Limits Name input -- will not be validated.\n   ** Warning ** ProcessScheduleInput: Schedule:Day:Interval=\"SCHEDULE DAY 46\", Blank Schedule Type Limits Name input -- will not be validated.\n   ** Warning ** ProcessScheduleInput: Schedule:Day:Interval=\"SCHEDULE DAY 47\", Blank Schedule Type Limits Name input -- will not be validated.\n   ** Warning ** ProcessScheduleInput: Schedule:Day:Interval=\"SCHEDULE DAY 48\", Blank Schedule Type Limits Name input -- will not be validated.\n   ** Warning ** ProcessScheduleInput: Schedule:Day:Interval=\"SCHEDULE DAY 49\", Blank Schedule Type Limits Name input -- will not be validated.\n   ** Warning ** ProcessScheduleInput: Schedule:Day:Interval=\"SCHEDULE DAY 50\", Blank Schedule Type Limits Name input -- will not be validated.\n   ** Warning ** ProcessScheduleInput: Schedule:Day:Interval=\"SCHEDULE DAY 51\", Blank Schedule Type Limits Name input -- will not be validated.\n   ** Warning ** ProcessScheduleInput: Schedule:Day:Interval=\"SCHEDULE DAY 52\", Blank Schedule Type Limits Name input -- will not be validated.\n   ** Warning ** ProcessScheduleInput: Schedule:Day:Interval=\"SCHEDULE DAY 53\", Blank Schedule Type Limits Name input -- will not be validated.\n   ** Warning ** ProcessScheduleInput: Schedule:Day:Interval=\"SCHEDULE DAY 54\", Blank Schedule Type Limits Name input -- will not be validated.\n   ** Warning ** ProcessScheduleInput: Schedule:Day:Interval=\"SCHEDULE DAY 55\", Blank Schedule Type Limits Name input -- will not be validated.\n   ** Warning ** ProcessScheduleInput: Schedule:Day:Interval=\"SCHEDULE DAY 56\", Blank Schedule Type Limits Name input -- will not be validated.\n   ** Warning ** ProcessScheduleInput: Schedule:Day:Interval=\"SCHEDULE DAY 57\", Blank Schedule Type Limits Name input -- will not be validated.\n   ** Warning ** ProcessScheduleInput: Schedule:Day:Interval=\"SCHEDULE DAY 58\", Blank Schedule Type Limits Name input -- will not be validated.\n   ** Warning ** ProcessScheduleInput: Schedule:Day:Interval=\"SCHEDULE DAY 59\", Blank Schedule Type Limits Name input -- will not be validated.\n   ** Warning ** ProcessScheduleInput: Schedule:Day:Interval=\"SCHEDULE DAY 6\", Blank Schedule Type Limits Name input -- will not be validated.\n   ** Warning ** ProcessScheduleInput: Schedule:Day:Interval=\"SCHEDULE DAY 60\", Blank Schedule Type Limits Name input -- will not be validated.\n   ** Warning ** ProcessScheduleInput: Schedule:Day:Interval=\"SCHEDULE DAY 61\", Blank Schedule Type Limits Name input -- will not be validated.\n   ** Warning ** ProcessScheduleInput: Schedule:Day:Interval=\"SCHEDULE DAY 62\", Blank Schedule Type Limits Name input -- will not be validated.\n   ** Warning ** ProcessScheduleInput: Schedule:Day:Interval=\"SCHEDULE DAY 63\", Blank Schedule Type Limits Name input -- will not be validated.\n   ** Warning ** ProcessScheduleInput: Schedule:Day:Interval=\"SCHEDULE DAY 64\", Blank Schedule Type Limits Name input -- will not be validated.\n   ** Warning ** ProcessScheduleInput: Schedule:Day:Interval=\"SCHEDULE DAY 65\", Blank Schedule Type Limits Name input -- will not be validated.\n   ** Warning ** ProcessScheduleInput: Schedule:Day:Interval=\"SCHEDULE DAY 66\", Blank Schedule Type Limits Name input -- will not be validated.\n   ** Warning ** ProcessScheduleInput: Schedule:Day:Interval=\"SCHEDULE DAY 67\", Blank Schedule Type Limits Name input -- will not be validated.\n   ** Warning ** ProcessScheduleInput: Schedule:Day:Interval=\"SCHEDULE DAY 68\", Blank Schedule Type Limits Name input -- will not be validated.\n   ** Warning ** ProcessScheduleInput: Schedule:Day:Interval=\"SCHEDULE DAY 69\", Blank Schedule Type Limits Name input -- will not be validated.\n   ** Warning ** ProcessScheduleInput: Schedule:Day:Interval=\"SCHEDULE DAY 7\", Blank Schedule Type Limits Name input -- will not be validated.\n   ** Warning ** ProcessScheduleInput: Schedule:Day:Interval=\"SCHEDULE DAY 70\", Blank Schedule Type Limits Name input -- will not be validated.\n   ** Warning ** ProcessScheduleInput: Schedule:Day:Interval=\"SCHEDULE DAY 71\", Blank Schedule Type Limits Name input -- will not be validated.\n   ** Warning ** ProcessScheduleInput: Schedule:Day:Interval=\"SCHEDULE DAY 72\", Blank Schedule Type Limits Name input -- will not be validated.\n   ** Warning ** ProcessScheduleInput: Schedule:Day:Interval=\"SCHEDULE DAY 73\", Blank Schedule Type Limits Name input -- will not be validated.\n   ** Warning ** ProcessScheduleInput: Schedule:Day:Interval=\"SCHEDULE DAY 74\", Blank Schedule Type Limits Name input -- will not be validated.\n   ** Warning ** ProcessScheduleInput: Schedule:Day:Interval=\"SCHEDULE DAY 75\", Blank Schedule Type Limits Name input -- will not be validated.\n   ** Warning ** ProcessScheduleInput: Schedule:Day:Interval=\"SCHEDULE DAY 76\", Blank Schedule Type Limits Name input -- will not be validated.\n   ** Warning ** ProcessScheduleInput: Schedule:Day:Interval=\"SCHEDULE DAY 77\", Blank Schedule Type Limits Name input -- will not be validated.\n   ** Warning ** ProcessScheduleInput: Schedule:Day:Interval=\"SCHEDULE DAY 78\", Blank Schedule Type Limits Name input -- will not be validated.\n   ** Warning ** ProcessScheduleInput: Schedule:Day:Interval=\"SCHEDULE DAY 79\", Blank Schedule Type Limits Name input -- will not be validated.\n   ** Warning ** ProcessScheduleInput: Schedule:Day:Interval=\"SCHEDULE DAY 8\", Blank Schedule Type Limits Name input -- will not be validated.\n   ** Warning ** ProcessScheduleInput: Schedule:Day:Interval=\"SCHEDULE DAY 9\", Blank Schedule Type Limits Name input -- will not be validated.\n   ** Warning ** ProcessScheduleInput: Schedule:Year=\"ECONOMIZER MAX OA FRACTION 100 PCT\", Blank Schedule Type Limits Name input -- will not be validated.\n   ** Warning ** ProcessScheduleInput: Schedule:Year=\"SCHEDULE RULESET 10\", Blank Schedule Type Limits Name input -- will not be validated.\n   ** Warning ** ProcessScheduleInput: Schedule:Year=\"SCHEDULE RULESET 11\", Blank Schedule Type Limits Name input -- will not be validated.\n   ** Warning ** ProcessScheduleInput: Schedule:Year=\"SCHEDULE RULESET 12\", Blank Schedule Type Limits Name input -- will not be validated.\n   ** Warning ** ProcessScheduleInput: Schedule:Year=\"SCHEDULE RULESET 13\", Blank Schedule Type Limits Name input -- will not be validated.\n   ** Warning ** ProcessScheduleInput: Schedule:Year=\"SCHEDULE RULESET 14\", Blank Schedule Type Limits Name input -- will not be validated.\n   ** Warning ** ProcessScheduleInput: Schedule:Year=\"SCHEDULE RULESET 15\", Blank Schedule Type Limits Name input -- will not be validated.\n   ** Warning ** ProcessScheduleInput: Schedule:Year=\"SCHEDULE RULESET 16\", Blank Schedule Type Limits Name input -- will not be validated.\n   ** Warning ** ProcessScheduleInput: Schedule:Year=\"SCHEDULE RULESET 17\", Blank Schedule Type Limits Name input -- will not be validated.\n   ** Warning ** ProcessScheduleInput: Schedule:Year=\"SCHEDULE RULESET 18\", Blank Schedule Type Limits Name input -- will not be validated.\n   ** Warning ** ProcessScheduleInput: Schedule:Year=\"SCHEDULE RULESET 19\", Blank Schedule Type Limits Name input -- will not be validated.\n   ** Warning ** ProcessScheduleInput: Schedule:Year=\"SCHEDULE RULESET 20\", Blank Schedule Type Limits Name input -- will not be validated.\n   ** Warning ** ProcessScheduleInput: Schedule:Year=\"SCHEDULE RULESET 21\", Blank Schedule Type Limits Name input -- will not be validated.\n   ** Warning ** ProcessScheduleInput: Schedule:Year=\"SCHEDULE RULESET 22\", Blank Schedule Type Limits Name input -- will not be validated.\n   ** Warning ** ProcessScheduleInput: Schedule:Year=\"SCHEDULE RULESET 23\", Blank Schedule Type Limits Name input -- will not be validated.\n   ** Warning ** ProcessScheduleInput: Schedule:Year=\"SCHEDULE RULESET 24\", Blank Schedule Type Limits Name input -- will not be validated.\n   ** Warning ** ProcessScheduleInput: Schedule:Year=\"SCHEDULE RULESET 25\", Blank Schedule Type Limits Name input -- will not be validated.\n   ** Warning ** ProcessScheduleInput: Schedule:Year=\"SCHEDULE RULESET 26\", Blank Schedule Type Limits Name input -- will not be validated.\n   ** Warning ** ProcessScheduleInput: Schedule:Year=\"SCHEDULE RULESET 27\", Blank Schedule Type Limits Name input -- will not be validated.\n   ** Warning ** ProcessScheduleInput: Schedule:Year=\"SCHEDULE RULESET 28\", Blank Schedule Type Limits Name input -- will not be validated.\n   ** Warning ** ProcessScheduleInput: Schedule:Year=\"SCHEDULE RULESET 29\", Blank Schedule Type Limits Name input -- will not be validated.\n   ** Warning ** ProcessScheduleInput: Schedule:Year=\"SCHEDULE RULESET 3\", Blank Schedule Type Limits Name input -- will not be validated.\n   ** Warning ** ProcessScheduleInput: Schedule:Year=\"SCHEDULE RULESET 30\", Blank Schedule Type Limits Name input -- will not be validated.\n   ** Warning ** ProcessScheduleInput: Schedule:Year=\"SCHEDULE RULESET 31\", Blank Schedule Type Limits Name input -- will not be validated.\n   ** Warning ** ProcessScheduleInput: Schedule:Year=\"SCHEDULE RULESET 32\", Blank Schedule Type Limits Name input -- will not be validated.\n   ** Warning ** ProcessScheduleInput: Schedule:Year=\"SCHEDULE RULESET 33\", Blank Schedule Type Limits Name input -- will not be validated.\n   ** Warning ** ProcessScheduleInput: Schedule:Year=\"SCHEDULE RULESET 34\", Blank Schedule Type Limits Name input -- will not be validated.\n   ** Warning ** ProcessScheduleInput: Schedule:Year=\"SCHEDULE RULESET 35\", Blank Schedule Type Limits Name input -- will not be validated.\n   ** Warning ** ProcessScheduleInput: Schedule:Year=\"SCHEDULE RULESET 36\", Blank Schedule Type Limits Name input -- will not be validated.\n   ** Warning ** ProcessScheduleInput: Schedule:Year=\"SCHEDULE RULESET 37\", Blank Schedule Type Limits Name input -- will not be validated.\n   ** Warning ** ProcessScheduleInput: Schedule:Year=\"SCHEDULE RULESET 38\", Blank Schedule Type Limits Name input -- will not be validated.\n   ** Warning ** ProcessScheduleInput: Schedule:Year=\"SCHEDULE RULESET 39\", Blank Schedule Type Limits Name input -- will not be validated.\n   ** Warning ** ProcessScheduleInput: Schedule:Year=\"SCHEDULE RULESET 4\", Blank Schedule Type Limits Name input -- will not be validated.\n   ** Warning ** ProcessScheduleInput: Schedule:Year=\"SCHEDULE RULESET 40\", Blank Schedule Type Limits Name input -- will not be validated.\n   ** Warning ** ProcessScheduleInput: Schedule:Year=\"SCHEDULE RULESET 41\", Blank Schedule Type Limits Name input -- will not be validated.\n   ** Warning ** ProcessScheduleInput: Schedule:Year=\"SCHEDULE RULESET 42\", Blank Schedule Type Limits Name input -- will not be validated.\n   ** Warning ** ProcessScheduleInput: Schedule:Year=\"SCHEDULE RULESET 43\", Blank Schedule Type Limits Name input -- will not be validated.\n   ** Warning ** ProcessScheduleInput: Schedule:Year=\"SCHEDULE RULESET 44\", Blank Schedule Type Limits Name input -- will not be validated.\n   ** Warning ** ProcessScheduleInput: Schedule:Year=\"SCHEDULE RULESET 45\", Blank Schedule Type Limits Name input -- will not be validated.\n   ** Warning ** ProcessScheduleInput: Schedule:Year=\"SCHEDULE RULESET 46\", Blank Schedule Type Limits Name input -- will not be validated.\n   ** Warning ** ProcessScheduleInput: Schedule:Year=\"SCHEDULE RULESET 47\", Blank Schedule Type Limits Name input -- will not be validated.\n   ** Warning ** ProcessScheduleInput: Schedule:Year=\"SCHEDULE RULESET 48\", Blank Schedule Type Limits Name input -- will not be validated.\n   ** Warning ** ProcessScheduleInput: Schedule:Year=\"SCHEDULE RULESET 49\", Blank Schedule Type Limits Name input -- will not be validated.\n   ** Warning ** ProcessScheduleInput: Schedule:Year=\"SCHEDULE RULESET 5\", Blank Schedule Type Limits Name input -- will not be validated.\n   ** Warning ** ProcessScheduleInput: Schedule:Year=\"SCHEDULE RULESET 50\", Blank Schedule Type Limits Name input -- will not be validated.\n   ** Warning ** ProcessScheduleInput: Schedule:Year=\"SCHEDULE RULESET 51\", Blank Schedule Type Limits Name input -- will not be validated.\n   ** Warning ** ProcessScheduleInput: Schedule:Year=\"SCHEDULE RULESET 52\", Blank Schedule Type Limits Name input -- will not be validated.\n   ** Warning ** ProcessScheduleInput: Schedule:Year=\"SCHEDULE RULESET 53\", Blank Schedule Type Limits Name input -- will not be validated.\n   ** Warning ** ProcessScheduleInput: Schedule:Year=\"SCHEDULE RULESET 54\", Blank Schedule Type Limits Name input -- will not be validated.\n   ** Warning ** ProcessScheduleInput: Schedule:Year=\"SCHEDULE RULESET 55\", Blank Schedule Type Limits Name input -- will not be validated.\n   ** Warning ** ProcessScheduleInput: Schedule:Year=\"SCHEDULE RULESET 56\", Blank Schedule Type Limits Name input -- will not be validated.\n   ** Warning ** ProcessScheduleInput: Schedule:Year=\"SCHEDULE RULESET 57\", Blank Schedule Type Limits Name input -- will not be validated.\n   ** Warning ** ProcessScheduleInput: Schedule:Year=\"SCHEDULE RULESET 58\", Blank Schedule Type Limits Name input -- will not be validated.\n   ** Warning ** ProcessScheduleInput: Schedule:Year=\"SCHEDULE RULESET 59\", Blank Schedule Type Limits Name input -- will not be validated.\n   ** Warning ** ProcessScheduleInput: Schedule:Year=\"SCHEDULE RULESET 6\", Blank Schedule Type Limits Name input -- will not be validated.\n   ** Warning ** ProcessScheduleInput: Schedule:Year=\"SCHEDULE RULESET 60\", Blank Schedule Type Limits Name input -- will not be validated.\n   ** Warning ** ProcessScheduleInput: Schedule:Year=\"SCHEDULE RULESET 61\", Blank Schedule Type Limits Name input -- will not be validated.\n   ** Warning ** ProcessScheduleInput: Schedule:Year=\"SCHEDULE RULESET 62\", Blank Schedule Type Limits Name input -- will not be validated.\n   ** Warning ** ProcessScheduleInput: Schedule:Year=\"SCHEDULE RULESET 63\", Blank Schedule Type Limits Name input -- will not be validated.\n   ** Warning ** ProcessScheduleInput: Schedule:Year=\"SCHEDULE RULESET 64\", Blank Schedule Type Limits Name input -- will not be validated.\n   ** Warning ** ProcessScheduleInput: Schedule:Year=\"SCHEDULE RULESET 65\", Blank Schedule Type Limits Name input -- will not be validated.\n   ** Warning ** ProcessScheduleInput: Schedule:Year=\"SCHEDULE RULESET 66\", Blank Schedule Type Limits Name input -- will not be validated.\n   ** Warning ** ProcessScheduleInput: Schedule:Year=\"SCHEDULE RULESET 67\", Blank Schedule Type Limits Name input -- will not be validated.\n   ** Warning ** ProcessScheduleInput: Schedule:Year=\"SCHEDULE RULESET 68\", Blank Schedule Type Limits Name input -- will not be validated.\n   ** Warning ** ProcessScheduleInput: Schedule:Year=\"SCHEDULE RULESET 69\", Blank Schedule Type Limits Name input -- will not be validated.\n   ** Warning ** ProcessScheduleInput: Schedule:Year=\"SCHEDULE RULESET 7\", Blank Schedule Type Limits Name input -- will not be validated.\n   ** Warning ** ProcessScheduleInput: Schedule:Year=\"SCHEDULE RULESET 70\", Blank Schedule Type Limits Name input -- will not be validated.\n   ** Warning ** ProcessScheduleInput: Schedule:Year=\"SCHEDULE RULESET 71\", Blank Schedule Type Limits Name input -- will not be validated.\n   ** Warning ** ProcessScheduleInput: Schedule:Year=\"SCHEDULE RULESET 72\", Blank Schedule Type Limits Name input -- will not be validated.\n   ** Warning ** ProcessScheduleInput: Schedule:Year=\"SCHEDULE RULESET 73\", Blank Schedule Type Limits Name input -- will not be validated.\n   ** Warning ** ProcessScheduleInput: Schedule:Year=\"SCHEDULE RULESET 74\", Blank Schedule Type Limits Name input -- will not be validated.\n   ** Warning ** ProcessScheduleInput: Schedule:Year=\"SCHEDULE RULESET 8\", Blank Schedule Type Limits Name input -- will not be validated.\n   ** Warning ** ProcessScheduleInput: Schedule:Year=\"SCHEDULE RULESET 9\", Blank Schedule Type Limits Name input -- will not be validated.\n   ** Warning ** ProcessScheduleInput: Schedule:Constant=\"ALWAYS OFF DISCRETE\", Blank Schedule Type Limits Name input -- will not be validated.\n   ** Warning ** ProcessScheduleInput: Schedule:Constant=\"ALWAYS ON CONTINUOUS\", Blank Schedule Type Limits Name input -- will not be validated.\n   ** Warning ** CheckUsedConstructions: There are 26 nominally unused constructions in input.\n   **   ~~~   ** For explicit details on each unused construction, use Output:Diagnostics,DisplayExtraWarnings;\n   ************* Beginning System Sizing Calculations\n   ** Warning ** GetDXCoils: Coil:Cooling:DX:SingleSpeed=\"COIL COOLING DX SINGLE SPEED 24 6KBTU/HR 11.0EER\", invalid\n   **   ~~~   ** ...Part Load Fraction Correlation Curve Name = DXCOOL-NECB2011-REF-COOLPLFFPLR 16 has out of range value.\n   **   ~~~   ** ...Curve maximum must be <= 1.0, curve max at PLR = 0.99 is 1.015\n   **   ~~~   ** ...Setting curve maximum to 1.0 and simulation continues.\n   ** Warning ** GetDXCoils: Coil:Cooling:DX:SingleSpeed=\"COIL COOLING DX SINGLE SPEED 22 5KBTU/HR 11.0EER\", invalid\n   **   ~~~   ** ...Part Load Fraction Correlation Curve Name = DXCOOL-NECB2011-REF-COOLPLFFPLR 14 has out of range value.\n   **   ~~~   ** ...Curve maximum must be <= 1.0, curve max at PLR = 0.99 is 1.015\n   **   ~~~   ** ...Setting curve maximum to 1.0 and simulation continues.\n   ** Warning ** GetDXCoils: Coil:Cooling:DX:SingleSpeed=\"COIL COOLING DX SINGLE SPEED 21 5KBTU/HR 11.0EER\", invalid\n   **   ~~~   ** ...Part Load Fraction Correlation Curve Name = DXCOOL-NECB2011-REF-COOLPLFFPLR 13 has out of range value.\n   **   ~~~   ** ...Curve maximum must be <= 1.0, curve max at PLR = 0.99 is 1.015\n   **   ~~~   ** ...Setting curve maximum to 1.0 and simulation continues.\n   ** Warning ** GetDXCoils: Coil:Cooling:DX:SingleSpeed=\"COIL COOLING DX SINGLE SPEED 23 9KBTU/HR 10.5EER\", invalid\n   **   ~~~   ** ...Part Load Fraction Correlation Curve Name = DXCOOL-NECB2011-REF-COOLPLFFPLR 15 has out of range value.\n   **   ~~~   ** ...Curve maximum must be <= 1.0, curve max at PLR = 0.99 is 1.015\n   **   ~~~   ** ...Setting curve maximum to 1.0 and simulation continues.\n   ** Warning ** GetDXCoils: Coil:Cooling:DX:SingleSpeed=\"COIL COOLING DX SINGLE SPEED 20 10KBTU/HR 10.5EER\", invalid\n   **   ~~~   ** ...Part Load Fraction Correlation Curve Name = DXCOOL-NECB2011-REF-COOLPLFFPLR 12 has out of range value.\n   **   ~~~   ** ...Curve maximum must be <= 1.0, curve max at PLR = 0.99 is 1.015\n   **   ~~~   ** ...Setting curve maximum to 1.0 and simulation continues.\n   ** Warning ** GetDXCoils: Coil:Cooling:DX:SingleSpeed=\"COIL COOLING DX SINGLE SPEED 25 7KBTU/HR 11.0EER\", invalid\n   **   ~~~   ** ...Part Load Fraction Correlation Curve Name = DXCOOL-NECB2011-REF-COOLPLFFPLR 17 has out of range value.\n   **   ~~~   ** ...Curve maximum must be <= 1.0, curve max at PLR = 0.99 is 1.015\n   **   ~~~   ** ...Setting curve maximum to 1.0 and simulation continues.\n   ** Warning ** GetDXCoils: Coil:Cooling:DX:SingleSpeed=\"COIL COOLING DX SINGLE SPEED 26 7KBTU/HR 11.0EER\", invalid\n   **   ~~~   ** ...Part Load Fraction Correlation Curve Name = DXCOOL-NECB2011-REF-COOLPLFFPLR 18 has out of range value.\n   **   ~~~   ** ...Curve maximum must be <= 1.0, curve max at PLR = 0.99 is 1.015\n   **   ~~~   ** ...Setting curve maximum to 1.0 and simulation continues.\n   ** Warning ** GetDXCoils: Coil:Cooling:DX:SingleSpeed=\"COIL COOLING DX SINGLE SPEED 27 10KBTU/HR 10.3EER\", invalid\n   **   ~~~   ** ...Part Load Fraction Correlation Curve Name = DXCOOL-NECB2011-REF-COOLPLFFPLR 19 has out of range value.\n   **   ~~~   ** ...Curve maximum must be <= 1.0, curve max at PLR = 0.99 is 1.015\n   **   ~~~   ** ...Setting curve maximum to 1.0 and simulation continues.\n   ** Warning ** GetDXCoils: Coil:Cooling:DX:SingleSpeed=\"COIL COOLING DX SINGLE SPEED 6 7KBTU/HR 11.0EER\", invalid\n   **   ~~~   ** ...Part Load Fraction Correlation Curve Name = DXCOOL-NECB2011-REF-COOLPLFFPLR 24 has out of range value.\n   **   ~~~   ** ...Curve maximum must be <= 1.0, curve max at PLR = 0.99 is 1.015\n   **   ~~~   ** ...Setting curve maximum to 1.0 and simulation continues.\n   ** Warning ** GetDXCoils: Coil:Cooling:DX:SingleSpeed=\"COIL COOLING DX SINGLE SPEED 4 6KBTU/HR 11.0EER\", invalid\n   **   ~~~   ** ...Part Load Fraction Correlation Curve Name = DXCOOL-NECB2011-REF-COOLPLFFPLR 22 has out of range value.\n   **   ~~~   ** ...Curve maximum must be <= 1.0, curve max at PLR = 0.99 is 1.015\n   **   ~~~   ** ...Setting curve maximum to 1.0 and simulation continues.\n   ** Warning ** GetDXCoils: Coil:Cooling:DX:SingleSpeed=\"COIL COOLING DX SINGLE SPEED 3 6KBTU/HR 11.0EER\", invalid\n   **   ~~~   ** ...Part Load Fraction Correlation Curve Name = DXCOOL-NECB2011-REF-COOLPLFFPLR 21 has out of range value.\n   **   ~~~   ** ...Curve maximum must be <= 1.0, curve max at PLR = 0.99 is 1.015\n   **   ~~~   ** ...Setting curve maximum to 1.0 and simulation continues.\n   ** Warning ** GetDXCoils: Coil:Cooling:DX:SingleSpeed=\"COIL COOLING DX SINGLE SPEED 2 10KBTU/HR 10.4EER\", invalid\n   **   ~~~   ** ...Part Load Fraction Correlation Curve Name = DXCOOL-NECB2011-REF-COOLPLFFPLR 11 has out of range value.\n   **   ~~~   ** ...Curve maximum must be <= 1.0, curve max at PLR = 0.99 is 1.015\n   **   ~~~   ** ...Setting curve maximum to 1.0 and simulation continues.\n   ** Warning ** GetDXCoils: Coil:Cooling:DX:SingleSpeed=\"COIL COOLING DX SINGLE SPEED 5 10KBTU/HR 10.3EER\", invalid\n   **   ~~~   ** ...Part Load Fraction Correlation Curve Name = DXCOOL-NECB2011-REF-COOLPLFFPLR 23 has out of range value.\n   **   ~~~   ** ...Curve maximum must be <= 1.0, curve max at PLR = 0.99 is 1.015\n   **   ~~~   ** ...Setting curve maximum to 1.0 and simulation continues.\n   ** Warning ** GetDXCoils: Coil:Cooling:DX:SingleSpeed=\"COIL COOLING DX SINGLE SPEED 7 8KBTU/HR 10.9EER\", invalid\n   **   ~~~   ** ...Part Load Fraction Correlation Curve Name = DXCOOL-NECB2011-REF-COOLPLFFPLR 25 has out of range value.\n   **   ~~~   ** ...Curve maximum must be <= 1.0, curve max at PLR = 0.99 is 1.015\n   **   ~~~   ** ...Setting curve maximum to 1.0 and simulation continues.\n   ** Warning ** GetDXCoils: Coil:Cooling:DX:SingleSpeed=\"COIL COOLING DX SINGLE SPEED 9 8KBTU/HR 10.8EER\", invalid\n   **   ~~~   ** ...Part Load Fraction Correlation Curve Name = DXCOOL-NECB2011-REF-COOLPLFFPLR 27 has out of range value.\n   **   ~~~   ** ...Curve maximum must be <= 1.0, curve max at PLR = 0.99 is 1.015\n   **   ~~~   ** ...Setting curve maximum to 1.0 and simulation continues.\n   ** Warning ** GetDXCoils: Coil:Cooling:DX:SingleSpeed=\"COIL COOLING DX SINGLE SPEED 8 10KBTU/HR 10.4EER\", invalid\n   **   ~~~   ** ...Part Load Fraction Correlation Curve Name = DXCOOL-NECB2011-REF-COOLPLFFPLR 26 has out of range value.\n   **   ~~~   ** ...Curve maximum must be <= 1.0, curve max at PLR = 0.99 is 1.015\n   **   ~~~   ** ...Setting curve maximum to 1.0 and simulation continues.\n   ** Warning ** GetDXCoils: Coil:Cooling:DX:SingleSpeed=\"COIL COOLING DX SINGLE SPEED 10 11KBTU/HR 10.1EER\", invalid\n   **   ~~~   ** ...Part Load Fraction Correlation Curve Name = DXCOOL-NECB2011-REF-COOLPLFFPLR 1 has out of range value.\n   **   ~~~   ** ...Curve maximum must be <= 1.0, curve max at PLR = 0.99 is 1.015\n   **   ~~~   ** ...Setting curve maximum to 1.0 and simulation continues.\n   ** Warning ** GetDXCoils: Coil:Cooling:DX:SingleSpeed=\"COIL COOLING DX SINGLE SPEED 15 11KBTU/HR 10.1EER\", invalid\n   **   ~~~   ** ...Part Load Fraction Correlation Curve Name = DXCOOL-NECB2011-REF-COOLPLFFPLR 6 has out of range value.\n   **   ~~~   ** ...Curve maximum must be <= 1.0, curve max at PLR = 0.99 is 1.015\n   **   ~~~   ** ...Setting curve maximum to 1.0 and simulation continues.\n   ** Warning ** GetDXCoils: Coil:Cooling:DX:SingleSpeed=\"COIL COOLING DX SINGLE SPEED 12 10KBTU/HR 10.3EER\", invalid\n   **   ~~~   ** ...Part Load Fraction Correlation Curve Name = DXCOOL-NECB2011-REF-COOLPLFFPLR 3 has out of range value.\n   **   ~~~   ** ...Curve maximum must be <= 1.0, curve max at PLR = 0.99 is 1.015\n   **   ~~~   ** ...Setting curve maximum to 1.0 and simulation continues.\n   ** Warning ** GetDXCoils: Coil:Cooling:DX:SingleSpeed=\"COIL COOLING DX SINGLE SPEED 13 10KBTU/HR 10.3EER\", invalid\n   **   ~~~   ** ...Part Load Fraction Correlation Curve Name = DXCOOL-NECB2011-REF-COOLPLFFPLR 4 has out of range value.\n   **   ~~~   ** ...Curve maximum must be <= 1.0, curve max at PLR = 0.99 is 1.015\n   **   ~~~   ** ...Setting curve maximum to 1.0 and simulation continues.\n   ** Warning ** GetDXCoils: Coil:Cooling:DX:SingleSpeed=\"COIL COOLING DX SINGLE SPEED 14 12KBTU/HR 9.9EER\", invalid\n   **   ~~~   ** ...Part Load Fraction Correlation Curve Name = DXCOOL-NECB2011-REF-COOLPLFFPLR 5 has out of range value.\n   **   ~~~   ** ...Curve maximum must be <= 1.0, curve max at PLR = 0.99 is 1.015\n   **   ~~~   ** ...Setting curve maximum to 1.0 and simulation continues.\n   ** Warning ** GetDXCoils: Coil:Cooling:DX:SingleSpeed=\"COIL COOLING DX SINGLE SPEED 11 13KBTU/HR 9.7EER\", invalid\n   **   ~~~   ** ...Part Load Fraction Correlation Curve Name = DXCOOL-NECB2011-REF-COOLPLFFPLR 2 has out of range value.\n   **   ~~~   ** ...Curve maximum must be <= 1.0, curve max at PLR = 0.99 is 1.015\n   **   ~~~   ** ...Setting curve maximum to 1.0 and simulation continues.\n   ** Warning ** GetDXCoils: Coil:Cooling:DX:SingleSpeed=\"COIL COOLING DX SINGLE SPEED 16 11KBTU/HR 10.1EER\", invalid\n   **   ~~~   ** ...Part Load Fraction Correlation Curve Name = DXCOOL-NECB2011-REF-COOLPLFFPLR 7 has out of range value.\n   **   ~~~   ** ...Curve maximum must be <= 1.0, curve max at PLR = 0.99 is 1.015\n   **   ~~~   ** ...Setting curve maximum to 1.0 and simulation continues.\n   ** Warning ** GetDXCoils: Coil:Cooling:DX:SingleSpeed=\"COIL COOLING DX SINGLE SPEED 19 11KBTU/HR 10.1EER\", invalid\n   **   ~~~   ** ...Part Load Fraction Correlation Curve Name = DXCOOL-NECB2011-REF-COOLPLFFPLR 10 has out of range value.\n   **   ~~~   ** ...Curve maximum must be <= 1.0, curve max at PLR = 0.99 is 1.015\n   **   ~~~   ** ...Setting curve maximum to 1.0 and simulation continues.\n   ** Warning ** GetDXCoils: Coil:Cooling:DX:SingleSpeed=\"COIL COOLING DX SINGLE SPEED 18 13KBTU/HR 9.8EER\", invalid\n   **   ~~~   ** ...Part Load Fraction Correlation Curve Name = DXCOOL-NECB2011-REF-COOLPLFFPLR 9 has out of range value.\n   **   ~~~   ** ...Curve maximum must be <= 1.0, curve max at PLR = 0.99 is 1.015\n   **   ~~~   ** ...Setting curve maximum to 1.0 and simulation continues.\n   ** Warning ** GetDXCoils: Coil:Cooling:DX:SingleSpeed=\"COIL COOLING DX SINGLE SPEED 17 14KBTU/HR 9.5EER\", invalid\n   **   ~~~   ** ...Part Load Fraction Correlation Curve Name = DXCOOL-NECB2011-REF-COOLPLFFPLR 8 has out of range value.\n   **   ~~~   ** ...Curve maximum must be <= 1.0, curve max at PLR = 0.99 is 1.015\n   **   ~~~   ** ...Setting curve maximum to 1.0 and simulation continues.\n   ** Warning ** GetDXCoils: Coil:Cooling:DX:SingleSpeed=\"COIL COOLING DX SINGLE SPEED 1 88KBTU/HR 9.7EER\", invalid\n   **   ~~~   ** ...Part Load Fraction Correlation Curve Name = DXCOOL-NECB2011-REF-COOLPLFFPLR has out of range value.\n   **   ~~~   ** ...Curve maximum must be <= 1.0, curve max at PLR = 0.99 is 1.015\n   **   ~~~   ** ...Setting curve maximum to 1.0 and simulation continues.\n   ** Warning ** GetDXCoils: Coil:Cooling:DX:SingleSpeed=\"COIL COOLING DX SINGLE SPEED 28 21KBTU/HR 14.0SEER\", invalid\n   **   ~~~   ** ...Part Load Fraction Correlation Curve Name = DXCOOL-NECB2011-REF-COOLPLFFPLR 20 has out of range value.\n   **   ~~~   ** ...Curve maximum must be <= 1.0, curve max at PLR = 0.99 is 1.015\n   **   ~~~   ** ...Setting curve maximum to 1.0 and simulation continues.\n   ************* Beginning Plant Sizing Calculations\n   ** Warning ** The Standard Ratings is calculated for Coil:Cooling:DX:SingleSpeed = COIL COOLING DX SINGLE SPEED 24 6KBTU/HR 11.0EER but not at the AHRI test condition due to curve out of bound.\n   **   ~~~   **  Review the Standard Ratings calculations in the Engineering Reference for this coil type. Also, use Output:Diagnostics, DisplayExtraWarnings for further guidance.\n   ** Warning ** The Standard Ratings is calculated for Coil:Cooling:DX:SingleSpeed = COIL COOLING DX SINGLE SPEED 22 5KBTU/HR 11.0EER but not at the AHRI test condition due to curve out of bound.\n   **   ~~~   **  Review the Standard Ratings calculations in the Engineering Reference for this coil type. Also, use Output:Diagnostics, DisplayExtraWarnings for further guidance.\n   ** Warning ** The Standard Ratings is calculated for Coil:Cooling:DX:SingleSpeed = COIL COOLING DX SINGLE SPEED 21 5KBTU/HR 11.0EER but not at the AHRI test condition due to curve out of bound.\n   **   ~~~   **  Review the Standard Ratings calculations in the Engineering Reference for this coil type. Also, use Output:Diagnostics, DisplayExtraWarnings for further guidance.\n   ** Warning ** The Standard Ratings is calculated for Coil:Cooling:DX:SingleSpeed = COIL COOLING DX SINGLE SPEED 23 9KBTU/HR 10.5EER but not at the AHRI test condition due to curve out of bound.\n   **   ~~~   **  Review the Standard Ratings calculations in the Engineering Reference for this coil type. Also, use Output:Diagnostics, DisplayExtraWarnings for further guidance.\n   ** Warning ** The Standard Ratings is calculated for Coil:Cooling:DX:SingleSpeed = COIL COOLING DX SINGLE SPEED 20 10KBTU/HR 10.5EER but not at the AHRI test condition due to curve out of bound.\n   **   ~~~   **  Review the Standard Ratings calculations in the Engineering Reference for this coil type. Also, use Output:Diagnostics, DisplayExtraWarnings for further guidance.\n   ** Warning ** The Standard Ratings is calculated for Coil:Cooling:DX:SingleSpeed = COIL COOLING DX SINGLE SPEED 25 7KBTU/HR 11.0EER but not at the AHRI test condition due to curve out of bound.\n   **   ~~~   **  Review the Standard Ratings calculations in the Engineering Reference for this coil type. Also, use Output:Diagnostics, DisplayExtraWarnings for further guidance.\n   ** Warning ** The Standard Ratings is calculated for Coil:Cooling:DX:SingleSpeed = COIL COOLING DX SINGLE SPEED 26 7KBTU/HR 11.0EER but not at the AHRI test condition due to curve out of bound.\n   **   ~~~   **  Review the Standard Ratings calculations in the Engineering Reference for this coil type. Also, use Output:Diagnostics, DisplayExtraWarnings for further guidance.\n   ** Warning ** The Standard Ratings is calculated for Coil:Cooling:DX:SingleSpeed = COIL COOLING DX SINGLE SPEED 27 10KBTU/HR 10.3EER but not at the AHRI test condition due to curve out of bound.\n   **   ~~~   **  Review the Standard Ratings calculations in the Engineering Reference for this coil type. Also, use Output:Diagnostics, DisplayExtraWarnings for further guidance.\n   ** Warning ** The Standard Ratings is calculated for Coil:Cooling:DX:SingleSpeed = COIL COOLING DX SINGLE SPEED 6 7KBTU/HR 11.0EER but not at the AHRI test condition due to curve out of bound.\n   **   ~~~   **  Review the Standard Ratings calculations in the Engineering Reference for this coil type. Also, use Output:Diagnostics, DisplayExtraWarnings for further guidance.\n   ** Warning ** The Standard Ratings is calculated for Coil:Cooling:DX:SingleSpeed = COIL COOLING DX SINGLE SPEED 4 6KBTU/HR 11.0EER but not at the AHRI test condition due to curve out of bound.\n   **   ~~~   **  Review the Standard Ratings calculations in the Engineering Reference for this coil type. Also, use Output:Diagnostics, DisplayExtraWarnings for further guidance.\n   ** Warning ** The Standard Ratings is calculated for Coil:Cooling:DX:SingleSpeed = COIL COOLING DX SINGLE SPEED 3 6KBTU/HR 11.0EER but not at the AHRI test condition due to curve out of bound.\n   **   ~~~   **  Review the Standard Ratings calculations in the Engineering Reference for this coil type. Also, use Output:Diagnostics, DisplayExtraWarnings for further guidance.\n   ** Warning ** The Standard Ratings is calculated for Coil:Cooling:DX:SingleSpeed = COIL COOLING DX SINGLE SPEED 2 10KBTU/HR 10.4EER but not at the AHRI test condition due to curve out of bound.\n   **   ~~~   **  Review the Standard Ratings calculations in the Engineering Reference for this coil type. Also, use Output:Diagnostics, DisplayExtraWarnings for further guidance.\n   ** Warning ** The Standard Ratings is calculated for Coil:Cooling:DX:SingleSpeed = COIL COOLING DX SINGLE SPEED 5 10KBTU/HR 10.3EER but not at the AHRI test condition due to curve out of bound.\n   **   ~~~   **  Review the Standard Ratings calculations in the Engineering Reference for this coil type. Also, use Output:Diagnostics, DisplayExtraWarnings for further guidance.\n   ** Warning ** The Standard Ratings is calculated for Coil:Cooling:DX:SingleSpeed = COIL COOLING DX SINGLE SPEED 7 8KBTU/HR 10.9EER but not at the AHRI test condition due to curve out of bound.\n   **   ~~~   **  Review the Standard Ratings calculations in the Engineering Reference for this coil type. Also, use Output:Diagnostics, DisplayExtraWarnings for further guidance.\n   ** Warning ** The Standard Ratings is calculated for Coil:Cooling:DX:SingleSpeed = COIL COOLING DX SINGLE SPEED 9 8KBTU/HR 10.8EER but not at the AHRI test condition due to curve out of bound.\n   **   ~~~   **  Review the Standard Ratings calculations in the Engineering Reference for this coil type. Also, use Output:Diagnostics, DisplayExtraWarnings for further guidance.\n   ** Warning ** The Standard Ratings is calculated for Coil:Cooling:DX:SingleSpeed = COIL COOLING DX SINGLE SPEED 8 10KBTU/HR 10.4EER but not at the AHRI test condition due to curve out of bound.\n   **   ~~~   **  Review the Standard Ratings calculations in the Engineering Reference for this coil type. Also, use Output:Diagnostics, DisplayExtraWarnings for further guidance.\n   ** Warning ** The Standard Ratings is calculated for Coil:Cooling:DX:SingleSpeed = COIL COOLING DX SINGLE SPEED 10 11KBTU/HR 10.1EER but not at the AHRI test condition due to curve out of bound.\n   **   ~~~   **  Review the Standard Ratings calculations in the Engineering Reference for this coil type. Also, use Output:Diagnostics, DisplayExtraWarnings for further guidance.\n   ** Warning ** The Standard Ratings is calculated for Coil:Cooling:DX:SingleSpeed = COIL COOLING DX SINGLE SPEED 15 11KBTU/HR 10.1EER but not at the AHRI test condition due to curve out of bound.\n   **   ~~~   **  Review the Standard Ratings calculations in the Engineering Reference for this coil type. Also, use Output:Diagnostics, DisplayExtraWarnings for further guidance.\n   ** Warning ** The Standard Ratings is calculated for Coil:Cooling:DX:SingleSpeed = COIL COOLING DX SINGLE SPEED 12 10KBTU/HR 10.3EER but not at the AHRI test condition due to curve out of bound.\n   **   ~~~   **  Review the Standard Ratings calculations in the Engineering Reference for this coil type. Also, use Output:Diagnostics, DisplayExtraWarnings for further guidance.\n   ** Warning ** The Standard Ratings is calculated for Coil:Cooling:DX:SingleSpeed = COIL COOLING DX SINGLE SPEED 13 10KBTU/HR 10.3EER but not at the AHRI test condition due to curve out of bound.\n   **   ~~~   **  Review the Standard Ratings calculations in the Engineering Reference for this coil type. Also, use Output:Diagnostics, DisplayExtraWarnings for further guidance.\n   ** Warning ** The Standard Ratings is calculated for Coil:Cooling:DX:SingleSpeed = COIL COOLING DX SINGLE SPEED 14 12KBTU/HR 9.9EER but not at the AHRI test condition due to curve out of bound.\n   **   ~~~   **  Review the Standard Ratings calculations in the Engineering Reference for this coil type. Also, use Output:Diagnostics, DisplayExtraWarnings for further guidance.\n   ** Warning ** The Standard Ratings is calculated for Coil:Cooling:DX:SingleSpeed = COIL COOLING DX SINGLE SPEED 11 13KBTU/HR 9.7EER but not at the AHRI test condition due to curve out of bound.\n   **   ~~~   **  Review the Standard Ratings calculations in the Engineering Reference for this coil type. Also, use Output:Diagnostics, DisplayExtraWarnings for further guidance.\n   ** Warning ** The Standard Ratings is calculated for Coil:Cooling:DX:SingleSpeed = COIL COOLING DX SINGLE SPEED 16 11KBTU/HR 10.1EER but not at the AHRI test condition due to curve out of bound.\n   **   ~~~   **  Review the Standard Ratings calculations in the Engineering Reference for this coil type. Also, use Output:Diagnostics, DisplayExtraWarnings for further guidance.\n   ** Warning ** The Standard Ratings is calculated for Coil:Cooling:DX:SingleSpeed = COIL COOLING DX SINGLE SPEED 19 11KBTU/HR 10.1EER but not at the AHRI test condition due to curve out of bound.\n   **   ~~~   **  Review the Standard Ratings calculations in the Engineering Reference for this coil type. Also, use Output:Diagnostics, DisplayExtraWarnings for further guidance.\n   ** Warning ** The Standard Ratings is calculated for Coil:Cooling:DX:SingleSpeed = COIL COOLING DX SINGLE SPEED 18 13KBTU/HR 9.8EER but not at the AHRI test condition due to curve out of bound.\n   **   ~~~   **  Review the Standard Ratings calculations in the Engineering Reference for this coil type. Also, use Output:Diagnostics, DisplayExtraWarnings for further guidance.\n   ** Warning ** The Standard Ratings is calculated for Coil:Cooling:DX:SingleSpeed = COIL COOLING DX SINGLE SPEED 17 14KBTU/HR 9.5EER but not at the AHRI test condition due to curve out of bound.\n   **   ~~~   **  Review the Standard Ratings calculations in the Engineering Reference for this coil type. Also, use Output:Diagnostics, DisplayExtraWarnings for further guidance.\n   ** Warning ** The Standard Ratings is calculated for Coil:Cooling:DX:SingleSpeed = COIL COOLING DX SINGLE SPEED 1 88KBTU/HR 9.7EER but not at the AHRI test condition due to curve out of bound.\n   **   ~~~   **  Review the Standard Ratings calculations in the Engineering Reference for this coil type. Also, use Output:Diagnostics, DisplayExtraWarnings for further guidance.\n   ** Warning ** The Standard Ratings is calculated for Coil:Cooling:DX:SingleSpeed = COIL COOLING DX SINGLE SPEED 28 21KBTU/HR 14.0SEER but not at the AHRI test condition due to curve out of bound.\n   **   ~~~   **  Review the Standard Ratings calculations in the Engineering Reference for this coil type. Also, use Output:Diagnostics, DisplayExtraWarnings for further guidance.\n   ** Warning ** Output:Meter: invalid Name=\"DISTRICTCOOLING:FACILITY\" - not found.\n   ** Warning ** Output:Meter: invalid Name=\"DISTRICTHEATING:FACILITY\" - not found.\n   ** Warning ** Output:Meter:MeterFileOnly requested for \"Electricity:Facility\" (TimeStep), already on \"Output:Meter\". Will report to both eplusout.eso and eplusout.mtr\n   ************* Testing Individual Branch Integrity\n   ************* All Branches passed integrity testing\n   ************* Testing Individual Supply Air Path Integrity\n   ************* All Supply Air Paths passed integrity testing\n   ************* Testing Individual Return Air Path Integrity\n   ************* All Return Air Paths passed integrity testing\n   ************* No node connection errors were found.\n   ************* Beginning Simulation\n   ** Warning ** CalcDoe2DXCoil: Coil:Cooling:DX:SingleSpeed \"COIL COOLING DX SINGLE SPEED 25 7KBTU/HR 11.0EER\" - Air-cooled condenser inlet dry-bulb temperature below 0 C. Outdoor dry-bulb temperature = -17.50\n   **   ~~~   **  ... Occurrence info = RUN PERIOD 1, 01/01 11:23 - 11:30\n   **   ~~~   ** ... Operation at low ambient temperatures may require special performance curves.\n   ** Warning ** CalcDoe2DXCoil: Coil:Cooling:DX:SingleSpeed \"COIL COOLING DX SINGLE SPEED 25 7KBTU/HR 11.0EER\" - Full load outlet air dry-bulb temperature < 2C. This indicates the possibility of coil frost/freeze. Outlet temperature = -4.23 C.\n   **   ~~~   **  ...Occurrence info = RUN PERIOD 1, 01/01 11:23 - 11:30\n   **   ~~~   ** ... Possible reasons for low outlet air dry-bulb temperatures are: This DX coil\n   **   ~~~   **    1) may have a low inlet air dry-bulb temperature. Inlet air temperature = 11.353 C.\n   **   ~~~   **    2) may have a low air flow rate per watt of cooling capacity. Check inputs.\n   **   ~~~   **    3) is used as part of a HX assisted cooling coil which uses a high sensible effectiveness. Check inputs.\n   ** Warning ** CalcDoe2DXCoil: Coil:Cooling:DX:SingleSpeed \"COIL COOLING DX SINGLE SPEED 26 7KBTU/HR 11.0EER\" - Air-cooled condenser inlet dry-bulb temperature below 0 C. Outdoor dry-bulb temperature = -17.50\n   **   ~~~   **  ... Occurrence info = RUN PERIOD 1, 01/01 11:23 - 11:30\n   **   ~~~   ** ... Operation at low ambient temperatures may require special performance curves.\n   ** Warning ** CalcDoe2DXCoil: Coil:Cooling:DX:SingleSpeed \"COIL COOLING DX SINGLE SPEED 26 7KBTU/HR 11.0EER\" - Full load outlet air dry-bulb temperature < 2C. This indicates the possibility of coil frost/freeze. Outlet temperature = -3.55 C.\n   **   ~~~   **  ...Occurrence info = RUN PERIOD 1, 01/01 11:23 - 11:30\n   **   ~~~   ** ... Possible reasons for low outlet air dry-bulb temperatures are: This DX coil\n   **   ~~~   **    1) may have a low inlet air dry-bulb temperature. Inlet air temperature = 11.841 C.\n   **   ~~~   **    2) may have a low air flow rate per watt of cooling capacity. Check inputs.\n   **   ~~~   **    3) is used as part of a HX assisted cooling coil which uses a high sensible effectiveness. Check inputs.\n   ** Warning ** CalcDoe2DXCoil: Coil:Cooling:DX:SingleSpeed \"COIL COOLING DX SINGLE SPEED 7 8KBTU/HR 10.9EER\" - Air-cooled condenser inlet dry-bulb temperature below 0 C. Outdoor dry-bulb temperature = -14.55\n   **   ~~~   **  ... Occurrence info = RUN PERIOD 1, 01/01 13:30 - 13:45\n   **   ~~~   ** ... Operation at low ambient temperatures may require special performance curves.\n   ** Warning ** CalcDoe2DXCoil: Coil:Cooling:DX:SingleSpeed \"COIL COOLING DX SINGLE SPEED 7 8KBTU/HR 10.9EER\" - Full load outlet air dry-bulb temperature < 2C. This indicates the possibility of coil frost/freeze. Outlet temperature = -1.36 C.\n   **   ~~~   **  ...Occurrence info = RUN PERIOD 1, 01/01 13:30 - 13:45\n   **   ~~~   ** ... Possible reasons for low outlet air dry-bulb temperatures are: This DX coil\n   **   ~~~   **    1) may have a low inlet air dry-bulb temperature. Inlet air temperature = 13.742 C.\n   **   ~~~   **    2) may have a low air flow rate per watt of cooling capacity. Check inputs.\n   **   ~~~   **    3) is used as part of a HX assisted cooling coil which uses a high sensible effectiveness. Check inputs.\n   ** Warning ** CalcDoe2DXCoil: Coil:Cooling:DX:SingleSpeed \"COIL COOLING DX SINGLE SPEED 9 8KBTU/HR 10.8EER\" - Air-cooled condenser inlet dry-bulb temperature below 0 C. Outdoor dry-bulb temperature = -14.55\n   **   ~~~   **  ... Occurrence info = RUN PERIOD 1, 01/01 13:30 - 13:45\n   **   ~~~   ** ... Operation at low ambient temperatures may require special performance curves.\n   ** Warning ** CalcDoe2DXCoil: Coil:Cooling:DX:SingleSpeed \"COIL COOLING DX SINGLE SPEED 9 8KBTU/HR 10.8EER\" - Full load outlet air dry-bulb temperature < 2C. This indicates the possibility of coil frost/freeze. Outlet temperature = -1.07 C.\n   **   ~~~   **  ...Occurrence info = RUN PERIOD 1, 01/01 13:30 - 13:45\n   **   ~~~   ** ... Possible reasons for low outlet air dry-bulb temperatures are: This DX coil\n   **   ~~~   **    1) may have a low inlet air dry-bulb temperature. Inlet air temperature = 13.941 C.\n   **   ~~~   **    2) may have a low air flow rate per watt of cooling capacity. Check inputs.\n   **   ~~~   **    3) is used as part of a HX assisted cooling coil which uses a high sensible effectiveness. Check inputs.\n   ** Warning ** CalcDoe2DXCoil: Coil:Cooling:DX:SingleSpeed \"COIL COOLING DX SINGLE SPEED 27 10KBTU/HR 10.3EER\" - Air-cooled condenser inlet dry-bulb temperature below 0 C. Outdoor dry-bulb temperature = -10.00\n   **   ~~~   **  ... Occurrence info = RUN PERIOD 1, 01/04 11:08 - 11:15\n   **   ~~~   ** ... Operation at low ambient temperatures may require special performance curves.\n   ** Warning ** CalcDoe2DXCoil: Coil:Cooling:DX:SingleSpeed \"COIL COOLING DX SINGLE SPEED 8 10KBTU/HR 10.4EER\" - Air-cooled condenser inlet dry-bulb temperature below 0 C. Outdoor dry-bulb temperature = -10.00\n   **   ~~~   **  ... Occurrence info = RUN PERIOD 1, 01/04 11:15 - 11:22\n   **   ~~~   ** ... Operation at low ambient temperatures may require special performance curves.\n   ** Warning ** CalcDoe2DXCoil: Coil:Cooling:DX:SingleSpeed \"COIL COOLING DX SINGLE SPEED 10 11KBTU/HR 10.1EER\" - Air-cooled condenser inlet dry-bulb temperature below 0 C. Outdoor dry-bulb temperature = -10.00\n   **   ~~~   **  ... Occurrence info = RUN PERIOD 1, 01/04 11:53 - 12:00\n   **   ~~~   ** ... Operation at low ambient temperatures may require special performance curves.\n   ** Warning ** CalcDoe2DXCoil: Coil:Cooling:DX:SingleSpeed \"COIL COOLING DX SINGLE SPEED 19 11KBTU/HR 10.1EER\" - Air-cooled condenser inlet dry-bulb temperature below 0 C. Outdoor dry-bulb temperature = -10.00\n   **   ~~~   **  ... Occurrence info = RUN PERIOD 1, 01/04 12:08 - 12:15\n   **   ~~~   ** ... Operation at low ambient temperatures may require special performance curves.\n   ** Warning ** CalcDoe2DXCoil: Coil:Cooling:DX:SingleSpeed \"COIL COOLING DX SINGLE SPEED 16 11KBTU/HR 10.1EER\" - Air-cooled condenser inlet dry-bulb temperature below 0 C. Outdoor dry-bulb temperature = -10.00\n   **   ~~~   **  ... Occurrence info = RUN PERIOD 1, 01/04 12:15 - 12:22\n   **   ~~~   ** ... Operation at low ambient temperatures may require special performance curves.\n   ** Warning ** CalcDoe2DXCoil: Coil:Cooling:DX:SingleSpeed \"COIL COOLING DX SINGLE SPEED 18 13KBTU/HR 9.8EER\" - Air-cooled condenser inlet dry-bulb temperature below 0 C. Outdoor dry-bulb temperature = -10.00\n   **   ~~~   **  ... Occurrence info = RUN PERIOD 1, 01/04 12:30 - 12:38\n   **   ~~~   ** ... Operation at low ambient temperatures may require special performance curves.\n   ** Warning ** CalcDoe2DXCoil: Coil:Cooling:DX:SingleSpeed \"COIL COOLING DX SINGLE SPEED 17 14KBTU/HR 9.5EER\" - Air-cooled condenser inlet dry-bulb temperature below 0 C. Outdoor dry-bulb temperature = -10.00\n   **   ~~~   **  ... Occurrence info = RUN PERIOD 1, 01/04 12:45 - 13:00\n   **   ~~~   ** ... Operation at low ambient temperatures may require special performance curves.\n   ** Warning ** CalcDoe2DXCoil: Coil:Cooling:DX:SingleSpeed \"COIL COOLING DX SINGLE SPEED 28 21KBTU/HR 14.0SEER\" - Full load outlet air dry-bulb temperature < 2C. This indicates the possibility of coil frost/freeze. Outlet temperature = -4.35 C.\n   **   ~~~   **  ...Occurrence info = RUN PERIOD 1, 01/22 13:15 - 13:30\n   **   ~~~   ** ... Possible reasons for low outlet air dry-bulb temperatures are: This DX coil\n   **   ~~~   **    1) may have a low inlet air dry-bulb temperature. Inlet air temperature = 11.997 C.\n   **   ~~~   **    2) may have a low air flow rate per watt of cooling capacity. Check inputs.\n   **   ~~~   **    3) is used as part of a HX assisted cooling coil which uses a high sensible effectiveness. Check inputs.\n   ** Warning ** CalcDoe2DXCoil: Coil:Cooling:DX:SingleSpeed \"COIL COOLING DX SINGLE SPEED 15 11KBTU/HR 10.1EER\" - Air-cooled condenser inlet dry-bulb temperature below 0 C. Outdoor dry-bulb temperature = -0.60\n   **   ~~~   **  ... Occurrence info = RUN PERIOD 1, 02/28 13:15 - 13:30\n   **   ~~~   ** ... Operation at low ambient temperatures may require special performance curves.\n   ** Warning ** CalcDoe2DXCoil: Coil:Cooling:DX:SingleSpeed \"COIL COOLING DX SINGLE SPEED 6 7KBTU/HR 11.0EER\" - Air-cooled condenser inlet dry-bulb temperature below 0 C. Outdoor dry-bulb temperature = -0.60\n   **   ~~~   **  ... Occurrence info = RUN PERIOD 1, 02/28 14:15 - 14:30\n   **   ~~~   ** ... Operation at low ambient temperatures may require special performance curves.\n   ** Warning ** CalcDoe2DXCoil: Coil:Cooling:DX:SingleSpeed \"COIL COOLING DX SINGLE SPEED 24 6KBTU/HR 11.0EER\" - Air-cooled condenser inlet dry-bulb temperature below 0 C. Outdoor dry-bulb temperature = -0.60\n   **   ~~~   **  ... Occurrence info = RUN PERIOD 1, 02/28 14:45 - 15:00\n   **   ~~~   ** ... Operation at low ambient temperatures may require special performance curves.\n   ** Warning ** CalcDoe2DXCoil: Coil:Cooling:DX:SingleSpeed \"COIL COOLING DX SINGLE SPEED 20 10KBTU/HR 10.5EER\" - Air-cooled condenser inlet dry-bulb temperature below 0 C. Outdoor dry-bulb temperature = -0.73\n   **   ~~~   **  ... Occurrence info = RUN PERIOD 1, 02/28 16:00 - 16:15\n   **   ~~~   ** ... Operation at low ambient temperatures may require special performance curves.\n   ** Warning ** CalcDoe2DXCoil: Coil:Cooling:DX:SingleSpeed \"COIL COOLING DX SINGLE SPEED 11 13KBTU/HR 9.7EER\" - Air-cooled condenser inlet dry-bulb temperature below 0 C. Outdoor dry-bulb temperature = -0.73\n   **   ~~~   **  ... Occurrence info = RUN PERIOD 1, 02/28 16:00 - 16:15\n   **   ~~~   ** ... Operation at low ambient temperatures may require special performance curves.\n   ** Warning ** CalcDoe2DXCoil: Coil:Cooling:DX:SingleSpeed \"COIL COOLING DX SINGLE SPEED 5 10KBTU/HR 10.3EER\" - Air-cooled condenser inlet dry-bulb temperature below 0 C. Outdoor dry-bulb temperature = -0.85\n   **   ~~~   **  ... Occurrence info = RUN PERIOD 1, 02/28 16:15 - 16:30\n   **   ~~~   ** ... Operation at low ambient temperatures may require special performance curves.\n   ** Warning ** CalcDoe2DXCoil: Coil:Cooling:DX:SingleSpeed \"COIL COOLING DX SINGLE SPEED 4 6KBTU/HR 11.0EER\" - Air-cooled condenser inlet dry-bulb temperature below 0 C. Outdoor dry-bulb temperature = -0.60\n   **   ~~~   **  ... Occurrence info = RUN PERIOD 1, 03/23 20:45 - 21:00\n   **   ~~~   ** ... Operation at low ambient temperatures may require special performance curves.\n   ** Warning ** CalcDoe2DXCoil: Coil:Cooling:DX:SingleSpeed \"COIL COOLING DX SINGLE SPEED 4 6KBTU/HR 11.0EER\" - Full load outlet air dry-bulb temperature < 2C. This indicates the possibility of coil frost/freeze. Outlet temperature = 1.31 C.\n   **   ~~~   **  ...Occurrence info = RUN PERIOD 1, 03/23 20:45 - 21:00\n   **   ~~~   ** ... Possible reasons for low outlet air dry-bulb temperatures are: This DX coil\n   **   ~~~   **    1) may have a low inlet air dry-bulb temperature. Inlet air temperature = 15.290 C.\n   **   ~~~   **    2) may have a low air flow rate per watt of cooling capacity. Check inputs.\n   **   ~~~   **    3) is used as part of a HX assisted cooling coil which uses a high sensible effectiveness. Check inputs.\n   ** Warning ** CalcDoe2DXCoil: Coil:Cooling:DX:SingleSpeed \"COIL COOLING DX SINGLE SPEED 23 9KBTU/HR 10.5EER\" - Air-cooled condenser inlet dry-bulb temperature below 0 C. Outdoor dry-bulb temperature = -0.68\n   **   ~~~   **  ... Occurrence info = RUN PERIOD 1, 04/05 09:00 - 09:05\n   **   ~~~   ** ... Operation at low ambient temperatures may require special performance curves.\n   ** Warning ** CalcDoe2DXCoil: Coil:Cooling:DX:SingleSpeed \"COIL COOLING DX SINGLE SPEED 2 10KBTU/HR 10.4EER\" - Air-cooled condenser inlet dry-bulb temperature below 0 C. Outdoor dry-bulb temperature = -0.25\n   **   ~~~   **  ... Occurrence info = RUN PERIOD 1, 04/05 09:15 - 09:30\n   **   ~~~   ** ... Operation at low ambient temperatures may require special performance curves.\n   ** Warning ** CalcDoe2DXCoil: Coil:Cooling:DX:SingleSpeed \"COIL COOLING DX SINGLE SPEED 3 6KBTU/HR 11.0EER\" - Full load outlet air dry-bulb temperature < 2C. This indicates the possibility of coil frost/freeze. Outlet temperature = 1.89 C.\n   **   ~~~   **  ...Occurrence info = RUN PERIOD 1, 04/05 20:45 - 21:00\n   **   ~~~   ** ... Possible reasons for low outlet air dry-bulb temperatures are: This DX coil\n   **   ~~~   **    1) may have a low inlet air dry-bulb temperature. Inlet air temperature = 15.667 C.\n   **   ~~~   **    2) may have a low air flow rate per watt of cooling capacity. Check inputs.\n   **   ~~~   **    3) is used as part of a HX assisted cooling coil which uses a high sensible effectiveness. Check inputs.\n   ** Warning ** CalcDoe2DXCoil: Coil:Cooling:DX:SingleSpeed \"COIL COOLING DX SINGLE SPEED 22 5KBTU/HR 11.0EER\" - Full load outlet air dry-bulb temperature < 2C. This indicates the possibility of coil frost/freeze. Outlet temperature = 1.69 C.\n   **   ~~~   **  ...Occurrence info = RUN PERIOD 1, 04/10 19:45 - 20:00\n   **   ~~~   ** ... Possible reasons for low outlet air dry-bulb temperatures are: This DX coil\n   **   ~~~   **    1) may have a low inlet air dry-bulb temperature. Inlet air temperature = 15.223 C.\n   **   ~~~   **    2) may have a low air flow rate per watt of cooling capacity. Check inputs.\n   **   ~~~   **    3) is used as part of a HX assisted cooling coil which uses a high sensible effectiveness. Check inputs.\n   ** Warning ** CalcDoe2DXCoil: Coil:Cooling:DX:SingleSpeed \"COIL COOLING DX SINGLE SPEED 3 6KBTU/HR 11.0EER\" - Air-cooled condenser inlet dry-bulb temperature below 0 C. Outdoor dry-bulb temperature = -0.28\n   **   ~~~   **  ... Occurrence info = RUN PERIOD 1, 04/10 23:00 - 23:15\n   **   ~~~   ** ... Operation at low ambient temperatures may require special performance curves.\n   ** Warning ** CalcDoe2DXCoil: Coil:Cooling:DX:SingleSpeed \"COIL COOLING DX SINGLE SPEED 1 88KBTU/HR 9.7EER\" - Full load outlet air dry-bulb temperature < 2C. This indicates the possibility of coil frost/freeze. Outlet temperature = 0.22 C.\n   **   ~~~   **  ...Occurrence info = RUN PERIOD 1, 04/14 12:45 - 13:00\n   **   ~~~   ** ... Possible reasons for low outlet air dry-bulb temperatures are: This DX coil\n   **   ~~~   **    1) may have a low inlet air dry-bulb temperature. Inlet air temperature = 18.900 C.\n   **   ~~~   **    2) may have a low air flow rate per watt of cooling capacity. Check inputs.\n   **   ~~~   **    3) is used as part of a HX assisted cooling coil which uses a high sensible effectiveness. Check inputs.\n   ** Warning ** CalcDoe2DXCoil: Coil:Cooling:DX:SingleSpeed \"COIL COOLING DX SINGLE SPEED 21 5KBTU/HR 11.0EER\" - Full load outlet air dry-bulb temperature < 2C. This indicates the possibility of coil frost/freeze. Outlet temperature = 1.81 C.\n   **   ~~~   **  ...Occurrence info = RUN PERIOD 1, 04/15 19:45 - 20:00\n   **   ~~~   ** ... Possible reasons for low outlet air dry-bulb temperatures are: This DX coil\n   **   ~~~   **    1) may have a low inlet air dry-bulb temperature. Inlet air temperature = 15.663 C.\n   **   ~~~   **    2) may have a low air flow rate per watt of cooling capacity. Check inputs.\n   **   ~~~   **    3) is used as part of a HX assisted cooling coil which uses a high sensible effectiveness. Check inputs.\n   ************* Simulation Error Summary *************\n   ************* There are 9 unused schedules in input.\n   ************* There are 9 unused week schedules in input.\n   ************* There are 17 unused day schedules in input.\n   ************* Use Output:Diagnostics,DisplayUnusedSchedules; to see them.\n   *************\n   ************* ===== Recurring Error Summary =====\n   ************* The following recurring error messages occurred.\n   *************\n   *************  ** Warning ** CalcDoe2DXCoil: Coil:Cooling:DX:SingleSpeed=\"COIL COOLING DX SINGLE SPEED 25 7KBTU/HR 11.0EER\" - Low condenser dry-bulb temperature error continues...\n   *************  **   ~~~   **   This error occurred 1338 total times;\n   *************  **   ~~~   **   during Warmup 0 times;\n   *************  **   ~~~   **   during Sizing 0 times.\n   *************  **   ~~~   **   Max=-0.1 [C]  Min=-18.3 [C]\n   *************\n   *************  ** Warning ** CalcDoe2DXCoil: Coil:Cooling:DX:SingleSpeed=\"COIL COOLING DX SINGLE SPEED 25 7KBTU/HR 11.0EER\" - Full load outlet temperature indicates a possibility of frost/freeze error continues. Outlet air temperature statistics follow:\n   *************  **   ~~~   **   This error occurred 1583 total times;\n   *************  **   ~~~   **   during Warmup 0 times;\n   *************  **   ~~~   **   during Sizing 0 times.\n   *************  **   ~~~   **   Max=1.997849  Min=-4.469007\n   *************\n   *************  ** Warning ** CalcDoe2DXCoil: Coil:Cooling:DX:SingleSpeed=\"COIL COOLING DX SINGLE SPEED 26 7KBTU/HR 11.0EER\" - Low condenser dry-bulb temperature error continues...\n   *************  **   ~~~   **   This error occurred 1324 total times;\n   *************  **   ~~~   **   during Warmup 0 times;\n   *************  **   ~~~   **   during Sizing 0 times.\n   *************  **   ~~~   **   Max=-0.1 [C]  Min=-18.3 [C]\n   *************\n   *************  ** Warning ** CalcDoe2DXCoil: Coil:Cooling:DX:SingleSpeed=\"COIL COOLING DX SINGLE SPEED 26 7KBTU/HR 11.0EER\" - Full load outlet temperature indicates a possibility of frost/freeze error continues. Outlet air temperature statistics follow:\n   *************  **   ~~~   **   This error occurred 1431 total times;\n   *************  **   ~~~   **   during Warmup 0 times;\n   *************  **   ~~~   **   during Sizing 0 times.\n   *************  **   ~~~   **   Max=1.999702  Min=-3.739833\n   *************\n   *************  ** Warning ** CalcDoe2DXCoil: Coil:Cooling:DX:SingleSpeed=\"COIL COOLING DX SINGLE SPEED 7 8KBTU/HR 10.9EER\" - Low condenser dry-bulb temperature error continues...\n   *************  **   ~~~   **   This error occurred 2390 total times;\n   *************  **   ~~~   **   during Warmup 0 times;\n   *************  **   ~~~   **   during Sizing 0 times.\n   *************  **   ~~~   **   Max=-5.000000E-002 [C]  Min=-17.375 [C]\n   *************\n   *************  ** Warning ** CalcDoe2DXCoil: Coil:Cooling:DX:SingleSpeed=\"COIL COOLING DX SINGLE SPEED 7 8KBTU/HR 10.9EER\" - Full load outlet temperature indicates a possibility of frost/freeze error continues. Outlet air temperature statistics follow:\n   *************  **   ~~~   **   This error occurred 1650 total times;\n   *************  **   ~~~   **   during Warmup 0 times;\n   *************  **   ~~~   **   during Sizing 0 times.\n   *************  **   ~~~   **   Max=1.999168  Min=-1.919292\n   *************\n   *************  ** Warning ** CalcDoe2DXCoil: Coil:Cooling:DX:SingleSpeed=\"COIL COOLING DX SINGLE SPEED 9 8KBTU/HR 10.8EER\" - Low condenser dry-bulb temperature error continues...\n   *************  **   ~~~   **   This error occurred 2345 total times;\n   *************  **   ~~~   **   during Warmup 0 times;\n   *************  **   ~~~   **   during Sizing 0 times.\n   *************  **   ~~~   **   Max=-5.000000E-002 [C]  Min=-17.375 [C]\n   *************\n   *************  ** Warning ** CalcDoe2DXCoil: Coil:Cooling:DX:SingleSpeed=\"COIL COOLING DX SINGLE SPEED 9 8KBTU/HR 10.8EER\" - Full load outlet temperature indicates a possibility of frost/freeze error continues. Outlet air temperature statistics follow:\n   *************  **   ~~~   **   This error occurred 1391 total times;\n   *************  **   ~~~   **   during Warmup 0 times;\n   *************  **   ~~~   **   during Sizing 0 times.\n   *************  **   ~~~   **   Max=1.999628  Min=-2.018365\n   *************\n   *************  ** Warning ** CalcDoe2DXCoil: Coil:Cooling:DX:SingleSpeed=\"COIL COOLING DX SINGLE SPEED 27 10KBTU/HR 10.3EER\" - Low condenser dry-bulb temperature error continues...\n   *************  **   ~~~   **   This error occurred 1183 total times;\n   *************  **   ~~~   **   during Warmup 0 times;\n   *************  **   ~~~   **   during Sizing 0 times.\n   *************  **   ~~~   **   Max=-0.1 [C]  Min=-17.375 [C]\n   *************\n   *************  ** Warning ** CalcDoe2DXCoil: Coil:Cooling:DX:SingleSpeed=\"COIL COOLING DX SINGLE SPEED 8 10KBTU/HR 10.4EER\" - Low condenser dry-bulb temperature error continues...\n   *************  **   ~~~   **   This error occurred 1448 total times;\n   *************  **   ~~~   **   during Warmup 0 times;\n   *************  **   ~~~   **   during Sizing 0 times.\n   *************  **   ~~~   **   Max=-0.1 [C]  Min=-17.8 [C]\n   *************\n   *************  ** Warning ** CalcDoe2DXCoil: Coil:Cooling:DX:SingleSpeed=\"COIL COOLING DX SINGLE SPEED 10 11KBTU/HR 10.1EER\" - Low condenser dry-bulb temperature error continues...\n   *************  **   ~~~   **   This error occurred 1425 total times;\n   *************  **   ~~~   **   during Warmup 0 times;\n   *************  **   ~~~   **   during Sizing 0 times.\n   *************  **   ~~~   **   Max=-5.000000E-002 [C]  Min=-16.525 [C]\n   *************\n   *************  ** Warning ** CalcDoe2DXCoil: Coil:Cooling:DX:SingleSpeed=\"COIL COOLING DX SINGLE SPEED 19 11KBTU/HR 10.1EER\" - Low condenser dry-bulb temperature error continues...\n   *************  **   ~~~   **   This error occurred 609 total times;\n   *************  **   ~~~   **   during Warmup 0 times;\n   *************  **   ~~~   **   during Sizing 0 times.\n   *************  **   ~~~   **   Max=-0.1 [C]  Min=-16.525 [C]\n   *************\n   *************  ** Warning ** CalcDoe2DXCoil: Coil:Cooling:DX:SingleSpeed=\"COIL COOLING DX SINGLE SPEED 16 11KBTU/HR 10.1EER\" - Low condenser dry-bulb temperature error continues...\n   *************  **   ~~~   **   This error occurred 599 total times;\n   *************  **   ~~~   **   during Warmup 0 times;\n   *************  **   ~~~   **   during Sizing 0 times.\n   *************  **   ~~~   **   Max=-0.1 [C]  Min=-16.525 [C]\n   *************\n   *************  ** Warning ** CalcDoe2DXCoil: Coil:Cooling:DX:SingleSpeed=\"COIL COOLING DX SINGLE SPEED 18 13KBTU/HR 9.8EER\" - Low condenser dry-bulb temperature error continues...\n   *************  **   ~~~   **   This error occurred 604 total times;\n   *************  **   ~~~   **   during Warmup 0 times;\n   *************  **   ~~~   **   during Sizing 0 times.\n   *************  **   ~~~   **   Max=-0.1 [C]  Min=-17.375 [C]\n   *************\n   *************  ** Warning ** CalcDoe2DXCoil: Coil:Cooling:DX:SingleSpeed=\"COIL COOLING DX SINGLE SPEED 17 14KBTU/HR 9.5EER\" - Low condenser dry-bulb temperature error continues...\n   *************  **   ~~~   **   This error occurred 553 total times;\n   *************  **   ~~~   **   during Warmup 0 times;\n   *************  **   ~~~   **   during Sizing 0 times.\n   *************  **   ~~~   **   Max=-0.1 [C]  Min=-16.1 [C]\n   *************\n   *************  ** Warning ** CalcDoe2DXCoil: Coil:Cooling:DX:SingleSpeed=\"COIL COOLING DX SINGLE SPEED 28 21KBTU/HR 14.0SEER\" - Full load outlet temperature indicates a possibility of frost/freeze error continues. Outlet air temperature statistics follow:\n   *************  **   ~~~   **   This error occurred 830 total times;\n   *************  **   ~~~   **   during Warmup 0 times;\n   *************  **   ~~~   **   during Sizing 0 times.\n   *************  **   ~~~   **   Max=1.99639  Min=-5.417676\n   *************\n   *************  ** Warning ** CalcDoe2DXCoil: Coil:Cooling:DX:SingleSpeed=\"COIL COOLING DX SINGLE SPEED 15 11KBTU/HR 10.1EER\" - Low condenser dry-bulb temperature error continues...\n   *************  **   ~~~   **   This error occurred 26 total times;\n   *************  **   ~~~   **   during Warmup 0 times;\n   *************  **   ~~~   **   during Sizing 0 times.\n   *************  **   ~~~   **   Max=-0.15 [C]  Min=-1.7 [C]\n   *************\n   *************  ** Warning ** CalcDoe2DXCoil: Coil:Cooling:DX:SingleSpeed=\"COIL COOLING DX SINGLE SPEED 6 7KBTU/HR 11.0EER\" - Low condenser dry-bulb temperature error continues...\n   *************  **   ~~~   **   This error occurred 388 total times;\n   *************  **   ~~~   **   during Warmup 0 times;\n   *************  **   ~~~   **   during Sizing 0 times.\n   *************  **   ~~~   **   Max=-0.1 [C]  Min=-8.3 [C]\n   *************\n   *************  ** Warning ** CalcDoe2DXCoil: Coil:Cooling:DX:SingleSpeed=\"COIL COOLING DX SINGLE SPEED 24 6KBTU/HR 11.0EER\" - Low condenser dry-bulb temperature error continues...\n   *************  **   ~~~   **   This error occurred 6 total times;\n   *************  **   ~~~   **   during Warmup 0 times;\n   *************  **   ~~~   **   during Sizing 0 times.\n   *************  **   ~~~   **   Max=-0.6 [C]  Min=-0.725 [C]\n   *************\n   *************  ** Warning ** CalcDoe2DXCoil: Coil:Cooling:DX:SingleSpeed=\"COIL COOLING DX SINGLE SPEED 20 10KBTU/HR 10.5EER\" - Low condenser dry-bulb temperature error continues...\n   *************  **   ~~~   **   This error occurred 39 total times;\n   *************  **   ~~~   **   during Warmup 0 times;\n   *************  **   ~~~   **   during Sizing 0 times.\n   *************  **   ~~~   **   Max=-0.15 [C]  Min=-5.55 [C]\n   *************\n   *************  ** Warning ** CalcDoe2DXCoil: Coil:Cooling:DX:SingleSpeed=\"COIL COOLING DX SINGLE SPEED 11 13KBTU/HR 9.7EER\" - Low condenser dry-bulb temperature error continues...\n   *************  **   ~~~   **   This error occurred 11 total times;\n   *************  **   ~~~   **   during Warmup 0 times;\n   *************  **   ~~~   **   during Sizing 0 times.\n   *************  **   ~~~   **   Max=-0.15 [C]  Min=-1.375 [C]\n   *************\n   *************  ** Warning ** CalcDoe2DXCoil: Coil:Cooling:DX:SingleSpeed=\"COIL COOLING DX SINGLE SPEED 5 10KBTU/HR 10.3EER\" - Low condenser dry-bulb temperature error continues...\n   *************  **   ~~~   **   This error occurred 63 total times;\n   *************  **   ~~~   **   during Warmup 0 times;\n   *************  **   ~~~   **   during Sizing 0 times.\n   *************  **   ~~~   **   Max=-0.15 [C]  Min=-5. [C]\n   *************\n   *************  ** Warning ** CalcDoe2DXCoil: Coil:Cooling:DX:SingleSpeed=\"COIL COOLING DX SINGLE SPEED 4 6KBTU/HR 11.0EER\" - Low condenser dry-bulb temperature error continues...\n   *************  **   ~~~   **   This error occurred 4 total times;\n   *************  **   ~~~   **   during Warmup 0 times;\n   *************  **   ~~~   **   during Sizing 0 times.\n   *************  **   ~~~   **   Max=-0.275 [C]  Min=-0.825 [C]\n   *************\n   *************  ** Warning ** CalcDoe2DXCoil: Coil:Cooling:DX:SingleSpeed=\"COIL COOLING DX SINGLE SPEED 4 6KBTU/HR 11.0EER\" - Full load outlet temperature indicates a possibility of frost/freeze error continues. Outlet air temperature statistics follow:\n   *************  **   ~~~   **   This error occurred 21 total times;\n   *************  **   ~~~   **   during Warmup 0 times;\n   *************  **   ~~~   **   during Sizing 0 times.\n   *************  **   ~~~   **   Max=1.99083  Min=1.191442\n   *************\n   *************  ** Warning ** CalcDoe2DXCoil: Coil:Cooling:DX:SingleSpeed=\"COIL COOLING DX SINGLE SPEED 23 9KBTU/HR 10.5EER\" - Low condenser dry-bulb temperature error continues...\n   *************  **   ~~~   **   This error occurred 4 total times;\n   *************  **   ~~~   **   during Warmup 0 times;\n   *************  **   ~~~   **   during Sizing 0 times.\n   *************  **   ~~~   **   Max=-0.25 [C]  Min=-0.675 [C]\n   *************\n   *************  ** Warning ** CalcDoe2DXCoil: Coil:Cooling:DX:SingleSpeed=\"COIL COOLING DX SINGLE SPEED 2 10KBTU/HR 10.4EER\" - Low condenser dry-bulb temperature error continues...\n   *************  **   ~~~   **   This error occurred 1 total times;\n   *************  **   ~~~   **   during Warmup 0 times;\n   *************  **   ~~~   **   during Sizing 0 times.\n   *************  **   ~~~   **   Max=-0.25 [C]  Min=-0.25 [C]\n   *************\n   *************  ** Warning ** CalcDoe2DXCoil: Coil:Cooling:DX:SingleSpeed=\"COIL COOLING DX SINGLE SPEED 3 6KBTU/HR 11.0EER\" - Full load outlet temperature indicates a possibility of frost/freeze error continues. Outlet air temperature statistics follow:\n   *************  **   ~~~   **   This error occurred 23 total times;\n   *************  **   ~~~   **   during Warmup 0 times;\n   *************  **   ~~~   **   during Sizing 0 times.\n   *************  **   ~~~   **   Max=1.992997  Min=1.075948\n   *************\n   *************  ** Warning ** CalcDoe2DXCoil: Coil:Cooling:DX:SingleSpeed=\"COIL COOLING DX SINGLE SPEED 22 5KBTU/HR 11.0EER\" - Full load outlet temperature indicates a possibility of frost/freeze error continues. Outlet air temperature statistics follow:\n   *************  **   ~~~   **   This error occurred 8 total times;\n   *************  **   ~~~   **   during Warmup 0 times;\n   *************  **   ~~~   **   during Sizing 0 times.\n   *************  **   ~~~   **   Max=1.958839  Min=1.694385\n   *************\n   *************  ** Warning ** CalcDoe2DXCoil: Coil:Cooling:DX:SingleSpeed=\"COIL COOLING DX SINGLE SPEED 3 6KBTU/HR 11.0EER\" - Low condenser dry-bulb temperature error continues...\n   *************  **   ~~~   **   This error occurred 3 total times;\n   *************  **   ~~~   **   during Warmup 0 times;\n   *************  **   ~~~   **   during Sizing 0 times.\n   *************  **   ~~~   **   Max=-0.275 [C]  Min=-0.825 [C]\n   *************\n   *************  ** Warning ** CalcDoe2DXCoil: Coil:Cooling:DX:SingleSpeed=\"COIL COOLING DX SINGLE SPEED 1 88KBTU/HR 9.7EER\" - Full load outlet temperature indicates a possibility of frost/freeze error continues. Outlet air temperature statistics follow:\n   *************  **   ~~~   **   This error occurred 36 total times;\n   *************  **   ~~~   **   during Warmup 0 times;\n   *************  **   ~~~   **   during Sizing 0 times.\n   *************  **   ~~~   **   Max=1.998856  Min=-0.344972\n   *************\n   *************  ** Warning ** CalcDoe2DXCoil: Coil:Cooling:DX:SingleSpeed=\"COIL COOLING DX SINGLE SPEED 21 5KBTU/HR 11.0EER\" - Full load outlet temperature indicates a possibility of frost/freeze error continues. Outlet air temperature statistics follow:\n   *************  **   ~~~   **   This error occurred 9 total times;\n   *************  **   ~~~   **   during Warmup 0 times;\n   *************  **   ~~~   **   during Sizing 0 times.\n   *************  **   ~~~   **   Max=1.997149  Min=1.706205\n   *************\n   *************\n   ************* ===== Final Error Summary =====\n   ************* The following error categories occurred.  Consider correcting or noting.\n   ************* Nominally Unused Constructions\n   ************* ..The nominally unused constructions warning is provided to alert you to potential conditions that can cause\n   ************* ..extra time during simulation. Each construction is calculated by the algorithm indicated in the HeatBalanceAlgorithm\n   ************* ..object. You may remove the constructions indicated (when you use the DisplayExtraWarnings option).\n   *************\n   ************* EnergyPlus Warmup Error Summary. During Warmup: 0 Warning; 0 Severe Errors.\n   ************* EnergyPlus Sizing Error Summary. During Sizing: 181 Warning; 0 Severe Errors.\n   ************* EnergyPlus Completed Successfully-- 21558 Warning; 0 Severe Errors; Elapsed Time=00hr 02min 52.28sec\n",
   "file_format_version" : "0.0.1",
   "file_paths" : [ "../weather", "../seeds", "../seed" ],
   "hash" : "702C6FD2",
   "measure_paths" : [ "../measures" ],
   "name" : "LHS Autogenerated 1019",
   "osa_id" : "4fef0e0f-5396-4c55-a6e1-2cd6803db3ab",
   "osd_id" : "0a07fe7e-1cae-43a1-98c9-73dbfef196ae",
   "run_directory" : "./run",
   "seed_file" : "seed.osm",
   "started_at" : "20170710T192905Z",
   "steps" : [
      {
         "arguments" : {
            "__SKIP__" : false,
            "building_type" : "MidriseApartment",
            "climate_zone" : "NECB HDD Method",
            "epw_file" : "CAN_ON_Toronto.716240_CWEC.epw",
            "template" : "NECB 2011"
         },
         "measure_dir_name" : "create_prototype_building",
         "name" : "create_prototype_building",
         "result" : {
            "completed_at" : "20170710T193024Z",
            "measure_class_name" : "CreatePrototypeBuilding",
            "measure_display_name" : "Create Prototype Building",
            "measure_name" : "create_prototype_building",
            "measure_taxonomy" : "Whole Building.Space Types",
            "measure_type" : "ModelMeasure",
            "measure_uid" : "ae90fsd7-a651-467a-bc8d-29d310b0f937",
            "measure_version_id" : "c6ec5c18-5595-459f-a082-09a19c8c869c",
            "measure_version_modified" : "20170519T182315Z",
            "measure_xml_checksum" : "057E8D9D",
            "started_at" : "20170710T192907Z",
            "stderr" : "",
[...]
VIPdhvQpqGgVK8Hiw1o09DNmGr2YKsBbRoKSjV7sNLmtWnLHKBNQ0H1KwLaNBRUH36gTUNB9eEH2jQUVB9+ok1jSbFuDzYb0aaxpFi9B8uNaNNYUqzhg/1GtGnsrox1fLDiiDaNJcU6PthyatPUpqlN+0SoNu191KapTVObNhi1aWrTVv1VatMWz1/xebVpj6M27T4v+JbWxuwC4ogjjjjiiCOOOOKII444u8fZmHRAGmmkkUYaaaSRRhpppJFmPzTfRnYgjjjiiCOOOOKII4444ogz/zy1aR+jNu2uTWv70Kadd6BNO3+ZNu3tR49Y00jOIZRzDOWcQjnnUM4llHMN5dxCOYsf3aOgVKNbqtIt1emWKnVLtbqlat1SvW6pYrdUs3uq2T12V6ea3VPN7qua/bwebRE1b0cDMeUbmnejgZjy3M+b0UBMeebnvWggpjzvwIpGckI9rtcYUKKRnFCV6x0GfGgkJ9TmeoEBGRq5B0N9rrcXMKGRnFCf69U1r0FbxAALGskpXw9woJGc8rgDAxrJKY878J+RnPK4E/sZCko1ut5gRH2GglKlrpcY8Z6hoFSv6z1GpGfoZkw1u15lxHiGglLNrreZujN1Z+rOPhGqO3sfdWfqztSdDUbdmbqzVX+VurPF81d8Xt3Z46g7u88Lvl21MSuAOOKII4444ogjjjjiiCPO7nE2JguQRhpppJFGGmmkkUYaaaTZD823kRSII4444ogjjjjiiCOOOOLMP0/d2ceoO7vrzvo+dGeXHejOLl+oO3s7hXxnIOiQCjqmgk6poHMq6JIKuqaCbqmgX35uT5Ji3W6xcrdYu1us3i3W7xYreIs1vMUq3mId77GO99z9Het4j3W8r+v4Gg3aYxbxoM3n1G+JmNDmc+pbgLjQ5nPqG4DY0OZz6tOPfGggKNXowXpDSjQQlCr1YLchKxoISvV6sNiQGA3cjKlmD7YacqOBoFSzByuN6NEec5AfDQTVrwgZ0kBQffiRIw0E1YcfWdJAUH34mSeNJMW6PdhsTJVGkmL1Hiw3ZksjSbGGD/YbE6aRuzLW8cGKY840khTr+GDLqU1Tm6Y27ROh2rT3UZumNk1t2mDUpqlNW/VXqU1bPH/F59WmPY7atPu84FtaG7MLiCOOOOKII4444ogjjjji7B5nY9IBaaSRRhpppJFGGmmkkUaa/dB8G9mBOOKII4444ogjjjjiiCPO/PPUpn2M2rS7Nu2wD23adQfatOuXadPOP38UOqu4SQUdUkHHVNApFXROBV1SQddU0C0VtPj1PUuKdbvFyt1i7W6xerdYv1us4C3W8BareIt1vMc63nP3d6zjPdbxvq7jz2vTllnz2jSSU7+leW0ayalvgXltGsmpb4B5bRrJqU8/0KahoFSjB+sNaNNQUKrUg90GtGkoKNXrwWID2jR0M6aaPdhqQJuGglLNHqy0eW3aMgdo01BQ/YqANg0F1YcfaNNQUH34gTYNBdWHn2jTWFKs24PNRrRpLClW78FyI9o0lhRr+GC/EW0auytjHR+sOKJNY0mxjg+2nNo0tWlq0z4Rqk17H7VpatPUpg1GbZratFV/ldq0xfNXfF5t2uOoTbvPC76ltTG7gDjiiCOOOOKII4444ogjzu5xNiYdkEYaaaSRRhpppJFGGmmk2Q/Nt5EdiCOOOOKII4444ogjjjjizD9PbdrHqE27a9OO+9Cm3XagTbt9mTbt7UePWNNIziGUcwzlnEI551DOJZRzDeXcQjmLH92joFSjW6rSLdXplip1S7W6pWrdUr1uqWK3VLN7qtk9dlenmt1Tze6rmv28Hm0RNW9HAzHlG5p3o4GY8tzPm9FATHnm571oIKY878CKRnJCPa7XGFCikZxQlesdBnxoJCfU5nqBARkauQdDfa63FzChkZxQn+vVNa9BW8QACxrJKV8PcKCRnPK4AwMaySmPO/CfkZzyuBP7GQpKNbreYER9hoJSpa6XGPGeoaBUr+s9RqRn6GZMNbteZcR4hoJSza63mbozdWfqzj4Rqjt7H3Vn6s7UnQ1G3Zm6s1V/lbqzxfNXfF7d2eOoO7vPC75dtTErgDjiiCOOOOKII4444ogjzu5xNiYLkEYaaaSRRhpppJFGGmmk2Q/Nt5EUiCOOOOKII4444ogjjjjizD9P3dnHqDu7685Ou9CdXd62rzv7K+PX6c7eTiHfGQg6pIKOqaBTKuicCrqkgq6poFsq6Jef25OkWLdbrNwt1u4Wq3eL9bvFCt5iDW+xirdYx3us4z13f8c63mMd7+s6vkaD9phFPGjzOfVbIia0+Zz6FiAutPmc+gYgNrT5nPr0Ix8aCEo1erDekBINBKVKPdhtyIoGglK9Hiw2JEYDN2Oq2YOthtxoICjV7MFKI3q0xxzkRwNB9StChjQQVB9+5EgDQfXhR5Y0EFQffuZJI0mxbg82G1OlkaRYvQfLjdnSSFKs4YP9xoRp5K6MdXyw4pgzjSTFOj7YcmrT1KapTftEqDbtfdSmqU1TmzYYtWlq01b9VWrTFs9f8Xm1aY+jNu0+L/iW1sbsAuKII4444ogjjjjiiCOOOLvH2Zh0QBpppJFGGmmkkUYaaaSRZj8030Z2II444ogjjjjiiCOOOOKIM/88tWkfozbtrk0770Ob1nagTWtfpk07//xR6KziJhV0SAUdU0GnVNA5FXRJBV1TQbdU0OLX9ywp1u0WK3eLtbvF6t1i/W6xgrdYw1us4i3W8R7reM/d37GO91jH+7qOP69NW2bNa9NITv2W5rVpJKe+Bea1aSSnvgHmtWkkpz79QJuGglKNHqw3oE1DQalSD3Yb0KahoFSvB4sNaNPQzZhq9mCrAW0aCko1e7DS5rVpyxygTUNB9SsC2jQUVB9+oE1DQfXhB9o0FFQffqJNY0mxbg82G9GmsaRYvQfLjWjTWFKs4YP9RrRp7K6MdXyw4og2jSXFOj7YcmrT1KapTftEqDbtfdSmqU1TmzYYtWlq01b9VWrTFs9f8Xm1aY+jNu0+L/iW1sbsAuKII4444ogjjjjiiCOOOLvH2Zh0QBpppJFGGmmkkUYaaaSRZj8030Z2II444ogjjjjiiCOOOOKIM/88tWkfozbtrk277EOb1negTetfpk17+9Ej1jSScwjlHEM5p1DOOZRzCeVcQzm3UM7iR/coKNXolqp0S3W6pUrdUq1uqVq3VK9bqtgt1eyeanaP3dWpZvdUs/uqZj+vR1tEzdvRQEz5hubdaCCmPPfzZjQQU575eS8aiCnPO7CikZxQj+s1BpRoJCdU5XqHAR8ayQm1uV5gQIZG7sFQn+vtBUxoJCfU53p1zWvQFjHAgkZyytcDHGgkpzzuwIBGcsrjDvxnJKc87sR+hoJSja43GFGfoaBUqeslRrxnKCjV63qPEekZuhlTza5XGTGeoaBUs+ttpu5M3Zm6s0+E6s7eR92ZujN1Z4NRd6bubNVfpe5s8fwVn1d39jjqzu7zgm9XbcwKII444ogjjjjiiCOOOOKIs3ucjckCpJFGGmmkkUYaaaSRRhpp9kPzbSQF4ogjjjjiiCOOOOKII444889Td/Yx6s7uurPrPnRnhx3ozg5fqDt7O4V8ZyDokAo6poJOqaBzKuiSCrqmgm6poF9+bk+SYt1usXK3WLtbrN4t1u8WK3iLNbzFKt5iHe+xjvfc/R3reI91vK/r+BoN2mMW8aDN59RviZjQ5nPqW4C40OZz6huA2NDmc+rTj3xoICjV6MF6Q0o0EJQq9WC3ISsaCEr1erDYkBgN3IypZg+2GnKjgaBUswcrjejRHnOQHw0E1a8IGdJAUH34kSMNBNWHH1nSQFB9+JknjSTFuj3YbEyVRpJi9R4sN2ZLI0mxhg/2GxOmkbsy1vHBimPONJIU6/hgy6lNU5umNu0Todq091GbpjZNbdpg1KapTVv1V6lNWzx/xefVpj2O2rT7vOBbWhuzC4gjjjjiiCOOOOKII4444uweZ2PSAWmkkUYaaaSRRhpppJFGmv3QfBvZgTjiiCOOOOKII4444ogjzvzz1KZ9jNq0uzbttg9t2nEH2rTjl2nTzj9/FDqruEkFHVJBx1TQKRV0TgVdUkHXVNAtFbT49T1LinW7xcrdYu1usXq3WL9brOAt1vAWq3iLdbzHOt5z93es4z3W8b6u489r05ZZ89o0klO/pXltGsmpb4F5bRrJqW+AeW0ayalPP9CmoaBUowfrDWjTUFCq1IPdBrRpKCjV68FiA9o0dDOmmj3YakCbhoJSzR6stHlt2jIHaNNQUP2KgDYNBdWHH2jTUFB9+IE2DQXVh59o01hSrNuDzUa0aSwpVu/BciPaNJYUa/hgvxFtGrsrYx0frDiiTWNJsY4PtpzaNLVpatM+EapNex+1aWrT1KYNRm2a2rRVf5XatMXzV3xebdrjqE27zwu+pbUxu4A44ogjjjjiiCOOOOKII87ucTYmHZBGGmmkkUYaaaSRRhpppNkPzbeRHYgjjjjiiCOOOOKII4444sw/T23ax6hN+12bdtqHNe20A2vaSWvaXJDWtD8O0pr2VJLWNK1pWtO0pmlN05qmNU1rmta0v3kzak374yCtaX8YpDVNa5rWNK1psSStac8laU2rYbSmaU37dbSm/Y6vNe3X0Zr2zGhNW/d5rWla01b9VVrTFs9f8XmtaY+jNe0+L/iS1sbkAuKII4444ogjjjjiiCOOOLvH2ZhzQBpppJFGGmmkkUYaaaSRZj8038Z1II444ogjjjjiiCOOOOKIM/88rWkfozXtbk1724c27bwDbdr5y7Rpbz96xJpGcg6hnGMo5xTKOYdyLqGcayjnFspZ/OgeBaUa3VKVbqlOt1SpW6rVLVXrlup1SxW7pZrdU83usbs61eyeanZf1ezn9WiLqHk7Gogp39C8Gw3ElOd+3owGYsozP+9FAzHleQdWNJIT6nG9xoASjeSEqlzvMOBDIzmhNtcLDMjQyD0Y6nO9vYAJjeSE+lyvrnkN2iIGWNBITvl6gAON5JTHHRjQSE553IH/jOSUx53Yz1BQqtH1BiPqMxSUKnW9xIj3DAWlel3vMSI9Qzdjqtn1KiPGMxSUana9zdSdqTtTd/aJUN3Z+6g7U3em7mww6s7Una36q9SdLZ6/4vPqzh5H3dl9XvDtqo1ZAcQRRxxxxBFHHHHEEUcccXaPszFZgDTSSCONNNJII4000kgjzX5ovo2kQBxxxBFHHHHEEUccccQRZ/556s4+Rt3ZXXfW9qE7u+xAd3b5Qt3Z2ynkOwNBh1TQMRV0SgWdU0GXVNA1FXRLBf3yc3uSFOt2i5W7xdrdYvVusX63WMFbrOEtVvEW63iPdbzn7u9Yx3us431dx9do0B6ziAdtPqd+S8SENp9T3wLEhTafU98AxIY2n1OffuRDA0GpRg/WG1KigaBUqQe7DVnRQFCq14PFhsRo4GZMNXuw1ZAbDQSlmj1YaUSP9piD/GggqH5FyJAGgurDjxxpIKg+/MiSBoLqw888aSQp1u3BZmOqNJIUq/dguTFbGkmKNXyw35gwjdyVsY4PVhxzppGkWMcHW05tmto0tWmfCNWmvY/aNLVpatMGozZNbdqqv0pt2uL5Kz6vNu1x1Kbd5wXf0tqYXUAcccQRRxxxxBFHHHHEEWf3OBuTDkgjjTTSSCONNNJII4000uyH5tvIDsQRRxxxxBFHHHHEEUccceafpzbtY9Sm3bVpfR/atOsOtGnXL9OmnX/+KHRWcZMKOqSCjqmgUyronAq6pIKuqaBbKmjx63uWFOt2i5W7xdrdYvVusX63WMFbrOEtVvEW63iPdbzn7u9Yx3us431dx5/Xpi2z5rVpJKd+S/PaNJJT3wLz2jSSU98A89o0klOffqBNQ0GpRg/WG9CmoaBUqQe7DWjTUFCq14PFBrRp6GZMNXuw1YA2DQWlmj1YafPatGUO0KahoPoVAW0aCqoPP9CmoaD68ANtGgqqDz/RprGkWLcHm41o01hSrN6D5Ua0aSwp1vDBfiPaNHZXxjo+WHFEm8aSYh0fbDm1aWrT1KZ9IlSb9j5q09SmqU0bjNo0tWmr/iq1aYvnr/i82rTHUZt2nxd8S2tjdgFxxBFHHHHEEUccccQRR5zd42xMOiCNNNJII4000kgjjTTSSLMfmm8jOxBHHHHEEUccccQRRxxxxJl/ntq0j1GbdtemHfahTbvtQJt2+zJt2tuPHrGmkZxDKOcYyjmFcs6hnEso5xrKuYVyFj+6R0GpRrdUpVuq0y1V6pZqdUvVuqV63VLFbqlm91Sze+yuTjW7p5rdVzX7eT3aImrejgZiyjc070YDMeW5nzejgZjyzM970UBMed6BFY3khHpcrzGgRCM5oSrXOwz40EhOqM31AgMyNHIPhvpcby9gQiM5oT7Xq2teg7aIARY0klO+HuBAIznlcQcGNJJTHnfgPyM55XEn9jMUlGp0vcGI+gwFpUpdLzHiPUNBqV7Xe4xIz9DNmGp2vcqI8QwFpZpdbzN1Z+rO1J19IlR39j7qztSdqTsbjLozdWer/ip1Z4vnr/i8urPHUXd2nxd8u2pjVgBxxBFHHHHEEUccccQRR5zd42xMFiCNNNJII4000kgjjTTSSLMfmm8jKRBHHHHEEUccccQRRxxxxJl/nrqzj1F3dtedHXehO7u+bV939lfGr9OdvZ1CvjMQdEgFHVNBp1TQORV0SQVdU0G3VNAvP7cnSbFut1i5W6zdLVbvFut3ixW8xRreYhVvsY73WMd77v6OdbzHOt7XdXyNBu0xi3jQ5nPqt0RMaPM59S1AXGjzOfUNQGxo8zn16Uc+NBCUavRgvSElGghKlXqw25AVDQSlej1YbEiMBm7GVLMHWw250UBQqtmDlUb0aI85yI8GgupXhAxpIKg+/MiRBoLqw48saSCoPvzMk0aSYt0ebDamSiNJsXoPlhuzpZGkWMMH+40J08hdGev4YMUxZxpJinV8sOXUpqlNU5v2iVBt2vuoTVObpjZtMGrT1Kat+qvUpi2ev+LzatMeR23afV7wLa2N2QXEEUccccQRRxxxxBFHHHF2j7Mx6YA00kgjjTTSSCONNNJII81+aL6N7EAcccQRRxxxxBFHHHHEEWf+eWrTPkZt2l2bdtqHNq3tQJvWvkybdv75o9BZxU0q6JAKOqaCTqmgcyrokgq6poJuqaDFr+9ZUqzbLVbuFmt3i9W7xfrdYgVvsYa3WMVbrOM91vGeu79jHe+xjvd1HX9em7bMmtemkZz6Lc1r00hOfQvMa9NITn0DzGvTSE59+oE2DQWlGj1Yb0CbhoJSpR7sNqBNQ0GpXg8WG9CmoZsx1ezBVgPaNBSUavZgpc1r05Y5QJuGgupXBLRpKKg+/ECbhoLqww+0aSioPvxEm8aSYt0ebDaiTWNJsXoPlhvRprGkWMMH+41o09hdGev4YMURbRpLinV8sOXUpqlNU5v2iVBt2vuoTVObpjZtMGrT1Kat+qvUpi2ev+LzatMeR23afV7wLa2N2QXEEUccccQRRxxxxBFHHHF2j7Mx6YA00kgjjTTSSCONNNJII81+aL6N7EAcccQRRxxxxBFHHHHEEWf+eWrTPkZt2l2bdt6HNq3vQJvWv0yb9vajR6xpJOcQyjmGck6hnHMo5xLKuYZybqGcxY/uUVCq0S1V6ZbqdEuVuqVa3VK1bqlet1SxW6rZPdXsHrurU83uqWb3Vc1+Xo+2iJq3o4GY8g3Nu9FATHnu581oIKY88/NeNBBTnndgRSM5oR7Xawwo0UhOqMr1DgM+NJITanO9wIAMjdyDoT7X2wuY0EhOqM/16prXoC1igAWN5JSvBzjQSE553IEBjeSUxx34z0hOedyJ/QwFpRpdbzCiPkNBqVLXS4x4z1BQqtf1HiPSM3QzpppdrzJiPENBqWbX20zdmbozdWefCNWdvY+6M3Vn6s4Go+5M3dmqv0rd2eL5Kz6v7uxx1J3d5wXfrtqYFUAcccQRRxxxxBFHHHHEEWf3OBuTBUgjjTTSSCONNNJII4000uyH5ttICsQRRxxxxBFHHHHEEUccceafp+7sY9Sd3XVnl33ozg470J0dvlB39nYK+c5A0CEVdEwFnVJB51TQJRV0TQXdUkG//NyeJMW63WLlbrF2t1i9W6zfLVbwFmt4i1W8xTreYx3vufs71vEe63hf1/E1GrTHLOJBm8+p3xIxoc3n1LcAcaHN59Q3ALGhzefUpx/50EBQqtGD9YaUaCAoVerBbkNWNBCU6vVgsSExGrgZU80ebDXkRgNBqWYPVhrRoz3mID8aCKpfETKkgaD68CNHGgiqDz+ypIGg+vAzTxpJinV7sNmYKo0kxeo9WG7MlkaSYg0f7DcmTCN3ZazjgxXHnGkkKdbxwZZTm6Y2TW3aJ0K1ae+jNk1tmtq0wahNU5u26q9Sm7Z4/orPq017HLVp93nBt7Q2ZhcQRxxxxBFHHHHEEUccccTZPc7GpAPSSCONNNJII4000kgjjTT7ofk2sgNxxBFHHHHEEUccccQRR5z556lN+xi1aXdt2nUf2rTjDrRpxy/Tpp1//ih0VnGTCjqkgo6poFMq6JwKuqSCrqmgWypo8et7lhTrdouVu8Xa3WL1brF+t1jBW6zhLVbxFut4j3W85+7vWMd7rON9Xcef16Yts+a1aSSnfkvz2jSSU98C89o0klPfAPPaNJJTn36gTUNBqUYP1hvQpqGgVKkHuw1o01BQqteDxQa0aehmTDV7sNWANg0FpZo9WGnz2rRlDtCmoaD6FQFtGgqqDz/QpqGg+vADbRoKqg8/0aaxpFi3B5uNaNNYUqzeg+VGtGksKdbwwX4j2jR2V8Y6PlhxRJvGkmIdH2w5tWlq09SmfSJUm/Y+atPUpqlNG4zaNLVpq/4qtWmL56/4vNq0x1Gbdp8XfEtrY3YBccQRRxxxxBFHHHHEEUec3eNsTDogjTTSSCONNNJII4000kizH5pvIzsQRxxxxBFHHHHEEUccccSZf57atI9Rm3bXpt32oU077UCbdvoybdrbjx6xppGcQyjnGMo5hXLOoZxLKOcayrmFchY/ukdBqUa3VKVbqtMtVeqWanVL1bqlet1SxW6pZvdUs3vsrk41u6ea3Vc1+3k92iJq3o4GYso3NO9GAzHluZ83o4GY8szPe9FATHnegRWN5IR6XK8xoEQjOaEq1zsM+NBITqjN9QIDMjRyD4b6XG8vYEIjOaE+16trXoO2iAEWNJJTvh7gQCM55XEHBjSSUx534D8jOeVxJ/YzFJRqdL3BiPoMBaVKXS8x4j1DQale13uMSM/QzZhqdr3KiPEMBaWaXW8zdWfqztSdfSJUd/Y+6s7Unak7G4y6M3Vnq/4qdWeL56/4vLqzx1F3dp8XfLtqY1YAccQRRxxxxBFHHHHEEUec3eNsTBYgjTTSSCONNNJII4000kizH5pvIykQRxxxxBFHHHHEEUccccSZf566s49Rd/a77uy8D9vZeQe2s7O2M21nf/wje21n2s60nWk7eyZI25m2M21n2s60nWk703am7WzV4tJ2pu3sqSBtZ38cpO3sj4O0nf1xkLazCkbbmbazX0fb2e/42s5+HW1nz4y2s3Wf13am7WzVX6XtbPH8FZ/XdvY42s7u84IvV21MCiCOOOKII4444ogjjjjiiLN7nI25AqSRRhpppJFGGmmkkUYaafZD820cBeKII4444ogjjjjiiCOOOPPP03b2MdrO7razt33ozi470J1dvlB39nYK+c5A0CEVdEwFnVJB51TQJRV0TQXdUkG//NyeJMW63WLlbrF2t1i9W6zfLVbwFmt4i1W8xTreYx3vufs71vEe63hf1/E1GrTHLOJBm8+p3xIxoc3n1LcAcaHN59Q3ALGhzefUpx/50EBQqtGD9YaUaCAoVerBbkNWNBCU6vVgsSExGrgZU80ebDXkRgNBqWYPVhrRoz3mID8aCKpfETKkgaD68CNHGgiqDz+ypIGg+vAzTxpJinV7sNmYKo0kxeo9WG7MlkaSYg0f7DcmTCN3ZazjgxXHnGkkKdbxwZZTm6Y2TW3aJ0K1ae+jNk1tmtq0wahNU5u26q9Sm7Z4/orPq017HLVp93nBt7Q2ZhcQRxxxxBFHHHHEEUccccTZPc7GpAPSSCONNNJII4000kgjjTT7ofk2sgNxxBFHHHHEEUccccQRR5z556lN+xi1aXdtWtuHNu26A23a9cu0aeefPwqdVdykgg6poGMq6JQKOqeCLqmgayrolgpa/PqeJcW63WLlbrF2t1i9W6zfLVbwFmt4i1W8xTreYx3vufs71vEe63hf1/HntWnLrHltGsmp39K8No3k1LfAvDaN5NQ3wLw2jeTUpx9o01BQqtGD9Qa0aSgoVerBbgPaNBSU6vVgsQFtGroZU80ebDWgTUNBqWYPVtq8Nm2ZA7RpKKh+RUCbhoLqww+0aSioPvxAm4aC6sNPtGksKdbtwWYj2jSWFKv3YLkRbRpLijV8sN+INo3dlbGOD1Yc0aaxpFjHB1tObZraNLVpnwjVpr2P2jS1aWrTBqM2TW3aqr9Kbdri+Ss+rzbtcdSm3ecF39LamF1AHHHEEUccccQRRxxxxBFn9zgbkw5II4000kgjjTTSSCONNNLsh+bbyA7EEUccccQRRxxxxBFHHHHmn6c27WPUpt21aX0f2rTbDrRpty/Tpr396BFrGsk5hHKOoZxTKOccyrmEcq6hnFsoZ/GjexSUanRLVbqlOt1SpW6pVrdUrVuq1y1V7JZqdk81u8fu6lSze6rZfVWzn9ejLaLm7WggpnxD8240EFOe+3kzGogpz/y8Fw3ElOcdWNFITqjH9RoDSjSSE6pyvcOAD43khNpcLzAgQyP3YKjP9fYCJjSSE+pzvbrmNWiLGGBBIznl6wEONJJTHndgQCM55XEH/jOSUx53Yj9DQalG1xuMqM9QUKrU9RIj3jMUlOp1vceI9AzdjKlm16uMGM9QUKrZ9TZTd6buTN3ZJ0J1Z++j7kzdmbqzwag7U3e26q9Sd7Z4/orPqzt7HHVn93nBt6s2ZgUQRxxxxBFHHHHEEUccccTZPc7GZAHSSCONNNJII4000kgjjTT7ofk2kgJxxBFHHHHEEUccccQRR5z556k7+xh1Z3fd2WEXurPb2/Z1Z39l/Drd2dsp5DsDQYdU0DEVdEoFnVNBl1TQNRV0SwX98nN7khTrdouVu8Xa3WL1brF+t1jBW6zhLVbxFut4j3W85+7vWMd7rON9XcfXaNAes4gHbT6nfkvEhDafU98CxIU2n1PfAMSGNp9Tn37kQwNBqUYP1htSooGgVKkHuw1Z0UBQqteDxYbEaOBmTDV7sNWQGw0EpZo9WGlEj/aYg/xoIKh+RciQBoLqw48caSCoPvzIkgaC6sPPPGkkKdbtwWZjqjSSFKv3YLkxWxpJijV8sN+YMI3clbGOD1Ycc6aRpFjHB1tObZraNLVpnwjVpr2P2jS1aWrTBqM2TW3aqr9Kbdri+Ss+rzbtcdSm3ecF39LamF1AHHHEEUccccQRRxxxxBFn9zgbkw5II4000kgjjTTSSCONNNLsh+bbyA7EEUccccQRRxxxxBFHHHHmn6c27WPUpt21acd9aNPaDrRp7cu0aeefPwqdVdykgg6poGMq6JQKOqeCLqmgayrolgpa/PqeJcW63WLlbrF2t1i9W6zfLVbwFmt4i1W8xTreYx3vufs71vEe63hf1/HntWnLrHltGsmp39K8No3k1LfAvDaN5NQ3wLw2jeTUpx9o01BQqtGD9Qa0aSgoVerBbgPaNBSU6vVgsQFtGroZU80ebDWgTUNBqWYPVtq8Nm2ZA7RpKKh+RUCbhoLqww+0aSioPvxAm4aC6sNPtGksKdbtwWYj2jSWFKv3YLkRbRpLijV8sN+INo3dlbGOD1Yc0aaxpFjHB1tObZraNLVpnwjVpr2P2jS1aWrTBqM2TW3aqr9Kbdri+Ss+rzbtcdSm3ecF39LamF1AHHHEEUccccQRRxxxxBFn9zgbkw5II4000kgjjTTSSCONNNLsh+bbyA7EEUccccQRRxxxxBFHHHHmn6c27WPUpt21aad9aNP6DrRp/cu0aW8/esSaRnIOoZxjKOcUyjmHci6hnGso5xbKWfzoHgWlGt1SlW6pTrdUqVuq1S1V65bqdUsVu6Wa3VPN7rG7OtXsnmp2X9Xs5/Voi6h5OxqIKd/QvBsNxJTnft6MBmLKMz/vRQMx5XkHVjSSE+pxvcaAEo3khKpc7zDgQyM5oTbXCwzI0Mg9GOpzvb2ACY3khPpcr655DdoiBljQSE75eoADjeSUxx0Y0EhOedyB/4zklMed2M9QUKrR9QYj6jMUlCp1vcSI9wwFpXpd7zEiPUM3Y6rZ9SojxjMUlGp2vc3Unak7U3f2iVDd2fuoO1N3pu5sMOrO1J2t+qvUnS2ev+Lz6s4eR93ZfV7w7aqNWQHEEUccccQRRxxxxBFHHHF2j7MxWYA00kgjjTTSSCONNNJII81+aL6NpEAcccQRRxxxxBFHHHHEEWf+eerOPkbd2V13dt6H7uywA93Z4Qt1Z2+nkO8MBB1SQcdU0CkVdE4FXVJB11TQLRX0y8/tSVKs2y1W7hZrd4vVu8X63WIFb7GGt1jFW6zjPdbxnru/Yx3vsY73dR1fo0F7zCIetPmc+i0RE9p8Tn0LEBfafE59AxAb2nxOffqRDw0EpRo9WG9IiQaCUqUe7DZkRQNBqV4PFhsSo4GbMdXswVZDbjQQlGr2YKURPdpjDvKjgaD6FSFDGgiqDz9ypIGg+vAjSxoIqg8/86SRpFi3B5uNqdJIUqzeg+XGbGkkKdbwwX5jwjRyV8Y6PlhxzJlGkmIdH2w5tWlq09SmfSJUm/Y+atPUpqlNG4zaNLVpq/4qtWmL56/4vNq0x1Gbdp8XfEtrY3YBccQRRxxxxBFHHHHEEUec3eNsTDogjTTSSCONNNJII4000kizH5pvIzsQRxxxxBFHHHHEEUccccSZf57atI9Rm3bXpl32oU077kCbdvwybdr5549CZxU3qaBDKuiYCjqlgs6poEsq6JoKuqWCFr++Z0mxbrdYuVus3S1W7xbrd4sVvMUa3mIVb7GO91jHe+7+jnW8xzre13X8eW3aMmtem0Zy6rc0r00jOfUtMK9NIzn1DTCvTSM59ekH2jQUlGr0YL0BbRoKSpV6sNuANg0FpXo9WGxAm4ZuxlSzB1sNaNNQUKrZg5U2r01b5gBtGgqqXxHQpqGg+vADbRoKqg8/0KahoPrwE20aS4p1e7DZiDaNJcXqPVhuRJvGkmINH+w3ok1jd2Ws44MVR7RpLCnW8cGWU5umNk1t2idCtWnvozZNbZratMGoTVObtuqvUpu2eP6Kz6tNexy1afd5wbe0NmYXEEccccQRRxxxxBFHHHHE2T3OxqQD0kgjjTTSSCONNNJII400+6H5NrIDccQRRxxxxBFHHHHEEUec+eepTfsYtWl3bdp1H9q00w60aacv06a9/egRaxrJOYRyjqGcUyjnHMq5hHKuoZxbKGfxo3sUlGp0S1W6pTrdUqVuqVa3VK1bqtctVeyWanZPNbvH7upUs3uq2X1Vs5/Xoy2i5u1oIKZ8Q/NuNBBTnvt5MxqIKc/8vBcNxJTnHVjRSE6ox/UaA0o0khOqcr3DgA+N5ITaXC8wIEMj92Coz/X2AiY0khPqc7265jVoixhgQSM55esBDjSSUx53YEAjOeVxB/4zklMed2I/Q0GpRtcbjKjPUFCq1PUSI94zFJTqdb3HiPQM3YypZterjBjPUFCq2fU2U3em7kzd2SdCdWfvo+5M3Zm6s8GoO1N3tuqvUne2eP6Kz6s7exx1Z/d5wberNmYFEEccccQRRxxxxBFHHHHE2T3OxmQB0kgjjTTSSCONNNJII400+6H5NpICccQRRxxxxBFHHHHEEUec+eepO/sYdWd33dltH7qz8w50Z+cv1J29nUK+MxB0SAUdU0GnVNA5FXRJBV1TQbdU0C8/tydJsW63WLlbrN0tVu8W63eLFbzFGt5iFW+xjvdYx3vu/o51vMc63td1fI0G7TGLeNDmc+q3RExo8zn1LUBcaPM59Q1AbGjzOfXpRz40EJRq9GC9ISUaCEqVerDbkBUNBKV6PVhsSIwGbsZUswdbDbnRQFCq2YOVRvRojznIjwaC6leEDGkgqD78yJEGgurDjyxpIKg+/MyTRpJi3R5sNqZKI0mxeg+WG7OlkaRYwwf7jQnTyF0Z6/hgxTFnGkmKdXyw5dSmqU1Tm/aJUG3a+6hNU5umNm0watPUpq36q9SmLZ6/4vNq0x5Hbdp9XvAtrY3ZBcQRRxxxxBFHHHHEEUcccXaPszHpgDTSSCONNNJII4000kgjzX5ovo3sQBxxxBFHHHHEEUccccQRZ/55atM+Rm3a79q0yz6saZcdWNMuWtPmgrSm/XGQ1rSnkrSmaU3TmqY1TWua1jStaVrTtKb9zZtRa9ofB2lN+8MgrWla07SmaU3TmvZUkta00WhN+9vzzP99WmvaOFpr2u/4WtN+Ha1pz4zWtHWf15qmNW3VX6U1bfH8FZ/XmvY4WtPu84IvaW1MLiCOOOKII4444ogjjjjiiLN7nI05B6SRRhpppJFGGmmkkUYaafZD821cB+KII4444ogjjjjiiCOOOPPP05r2MVrT7ta0t31o06470KZdv0ybdv75o9BZxU0q6JAKOqaCTqmgcyrokgq6poJuqaDFr+9ZUqzbLVbuFmt3i9W7xfrdYgVvsYa3WMVbrOM91vGeu79jHe+xjvd1HX9em7bMmtemkZz6Lc1r00hOfQvMa9NITn0DzGvTSE59+oE2DQWlGj1Yb0CbhoJSpR7sNqBNQ0GpXg8WG9CmoZsx1ezBVgPaNBSUavZgpc1r05Y5QJuGgupXBLRpKKg+/ECbhoLqww+0aSioPvxEm8aSYt0ebDaiTWNJsXoPlhvRprGkWMMH+41o09hdGev4YMURbRpLinV8sOXUpqlNU5v2iVBt2vuoTVObpjZtMGrT1Kat+qvUpi2ev+LzatMeR23afV7wLa2N2QXEEUccccQRRxxxxBFHHHF2j7Mx6YA00kgjjTTSSCONNNJII81+aL6N7EAcccQRRxxxxBFHHHHEEWf+eWrTPkZt2l2b1vahTbvtQJt2+zJt2tuPHrGmkZxDKOcYyjmFcs6hnEso5xrKuYVyFj+6R0GpRrdUpVuq0y1V6pZqdUvVuqV63VLFbqlm91Sze+yuTjW7p5rdVzX7eT3aImrejgZiyjc070YDMeW5nzejgZjyzM970UBMed6BFY3khHpcrzGgRCM5oSrXOwz40EhOqM31AgMyNHIPhvpcby9gQiM5oT7Xq2teg7aIARY0klO+HuBAIznlcQcGNJJTHnfgPyM55XEn9jMUlGp0vcGI+gwFpUpdLzHiPUNBqV7Xe4xIz9DNmGp2vcqI8QwFpZpdbzN1Z+rO1J19IlR39j7qztSdqTsbjLozdWer/ip1Z4vnr/i8urPHUXd2nxd8u2pjVgBxxBFHHHHEEUccccQRR5zd42xMFiCNNNJII4000kgjjTTSSLMfmm8jKRBHHHHEEUccccQRRxxxxJl/nrqzj1F3dted9V3oztrb2/Z9Z++QXyc8ezuFjGcg6JAKOqaCTqmgcyrokgq6poJuqaBffnBPkmLdbrFyt1i7W6zeLdbvFit4izW8xSreYh3vsY733P0d63iPdbyv6/gaEdpjFjGhzefUb4m40OZz6luA2NDmc+obgPjQ5nPq04+MaCAo1ejBekNSNBCUKvVgtyEvGghK9Xqw2JAaDdyMqWYPthqyo4GgVLMHK40I0h5zkCENBNWvCDnSQFB9+JElDQTVhx950kBQffiZKY0kxbo92GxMlkaSYvUeLDfmSyNJsYYP9htTppG7MtbxwYpj1jSSFOv4YMspTlOcpjjtE6HitPdRnKY4TXHaYBSnKU5b9VcpTls8f8XnFac9juK0+7zge1ob8wuII4444ogjjjjiiCOOOOLsHmdj2gFppJFGGmmkkUYaaaSRRpr90Hwb3YE44ogjjjjiiCOOOOKII8788xSnfYzitLs47bATcVrbgzitfZk47fzzZ6GzkptU0CEVdEwFnVJB51TQJRV0TQXdUkGL39+zpFi3W6zcLdbuFqt3i/W7xQreYg1vsYq3WMd7rOM9d3/HOt5jHe/rOv68OG2ZNS9OIzn1W5oXp5Gc+haYF6eRnPoGmBenkZz69ANxGgpKNXqw3oA4DQWlSj3YbUCchoJSvR4sNiBOQzdjqtmDrQbEaSgo1ezBSpsXpy1zgDgNBdWvCIjTUFB9+IE4DQXVhx+I01BQffiJOI0lxbo92GxEnMaSYvUeLDciTmNJsYYP9hsRp7G7MtbxwYoj4jSWFOv4YMspTlOcpjjtE6HitPdRnKY4TXHaYBSnKU5b9VcpTls8f8XnFac9juK0+7zge1ob8wuII4444ogjjjjiiCOOOOLsHmdj2gFppJFGGmmkkUYaaaSRRpr90Hwb3YE44ogjjjjiiCOOOOKII8788xSnfYzitLs47bgTcVrfgzitK06bC1Kc9sdBitOeSlKcpjhNcZriNMVpitMUpylOU5z2N29GxWl/HKQ47Q+DFKcpTlOcpjgtlqQ47bkkxWk1jOI0xWm/juK03/EVp/06itOeGcVp6z6vOE1x2qq/SnHa4vkrPq847XEUp93nBd/T2phfQBxxxBFHHHHEEUccccQRZ/c4G9MOSCONNNJII4000kgjjTTS7Ifm2+gOxBFHHHHEEUccccQRRxxx5p+nOO1jFKf9Lk677sSbdtiDN+3wZd60tx89ok0jOYdQzjGUcwrlnEM5l1DONZRzC+UsfnWPglKNbqlKt1SnW6rULdXqlqp1S/W6pYrdUs3uqWb32F2danZPNbuvavbzfrRF1LweDcSUb2hejgZiynM/r0YDMeWZnxejgZjyvAMtGskJ9bheY8CJRnJCVa53GBCikZxQm+sFBmxo5B4M9bneXkCFRnJCfa5X17wHbREDNGgkp3w9QIJGcsrjDhRoJKc87kCARnLK4070Zygo1eh6gxH3GQpKlbpeYkR8hoJSva73GLGeoZsx1ex6lRHlGQpKNbveZvrO9J3pO/tEqO/sffSd6TvTdzYYfWf6zlb9VfrOFs9f8Xl9Z4+j7+w+L/h61ca0AOKII4444ogjjjjiiCOOOLvH2ZgtQBpppJFGGmmkkUYaaaSRZj8038ZSII444ogjjjjiiCOOOOKIM/88fWcfo+/sd9/ZbSe+s+MefGfHL/OdtePbj7eHaceI/iwYe3hN7PE1safXxJ5fE3t5Tez1NbG318Qufu2fzH3ROWsvOmjtRSetveiotRedtfaiw9ZedNrai45be9F56y86b/1Ve+1F562/6Lx1ct6e98qNkuc1c7nUZ9/uvIQul/rsTTavqMulPnuLzQvscqnP3mBAbxeMfc3pevqfC8CFF4x9zQF7+t8KQJwXjH3NGXv6HwrAshfcCq85ZU//KwEo+YKxrzllT/8TYd7fN0oFOr9g7LOvFsj+grHPXmBABRiMffYCA6LAYOyzFxjRCCZzX3TOnv6XAnEOJnNfdNSe/scCERQmc1902p7+9wKxGSb3xIvO29P/ZCDqw2Tui87b0/9q0JOoJ1FP4idCPYnvoydRT6KexMHoSdSTuOqv0pO4eP6Kz+tJfBw9ifd5wdcyN6YTEUccccQRRxxxxBFHHHHE2T3Oxiwj0kgjjTTSSCONNNJII400+6H5NnYTccQRRxxxxBFHHHHEEUec+ef9d/Ak/j+//eN/+e0vf/8v//Uvv/3d//jv/ie1idvSJv72l//2p3/47e/+379/b97/+ec//5e/e///sPfvOR/f/t1OFIqnPSgUT1+mUDzfftwe5nqLGBRzqYeXpB5fknp6Ser5JamXl6ReX5J6e0nqQnAQjH3N6WqvOV7tNeerveaAtdecsPaaI9Zec8baaw5Ze80p6685Zf1FO+w1p6y/5pR1cMqeVyUOgudNibHQJ9/svCcxFvrk3TVvSYyFPnlvzTsSY6FP3lnAkJhLfcmZevafBUCPmEt9ybF69t8EwI2YS33JyXr2HwRAjJjbAS85W8/+awBYEXOpLzlbz/5TYF6JOAgFRsRc6pOvFfgQc6lPXlnAhphLffLKAi7EXOqTVxYxIQZjX3O6nv0XAdEgBmNfc8Ce/UcBcSAGY19zxp79dwERIAa3wmtO2bP/NCD2w2Dsa07Zs/86UH2o+lD14SdC1Yfvo/pQ9aHqw8GoPlR9uOqvUn24eP6Kz6s+fBzVh/d5wTctN2YIEUccccQRRxxxxBFHHHHE2T3OxsQh0kgjjTTSSCONNNJII400+6H5NsISccQRRxxxxBFHHHHEEUec+eepPvzb823Vh/+mPPw/fvv5P/7Xf/z3f/rtn/7l3+SH//c//Kff/sN//ev7/5//7rIbCeJ5DxLE85dJEH/+9HRWwhTKOYRyjqGcUyjnHMq5hHKuoZxbKGdhF0BBqUa3VKVbqtMtVeqWanVL1bqlet1SxW6pZvdUs3vsrk41u6ea3Vc1+3lp3yJqXtMHYso3NK/iAzHluZ/X7YGY8szPK/VATHnegTaP5IR6XK8xIMMjOaEq1zsMKO5ITqjN9QID4jpyD4b6XG8voKMjOaE+16trXjK3iAFaOZJTvh6gjiM55XEHejiSUx53oIAjOeVxJ5o3FJRqdL3BiLwNBaVKXS8xomRDQale13uMiNbQzZhqdr3KiD4NBaWaXW8zpWi7kKL5n/3P/mf/s//Z/+x/9j/7n/3P/mf/s//Z/+x/9j/7n7f0n//1x5//229/+cuf/sNv/9ffv/8fqtqPN6X4D3+JUvz7KMVfNUrxleKvGKX4v45S/F9HKf7KUYqvFP9vjlJ8ccQRRxxxxBFHHHHEEUcccfaglJRGGmmkkUYaaaSRRhpppNkPzbdRWYojjjjiiCOOOOKII4444sw/77+DFP9/+9M//vZP//ynP//Tf/7tn/9ZJf62lPh//sv/93f/+3/8j3/6hz/99k//8K93Ef7XKvA/Pv3Lf3n8f//+v//b/7ynf/wv9//x7//8H/71/X/+p3/5x//8v/wP/z/vePMQ"
               },
               {
                  "name" : "annual_peak_electric_demand",
                  "units" : "kW",
                  "value" : 66.917310000000001
               },
               {
                  "name" : "first_year_capital_cost",
                  "units" : "$",
                  "value" : 0
               },
               {
                  "name" : "annual_utility_cost",
                  "units" : "$",
                  "value" : 33316.770000000004
               },
               {
                  "name" : "total_lifecycle_cost",
                  "units" : "$",
                  "value" : 575419.48999999999
               }
            ],
            "step_warnings" : []
         }
      }
   ],
   "updated_at" : "20170710T193419Z",
   "weather_file" : "USA_CO_Denver.Intl.AP.725650_TMY3.epw"
}
