{
   "completed_at" : "20170710T182614Z",
   "completed_status" : "Success",
   "created_at" : "2017-07-10 18:24:09 +0000",
   "current_step" : 5,
   "description" : "",
   "eplusout_err" : "Program Version,EnergyPlus, Version 8.7.0-78a111df4a, YMD=2017.07.10 18:25,IDD_Version 8.7.0\n   ************* IDF Context for following error/warning message:\n   ************* Note -- lines truncated at 300 characters, if necessary...\n   *************      5 Building,\n   ************* indicated Name=NECB 2011-Warehouse-NECB HDD Method-CAN_AB_Medicine.Hat.718720_CWEC.epw created: 2017-07-10 18:24:19 +0000\n   ************* Only last 1 lines before error line shown.....\n   *************      6   NECB 2011-Warehouse-NECB HDD Method-CAN_AB_Medicine.Hat.718720_CWEC.epw created: 2017-07-10 18:24:19 +0000, !- Name\n   ** Warning ** IP: IDF line~6 Alpha Argument length exceeds maximum, will be truncated=  NECB 2011-Warehouse-NECB HDD Method-CAN_AB_Medicine.Hat.718720_CWEC.epw created: 2017-07-10 18:24:19 +000\n   **   ~~~   ** Will be processed as Alpha=NECB 2011-WAREHOUSE-NECB HDD METHOD-CAN_AB_MEDICINE.HAT.718720_CWEC.EPW CREATED: 2017-07-10 18:24:19 +0000\n   ************* Beginning Zone Sizing Calculations\n   ** Warning ** ProcessScheduleInput: Schedule:Day:Interval=\"ECONOMIZER MAX OA FRACTION 100 PCT DEFAULT\", Blank Schedule Type Limits Name input -- will not be validated.\n   ** Warning ** ProcessScheduleInput: Schedule:Day:Interval=\"SCHEDULE DAY 1\", Blank Schedule Type Limits Name input -- will not be validated.\n   ** Warning ** ProcessScheduleInput: Schedule:Day:Interval=\"SCHEDULE DAY 10\", Blank Schedule Type Limits Name input -- will not be validated.\n   ** Warning ** ProcessScheduleInput: Schedule:Day:Interval=\"SCHEDULE DAY 11\", Blank Schedule Type Limits Name input -- will not be validated.\n   ** Warning ** ProcessScheduleInput: Schedule:Day:Interval=\"SCHEDULE DAY 12\", Blank Schedule Type Limits Name input -- will not be validated.\n   ** Warning ** ProcessScheduleInput: Schedule:Day:Interval=\"SCHEDULE DAY 13\", Blank Schedule Type Limits Name input -- will not be validated.\n   ** Warning ** ProcessScheduleInput: Schedule:Day:Interval=\"SCHEDULE DAY 14\", Blank Schedule Type Limits Name input -- will not be validated.\n   ** Warning ** ProcessScheduleInput: Schedule:Day:Interval=\"SCHEDULE DAY 15\", Blank Schedule Type Limits Name input -- will not be validated.\n   ** Warning ** ProcessScheduleInput: Schedule:Day:Interval=\"SCHEDULE DAY 16\", Blank Schedule Type Limits Name input -- will not be validated.\n   ** Warning ** ProcessScheduleInput: Schedule:Day:Interval=\"SCHEDULE DAY 17\", Blank Schedule Type Limits Name input -- will not be validated.\n   ** Warning ** ProcessScheduleInput: Schedule:Day:Interval=\"SCHEDULE DAY 18\", Blank Schedule Type Limits Name input -- will not be validated.\n   ** Warning ** ProcessScheduleInput: Schedule:Day:Interval=\"SCHEDULE DAY 19\", Blank Schedule Type Limits Name input -- will not be validated.\n   ** Warning ** ProcessScheduleInput: Schedule:Day:Interval=\"SCHEDULE DAY 2\", Blank Schedule Type Limits Name input -- will not be validated.\n   ** Warning ** ProcessScheduleInput: Schedule:Day:Interval=\"SCHEDULE DAY 5\", Blank Schedule Type Limits Name input -- will not be validated.\n   ** Warning ** ProcessScheduleInput: Schedule:Day:Interval=\"SCHEDULE DAY 6\", Blank Schedule Type Limits Name input -- will not be validated.\n   ** Warning ** ProcessScheduleInput: Schedule:Day:Interval=\"SCHEDULE DAY 7\", Blank Schedule Type Limits Name input -- will not be validated.\n   ** Warning ** ProcessScheduleInput: Schedule:Day:Interval=\"SCHEDULE DAY 8\", Blank Schedule Type Limits Name input -- will not be validated.\n   ** Warning ** ProcessScheduleInput: Schedule:Day:Interval=\"SCHEDULE DAY 9\", Blank Schedule Type Limits Name input -- will not be validated.\n   ** Warning ** ProcessScheduleInput: Schedule:Year=\"ECONOMIZER MAX OA FRACTION 100 PCT\", Blank Schedule Type Limits Name input -- will not be validated.\n   ** Warning ** ProcessScheduleInput: Schedule:Year=\"SCHEDULE RULESET 10\", Blank Schedule Type Limits Name input -- will not be validated.\n   ** Warning ** ProcessScheduleInput: Schedule:Year=\"SCHEDULE RULESET 11\", Blank Schedule Type Limits Name input -- will not be validated.\n   ** Warning ** ProcessScheduleInput: Schedule:Year=\"SCHEDULE RULESET 3\", Blank Schedule Type Limits Name input -- will not be validated.\n   ** Warning ** ProcessScheduleInput: Schedule:Year=\"SCHEDULE RULESET 4\", Blank Schedule Type Limits Name input -- will not be validated.\n   ** Warning ** ProcessScheduleInput: Schedule:Year=\"SCHEDULE RULESET 5\", Blank Schedule Type Limits Name input -- will not be validated.\n   ** Warning ** ProcessScheduleInput: Schedule:Year=\"SCHEDULE RULESET 6\", Blank Schedule Type Limits Name input -- will not be validated.\n   ** Warning ** ProcessScheduleInput: Schedule:Year=\"SCHEDULE RULESET 7\", Blank Schedule Type Limits Name input -- will not be validated.\n   ** Warning ** ProcessScheduleInput: Schedule:Year=\"SCHEDULE RULESET 8\", Blank Schedule Type Limits Name input -- will not be validated.\n   ** Warning ** ProcessScheduleInput: Schedule:Year=\"SCHEDULE RULESET 9\", Blank Schedule Type Limits Name input -- will not be validated.\n   ** Warning ** ProcessScheduleInput: Schedule:Constant=\"ALWAYS OFF DISCRETE\", Blank Schedule Type Limits Name input -- will not be validated.\n   ** Warning ** ProcessScheduleInput: Schedule:Constant=\"ALWAYS ON CONTINUOUS\", Blank Schedule Type Limits Name input -- will not be validated.\n   ** Warning ** CheckUsedConstructions: There are 22 nominally unused constructions in input.\n   **   ~~~   ** For explicit details on each unused construction, use Output:Diagnostics,DisplayExtraWarnings;\n   ************* Beginning System Sizing Calculations\n   ************* Beginning Plant Sizing Calculations\n   ** Warning ** GetDXCoils: Coil:Cooling:DX:SingleSpeed=\"COIL COOLING DX SINGLE SPEED 1 34KBTU/HR 14.0SEER\", invalid\n   **   ~~~   ** ...Part Load Fraction Correlation Curve Name = DXCOOL-NECB2011-REF-COOLPLFFPLR has out of range value.\n   **   ~~~   ** ...Curve maximum must be <= 1.0, curve max at PLR = 0.99 is 1.015\n   **   ~~~   ** ...Setting curve maximum to 1.0 and simulation continues.\n   ** Warning ** GetDXCoils: Coil:Cooling:DX:SingleSpeed=\"COIL COOLING DX SINGLE SPEED 3 171KBTU/HR 9.7EER\", invalid\n   **   ~~~   ** ...Part Load Fraction Correlation Curve Name = DXCOOL-NECB2011-REF-COOLPLFFPLR 2 has out of range value.\n   **   ~~~   ** ...Curve maximum must be <= 1.0, curve max at PLR = 0.99 is 1.015\n   **   ~~~   ** ...Setting curve maximum to 1.0 and simulation continues.\n   ** Warning ** GetDXCoils: Coil:Cooling:DX:SingleSpeed=\"COIL COOLING DX SINGLE SPEED 2 378KBTU/HR 8.21EER\", invalid\n   **   ~~~   ** ...Part Load Fraction Correlation Curve Name = DXCOOL-NECB2011-REF-COOLPLFFPLR 1 has out of range value.\n   **   ~~~   ** ...Curve maximum must be <= 1.0, curve max at PLR = 0.99 is 1.015\n   **   ~~~   ** ...Setting curve maximum to 1.0 and simulation continues.\n   ** Warning ** The Standard Ratings is calculated for Coil:Cooling:DX:SingleSpeed = COIL COOLING DX SINGLE SPEED 1 34KBTU/HR 14.0SEER but not at the AHRI test condition due to curve out of bound.\n   **   ~~~   **  Review the Standard Ratings calculations in the Engineering Reference for this coil type. Also, use Output:Diagnostics, DisplayExtraWarnings for further guidance.\n   ** Warning ** The Standard Ratings is calculated for Coil:Cooling:DX:SingleSpeed = COIL COOLING DX SINGLE SPEED 3 171KBTU/HR 9.7EER but not at the AHRI test condition due to curve out of bound.\n   **   ~~~   **  Review the Standard Ratings calculations in the Engineering Reference for this coil type. Also, use Output:Diagnostics, DisplayExtraWarnings for further guidance.\n   ** Warning ** The Standard Ratings is calculated for Coil:Cooling:DX:SingleSpeed = COIL COOLING DX SINGLE SPEED 2 378KBTU/HR 8.21EER but not at the AHRI test condition due to curve out of bound.\n   **   ~~~   **  Review the Standard Ratings calculations in the Engineering Reference for this coil type. Also, use Output:Diagnostics, DisplayExtraWarnings for further guidance.\n   ** Warning ** Check input. Pump nominal power or motor efficiency is set to 0, for pump=SERVICE WATER LOOP PUMP\n   ** Warning ** Output:Meter: invalid Name=\"DISTRICTCOOLING:FACILITY\" - not found.\n   ** Warning ** Output:Meter: invalid Name=\"DISTRICTHEATING:FACILITY\" - not found.\n   ** Warning ** Output:Meter:MeterFileOnly requested for \"Electricity:Facility\" (TimeStep), already on \"Output:Meter\". Will report to both eplusout.eso and eplusout.mtr\n   ************* Testing Individual Branch Integrity\n   ************* All Branches passed integrity testing\n   ************* Testing Individual Supply Air Path Integrity\n   ************* All Supply Air Paths passed integrity testing\n   ************* Testing Individual Return Air Path Integrity\n   ************* All Return Air Paths passed integrity testing\n   ************* No node connection errors were found.\n   ************* Beginning Simulation\n   ** Warning ** CalcDoe2DXCoil: Coil:Cooling:DX:SingleSpeed \"COIL COOLING DX SINGLE SPEED 1 34KBTU/HR 14.0SEER\" - Air-cooled condenser inlet dry-bulb temperature below 0 C. Outdoor dry-bulb temperature = -4.70\n   **   ~~~   **  ... Occurrence info = RUN PERIOD 1, 01/02 06:03 - 06:05\n   **   ~~~   ** ... Operation at low ambient temperatures may require special performance curves.\n   ************* Simulation Error Summary *************\n   ************* There are 9 unused schedules in input.\n   ************* There are 9 unused week schedules in input.\n   ************* There are 18 unused day schedules in input.\n   ************* Use Output:Diagnostics,DisplayUnusedSchedules; to see them.\n   *************\n   ************* ===== Recurring Error Summary =====\n   ************* The following recurring error messages occurred.\n   *************\n   *************  ** Warning ** CalcDoe2DXCoil: Coil:Cooling:DX:SingleSpeed=\"COIL COOLING DX SINGLE SPEED 1 34KBTU/HR 14.0SEER\" - Low condenser dry-bulb temperature error continues...\n   *************  **   ~~~   **   This error occurred 373 total times;\n   *************  **   ~~~   **   during Warmup 0 times;\n   *************  **   ~~~   **   during Sizing 0 times.\n   *************  **   ~~~   **   Max=-7.500000E-002 [C]  Min=-31.1 [C]\n   *************\n   *************\n   ************* ===== Final Error Summary =====\n   ************* The following error categories occurred.  Consider correcting or noting.\n   ************* Nominally Unused Constructions\n   ************* ..The nominally unused constructions warning is provided to alert you to potential conditions that can cause\n   ************* ..extra time during simulation. Each construction is calculated by the algorithm indicated in the HeatBalanceAlgorithm\n   ************* ..object. You may remove the constructions indicated (when you use the DisplayExtraWarnings option).\n   *************\n   ************* EnergyPlus Warmup Error Summary. During Warmup: 0 Warning; 0 Severe Errors.\n   ************* EnergyPlus Sizing Error Summary. During Sizing: 31 Warning; 0 Severe Errors.\n   ************* EnergyPlus Completed Successfully-- 415 Warning; 0 Severe Errors; Elapsed Time=00hr 00min 38.32sec\n",
   "file_format_version" : "0.0.1",
   "file_paths" : [ "../weather", "../seeds", "../seed" ],
   "hash" : "2C49853E",
   "measure_paths" : [ "../measures" ],
   "name" : "LHS Autogenerated 80",
   "osa_id" : "4fef0e0f-5396-4c55-a6e1-2cd6803db3ab",
   "osd_id" : "0a7b0ca3-6d13-4012-bac5-f3c26cb0a32b",
   "run_directory" : "./run",
   "seed_file" : "seed.osm",
   "started_at" : "20170710T182416Z",
   "steps" : [
      {
         "arguments" : {
            "__SKIP__" : false,
            "building_type" : "Warehouse",
            "climate_zone" : "NECB HDD Method",
            "epw_file" : "CAN_AB_Medicine.Hat.718720_CWEC.epw",
            "template" : "NECB 2011"
         },
         "measure_dir_name" : "create_prototype_building",
         "name" : "create_prototype_building",
         "result" : {
            "completed_at" : "20170710T182508Z",
            "measure_class_name" : "CreatePrototypeBuilding",
            "measure_display_name" : "Create Prototype Building",
            "measure_name" : "create_prototype_building",
            "measure_taxonomy" : "Whole Building.Space Types",
            "measure_type" : "ModelMeasure",
            "measure_uid" : "ae90fsd7-a651-467a-bc8d-29d310b0f937",
            "measure_version_id" : "c6ec5c18-5595-459f-a082-09a19c8c869c",
            "measure_version_modified" : "20170519T182315Z",
            "measure_xml_checksum" : "057E8D9D",
            "started_at" : "20170710T182419Z",
            "stderr" : "",
            "stdout" : "[OpenStudio.Measure] <0> OSArgumentVector is deprecated, use OpenStudio::Measure::OSArgumentVector instead.\n[openstudio.EpwFile] <0> Successive data points (1967-Jan-31 to 1980-Feb-01, ending on line 753) are greater than 1 day apart in EPW file '/usr/local/bundle/bundler/gems/openstudio-standards-f448df66933d/openstudio-standards/data/weather/CAN_AB_Medicine.Hat.718720_CWEC.epw'. Data will be treated as typical (TMY)\n[openstudio.setFileExtension] <0> Path p, '/usr/local/bundle/bundler/gems/openstudio-standards-f448df66933d/openstudio-standards/data/weather/CAN_AB_Medicine.Hat.718720_CWEC.ddy', has an unexpected file extension. Was expecting 'idf'.\n[openstudio.model.YearDescription] <1> 'UseWeatherFile' is not yet a supported option for YearDescription\n[openstudio.model.YearDescription] <1> 'UseWeatherFile' is not yet a supported option for YearDescription\n[openstudio.setFileExtension] <0> Path p, '/usr/local/bundle/bundler/gems/openstudio-standards-f448df66933d/openstudio-standards/data/weather/CAN_AB_Medicine.Hat.718720_CWEC.ddy', has an unexpected file extension. Was expecting 'idf'.\n[openstudio.model.YearDescription] <1> 'UseWeatherFile' is not yet a supported option for YearDescription\n[openstudio.model.YearDescription] <1> 'UseWeatherFile' is not yet a supported option for YearDescription\n[openstudio.EpwFile] <0> Successive data points (1967-Jan-31 to 1980-Feb-01, ending on line 753) are greater than 1 day apart in EPW file '/usr/local/bundle/bundler/gems/openstudio-standards-f448df66933d/openstudio-standards/data/weather/CAN_AB_Medicine.Hat.718720_CWEC.epw'. Data will be treated as typical (TMY)\n[openstudio.weather.Model] <0> Could not find ground temperatures; will use generic temperatures, which will skew results.\n[openstudio.setFileExtension] <0> Path p, '/usr/local/bundle/bundler/gems/openstudio-standards-f448df66933d/openstudio-standards/data/weather/CAN_AB_Medicine.Hat.718720_CWEC.ddy', has an unexpected file extension. Was expecting 'idf'.\n[openstudio.model.YearDescription] <1> 'UseWeatherFile' is not yet a supported option for YearDescription\n[openstudio.model.YearDescription] <1> 'UseWeatherFile' is not yet a supported option for YearDescription\n[openstudio.EpwFile] <0> Successive data points (1967-Jan-31 to 1980-Feb-01, ending on line 753) are greater than 1 day apart in EPW file '/usr/local/bundle/bundler/gems/openstudio-standards-f448df66933d/openstudio-standards/data/weather/CAN_AB_Medicine.Hat.718720_CWEC.epw'. Data will be treated as typical (TMY)\n[openstudio.setFileExtension] <0> Path p, '/usr/local/bundle/bundler/gems/openstudio-standards-f448df66933d/openstudio-standards/data/weather/CAN_AB_Medicine.Hat.718720_CWEC.ddy', has an unexpected file extension. Was expecting 'idf'.\n[openstudio.model.YearDescription] <1> 'UseWeatherFile' is not yet a supported option for YearDescription\n[openstudio.model.YearDescription] <1> 'UseWeatherFile' is not yet a supported option for YearDescription\n[openstudio.setFileExtension] <0> Path p, '/usr/local/bundle/bundler/gems/openstudio-standards-f448df66933d/openstudio-standards/data/weather/CAN_AB_Medicine.Hat.718720_CWEC.ddy', has an unexpected file extension. Was expecting 'idf'.\n[openstudio.model.YearDescription] <1> 'UseWeatherFile' is not yet a supported option for YearDescription\n[openstudio.model.YearDescription] <1> 'UseWeatherFile' is not yet a supported option for YearDescription\n[openstudio.EpwFile] <0> Successive data points (1967-Jan-31 to 1980-Feb-01, ending on line 753) are greater than 1 day apart in EPW file '/usr/local/bundle/bundler/gems/openstudio-standards-f448df66933d/openstudio-standards/data/weather/CAN_AB_Medicine.Hat.718720_CWEC.epw'. Data will be treated as typical (TMY)\n[openstudio.setFileExtension] <0> Path p, '/usr/local/bundle/bundler/gems/openstudio-standards-f448df66933d/openstudio-standards/data/weather/CAN_AB_Medicine.Hat.718720_CWEC.ddy', has an unexpected file extension. Was expecting 'idf'.\n[openstudio.model.YearDescription] <1> 'UseWeatherFile' is not yet a supported option for YearDescription\n[openstudio.model.YearDescription] <1> 'UseWeatherFile' is not yet a supported option for YearDescription\n[openstudio.setFileExtension] <0> Path p, '/usr/local/bundle/bundler/gems/openstudio-standards-f448df66933d/openstudio-standards/data/weather/CAN_AB_Medicine.Hat.718720_CWEC.ddy', has an unexpected file extension. Was expecting 'idf'.\n[openstudio.model.YearDescription] <1> 'UseWeatherFile' is not yet a supported option for YearDescription\n[openstudio.model.YearDescription] <1> 'UseWeatherFile' is not yet a supported option for YearDescription\n[utilities.idf.WorkspaceObject] <0> Object of type 'Schedule:Constant' and named 'Always Off Discrete', points to an object named OnOff 1 from field 1, but that object cannot be located.\n[utilities.idf.WorkspaceObject] <0> Object of type 'Schedule:Constant' and named 'Always On Continuous', points to an object named Fractional 1 from field 1, but that object cannot be located.\n[utilities.idf.WorkspaceObject] <0> Object of type 'Schedule:Constant' and named 'Always Off Discrete', points to an object named OnOff 1 from field 1, but that object cannot be located.\n[utilities.idf.WorkspaceObject] <0> Object of type 'Schedule:Constant' and named 'Always On Continuous', points to an object named Fractional 1 from field 1, but that object cannot be located.\n[openstudio.standards.Fan] <0> For Fan Constant Volume 1, there is no greater nominal HP.  Use the efficiency of the largest motor category.\n[openstudio.standards.Fan] <0> For Fan Constant Volume 2, there is no greater nominal HP.  Use the efficiency of the largest motor category.\n[openstudio.standards.Fan] <0> For Fan Constant Volume 3, there is no greater nominal HP.  Use the efficiency of the largest motor category.\n[openstudio.EpwFile] <0> Successive data points (1967-Jan-31 to 1980-Feb-01, ending on line 753) are greater than 1 day apart in EPW file '/usr/local/bundle/bundler/gems/openstudio-standards-f448df66933d/openstudio-standards/data/weather/CAN_AB_Medicine.Hat.718720_CWEC.epw'. Data will be treated as typical (TMY)\n[openstudio.setFileExtension] <0> Path p, '/usr/local/bundle/bundler/gems/openstudio-standards-f448df66933d/openstudio-standards/data/weather/CAN_AB_Medicine.Hat.718720_CWEC.ddy', has an unexpected file extension. Was expecting 'idf'.\n[openstudio.model.YearDescription] <1> 'UseWeatherFile' is not yet a supported option for YearDescription\n[openstudio.model.YearDescription] <1> 'UseWeatherFile' is not yet a supported option for YearDescription\n[openstudio.setFileExtension] <0> Path p, '/usr/local/bundle/bundler/gems/openstudio-standards-f448df66933d/openstudio-standards/data/weather/CAN_AB_Medicine.Hat.718720_CWEC.ddy', has an unexpected file extension. Was expecting 'idf'.\n[openstudio.model.YearDescription] <1> 'UseWeatherFile' is not yet a supported option for YearDescription\n[openstudio.model.YearDescription] <1> 'UseWeatherFile' is not yet a supported option for YearDescription\n[openstudio.EpwFile] <0> Successive data points (1967-Jan-31 to 1980-Feb-01, ending on line 753) are greater than 1 day apart in EPW file '/usr/local/bundle/bundler/gems/openstudio-standards-f448df66933d/openstudio-standards/data/weather/CAN_AB_Medicine.Hat.718720_CWEC.epw'. Data will be treated as typical (TMY)\n[openstudio.setFileExtension] <0> Path p, '/usr/local/bundle/bundler/gems/openstudio-standards-f448df66933d/openstudio-standards/data/weather/CAN_AB_Medicine.Hat.718720_CWEC.ddy', has an unexpected file extension. Was expecting 'idf'.\n[openstudio.model.YearDescription] <1> 'UseWeatherFile' is not yet a supported option for YearDescription\n[openstudio.model.YearDescription] <1> 'UseWeatherFile' is not yet a supported option for YearDescription\n[openstudio.setFileExtension] <0> Path p, '/usr/local/bundle/bundler/gems/openstudio-standards-f448df66933d/openstudio-standards/data/weather/CAN_AB_Medicine.Hat.718720_CWEC.ddy', has an unexpected file extension. Was expecting 'idf'.\n[openstudio.model.YearDescription] <1> 'UseWeatherFile' is not yet a supported option for YearDescription\n[openstudio.model.YearDescription] <1> 'UseWeatherFile' is not yet a supported option for YearDescription\n[openstudio.EpwFile] <0> Successive data points (1967-Jan-31 to 1980-Feb-01, ending on line 753) are greater than 1 day apart in EPW file '/usr/local/bundle/bundler/gems/openstudio-standards-f448df66933d/openstudio-standards/data/weather/CAN_AB_Medicine.Hat.718720_CWEC.epw'. Data will be treated as typical (TMY)\n[openstudio.setFileExtension] <0> Path p, '/usr/local/bundle/bundler/gems/openstudio-standards-f448df66933d/openstudio-standards/data/weather/CAN_AB_Medicine.Hat.718720_CWEC.ddy', has an unexpected file extension. Was expecting 'idf'.\n[openstudio.model.YearDescription] <1> 'UseWeatherFile' is not yet a supported option for YearDescription\n[openstudio.model.YearDescription] <1> 'UseWeatherFile' is not yet a supported option for YearDescription\n[openstudio.setFileExtension] <0> Path p, '/usr/local/bundle/bundler/gems/openstudio-standards-f448df66933d/openstudio-standards/data/weather/CAN_AB_Medicine.Hat.718720_CWEC.ddy', has an unexpected file extension. Was expecting 'idf'.\n[openstudio.model.YearDescription] <1> 'UseWeatherFile' is not yet a supported option for YearDescription\n[openstudio.model.YearDescription] <1> 'UseWeatherFile' is not yet a supported option for YearDescription\n[openstudio.standards.Fan] <0> For Fan Constant Volume 1, there is no greater nominal HP.  Use the efficiency of the largest motor category.\n[openstudio.standards.Fan] <0> For Fan Constant Volume 2, there is no greater nominal HP.  Use the efficiency of the largest motor category.\n[openstudio.standards.Fan] <0> For Fan Constant Volume 3, there is no greater nominal HP.  Use the efficiency of the largest motor category.\n",
            "step_errors" : [],
            "step_files" : [],
            "step_info" : [
               "Started adding geometry",
               "Finished adding geometry",
               "Started adding weather file for climate zone: NECB HDD Method.",
               "Template =",
               "Setting Zone3 Bulk Storage to Space Function.Warehouse - med/blk",
               "Setting Zone2 Fine Storage to Space Function.Warehouse - fine",
               "Setting Zone1 Office to Space Function.Office - enclosed",
               "Started applying space types (loads)",
               "Space Function Office - enclosed had no people, one has been created.",
               "Space Function Office - enclosed set occupancy to 4.65 people/1000 ft^2.",
               "Space Function Office - enclosed had no lights, one has been created.",
               "Space Function Office - enclosed set LPD to 1.105536975 W/ft^2.",
               "Space Function Office - enclosed had no electric equipment, one has been created.",
               "Space Function Office - enclosed set electric EPD to 0.696767001 W/ft^2.",
               "Space Function Office - enclosed had no ventilation specification, one has been created.",
               "Space Function Office - enclosed set ventilation per area to 0.085 cfm/ft^2.",
               "Space Function Office - enclosed had no infiltration objects, one has been created.",
               "Space Function Office - enclosed set infiltration to 0.0 per ft^2 exterior surface area.",
               "Space Function Office - enclosed set occupancy schedule to NECB-A-Occupancy.",
               "Space Function Office - enclosed set occupant activity schedule to NECB-Activity.",
               "Space Function Office - enclosed set lighting schedule to NECB-A-Lighting.",
               "Space Function Office - enclosed set electric equipment schedule to NECB-A-Electric-Equipment.",
               "Space Function Office - enclosed set infiltration schedule to Always On.",
               "Space Function Office - enclosed set heating setpoint schedule to NECB-A-Thermostat Setpoint-Heating.",
               "Space Function Office - enclosed set cooling setpoint schedule to NECB-A-Thermostat Setpoint-Cooling.",
               "Space Function Warehouse - fine had no people, one has been created.",
               "Space Function Warehouse - fine set occupancy to 1.86 people/1000 ft^2.",
               "Space Function Warehouse - fine had no lights, one has been created.",
               "Space Function Warehouse - fine set LPD to 0.947603122 W/ft^2.",
               "Space Function Warehouse - fine had no electric equipment, one has been created.",
               "Space Function Warehouse - fine set electric EPD to 0.092902267 W/ft^2.",
               "Space Function Warehouse - fine had no ventilation specification, one has been created.",
               "Space Function Warehouse - fine set ventilation per area to 0.06 cfm/ft^2.",
               "Space Function Warehouse - fine had no infiltration objects, one has been created.",
               "Space Function Warehouse - fine set infiltration to 0.0 per ft^2 exterior surface area.",
               "Space Function Warehouse - fine set occupancy schedule to NECB-A-Occupancy.",
               "Space Function Warehouse - fine set occupant activity schedule to NECB-Activity.",
               "Space Function Warehouse - fine set lighting schedule to NECB-A-Lighting.",
               "Space Function Warehouse - fine set electric equipment schedule to NECB-A-Electric-Equipment.",
               "Space Function Warehouse - fine set infiltration schedule to Always On.",
               "Space Function Warehouse - fine set heating setpoint schedule to NECB-A-Thermostat Setpoint-Heating.",
               "Space Function Warehouse - fine set cooling setpoint schedule to NECB-A-Thermostat Setpoint-Cooling.",
               "Space Function Warehouse - med/blk had no people, one has been created.",
               "Space Function Warehouse - med/blk set occupancy to 0.93 people/1000 ft^2.",
               "Space Function Warehouse - med/blk had no lights, one has been created.",
               "Space Function Warehouse - med/blk set LPD to 0.594574508 W/ft^2.",
               "Space Function Warehouse - med/blk had no electric equipment, one has been created.",
               "Space Function Warehouse - med/blk set electric EPD to 0.092902267 W/ft^2.",
               "Space Function Warehouse - med/blk had no ventilation specification, one has been created.",
               "Space Function Warehouse - med/blk set ventilation per area to 0.06 cfm/ft^2.",
               "Space Function Warehouse - med/blk had no infiltration objects, one has been created.",
               "Space Function Warehouse - med/blk set infiltration to 0.0 per ft^2 exterior surface area.",
               "Space Function Warehouse - med/blk set occupancy schedule to NECB-A-Occupancy.",
               "Space Function Warehouse - med/blk set occupant activity schedule to NECB-Activity.",
               "Space Function Warehouse - med/blk set lighting schedule to NECB-A-Lighting.",
               "Space Function Warehouse - med/blk set electric equipment schedule to NECB-A-Electric-Equipment.",
               "Space Function Warehouse - med/blk set infiltration schedule to Always On.",
               "Space Function Warehouse - med/blk set heating setpoint schedule to NECB-A-Thermostat Setpoint-Heating.",
               "Space Function Warehouse - med/blk set cooling setpoint schedule to NECB-A-Thermostat Setpoint-Cooling.",
               "Finished applying space types (loads)",
               "Started applying constructions",
               "Adding construction set: NECB 2011-NECB HDD Method-Warehouse--is_residentialNo",
               "Adding construction Typical Insulated Exterior Mass Floor R-15.63.",
               "Adding construction Typical Insulated Exterior Mass Wall R-12.5.",
               "Adding construction Typical Insulated Metal Building Roof R-20.41.",
               "Adding construction Typical Interior Floor.",
               "Adding construction Typical Interior Wall.",
               "Adding construction Typical Interior Ceiling.",
               "Adding construction Typical Insulated Carpeted 6in Slab Floor.",
               "Adding construction U 0.55 SHGC 0.31 Dbl Ref-D Tint 6mm/6mm Air.",
               "Adding construction Typical Insulated Metal Door R-1.43.",
               "Adding construction U 0.35 SHGC 0.35 Dbl LoE (e2-.1) Tint 6mm/13mm Air.",
               "Adding construction Typical Overhead Door R-2.0.",
               "Adding construction U 0.48 SHGC 0.40 Dbl Ref-D Clr 6mm/13mm.",
               "Adding construction Typical Interior Window.",
               "Adding construction Typical Interior Door.",
               "Adding construction Typical Interior Partition.",
               "Finished applying constructions",
               "WWR NonRes = 0%; window = 0 ft2, wall = 0 ft2.",
               "WWR Res = 0%; window = 0 ft2, wall = 0 ft2.",
               "WWR Semiheated = 0%; window = 0 ft2, wall = 0 ft2.",
               "The skylight to roof ratios (SRRs) are: NonRes: 2%, Res: 0%.",
               "Started creating thermal zones",
               "Finished creating thermal zones",
               "Running simulation /mnt/openstudio/analysis_4fef0e0f-5396-4c55-a6e1-2cd6803db3ab/data_point_0a7b0ca3-6d13-4012-bac5-f3c26cb0a32b/run/000_create_prototype_building/output/Warehouse-NECB 2011-NECB HDD Method-CAN_AB_Medicine.Hat.718720_CWEC.epw/SR0.",
               "Finished run.",
               "Started Adding HVAC",
               "Finished adding HVAC",
               "Started Adding Service Water Heating",
               "Adding service water loop.",
               "Adding water heater.",
               "Template =",
               "Finished adding Service Water Heating",
               "Set sizing factors to 1.3 for heating and 1.3 for cooling.",
               "Running simulation /mnt/openstudio/analysis_4fef0e0f-5396-4c55-a6e1-2cd6803db3ab/data_point_0a7b0ca3-6d13-4012-bac5-f3c26cb0a32b/run/000_create_prototype_building/output/Warehouse-NECB 2011-NECB HDD Method-CAN_AB_Medicine.Hat.718720_CWEC.epw/SR1.",
               "Finished run.",
               "Started applying multizone vav OA sizing.",
               "Finished applying multizone vav OA sizing.",
               "Started applying prototype HVAC assumptions.",
               "For Fan Constant Volume 1: allowed_hp = 1.01HP; motor eff = 61.5%; total fan eff = 40% based on 1271 cfm.",
               "For Fan Constant Volume 2: allowed_hp = 9.69HP; motor eff = 61.5%; total fan eff = 40% based on 14162 cfm.",
               "For Fan Constant Volume 3: allowed_hp = 4.39HP; motor eff = 61.5%; total fan eff = 40% based on 6411 cfm.",
               "Sp-Zone1 Office Sys-3 Flr-1 Sch-A HPlcmt-south ZN NECB System 3 PSZ does not require an economizer because the total cooling capacity of 33879 Btu/hr is less than the minimum capacity of 68243 Btu/hr.",
               "Sp-Zone3 Bulk Storage Sys-4 Flr-1 Sch-A HPlcmt-east ZN NECB System 4 PSZ requires an economizer because the total cooling capacity of 377522 Btu/hr exceeds the minimum capacity of 68243 Btu/hr.",
               "Sp-Zone2 Fine Storage Sys-4 Flr-1 Sch-A HPlcmt-south ZN NECB System 4 PSZ requires an economizer because the total cooling capacity of 170905 Btu/hr exceeds the minimum capacity of 68243 Btu/hr.",
               "Finished applying prototype HVAC assumptions.",
               "Started applying HVAC efficiency standards.",
               "For Sp-Zone1 Office Sys-3 Flr-1 Sch-A HPlcmt-south ZN NECB System 3 PSZ, ERV not required based on 0% OA flow, design supply air flow of 1271cfm, and climate zone NECB HDD Method.",
               "For Sp-Zone1 Office Sys-3 Flr-1 Sch-A HPlcmt-south ZN NECB System 3 PSZ, ERV not required based on exhaust heat content.",
               "For NECB 2011 NECB HDD Method:  Sp-Zone1 Office Sys-3 Flr-1 Sch-A HPlcmt-south ZN NECB System 3 PSZ: DCV is not required for any system.",
               "For Sp-Zone1 Office Sys-3 Flr-1 Sch-A HPlcmt-south ZN NECB System 3 PSZ: Annual occupied hours = 2860 hr/yr, assuming a 0.15 occupancy threshold.  This schedule will be used as the HVAC operation schedule.",
               "For Sp-Zone1 Office Sys-3 Flr-1 Sch-A HPlcmt-south ZN NECB System 3 PSZ: Setting motorized OA damper schedule to Sp-Zone1 Office Sys-3 Flr-1 Sch-A HPlcmt-south ZN NECB System 3 PSZ Occ Sch.",
               "For Sp-Zone2 Fine Storage Sys-4 Flr-1 Sch-A HPlcmt-south ZN NECB System 4 PSZ, ERV not required based on 0% OA flow, design supply air flow of 6411cfm, and climate zone NECB HDD Method.",
               "For Sp-Zone2 Fine Storage Sys-4 Flr-1 Sch-A HPlcmt-south ZN NECB System 4 PSZ, ERV not required based on exhaust heat content.",
               "For NECB 2011 NECB HDD Method:  Sp-Zone2 Fine Storage Sys-4 Flr-1 Sch-A HPlcmt-south ZN NECB System 4 PSZ: DCV is not required for any system.",
               "For Sp-Zone2 Fine Storage Sys-4 Flr-1 Sch-A HPlcmt-south ZN NECB System 4 PSZ: Annual occupied hours = 2860 hr/yr, assuming a 0.15 occupancy threshold.  This schedule will be used as the HVAC operation schedule.",
               "For Sp-Zone2 Fine Storage Sys-4 Flr-1 Sch-A HPlcmt-south ZN NECB System 4 PSZ: Because the system has an economizer, it requires a motorized OA damper.",
               "For Sp-Zone2 Fine Storage Sys-4 Flr-1 Sch-A HPlcmt-south ZN NECB System 4 PSZ: Setting motorized OA damper schedule to Sp-Zone2 Fine Storage Sys-4 Flr-1 Sch-A HPlcmt-south ZN NECB System 4 PSZ Occ Sch.",
               "For Sp-Zone3 Bulk Storage Sys-4 Flr-1 Sch-A HPlcmt-east ZN NECB System 4 PSZ, ERV not required based on 0% OA flow, design supply air flow of 14162cfm, and climate zone NECB HDD Method.",
               "For Sp-Zone3 Bulk Storage Sys-4 Flr-1 Sch-A HPlcmt-east ZN NECB System 4 PSZ, ERV not required based on exhaust heat content.",
               "For NECB 2011 NECB HDD Method:  Sp-Zone3 Bulk Storage Sys-4 Flr-1 Sch-A HPlcmt-east ZN NECB System 4 PSZ: DCV is not required for any system.",
               "For Sp-Zone3 Bulk Storage Sys-4 Flr-1 Sch-A HPlcmt-east ZN NECB System 4 PSZ: Annual occupied hours = 2860 hr/yr, assuming a 0.15 occupancy threshold.  This schedule will be used as the HVAC operation schedule.",
               "For Sp-Zone3 Bulk Storage Sys-4 Flr-1 Sch-A HPlcmt-east ZN NECB System 4 PSZ: Because the system has an economizer, it requires a motorized OA damper.",
               "For Sp-Zone3 Bulk Storage Sys-4 Flr-1 Sch-A HPlcmt-east ZN NECB System 4 PSZ: Setting motorized OA damper schedule to Sp-Zone3 Bulk Storage Sys-4 Flr-1 Sch-A HPlcmt-east ZN NECB System 4 PSZ Occ Sch.",
               "For Fan Constant Volume 1: motor nameplate = 0.7916628303775072HP, motor eff = 61.5%.",
               "For Fan Constant Volume 2: motor nameplate = 9HP, motor eff = 61.5%.",
               "For Fan Constant Volume 3: motor nameplate = 4HP, motor eff = 61.5%.",
               "For Service Water Loop Pump: brake hp = 0.0HP, motor nameplate = 0.1HP, motor eff = 70.0%.",
               "For Pump Variable Speed 1: brake hp = 1.05HP, motor nameplate = 1.5HP, motor eff = 86.5%.",
               "For NECB 2011: Coil Cooling DX Single Speed 1: AirCooled All Other Single Package Capacity = 34kBtu/hr; SEER = 14.0",
               "For NECB 2011: Coil Cooling DX Single Speed 2: AirCooled All Other Single Package Capacity = 378kBtu/hr; EER = 8.21",
               "For NECB 2011: Coil Cooling DX Single Speed 3: AirCooled All Other Single Package Capacity = 171kBtu/hr; EER = 9.7",
               "For NECB 2011: Primary Boiler: Gas Hot Water Capacity = 392kBtu/hr; Thermal Efficiency = 0.83",
               "For NECB 2011: Secondary Boiler: Gas Hot Water Capacity = 392kBtu/hr; Thermal Efficiency = 0.83",
               "For NECB 2011: 40.0gal NaturalGas Water Heater - 40kBtu/hr 0.82 Therm Eff; thermal efficiency = 0.82, skin-loss UA = 6Btu/hr",
               "Finished applying HVAC efficiency standards.",
               "Started adding daylighting controls.",
               "Finished adding daylighting controls.",
               "Total Time = 49sec."
            ],
            "step_result" : "Success",
            "step_values" : [
               {
                  "name" : "building_type",
                  "value" : "Warehouse"
               },
               {
                  "name" : "template",
                  "value" : "NECB 2011"
               },
               {
                  "name" : "climate_zone",
                  "value" : "NECB HDD Method"
               },
               {
                  "name" : "epw_file",
                  "value" : "CAN_AB_Medicine.Hat.718720_CWEC.epw"
               }
            ],
            "step_warnings" : [
               "[openstudio.EpwFile] Successive data points (1967-Jan-31 to 1980-Feb-01, ending on line 753) are greater than 1 day apart in EPW file '/usr/local/bundle/bundler/gems/openstudio-standards-f448df66933d/openstudio-standards/data/weather/CAN_AB_Medicine.Hat.718720_CWEC.epw'. Data will be treated as typical (TMY)",
               "[openstudio.EpwFile] Successive data points (1967-Jan-31 to 1980-Feb-01, ending on line 753) are greater than 1 day apart in EPW file '/usr/local/bundle/bundler/gems/openstudio-standards-f448df66933d/openstudio-standards/data/weather/CAN_AB_Medicine.Hat.718720_CWEC.epw'. Data will be treated as typical (TMY)",
               "[openstudio.weather.Model] Could not find ground temperatures; will use generic temperatures, which will skew results.",
               "[openstudio.EpwFile] Successive data points (1967-Jan-31 to 1980-Feb-01, ending on line 753) are greater than 1 day apart in EPW file '/usr/local/bundle/bundler/gems/openstudio-standards-f448df66933d/openstudio-standards/data/weather/CAN_AB_Medicine.Hat.718720_CWEC.epw'. Data will be treated as typical (TMY)",
               "[openstudio.EpwFile] Successive data points (1967-Jan-31 to 1980-Feb-01, ending on line 753) are greater than 1 day apart in EPW file '/usr/local/bundle/bundler/gems/openstudio-standards-f448df66933d/openstudio-standards/data/weather/CAN_AB_Medicine.Hat.718720_CWEC.epw'. Data will be treated as typical (TMY)",
               "[openstudio.standards.Fan] For Fan Constant Volume 1, there is no greater nominal HP.  Use the efficiency of the largest motor category.",
               "[openstudio.standards.Fan] For Fan Constant Volume 2, there is no greater nominal HP.  Use the efficiency of the largest motor category.",
               "[openstudio.standards.Fan] For Fan Constant Volume 3, there is no greater nominal HP.  Use the efficiency of the largest motor category.",
               "[openstudio.EpwFile] Successive data points (1967-Jan-31 to 1980-Feb-01, ending on line 753) are greater than 1 day apart in EPW file '/usr/local/bundle/bundler/gems/openstudio-standards-f448df66933d/openstudio-standards/data/weather/CAN_AB_Medicine.Hat.718720_CWEC.epw'. Data will be treated as typical (TMY)",
               "[openstudio.EpwFile] Successive data points (1967-Jan-31 to 1980-Feb-01, ending on line 753) are greater than 1 day apart in EPW file '/usr/local/bundle/bundler/gems/openstudio-standards-f448df66933d/openstudio-standards/data/weather/CAN_AB_Medicine.Hat.718720_CWEC.epw'. Data will be treated as typical (TMY)",
               "[openstudio.EpwFile] Successive data points (1967-Jan-31 to 1980-Feb-01, ending on line 753) are greater than 1 day apart in EPW file '/usr/local/bundle/bundler/gems/openstudio-standards-f448df66933d/openstudio-standards/data/weather/CAN_AB_Medicine.Hat.718720_CWEC.epw'. Data will be treated as typical (TMY)",
               "[openstudio.standards.Fan] For Fan Constant Volume 1, there is no greater nominal HP.  Use the efficiency of the largest motor category.",
               "[openstudio.standards.Fan] For Fan Constant Volume 2, there is no greater nominal HP.  Use the efficiency of the largest motor category.",
               "[openstudio.standards.Fan] For Fan Constant Volume 3, there is no greater nominal HP.  Use the efficiency of the largest motor category."
            ]
         }
      },
      {
         "arguments" : {
            "__SKIP__" : false
         },
         "measure_dir_name" : "view_model",
         "name" : "view_model",
         "result" : {
            "completed_at" : "20170710T182509Z",
            "measure_class_name" : "ViewModel",
            "measure_display_name" : "ViewModel",
            "measure_name" : "view_model",
            "measure_taxonomy" : "Reporting.QAQC",
            "measure_type" : "ModelMeasure",
            "measure_uid" : "f4669f10-fda5-489d-8e1c-7ca3c2d40378",
            "measure_version_id" : "f4975c5f-7c25-42a2-927b-02d99b4427ef",
            "measure_version_modified" : "20170526T150340Z",
            "measure_xml_checksum" : "1E1F8B97",
            "started_at" : "20170710T182508Z",
            "stderr" : "",
            "stdout" : "[OpenStudio.Measure] <0> OSArgumentVector is deprecated, use OpenStudio::Measure::OSArgumentVector instead.\n",
            "step_errors" : [],
            "step_files" : [
               "/mnt/openstudio/analysis_4fef0e0f-5396-4c55-a6e1-2cd6803db3ab/data_point_0a7b0ca3-6d13-4012-bac5-f3c26cb0a32b/run/001_view_model/report.html",
               "/mnt/openstudio/analysis_4fef0e0f-5396-4c55-a6e1-2cd6803db3ab/data_point_0a7b0ca3-6d13-4012-bac5-f3c26cb0a32b/run/001_view_model/report.json"
            ],
            "step_final_condition" : "Report written to <a href='file:////mnt/openstudio/analysis_4fef0e0f-5396-4c55-a6e1-2cd6803db3ab/data_point_0a7b0ca3-6d13-4012-bac5-f3c26cb0a32b/run/001_view_model/report.html'>report.html</a>.",
            "step_info" : [ "No changes made to the model." ],
            "step_result" : "NA",
            "step_values" : [
               {
                  "name" : "view_model_html_zip",
[...]
u+l9dTGbvpLJai/WZDaZSIbG6KV54nXJFriVs/nYgkupbCG5bsmdyMe+50ql4o0lLurY2SHVZbz03TePEKmZ2+4U7qhS8D/Z2SdK7eu6Lwum44mkRx6/5lJ4Yal1GYdm+lP56kSuMiCjx9jcXV+e346Mfuq+77iYyvoyR1U3Eq02nkZ8I/Szf1w/GLjaLr9XIzGcX+NP0X+Z2Xm55/8+Vhch9aLNMSvnfYGqlwPsqO3/VDGZ8P+i2Rn5TDlucn08CdH/iheh9O9yKIRh9/aNF8mejiEEQ6n2b7q/OyeeXeuItPC/dUW/6SnpuxOFy9iyeUt6c343bru8eMHbGlXm2T/VOaSQ9e6HL211uiPmvlR71H1Rnm7wAbqelHvfFp0e1v7X1TBUoDNqUhm9IWm9I2m9IOm9Ium9Iem9I+m9Layzctpfii3OELc4cvzh2+QHf4It3hC3WHL9YdvmB3+KJ9wBftA8Y5nS/aB3zRPjCM9seNlzQrYCw9A6GCc2UmVHCmzIQKzpOZUMGcYCZUMCOYCRXMB2ZCBbOBmVDBXGAmVFT4DJXYYruo7BkqsUV3UdEzVGKL76KSZ6jEFuFFBc9QiS3Gi8qdoRLf/M0W40W1zlDJJMYfNb7QLHOqN4aBUsFpMlQqOE2GSgWnyVCpYCowVCqYCgyVCqYCQ6WCqcBQqWAqMFQqqnemUnxRXlTxTKX44ryo5plK8UV6UdUzleKL9aK6ZyrFF+1Flc9UinFO54v2ouJnKlUa7XgZPV5GvxTS2A0vo3+04WX0Olh4GT1eRl9lw8vo1YaX0eNl9PmGl9EXfxMvoy8XUBteRv803tkIHOAABzjAAQ5wgAMc4AAHOE8e5xt7lSNoQAMa0IAGNKABDWhAAxrQPB2ab+udjcABDnCAAxzgAAc4wAEOcIDzTeF8xeZsr0apf+On87fyRgai/R+0Z/sW27MtL9LT6MTmPIFObE5jndj6vf42SyM2K6Ehl9AWl9A2l9AOl9Aul9Ael9A+l9Dac/l2Smyx7bAFt8MW3Q5beDts8e2wBbjDFuEOW4g7bDE+YIvxAd/8zRbjA7YYH5jFuH7HtXWt6g3XbHTos1S93ZqNDj0LVG+2ZqNDzwDVW63Z6NDZb9FozUqIK6ILyptFlzUrIa6gLqhtFi3WrIS44rqgsFn0V7OaGbkiu6CqWTRXsxLiiuyCkla9s9q6jkVjNSsh+hRZtFWzEqKT36KpmpUQnfwWLdWshOjkt2moZqfEFtsFlc2mm5qdElt4FxQ3m1ZqdkpsEV5Q32z6qNnNlWwxXlDibJqo2SmxxXhBlUMHNXRQQwe1R4TooKY2dFBDBzV0UCvY0EENHdSMjgod1Nb8Db6PDmoPN3RQu99quGHrG2s0ABzgAAc4wAEOcIADHOAABzhPHucb6z8AGtCABjSgAQ1oQAMa0IAGNE+H5m/T9wA4wAEOcIADHOAABzjAAQ5wqvt9hQ5qaJj2TTVMOx1NpDfLzrJ6HCqRqXD6T6Nt2uAJtE0bNNY2bSd/KLRqixsuoSGX0BaX0DaX0A6X0C6X0B6X0D6X0NrT93ZKbLHtsAW3wxbdDlt4O2zx7bAFuMMW4Q5biDtsMT5gi/EB3/zNFuMDthgfmMW4ftu0da3qbdNsdOizVL1tmo0OPQtUb5tmo0PPANXbptno0Nlv0TbNSogrogvKm0XbNCshrqAuqG0WbdOshLjiuqCwWbRNs5oZuSK7oKpZtE2zEuKK7IKSVr1t2rqORds0KyH6FFm0TbMSopPfom2alRCd/BZt06yE6OS3aZtmp8QW2wWVzaZtmp0SW3gXFDebtml2SmwRXlDfbNqm2c2VbDFeUOJs2qbZKbHFeEGVQ9s0tE1D27RHhGibpja0TUPbNLRNK9jQNg1t04yOCm3T1vwNvo+2aQ83tE2732q4S+sb6y4AHOAABzjAAQ5wgAMc4AAHOE8e5xtrOgAa0IAGNKABDWhAAxrQgAY0T4fmb9PsADjAAQ5wgAMc4AAHOMABDnCq+6Ft2nJD27T7tmnO02ibNnwCbdOGjbVN6/cGLF3TbHSGTDpbTDrbTDo7TDq7TDp7TDr7TDprD91bCXFFtMMV0g5XTDtcQe1wRbXDFdYOV1w7XIHtcEX2gCuyB2xzNVdkD7gie2AU2frt0dakqndHs5Ahz1D13mgWMmTeV++MZiFD5nz1vmgWMmS+W3RFs9FhimO6jFm0RLPRYQpluoZZ9EOz0WGKZrqAWTRDs5kHmeKZrl4WndBsdJjimS5d1dugrclYdEGz0SFPj0UPNBsdMt0tOqDZ6JDpbtH/zEaHTHeb7mdWQlwRTVcwm9ZnVkJcQU0XMZu+Z1ZCXHFN1zGbpmdWMyNXZNOlzKbjmZUQV2TT1QztztDuDO3OHhGi3Zna0O4M7c7Q7qxgQ7sztDszOiq0O1vzN/g+2p093NDu7H6r4e6qb6wrAHCAAxzgAAc4wAEOcIADHOA8eZxvrFkAaEADGtCABjSgAQ1oQAMa0Dwdmr9NkwLgAAc4wAEOcIADHOAABzjAqe6HdmfLDe3OVu3Ohk+j29nWE+h2ttVgt7P+NlO7MwuhIZfQFpfQNpfQDpfQLpfQHpfQPpfQZ0/b2yixxbbDFtwOW3Q7bOHtsMW3wxbgDluEO2wh7rDF+IAtxgd88zdbjA/YYnxgFuMmXdAeatm0QauuQ58lm0Zo1XXoWcCmFVp1HXoGsGmGVl2Hzn6rdmgWQlwRXVDerDqiWQhxBXVBbbNqimYhxBXXBYXNqi+axczIFdkFVc2qNZqFEFdkF5Q0m+5oD3Ws2qNZCNGnyKpBmoUQnfxWLdIshOjkt2qSZiFEJ79dmzQbJbbYLqhsdp3SbJTYwruguNk1S7NRYovwgvpm1y/NZq5ki/GCEmfXMs1GiS3GC6ocuqahaxq6pj0iRNc0taFrGrqmoWtawYauaeiaZnRU6Jq25m/wfXRNe7iha9r9VsNNWt9YcwHgAAc4wAEOcIADHOAABzjAefI431jPAdCABjSgAQ1oQAMa0IAGNKB5OjR/m14HwAEOcIADHOAABzjAAQ5wgFPdD13Tlhu6pq26pm09ja5p20+ga9p2Y13TdvJnQqt2uOESGnIJbXEJbXMJ7XAJ7XIJ7XEJ7XMJrT18b6fEFtsOW3A7bNHtsIW3wxbfDluAO2wR7rCFuMMW4wO2GB/wzd9sMT5gi/GBWYzrd01b16reNc1Ghz5L1bum2ejQs0D1rmk2OvQMUL1rmo0Onf0WXdOshLgiuqC8WXRNsxLiCuqC2mbRNc1KiCuuCwqbRdc0q5mRK7ILqppF1zQrIa7ILihp1bumretYdE2zEqJPkUXXNCshOvktuqZZCdHJb9E1zUqITn6brml2SmyxXVDZbLqm2SmxhXdBcbPpmmanxBbhBfXNpmua3VzJFuMFJc6ma5qdEluMF1Q5dE1D1zR0TXtEiK5pakPXNHRNQ9e0gg1d09A1zeio0DVtzd/g++ia9nBD17T7rYabtL6x5gLAAQ5wgAMc4AAHOMABDnCA8+RxvrGeA6ABDWhAAxrQgAY0oAENaEDzdGj+Nr0OgAMc4AAHOMABDnCAAxzgAKe6H7qmLTd0TVt1Tdt+Gl3Tdp5A17Sdxrqm9XsDlqZpNjpDJp0tJp1tJp0dJp1dJp09Jp19Jp21Z+6thLgi2uEKaYcrph2uoHa4otrhCmuHK64drsB2uCJ7wBXZA7a5miuyB1yRPTCKbP3uaGtS1ZujWciQZ6h6azQLGTLvqzdGs5Ahc756WzQLGTLfLZqi2egwxTFdxiw6otnoMIUyXcMs2qHZ6DBFM13ALHqh2cyDTPFMVy+LRmg2OkzxTJeu6l3Q1mQsmqDZ6JCnx6IFmo0Ome4WDdBsdMh0t2h/ZqNDprtN8zMrIa6IpiuYTeczKyGuoKaLmE3bMyshrrim65hNzzOrmZErsulSZtPwzEqIK7LpaoZuZ+h2hm5njwjR7Uxt6HaGbmfodlawodsZup0ZHRW6na35G3wf3c4ebuh2dr/VcHPVN9YUADjAAQ5wgAMc4AAHOMABDnCePM431isANKABDWhAAxrQgAY0oAENaJ4Ozd+mRwFwgAMc4AAHOMABDnCAAxzgVPdDt7Plhm5nq25nO0+j29nuE+h2tttgt7P+NlO7MwuhIZfQFpfQNpfQDpfQLpfQHpfQPpfQZ0/b2yixxbbDFtwOW3Q7bOHtsMW3wxbgDluEO2wh7rDF+IAtxgd88zdbjA/YYnxgFuMmXdAeatm0QauuQ58lm0Zo1XXoWcCmFVp1HXoGsGmGVl2Hzn6rdmgWQlwRXVDerDqiWQhxBXVBbbNqimYhxBXXBYXNqi+axczIFdkFVc2qNZqFEFdkF5Q0m+5oD3Ws2qNZCNGnyKpBmoUQnfxWLdIshOjkt2qSZiFEJ79dmzQbJbbYLqhsdp3SbJTYwruguNk1S7NRYovwgvpm1y/NZq5ki/GCEmfXMs1GiS3GC6ocuqahaxq6pj0iRNc0taFrGrqmoWtawYauaeiaZnRU6Jq25m/wfXRNe7iha9r9VsNNWt9YcwHgAAc4wAEOcIADHOAABzjAefI431jPAdCABjSgAQ1oQAMa0IAGNKB5OjR/m14HwAEOcIADHOAABzjAAQ5wgFPdD13Tlhu6pq26pu0+ja5pe0+ga9peY13TdvJnQqt2uOESGnIJbXEJbXMJ7XAJ7XIJ7XEJ7XMJrT18b6fEFtsOW3A7bNHtsIW3wxbfDluAO2wR7rCFuMMW4wO2GB/wzd9sMT5gi/GBWYzrd01b16reNc1Ghz5L1bum2ejQs0D1rmk2OvQMUL1rmo0Onf0WXdOshLgiuqC8WXRNsxLiCuqC2mbRNc1KiCuuCwqbRdc0q5mRK7ILqppF1zQrIa7ILihp1bumretYdE2zEqJPkUXXNCshOvktuqZZCdHJb9E1zUqITn6brml2SmyxXVDZbLqm2SmxhXdBcbPpmmanxBbhBfXNpmua3VzJFuMFJc6ma5qdEluMF1Q5dE1D1zR0TXtEiK5pakPXNHRNQ9e0gg1d09A1zeio0DVtzd/g++ia9nBD17T7rYabtL6x5gLAAQ5wgAMc4AAHOMABDnCA8+RxvrGeA6ABDWhAAxrQgAY0oAENaEDzdGj+Nr0OgAMc4AAHOMABDnCAAxzgAKe6H7qmLTd0TVt1Tdt7Gl3T9p9A17T9xrqm9XsDlqZpNjpDJp0tJp1tJp0dJp1dJp09Jp19Jp21Z+6thLgi2uEKaYcrph2uoHa4otrhCmuHK64drsB2uCJ7wBXZA7a5miuyB1yRPTCKbP3uaGtS1ZujWciQZ6h6azQLGTLvqzdGs5Ahc756WzQLGTLfLZqi2egwxTFdxiw6otnoMIUyXcMs2qHZ6DBFM13ALHqh2cyDTPFMVy+LRmg2OkzxTJeu6l3Q1mQsmqDZ6JCnx6IFmo0Ome4WDdBsdMh0t2h/ZqNDprtN8zMrIa6IpiuYTeczKyGuoKaLmE3bMyshrrim65hNzzOrmZErsulSZtPwzEqIK7LpaoZuZ+h2hm5njwjR7Uxt6HaGbmfodlawodsZup0ZHRW6na35G3wf3c4ebuh2dr/VcHPVN9YUADjAAQ5wgAMc4AAHOMABDnCePM431isANKABDWhAAxrQgAY0oAENaJ4Ozd+mRwFwgAMc4AAHOMABDnCAAxzgVPdDt7Plhm5nq25n+0+i29mw/+13O8sYm+p25mz1e/0Hm7PF0vyMUXZYj+xWPbLb9cju1CO7W4/sXj2y+/XIrj3rz6lbU545NSWaU1OmOTWlmlNTrjk1JZtTU7Y5NaWbU1O+DWrKt0Fdda2mfBvUlG8Dm3zT7ypXpFy9yRyfqu7Zrd6Cjk9Vdyar3qCOT1V3Fqvevo5PVXcGs2huxyhbT3ZpLxcsOuExytaTYNprBYu2eYyy9eSY9kLBosceY1WoJ8u0VwkWDfkYZevJMu0lQvXufUWqFs38GGV1T61Fqz9GWd0JzKIRIKOs7gRm0SaQUVZ3ArNpIsipW1Oeaa8UbDoOcurWlGraiwWb9oScujVlm/Z6waaXIWedqCnftJcMNo0POXVryjftVQO6JKJLIrokPiJEl0S1oUsiuiSiS2LBhi6J6JJodFTokrjmb/B9dEl8uKFL4v1Ww02Z31gzEeAABzjAAQ5wgAMc4AAHOMB58jjfWI8R0IAGNKABDWhAAxrQgAY0oHk6NH+b3ibAAQ5wgAMc4AAHOMABDnCAU93vK3RJfC+vpzJ201ksRfvNBpomfltNE2V844+k+I+rIu9tFE2FumDqPuet/pun0UDReQINFJ3mGiiq/6/aqYlJZ8iks8Wks82ks8Oks8uks8eks8+ks95gwEaIK6IdrpB2uGLa4QpqhyuqHa6wdrji2uEKbIcrsgdckT1gm6u5InvAFdkDo8g2aOz3UMqik191GfIMWfTqqy5D5r1FN77qMmTOW/Tbqy5D5rtNRz0LHaY4psuYTZM8Cx2mUKZrmE3fOwsdpmimC5hNKzuLeZApnunqZdOdzkKHKZ7p0mXRcO6hjE2HOQsd8vTY9JCz0CHT3aZLnIUOme42feAsdMh0t+r0ZiPEFdF0BbNq3mYjxBXUdBGz6sdmI8QV13Qds2qxZjMzckU2XcqsuqbZCHFFNl3NHgn9HvtR7Kdz4YiuaJ/Owg3Vkmqn+3/csNt3uvn/v5ajrvoF5pfLXH/tB71Xr7a29vcZLAb1Wwzrt9iq32K7foud+i1267fYq99iv36Ltcpel0cD+e00kOBOAxnuNJDiTgM57jSQ5E4DWe40kOZOA3k+aCDPB03U8QbyfNBAng+q5fkg93BTyqOvt6waDgeDvR0GC/pqsFnQF4PNgr4WbBb0lMtmQc+4bBb0hMtmQc+3bBb0dMtmUbCs4vNoIL8LllV8Hg1keMGyis+jgRwvWFbxeTSQ5QXLKj6PBvK8YFnF59FEHW8gzwuWVXwe1fJ8qDzexD7hMdjXW1Y5zu7ucMhgQV8NNgv6YrBZ0NeCzYKectks6BmXzYKecNks6PmWzYK+N4rNouCGQD4P+o4qPg/6Zis+D/o+LD4P+hYtPg/6vkQ+D/qWRT4P+m5GPg/6Rkc+jwbyvGBZxefRRB1voJAXLKv4PKqV8i3l8X4yozz29JZV+9m2/SODBX012Czoi8FmQV8LNgt6WcVmQS+r2CzoZRWbBb2sYrOgp1s2i4JlFZ8Hvazi86CXVXwe9LKKz4NeVvF50MsqPg96WcXnQS+r+DzoZRWfRwN5XrCs4vNooo43UMgLllV8HtVK+bby+I/0KI9dvWXV69dHR7u7DBb01WCzoC8GmwV9Ldgs6GUVmwW9rGKzoJdVbBb0sorNgp5u2SwKllV8HvSyis+DXlbxedDLKj4PelnF50Evq/g86GUVnwe9rOLzoJdVfB4N5HnBsorPo4k63kAhL1hW8XlUK+U7+dJtJimPHb1l1dHRzg6LBX012Czoi8FmQV8LNgt6WcVmQS+r2CzoZRWbBb2sYrOgp1s2i4JlFZ8Hvazi86CXVXwe9LKKz4NeVvF50MsqPg96WcXnQS+r+DzoZRWfRwN5XrCs4vNooo43UMgLllV8HtVK+a7y+DWibosfbOstq/b2BoPtbQYL+mqwWdAXg82CvhZsFvSyis2CXlaxWdDLKjYLelnFZlHUd4rJorDZGpdHUbcqLo+iRlZcHkU9rrg8itpfcXkU9Xzj8ihqB8flUdQpjsujqIkcl0cDeV6wrOLzaKKON1DIC5ZVfB7lpfyDTofXZU9mcShCebtqIJv3jW0nN+NO3gG2tFXsqrFzItMfo1noJe3tfkc4znZHDNX/Dbb12s3eZRj3Tak978hN5TiK56/u/GTRFvn++DW6R2cCJ7En43cz1aVYe0fFMV/n+FW6ySyWCwzVaHl53mtuz41hDGMYwxjGMIYxjGEMYxjDGMYwhjGMYQxjGMMYxjCGMYxhDGMYwxjGMIYxjGEMYxjDGMYwhjGMYQxjGMMYxjCGMYxhDGMYwxjGMIYxjOFnNTzvRTcyjn1P/uqqB2udXt/yeVX1aGyy/mjsqYx9mSwfr211Vg8QT4Mo7QV+KEsfkU2+9Jxu+ZO1SS9/9fw0CtzUj8IMqpWkctq9kJdRLFt6Tz6/lWMZeusHtPisvdPviKF6crmvHmRW/7QCeZkqsBLplWzvfCzT4zBV5yezuJyFo5y0vSH+LJFYEcr7vc9Kn+VWm38p2unET3pJflX0jNT2YKdedv6O3dGk/RewqdoKXz06nrEvdc+nUeIrwdfZxzpHs9qUzBeo4ujWDGmF5YeeVPnQdTqGe6+2q6o7XvoyUPHWXp7TRZ6M42g2lZ74/nvxj+Xnd73ziZssn39XCbbxcHT+xdHshPTc8fiN8ugFMhynE/FSDMS/RetVELTEwfo3ksAfyXbX2Tjrf9gozbdHRxLFon2VHUr/B3GV2SxDdemrPvtnNuOYXyC1qTBe6p1dfeh9lHNxeHi4OHnVFHPV5WW/Mj3U1XYRS/djlZ0/Ge5j+n11vpZHd6jCWgXDMlLyRg69czdJ/HEovSPVIiI5y8/kh2qncnWhp7Nk0q56LbJLerC4ntUzKQgOdI6yp75Z1SVJ4+ij1PNZfLeqUzR1R34617NafrnyUeUWK6uqKquJZH1aqZIexpOP2lbpvD7xiK5wTNVM0k2f9VMnr6pa3/9UtqZQ2+am+P2P9+K/J3+8E6cn797/8ttP4u3JT78ciZ+P3x3rCbzJZm1556olmkgjkURxKsLZdRYHI5G3NEmEm4yyxYsfjjUUV+de6TyozG5HXOhPLrFMZ3Eopm6cyDdB5KZtV035G9mlfPDZRf6Z1sksX6I9sF0eQpnwp3o7vdyvP/N0z5O9/cKTl+4sSMU0jrI5TL7oiBff7e0dHR0fv6i58QxwgAMc4AAHOMABDnCAAxzgPE8ckcyusx+BhSfVh8Jz54oolh5oQAMa0IAGNKABDWhAAxrQgKaY5ja/NeszmotgJoEDHOAABzjAAQ5wgAMc4AAHOFVw7t8b6Kj3Bp7OqPcGDp38L2yvXm1t7e+DFKQgBSlIQQpSkIIUpCAFKUhBCtKnQTrISd2UIu3npMPhYLC3A1KQghSkIAUpSEEKUpCCFKQgBSlInwbpUJG+iX2CdLCfkzrO7u5wCFKQghSkIAUpSEEKUpCCFKQgBSlInwbpliJ9P5lRpHs56X62bf8IUpCCFKQgBSlIQQpSkIIUpCAFKUifBum2Iv2P9CjS3Zz09eujo91dkIIUpCAFKUhBClKQghSkIAUpSEH6NEh38t9MzCRFupOTHh3t7IAUpCAFKUhBClKQghSkIAUpSEEK0qdCuqtIf42ozoKD7Zx0b28w2N4GKUhBClKQghSkIAUpSEEKUpCCFKSNka5QvNi9bZeK3fVSPw3k6cSdyl4q79L2i5+jWZyUY8wf7/nav5Zh4kdhIJNcoURic1O88jzhilxJ3PrpRCTRtRTesGTP5Gbcc6dTGXrtlvJubZTssNp6bprG7dZdqyN2+oY7zbOdBvo7Jek8kAu8rhuOJlGc7d8K5KUB7VLjMgrT7q30x5NUaVxEgaevsbg2p9Pu/6JQOuLk8tIfSXE6T7pD8SaIu444HU26r8TPvwej67SbRLPsMvzvN/Hb8dGP6mupvBZD8fvp/8TJaKS++2Kj6MK+3ExGsT9N/0V+5+Wm5998eZjchxbLtITvHbZGKuqPshPl+qGMz4eDlsjP3mHL85Np4M4P/DDIhroXQTT6+EOL5stEF4cg0vk021+dwM0r98ZdfFq4p9pu3FgFqDgUnn89DWQvlLenN+N267vHjB2x1e/n/5QmnJL13NTNdM/+bAXuhQxaBy1PXrqzIBXTOLr0A9nqLEbO71oHTq/fad24wUwu/3+k5qVsn2yqOTo6Pm596mjpDJh0hkw6W0w620w6O0w6u0w6e0w6+0w6Tp9LiCuiHa6Qdrhi2uEKaocrqh2usHa44trhCmyHK7IHXJE9YJuruSJ7wBXZA6PIFsns+nrtRdVaFS2WnoEMeY7MZMgzZCZDnh8zGTLvzWTIrDeTIXPeTIbMeDMZMt/NZOhCZqjDFMd0GTPUYYpkuogZ6jDFMl3CDHWYopkuYIY6TPFMly9DHa55mSme6dplqKMfz7d+mJqXrQv1kb4OeXoMdcjTY6hDnh5DHTLdDXXIdDfUIdPdUIdMd0MdMt0Ndej6ZSrEFdF0BTMV4oppuoaZCnFFNV3FTIW44pquY6ZCXJFNVzJTIba5miuy6WJmKqQf2fd/uSh9szBV5vprP+gtXj3MYDGo32JYv8VW/Rbb9Vvs1G+xW7/FXv0W+/VbrFX2ujwayG+ngQR3Gshwp4EUdxrIcaeBJHcayHKngTR3GsjzQQN5PmiijjeQ54MG8nxQLc9LX+Cot6xavOGRwYK+GmwW9MVgs6CvBZsFPeWyWdAzLpsFPeGyWdDzLZsFPd2yWRQsq/g8GsjvgmUVn0cDGV6wrOLzaCDHC5ZVfB4NZHnBsorPo4E8L1hW8Xk0UccbyPOCZRWfR7U8L31Plt6yavEiLQYL+mqwWdAXg82CvhZsFvSUy2ZBz7hsFvSEy2ZBz7dsFvS9UWwWBTcE8nnQd1TxedA3W/F50Pdh8XnQt2jxedD3JfJ50Lcs8nnQdzPyedA3OvJ5NJDnBcsqPo8m6ngDhbxgWcXnUa2Ul76ORG9ZtXhfCYMFfTXYLOiLwWZBXws2C3pZxWZBL6vYLOhlFZsFvaxis6CnWzaLgmUVnwe9rOLzoJdVfB70sorPg15W8XnQyyo+D3pZxedBL6v4POhlFZ9HA3lesKzi82iijjdQyAuWVXwe1Up5add3vWXVoi08gwV9Ndgs6IvBZkFfCzYLelnFZkEvq9gs6GUVmwW9rGKzoKdbNouCZRWfB72s4vOgl1V8HvSyis+DXlbxedDLKj4PelnF50Evq/g86GUVn0cDeV6wrOLzaKKON1DIC5ZVfB7VSnlpc129ZdWi+y6DBX012Czoi8FmQV8LNgt6WcVmQS+r2CzoZRWbBb2sYrOgp1s2i4JlFZ8Hvazi86CXVXwe9LKKz4NeVvF50MsqPg96WcXnQS+r+DzoZRWfRwN5XrCs4vNooo43UMgLllV8HtVKeWkPQ71l1aLJIYMFfTXYLOiLwWZBXws2C3pZxWZBL6vYLOhlFZsFvaxisyjqO8VkUdhsjcujqFsVl0dRIysuj6IeV1weRe2vuDyKer5xeRS1g+PyKOoUx+VR1ESOy6OBPC9YVvF5NFHHGyjkBcsqPo/yUv5Bp8Prsn2zOBShvF01kM37xraTm3En7wBb2ip21QM6kemP0Sz0kvZ2vyMcZ7sjhur/Btt67WbvMoz71taed+SmchzF81d3frLooXx//BqNpjOBk9iT8buZammsvaPimK9z/CrdZBbLBYbqyrw87zU3+cYwhjGMYQxjGMMYxjCGMYxhDGMYwxjGMIYxjGEMYxjDGMYwhjGMYQxjGMMYxjCGMYxhDGMYwxjGMIYxjGEMYxjDGMYwhjGMYQxjGMMYxvCzGp73ohsZx74nf3XVg7VOr2/5vKp6NDZZfzT2VMa+TJaP17Y6qweIp0GU9gI/lKWPyCZfek63/MnapJe/en4aBW7qR2EG1UpSOe1eyMsoli29J5/fyrEMvfUDWnzW3ul3xFA9udxXDzKrf1qBvEwVWIn0SrZ3PpbpcZiq85NZXM7CUU7a3hB/lkisCOX93melz3Krzb8U7XTiJ70kvyp6Rmp7sFMvO3/H7mjS/gvYVG2Frx4dz9iXuufTKPGV4OvsY52jWW1K5gtUcXRrhrTC8kNPqnzoOh3DvVfbVdUdL30ZqHhrL8/pIk/GcTSbSk98/734x/Lzu975xE2Wz7+rBNt4ODr/4mh2QnruePxGefQCGY7TiXgpBuLfovUqCFriYP0bSeCPZLvrbJz1P2yU5tujI4li0b7KDqX/g7jKbJahuvRVn/0zm3HML5DaVBgv9c6uPvQ+yrk4PDxcnLxqirnq8rJfmR7qaruIpfuxys6fDPcx/b46X8ujO1RhrYJhGSl5I4feuZsk/jiU3pFqEZGc5WfyQ7VTubrQ01kyaVe9FtklPVhcz+qZFAQHOkfZU9+s6pKkcfRR6vksvlvVKZq6Iz+d61ktv1z5qHKLlVVVldVEsj6tVEkP48lHbat0Xp94RFc4pmom6abP+qmTV1Wt738qW1OobXNT/P7He/Hfkz/eidOTd+9/+e0n8fbkp1+OxM/H7471BN5ks7a8c9USTaSRSKI4FeHsOouDkchbmiTCTUbZ4sUPxxqKq3OvdB5UZrcjLvQnl1imszgUUzdO5JsgctO2q6b8jexSPvjsIv9M62SWL9Ee2C4PoUz4U72dXu7Xn3m658nefuHJS3cWpGIaR9kcJl90xIvv9vaOjo6PX9TceAY4wAEOcIADHOAABzjAAQ5wnieOSGbX2Y/AwpPqQ+G5c0UUSw80oAENaEADGtCABjSgAQ1oQFNMc5vfmvUZzUUwk8ABDnCAAxzgAAc4wAEOcIADnCo49+8NdNR7A09n1HsDh07+F7ZXr7a29vdBClKQghSkIAUpSEEKUpCCFKQgBenTIB3kpG5KkfZz0uFwMNjbASlIQQpSkIIUpCAFKUhBClKQghSkT4N0qEjfxD5BOtjPSR1nd3c4BClIQQpSkIIUpCAFKUhBClKQghSkT4N0S5G+n8wo0r2cdD/btn8EKUhBClKQghSkIAUpSEEKUpCCFKRPg3Rbkf5HehTpbk76+vXR0e4uSEEKUpCCFKQgBSlIQQpSkIIUpCB9GqQ7+W8mZpIi3clJj452dkAKUpCCFKQgBSlIQQpSkIIUpCAF6VMh3VWkv0ZUZ8HBdk66tzcYbG+DFKQgBSlIQQpSkIIUpCAFKUhBCtLGSFcoXuzetkvF7nqpnwbydOJOZS+Vd2n7xc/RLE7KMeaP93ztX8sw8aMwkEmuUCKxuSleeZ5wRa4kbv10IpLoWgpvWLJncjPuudOpDL12S3m3Nkp2WG09N03jduuu1RE7fcOd5tlOA/2dknQeyAVe1w1HkyjO9m8F8tKAdqlxGYVp91b640mqNC6iwNPXWFyb02n3f1EoB+KNH0pxmkaxO87+O0+6W+JNEHcdcTqadF+Jn38PRtdpN4lm2cX432/it+OjH9XXUnkttsTvp/8TJ6OR+u6LjaLL+3IzGcX+NP0X+Z2Xm55/8+Vhch9aLNMSvnfYGqnYP8pOl5sdZnw+HLZEfg4PW56fTAN3fuCHQTbUvQii0ccfWjRfJro4BJHOp9n+6jRuXrk37uLTwj3VduPGKkzFofD862kge6G8Pb0Zt1vfPWbsiK1+P/+nNO2UrOembqZ79mcrcC9k0DpoefLSnQWpmMbRpR/IVmcxcn7XOnB6/U7rxg1mcvn/IzU7ZftkE87R0fFx61NHS2fApDNk0tli0tlm0tlh0tll0tlj0tln0nH6XEJcEe1whbTDFdMOV1A7XFHtcIW1wxXXDldgO1yRPeCK7AHbXM0V2QOuyB4YRbZIZtfXa6+r1qposfQMZMhzZCZDniEzGfL8mMmQeW8mQ2a9mQyZ82YyZMabyZD5biZDFzJDHaY4psuYoQ5TJNNFzFCHKZbpEmaowxTNdAEz1GGKZ7p8GepwzctM8UzXLkMd/Xi+9cPUvGxdqI/0dcjTY6hDnh5DHfL0GOqQ6W6oQ6a7oQ6Z7oY6ZLob6pDpbqhD1y9TIa6IpiuYqRBXTNM1zFSIK6rpKmYqxBXXdB0zFeKKbLqSmQqxzdVckU0XM1Mh/ci+//tF6fuFqTLXX/tBb/ECYgaLQf0Ww/ottuq32K7fYqd+i936Lfbqt9iv32Ktstfl0UB+Ow0kuNNAhjsNpLjTQI47DSS500CWOw2kudNAng8ayPNBE3W8gTwfNJDng2p5XvoaR71l1eI9jwwW9NVgs6AvBpsFfS3YLOgpl82CnnHZLOgJl82Cnm/ZLOjpls2iYFnF59FAfhcsq/g8GsjwgmUVn0cDOV6wrOLzaCDLC5ZVfB4N5HnBsorPo4k63kCeFyyr+Dyq5Xnp27L0llWL12kxWNBXg82CvhhsFvS1YLOgp1w2C3rGZbOgJ1w2C3q+ZbOg741isyi4IZDPg76jis+DvtmKz4O+D4vPg75Fi8+Dvi+Rz4O+ZZHPg76bkc+DvtGRz6OBPC9YVvF5NFHHGyjkBcsqPo9qpbz0pSR6y6rFW0sYLOirwWZBXww2C/pasFnQyyo2C3pZxWZBL6vYLOhlFZsFPd2yWRQsq/g86GUVnwe9rOLzoJdVfB70sorPg15W8XnQyyo+D3pZxedBL6v4PBrI84JlFZ9HE3W8gUJesKzi86hWykt7v+stqxbN4Rks6KvBZkFfDDYL+lqwWdDLKjYLelnFZkEvq9gs6GUVmwU93bJZFCyr+DzoZRWfB72s4vOgl1V8HvSyis+DXlbxedDLKj4PelnF50Evq/g8GsjzgmUVn0cTdbyBQl6wrOLzqFbKS1vs6i2rFj14GSzoq8FmQV8MNgv6WrBZ0MsqNgt6WcVmQS+r2CzoZRWbBT3dslkULKv4POhlFZ8Hvazi86CXVXwe9LKKz4NeVvF50MsqPg96WcXnQS+r+DwayPOCZRWfRxN1vIFCXrCs4vOoVspLOxnqLasWrQ4ZLOirwWZBXww2C/pasFnQyyo2C3pZxWZBL6vYLOhlFZtFUd8pJovCZmtcHkXdqrg8ihpZcXkU9bji8ihqf8XlUdTzjcujqB0cl0dRpzguj6ImclweDeR5wbKKz6OJOt5AIS9YVvF5lJfyDzodXpdNnMWhCOXtqoFs3je2ndyMO3kH2NJWsatO0IlMf4xmoZe0t/sd4TjbHTFU/zfY1ms3e5dh3De49rwjN5XjKJ6/uvOTRSfl++PXaDedCZzEnozfzVRjY+0dFcd8neNX6SazWC4wVG/m5XmvudU3hjGMYQxjGMMYxjCGMYxhDGMYwxjGMIYxjGEMYxjDGMYwhjGMYQxjGMMYxjCGMYxhDGMYwxjGMIYxjGEMYxjDGMYwhjGMYQxjGMMYxjCGn9XwvBfdyDj2Pfmrqx6sdXp9y+dV1aOxyfqjsacy9mWyfLy21Vk9QDwNorQX+KEsfUQ2+dJzuuVP1ia9/NXz0yhwUz8KM6hWkspp90JeRrFs6T35/FaOZeitH9Dis/ZOvyOG6snlvnqQWf3TCuRlqsBKpFeyvfOxTI/DVJ2fzOJyFo5y0vaG+LNEYkUo7/c+K32WW23+pWinEz/pJflV0TNS24Odetn5O3ZHk/ZfwKZqK3z16HjGvtQ9n0aJrwRfZx/rHM1qUzJfoIqjWzOkFZYfelLlQ9fpGO692q6q7njpy0DFW3t5Thd5Mo6j2VR64vvvxT+Wn9/1zidusnz+XSXYxsPR+RdHsxPSc8fjN8qjF8hwnE7ESzEQ/xatV0HQEgfr30gCfyTbXWfjrP9hozTfHh1JFIv2VXYo/R/EVWazDNWlr/rsn9mMY36B1KbCeKl3dvWh91HOxeHh4eLkVVPMVZeX/cr0UFfbRSzdj1V2/mS4j+n31flaHt2hCmsVDMtIyRs59M7dJPHHofSOVIuI5Cw/kx+qncrVhZ7Okkm76rXILunB4npWz6QgONA5yp76ZlWXJI2jj1LPZ/Hdqk7R1B356VzPavnlykeVW6ysqqqsJpL1aaVKehhPPmpbpfP6xCO6wjFVM0k3fdZPnbyqan3/U9maQm2bm+L3P96L/5788U6cnrx7/8tvP4m3Jz/9ciR+Pn53rCfwJpu15Z2rlmgijUQSxakIZ9dZHIxE3tIkEW4yyhYvfjjWUFyde6XzoDK7HXGhP7nE/397Z9vbtq3F8ff3U/BqwKLg2oolx87Dml2kjrMOWJui7jCsQRHQFm0rkSVBopIYQ777RFnOtZOoJvXQ1rt/vohTUfzzR+qcQ7ZUjxmPQ48ENIzYuetTrlMR8neTR7lybZhek5rMzVu0lW6zIWwSfqg308vj/jN199TZ9R2bjWnschKEfhLD2E6D7PxweNjr9fs7NSeeAQ5wgAMc4AAHOMABDnCAA5x/Jg6J4lnyV2BiM3GR2HQuiEJmgwY0oAENaEADGtCABjSgAQ1ovkxzl76a9YRm6MYMOMABDnCAAxzgAAc4wAEOcIBTBOfxewNN8b2BgzjvewPbZnrCdnq6v390BFKQghSkIAUpSEEKUpCCFKQgBSlIt4PUSkkpzyNtpaTttmUddkEKUpCCFKQgBSlIQQpSkIIUpCAF6XaQtgXpeejkkFpHKalpHhy02yAFKUhBClKQghSkIAUpSEEKUpCCdDtI9wXpx2mcR3qYkh4lpfMapCAFKUhBClKQghSkIAUpSEEKUpBuB2lHkP7B7DzSg5T07KzXOzgAKUhBClKQghSkIAUpSEEKUpCCFKTbQdpN/2UiZnmk3ZS01+t2QQpSkIIUpCAFKUhBClKQghSkIAXptpAeCNK3fl5mQauTkh4eWlanA1KQghSkIAUpSEEKUpCCFKQgBSlIvxrpEsUO6Z2+Ueze4A532WBKA2Zwds/1nTd+HEabMebPW545M+ZFju+5LEoVNkjs7ZFT2yaUpErkzuFTEvkzRuz2hpbR7cSgQcA8W9dE39ruhgbLYlDOQ1271xqk21JsNE8aWfKNIj532QKvSb3R1A+T9prLxgq0mcbY93jzjjmTKRcaQ9+15TUWz2YQND/5HmuT17F7QwbcD+mEkcE8au6TczdsmmQwmjZPyZv37mjGm4xGnHx6R971e6/FXZzNyD55P/hELkYjcevO7pee7qu9aBQ6Af85955Xe7Zz+3J1bpt8sUSLOPaJNhKm30tmizoeC6/a+xpJp/BEs50ocOn82PHcpKo5dP3RzU9aPl8iuhgC4fMgaS9mce+a3tLF1S+2FOWWhsJKyQmxnVngMsNjd4Pbia798JyxQfZbrfTHRq8TsjblNNG9/Etz6ZC52rFmszGNXU6C0B87LtMai5qre+3YNFoN7Za6MdOOu0fG0Uo5PGpoIxGqEoUk+vR6/b720JBStWpRbdeiul+LaqcW1W4tqge1qB7WonpUi6rZqke2Hu8y63Evsx7/MutxMLMeDzPrcTGzHh8z63Eysx4vs+rxMqumNaweL7Pq8TKrhJeRKJ7N1r79u8AOIWS2gqjk3KqJSs6smqjkvKqJSsYuNVHJyKUmKhm31EQlo5aaqGTMUhOV3RgoqtbiU7LbAkXVWrxKdlOgqFqLX8luCRRVa/Es2Q2BomotviW7HVBUrWe9qsW3ZPcCiqpFfevO8XjZbcBQ3CCvKjmtiqqS06qoKjmtiqqSIUtRVTJkKapKhixFVcmQpagqGbIUVWX3A6qy9XiX7I5AVbYe/5LdE6jK1uNhsrsCVdl6fEx2X6AqW4+Xye4MVGVrWsPq8TLZzYGqrJKXfZY5cMiOFMkJ8djd8jwjPcbQo9tJIz2Q2HhysTyXjBh/7ceeHemdVoOYZqdB2uI3qyN3+nGfYDwet9p2j3I28cP56b0TLc71HqdC4vAzEbgIbRZ+iMUxm3RDwTFf53jLaBSHbIEhTgqzR1D2ODc9R1rvasBCh0UZbtJT9kAC1+eGONza2GX00rg3k0ZGaneB71Lu+F4CpUWcBc0hG/sh0+Qs6Tc2YZ69PqDFNb2bWEFbWII4DDPFj+y0dONB8lLWuJow3ve4mJ+ki3HsjVJSfZf8JXFcKgjZY+vLjb4hijMmOp86UWLXop1cR6KsNDKS+evT0VT/H7Cq2hI/OxvMdK8CP3KE4FlyWWY0yyJkXqAK/Ts1pCWW49lMOG7TbCi2Xpbrog3HDnOFvenZnC78ZBL6ccBs8uOP5N/Z9XvjakqjLJ4IB9tdrZ2/WJtMiEEnk3PRh+Eyb8Kn5BWxyH+Jduq6GjlevyNynRHTm+buZevz7kZ/ezYSPyT6dTKU1k/kOukmM9WsX3HtPyfEVH9AoggzzvQurz8bNywJbycni8krppiqZo/9WnWoyzIMGb0p0vhBsY3q/WK+stGdCLMWxpBZSrowGleLV4GYnb4MFF2mM/m52FQuH3QQR1O96LNIHunx4nkW9yTXPZYZpSHuLNpLxEP/hsn1s7i3aE9+QEcOn8t1ld1ceFRpF8uuiqosA8l6WCniHsrBR5SlO68HHtIkpqqairvJsz400lVV6v6HTXsKUfb2yPvfP5I/L37/QAYXHz7++u4X8tvFL7/2yJv+h76cwHkStdk9FVs0wn0S+clG2otniR2MSLpFjAiNRsnmxfEmEorLuRc6KyszbZChfHAJGY9DjwQ0jNi561OuUxHyd5NHuXJtmF6TmszNW7SVbrMhbBJ++AavbD45gM3eyxQHqt/kDVLgAAc4wAEOcIADHOAABzjA2Xqc5y+4CKKQ2aABDWhAAxrQgAY0oAENaEADmi/TPHslUNCIV/yAAxzgAAc4wAEOcIADHOAABzjfMFHiRzYLWEh5HDKin+8iVeJ3lSrxDyos7g1LP05nQ4d5nIhHJvIeMjtO5r9JDlrn25ECsbMFKRA7Xy0FYvofT4umYKpIp12Rzn5FOp2KdLoV6RxUpHNYkc5RRTpruQVKCVVl0WZVJm1WZdNmVUZtVmXVZlVmbVZl12ZVhm1WZdlWVZZtVRarq7JsqyrLtpQsWz5l35pU8SR9JWRyZ6h4Ir4SMrl+XzzZXgmZXJ8vnlCvhEyuv5dImldGpyI7zl/GSqTCK6NTkSnnr2ElEtyV0anImvMXsBJp68rEwYrsOX/1KpGMroxORfacv3QVTzG3JlMiqVwZndzpKZE4roxOrruXSA5XRifX3UskgCujk+vuZZK8lRKqyqLzV7AyqdtKCVVl1PmLWJmEbKWEqrLr/HWsTJq1UpGxKsvOX8rKJE8rJVSVZeevZkiJthUp0VCNalSjGtWoRjWqUY1qVKMa1ahGNapR/T1Vzw3/loWhY7O3VPxDlWm0kBJ/ZSRIif9YkBJfqSAlPlLiKxSkxH9akBL/aUFKfMWClPhIif9iQUp84AAHOMABDnCAAxzgAAc4wAHONiSUBA1oQAMa0IAGNKABDWhAA5rtofm/SWQJHOAABzjAAQ5wgAMc4AAHOMX7+wYp8c+cGfMix/dcFkVIiP99JcT3wxvSH4+dkcO80fwxDf7XTYCf3f2kZvXPy98Xn4/q2S+PH0PfnovPKZ+5P//rb4htbrY="
               },
               {
                  "name" : "annual_peak_electric_demand",
                  "units" : "kW",
                  "value" : 101.83429
               },
               {
                  "name" : "first_year_capital_cost",
                  "units" : "$",
                  "value" : 0
               },
               {
                  "name" : "annual_utility_cost",
                  "units" : "$",
                  "value" : 0
               },
               {
                  "name" : "total_lifecycle_cost",
                  "units" : "$",
                  "value" : 0
               }
            ],
            "step_warnings" : []
         }
      }
   ],
   "updated_at" : "20170710T182614Z",
   "weather_file" : "USA_CO_Denver.Intl.AP.725650_TMY3.epw"
}
