{
   "completed_at" : "20170710T192153Z",
   "completed_status" : "Success",
   "created_at" : "2017-07-10 19:03:31 +0000",
   "current_step" : 5,
   "description" : "",
   "eplusout_err" : "Program Version,EnergyPlus, Version 8.7.0-78a111df4a, YMD=2017.07.10 19:13,IDD_Version 8.7.0\n   ************* IDF Context for following error/warning message:\n   ************* Note -- lines truncated at 300 characters, if necessary...\n   *************      5 Building,\n   ************* indicated Name=NECB 2011-SecondarySchool-NECB HDD Method-CAN_ON_Trenton.716210_CWEC.epw created: 2017-07-10 19:03:39 +0000\n   ************* Only last 1 lines before error line shown.....\n   *************      6   NECB 2011-SecondarySchool-NECB HDD Method-CAN_ON_Trenton.716210_CWEC.epw created: 2017-07-10 19:03:39 +0000, !- Name\n   ** Warning ** IP: IDF line~6 Alpha Argument length exceeds maximum, will be truncated=  NECB 2011-SecondarySchool-NECB HDD Method-CAN_ON_Trenton.716210_CWEC.epw created: 2017-07-10 19:03:39 +000\n   **   ~~~   ** Will be processed as Alpha=NECB 2011-SECONDARYSCHOOL-NECB HDD METHOD-CAN_ON_TRENTON.716210_CWEC.EPW CREATED: 2017-07-10 19:03:39 +0000\n   ************* IDF Context for following error/warning message:\n   ************* Note -- lines truncated at 300 characters, if necessary...\n   *************    606 Schedule:Week:Daily,\n   ************* indicated Name=Schedule:Week:Daily {4df5e4a3-f4ed-4f2e-be3d-1627e228bd4b}\n   ************* Only last 10 lines before error line shown.....\n   *************    607   Schedule:Week:Daily {4df5e4a3-f4ed-4f2e-be3d-1627e228bd4b}, !- Name\n   *************    608   Sp-Auditorium_ZN_1_FLR_1 Sys-3 Flr-2 Sch-C HPlcmt-north ZN NECB System 3 PSZ Occ Sch Sunday, !- Sunday Schedule:Day Name\n   *************    609   Sp-Auditorium_ZN_1_FLR_1 Sys-3 Flr-2 Sch-C HPlcmt-north ZN NECB System 3 PSZ Occ Sch Monday, !- Monday Schedule:Day Name\n   *************    610   Sp-Auditorium_ZN_1_FLR_1 Sys-3 Flr-2 Sch-C HPlcmt-north ZN NECB System 3 PSZ Occ Sch Tuesday, !- Tuesday Schedule:Day Name\n   *************    611   Sp-Auditorium_ZN_1_FLR_1 Sys-3 Flr-2 Sch-C HPlcmt-north ZN NECB System 3 PSZ Occ Sch Wednesday, !- Wednesday Schedule:Day Name\n   *************    612   Sp-Auditorium_ZN_1_FLR_1 Sys-3 Flr-2 Sch-C HPlcmt-north ZN NECB System 3 PSZ Occ Sch Thursday, !- Thursday Schedule:Day Name\n   *************    613   Sp-Auditorium_ZN_1_FLR_1 Sys-3 Flr-2 Sch-C HPlcmt-north ZN NECB System 3 PSZ Occ Sch Friday, !- Friday Schedule:Day Name\n   *************    614   Sp-Auditorium_ZN_1_FLR_1 Sys-3 Flr-2 Sch-C HPlcmt-north ZN NECB System 3 PSZ Occ Sch Saturday, !- Saturday Schedule:Day Name\n   *************    615   Sp-Auditorium_ZN_1_FLR_1 Sys-3 Flr-2 Sch-C HPlcmt-north ZN NECB System 3 PSZ Occ Sch Default, !- Holiday Schedule:Day Name\n   *************    616   Sp-Auditorium_ZN_1_FLR_1 Sys-3 Flr-2 Sch-C HPlcmt-north ZN NECB System 3 PSZ Occ Sch Summer Design Day, !- SummerDesignDay Schedule:Day Name\n   ** Warning ** IP: IDF line~616 Alpha Argument length exceeds maximum, will be truncated=  Sp-Auditorium_ZN_1_FLR_1 Sys-3 Flr-2 Sch-C HPlcmt-north ZN NECB System 3 PSZ Occ Sch Summer Design Da\n   **   ~~~   ** Will be processed as Alpha=SP-AUDITORIUM_ZN_1_FLR_1 SYS-3 FLR-2 SCH-C HPLCMT-NORTH ZN NECB SYSTEM 3 PSZ OCC SCH SUMMER DESIGN DAY\n   ************* IDF Context for following error/warning message:\n   ************* Note -- lines truncated at 300 characters, if necessary...\n   *************    606 Schedule:Week:Daily,\n   ************* indicated Name=Schedule:Week:Daily {4df5e4a3-f4ed-4f2e-be3d-1627e228bd4b}\n   ************* Only last 10 lines before error line shown.....\n   *************    608   Sp-Auditorium_ZN_1_FLR_1 Sys-3 Flr-2 Sch-C HPlcmt-north ZN NECB System 3 PSZ Occ Sch Sunday, !- Sunday Schedule:Day Name\n   *************    609   Sp-Auditorium_ZN_1_FLR_1 Sys-3 Flr-2 Sch-C HPlcmt-north ZN NECB System 3 PSZ Occ Sch Monday, !- Monday Schedule:Day Name\n   *************    610   Sp-Auditorium_ZN_1_FLR_1 Sys-3 Flr-2 Sch-C HPlcmt-north ZN NECB System 3 PSZ Occ Sch Tuesday, !- Tuesday Schedule:Day Name\n   *************    611   Sp-Auditorium_ZN_1_FLR_1 Sys-3 Flr-2 Sch-C HPlcmt-north ZN NECB System 3 PSZ Occ Sch Wednesday, !- Wednesday Schedule:Day Name\n   *************    612   Sp-Auditorium_ZN_1_FLR_1 Sys-3 Flr-2 Sch-C HPlcmt-north ZN NECB System 3 PSZ Occ Sch Thursday, !- Thursday Schedule:Day Name\n   *************    613   Sp-Auditorium_ZN_1_FLR_1 Sys-3 Flr-2 Sch-C HPlcmt-north ZN NECB System 3 PSZ Occ Sch Friday, !- Friday Schedule:Day Name\n   *************    614   Sp-Auditorium_ZN_1_FLR_1 Sys-3 Flr-2 Sch-C HPlcmt-north ZN NECB System 3 PSZ Occ Sch Saturday, !- Saturday Schedule:Day Name\n   *************    615   Sp-Auditorium_ZN_1_FLR_1 Sys-3 Flr-2 Sch-C HPlcmt-north ZN NECB System 3 PSZ Occ Sch Default, !- Holiday Schedule:Day Name\n   *************    616   Sp-Auditorium_ZN_1_FLR_1 Sys-3 Flr-2 Sch-C HPlcmt-north ZN NECB System 3 PSZ Occ Sch Summer Design Day, !- SummerDesignDay Schedule:Day Name\n   *************    617   Sp-Auditorium_ZN_1_FLR_1 Sys-3 Flr-2 Sch-C HPlcmt-north ZN NECB System 3 PSZ Occ Sch Winter Design Day, !- WinterDesignDay Schedule:Day Name\n   ** Warning ** IP: IDF line~617 Alpha Argument length exceeds maximum, will be truncated=  Sp-Auditorium_ZN_1_FLR_1 Sys-3 Flr-2 Sch-C HPlcmt-north ZN NECB System 3 PSZ Occ Sch Winter Design Da\n   **   ~~~   ** Will be processed as Alpha=SP-AUDITORIUM_ZN_1_FLR_1 SYS-3 FLR-2 SCH-C HPLCMT-NORTH ZN NECB SYSTEM 3 PSZ OCC SCH WINTER DESIGN DAY\n   ************* IDF Context for following error/warning message:\n   ************* Note -- lines truncated at 300 characters, if necessary...\n   *************    637 Schedule:Day:Interval,\n   ************* indicated Name=Sp-Auditorium_ZN_1_FLR_1 Sys-3 Flr-2 Sch-C HPlcmt-north ZN NECB System 3 PSZ Occ Sch Summer Design Day\n   ************* Only last 1 lines before error line shown.....\n   *************    638   Sp-Auditorium_ZN_1_FLR_1 Sys-3 Flr-2 Sch-C HPlcmt-north ZN NECB System 3 PSZ Occ Sch Summer Design Day, !- Name\n   ** Warning ** IP: IDF line~638 Alpha Argument length exceeds maximum, will be truncated=  Sp-Auditorium_ZN_1_FLR_1 Sys-3 Flr-2 Sch-C HPlcmt-north ZN NECB System 3 PSZ Occ Sch Summer Design Da\n   **   ~~~   ** Will be processed as Alpha=SP-AUDITORIUM_ZN_1_FLR_1 SYS-3 FLR-2 SCH-C HPLCMT-NORTH ZN NECB SYSTEM 3 PSZ OCC SCH SUMMER DESIGN DAY\n   ************* IDF Context for following error/warning message:\n   ************* Note -- lines truncated at 300 characters, if necessary...\n   *************    644 Schedule:Day:Interval,\n   ************* indicated Name=Sp-Auditorium_ZN_1_FLR_1 Sys-3 Flr-2 Sch-C HPlcmt-north ZN NECB System 3 PSZ Occ Sch Winter Design Day\n   ************* Only last 1 lines before error line shown.....\n   *************    645   Sp-Auditorium_ZN_1_FLR_1 Sys-3 Flr-2 Sch-C HPlcmt-north ZN NECB System 3 PSZ Occ Sch Winter Design Day, !- Name\n   ** Warning ** IP: IDF line~645 Alpha Argument length exceeds maximum, will be truncated=  Sp-Auditorium_ZN_1_FLR_1 Sys-3 Flr-2 Sch-C HPlcmt-north ZN NECB System 3 PSZ Occ Sch Winter Design Da\n   **   ~~~   ** Will be processed as Alpha=SP-AUDITORIUM_ZN_1_FLR_1 SYS-3 FLR-2 SCH-C HPLCMT-NORTH ZN NECB SYSTEM 3 PSZ OCC SCH WINTER DESIGN DAY\n   ************* IDF Context for following error/warning message:\n   ************* Note -- lines truncated at 300 characters, if necessary...\n   *************   2696 Schedule:Week:Daily,\n   ************* indicated Name=Schedule:Week:Daily {a9c8a4af-8237-4363-be71-06c0889b4a16}\n   ************* Only last 10 lines before error line shown.....\n   *************   2697   Schedule:Week:Daily {a9c8a4af-8237-4363-be71-06c0889b4a16}, !- Name\n   *************   2698   Sp-Bathrooms_ZN_1_FLR_2 Sys-3 Flr-1 Sch-D HPlcmt-north ZN NECB System 3 PSZ Occ Sch Sunday, !- Sunday Schedule:Day Name\n   *************   2699   Sp-Bathrooms_ZN_1_FLR_2 Sys-3 Flr-1 Sch-D HPlcmt-north ZN NECB System 3 PSZ Occ Sch Monday, !- Monday Schedule:Day Name\n   *************   2700   Sp-Bathrooms_ZN_1_FLR_2 Sys-3 Flr-1 Sch-D HPlcmt-north ZN NECB System 3 PSZ Occ Sch Tuesday, !- Tuesday Schedule:Day Name\n   *************   2701   Sp-Bathrooms_ZN_1_FLR_2 Sys-3 Flr-1 Sch-D HPlcmt-north ZN NECB System 3 PSZ Occ Sch Wednesday, !- Wednesday Schedule:Day Name\n   *************   2702   Sp-Bathrooms_ZN_1_FLR_2 Sys-3 Flr-1 Sch-D HPlcmt-north ZN NECB System 3 PSZ Occ Sch Thursday, !- Thursday Schedule:Day Name\n   *************   2703   Sp-Bathrooms_ZN_1_FLR_2 Sys-3 Flr-1 Sch-D HPlcmt-north ZN NECB System 3 PSZ Occ Sch Friday, !- Friday Schedule:Day Name\n   *************   2704   Sp-Bathrooms_ZN_1_FLR_2 Sys-3 Flr-1 Sch-D HPlcmt-north ZN NECB System 3 PSZ Occ Sch Saturday, !- Saturday Schedule:Day Name\n   *************   2705   Sp-Bathrooms_ZN_1_FLR_2 Sys-3 Flr-1 Sch-D HPlcmt-north ZN NECB System 3 PSZ Occ Sch Default, !- Holiday Schedule:Day Name\n   *************   2706   Sp-Bathrooms_ZN_1_FLR_2 Sys-3 Flr-1 Sch-D HPlcmt-north ZN NECB System 3 PSZ Occ Sch Summer Design Day, !- SummerDesignDay Schedule:Day Name\n   ** Warning ** IP: IDF line~2706 Alpha Argument length exceeds maximum, will be truncated=  Sp-Bathrooms_ZN_1_FLR_2 Sys-3 Flr-1 Sch-D HPlcmt-north ZN NECB System 3 PSZ Occ Sch Summer Design Da\n   **   ~~~   ** Will be processed as Alpha=SP-BATHROOMS_ZN_1_FLR_2 SYS-3 FLR-1 SCH-D HPLCMT-NORTH ZN NECB SYSTEM 3 PSZ OCC SCH SUMMER DESIGN DAY\n   ************* IDF Context for following error/warning message:\n   ************* Note -- lines truncated at 300 characters, if necessary...\n   *************   2696 Schedule:Week:Daily,\n   ************* indicated Name=Schedule:Week:Daily {a9c8a4af-8237-4363-be71-06c0889b4a16}\n   ************* Only last 10 lines before error line shown.....\n   *************   2698   Sp-Bathrooms_ZN_1_FLR_2 Sys-3 Flr-1 Sch-D HPlcmt-north ZN NECB System 3 PSZ Occ Sch Sunday, !- Sunday Schedule:Day Name\n   *************   2699   Sp-Bathrooms_ZN_1_FLR_2 Sys-3 Flr-1 Sch-D HPlcmt-north ZN NECB System 3 PSZ Occ Sch Monday, !- Monday Schedule:Day Name\n   *************   2700   Sp-Bathrooms_ZN_1_FLR_2 Sys-3 Flr-1 Sch-D HPlcmt-north ZN NECB System 3 PSZ Occ Sch Tuesday, !- Tuesday Schedule:Day Name\n   *************   2701   Sp-Bathrooms_ZN_1_FLR_2 Sys-3 Flr-1 Sch-D HPlcmt-north ZN NECB System 3 PSZ Occ Sch Wednesday, !- Wednesday Schedule:Day Name\n   *************   2702   Sp-Bathrooms_ZN_1_FLR_2 Sys-3 Flr-1 Sch-D HPlcmt-north ZN NECB System 3 PSZ Occ Sch Thursday, !- Thursday Schedule:Day Name\n   *************   2703   Sp-Bathrooms_ZN_1_FLR_2 Sys-3 Flr-1 Sch-D HPlcmt-north ZN NECB System 3 PSZ Occ Sch Friday, !- Friday Schedule:Day Name\n   *************   2704   Sp-Bathrooms_ZN_1_FLR_2 Sys-3 Flr-1 Sch-D HPlcmt-north ZN NECB System 3 PSZ Occ Sch Saturday, !- Saturday Schedule:Day Name\n   *************   2705   Sp-Bathrooms_ZN_1_FLR_2 Sys-3 Flr-1 Sch-D HPlcmt-north ZN NECB System 3 PSZ Occ Sch Default, !- Holiday Schedule:Day Name\n   *************   2706   Sp-Bathrooms_ZN_1_FLR_2 Sys-3 Flr-1 Sch-D HPlcmt-north ZN NECB System 3 PSZ Occ Sch Summer Design Day, !- SummerDesignDay Schedule:Day Name\n   *************   2707   Sp-Bathrooms_ZN_1_FLR_2 Sys-3 Flr-1 Sch-D HPlcmt-north ZN NECB System 3 PSZ Occ Sch Winter Design Day, !- WinterDesignDay Schedule:Day Name\n   ** Warning ** IP: IDF line~2707 Alpha Argument length exceeds maximum, will be truncated=  Sp-Bathrooms_ZN_1_FLR_2 Sys-3 Flr-1 Sch-D HPlcmt-north ZN NECB System 3 PSZ Occ Sch Winter Design Da\n   **   ~~~   ** Will be processed as Alpha=SP-BATHROOMS_ZN_1_FLR_2 SYS-3 FLR-1 SCH-D HPLCMT-NORTH ZN NECB SYSTEM 3 PSZ OCC SCH WINTER DESIGN DAY\n   ************* IDF Context for following error/warning message:\n   ************* Note -- lines truncated at 300 characters, if necessary...\n   *************   2727 Schedule:Day:Interval,\n   ************* indicated Name=Sp-Bathrooms_ZN_1_FLR_2 Sys-3 Flr-1 Sch-D HPlcmt-north ZN NECB System 3 PSZ Occ Sch Summer Design Day\n   ************* Only last 1 lines before error line shown.....\n   *************   2728   Sp-Bathrooms_ZN_1_FLR_2 Sys-3 Flr-1 Sch-D HPlcmt-north ZN NECB System 3 PSZ Occ Sch Summer Design Day, !- Name\n   ** Warning ** IP: IDF line~2728 Alpha Argument length exceeds maximum, will be truncated=  Sp-Bathrooms_ZN_1_FLR_2 Sys-3 Flr-1 Sch-D HPlcmt-north ZN NECB System 3 PSZ Occ Sch Summer Design Da\n   **   ~~~   ** Will be processed as Alpha=SP-BATHROOMS_ZN_1_FLR_2 SYS-3 FLR-1 SCH-D HPLCMT-NORTH ZN NECB SYSTEM 3 PSZ OCC SCH SUMMER DESIGN DAY\n   ************* IDF Context for following error/warning message:\n   ************* Note -- lines truncated at 300 characters, if necessary...\n   *************   2734 Schedule:Day:Interval,\n   ************* indicated Name=Sp-Bathrooms_ZN_1_FLR_2 Sys-3 Flr-1 Sch-D HPlcmt-north ZN NECB System 3 PSZ Occ Sch Winter Design Day\n   ************* Only last 1 lines before error line shown.....\n   *************   2735   Sp-Bathrooms_ZN_1_FLR_2 Sys-3 Flr-1 Sch-D HPlcmt-north ZN NECB System 3 PSZ Occ Sch Winter Design Day, !- Name\n   ** Warning ** IP: IDF line~2735 Alpha Argument length exceeds maximum, will be truncated=  Sp-Bathrooms_ZN_1_FLR_2 Sys-3 Flr-1 Sch-D HPlcmt-north ZN NECB System 3 PSZ Occ Sch Winter Design Da\n   **   ~~~   ** Will be processed as Alpha=SP-BATHROOMS_ZN_1_FLR_2 SYS-3 FLR-1 SCH-D HPLCMT-NORTH ZN NECB SYSTEM 3 PSZ OCC SCH WINTER DESIGN DAY\n   ************* IDF Context for following error/warning message:\n   ************* Note -- lines truncated at 300 characters, if necessary...\n   *************   3403 Schedule:Day:Interval,\n   ************* indicated Name=Sp-Corner_Class_1_Pod_1_ZN_1_FLR_1 Sys-3 Flr-2 Sch-D HPlcmt-south ZN NECB System 3 PSZ Occ Sch Sunday\n   ************* Only last 1 lines before error line shown.....\n   *************   3404   Sp-Corner_Class_1_Pod_1_ZN_1_FLR_1 Sys-3 Flr-2 Sch-D HPlcmt-south ZN NECB System 3 PSZ Occ Sch Sunday, !- Name\n   ** Warning ** IP: IDF line~3404 Alpha Argument length exceeds maximum, will be truncated=  Sp-Corner_Class_1_Pod_1_ZN_1_FLR_1 Sys-3 Flr-2 Sch-D HPlcmt-south ZN NECB System 3 PSZ Occ Sch Sunda\n   **   ~~~   ** Will be processed as Alpha=SP-CORNER_CLASS_1_POD_1_ZN_1_FLR_1 SYS-3 FLR-2 SCH-D HPLCMT-SOUTH ZN NECB SYSTEM 3 PSZ OCC SCH SUNDAY\n   ************* IDF Context for following error/warning message:\n   ************* Note -- lines truncated at 300 characters, if necessary...\n   *************   3410 Schedule:Day:Interval,\n   ************* indicated Name=Sp-Corner_Class_1_Pod_1_ZN_1_FLR_1 Sys-3 Flr-2 Sch-D HPlcmt-south ZN NECB System 3 PSZ Occ Sch Monday\n   ************* Only last 1 lines before error line shown.....\n   *************   3411   Sp-Corner_Class_1_Pod_1_ZN_1_FLR_1 Sys-3 Flr-2 Sch-D HPlcmt-south ZN NECB System 3 PSZ Occ Sch Monday, !- Name\n   ** Warning ** IP: IDF line~3411 Alpha Argument length exceeds maximum, will be truncated=  Sp-Corner_Class_1_Pod_1_ZN_1_FLR_1 Sys-3 Flr-2 Sch-D HPlcmt-south ZN NECB System 3 PSZ Occ Sch Monda\n   **   ~~~   ** Will be processed as Alpha=SP-CORNER_CLASS_1_POD_1_ZN_1_FLR_1 SYS-3 FLR-2 SCH-D HPLCMT-SOUTH ZN NECB SYSTEM 3 PSZ OCC SCH MONDAY\n   ************* IDF Context for following error/warning message:\n   ************* Note -- lines truncated at 300 characters, if necessary...\n   *************   3425 Schedule:Day:Interval,\n   ************* indicated Name=Sp-Corner_Class_1_Pod_1_ZN_1_FLR_1 Sys-3 Flr-2 Sch-D HPlcmt-south ZN NECB System 3 PSZ Occ Sch Tuesday\n   ************* Only last 1 lines before error line shown.....\n   *************   3426   Sp-Corner_Class_1_Pod_1_ZN_1_FLR_1 Sys-3 Flr-2 Sch-D HPlcmt-south ZN NECB System 3 PSZ Occ Sch Tuesday, !- Name\n   ** Warning ** IP: IDF line~3426 Alpha Argument length exceeds maximum, will be truncated=  Sp-Corner_Class_1_Pod_1_ZN_1_FLR_1 Sys-3 Flr-2 Sch-D HPlcmt-south ZN NECB System 3 PSZ Occ Sch Tuesda\n   **   ~~~   ** Will be processed as Alpha=SP-CORNER_CLASS_1_POD_1_ZN_1_FLR_1 SYS-3 FLR-2 SCH-D HPLCMT-SOUTH ZN NECB SYSTEM 3 PSZ OCC SCH TUESDAY\n   ************* IDF Context for following error/warning message:\n   ************* Note -- lines truncated at 300 characters, if necessary...\n   *************   3440 Schedule:Day:Interval,\n   ************* indicated Name=Sp-Corner_Class_1_Pod_1_ZN_1_FLR_1 Sys-3 Flr-2 Sch-D HPlcmt-south ZN NECB System 3 PSZ Occ Sch Wednesday\n   ************* Only last 1 lines before error line shown.....\n   *************   3441   Sp-Corner_Class_1_Pod_1_ZN_1_FLR_1 Sys-3 Flr-2 Sch-D HPlcmt-south ZN NECB System 3 PSZ Occ Sch Wednesday, !- Name\n   ** Warning ** IP: IDF line~3441 Alpha Argument length exceeds maximum, will be truncated=  Sp-Corner_Class_1_Pod_1_ZN_1_FLR_1 Sys-3 Flr-2 Sch-D HPlcmt-south ZN NECB System 3 PSZ Occ Sch Wednesda\n   **   ~~~   ** Will be processed as Alpha=SP-CORNER_CLASS_1_POD_1_ZN_1_FLR_1 SYS-3 FLR-2 SCH-D HPLCMT-SOUTH ZN NECB SYSTEM 3 PSZ OCC SCH WEDNESDAY\n   ************* IDF Context for following error/warning message:\n   ************* Note -- lines truncated at 300 characters, if necessary...\n   *************   3455 Schedule:Day:Interval,\n   ************* indicated Name=Sp-Corner_Class_1_Pod_1_ZN_1_FLR_1 Sys-3 Flr-2 Sch-D HPlcmt-south ZN NECB System 3 PSZ Occ Sch Thursday\n   ************* Only last 1 lines before error line shown.....\n   *************   3456   Sp-Corner_Class_1_Pod_1_ZN_1_FLR_1 Sys-3 Flr-2 Sch-D HPlcmt-south ZN NECB System 3 PSZ Occ Sch Thursday, !- Name\n   ** Warning ** IP: IDF line~3456 Alpha Argument length exceeds maximum, will be truncated=  Sp-Corner_Class_1_Pod_1_ZN_1_FLR_1 Sys-3 Flr-2 Sch-D HPlcmt-south ZN NECB System 3 PSZ Occ Sch Thursda\n   **   ~~~   ** Will be processed as Alpha=SP-CORNER_CLASS_1_POD_1_ZN_1_FLR_1 SYS-3 FLR-2 SCH-D HPLCMT-SOUTH ZN NECB SYSTEM 3 PSZ OCC SCH THURSDAY\n   ************* IDF Context for following error/warning message:\n   ************* Note -- lines truncated at 300 characters, if necessary...\n   *************   3470 Schedule:Day:Interval,\n   ************* indicated Name=Sp-Corner_Class_1_Pod_1_ZN_1_FLR_1 Sys-3 Flr-2 Sch-D HPlcmt-south ZN NECB System 3 PSZ Occ Sch Friday\n   ************* Only last 1 lines before error line shown.....\n   *************   3471   Sp-Corner_Class_1_Pod_1_ZN_1_FLR_1 Sys-3 Flr-2 Sch-D HPlcmt-south ZN NECB System 3 PSZ Occ Sch Friday, !- Name\n   ** Warning ** IP: IDF line~3471 Alpha Argument length exceeds maximum, will be truncated=  Sp-Corner_Class_1_Pod_1_ZN_1_FLR_1 Sys-3 Flr-2 Sch-D HPlcmt-south ZN NECB System 3 PSZ Occ Sch Frida\n   **   ~~~   ** Will be processed as Alpha=SP-CORNER_CLASS_1_POD_1_ZN_1_FLR_1 SYS-3 FLR-2 SCH-D HPLCMT-SOUTH ZN NECB SYSTEM 3 PSZ OCC SCH FRIDAY\n   ************* IDF Context for following error/warning message:\n   ************* Note -- lines truncated at 300 characters, if necessary...\n   *************   3485 Schedule:Day:Interval,\n   ************* indicated Name=Sp-Corner_Class_1_Pod_1_ZN_1_FLR_1 Sys-3 Flr-2 Sch-D HPlcmt-south ZN NECB System 3 PSZ Occ Sch Saturday\n   ************* Only last 1 lines before error line shown.....\n   *************   3486   Sp-Corner_Class_1_Pod_1_ZN_1_FLR_1 Sys-3 Flr-2 Sch-D HPlcmt-south ZN NECB System 3 PSZ Occ Sch Saturday, !- Name\n   ** Warning ** IP: IDF line~3486 Alpha Argument length exceeds maximum, will be truncated=  Sp-Corner_Class_1_Pod_1_ZN_1_FLR_1 Sys-3 Flr-2 Sch-D HPlcmt-south ZN NECB System 3 PSZ Occ Sch Saturda\n   **   ~~~   ** Will be processed as Alpha=SP-CORNER_CLASS_1_POD_1_ZN_1_FLR_1 SYS-3 FLR-2 SCH-D HPLCMT-SOUTH ZN NECB SYSTEM 3 PSZ OCC SCH SATURDAY\n   ************* IDF Context for following error/warning message:\n   ************* Note -- lines truncated at 300 characters, if necessary...\n   *************   3492 Schedule:Week:Daily,\n   ************* indicated Name=Schedule:Week:Daily {e8606795-d45a-4889-84c7-fe5888244a5c}\n   ************* Only last 2 lines before error line shown.....\n   *************   3493   Schedule:Week:Daily {e8606795-d45a-4889-84c7-fe5888244a5c}, !- Name\n   *************   3494   Sp-Corner_Class_1_Pod_1_ZN_1_FLR_1 Sys-3 Flr-2 Sch-D HPlcmt-south ZN NECB System 3 PSZ Occ Sch Sunday, !- Sunday Schedule:Day Name\n   ** Warning ** IP: IDF line~3494 Alpha Argument length exceeds maximum, will be truncated=  Sp-Corner_Class_1_Pod_1_ZN_1_FLR_1 Sys-3 Flr-2 Sch-D HPlcmt-south ZN NECB System 3 PSZ Occ Sch Sunda\n   **   ~~~   ** Will be processed as Alpha=SP-CORNER_CLASS_1_POD_1_ZN_1_FLR_1 SYS-3 FLR-2 SCH-D HPLCMT-SOUTH ZN NECB SYSTEM 3 PSZ OCC SCH SUNDAY\n   ************* IDF Context for following error/warning message:\n   ************* Note -- lines truncated at 300 characters, if necessary...\n   *************   3492 Schedule:Week:Daily,\n   ************* indicated Name=Schedule:Week:Daily {e8606795-d45a-4889-84c7-fe5888244a5c}\n   ************* Only last 3 lines before error line shown.....\n   *************   3493   Schedule:Week:Daily {e8606795-d45a-4889-84c7-fe5888244a5c}, !- Name\n   *************   3494   Sp-Corner_Class_1_Pod_1_ZN_1_FLR_1 Sys-3 Flr-2 Sch-D HPlcmt-south ZN NECB System 3 PSZ Occ Sch Sunday, !- Sunday Schedule:Day Name\n   *************   3495   Sp-Corner_Class_1_Pod_1_ZN_1_FLR_1 Sys-3 Flr-2 Sch-D HPlcmt-south ZN NECB System 3 PSZ Occ Sch Monday, !- Monday Schedule:Day Name\n   ** Warning ** IP: IDF line~3495 Alpha Argument length exceeds maximum, will be truncated=  Sp-Corner_Class_1_Pod_1_ZN_1_FLR_1 Sys-3 Flr-2 Sch-D HPlcmt-south ZN NECB System 3 PSZ Occ Sch Monda\n   **   ~~~   ** Will be processed as Alpha=SP-CORNER_CLASS_1_POD_1_ZN_1_FLR_1 SYS-3 FLR-2 SCH-D HPLCMT-SOUTH ZN NECB SYSTEM 3 PSZ OCC SCH MONDAY\n   ************* IDF Context for following error/warning message:\n   ************* Note -- lines truncated at 300 characters, if necessary...\n   *************   3492 Schedule:Week:Daily,\n   ************* indicated Name=Schedule:Week:Daily {e8606795-d45a-4889-84c7-fe5888244a5c}\n   ************* Only last 4 lines before error line shown.....\n   *************   3493   Schedule:Week:Daily {e8606795-d45a-4889-84c7-fe5888244a5c}, !- Name\n   *************   3494   Sp-Corner_Class_1_Pod_1_ZN_1_FLR_1 Sys-3 Flr-2 Sch-D HPlcmt-south ZN NECB System 3 PSZ Occ Sch Sunday, !- Sunday Schedule:Day Name\n   *************   3495   Sp-Corner_Class_1_Pod_1_ZN_1_FLR_1 Sys-3 Flr-2 Sch-D HPlcmt-south ZN NECB System 3 PSZ Occ Sch Monday, !- Monday Schedule:Day Name\n   *************   3496   Sp-Corner_Class_1_Pod_1_ZN_1_FLR_1 Sys-3 Flr-2 Sch-D HPlcmt-south ZN NECB System 3 PSZ Occ Sch Tuesday, !- Tuesday Schedule:Day Name\n   ** Warning ** IP: IDF line~3496 Alpha Argument length exceeds maximum, will be truncated=  Sp-Corner_Class_1_Pod_1_ZN_1_FLR_1 Sys-3 Flr-2 Sch-D HPlcmt-south ZN NECB System 3 PSZ Occ Sch Tuesda\n   **   ~~~   ** Will be processed as Alpha=SP-CORNER_CLASS_1_POD_1_ZN_1_FLR_1 SYS-3 FLR-2 SCH-D HPLCMT-SOUTH ZN NECB SYSTEM 3 PSZ OCC SCH TUESDAY\n   ************* IDF Context for following error/warning message:\n   ************* Note -- lines truncated at 300 characters, if necessary...\n   *************   3492 Schedule:Week:Daily,\n   ************* indicated Name=Schedule:Week:Daily {e8606795-d45a-4889-84c7-fe5888244a5c}\n   ************* Only last 5 lines before error line shown.....\n   *************   3493   Schedule:Week:Daily {e8606795-d45a-4889-84c7-fe5888244a5c}, !- Name\n   *************   3494   Sp-Corner_Class_1_Pod_1_ZN_1_FLR_1 Sys-3 Flr-2 Sch-D HPlcmt-south ZN NECB System 3 PSZ Occ Sch Sunday, !- Sunday Schedule:Day Name\n   *************   3495   Sp-Corner_Class_1_Pod_1_ZN_1_FLR_1 Sys-3 Flr-2 Sch-D HPlcmt-south ZN NECB System 3 PSZ Occ Sch Monday, !- Monday Schedule:Day Name\n   *************   3496   Sp-Corner_Class_1_Pod_1_ZN_1_FLR_1 Sys-3 Flr-2 Sch-D HPlcmt-south ZN NECB System 3 PSZ Occ Sch Tuesday, !- Tuesday Schedule:Day Name\n   *************   3497   Sp-Corner_Class_1_Pod_1_ZN_1_FLR_1 Sys-3 Flr-2 Sch-D HPlcmt-south ZN NECB System 3 PSZ Occ Sch Wednesday, !- Wednesday Schedule:Day Name\n   ** Warning ** IP: IDF line~3497 Alpha Argument length exceeds maximum, will be truncated=  Sp-Corner_Class_1_Pod_1_ZN_1_FLR_1 Sys-3 Flr-2 Sch-D HPlcmt-south ZN NECB System 3 PSZ Occ Sch Wednesda\n   **   ~~~   ** Will be processed as Alpha=SP-CORNER_CLASS_1_POD_1_ZN_1_FLR_1 SYS-3 FLR-2 SCH-D HPLCMT-SOUTH ZN NECB SYSTEM 3 PSZ OCC SCH WEDNESDAY\n   ************* IDF Context for following error/warning message:\n   ************* Note -- lines truncated at 300 characters, if necessary...\n   *************   3492 Schedule:Week:Daily,\n   ************* indicated Name=Schedule:Week:Daily {e8606795-d45a-4889-84c7-fe5888244a5c}\n   ************* Only last 6 lines before error line shown.....\n   *************   3493   Schedule:Week:Daily {e8606795-d45a-4889-84c7-fe5888244a5c}, !- Name\n   *************   3494   Sp-Corner_Class_1_Pod_1_ZN_1_FLR_1 Sys-3 Flr-2 Sch-D HPlcmt-south ZN NECB System 3 PSZ Occ Sch Sunday, !- Sunday Schedule:Day Name\n   *************   3495   Sp-Corner_Class_1_Pod_1_ZN_1_FLR_1 Sys-3 Flr-2 Sch-D HPlcmt-south ZN NECB System 3 PSZ Occ Sch Monday, !- Monday Schedule:Day Name\n   *************   3496   Sp-Corner_Class_1_Pod_1_ZN_1_FLR_1 Sys-3 Flr-2 Sch-D HPlcmt-south ZN NECB System 3 PSZ Occ Sch Tuesday, !- Tuesday Schedule:Day Name\n   *************   3497   Sp-Corner_Class_1_Pod_1_ZN_1_FLR_1 Sys-3 Flr-2 Sch-D HPlcmt-south ZN NECB System 3 PSZ Occ Sch Wednesday, !- Wednesday Schedule:Day Name\n   *************   3498   Sp-Corner_Class_1_Pod_1_ZN_1_FLR_1 Sys-3 Flr-2 Sch-D HPlcmt-south ZN NECB System 3 PSZ Occ Sch Thursday, !- Thursday Schedule:Day Name\n   ** Warning ** IP: IDF line~3498 Alpha Argument length exceeds maximum, will be truncated=  Sp-Corner_Class_1_Pod_1_ZN_1_FLR_1 Sys-3 Flr-2 Sch-D HPlcmt-south ZN NECB System 3 PSZ Occ Sch Thursda\n   **   ~~~   ** Will be processed as Alpha=SP-CORNER_CLASS_1_POD_1_ZN_1_FLR_1 SYS-3 FLR-2 SCH-D HPLCMT-SOUTH ZN NECB SYSTEM 3 PSZ OCC SCH THURSDAY\n   ************* IDF Context for following error/warning message:\n   ************* Note -- lines truncated at 300 characters, if necessary...\n   *************   3492 Schedule:Week:Daily,\n   ************* indicated Name=Schedule:Week:Daily {e8606795-d45a-4889-84c7-fe5888244a5c}\n   ************* Only last 7 lines before error line shown.....\n   *************   3493   Schedule:Week:Daily {e8606795-d45a-4889-84c7-fe5888244a5c}, !- Name\n   *************   3494   Sp-Corner_Class_1_Pod_1_ZN_1_FLR_1 Sys-3 Flr-2 Sch-D HPlcmt-south ZN NECB System 3 PSZ Occ Sch Sunday, !- Sunday Schedule:Day Name\n   *************   3495   Sp-Corner_Class_1_Pod_1_ZN_1_FLR_1 Sys-3 Flr-2 Sch-D HPlcmt-south ZN NECB System 3 PSZ Occ Sch Monday, !- Monday Schedule:Day Name\n   *************   3496   Sp-Corner_Class_1_Pod_1_ZN_1_FLR_1 Sys-3 Flr-2 Sch-D HPlcmt-south ZN NECB System 3 PSZ Occ Sch Tuesday, !- Tuesday Schedule:Day Name\n   *************   3497   Sp-Corner_Class_1_Pod_1_ZN_1_FLR_1 Sys-3 Flr-2 Sch-D HPlcmt-south ZN NECB System 3 PSZ Occ Sch Wednesday, !- Wednesday Schedule:Day Name\n   *************   3498   Sp-Corner_Class_1_Pod_1_ZN_1_FLR_1 Sys-3 Flr-2 Sch-D HPlcmt-south ZN NECB System 3 PSZ Occ Sch Thursday, !- Thursday Schedule:Day Name\n   *************   3499   Sp-Corner_Class_1_Pod_1_ZN_1_FLR_1 Sys-3 Flr-2 Sch-D HPlcmt-south ZN NECB System 3 PSZ Occ Sch Friday, !- Friday Schedule:Day Name\n   ** Warning ** IP: IDF line~3499 Alpha Argument length exceeds maximum, will be truncated=  Sp-Corner_Class_1_Pod_1_ZN_1_FLR_1 Sys-3 Flr-2 Sch-D HPlcmt-south ZN NECB System 3 PSZ Occ Sch Frida\n   **   ~~~   ** Will be processed as Alpha=SP-CORNER_CLASS_1_POD_1_ZN_1_FLR_1 SYS-3 FLR-2 SCH-D HPLCMT-SOUTH ZN NECB SYSTEM 3 PSZ OCC SCH FRIDAY\n   ************* IDF Context for following error/warning message:\n   ************* Note -- lines truncated at 300 characters, if necessary...\n   *************   3492 Schedule:Week:Daily,\n   ************* indicated Name=Schedule:Week:Daily {e8606795-d45a-4889-84c7-fe5888244a5c}\n   ************* Only last 8 lines before error line shown.....\n   *************   3493   Schedule:Week:Daily {e8606795-d45a-4889-84c7-fe5888244a5c}, !- Name\n   *************   3494   Sp-Corner_Class_1_Pod_1_ZN_1_FLR_1 Sys-3 Flr-2 Sch-D HPlcmt-south ZN NECB System 3 PSZ Occ Sch Sunday, !- Sunday Schedule:Day Name\n   *************   3495   Sp-Corner_Class_1_Pod_1_ZN_1_FLR_1 Sys-3 Flr-2 Sch-D HPlcmt-south ZN NECB System 3 PSZ Occ Sch Monday, !- Monday Schedule:Day Name\n   *************   3496   Sp-Corner_Class_1_Pod_1_ZN_1_FLR_1 Sys-3 Flr-2 Sch-D HPlcmt-south ZN NECB System 3 PSZ Occ Sch Tuesday, !- Tuesday Schedule:Day Name\n   *************   3497   Sp-Corner_Class_1_Pod_1_ZN_1_FLR_1 Sys-3 Flr-2 Sch-D HPlcmt-south ZN NECB System 3 PSZ Occ Sch Wednesday, !- Wednesday Schedule:Day Name\n   *************   3498   Sp-Corner_Class_1_Pod_1_ZN_1_FLR_1 Sys-3 Flr-2 Sch-D HPlcmt-south ZN NECB System 3 PSZ Occ Sch Thursday, !- Thursday Schedule:Day Name\n   *************   3499   Sp-Corner_Class_1_Pod_1_ZN_1_FLR_1 Sys-3 Flr-2 Sch-D HPlcmt-south ZN NECB System 3 PSZ Occ Sch Friday, !- Friday Schedule:Day Name\n   *************   3500   Sp-Corner_Class_1_Pod_1_ZN_1_FLR_1 Sys-3 Flr-2 Sch-D HPlcmt-south ZN NECB System 3 PSZ Occ Sch Saturday, !- Saturday Schedule:Day Name\n   ** Warning ** IP: IDF line~3500 Alpha Argument length exceeds maximum, will be truncated=  Sp-Corner_Class_1_Pod_1_ZN_1_FLR_1 Sys-3 Flr-2 Sch-D HPlcmt-south ZN NECB System 3 PSZ Occ Sch Saturda\n   **   ~~~   ** Will be processed as Alpha=SP-CORNER_CLASS_1_POD_1_ZN_1_FLR_1 SYS-3 FLR-2 SCH-D HPLCMT-SOUTH ZN NECB SYSTEM 3 PSZ OCC SCH SATURDAY\n   ************* IDF Context for following error/warning message:\n   ************* Note -- lines truncated at 300 characters, if necessary...\n   *************   3492 Schedule:Week:Daily,\n   ************* indicated Name=Schedule:Week:Daily {e8606795-d45a-4889-84c7-fe5888244a5c}\n   ************* Only last 9 lines before error line shown.....\n   *************   3493   Schedule:Week:Daily {e8606795-d45a-4889-84c7-fe5888244a5c}, !- Name\n   *************   3494   Sp-Corner_Class_1_Pod_1_ZN_1_FLR_1 Sys-3 Flr-2 Sch-D HPlcmt-south ZN NECB System 3 PSZ Occ Sch Sunday, !- Sunday Schedule:Day Name\n   *************   3495   Sp-Corner_Class_1_Pod_1_ZN_1_FLR_1 Sys-3 Flr-2 Sch-D HPlcmt-south ZN NECB System 3 PSZ Occ Sch Monday, !- Monday Schedule:Day Name\n   *************   3496   Sp-Corner_Class_1_Pod_1_ZN_1_FLR_1 Sys-3 Flr-2 Sch-D HPlcmt-south ZN NECB System 3 PSZ Occ Sch Tuesday, !- Tuesday Schedule:Day Name\n   *************   3497   Sp-Corner_Class_1_Pod_1_ZN_1_FLR_1 Sys-3 Flr-2 Sch-D HPlcmt-south ZN NECB System 3 PSZ Occ Sch Wednesday, !- Wednesday Schedule:Day Name\n   *************   3498   Sp-Corner_Class_1_Pod_1_ZN_1_FLR_1 Sys-3 Flr-2 Sch-D HPlcmt-south ZN NECB System 3 PSZ Occ Sch Thursday, !- Thursday Schedule:Day Name\n   *************   3499   Sp-Corner_Class_1_Pod_1_ZN_1_FLR_1 Sys-3 Flr-2 Sch-D HPlcmt-south ZN NECB System 3 PSZ Occ Sch Friday, !- Friday Schedule:Day Name\n   *************   3500   Sp-Corner_Class_1_Pod_1_ZN_1_FLR_1 Sys-3 Flr-2 Sch-D HPlcmt-south ZN NECB System 3 PSZ Occ Sch Saturday, !- Saturday Schedule:Day Name\n   *************   3501   Sp-Corner_Class_1_Pod_1_ZN_1_FLR_1 Sys-3 Flr-2 Sch-D HPlcmt-south ZN NECB System 3 PSZ Occ Sch Default, !- Holiday Schedule:Day Name\n   ** Warning ** IP: IDF line~3501 Alpha Argument length exceeds maximum, will be truncated=  Sp-Corner_Class_1_Pod_1_ZN_1_FLR_1 Sys-3 Flr-2 Sch-D HPlcmt-south ZN NECB System 3 PSZ Occ Sch Defaul\n   **   ~~~   ** Will be processed as Alpha=SP-CORNER_CLASS_1_POD_1_ZN_1_FLR_1 SYS-3 FLR-2 SCH-D HPLCMT-SOUTH ZN NECB SYSTEM 3 PSZ OCC SCH DEFAULT\n   ************* IDF Context for following error/warning message:\n   ************* Note -- lines truncated at 300 characters, if necessary...\n   *************   3492 Schedule:Week:Daily,\n   ************* indicated Name=Schedule:Week:Daily {e8606795-d45a-4889-84c7-fe5888244a5c}\n   ************* Only last 10 lines before error line shown.....\n   *************   3493   Schedule:Week:Daily {e8606795-d45a-4889-84c7-fe5888244a5c}, !- Name\n   *************   3494   Sp-Corner_Class_1_Pod_1_ZN_1_FLR_1 Sys-3 Flr-2 Sch-D HPlcmt-south ZN NECB System 3 PSZ Occ Sch Sunday, !- Sunday Schedule:Day Name\n   *************   3495   Sp-Corner_Class_1_Pod_1_ZN_1_FLR_1 Sys-3 Flr-2 Sch-D HPlcmt-south ZN NECB System 3 PSZ Occ Sch Monday, !- Monday Schedule:Day Name\n   *************   3496   Sp-Corner_Class_1_Pod_1_ZN_1_FLR_1 Sys-3 Flr-2 Sch-D HPlcmt-south ZN NECB System 3 PSZ Occ Sch Tuesday, !- Tuesday Schedule:Day Name\n   *************   3497   Sp-Corner_Class_1_Pod_1_ZN_1_FLR_1 Sys-3 Flr-2 Sch-D HPlcmt-south ZN NECB System 3 PSZ Occ Sch Wednesday, !- Wednesday Schedule:Day Name\n   *************   3498   Sp-Corner_Class_1_Pod_1_ZN_1_FLR_1 Sys-3 Flr-2 Sch-D HPlcmt-south ZN NECB System 3 PSZ Occ Sch Thursday, !- Thursday Schedule:Day Name\n   *************   3499   Sp-Corner_Class_1_Pod_1_ZN_1_FLR_1 Sys-3 Flr-2 Sch-D HPlcmt-south ZN NECB System 3 PSZ Occ Sch Friday, !- Friday Schedule:Day Name\n   *************   3500   Sp-Corner_Class_1_Pod_1_ZN_1_FLR_1 Sys-3 Flr-2 Sch-D HPlcmt-south ZN NECB System 3 PSZ Occ Sch Saturday, !- Saturday Schedule:Day Name\n   *************   3501   Sp-Corner_Class_1_Pod_1_ZN_1_FLR_1 Sys-3 Flr-2 Sch-D HPlcmt-south ZN NECB System 3 PSZ Occ Sch Default, !- Holiday Schedule:Day Name\n   *************   3502   Sp-Corner_Class_1_Pod_1_ZN_1_FLR_1 Sys-3 Flr-2 Sch-D HPlcmt-south ZN NECB System 3 PSZ Occ Sch Summer Design Day, !- SummerDesignDay Schedule:Day Name\n   ** Warning ** IP: IDF line~3502 Alpha Argument length exceeds maximum, will be truncated=  Sp-Corner_Class_1_Pod_1_ZN_1_FLR_1 Sys-3 Flr-2 Sch-D HPlcmt-south ZN NECB System 3 PSZ Occ Sch Summer Design Da\n   **   ~~~   ** Will be processed as Alpha=SP-CORNER_CLASS_1_POD_1_ZN_1_FLR_1 SYS-3 FLR-2 SCH-D HPLCMT-SOUTH ZN NECB SYSTEM 3 PSZ OCC SCH SUMMER DESIGN DAY\n   ************* IDF Context for following error/warning message:\n   ************* Note -- lines truncated at 300 characters, if necessary...\n   *************   3492 Schedule:Week:Daily,\n   ************* indicated Name=Schedule:Week:Daily {e8606795-d45a-4889-84c7-fe5888244a5c}\n   ************* Only last 10 lines before error line shown.....\n   *************   3494   Sp-Corner_Class_1_Pod_1_ZN_1_FLR_1 Sys-3 Flr-2 Sch-D HPlcmt-south ZN NECB System 3 PSZ Occ Sch Sunday, !- Sunday Schedule:Day Name\n   *************   3495   Sp-Corner_Class_1_Pod_1_ZN_1_FLR_1 Sys-3 Flr-2 Sch-D HPlcmt-south ZN NECB System 3 PSZ Occ Sch Monday, !- Monday Schedule:Day Name\n   *************   3496   Sp-Corner_Class_1_Pod_1_ZN_1_FLR_1 Sys-3 Flr-2 Sch-D HPlcmt-south ZN NECB System 3 PSZ Occ Sch Tuesday, !- Tuesday Schedule:Day Name\n   *************   3497   Sp-Corner_Class_1_Pod_1_ZN_1_FLR_1 Sys-3 Flr-2 Sch-D HPlcmt-south ZN NECB System 3 PSZ Occ Sch Wednesday, !- Wednesday Schedule:Day Name\n   *************   3498   Sp-Corner_Class_1_Pod_1_ZN_1_FLR_1 Sys-3 Flr-2 Sch-D HPlcmt-south ZN NECB System 3 PSZ Occ Sch Thursday, !- Thursday Schedule:Day Name\n   *************   3499   Sp-Corner_Class_1_Pod_1_ZN_1_FLR_1 Sys-3 Flr-2 Sch-D HPlcmt-south ZN NECB System 3 PSZ Occ Sch Friday, !- Friday Schedule:Day Name\n   *************   3500   Sp-Corner_Class_1_Pod_1_ZN_1_FLR_1 Sys-3 Flr-2 Sch-D HPlcmt-south ZN NECB System 3 PSZ Occ Sch Saturday, !- Saturday Schedule:Day Name\n   *************   3501   Sp-Corner_Class_1_Pod_1_ZN_1_FLR_1 Sys-3 Flr-2 Sch-D HPlcmt-south ZN NECB System 3 PSZ Occ Sch Default, !- Holiday Schedule:Day Name\n   *************   3502   Sp-Corner_Class_1_Pod_1_ZN_1_FLR_1 Sys-3 Flr-2 Sch-D HPlcmt-south ZN NECB System 3 PSZ Occ Sch Summer Design Day, !- SummerDesignDay Schedule:Day Name\n   *************   3503   Sp-Corner_Class_1_Pod_1_ZN_1_FLR_1 Sys-3 Flr-2 Sch-D HPlcmt-south ZN NECB System 3 PSZ Occ Sch Winter Design Day, !- WinterDesignDay Schedule:Day Name\n   ** Warning ** IP: IDF line~3503 Alpha Argument length exceeds maximum, will be truncated=  Sp-Corner_Class_1_Pod_1_ZN_1_FLR_1 Sys-3 Flr-2 Sch-D HPlcmt-south ZN NECB System 3 PSZ Occ Sch Winter Design Da\n   **   ~~~   ** Will be processed as Alpha=SP-CORNER_CLASS_1_POD_1_ZN_1_FLR_1 SYS-3 FLR-2 SCH-D HPLCMT-SOUTH ZN NECB SYSTEM 3 PSZ OCC SCH WINTER DESIGN DAY\n   ************* IDF Context for following error/warning message:\n   ************* Note -- lines truncated at 300 characters, if necessary...\n   *************   3492 Schedule:Week:Daily,\n   ************* indicated Name=Schedule:Week:Daily {e8606795-d45a-4889-84c7-fe5888244a5c}\n   ************* Only last 10 lines before error line shown.....\n   *************   3495   Sp-Corner_Class_1_Pod_1_ZN_1_FLR_1 Sys-3 Flr-2 Sch-D HPlcmt-south ZN NECB System 3 PSZ Occ Sch Monday, !- Monday Schedule:Day Name\n   *************   3496   Sp-Corner_Class_1_Pod_1_ZN_1_FLR_1 Sys-3 Flr-2 Sch-D HPlcmt-south ZN NECB System 3 PSZ Occ Sch Tuesday, !- Tuesday Schedule:Day Name\n   *************   3497   Sp-Corner_Class_1_Pod_1_ZN_1_FLR_1 Sys-3 Flr-2 Sch-D HPlcmt-south ZN NECB System 3 PSZ Occ Sch Wednesday, !- Wednesday Schedule:Day Name\n   *************   3498   Sp-Corner_Class_1_Pod_1_ZN_1_FLR_1 Sys-3 Flr-2 Sch-D HPlcmt-south ZN NECB System 3 PSZ Occ Sch Thursday, !- Thursday Schedule:Day Name\n   *************   3499   Sp-Corner_Class_1_Pod_1_ZN_1_FLR_1 Sys-3 Flr-2 Sch-D HPlcmt-south ZN NECB System 3 PSZ Occ Sch Friday, !- Friday Schedule:Day Name\n   *************   3500   Sp-Corner_Class_1_Pod_1_ZN_1_FLR_1 Sys-3 Flr-2 Sch-D HPlcmt-south ZN NECB System 3 PSZ Occ Sch Saturday, !- Saturday Schedule:Day Name\n   *************   3501   Sp-Corner_Class_1_Pod_1_ZN_1_FLR_1 Sys-3 Flr-2 Sch-D HPlcmt-south ZN NECB System 3 PSZ Occ Sch Default, !- Holiday Schedule:Day Name\n   *************   3502   Sp-Corner_Class_1_Pod_1_ZN_1_FLR_1 Sys-3 Flr-2 Sch-D HPlcmt-south ZN NECB System 3 PSZ Occ Sch Summer Design Day, !- SummerDesignDay Schedule:Day Name\n   *************   3503   Sp-Corner_Class_1_Pod_1_ZN_1_FLR_1 Sys-3 Flr-2 Sch-D HPlcmt-south ZN NECB System 3 PSZ Occ Sch Winter Design Day, !- WinterDesignDay Schedule:Day Name\n   *************   3504   Sp-Corner_Class_1_Pod_1_ZN_1_FLR_1 Sys-3 Flr-2 Sch-D HPlcmt-south ZN NECB System 3 PSZ Occ Sch Default, !- CustomDay1 Schedule:Day Name\n   ** Warning ** IP: IDF line~3504 Alpha Argument length exceeds maximum, will be truncated=  Sp-Corner_Class_1_Pod_1_ZN_1_FLR_1 Sys-3 Flr-2 Sch-D HPlcmt-south ZN NECB System 3 PSZ Occ Sch Defaul\n   **   ~~~   ** Will be processed as Alpha=SP-CORNER_CLASS_1_POD_1_ZN_1_FLR_1 SYS-3 FLR-2 SCH-D HPLCMT-SOUTH ZN NECB SYSTEM 3 PSZ OCC SCH DEFAULT\n   ************* IDF Context for following error/warning message:\n   ************* Note -- lines truncated at 300 characters, if necessary...\n   *************   3492 Schedule:Week:Daily,\n   ************* indicated Name=Schedule:Week:Daily {e8606795-d45a-4889-84c7-fe5888244a5c}\n   ************* Only last 10 lines before error line shown.....\n   *************   3496   Sp-Corner_Class_1_Pod_1_ZN_1_FLR_1 Sys-3 Flr-2 Sch-D HPlcmt-south ZN NECB System 3 PSZ Occ Sch Tuesday, !- Tuesday Schedule:Day Name\n   *************   3497   Sp-Corner_Class_1_Pod_1_ZN_1_FLR_1 Sys-3 Flr-2 Sch-D HPlcmt-south ZN NECB System 3 PSZ Occ Sch Wednesday, !- Wednesday Schedule:Day Name\n   *************   3498   Sp-Corner_Class_1_Pod_1_ZN_1_FLR_1 Sys-3 Flr-2 Sch-D HPlcmt-south ZN NECB System 3 PSZ Occ Sch Thursday, !- Thursday Schedule:Day Name\n   *************   3499   Sp-Corner_Class_1_Pod_1_ZN_1_FLR_1 Sys-3 Flr-2 Sch-D HPlcmt-south ZN NECB System 3 PSZ Occ Sch Friday, !- Friday Schedule:Day Name\n   *************   3500   Sp-Corner_Class_1_Pod_1_ZN_1_FLR_1 Sys-3 Flr-2 Sch-D HPlcmt-south ZN NECB System 3 PSZ Occ Sch Saturday, !- Saturday Schedule:Day Name\n   *************   3501   Sp-Corner_Class_1_Pod_1_ZN_1_FLR_1 Sys-3 Flr-2 Sch-D HPlcmt-south ZN NECB System 3 PSZ Occ Sch Default, !- Holiday Schedule:Day Name\n   *************   3502   Sp-Corner_Class_1_Pod_1_ZN_1_FLR_1 Sys-3 Flr-2 Sch-D HPlcmt-south ZN NECB System 3 PSZ Occ Sch Summer Design Day, !- SummerDesignDay Schedule:Day Name\n   *************   3503   Sp-Corner_Class_1_Pod_1_ZN_1_FLR_1 Sys-3 Flr-2 Sch-D HPlcmt-south ZN NECB System 3 PSZ Occ Sch Winter Design Day, !- WinterDesignDay Schedule:Day Name\n   *************   3504   Sp-Corner_Class_1_Pod_1_ZN_1_FLR_1 Sys-3 Flr-2 Sch-D HPlcmt-south ZN NECB System 3 PSZ Occ Sch Default, !- CustomDay1 Schedule:Day Name\n   *************   3505   Sp-Corner_Class_1_Pod_1_ZN_1_FLR_1 Sys-3 Flr-2 Sch-D HPlcmt-south ZN NECB System 3 PSZ Occ Sch Default; !- CustomDay2 Schedule:Day Name\n   ** Warning ** IP: IDF line~3505 Alpha Argument length exceeds maximum, will be truncated=  Sp-Corner_Class_1_Pod_1_ZN_1_FLR_1 Sys-3 Flr-2 Sch-D HPlcmt-south ZN NECB System 3 PSZ Occ Sch Defaul\n   **   ~~~   ** Will be processed as Alpha=SP-CORNER_CLASS_1_POD_1_ZN_1_FLR_1 SYS-3 FLR-2 SCH-D HPLCMT-SOUTH ZN NECB SYSTEM 3 PSZ OCC SCH DEFAULT\n   ************* IDF Context for following error/warning message:\n   ************* Note -- lines truncated at 300 characters, if necessary...\n   *************   3516 Schedule:Day:Interval,\n   ************* indicated Name=Sp-Corner_Class_1_Pod_1_ZN_1_FLR_1 Sys-3 Flr-2 Sch-D HPlcmt-south ZN NECB System 3 PSZ Occ Sch Default\n   ************* Only last 1 lines before error line shown.....\n   *************   3517   Sp-Corner_Class_1_Pod_1_ZN_1_FLR_1 Sys-3 Flr-2 Sch-D HPlcmt-south ZN NECB System 3 PSZ Occ Sch Default, !- Name\n   ** Warning ** IP: IDF line~3517 Alpha Argument length exceeds maximum, will be truncated=  Sp-Corner_Class_1_Pod_1_ZN_1_FLR_1 Sys-3 Flr-2 Sch-D HPlcmt-south ZN NECB System 3 PSZ Occ Sch Defaul\n   **   ~~~   ** Will be processed as Alpha=SP-CORNER_CLASS_1_POD_1_ZN_1_FLR_1 SYS-3 FLR-2 SCH-D HPLCMT-SOUTH ZN NECB SYSTEM 3 PSZ OCC SCH DEFAULT\n   ************* IDF Context for following error/warning message:\n   ************* Note -- lines truncated at 300 characters, if necessary...\n   *************   3523 Schedule:Day:Interval,\n   ************* indicated Name=Sp-Corner_Class_1_Pod_1_ZN_1_FLR_1 Sys-3 Flr-2 Sch-D HPlcmt-south ZN NECB System 3 PSZ Occ Sch Summer Design Day\n   ************* Only last 1 lines before error line shown.....\n   *************   3524   Sp-Corner_Class_1_Pod_1_ZN_1_FLR_1 Sys-3 Flr-2 Sch-D HPlcmt-south ZN NECB System 3 PSZ Occ Sch Summer Design Day, !- Name\n   ** Warning ** IP: IDF line~3524 Alpha Argument length exceeds maximum, will be truncated=  Sp-Corner_Class_1_Pod_1_ZN_1_FLR_1 Sys-3 Flr-2 Sch-D HPlcmt-south ZN NECB System 3 PSZ Occ Sch Summer Design Da\n   **   ~~~   ** Will be processed as Alpha=SP-CORNER_CLASS_1_POD_1_ZN_1_FLR_1 SYS-3 FLR-2 SCH-D HPLCMT-SOUTH ZN NECB SYSTEM 3 PSZ OCC SCH SUMMER DESIGN DAY\n   ************* IDF Context for following error/warning message:\n   ************* Note -- lines truncated at 300 characters, if necessary...\n   *************   3530 Schedule:Day:Interval,\n   ************* indicated Name=Sp-Corner_Class_1_Pod_1_ZN_1_FLR_1 Sys-3 Flr-2 Sch-D HPlcmt-south ZN NECB System 3 PSZ Occ Sch Winter Design Day\n   ************* Only last 1 lines before error line shown.....\n   *************   3531   Sp-Corner_Class_1_Pod_1_ZN_1_FLR_1 Sys-3 Flr-2 Sch-D HPlcmt-south ZN NECB System 3 PSZ Occ Sch Winter Design Day, !- Name\n   ** Warning ** IP: IDF line~3531 Alpha Argument length exceeds maximum, will be truncated=  Sp-Corner_Class_1_Pod_1_ZN_1_FLR_1 Sys-3 Flr-2 Sch-D HPlcmt-south ZN NECB System 3 PSZ Occ Sch Winter Design Da\n   **   ~~~   ** Will be processed as Alpha=SP-CORNER_CLASS_1_POD_1_ZN_1_FLR_1 SYS-3 FLR-2 SCH-D HPLCMT-SOUTH ZN NECB SYSTEM 3 PSZ OCC SCH WINTER DESIGN DAY\n   ************* IDF Context for following error/warning message:\n   ************* Note -- lines truncated at 300 characters, if necessary...\n   *************   3811 Schedule:Day:Interval,\n   ************* indicated Name=Sp-Corner_Class_1_Pod_1_ZN_1_FLR_2 Sys-3 Flr-1 Sch-D HPlcmt-south ZN NECB System 3 PSZ Occ Sch Sunday\n   ************* Only last 1 lines before error line shown.....\n   *************   3812   Sp-Corner_Class_1_Pod_1_ZN_1_FLR_2 Sys-3 Flr-1 Sch-D HPlcmt-south ZN NECB System 3 PSZ Occ Sch Sunday, !- Name\n   ** Warning ** IP: IDF line~3812 Alpha Argument length exceeds maximum, will be truncated=  Sp-Corner_Class_1_Pod_1_ZN_1_FLR_2 Sys-3 Flr-1 Sch-D HPlcmt-south ZN NECB System 3 PSZ Occ Sch Sunda\n   **   ~~~   ** Will be processed as Alpha=SP-CORNER_CLASS_1_POD_1_ZN_1_FLR_2 SYS-3 FLR-1 SCH-D HPLCMT-SOUTH ZN NECB SYSTEM 3 PSZ OCC SCH SUNDAY\n   ************* IDF Context for following error/warning message:\n   ************* Note -- lines truncated at 300 characters, if necessary...\n   *************   3818 Schedule:Day:Interval,\n   ************* indicated Name=Sp-Corner_Class_1_Pod_1_ZN_1_FLR_2 Sys-3 Flr-1 Sch-D HPlcmt-south ZN NECB System 3 PSZ Occ Sch Monday\n   ************* Only last 1 lines before error line shown.....\n   *************   3819   Sp-Corner_Class_1_Pod_1_ZN_1_FLR_2 Sys-3 Flr-1 Sch-D HPlcmt-south ZN NECB System 3 PSZ Occ Sch Monday, !- Name\n   ** Warning ** IP: IDF line~3819 Alpha Argument length exceeds maximum, will be truncated=  Sp-Corner_Class_1_Pod_1_ZN_1_FLR_2 Sys-3 Flr-1 Sch-D HPlcmt-south ZN NECB System 3 PSZ Occ Sch Monda\n   **   ~~~   ** Will be processed as Alpha=SP-CORNER_CLASS_1_POD_1_ZN_1_FLR_2 SYS-3 FLR-1 SCH-D HPLCMT-SOUTH ZN NECB SYSTEM 3 PSZ OCC SCH MONDAY\n   ************* IDF Context for following error/warning message:\n   ************* Note -- lines truncated at 300 characters, if necessary...\n   *************   3833 Schedule:Day:Interval,\n   ************* indicated Name=Sp-Corner_Class_1_Pod_1_ZN_1_FLR_2 Sys-3 Flr-1 Sch-D HPlcmt-south ZN NECB System 3 PSZ Occ Sch Tuesday\n   ************* Only last 1 lines before error line shown.....\n   *************   3834   Sp-Corner_Class_1_Pod_1_ZN_1_FLR_2 Sys-3 Flr-1 Sch-D HPlcmt-south ZN NECB System 3 PSZ Occ Sch Tuesday, !- Name\n   ** Warning ** IP: IDF line~3834 Alpha Argument length exceeds maximum, will be truncated=  Sp-Corner_Class_1_Pod_1_ZN_1_FLR_2 Sys-3 Flr-1 Sch-D HPlcmt-south ZN NECB System 3 PSZ Occ Sch Tuesda\n   **   ~~~   ** Will be processed as Alpha=SP-CORNER_CLASS_1_POD_1_ZN_1_FLR_2 SYS-3 FLR-1 SCH-D HPLCMT-SOUTH ZN NECB SYSTEM 3 PSZ OCC SCH TUESDAY\n   ************* IDF Context for following error/warning message:\n   ************* Note -- lines truncated at 300 characters, if necessary...\n   *************   3848 Schedule:Day:Interval,\n   ************* indicated Name=Sp-Corner_Class_1_Pod_1_ZN_1_FLR_2 Sys-3 Flr-1 Sch-D HPlcmt-south ZN NECB System 3 PSZ Occ Sch Wednesday\n   ************* Only last 1 lines before error line shown.....\n   *************   3849   Sp-Corner_Class_1_Pod_1_ZN_1_FLR_2 Sys-3 Flr-1 Sch-D HPlcmt-south ZN NECB System 3 PSZ Occ Sch Wednesday, !- Name\n   ** Warning ** IP: IDF line~3849 Alpha Argument length exceeds maximum, will be truncated=  Sp-Corner_Class_1_Pod_1_ZN_1_FLR_2 Sys-3 Flr-1 Sch-D HPlcmt-south ZN NECB System 3 PSZ Occ Sch Wednesda\n   **   ~~~   ** Will be processed as Alpha=SP-CORNER_CLASS_1_POD_1_ZN_1_FLR_2 SYS-3 FLR-1 SCH-D HPLCMT-SOUTH ZN NECB SYSTEM 3 PSZ OCC SCH WEDNESDAY\n   ************* IDF Context for following error/warning message:\n   ************* Note -- lines truncated at 300 characters, if necessary...\n   *************   3863 Schedule:Day:Interval,\n   ************* indicated Name=Sp-Corner_Class_1_Pod_1_ZN_1_FLR_2 Sys-3 Flr-1 Sch-D HPlcmt-south ZN NECB System 3 PSZ Occ Sch Thursday\n   ************* Only last 1 lines before error line shown.....\n   *************   3864   Sp-Corner_Class_1_Pod_1_ZN_1_FLR_2 Sys-3 Flr-1 Sch-D HPlcmt-south ZN NECB System 3 PSZ Occ Sch Thursday, !- Name\n   ** Warning ** IP: IDF line~3864 Alpha Argument length exceeds maximum, will be truncated=  Sp-Corner_Class_1_Pod_1_ZN_1_FLR_2 Sys-3 Flr-1 Sch-D HPlcmt-south ZN NECB System 3 PSZ Occ Sch Thursda\n   **   ~~~   ** Will be processed as Alpha=SP-CORNER_CLASS_1_POD_1_ZN_1_FLR_2 SYS-3 FLR-1 SCH-D HPLCMT-SOUTH ZN NECB SYSTEM 3 PSZ OCC SCH THURSDAY\n   ************* IDF Context for following error/warning message:\n   ************* Note -- lines truncated at 300 characters, if necessary...\n   *************   3878 Schedule:Day:Interval,\n   ************* indicated Name=Sp-Corner_Class_1_Pod_1_ZN_1_FLR_2 Sys-3 Flr-1 Sch-D HPlcmt-south ZN NECB System 3 PSZ Occ Sch Friday\n   ************* Only last 1 lines before error line shown.....\n   *************   3879   Sp-Corner_Class_1_Pod_1_ZN_1_FLR_2 Sys-3 Flr-1 Sch-D HPlcmt-south ZN NECB System 3 PSZ Occ Sch Friday, !- Name\n   ** Warning ** IP: IDF line~3879 Alpha Argument length exceeds maximum, will be truncated=  Sp-Corner_Class_1_Pod_1_ZN_1_FLR_2 Sys-3 Flr-1 Sch-D HPlcmt-south ZN NECB System 3 PSZ Occ Sch Frida\n   **   ~~~   ** Will be processed as Alpha=SP-CORNER_CLASS_1_POD_1_ZN_1_FLR_2 SYS-3 FLR-1 SCH-D HPLCMT-SOUTH ZN NECB SYSTEM 3 PSZ OCC SCH FRIDAY\n   ************* IDF Context for following error/warning message:\n   ************* Note -- lines truncated at 300 characters, if necessary...\n   *************   3893 Schedule:Day:Interval,\n   ************* indicated Name=Sp-Corner_Class_1_Pod_1_ZN_1_FLR_2 Sys-3 Flr-1 Sch-D HPlcmt-south ZN NECB System 3 PSZ Occ Sch Saturday\n   ************* Only last 1 lines before error line shown.....\n   *************   3894   Sp-Corner_Class_1_Pod_1_ZN_1_FLR_2 Sys-3 Flr-1 Sch-D HPlcmt-south ZN NECB System 3 PSZ Occ Sch Saturday, !- Name\n   ** Warning ** IP: IDF line~3894 Alpha Argument length exceeds maximum, will be truncated=  Sp-Corner_Class_1_Pod_1_ZN_1_FLR_2 Sys-3 Flr-1 Sch-D HPlcmt-south ZN NECB System 3 PSZ Occ Sch Saturda\n   **   ~~~   ** Will be processed as Alpha=SP-CORNER_CLASS_1_POD_1_ZN_1_FLR_2 SYS-3 FLR-1 SCH-D HPLCMT-SOUTH ZN NECB SYSTEM 3 PSZ OCC SCH SATURDAY\n   ************* IDF Context for following error/warning message:\n   ************* Note -- lines truncated at 300 characters, if necessary...\n   *************   3900 Schedule:Week:Daily,\n   ************* indicated Name=Schedule:Week:Daily {314d8c60-5c63-4a8a-a1cd-3e84a1e29f52}\n   ************* Only last 2 lines before error line shown.....\n   *************   3901   Schedule:Week:Daily {314d8c60-5c63-4a8a-a1cd-3e84a1e29f52}, !- Name\n   *************   3902   Sp-Corner_Class_1_Pod_1_ZN_1_FLR_2 Sys-3 Flr-1 Sch-D HPlcmt-south ZN NECB System 3 PSZ Occ Sch Sunday, !- Sunday Schedule:Day Name\n   ** Warning ** IP: IDF line~3902 Alpha Argument length exceeds maximum, will be truncated=  Sp-Corner_Class_1_Pod_1_ZN_1_FLR_2 Sys-3 Flr-1 Sch-D HPlcmt-south ZN NECB System 3 PSZ Occ Sch Sunda\n   **   ~~~   ** Will be processed as Alpha=SP-CORNER_CLASS_1_POD_1_ZN_1_FLR_2 SYS-3 FLR-1 SCH-D HPLCMT-SOUTH ZN NECB SYSTEM 3 PSZ OCC SCH SUNDAY\n   ************* IDF Context for following error/warning message:\n   ************* Note -- lines truncated at 300 characters, if necessary...\n   *************   3900 Schedule:Week:Daily,\n   ************* indicated Name=Schedule:Week:Daily {314d8c60-5c63-4a8a-a1cd-3e84a1e29f52}\n   ************* Only last 3 lines before error line shown.....\n   *************   3901   Schedule:Week:Daily {314d8c60-5c63-4a8a-a1cd-3e84a1e29f52}, !- Name\n   *************   3902   Sp-Corner_Class_1_Pod_1_ZN_1_FLR_2 Sys-3 Flr-1 Sch-D HPlcmt-south ZN NECB System 3 PSZ Occ Sch Sunday, !- Sunday Schedule:Day Name\n   *************   3903   Sp-Corner_Class_1_Pod_1_ZN_1_FLR_2 Sys-3 Flr-1 Sch-D HPlcmt-south ZN NECB System 3 PSZ Occ Sch Monday, !- Monday Schedule:Day Name\n   ** Warning ** IP: IDF line~3903 Alpha Argument length exceeds maximum, will be truncated=  Sp-Corner_Class_1_Pod_1_ZN_1_FLR_2 Sys-3 Flr-1 Sch-D HPlcmt-south ZN NECB System 3 PSZ Occ Sch Monda\n   **   ~~~   ** Will be processed as Alpha=SP-CORNER_CLASS_1_POD_1_ZN_1_FLR_2 SYS-3 FLR-1 SCH-D HPLCMT-SOUTH ZN NECB SYSTEM 3 PSZ OCC SCH MONDAY\n   ************* IDF Context for following error/warning message:\n   ************* Note -- lines truncated at 300 characters, if necessary...\n   *************   3900 Schedule:Week:Daily,\n   ************* indicated Name=Schedule:Week:Daily {314d8c60-5c63-4a8a-a1cd-3e84a1e29f52}\n   ************* Only last 4 lines before error line shown.....\n   *************   3901   Schedule:Week:Daily {314d8c60-5c63-4a8a-a1cd-3e84a1e29f52}, !- Name\n   *************   3902   Sp-Corner_Class_1_Pod_1_ZN_1_FLR_2 Sys-3 Flr-1 Sch-D HPlcmt-south ZN NECB System 3 PSZ Occ Sch Sunday, !- Sunday Schedule:Day Name\n   *************   3903   Sp-Corner_Class_1_Pod_1_ZN_1_FLR_2 Sys-3 Flr-1 Sch-D HPlcmt-south ZN NECB System 3 PSZ Occ Sch Monday, !- Monday Schedule:Day Name\n   *************   3904   Sp-Corner_Class_1_Pod_1_ZN_1_FLR_2 Sys-3 Flr-1 Sch-D HPlcmt-south ZN NECB System 3 PSZ Occ Sch Tuesday, !- Tuesday Schedule:Day Name\n   ** Warning ** IP: IDF line~3904 Alpha Argument length exceeds maximum, will be truncated=  Sp-Corner_Class_1_Pod_1_ZN_1_FLR_2 Sys-3 Flr-1 Sch-D HPlcmt-south ZN NECB System 3 PSZ Occ Sch Tuesda\n   **   ~~~   ** Will be processed as Alpha=SP-CORNER_CLASS_1_POD_1_ZN_1_FLR_2 SYS-3 FLR-1 SCH-D HPLCMT-SOUTH ZN NECB SYSTEM 3 PSZ OCC SCH TUESDAY\n   ************* IDF Context for following error/warning message:\n   ************* Note -- lines truncated at 300 characters, if necessary...\n   *************   3900 Schedule:Week:Daily,\n   ************* indicated Name=Schedule:Week:Daily {314d8c60-5c63-4a8a-a1cd-3e84a1e29f52}\n   ************* Only last 5 lines before error line shown.....\n   *************   3901   Schedule:Week:Daily {314d8c60-5c63-4a8a-a1cd-3e84a1e29f52}, !- Name\n   *************   3902   Sp-Corner_Class_1_Pod_1_ZN_1_FLR_2 Sys-3 Flr-1 Sch-D HPlcmt-south ZN NECB System 3 PSZ Occ Sch Sunday, !- Sunday Schedule:Day Name\n   *************   3903   Sp-Corner_Class_1_Pod_1_ZN_1_FLR_2 Sys-3 Flr-1 Sch-D HPlcmt-south ZN NECB System 3 PSZ Occ Sch Monday, !- Monday Schedule:Day Name\n   *************   3904   Sp-Corner_Class_1_Pod_1_ZN_1_FLR_2 Sys-3 Flr-1 Sch-D HPlcmt-south ZN NECB System 3 PSZ Occ Sch Tuesday, !- Tuesday Schedule:Day Name\n   *************   3905   Sp-Corner_Class_1_Pod_1_ZN_1_FLR_2 Sys-3 Flr-1 Sch-D HPlcmt-south ZN NECB System 3 PSZ Occ Sch Wednesday, !- Wednesday Schedule:Day Name\n   ** Warning ** IP: IDF line~3905 Alpha Argument length exceeds maximum, will be truncated=  Sp-Corner_Class_1_Pod_1_ZN_1_FLR_2 Sys-3 Flr-1 Sch-D HPlcmt-south ZN NECB System 3 PSZ Occ Sch Wednesda\n   **   ~~~   ** Will be processed as Alpha=SP-CORNER_CLASS_1_POD_1_ZN_1_FLR_2 SYS-3 FLR-1 SCH-D HPLCMT-SOUTH ZN NECB SYSTEM 3 PSZ OCC SCH WEDNESDAY\n   ************* IDF Context for following error/warning message:\n   ************* Note -- lines truncated at 300 characters, if necessary...\n   *************   3900 Schedule:Week:Daily,\n   ************* indicated Name=Schedule:Week:Daily {314d8c60-5c63-4a8a-a1cd-3e84a1e29f52}\n   ************* Only last 6 lines before error line shown.....\n   *************   3901   Schedule:Week:Daily {314d8c60-5c63-4a8a-a1cd-3e84a1e29f52}, !- Name\n   *************   3902   Sp-Corner_Class_1_Pod_1_ZN_1_FLR_2 Sys-3 Flr-1 Sch-D HPlcmt-south ZN NECB System 3 PSZ Occ Sch Sunday, !- Sunday Schedule:Day Name\n   *************   3903   Sp-Corner_Class_1_Pod_1_ZN_1_FLR_2 Sys-3 Flr-1 Sch-D HPlcmt-south ZN NECB System 3 PSZ Occ Sch Monday, !- Monday Schedule:Day Name\n   *************   3904   Sp-Corner_Class_1_Pod_1_ZN_1_FLR_2 Sys-3 Flr-1 Sch-D HPlcmt-south ZN NECB System 3 PSZ Occ Sch Tuesday, !- Tuesday Schedule:Day Name\n   *************   3905   Sp-Corner_Class_1_Pod_1_ZN_1_FLR_2 Sys-3 Flr-1 Sch-D HPlcmt-south ZN NECB System 3 PSZ Occ Sch Wednesday, !- Wednesday Schedule:Day Name\n   *************   3906   Sp-Corner_Class_1_Pod_1_ZN_1_FLR_2 Sys-3 Flr-1 Sch-D HPlcmt-south ZN NECB System 3 PSZ Occ Sch Thursday, !- Thursday Schedule:Day Name\n   ** Warning ** IP: IDF line~3906 Alpha Argument length exceeds maximum, will be truncated=  Sp-Corner_Class_1_Pod_1_ZN_1_FLR_2 Sys-3 Flr-1 Sch-D HPlcmt-south ZN NECB System 3 PSZ Occ Sch Thursda\n   **   ~~~   ** Will be processed as Alpha=SP-CORNER_CLASS_1_POD_1_ZN_1_FLR_2 SYS-3 FLR-1 SCH-D HPLCMT-SOUTH ZN NECB SYSTEM 3 PSZ OCC SCH THURSDAY\n   ************* IDF Context for following error/warning message:\n   ************* Note -- lines truncated at 300 characters, if necessary...\n   *************   3900 Schedule:Week:Daily,\n   ************* indicated Name=Schedule:Week:Daily {314d8c60-5c63-4a8a-a1cd-3e84a1e29f52}\n   ************* Only last 7 lines before error line shown.....\n   *************   3901   Schedule:Week:Daily {314d8c60-5c63-4a8a-a1cd-3e84a1e29f52}, !- Name\n   *************   3902   Sp-Corner_Class_1_Pod_1_ZN_1_FLR_2 Sys-3 Flr-1 Sch-D HPlcmt-south ZN NECB System 3 PSZ Occ Sch Sunday, !- Sunday Schedule:Day Name\n   *************   3903   Sp-Corner_Class_1_Pod_1_ZN_1_FLR_2 Sys-3 Flr-1 Sch-D HPlcmt-south ZN NECB System 3 PSZ Occ Sch Monday, !- Monday Schedule:Day Name\n   *************   3904   Sp-Corner_Class_1_Pod_1_ZN_1_FLR_2 Sys-3 Flr-1 Sch-D HPlcmt-south ZN NECB System 3 PSZ Occ Sch Tuesday, !- Tuesday Schedule:Day Name\n   *************   3905   Sp-Corner_Class_1_Pod_1_ZN_1_FLR_2 Sys-3 Flr-1 Sch-D HPlcmt-south ZN NECB System 3 PSZ Occ Sch Wednesday, !- Wednesday Schedule:Day Name\n   *************   3906   Sp-Corner_Class_1_Pod_1_ZN_1_FLR_2 Sys-3 Flr-1 Sch-D HPlcmt-south ZN NECB System 3 PSZ Occ Sch Thursday, !- Thursday Schedule:Day Name\n   *************   3907   Sp-Corner_Class_1_Pod_1_ZN_1_FLR_2 Sys-3 Flr-1 Sch-D HPlcmt-south ZN NECB System 3 PSZ Occ Sch Friday, !- Friday Schedule:Day Name\n   ** Warning ** IP: IDF line~3907 Alpha Argument length exceeds maximum, will be truncated=  Sp-Corner_Class_1_Pod_1_ZN_1_FLR_2 Sys-3 Flr-1 Sch-D HPlcmt-south ZN NECB System 3 PSZ Occ Sch Frida\n   **   ~~~   ** Will be processed as Alpha=SP-CORNER_CLASS_1_POD_1_ZN_1_FLR_2 SYS-3 FLR-1 SCH-D HPLCMT-SOUTH ZN NECB SYSTEM 3 PSZ OCC SCH FRIDAY\n   ************* IDF Context for following error/warning message:\n   ************* Note -- lines truncated at 300 characters, if necessary...\n   *************   3900 Schedule:Week:Daily,\n   ************* indicated Name=Schedule:Week:Daily {314d8c60-5c63-4a8a-a1cd-3e84a1e29f52}\n   ************* Only last 8 lines before error line shown.....\n   *************   3901   Schedule:Week:Daily {314d8c60-5c63-4a8a-a1cd-3e84a1e29f52}, !- Name\n   *************   3902   Sp-Corner_Class_1_Pod_1_ZN_1_FLR_2 Sys-3 Flr-1 Sch-D HPlcmt-south ZN NECB System 3 PSZ Occ Sch Sunday, !- Sunday Schedule:Day Name\n   *************   3903   Sp-Corner_Class_1_Pod_1_ZN_1_FLR_2 Sys-3 Flr-1 Sch-D HPlcmt-south ZN NECB System 3 PSZ Occ Sch Monday, !- Monday Schedule:Day Name\n   *************   3904   Sp-Corner_Class_1_Pod_1_ZN_1_FLR_2 Sys-3 Flr-1 Sch-D HPlcmt-south ZN NECB System 3 PSZ Occ Sch Tuesday, !- Tuesday Schedule:Day Name\n   *************   3905   Sp-Corner_Class_1_Pod_1_ZN_1_FLR_2 Sys-3 Flr-1 Sch-D HPlcmt-south ZN NECB System 3 PSZ Occ Sch Wednesday, !- Wednesday Schedule:Day Name\n   *************   3906   Sp-Corner_Class_1_Pod_1_ZN_1_FLR_2 Sys-3 Flr-1 Sch-D HPlcmt-south ZN NECB System 3 PSZ Occ Sch Thursday, !- Thursday Schedule:Day Name\n   *************   3907   Sp-Corner_Class_1_Pod_1_ZN_1_FLR_2 Sys-3 Flr-1 Sch-D HPlcmt-south ZN NECB System 3 PSZ Occ Sch Friday, !- Friday Schedule:Day Name\n   *************   3908   Sp-Corner_Class_1_Pod_1_ZN_1_FLR_2 Sys-3 Flr-1 Sch-D HPlcmt-south ZN NECB System 3 PSZ Occ Sch Saturday, !- Saturday Schedule:Day Name\n   ** Warning ** IP: IDF line~3908 Alpha Argument length exceeds maximum, will be truncated=  Sp-Corner_Class_1_Pod_1_ZN_1_FLR_2 Sys-3 Flr-1 Sch-D HPlcmt-south ZN NECB System 3 PSZ Occ Sch Saturda\n   **   ~~~   ** Will be processed as Alpha=SP-CORNER_CLASS_1_POD_1_ZN_1_FLR_2 SYS-3 FLR-1 SCH-D HPLCMT-SOUTH ZN NECB SYSTEM 3 PSZ OCC SCH SATURDAY\n   ************* IDF Context for following error/warning message:\n   ************* Note -- lines truncated at 300 characters, if necessary...\n   *************   3900 Schedule:Week:Daily,\n   ************* indicated Name=Schedule:Week:Daily {314d8c60-5c63-4a8a-a1cd-3e84a1e29f52}\n   ************* Only last 9 lines before error line shown.....\n   *************   3901   Schedule:Week:Daily {314d8c60-5c63-4a8a-a1cd-3e84a1e29f52}, !- Name\n   *************   3902   Sp-Corner_Class_1_Pod_1_ZN_1_FLR_2 Sys-3 Flr-1 Sch-D HPlcmt-south ZN NECB System 3 PSZ Occ Sch Sunday, !- Sunday Schedule:Day Name\n   *************   3903   Sp-Corner_Class_1_Pod_1_ZN_1_FLR_2 Sys-3 Flr-1 Sch-D HPlcmt-south ZN NECB System 3 PSZ Occ Sch Monday, !- Monday Schedule:Day Name\n   *************   3904   Sp-Corner_Class_1_Pod_1_ZN_1_FLR_2 Sys-3 Flr-1 Sch-D HPlcmt-south ZN NECB System 3 PSZ Occ Sch Tuesday, !- Tuesday Schedule:Day Name\n   *************   3905   Sp-Corner_Class_1_Pod_1_ZN_1_FLR_2 Sys-3 Flr-1 Sch-D HPlcmt-south ZN NECB System 3 PSZ Occ Sch Wednesday, !- Wednesday Schedule:Day Name\n   *************   3906   Sp-Corner_Class_1_Pod_1_ZN_1_FLR_2 Sys-3 Flr-1 Sch-D HPlcmt-south ZN NECB System 3 PSZ Occ Sch Thursday, !- Thursday Schedule:Day Name\n   *************   3907   Sp-Corner_Class_1_Pod_1_ZN_1_FLR_2 Sys-3 Flr-1 Sch-D HPlcmt-south ZN NECB System 3 PSZ Occ Sch Friday, !- Friday Schedule:Day Name\n   *************   3908   Sp-Corner_Class_1_Pod_1_ZN_1_FLR_2 Sys-3 Flr-1 Sch-D HPlcmt-south ZN NECB System 3 PSZ Occ Sch Saturday, !- Saturday Schedule:Day Name\n   *************   3909   Sp-Corner_Class_1_Pod_1_ZN_1_FLR_2 Sys-3 Flr-1 Sch-D HPlcmt-south ZN NECB System 3 PSZ Occ Sch Default, !- Holiday Schedule:Day Name\n   ** Warning ** IP: IDF line~3909 Alpha Argument length exceeds maximum, will be truncated=  Sp-Corner_Class_1_Pod_1_ZN_1_FLR_2 Sys-3 Flr-1 Sch-D HPlcmt-south ZN NECB System 3 PSZ Occ Sch Defaul\n   **   ~~~   ** Will be processed as Alpha=SP-CORNER_CLASS_1_POD_1_ZN_1_FLR_2 SYS-3 FLR-1 SCH-D HPLCMT-SOUTH ZN NECB SYSTEM 3 PSZ OCC SCH DEFAULT\n   ************* IDF Context for following error/warning message:\n   ************* Note -- lines truncated at 300 characters, if necessary...\n   *************   3900 Schedule:Week:Daily,\n   ************* indicated Name=Schedule:Week:Daily {314d8c60-5c63-4a8a-a1cd-3e84a1e29f52}\n   ************* Only last 10 lines before error line shown.....\n   *************   3901   Schedule:Week:Daily {314d8c60-5c63-4a8a-a1cd-3e84a1e29f52}, !- Name\n   *************   3902   Sp-Corner_Class_1_Pod_1_ZN_1_FLR_2 Sys-3 Flr-1 Sch-D HPlcmt-south ZN NECB System 3 PSZ Occ Sch Sunday, !- Sunday Schedule:Day Name\n   *************   3903   Sp-Corner_Class_1_Pod_1_ZN_1_FLR_2 Sys-3 Flr-1 Sch-D HPlcmt-south ZN NECB System 3 PSZ Occ Sch Monday, !- Monday Schedule:Day Name\n   *************   3904   Sp-Corner_Class_1_Pod_1_ZN_1_FLR_2 Sys-3 Flr-1 Sch-D HPlcmt-south ZN NECB System 3 PSZ Occ Sch Tuesday, !- Tuesday Schedule:Day Name\n   *************   3905   Sp-Corner_Class_1_Pod_1_ZN_1_FLR_2 Sys-3 Flr-1 Sch-D HPlcmt-south ZN NECB System 3 PSZ Occ Sch Wednesday, !- Wednesday Schedule:Day Name\n   *************   3906   Sp-Corner_Class_1_Pod_1_ZN_1_FLR_2 Sys-3 Flr-1 Sch-D HPlcmt-south ZN NECB System 3 PSZ Occ Sch Thursday, !- Thursday Schedule:Day Name\n   *************   3907   Sp-Corner_Class_1_Pod_1_ZN_1_FLR_2 Sys-3 Flr-1 Sch-D HPlcmt-south ZN NECB System 3 PSZ Occ Sch Friday, !- Friday Schedule:Day Name\n   *************   3908   Sp-Corner_Class_1_Pod_1_ZN_1_FLR_2 Sys-3 Flr-1 Sch-D HPlcmt-south ZN NECB System 3 PSZ Occ Sch Saturday, !- Saturday Schedule:Day Name\n   *************   3909   Sp-Corner_Class_1_Pod_1_ZN_1_FLR_2 Sys-3 Flr-1 Sch-D HPlcmt-south ZN NECB System 3 PSZ Occ Sch Default, !- Holiday Schedule:Day Name\n   *************   3910   Sp-Corner_Class_1_Pod_1_ZN_1_FLR_2 Sys-3 Flr-1 Sch-D HPlcmt-south ZN NECB System 3 PSZ Occ Sch Summer Design Day, !- SummerDesignDay Schedule:Day Name\n   ** Warning ** IP: IDF line~3910 Alpha Argument length exceeds maximum, will be truncated=  Sp-Corner_Class_1_Pod_1_ZN_1_FLR_2 Sys-3 Flr-1 Sch-D HPlcmt-south ZN NECB System 3 PSZ Occ Sch Summer Design Da\n   **   ~~~   ** Will be processed as Alpha=SP-CORNER_CLASS_1_POD_1_ZN_1_FLR_2 SYS-3 FLR-1 SCH-D HPLCMT-SOUTH ZN NECB SYSTEM 3 PSZ OCC SCH SUMMER DESIGN DAY\n   ************* IDF Context for following error/warning message:\n   ************* Note -- lines truncated at 300 characters, if necessary...\n   *************   3900 Schedule:Week:Daily,\n   ************* indicated Name=Schedule:Week:Daily {314d8c60-5c63-4a8a-a1cd-3e84a1e29f52}\n   ************* Only last 10 lines before error line shown.....\n   *************   3902   Sp-Corner_Class_1_Pod_1_ZN_1_FLR_2 Sys-3 Flr-1 Sch-D HPlcmt-south ZN NECB System 3 PSZ Occ Sch Sunday, !- Sunday Schedule:Day Name\n   *************   3903   Sp-Corner_Class_1_Pod_1_ZN_1_FLR_2 Sys-3 Flr-1 Sch-D HPlcmt-south ZN NECB System 3 PSZ Occ Sch Monday, !- Monday Schedule:Day Name\n   *************   3904   Sp-Corner_Class_1_Pod_1_ZN_1_FLR_2 Sys-3 Flr-1 Sch-D HPlcmt-south ZN NECB System 3 PSZ Occ Sch Tuesday, !- Tuesday Schedule:Day Name\n   *************   3905   Sp-Corner_Class_1_Pod_1_ZN_1_FLR_2 Sys-3 Flr-1 Sch-D HPlcmt-south ZN NECB System 3 PSZ Occ Sch Wednesday, !- Wednesday Schedule:Day Name\n   *************   3906   Sp-Corner_Class_1_Pod_1_ZN_1_FLR_2 Sys-3 Flr-1 Sch-D HPlcmt-south ZN NECB System 3 PSZ Occ Sch Thursday, !- Thursday Schedule:Day Name\n   *************   3907   Sp-Corner_Class_1_Pod_1_ZN_1_FLR_2 Sys-3 Flr-1 Sch-D HPlcmt-south ZN NECB System 3 PSZ Occ Sch Friday, !- Friday Schedule:Day Name\n   *************   3908   Sp-Corner_Class_1_Pod_1_ZN_1_FLR_2 Sys-3 Flr-1 Sch-D HPlcmt-south ZN NECB System 3 PSZ Occ Sch Saturday, !- Saturday Schedule:Day Name\n   *************   3909   Sp-Corner_Class_1_Pod_1_ZN_1_FLR_2 Sys-3 Flr-1 Sch-D HPlcmt-south ZN NECB System 3 PSZ Occ Sch Default, !- Holiday Schedule:Day Name\n   *************   3910   Sp-Corner_Class_1_Pod_1_ZN_1_FLR_2 Sys-3 Flr-1 Sch-D HPlcmt-south ZN NECB System 3 PSZ Occ Sch Summer Design Day, !- SummerDesignDay Schedule:Day Name\n   *************   3911   Sp-Corner_Class_1_Pod_1_ZN_1_FLR_2 Sys-3 Flr-1 Sch-D HPlcmt-south ZN NECB System 3 PSZ Occ Sch Winter Design Day, !- WinterDesignDay Schedule:Day Name\n   ** Warning ** IP: IDF line~3911 Alpha Argument length exceeds maximum, will be truncated=  Sp-Corner_Class_1_Pod_1_ZN_1_FLR_2 Sys-3 Flr-1 Sch-D HPlcmt-south ZN NECB System 3 PSZ Occ Sch Winter Design Da\n   **   ~~~   ** Will be processed as Alpha=SP-CORNER_CLASS_1_POD_1_ZN_1_FLR_2 SYS-3 FLR-1 SCH-D HPLCMT-SOUTH ZN NECB SYSTEM 3 PSZ OCC SCH WINTER DESIGN DAY\n   ************* IDF Context for following error/warning message:\n   ************* Note -- lines truncated at 300 characters, if necessary...\n   *************   3900 Schedule:Week:Daily,\n   ************* indicated Name=Schedule:Week:Daily {314d8c60-5c63-4a8a-a1cd-3e84a1e29f52}\n   ************* Only last 10 lines before error line shown.....\n   *************   3903   Sp-Corner_Class_1_Pod_1_ZN_1_FLR_2 Sys-3 Flr-1 Sch-D HPlcmt-south ZN NECB System 3 PSZ Occ Sch Monday, !- Monday Schedule:Day Name\n   *************   3904   Sp-Corner_Class_1_Pod_1_ZN_1_FLR_2 Sys-3 Flr-1 Sch-D HPlcmt-south ZN NECB System 3 PSZ Occ Sch Tuesday, !- Tuesday Schedule:Day Name\n   *************   3905   Sp-Corner_Class_1_Pod_1_ZN_1_FLR_2 Sys-3 Flr-1 Sch-D HPlcmt-south ZN NECB System 3 PSZ Occ Sch Wednesday, !- Wednesday Schedule:Day Name\n   *************   3906   Sp-Corner_Class_1_Pod_1_ZN_1_FLR_2 Sys-3 Flr-1 Sch-D HPlcmt-south ZN NECB System 3 PSZ Occ Sch Thursday, !- Thursday Schedule:Day Name\n   *************   3907   Sp-Corner_Class_1_Pod_1_ZN_1_FLR_2 Sys-3 Flr-1 Sch-D HPlcmt-south ZN NECB System 3 PSZ Occ Sch Friday, !- Friday Schedule:Day Name\n   *************   3908   Sp-Corner_Class_1_Pod_1_ZN_1_FLR_2 Sys-3 Flr-1 Sch-D HPlcmt-south ZN NECB System 3 PSZ Occ Sch Saturday, !- Saturday Schedule:Day Name\n   *************   3909   Sp-Corner_Class_1_Pod_1_ZN_1_FLR_2 Sys-3 Flr-1 Sch-D HPlcmt-south ZN NECB System 3 PSZ Occ Sch Default, !- Holiday Schedule:Day Name\n   *************   3910   Sp-Corner_Class_1_Pod_1_ZN_1_FLR_2 Sys-3 Flr-1 Sch-D HPlcmt-south ZN NECB System 3 PSZ Occ Sch Summer Design Day, !- SummerDesignDay Schedule:Day Name\n   *************   3911   Sp-Corner_Class_1_Pod_1_ZN_1_FLR_2 Sys-3 Flr-1 Sch-D HPlcmt-south ZN NECB System 3 PSZ Occ Sch Winter Design Day, !- WinterDesignDay Schedule:Day Name\n   *************   3912   Sp-Corner_Class_1_Pod_1_ZN_1_FLR_2 Sys-3 Flr-1 Sch-D HPlcmt-south ZN NECB System 3 PSZ Occ Sch Default, !- CustomDay1 Schedule:Day Name\n   ** Warning ** IP: IDF line~3912 Alpha Argument length exceeds maximum, will be truncated=  Sp-Corner_Class_1_Pod_1_ZN_1_FLR_2 Sys-3 Flr-1 Sch-D HPlcmt-south ZN NECB System 3 PSZ Occ Sch Defaul\n   **   ~~~   ** Will be processed as Alpha=SP-CORNER_CLASS_1_POD_1_ZN_1_FLR_2 SYS-3 FLR-1 SCH-D HPLCMT-SOUTH ZN NECB SYSTEM 3 PSZ OCC SCH DEFAULT\n   ************* IDF Context for following error/warning message:\n   ************* Note -- lines truncated at 300 characters, if necessary...\n   *************   3900 Schedule:Week:Daily,\n   ************* indicated Name=Schedule:Week:Daily {314d8c60-5c63-4a8a-a1cd-3e84a1e29f52}\n   ************* Only last 10 lines before error line shown.....\n   *************   3904   Sp-Corner_Class_1_Pod_1_ZN_1_FLR_2 Sys-3 Flr-1 Sch-D HPlcmt-south ZN NECB System 3 PSZ Occ Sch Tuesday, !- Tuesday Schedule:Day Name\n   *************   3905   Sp-Corner_Class_1_Pod_1_ZN_1_FLR_2 Sys-3 Flr-1 Sch-D HPlcmt-south ZN NECB System 3 PSZ Occ Sch Wednesday, !- Wednesday Schedule:Day Name\n   *************   3906   Sp-Corner_Class_1_Pod_1_ZN_1_FLR_2 Sys-3 Flr-1 Sch-D HPlcmt-south ZN NECB System 3 PSZ Occ Sch Thursday, !- Thursday Schedule:Day Name\n   *************   3907   Sp-Corner_Class_1_Pod_1_ZN_1_FLR_2 Sys-3 Flr-1 Sch-D HPlcmt-south ZN NECB System 3 PSZ Occ Sch Friday, !- Friday Schedule:Day Name\n   *************   3908   Sp-Corner_Class_1_Pod_1_ZN_1_FLR_2 Sys-3 Flr-1 Sch-D HPlcmt-south ZN NECB System 3 PSZ Occ Sch Saturday, !- Saturday Schedule:Day Name\n   *************   3909   Sp-Corner_Class_1_Pod_1_ZN_1_FLR_2 Sys-3 Flr-1 Sch-D HPlcmt-south ZN NECB System 3 PSZ Occ Sch Default, !- Holiday Schedule:Day Name\n   *************   3910   Sp-Corner_Class_1_Pod_1_ZN_1_FLR_2 Sys-3 Flr-1 Sch-D HPlcmt-south ZN NECB System 3 PSZ Occ Sch Summer Design Day, !- SummerDesignDay Schedule:Day Name\n   *************   3911   Sp-Corner_Class_1_Pod_1_ZN_1_FLR_2 Sys-3 Flr-1 Sch-D HPlcmt-south ZN NECB System 3 PSZ Occ Sch Winter Design Day, !- WinterDesignDay Schedule:Day Name\n   *************   3912   Sp-Corner_Class_1_Pod_1_ZN_1_FLR_2 Sys-3 Flr-1 Sch-D HPlcmt-south ZN NECB System 3 PSZ Occ Sch Default, !- CustomDay1 Schedule:Day Name\n   *************   3913   Sp-Corner_Class_1_Pod_1_ZN_1_FLR_2 Sys-3 Flr-1 Sch-D HPlcmt-south ZN NECB System 3 PSZ Occ Sch Default; !- CustomDay2 Schedule:Day Name\n   ** Warning ** IP: IDF line~3913 Alpha Argument length exceeds maximum, will be truncated=  Sp-Corner_Class_1_Pod_1_ZN_1_FLR_2 Sys-3 Flr-1 Sch-D HPlcmt-south ZN NECB System 3 PSZ Occ Sch Defaul\n   **   ~~~   ** Will be processed as Alpha=SP-CORNER_CLASS_1_POD_1_ZN_1_FLR_2 SYS-3 FLR-1 SCH-D HPLCMT-SOUTH ZN NECB SYSTEM 3 PSZ OCC SCH DEFAULT\n   ************* IDF Context for following error/warning message:\n   ************* Note -- lines truncated at 300 characters, if necessary...\n   *************   3924 Schedule:Day:Interval,\n   ************* indicated Name=Sp-Corner_Class_1_Pod_1_ZN_1_FLR_2 Sys-3 Flr-1 Sch-D HPlcmt-south ZN NECB System 3 PSZ Occ Sch Default\n   ************* Only last 1 lines before error line shown.....\n   *************   3925   Sp-Corner_Class_1_Pod_1_ZN_1_FLR_2 Sys-3 Flr-1 Sch-D HPlcmt-south ZN NECB System 3 PSZ Occ Sch Default, !- Name\n   ** Warning ** IP: IDF line~3925 Alpha Argument length exceeds maximum, will be truncated=  Sp-Corner_Class_1_Pod_1_ZN_1_FLR_2 Sys-3 Flr-1 Sch-D HPlcmt-south ZN NECB System 3 PSZ Occ Sch Defaul\n   **   ~~~   ** Will be processed as Alpha=SP-CORNER_CLASS_1_POD_1_ZN_1_FLR_2 SYS-3 FLR-1 SCH-D HPLCMT-SOUTH ZN NECB SYSTEM 3 PSZ OCC SCH DEFAULT\n   ************* IDF Context for following error/warning message:\n   ************* Note -- lines truncated at 300 characters, if necessary...\n   *************   3931 Schedule:Day:Interval,\n   ************* indicated Name=Sp-Corner_Class_1_Pod_1_ZN_1_FLR_2 Sys-3 Flr-1 Sch-D HPlcmt-south ZN NECB System 3 PSZ Occ Sch Summer Design Day\n   ************* Only last 1 lines before error line shown.....\n   *************   3932   Sp-Corner_Class_1_Pod_1_ZN_1_FLR_2 Sys-3 Flr-1 Sch-D HPlcmt-south ZN NECB System 3 PSZ Occ Sch Summer Design Day, !- Name\n   ** Warning ** IP: IDF line~3932 Alpha Argument length exceeds maximum, will be truncated=  Sp-Corner_Class_1_Pod_1_ZN_1_FLR_2 Sys-3 Flr-1 Sch-D HPlcmt-south ZN NECB System 3 PSZ Occ Sch Summer Design Da\n   **   ~~~   ** Will be processed as Alpha=SP-CORNER_CLASS_1_POD_1_ZN_1_FLR_2 SYS-3 FLR-1 SCH-D HPLCMT-SOUTH ZN NECB SYSTEM 3 PSZ OCC SCH SUMMER DESIGN DAY\n   ************* IDF Context for following error/warning message:\n   ************* Note -- lines truncated at 300 characters, if necessary...\n   *************   3938 Schedule:Day:Interval,\n   ************* indicated Name=Sp-Corner_Class_1_Pod_1_ZN_1_FLR_2 Sys-3 Flr-1 Sch-D HPlcmt-south ZN NECB System 3 PSZ Occ Sch Winter Design Day\n   ************* Only last 1 lines before error line shown.....\n   *************   3939   Sp-Corner_Class_1_Pod_1_ZN_1_FLR_2 Sys-3 Flr-1 Sch-D HPlcmt-south ZN NECB System 3 PSZ Occ Sch Winter Design Day, !- Name\n   ** Warning ** IP: IDF line~3939 Alpha Argument length exceeds maximum, will be truncated=  Sp-Corner_Class_1_Pod_1_ZN_1_FLR_2 Sys-3 Flr-1 Sch-D HPlcmt-south ZN NECB System 3 PSZ Occ Sch Winter Design Da\n   **   ~~~   ** Will be processed as Alpha=SP-CORNER_CLASS_1_POD_1_ZN_1_FLR_2 SYS-3 FLR-1 SCH-D HPLCMT-SOUTH ZN NECB SYSTEM 3 PSZ OCC SCH WINTER DESIGN DAY\n   ************* IDF Context for following error/warning message:\n   ************* Note -- lines truncated at 300 characters, if necessary...\n   *************   4211 Schedule:Day:Interval,\n   ************* indicated Name=Sp-Corner_Class_1_Pod_2_ZN_1_FLR_1 Sys-3 Flr-2 Sch-D HPlcmt-south ZN NECB System 3 PSZ Occ Sch Sunday\n   ************* Only last 1 lines before error line shown.....\n   *************   4212   Sp-Corner_Class_1_Pod_2_ZN_1_FLR_1 Sys-3 Flr-2 Sch-D HPlcmt-south ZN NECB System 3 PSZ Occ Sch Sunday, !- Name\n   ** Warning ** IP: IDF line~4212 Alpha Argument length exceeds maximum, will be truncated=  Sp-Corner_Class_1_Pod_2_ZN_1_FLR_1 Sys-3 Flr-2 Sch-D HPlcmt-south ZN NECB System 3 PSZ Occ Sch Sunda\n   **   ~~~   ** Will be processed as Alpha=SP-CORNER_CLASS_1_POD_2_ZN_1_FLR_1 SYS-3 FLR-2 SCH-D HPLCMT-SOUTH ZN NECB SYSTEM 3 PSZ OCC SCH SUNDAY\n   ************* IDF Context for following error/warning message:\n   ************* Note -- lines truncated at 300 characters, if necessary...\n   *************   4218 Schedule:Day:Interval,\n   ************* indicated Name=Sp-Corner_Class_1_Pod_2_ZN_1_FLR_1 Sys-3 Flr-2 Sch-D HPlcmt-south ZN NECB System 3 PSZ Occ Sch Monday\n   ************* Only last 1 lines before error line shown.....\n   *************   4219   Sp-Corner_Class_1_Pod_2_ZN_1_FLR_1 Sys-3 Flr-2 Sch-D HPlcmt-south ZN NECB System 3 PSZ Occ Sch Monday, !- Name\n   ** Warning ** IP: IDF line~4219 Alpha Argument length exceeds maximum, will be truncated=  Sp-Corner_Class_1_Pod_2_ZN_1_FLR_1 Sys-3 Flr-2 Sch-D HPlcmt-south ZN NECB System 3 PSZ Occ Sch Monda\n   **   ~~~   ** Will be processed as Alpha=SP-CORNER_CLASS_1_POD_2_ZN_1_FLR_1 SYS-3 FLR-2 SCH-D HPLCMT-SOUTH ZN NECB SYSTEM 3 PSZ OCC SCH MONDAY\n   ************* IDF Context for following error/warning message:\n   ************* Note -- lines truncated at 300 characters, if necessary...\n   *************   4233 Schedule:Day:Interval,\n   ************* indicated Name=Sp-Corner_Class_1_Pod_2_ZN_1_FLR_1 Sys-3 Flr-2 Sch-D HPlcmt-south ZN NECB System 3 PSZ Occ Sch Tuesday\n   ************* Only last 1 lines before error line shown.....\n   *************   4234   Sp-Corner_Class_1_Pod_2_ZN_1_FLR_1 Sys-3 Flr-2 Sch-D HPlcmt-south ZN NECB System 3 PSZ Occ Sch Tuesday, !- Name\n   ** Warning ** IP: IDF line~4234 Alpha Argument length exceeds maximum, will be truncated=  Sp-Corner_Class_1_Pod_2_ZN_1_FLR_1 Sys-3 Flr-2 Sch-D HPlcmt-south ZN NECB System 3 PSZ Occ Sch Tuesda\n   **   ~~~   ** Will be processed as Alpha=SP-CORNER_CLASS_1_POD_2_ZN_1_FLR_1 SYS-3 FLR-2 SCH-D HPLCMT-SOUTH ZN NECB SYSTEM 3 PSZ OCC SCH TUESDAY\n   ************* IDF Context for following error/warning message:\n   ************* Note -- lines truncated at 300 characters, if necessary...\n   *************   4248 Schedule:Day:Interval,\n   ************* indicated Name=Sp-Corner_Class_1_Pod_2_ZN_1_FLR_1 Sys-3 Flr-2 Sch-D HPlcmt-south ZN NECB System 3 PSZ Occ Sch Wednesday\n   ************* Only last 1 lines before error line shown.....\n   *************   4249   Sp-Corner_Class_1_Pod_2_ZN_1_FLR_1 Sys-3 Flr-2 Sch-D HPlcmt-south ZN NECB System 3 PSZ Occ Sch Wednesday, !- Name\n   ** Warning ** IP: IDF line~4249 Alpha Argument length exceeds maximum, will be truncated=  Sp-Corner_Class_1_Pod_2_ZN_1_FLR_1 Sys-3 Flr-2 Sch-D HPlcmt-south ZN NECB System 3 PSZ Occ Sch Wednesda\n   **   ~~~   ** Will be processed as Alpha=SP-CORNER_CLASS_1_POD_2_ZN_1_FLR_1 SYS-3 FLR-2 SCH-D HPLCMT-SOUTH ZN NECB SYSTEM 3 PSZ OCC SCH WEDNESDAY\n   ************* IDF Context for following error/warning message:\n   ************* Note -- lines truncated at 300 characters, if necessary...\n   *************   4263 Schedule:Day:Interval,\n   ************* indicated Name=Sp-Corner_Class_1_Pod_2_ZN_1_FLR_1 Sys-3 Flr-2 Sch-D HPlcmt-south ZN NECB System 3 PSZ Occ Sch Thursday\n   ************* Only last 1 lines before error line shown.....\n   *************   4264   Sp-Corner_Class_1_Pod_2_ZN_1_FLR_1 Sys-3 Flr-2 Sch-D HPlcmt-south ZN NECB System 3 PSZ Occ Sch Thursday, !- Name\n   ** Warning ** IP: IDF line~4264 Alpha Argument length exceeds maximum, will be truncated=  Sp-Corner_Class_1_Pod_2_ZN_1_FLR_1 Sys-3 Flr-2 Sch-D HPlcmt-south ZN NECB System 3 PSZ Occ Sch Thursda\n   **   ~~~   ** Will be processed as Alpha=SP-CORNER_CLASS_1_POD_2_ZN_1_FLR_1 SYS-3 FLR-2 SCH-D HPLCMT-SOUTH ZN NECB SYSTEM 3 PSZ OCC SCH THURSDAY\n   ************* IDF Context for following error/warning message:\n   ************* Note -- lines truncated at 300 characters, if necessary...\n   *************   4278 Schedule:Day:Interval,\n   ************* indicated Name=Sp-Corner_Class_1_Pod_2_ZN_1_FLR_1 Sys-3 Flr-2 Sch-D HPlcmt-south ZN NECB System 3 PSZ Occ Sch Friday\n   ************* Only last 1 lines before error line shown.....\n   *************   4279   Sp-Corner_Class_1_Pod_2_ZN_1_FLR_1 Sys-3 Flr-2 Sch-D HPlcmt-south ZN NECB System 3 PSZ Occ Sch Friday, !- Name\n   ** Warning ** IP: IDF line~4279 Alpha Argument length exceeds maximum, will be truncated=  Sp-Corner_Class_1_Pod_2_ZN_1_FLR_1 Sys-3 Flr-2 Sch-D HPlcmt-south ZN NECB System 3 PSZ Occ Sch Frida\n   **   ~~~   ** Will be processed as Alpha=SP-CORNER_CLASS_1_POD_2_ZN_1_FLR_1 SYS-3 FLR-2 SCH-D HPLCMT-SOUTH ZN NECB SYSTEM 3 PSZ OCC SCH FRIDAY\n   ************* IDF Context for following error/warning message:\n   ************* Note -- lines truncated at 300 characters, if necessary...\n   *************   4293 Schedule:Day:Interval,\n   ************* indicated Name=Sp-Corner_Class_1_Pod_2_ZN_1_FLR_1 Sys-3 Flr-2 Sch-D HPlcmt-south ZN NECB System 3 PSZ Occ Sch Saturday\n   ************* Only last 1 lines before error line shown.....\n   *************   4294   Sp-Corner_Class_1_Pod_2_ZN_1_FLR_1 Sys-3 Flr-2 Sch-D HPlcmt-south ZN NECB System 3 PSZ Occ Sch Saturday, !- Name\n   ** Warning ** IP: IDF line~4294 Alpha Argument length exceeds maximum, will be truncated=  Sp-Corner_Class_1_Pod_2_ZN_1_FLR_1 Sys-3 Flr-2 Sch-D HPlcmt-south ZN NECB System 3 PSZ Occ Sch Saturda\n   **   ~~~   ** Will be processed as Alpha=SP-CORNER_CLASS_1_POD_2_ZN_1_FLR_1 SYS-3 FLR-2 SCH-D HPLCMT-SOUTH ZN NECB SYSTEM 3 PSZ OCC SCH SATURDAY\n   ************* IDF Context for
[...]
GKC9Iq/g0aojzgrSKT6OOfbyGOC9Iq/g01ovz0k9nVUurFt/WYpCgR4NNgh4MNgl6LNgk6CWXTYJecdkk6AWXTYJeb9kk6OWWTaLggUA+DfqJKj4N+mErPg36OSw+DfoRLT4N+rlEPg36kUU+DfppRj4N+kFHPo0a4rzg8Ug+jRrivOChSj6NGnbygrSqSKP0CyXV0qrFJ0wYJOi0ik2CHgw2CXos2CTotIpNgk6r2CTotIpNgk6r2CTo5ZZNoiCt4tOgl1s+DXq55dOg0yo+DTqt4tOg0yo+DTqt4tOg0yo+DTqt4tOoIc4L0io+jRrivCCt4tOoYScvSKuKNEoLwVdLqxaV4hkk6LSKTYIeDDYJeizYJOi0ik2CTqvYJOi0ik2CTqvYJOjllk2iIK3i06CXWz4Nernl06DTKj4NOq3i06DTKj4NOq3i06DTKj4NOq3i06ghzgvSKj6NGuK8IK3i06hhJy9Iq4o0SuvtVkurFgV5GSTotIpNgh4MNgl6LNgk6LSKTYJOq9gk6LSKTYJOq9gk6OWWTaIgreLToJdbPg16ueXToNMqPg06reLToNMqPg06reLToNMqPg06reLTqCHOC9IqPo0a4rwgreLTqGEnL0irijRKyxpWS6sWdQ8ZJOi0ik2CHgw2CXos2CTotIpNgk6r2CTotIpNgk6r2CTo5ZZNorDYGpdGUbUqLo2iQlZcGkU1rrg0ispfcWkU1Xzj0igqB8elUVQpjkujqIgcl0YNcV5Yeo5Lo4Y4LyxYx6VRw05ekFYtNb5VqfCaV3QWxyKQd8sKslnh2EZ8O25mFWBLS8Uuy0LHMnkbzgI3bnTbTWFZ3aboqL/Z3WrlZu9TjMdq167bcxI5DqP5yb0XL8oqP95/hdrTqYPzyJXRxUxVOa7cUHHMVzk+SieeRXKBoQo15/2+4brfMMMMM8wwwwwzzDDDDDPMMMMMM8wwwwwzzDDDDDPMMMMMM8wwwwwzzDDDDDPMMMMMM8wwwwwzzDDDDDPMMMMMM8wwwwwzzDD/pcxzM7yVUeS58qOjXqy1zPYL31dVr8bGq6/GXsrIk3H+eq3RXL5APPXDxPS9QJa+Ihs/955u+Zu1sZl9en4a+k7ihUEKZcSJnLYGchRG0qj25vMHOZaBu3pDi3ONvXZTdNSby231IrP6w/DlKFFgJa6Xbs3+WCanQaL6J5UYzYJhRtrYFn+UuFgSysfWV6XvcqvDG4lGMvFiM85GpZqQOp40MtP+O3WGk8Z/gHW9LfHVq+Mpe+63Pw1jTzl8l56ucjfLQ7l5hioK7/SQllhe4EoVDy2rqdl6eVyv23DkSV/Nt0bep4s4GUfhbCpd8fPP4m/5+XuzP3Hi/P13FWDbT63zZ61ph5jOeHymNExfBuNkIt4IW/xTGCe+b4ij1Sti3xvKRsvavmp/2y6Ntx/uJIxE4zq9lfYv4jqVyadqrqvO/T1dcfQHSB1qGuf+rq6/md/lXBwfHy86bz2Pmdd82K91b3V5DCLpfF+n8YNmG93rVX/ld3esprWaDPlMyQo5mH0njr1xIN2eKhERX2U9+W29rlwO9HQWTxrrjkU6pEeL8Vw/knz/qMpdmurKdVXiJAq/y2o6i2vXVQqnztBL5tWk8ovXvqtMYim1rpflQrK6rKwTHtqLjzqW4by68IiWsHS96YRbddaHZrarVrr+oSynUMfOjvj8+xfx7/PfL8Tl+cWX3z79Kj6c//pbT7w/vTit5uAsXbXlvaNSNJGEIg6jRASzm3QeDEVW0iQWTjxMkxcvGFfwuOx75efJzuw0xaD64hLJZBYFYupEsTzzQydpOGrJ306H8sm5QXauUmeWp2hPZPNbKHP8sNlKL4/5ZxbuWbA3tlw5cmZ+IqZRmK5hcqsptn46OOj1Tk+3Nlx4BjjAAQ5wgAMc4AAHOMABDnD+mjgint2k/wQWrlQnhevMFVEkXdCABjSgAQ1oQAMa0IAGNKABTTHNXfZo1p9oBv5MAgc4wAEOcIADHOAABzjAAQ5w1sF5/G6gpb4beDmjvhvYsbJf2E5OdncPD0EKUpCCFKQgBSlIQQpSkIIUpCAF6esgtTNSJ6FI2xlpp2PbB3sgBSlIQQpSkIIUpCAFKUhBClKQgvR1kHYU6VnkEaT2YUZqWfv7nQ5IQQpSkIIUpCAFKUhBClKQghSkIH0dpLuK9MtkRpEeZKSH6dF9C1KQghSkIAUpSEEKUpCCFKQgBSlIXwdpV5H+S7oU6X5G+u5dr7e/D1KQghSkIAUpSEEKUpCCFKQgBSlIXwfpXvZfJmaSIt3LSHu9vT2QghSkIAUpSEEKUpCCFKQgBSlIQfpaSPcV6ceQqixodzPSgwPb7nZBClKQghSkIAUpSEEKUpCCFKQgBWltpEsUN3LuGqXO7s3ES3x5OXGm0kzkfdLYeh/OorgcY/5jy3fejQxiLwx8GWceSlzs7IgT1xWOyDyJOy+ZiDi8kcLtlLSMb8emM53KwG0YStvYLmmwPEwnSaKGcW80xV5bs9E8bWRXbxQnc18u8FpOMJyEUdre8OVIgzb3MQqDpHUnvfEkUT4Goe9W97EYm8tp6+PMT/o9P52jfbv/OXTTP79+6lv9sw8XfVtczuNWR5z5UcsSl8NJ6514/9kf3iStIIzScfn6SXw67b1VlyXyRnTE58uv4nw4VNdubReN9JudeBh50+Qf5DVvdlzv9nkz2YZ2lvoSnntsDFUY9NKec7xARn1rf98QWX8eG64XT31nfuQFfmprDfxw+P0XgwZMvS7uQSTzadpedenOtXPrLM4WtlTHrROpKSuOhevdTH1pBvLu8nbcMH56BrIpdtvt7I/SGFR+XSdxUsdXfxi+M5C+cWS4cuSkQy2mUTjyfGk0F5b+vXFkme2mcev4M5n/faiWqrRNuvr0eqenxkOzkh+byU+Hyc8uk58uk589Jj/7TH4OmPwcMvmx2lyOuGa0xTWlLa45bXFNaotrVltc09rimtcW18S2uGa2zTWzbba1mmtm21wz29aa2SKe3dysfLu60o4WSVfDDdlHem7IHtJzQ/aPnhsy7vXckFGv54aMeT03ZMTruSHjXc8NvZFp+mGax/Q2pumHaSbTm5imH6a5TG9hmn6YZjO9gWn6YZrP9Pal6YdrXWaaz/Tepemn+ny+84JEf9saqFPV/ZDdo+mH7B5NP2T3aPohw13TDxnumn7IcNf0Q4a7ph8y3DX90PuXriOuGU3vYLqOuOY0vYfpOuKa1fQupuuIa17T+5iuI66ZTe9kuo7Y1mqumU1vZrqOqs/sxx8zSj82TG1z7ZV/6C2+RswgYW9eorN5id3NS3Q3L7G3eYn9zUscbF7icPMSKzv7pjRqiG+rhgC3aohwq4YQt2qIcauGILdqiHKrhjC3aohzu4Y4t+vYx2uIc7uGOLfXi/PSbzpWS6sWH31kkKBHg02CHgw2CXos2CToJZdNgl5x2SToBZdNgl5v2STo5ZZNoiCt4tOoIb4L0io+jRoivCCt4tOoIcYL0io+jRqivCCt4tOoIc4L0io+jTr28RrivCCt4tNYL85LP51VLa1afFuLQYIeDTYJejDYJOixYJOgl1w2CXrFZZOgF1w2CXq9ZZOgl1s2iYIHAvk06Ceq+DToh634NOjnsPg06Ee0+DTo5xL5NOhHFvk06KcZ+TToBx35NGqI84LHI/k0aojzgocq+TRq2MkL0qoijdIvlFRLqxafMGGQoNMqNgl6MNgk6LFgk6DTKjYJOq1ik6DTKjYJOq1ik6CXWzaJgrSKT4Nebvk06OWWT4NOq/g06LSKT4NOq/g06LSKT4NOq/g06LSKT6OGOC9Iq/g0aojzgrSKT6OGnbwgrSrSKC0EXy2tWlSKZ5Cg0yo2CXow2CTosWCToNMqNgk6rWKToNMqNgk6rWKToJdbNomCtIpPg15u+TTo5ZZPg06r+DTotIpPg06r+DTotIpPg06r+DTotIpPo4Y4L0ir+DRqiPOCtIpPo4advCCtKtIorbdbLa1aFORlkKDTKjYJejDYJOixYJOg0yo2CTqtYpOg0yo2CTqtYpOgl1s2iYK0ik+DXm75NOjllk+DTqv4NOi0ik+DTqv4NOi0ik+DTqv4NOi0ik+jhjgvSKv4NGqI84K0ik+jhp28IK0q0igta1gtrVrUPWSQoNMqNgl6MNgk6LFgk6DTKjYJOq1ik6DTKjYJOq1ik6CXWzaJwmJrXBpF1aq4NIoKWXFpFNW44tIoKn/FpVFU841Lo6gcHJdGUaU4Lo2iInJcGjXEeWHpOS6NGuK8sGAdl0YNO3lBWrXU+Falwmte0Vkci0DeLSvIZoVjG/HtuJlVgC0tFbssCx3L5G04C9y40W03hWV1m6Kj/mZ3q5WbvU8xHqtdu27PSeQ4jOYn9168KKv8eP8Vak+nDs4jV0YXM1XluHJDxTFf5fgonXgWyQWGKtSc9/uG637DDDPMMMMMM8wwwwwzzDDDDDPMMMMMM8wwwwwzzDDDDDPMMMMMM8wwwwwzzDDDDDPMMMMMM8wwwwwzzDDDDDPMMMMMM8www/yXMs/N8FZGkefKj456sdYy2y98X1W9Ghuvvhp7KSNPxvnrtUZz+QLx1A8T0/cCWfqKbPzce7rlb9bGZvbp+WnoO4kXBimUESdy2hrIURhJo9qbzx/kWAbu6g0tzjX22k3RUW8ut9WLzOoPw5ejRIGVuF66NftjmZwGieqfVGI0C4YZaWNb/FHiYkkoH1tflb7LrQ5vJBrJxIvNOBuVakLqeNLITPvv1BlOGv8B1vW2xFevjqfsud/+NIw95fBderrK3SwP5eYZqii800NaYnmBK1U8tKymZuvlcb1uw5EnfTXfGnmfLuJkHIWzqXTFzz+Lv+Xn783+xInz999VgG0/tc6ftaYdYjrj8ZnSMH0ZjJOJeCNs8U9hnPi+IY5Wr4h9bygbLWv7qv1tuzTefriTMBKN6/RW2r+I61Qmn6q5rjr393TF0R8gdahpnPu7uv5mfpdzcXx8vOi89TxmXvNhv9a91eUxiKTzfZ3GD5ptdK9X/ZXf3bGa1moy5DMlK+Rg9p049saBdHuqRER8lfXkt/W6cjnQ01k8aaw7FumQHi3Gc/1I8v2jKndpqivXVYmTKPwuq+ksrl1XKZw6Qy+ZV5PKL177rjKJpdS6XpYLyeqysk54aC8+6liG8+rCI1rC0vWmE27VWR+a2a5a6fqHspxCHTs74vPvX8S/z3+/EJfnF19++/Sr+HD+62898f704rSag7N01Zb3jkrRRBKKOIwSEcxu0nkwFFlJk1g48TBNXrxgXMHjsu+Vnyc7s9MUg+qLSySTWRSIqRPF8swPnaThqCV/Ox3KJ+cG2blKnVmeoj2RzW+hzPHDZiu9POafWbhnwd7YcuXImfmJmEZhuobJrabY+ungoNc7Pd3acOEZ4AAHOMABDnCAAxzgAAc4wPlr4oh4dpP+E1i4Up0UrjNXRJF0QQMa0IAGNKABDWhAAxrQgAY0xTR32aNZf6IZ+DMJHOAABzjAAQ5wgAMc4AAHOMBZB+fxu4GW+m7g5Yz6bmDHyn5hOznZ3T08BClIQQpSkIIUpCAFKUhBClKQghSkr4PUzkidhCJtZ6Sdjm0f7IEUpCAFKUhBClKQghSkIAUpSEEK0tdB2lGkZ5FHkNqHGall7e93OiAFKUhBClKQghSkIAUpSEEKUpCC9HWQ7irSL5MZRXqQkR6mR/ctSEEKUpCCFKQgBSlIQQpSkIIUpCB9HaRdRfov6VKk+xnpu3e93v4+SEEKUpCCFKQgBSlIQQpSkIIUpCB9HaR72X+ZmEmKdC8j7fX29kAKUpCCFKQgBSlIQQpSkIIUpCAF6Wsh3VekH0OqsqDdzUgPDmy72wUpSEEKUpCCFKQgBSlIQQpSkIIUpLWRLlHcyLlrlDq7NxMv8eXlxJlKM5H3SWPrfTiL4nKM+Y8t33k3Moi9MPBlnHkocbGzI05cVzgi8yTuvGQi4vBGCrdT0jK+HZvOdCoDt2EobWO7pMHyMJ0kiRrGvdEUe23NRvO0kV29UZzMfbnAaznBcBJGaXvDlyMN2tzHKAyS1p30xpNE+RiEvlvdx2JsLqetjzM/6ff8dI727f7n0O13+l8/9a3+2YeLviUu53GrI878qGWLy+Gk9U68/+wPb5JWEEbpuHz9JD6d9t6qyxJ5Izri8+VXcT4cqmu3totG+s1OPIy8afIP8po3O653+7yZbEM7S30Jzz02hioMemnPOV4go761f2CIrD+PDdeLp74zP/ICP7W1Bn44/P6LQQOmXhf3IJL5NG2vunTn2rl1FmcLW6rj1onUlBXHwvVupr40A3l3eTtuGD89A9kUu+129kdpDCq/rpM4qeOrPwzfGUjfODJcOXLSoRbTKBx5vjSaC0v/3jiyzHbTuHX8mcz/PlRLVdomXX16vdNT46FZyY/N5KfD5GeXyU+Xyc8ek599Jj8HTH4OmfxYbS5HXDPa4prSFtectrgmtcU1qy2uaW1xzWuLa2JbXDPb5prZNttazTWzba6ZbWvNbBHPbm5Wvl1daUeLpKvhhuwjPTdkD+m5IftHzw0Z93puyKjXc0PGvJ4bMuL13JDxrueG3sg0/TDNY3ob0/TDNJPpTUzTD9NcprcwTT9Ms5newDT9MM1nevvS9MO1LjPNZ3rv0vRTfT7feUGiv20N1Knqfsju0fRDdo+mH7J7NP2Q4a7phwx3TT9kuGv6IcNd0w8Z7pp+6P1L1xHXjKZ3MF1HXHOa3sN0HXHNanoX03XENa/pfUzXEdfMpncyXUdsazXXzKY3M11H1Wf2448ZpR8bpra59so/9BZfI2aQsDcv0dm8xO7mJbqbl9jbvMT+5iUONi9xuHmJlZ19Uxo1xLdVQ4BbNUS4VUOIWzXEuFVDkFs1RLlVQ5hbNcS5XUOc23Xs4zXEuV1DnNvrxXnpNx2rpVWLjz4ySNCjwSZBDwabBD0WbBL0kssmQa+4bBL0gssmQa+3bBL0cssmUZBW8WnUEN8FaRWfRg0RXpBW8WnUEOMFaRWfRg1RXpBW8WnUEOcFaRWfRh37eA1xXpBW8WmsF+eln86qllYtvq3FIEGPBpsEPRhsEvRYsEnQSy6bBL3isknQCy6bBL3esknQyy2bRMEDgXwa9BNVfBr0w1Z8GvRzWHwa9CNafBr0c4l8GvQji3wa9NOMfBr0g458GjXEecHjkXwaNcR5wUOVfBo17OQFaVWRRukXSqqlVYtPmDBI0GkVmwQ9GGwS9FiwSdBpFZsEnVaxSdBpFZsEnVaxSdDLLZtEQVrFp0Evt3wa9HLLp0GnVXwadFrFp0GnVXwadFrFp0GnVXwadFrFp1FDnBekVXwaNcR5QVrFp1HDTl6QVhVplBaCr5ZWLSrFM0jQaRWbBD0YbBL0WLBJ0GkVmwSdVrFJ0GkVmwSdVrFJ0Mstm0RBWsWnQS+3fBr0csunQadVfBp0WsWnQadVfBp0WsWnQadVfBp0WsWnUUOcF6RVfBo1xHlBWsWnUcNOXpBWFWmU1tutllYtCvIySNBpFZsEPRhsEvRYsEnQaRWbBJ1WsUnQaRWbBJ1WsUnQyy2bREFaxadBL7d8GvRyy6dBp1V8GnRaxadBp1V8GnRaxadBp1V8GnRaxadRQ5wXpFV8GjXEeUFaxadRw05ekFYVaZSWNayWVi3qHjJI0GkVmwQ9GGwS9FiwSdBpFZsEnVaxSdBpFZsEnVaxSdDLLZtEYbE1Lo2ialVcGkWFrLg0impccWkUlb/i0iiq+calUVQOjkujqFIcl0ZRETkujRrivLD0HJdGDXFeWLCOS6OGnbwgrVpqfKtS4TWv6CyORSDvlhVks8Kxjfh23MwqwJaWil2WhY5l8jacBW7c6LabwrK6TdFRf7O71crN3qcYj9WuXbfnJHIcRvOTey9elFV+vP8KtadTB+eRK6OLmapyXLmh4pivcnyUTjyL5AJDFWrO+33Ddb9hhhlmmGGGGWaYYYYZZphhhhlmmGGGGWaYYYYZZphhhhlmmGGGGWaYYYYZZphhhhlmmGGGGWaYYYYZZphhhhlmmGGGGWaYYf5LmedmeCujyHPlR0e9WGuZ7Re+r6pejY1XX429lJEn4/z1WqO5fIF46oeJ6XuBLH1FNn7uPd3yN2tjM/v0/DT0ncQLgxTKiBM5bQ3kKIykUe3N5w9yLAN39YYW5xp77aboqDeX2+pFZvWH4ctRosBKXC/dmv2xTE6DRPVPKjGaBcOMtLEt/ihxsSSUj62vSt/lVoc3Eo1k4sVmnI1KNSF1PGlkpv136gwnjf8A63pb4qtXx1P23G9/GsaecvguPV3lbpaHcvMMVRTe6SEtsbzAlSoeWlZTs/XyuF634ciTvppvjbxPF3EyjsLZVLri55/F3/Lz92Z/4sT5++8qwLafWufPWtMOMZ3x+ExpmL4MxslEvBG2+KcwTnzfEEerV8S+N5SNlrV91f62XRpvP9xJGInGdXor7V/EdSqTT9VcV537e7ri6A+QOtQ0zv1dXX8zv8u5OD4+XnTeeh4zr/mwX+ve6vIYRNL5vk7jB802uter/srv7lhNazUZ8pmSFXIw+04ce+NAuj1VIiK+ynry23pduRzo6SyeNNYdi3RIjxbjuX4k+f5Rlbs01ZXrqsRJFH6X1XQW166rFE6doZfMq0nlF699V5nEUmpdL8uFZHVZWSc8tBcfdSzDeXXhES1h6XrTCbfqrA/NbFetdP1DWU6hjp0d8fn3L+Lf579fiMvziy+/ffpVfDj/9beeeH96cVrNwVm6ast7R6VoIglFHEaJCGY36TwYiqykSSyceJgmL14wruBx2ffKz5Od2WmKQfXFJZLJLArE1IlieeaHTtJw1JK/nQ7lk3OD7FylzixP0Z7I5rdQ5vhhs5VeHvPPLNyzYG9suXLkzPxETKMwXcPkVlNs/XRw0Oudnm5tuPAMcIADHOAABzjAAQ5wgAMc4Pw1cUQ8u0n/CSxcqU4K15kroki6oAENaEADGtCABjSgAQ1oQAOaYpq77NGsP9EM/JkEDnCAAxzgAAc4wAEOcIADHOCsg/P43UBLfTfwckZ9N7BjZb+wnZzs7h4eghSkIAUpSEEKUpCCFKQgBSlIQQrS10FqZ6ROQpG2M9JOx7YP9kAKUpCCFKQgBSlIQQpSkIIUpCAF6esg7SjSs8gjSO3DjNSy9vc7HZCCFKQgBSlIQQpSkIIUpCAFKUhB+jpIdxXpl8mMIj3ISA/To/sWpCAFKUhBClKQghSkIAUpSEEKUpC+DtKuIv2XdCnS/Yz03bteb38fpCAFKUhBClKQghSkIAUpSEEKUpC+DtK97L9MzCRFupeR9np7eyAFKUhBClKQghSkIAUpSEEKUpCC9LWQ7ivSjyFVWdDuZqQHB7bd7YIUpCAFKUhBClKQghSkIAUpSEEK0tpIlyhu5Nw1Sp3dm4mX+PJy4kylmcj7pLH1PpxFcTnG/MeW77wbGcReGPgyzjyUuNjZESeuKxyReRJ3XjIRcXgjhdspaRnfjk1nOpWB2zCUtrFd0mB5mE6SRA3j3miKvbZmo3nayK7eKE7mvlzgtZxgOAmjtL3hy5EGbe5jFAZJ605640mifAxC363uYzE2l9PWx5mf9Ht+Okf7dv9z6PY7/a+f+lb/7MNF3xaX87jVEWd+1LLE5XDSeifef/aHN0krCKN0XL5+Ep9Oe2/VZYm8ER3x+fKrOB8O1bVb20Uj/WYnHkbeNPkHec2bHde7fd5MtqGdpb6E5x4bQxUGvbTnHC+QUd/aPzRE1p/HhuvFU9+ZH3mBn9paAz8cfv/FoAFTr4t7EMl8mrZXXbpz7dw6i7OFLdVx60Rqyopj4Xo3U1+agby7vB03jJ+egWyK3XY7+6M0BpVf10mc1PHVH4bvDKRvHBmuHDnpUItpFI48XxrNhaV/bxxZZrtp3Dr+TOZ/H6qlKm2Trj693ump8dCs5Mdm8tNh8rPL5KfL5GePyc8+k58DJj+HTH6sNpcjrhltcU1pi2tOW1yT2uKa1RbXtLa45rXFNbEtrpltc81sm22t5prZNtfMtrVmtohnNzcr366utKNF0tVwQ/aRnhuyh/TckP2j54aMez03ZNTruSFjXs8NGfF6bsh413NDb2SafpjmMb2Nafphmsn0Jqbph2ku01uYph+m2UxvYJp+mOYzvX1p+uFal5nmM713afqpPp/vvCDR37YG6lR1P2T3aPohu0fTD9k9mn7IcNf0Q4a7ph8y3DX9kOGu6YcMd00/9P6l64hrRtM7mK4jrjlN72G6jrhmNb2L6Trimtf0PqbriGtm0zuZriO2tZprZtObma6j6jP78ceM0o8NU9tce+UfeouvETNI2JuX6GxeYnfzEt3NS+xtXmJ/8xIHm5c43LzEys6+KY0a4tuqIcCtGiLcqiHErRpi3KohyK0aotyqIcytGuLcriHO7Tr28Rri3K4hzu314rz0m47V0qrFRx8ZJOjRYJOgB4NNgh4LNgl6yWWToFdcNgl6wWWToNdbNgl6uWWTKEir+DRqiO+CtIpPo4YIL0ir+DRqiPGCtIpPo4YoL0ir+DRqiPOCtIpPo459vIY4L0ir+DTWi/PST2dVS6sW39ZikKBHg02CHgw2CXos2CToJZdNgl5x2SToBZdNgl5v2SToZ6PYJAoeCOTToJ+o4tOgH7bi06Cfw+LToB/R4tOgn0vk06AfWeTToJ9m5NOgH3Tk06ghzgvSKj6NOvbxGjbygrSKT2O9rbz0CyXV0qrFJ0wYJOjRYJOgB4NNgh4LNgk6rWKToNMqNgk6rWKToNMqNgl6uWWTKEir+DTotIpPg06r+DTotIpPg06r+DTotIpPg06r+DTotIpPg06r+DRqiPOCtIpPo459vIaNvCCt4tNYbysvLQRfLa1aVIpnkKBHg02CHgw2CXos2CTotIpNgk6r2CTotIpNgk6r2CTo5ZZNoiCt4tOg0yo+DTqt4tOg0yo+DTqt4tOg0yo+DTqt4tOg0yo+DTqt4tOoIc4L0io+jTr28Ro28oK0ik9jva28tN5utbRqUZCXQYIeDTYJejDYJOixYJOg0yo2CTqtYpOg0yo2CTqtYpOgl1s2iYK0ik+DTqv4NOi0ik+DTqv4NOi0ik+DTqv4NOi0ik+DTqv4NOi0ik+jhjgvSKv4NOrYx2vYyAvSKj6N9bby0rKG1dKqRd1DBgl6NNgk6MFgk6DHgk2CTqvYJOi0ik2CTqvYJOi0ik2iqO4Uk0RhsTUujaJqVVwaRYWsuDSKalxxaRSVv+LSKKr5xqVRVA6OS6OoUhyXRlEROS6NGuK8IK3i06hjH69hIy9Iq/g0yrfyb1UqvOYVncWxCOTdsoJsVji2Ed+Om1kF2NJSscuy0LFM3oazwI0b3XZTWFa3KTrqb3a3WrnZ+xTjsdq16/acRI7DaH5y78WLssqP91+h9nTq4DxyZXQxU1WOKzdUHPNVjo/SiWeRXGCoQs15v2+47jfMMMMMM8wwwwwzzDDDDDPMMMMMM8wwwwwzzDDDDDPMMMMMM8wwwwwzzDDDDDPMMMMMM8wwwwwzzDDDDDPMMMMMM8wwwwwzzH8p89wMb2UUea786KgXay2z/cL3VdWrsfHqq7GXMvJknL9eazSXLxBP/TAxfS+Qpa/Ixs+9p1v+Zm1sZp+en4a+k3hhkEIZcSKnrYEchZE0qr35/EGOZeCu3tDiXGOv3RQd9eZyW73IrP4wfDlKFFiJ66Vbsz+WyWmQqP5JJUazYJiRNrbFHyUuloTysfVV6bvc6vBGopFMvNiMs1GpJqSOJ43MtP9OneGk8R9gXW9LfPXqeMqe++1Pw9hTDt+lp6vczfJQbp6hisI7PaQllhe4UsVDy2pqtl4e1+s2HHnSV/OtkffpIk7GUTibSlf8/LP4W37+3uxPnDh//10F2PZT6/xZa9ohpjMenykN05fBOJmIN8IW/xTGie8b4mj1itj3hrLRsrav2t+2S+PthzsJI9G4Tm+l/Yu4TmXyqZrrqnN/T1cc/QFSh5rGub+r62/mdzkXx8fHi85bz2PmNR/2a91bXR6DSDrf12n8oNlG93rVX/ndHatprSZDPlOyQg5m34ljbxxIt6dKRMRXWU9+W68rlwM9ncWTxrpjkQ7p0WI8148k3z+qcpemunJdlTiJwu+yms7i2nWVwqkz9JJ5Nan84rXvKpNYSq3rZbmQrC4r64SH9uKjjmU4ry48oiUsXW864Vad9aGZ7aqVrn8oyynUsbMjPv/+Rfz7/PcLcXl+8eW3T7+KD+e//tYT708vTqs5OEtXbXnvqBRNJKGIwygRwewmnQdDkZU0iYUTD9PkxQvGFTwu+175ebIzO00xqL64RDKZRYGYOlEsz/zQSRqOWvK306F8cm6QnavUmeUp2hPZ/BbKHD9sttLLY/6ZhXsW7I0tV46cmZ+IaRSma5jcaoqtnw4Oer3T060NF54BDnCAAxzgAAc4wAEOcIADnL8mjohnN+k/gYUr1UnhOnNFFEkXNKABDWhAAxrQgAY0oAENaEBTTHOXPZr1J5qBP5PAAQ5wgAMc4AAHOMABDnCAA5x1cB6/G2ip7wZezqjvBnas7Be2k5Pd3cNDkIIUpCAFKUhBClKQghSkIAUpSEH6OkjtjNRJKNJ2Rtrp2PbBHkhBClKQghSkIAUpSEEKUpCCFKQgfR2kHUV6FnkEqX2YkVrW/n6nA1KQghSkIAUpSEEKUpCCFKQgBSlIXwfpriL9MplRpAcZ6WF6dN+CFKQgBSlIQQpSkIIUpCAFKUhBCtLXQdpVpP+SLkW6n5G+e9fr7e+DFKQgBSlIQQpSkIIUpCAFKUhBCtLXQbqX/ZeJmaRI9zLSXm9vD6QgBSlIQQpSkIIUpCAFKUhBClKQvhbSfUX6MaQqC9rdjPTgwLa7XZCCFKQgBSlIQQpSkIIUpCAFKUhBWhvpEsWNnLtGqbN7M/ESX15OnKk0E3mfNLbeh7MoLseY/9jynXcjg9gLA1/GmYcSFzs74sR1hSMyT+LOSyYiDm+kcDslLePbselMpzJwG4bSNrZLGiwP00mSqGHcG02x19ZsNE8b2dUbxcnclwu8lhMMJ2GUtjd8OdKgzX2MwiBp3UlvPEmUj0Hou9V9LMbmcto6H428oYz7Xz/1rf7Zh4u+JS7ncasjzvyoZYvL4aR1It5/9oc3SSsOZ+lgfP0kPp323qrLEnkjOuLz5VdxPhyqa7e2i4b3zU48jLxp8g/ymjc7rnf7vJlsQztLfQnPPTaGau730u5yvEBGfeugbYisE48N14unvjM/8gI/tbUGfjj8/otBA6ZeF/cgkvk0ba/6cefauXUWZwtbquPWidQ8FcfC9W6mvjQDeXd5O24YPz0D2RS77Xb2R2ngKb+ukzip46s/DN8ZSN84Mlw5cmZ+IqZROPJ8aTQXlv69cWSZ7aZx6/gzmf99qNantE265PR6p6fGQ7OSH5vJT4fJzy6Tny6Tnz0mP/tMfg6Y/Bwy+bHaXI64ZrTFNaUtrjltcU1qi2tWW1zT2uKa1xbXxLa4ZrbNNbNttrWaa2bbXDPb1prZIp7d3Kx8sLrSjhZJV8MN2Ud6bsge0nND9o+eGzLu9dyQUa/nhox5PTdkxOu5IeNdzw29kWn6YZrH9Dam6YdpJtObmKYfprlMb2GafphmM72Bafphms/09qXph2tdZprP9N6l6af6fL7zgkR/2xqoU9X9kN2j6YfsHk0/ZPdo+iHDXdMPGe6afshw1/RDhrumHzLcNf3Q+5euI64ZTe9guo645jS9h+k64prV9C6m64hrXtP7mK4jrplN72S6jtjWaq6ZTW9muo6qz+zHXzBKvzBMbXPtlX/oLT5BzCBhb16is3mJ3c1LdDcvsbd5if3NSxxsXuJw8xIrO/umNGqIb6uGALdqiHCrhhC3aohxq4Ygt2qIcquGMLdqiHO7hji369jHa4hzu4Y4t9eL89IPOVZLqxZfemSQoEeDTYIeDDYJeizYJOgll02CXnHZJOgFl02CXm/ZJOjllk2iIK3i06ghvgvSKj6NGiK8IK3i06ghxgvSKj6NGqK8IK3i06ghzgvSKj6NOvbxGuK8IK3i01gvzku/l1UtrVp8UItBgh4NNgl6MNgk6LFgk6CXXDYJesVlk6AXXDYJer1lk6CfjWKTKHggkE+DfqKKT4N+2IpPg34Oi0+DfkSLT4N+LpFPg35kkU+DfpqRT4N+0JFPo4Y4L0ir+DTq2Mdr2MgL0io+jfW28tLPklRLqxbfLWGQoEeDTYIeDDYJeizYJOi0ik2CTqvYJOi0ik2CTqvYJOjllk2iIK3i06DTKj4NOq3i06DTKj4NOq3i06DTKj4NOq3i06DTKj4NOq3i06ghzgvSKj6NOvbxGjbygrSKT2O9rby0+nu1tGpRHp5Bgh4NNgl6MNgk6LFgk6DTKjYJOq1ik6DTKjYJOq1ik6CXWzaJgrSKT4NOq/g06LSKT4NOq/g06LSKT4NOq/g06LSKT4NOq/g06LSKT6OGOC9Iq/g06tjHa9jIC9IqPo31tvLSIrvV0qpFFV4GCXo02CTowWCToMeCTYJOq9gk6LSKTYJOq9gk6LSKTYJebtkkCtIqPg06reLToNMqPg06reLToNMqPg06reLToNMqPg06reLToNMqPo0a4rwgreLTqGMfr2EjL0ir+DTW28pLaxlWS6sWxQ4ZJOjRYJOgB4NNgh4LNgk6rWKToNMqNgk6rWKToNMqNomiulNMEoXF1rg0iqpVcWkUFbLi0iiqccWlUVT+ikujqOYbl0ZROTgujaJKcVwaRUXkuDRqiPOCtIpPo459vIaNvCCt4tMo38q/VanwmpdxFscikHfLCrJZ4dhGfDtuZhVgS0vFLmtBxzJ5G84CN250201hWd2m6Ki/2d1q5WbvU4zHEteu23MSOQ6j+cm9Fy9qKT/ef4WC06mD88iV0cVMlTau3FBxzFc5PkonnkVygaGqM+f9vuFi3zDDDDPMMMMMM8wwwwwzzDDDDDPMMMMMM8wwwwwzzDDDDDPMMMMMM8wwwwwzzDDDDDPMMMMMM8wwwwwzzDDDDDPMMMMMM8ww/6XMczO8lVHkufKjo16stcz2C99XVa/Gxquvxl7KyJNx/nqt0Vy+QDz1w8T0vUCWviIbP/eebvmbtbGZfXp+GvpO4oVBCmXEiZy2BnIURtKo9ubzBzmWgbt6Q4tzjb12U3TUm8tt9SKz+sPw5ShRYCWul27N/lgmp0Gi+ieVGM2CYUba2BZ/lLhYEsrH1lel73KrwxuJRjLxYjPORqWakDqeNDLT/jt1hpPGf4B1vS3x1avjKXvutz8NY085fJeernI3y0O5eYYqCu/0kJZYXuBKFQ8tq6nZenlcr9tw5ElfzbdG3qeLOBlH4WwqXfHzz+Jv+fl7sz9x4vz9dxVg20+t82etaYeYznh8pjRMXwbjZCLeCFv8Uxgnvm+Io9UrYt8bykbL2r5qf9sujbcf7iSMROM6vZX2L+I6lcmnaq6rzv09XXH0B0gdahrn/q6uv5nf5VwcHx8vOm89j5nXfNivdW91eQwi6Xxfp/GDZhvd61V/5Xd3rKa1mgz5TMkKOZh9J469cSDdnioREV9lPfltva5cDvR0Fk8a645FOqRHi/FcP5J8/6jKXZrqynVV4iQKv8tqOotr11UKp87QS+bVpPKL176rTGIpta6X5UKyuqysEx7ai486luG8uvCIlrB0vemEW3XWh2a2q1a6/qEsp1DHzo74/PsX8e/z3y/E5fnFl98+/So+nP/6W0+8P704rebgLF215b2jUjSRhCIOo0QEs5t0HgxFVtIkFk48TJMXLxhX8Ljse+Xnyc7sNMWg+uISyWQWBWLqRLE880MnaThqyd9Oh/LJuUF2rlJnlqdoT2TzWyhz/LDZSi+P+WcW7lmwN7ZcOXJmfiKmUZiuYXKrKbZ+Ojjo9U5PtzZceAY4wAEOcIADHOAABzjAAQ5w/po4Ip7dpP8EFq5UJ4XrzBVRJF3QgAY0oAENaEADGtCABjSgAU0xzV32aNafaAb+TAIHOMABDnCAAxzgAAc4wAEOcNbBefxuoKW+G3g5o74b2LGyX9hOTnZ3Dw9BClKQghSkIAUpSEEKUpCCFKQgBenrILUzUiehSNsZaadj2wd7IAUpSEEKUpCCFKQgBSlIQQpSkIL0dZB2FOlZ5BGk9mFGaln7+50OSEEKUpCCFKQgBSlIQQpSkIIUpCB9HaS7ivTLZEaRHmSkh+nRfQtSkIIUpCAFKUhBClKQghSkIAUpSF8HaVeR/ku6FOl+RvruXa+3vw9SkIIUpCAFKUhBClKQghSkIAUpSF8H6V72XyZmkiLdy0h7vb09kIIUpCAFKUhBClKQghSkIAUpSEH6Wkj3FenHkKosaHcz0oMD2+52QQpSkIIUpCAFKUhBClKQghSkIAVpbaRLFDdy7hqlzu7NxEt8eTlxptJM5H3S2HofzqK4HGP+Y8t33o0MYi8MfBlnHkpc7OyIE9cVjsg8iTsvmYg4vJHC7ZS0jG/HpjOdysBtGErb2C5psDxMJ0mihnFvNMVeW7PRPG1kV28UJ3NfLvBaTjCchFHa3vDlSIM29zEKg6R1J73xJFE+BqHvVvexGJvLaet8NPKGMu5//dS3+mcfLvq2uJzHrY4486OWJS6Hk9aJeP/ZH94krTicpYPx9ZP4dNp7qy5L5I3oiM+XX8X5cKiu3douGt43O/Ew8qbJP8hr3uy43u3zZrIN7Sz1JTz32Biqud9Lu8vxAhn1rQPLEFknHhuuF099Z37kBX5qaw38cPj9F4MGTL0u7kEk82naXvXjzrVz6yzOFrZUx60TqXkqjoXr3Ux9aQby7vJ23DB+egayKXbb7eyP0sBTfl0ncVLHV38YvjOQvnFkuHLkzPxETKNw5PnSaC4s/XvjyDLbTePW8WfSONo7NA+fHAeHTWOoVqvUQ7oA9Xqnp8ZDs5JXeyNeOxvxursRr92NeN3biNf9jXg92IjXw414tdqbcbuZ6LI2E17WZuLL2kyAWZuJMGszIWZtJsaszQSZtZkoszcTZfaG9rDNRJm9mSizXxBlIp7d3Kx8AHyNDCGSrobTin2r57Riz+o5rdivek4rrl16TiuuXHpOK65bek4rrlp6TiuuWXpOqyYGml43ElNV0wJNrxuJqqpJgabXjcRV1ZRA0+tGIqtqQqDpdSOxVTUd0PS6mf1qI7FVNRfQ9LpubN15QfLSNGCgLqjutWK3anqt2K2aXit2q6bXikuWpteKS5am14pLlqbXikuWpteKS5am16r5gK7bzURX1YxA1+1m4qtqTqDrdjMRVjUr0HW7mRirmhfout1MlFXNDHTdbmgP20yUVU0OdN1qRdm3Kj845L8qimMRyLvlDxrZ7xiN+HbczH6QKP3lYvnTZCyTt+EscONGt90UltVtio76m92t9uvHfYrx+Iur6/acRI7DaH5y78WLn/Yeu6LC75+pg/PIldHFTP3SVrmh4pivcnyUTjyL5AJD/ViYD8FLf9HNfkhalbqUkSfjHDdVygdk6oeJqX7dKpWMn7vvctLYzObdNPSdxAuDFMqIEzltDeQojKRRbSZ9kGMZuKs3tDjX2EtnQUfNBPVjmKX+yH8wLf0teenW7I9lchokqn9SidEsGGakjW3xR4VfTBWhfGx9VRob6vBGopFMvDid16pdNSF1PGlkpv136gwnjf8A63pb4ue/DeZ++9Mw9pTDd+npKnezPJSbZ6ii8E4PaYnlBa5Ugduympqtl8f1ug1HnvTVfGvkfbqIk3EUzqbSFT//LP6Wn783+xMnztcTFWDbT63zZ61ph5jOeHymNExfBuNkIt4IW/xTGCe+b4ij1Sti3xvKRsvavmp/2y6Ntx/uJIxE4zq9lfYv4jqVyadqrqvO/f1YWPoDpA41jXN/V9ffzO8yXd6Ojxedt57HzGs+7Ne6t7o8BpF0vq/T+EGzje71qr/yuztW01pNhnymZBuj2V88DSTd7Hmg+CrryW/rdeVyoKezeNJYdyzSIT1ajOf6keT7R1Xu0lRXrqsSJ1H4XVbTWVy7rlI4dYZeMq8mlV+89l1lEkupdb0sF5LVZWWd8NBefNSxDOfVhUe0hKXrTSfcqrM+NLNdtdL1D2U5hTp2dsTn37+If5//fiEuzy++/PbpV/Hh/NffeuL96cVpNQdn6aot7x2VookkFHGYJtLB7CadB0ORpYixcOJhmrx4wbiCx2XfKz9PdmanKQbVF5dIJrMoEFMniuWZHzpJw1FL/nY6lE/ODbJzlTqzPEV7IpvfQpnjh//CU5t/+gE2fzRT/aD6X3mIFDjAAQ5wgAMc4AAHOMABDnBePc6PD7gooki6oAENaEADGtCABjSgAQ1oQAOaYpofHglUNOoRP+AABzjAAQ5wgAMc4AAHOMABzn+xVuIXeTOVkZPMIikaZ9uolvg/VS3xX46ace9l9j8nNwNPBolQQ6YqH0p3lvZ/S+y3z15JEUT7NRRBtGsrgpi9erpuESYmPx0mP7tMfrpMfvaY/Owz+Tlg8nPI5GelusCLHHHNaItrSltcc9rimtQW16y2uKa1xTWvLa6JbXHNbJtrZttsazXXzLa5ZratNbOrF+1bcbV+mb4XuCF7aP1SfC9wQ8b9+uX2XuCGjPn1S+q9wA0Z7y8om/cSP0zzmN7GXlAM7yV+mKYyvYe9oMTdS/wwzWZ6A3tB4bqXrINM85nevV5Qju4lfpjmM711rV9kbsXNC8rKvcQP2T0vKB33Ej9kuL+gPNxL/JDh/oIScC/xQ4b7S8q8vcgR14ymd7CXFG97kSOuSU1vYi8pyfYiR1zzmt7HXlJo7UUrI9fMpreyl5RPe5EjrplN72YoivYqiqLBDDPMMMMMM8wwwwwzzDDDDDPMMMP8v2Sem+GtjCLPlR8d9R+qLLONovhP7gRF8R8PFMXXOlAUH0XxNQ4Uxf/zgaL4fz5QFF/zQFF8FMV/9kBRfOAABzjAAQ5wgAMc4AAHOMABzmsoKQka0IAGNKABDWhAAxrQgAY0r4fm/5tSlsABDnCAAxzgAAc4wAEOcICzvt5/oSj+O+9GBrEXBr6MY5TE/98qiR9G38XpaOQNPRkM54+F8OstgZ9f/SfL0/+//Pvifx+95395/J9B6M7V/06SG/8f/+//AJ/dyW0="
               },
               {
                  "name" : "annual_peak_electric_demand",
                  "units" : "kW",
                  "value" : 720.54881999999998
               },
               {
                  "name" : "first_year_capital_cost",
                  "units" : "$",
                  "value" : 0
               },
               {
                  "name" : "annual_utility_cost",
                  "units" : "$",
                  "value" : 0
               },
               {
                  "name" : "total_lifecycle_cost",
                  "units" : "$",
                  "value" : 0
               }
            ],
            "step_warnings" : []
         }
      }
   ],
   "updated_at" : "20170710T192153Z",
   "weather_file" : "USA_CO_Denver.Intl.AP.725650_TMY3.epw"
}
