{
   "completed_at" : "20170710T194504Z",
   "completed_status" : "Success",
   "created_at" : "2017-07-10 19:34:51 +0000",
   "current_step" : 5,
   "description" : "",
   "eplusout_err" : "Program Version,EnergyPlus, Version 8.7.0-78a111df4a, YMD=2017.07.10 19:39,IDD_Version 8.7.0\n   ************* IDF Context for following error/warning message:\n   ************* Note -- lines truncated at 300 characters, if necessary...\n   *************      5 Building,\n   ************* indicated Name=NECB 2011-HighriseApartment-NECB HDD Method-CAN_NF_Stephenville.718150_CWEC.epw created: 2017-07-10 19:35:01 +0000\n   ************* Only last 1 lines before error line shown.....\n   *************      6   NECB 2011-HighriseApartment-NECB HDD Method-CAN_NF_Stephenville.718150_CWEC.epw created: 2017-07-10 19:35:01 +0000, !- Name\n   ** Warning ** IP: IDF line~6 Alpha Argument length exceeds maximum, will be truncated=  NECB 2011-HighriseApartment-NECB HDD Method-CAN_NF_Stephenville.718150_CWEC.epw created: 2017-07-10 19:35:01 +000\n   **   ~~~   ** Will be processed as Alpha=NECB 2011-HIGHRISEAPARTMENT-NECB HDD METHOD-CAN_NF_STEPHENVILLE.718150_CWEC.EPW CREATED: 2017-07-10 19:35:01 +0000\n   ************* Beginning Zone Sizing Calculations\n   ** Warning ** ProcessScheduleInput: Schedule:Day:Interval=\"ECONOMIZER MAX OA FRACTION 100 PCT DEFAULT\", Blank Schedule Type Limits Name input -- will not be validated.\n   ** Warning ** ProcessScheduleInput: Schedule:Day:Interval=\"SCHEDULE DAY 1\", Blank Schedule Type Limits Name input -- will not be validated.\n   ** Warning ** ProcessScheduleInput: Schedule:Day:Interval=\"SCHEDULE DAY 10\", Blank Schedule Type Limits Name input -- will not be validated.\n   ** Warning ** ProcessScheduleInput: Schedule:Day:Interval=\"SCHEDULE DAY 100\", Blank Schedule Type Limits Name input -- will not be validated.\n   ** Warning ** ProcessScheduleInput: Schedule:Day:Interval=\"SCHEDULE DAY 101\", Blank Schedule Type Limits Name input -- will not be validated.\n   ** Warning ** ProcessScheduleInput: Schedule:Day:Interval=\"SCHEDULE DAY 102\", Blank Schedule Type Limits Name input -- will not be validated.\n   ** Warning ** ProcessScheduleInput: Schedule:Day:Interval=\"SCHEDULE DAY 103\", Blank Schedule Type Limits Name input -- will not be validated.\n   ** Warning ** ProcessScheduleInput: Schedule:Day:Interval=\"SCHEDULE DAY 104\", Blank Schedule Type Limits Name input -- will not be validated.\n   ** Warning ** ProcessScheduleInput: Schedule:Day:Interval=\"SCHEDULE DAY 105\", Blank Schedule Type Limits Name input -- will not be validated.\n   ** Warning ** ProcessScheduleInput: Schedule:Day:Interval=\"SCHEDULE DAY 106\", Blank Schedule Type Limits Name input -- will not be validated.\n   ** Warning ** ProcessScheduleInput: Schedule:Day:Interval=\"SCHEDULE DAY 107\", Blank Schedule Type Limits Name input -- will not be validated.\n   ** Warning ** ProcessScheduleInput: Schedule:Day:Interval=\"SCHEDULE DAY 108\", Blank Schedule Type Limits Name input -- will not be validated.\n   ** Warning ** ProcessScheduleInput: Schedule:Day:Interval=\"SCHEDULE DAY 109\", Blank Schedule Type Limits Name input -- will not be validated.\n   ** Warning ** ProcessScheduleInput: Schedule:Day:Interval=\"SCHEDULE DAY 11\", Blank Schedule Type Limits Name input -- will not be validated.\n   ** Warning ** ProcessScheduleInput: Schedule:Day:Interval=\"SCHEDULE DAY 110\", Blank Schedule Type Limits Name input -- will not be validated.\n   ** Warning ** ProcessScheduleInput: Schedule:Day:Interval=\"SCHEDULE DAY 111\", Blank Schedule Type Limits Name input -- will not be validated.\n   ** Warning ** ProcessScheduleInput: Schedule:Day:Interval=\"SCHEDULE DAY 112\", Blank Schedule Type Limits Name input -- will not be validated.\n   ** Warning ** ProcessScheduleInput: Schedule:Day:Interval=\"SCHEDULE DAY 113\", Blank Schedule Type Limits Name input -- will not be validated.\n   ** Warning ** ProcessScheduleInput: Schedule:Day:Interval=\"SCHEDULE DAY 114\", Blank Schedule Type Limits Name input -- will not be validated.\n   ** Warning ** ProcessScheduleInput: Schedule:Day:Interval=\"SCHEDULE DAY 115\", Blank Schedule Type Limits Name input -- will not be validated.\n   ** Warning ** ProcessScheduleInput: Schedule:Day:Interval=\"SCHEDULE DAY 116\", Blank Schedule Type Limits Name input -- will not be validated.\n   ** Warning ** ProcessScheduleInput: Schedule:Day:Interval=\"SCHEDULE DAY 117\", Blank Schedule Type Limits Name input -- will not be validated.\n   ** Warning ** ProcessScheduleInput: Schedule:Day:Interval=\"SCHEDULE DAY 118\", Blank Schedule Type Limits Name input -- will not be validated.\n   ** Warning ** ProcessScheduleInput: Schedule:Day:Interval=\"SCHEDULE DAY 119\", Blank Schedule Type Limits Name input -- will not be validated.\n   ** Warning ** ProcessScheduleInput: Schedule:Day:Interval=\"SCHEDULE DAY 12\", Blank Schedule Type Limits Name input -- will not be validated.\n   ** Warning ** ProcessScheduleInput: Schedule:Day:Interval=\"SCHEDULE DAY 120\", Blank Schedule Type Limits Name input -- will not be validated.\n   ** Warning ** ProcessScheduleInput: Schedule:Day:Interval=\"SCHEDULE DAY 121\", Blank Schedule Type Limits Name input -- will not be validated.\n   ** Warning ** ProcessScheduleInput: Schedule:Day:Interval=\"SCHEDULE DAY 122\", Blank Schedule Type Limits Name input -- will not be validated.\n   ** Warning ** ProcessScheduleInput: Schedule:Day:Interval=\"SCHEDULE DAY 123\", Blank Schedule Type Limits Name input -- will not be validated.\n   ** Warning ** ProcessScheduleInput: Schedule:Day:Interval=\"SCHEDULE DAY 124\", Blank Schedule Type Limits Name input -- will not be validated.\n   ** Warning ** ProcessScheduleInput: Schedule:Day:Interval=\"SCHEDULE DAY 125\", Blank Schedule Type Limits Name input -- will not be validated.\n   ** Warning ** ProcessScheduleInput: Schedule:Day:Interval=\"SCHEDULE DAY 126\", Blank Schedule Type Limits Name input -- will not be validated.\n   ** Warning ** ProcessScheduleInput: Schedule:Day:Interval=\"SCHEDULE DAY 127\", Blank Schedule Type Limits Name input -- will not be validated.\n   ** Warning ** ProcessScheduleInput: Schedule:Day:Interval=\"SCHEDULE DAY 128\", Blank Schedule Type Limits Name input -- will not be validated.\n   ** Warning ** ProcessScheduleInput: Schedule:Day:Interval=\"SCHEDULE DAY 129\", Blank Schedule Type Limits Name input -- will not be validated.\n   ** Warning ** ProcessScheduleInput: Schedule:Day:Interval=\"SCHEDULE DAY 13\", Blank Schedule Type Limits Name input -- will not be validated.\n   ** Warning ** ProcessScheduleInput: Schedule:Day:Interval=\"SCHEDULE DAY 130\", Blank Schedule Type Limits Name input -- will not be validated.\n   ** Warning ** ProcessScheduleInput: Schedule:Day:Interval=\"SCHEDULE DAY 131\", Blank Schedule Type Limits Name input -- will not be validated.\n   ** Warning ** ProcessScheduleInput: Schedule:Day:Interval=\"SCHEDULE DAY 132\", Blank Schedule Type Limits Name input -- will not be validated.\n   ** Warning ** ProcessScheduleInput: Schedule:Day:Interval=\"SCHEDULE DAY 133\", Blank Schedule Type Limits Name input -- will not be validated.\n   ** Warning ** ProcessScheduleInput: Schedule:Day:Interval=\"SCHEDULE DAY 134\", Blank Schedule Type Limits Name input -- will not be validated.\n   ** Warning ** ProcessScheduleInput: Schedule:Day:Interval=\"SCHEDULE DAY 135\", Blank Schedule Type Limits Name input -- will not be validated.\n   ** Warning ** ProcessScheduleInput: Schedule:Day:Interval=\"SCHEDULE DAY 136\", Blank Schedule Type Limits Name input -- will not be validated.\n   ** Warning ** ProcessScheduleInput: Schedule:Day:Interval=\"SCHEDULE DAY 137\", Blank Schedule Type Limits Name input -- will not be validated.\n   ** Warning ** ProcessScheduleInput: Schedule:Day:Interval=\"SCHEDULE DAY 138\", Blank Schedule Type Limits Name input -- will not be validated.\n   ** Warning ** ProcessScheduleInput: Schedule:Day:Interval=\"SCHEDULE DAY 139\", Blank Schedule Type Limits Name input -- will not be validated.\n   ** Warning ** ProcessScheduleInput: Schedule:Day:Interval=\"SCHEDULE DAY 14\", Blank Schedule Type Limits Name input -- will not be validated.\n   ** Warning ** ProcessScheduleInput: Schedule:Day:Interval=\"SCHEDULE DAY 140\", Blank Schedule Type Limits Name input -- will not be validated.\n   ** Warning ** ProcessScheduleInput: Schedule:Day:Interval=\"SCHEDULE DAY 141\", Blank Schedule Type Limits Name input -- will not be validated.\n   ** Warning ** ProcessScheduleInput: Schedule:Day:Interval=\"SCHEDULE DAY 142\", Blank Schedule Type Limits Name input -- will not be validated.\n   ** Warning ** ProcessScheduleInput: Schedule:Day:Interval=\"SCHEDULE DAY 143\", Blank Schedule Type Limits Name input -- will not be validated.\n   ** Warning ** ProcessScheduleInput: Schedule:Day:Interval=\"SCHEDULE DAY 144\", Blank Schedule Type Limits Name input -- will not be validated.\n   ** Warning ** ProcessScheduleInput: Schedule:Day:Interval=\"SCHEDULE DAY 145\", Blank Schedule Type Limits Name input -- will not be validated.\n   ** Warning ** ProcessScheduleInput: Schedule:Day:Interval=\"SCHEDULE DAY 146\", Blank Schedule Type Limits Name input -- will not be validated.\n   ** Warning ** ProcessScheduleInput: Schedule:Day:Interval=\"SCHEDULE DAY 147\", Blank Schedule Type Limits Name input -- will not be validated.\n   ** Warning ** ProcessScheduleInput: Schedule:Day:Interval=\"SCHEDULE DAY 148\", Blank Schedule Type Limits Name input -- will not be validated.\n   ** Warning ** ProcessScheduleInput: Schedule:Day:Interval=\"SCHEDULE DAY 149\", Blank Schedule Type Limits Name input -- will not be validated.\n   ** Warning ** ProcessScheduleInput: Schedule:Day:Interval=\"SCHEDULE DAY 15\", Blank Schedule Type Limits Name input -- will not be validated.\n   ** Warning ** ProcessScheduleInput: Schedule:Day:Interval=\"SCHEDULE DAY 150\", Blank Schedule Type Limits Name input -- will not be validated.\n   ** Warning ** ProcessScheduleInput: Schedule:Day:Interval=\"SCHEDULE DAY 151\", Blank Schedule Type Limits Name input -- will not be validated.\n   ** Warning ** ProcessScheduleInput: Schedule:Day:Interval=\"SCHEDULE DAY 152\", Blank Schedule Type Limits Name input -- will not be validated.\n   ** Warning ** ProcessScheduleInput: Schedule:Day:Interval=\"SCHEDULE DAY 153\", Blank Schedule Type Limits Name input -- will not be validated.\n   ** Warning ** ProcessScheduleInput: Schedule:Day:Interval=\"SCHEDULE DAY 154\", Blank Schedule Type Limits Name input -- will not be validated.\n   ** Warning ** ProcessScheduleInput: Schedule:Day:Interval=\"SCHEDULE DAY 155\", Blank Schedule Type Limits Name input -- will not be validated.\n   ** Warning ** ProcessScheduleInput: Schedule:Day:Interval=\"SCHEDULE DAY 156\", Blank Schedule Type Limits Name input -- will not be validated.\n   ** Warning ** ProcessScheduleInput: Schedule:Day:Interval=\"SCHEDULE DAY 157\", Blank Schedule Type Limits Name input -- will not be validated.\n   ** Warning ** ProcessScheduleInput: Schedule:Day:Interval=\"SCHEDULE DAY 158\", Blank Schedule Type Limits Name input -- will not be validated.\n   ** Warning ** ProcessScheduleInput: Schedule:Day:Interval=\"SCHEDULE DAY 159\", Blank Schedule Type Limits Name input -- will not be validated.\n   ** Warning ** ProcessScheduleInput: Schedule:Day:Interval=\"SCHEDULE DAY 16\", Blank Schedule Type Limits Name input -- will not be validated.\n   ** Warning ** ProcessScheduleInput: Schedule:Day:Interval=\"SCHEDULE DAY 160\", Blank Schedule Type Limits Name input -- will not be validated.\n   ** Warning ** ProcessScheduleInput: Schedule:Day:Interval=\"SCHEDULE DAY 161\", Blank Schedule Type Limits Name input -- will not be validated.\n   ** Warning ** ProcessScheduleInput: Schedule:Day:Interval=\"SCHEDULE DAY 162\", Blank Schedule Type Limits Name input -- will not be validated.\n   ** Warning ** ProcessScheduleInput: Schedule:Day:Interval=\"SCHEDULE DAY 163\", Blank Schedule Type Limits Name input -- will not be validated.\n   ** Warning ** ProcessScheduleInput: Schedule:Day:Interval=\"SCHEDULE DAY 164\", Blank Schedule Type Limits Name input -- will not be validated.\n   ** Warning ** ProcessScheduleInput: Schedule:Day:Interval=\"SCHEDULE DAY 165\", Blank Schedule Type Limits Name input -- will not be validated.\n   ** Warning ** ProcessScheduleInput: Schedule:Day:Interval=\"SCHEDULE DAY 166\", Blank Schedule Type Limits Name input -- will not be validated.\n   ** Warning ** ProcessScheduleInput: Schedule:Day:Interval=\"SCHEDULE DAY 167\", Blank Schedule Type Limits Name input -- will not be validated.\n   ** Warning ** ProcessScheduleInput: Schedule:Day:Interval=\"SCHEDULE DAY 168\", Blank Schedule Type Limits Name input -- will not be validated.\n   ** Warning ** ProcessScheduleInput: Schedule:Day:Interval=\"SCHEDULE DAY 169\", Blank Schedule Type Limits Name input -- will not be validated.\n   ** Warning ** ProcessScheduleInput: Schedule:Day:Interval=\"SCHEDULE DAY 17\", Blank Schedule Type Limits Name input -- will not be validated.\n   ** Warning ** ProcessScheduleInput: Schedule:Day:Interval=\"SCHEDULE DAY 170\", Blank Schedule Type Limits Name input -- will not be validated.\n   ** Warning ** ProcessScheduleInput: Schedule:Day:Interval=\"SCHEDULE DAY 171\", Blank Schedule Type Limits Name input -- will not be validated.\n   ** Warning ** ProcessScheduleInput: Schedule:Day:Interval=\"SCHEDULE DAY 172\", Blank Schedule Type Limits Name input -- will not be validated.\n   ** Warning ** ProcessScheduleInput: Schedule:Day:Interval=\"SCHEDULE DAY 173\", Blank Schedule Type Limits Name input -- will not be validated.\n   ** Warning ** ProcessScheduleInput: Schedule:Day:Interval=\"SCHEDULE DAY 174\", Blank Schedule Type Limits Name input -- will not be validated.\n   ** Warning ** ProcessScheduleInput: Schedule:Day:Interval=\"SCHEDULE DAY 175\", Blank Schedule Type Limits Name input -- will not be validated.\n   ** Warning ** ProcessScheduleInput: Schedule:Day:Interval=\"SCHEDULE DAY 176\", Blank Schedule Type Limits Name input -- will not be validated.\n   ** Warning ** ProcessScheduleInput: Schedule:Day:Interval=\"SCHEDULE DAY 177\", Blank Schedule Type Limits Name input -- will not be validated.\n   ** Warning ** ProcessScheduleInput: Schedule:Day:Interval=\"SCHEDULE DAY 178\", Blank Schedule Type Limits Name input -- will not be validated.\n   ** Warning ** ProcessScheduleInput: Schedule:Day:Interval=\"SCHEDULE DAY 179\", Blank Schedule Type Limits Name input -- will not be validated.\n   ** Warning ** ProcessScheduleInput: Schedule:Day:Interval=\"SCHEDULE DAY 18\", Blank Schedule Type Limits Name input -- will not be validated.\n   ** Warning ** ProcessScheduleInput: Schedule:Day:Interval=\"SCHEDULE DAY 180\", Blank Schedule Type Limits Name input -- will not be validated.\n   ** Warning ** ProcessScheduleInput: Schedule:Day:Interval=\"SCHEDULE DAY 181\", Blank Schedule Type Limits Name input -- will not be validated.\n   ** Warning ** ProcessScheduleInput: Schedule:Day:Interval=\"SCHEDULE DAY 182\", Blank Schedule Type Limits Name input -- will not be validated.\n   ** Warning ** ProcessScheduleInput: Schedule:Day:Interval=\"SCHEDULE DAY 183\", Blank Schedule Type Limits Name input -- will not be validated.\n   ** Warning ** ProcessScheduleInput: Schedule:Day:Interval=\"SCHEDULE DAY 184\", Blank Schedule Type Limits Name input -- will not be validated.\n   ** Warning ** ProcessScheduleInput: Schedule:Day:Interval=\"SCHEDULE DAY 185\", Blank Schedule Type Limits Name input -- will not be validated.\n   ** Warning ** ProcessScheduleInput: Schedule:Day:Interval=\"SCHEDULE DAY 186\", Blank Schedule Type Limits Name input -- will not be validated.\n   ** Warning ** ProcessScheduleInput: Schedule:Day:Interval=\"SCHEDULE DAY 187\", Blank Schedule Type Limits Name input -- will not be validated.\n   ** Warning ** ProcessScheduleInput: Schedule:Day:Interval=\"SCHEDULE DAY 188\", Blank Schedule Type Limits Name input -- will not be validated.\n   ** Warning ** ProcessScheduleInput: Schedule:Day:Interval=\"SCHEDULE DAY 189\", Blank Schedule Type Limits Name input -- will not be validated.\n   ** Warning ** ProcessScheduleInput: Schedule:Day:Interval=\"SCHEDULE DAY 19\", Blank Schedule Type Limits Name input -- will not be validated.\n   ** Warning ** ProcessScheduleInput: Schedule:Day:Interval=\"SCHEDULE DAY 190\", Blank Schedule Type Limits Name input -- will not be validated.\n   ** Warning ** ProcessScheduleInput: Schedule:Day:Interval=\"SCHEDULE DAY 191\", Blank Schedule Type Limits Name input -- will not be validated.\n   ** Warning ** ProcessScheduleInput: Schedule:Day:Interval=\"SCHEDULE DAY 192\", Blank Schedule Type Limits Name input -- will not be validated.\n   ** Warning ** ProcessScheduleInput: Schedule:Day:Interval=\"SCHEDULE DAY 193\", Blank Schedule Type Limits Name input -- will not be validated.\n   ** Warning ** ProcessScheduleInput: Schedule:Day:Interval=\"SCHEDULE DAY 194\", Blank Schedule Type Limits Name input -- will not be validated.\n   ** Warning ** ProcessScheduleInput: Schedule:Day:Interval=\"SCHEDULE DAY 195\", Blank Schedule Type Limits Name input -- will not be validated.\n   ** Warning ** ProcessScheduleInput: Schedule:Day:Interval=\"SCHEDULE DAY 196\", Blank Schedule Type Limits Name input -- will not be validated.\n   ** Warning ** ProcessScheduleInput: Schedule:Day:Interval=\"SCHEDULE DAY 197\", Blank Schedule Type Limits Name input -- will not be validated.\n   ** Warning ** ProcessScheduleInput: Schedule:Day:Interval=\"SCHEDULE DAY 198\", Blank Schedule Type Limits Name input -- will not be validated.\n   ** Warning ** ProcessScheduleInput: Schedule:Day:Interval=\"SCHEDULE DAY 199\", Blank Schedule Type Limits Name input -- will not be validated.\n   ** Warning ** ProcessScheduleInput: Schedule:Day:Interval=\"SCHEDULE DAY 2\", Blank Schedule Type Limits Name input -- will not be validated.\n   ** Warning ** ProcessScheduleInput: Schedule:Day:Interval=\"SCHEDULE DAY 20\", Blank Schedule Type Limits Name input -- will not be validated.\n   ** Warning ** ProcessScheduleInput: Schedule:Day:Interval=\"SCHEDULE DAY 200\", Blank Schedule Type Limits Name input -- will not be validated.\n   ** Warning ** ProcessScheduleInput: Schedule:Day:Interval=\"SCHEDULE DAY 201\", Blank Schedule Type Limits Name input -- will not be validated.\n   ** Warning ** ProcessScheduleInput: Schedule:Day:Interval=\"SCHEDULE DAY 202\", Blank Schedule Type Limits Name input -- will not be validated.\n   ** Warning ** ProcessScheduleInput: Schedule:Day:Interval=\"SCHEDULE DAY 203\", Blank Schedule Type Limits Name input -- will not be validated.\n   ** Warning ** ProcessScheduleInput: Schedule:Day:Interval=\"SCHEDULE DAY 204\", Blank Schedule Type Limits Name input -- will not be validated.\n   ** Warning ** ProcessScheduleInput: Schedule:Day:Interval=\"SCHEDULE DAY 205\", Blank Schedule Type Limits Name input -- will not be validated.\n   ** Warning ** ProcessScheduleInput: Schedule:Day:Interval=\"SCHEDULE DAY 206\", Blank Schedule Type Limits Name input -- will not be validated.\n   ** Warning ** ProcessScheduleInput: Schedule:Day:Interval=\"SCHEDULE DAY 207\", Blank Schedule Type Limits Name input -- will not be validated.\n   ** Warning ** ProcessScheduleInput: Schedule:Day:Interval=\"SCHEDULE DAY 208\", Blank Schedule Type Limits Name input -- will not be validated.\n   ** Warning ** ProcessScheduleInput: Schedule:Day:Interval=\"SCHEDULE DAY 209\", Blank Schedule Type Limits Name input -- will not be validated.\n   ** Warning ** ProcessScheduleInput: Schedule:Day:Interval=\"SCHEDULE DAY 21\", Blank Schedule Type Limits Name input -- will not be validated.\n   ** Warning ** ProcessScheduleInput: Schedule:Day:Interval=\"SCHEDULE DAY 210\", Blank Schedule Type Limits Name input -- will not be validated.\n   ** Warning ** ProcessScheduleInput: Schedule:Day:Interval=\"SCHEDULE DAY 211\", Blank Schedule Type Limits Name input -- will not be validated.\n   ** Warning ** ProcessScheduleInput: Schedule:Day:Interval=\"SCHEDULE DAY 212\", Blank Schedule Type Limits Name input -- will not be validated.\n   ** Warning ** ProcessScheduleInput: Schedule:Day:Interval=\"SCHEDULE DAY 213\", Blank Schedule Type Limits Name input -- will not be validated.\n   ** Warning ** ProcessScheduleInput: Schedule:Day:Interval=\"SCHEDULE DAY 214\", Blank Schedule Type Limits Name input -- will not be validated.\n   ** Warning ** ProcessScheduleInput: Schedule:Day:Interval=\"SCHEDULE DAY 215\", Blank Schedule Type Limits Name input -- will not be validated.\n   ** Warning ** ProcessScheduleInput: Schedule:Day:Interval=\"SCHEDULE DAY 216\", Blank Schedule Type Limits Name input -- will not be validated.\n   ** Warning ** ProcessScheduleInput: Schedule:Day:Interval=\"SCHEDULE DAY 217\", Blank Schedule Type Limits Name input -- will not be validated.\n   ** Warning ** ProcessScheduleInput: Schedule:Day:Interval=\"SCHEDULE DAY 218\", Blank Schedule Type Limits Name input -- will not be validated.\n   ** Warning ** ProcessScheduleInput: Schedule:Day:Interval=\"SCHEDULE DAY 219\", Blank Schedule Type Limits Name input -- will not be validated.\n   ** Warning ** ProcessScheduleInput: Schedule:Day:Interval=\"SCHEDULE DAY 22\", Blank Schedule Type Limits Name input -- will not be validated.\n   ** Warning ** ProcessScheduleInput: Schedule:Day:Interval=\"SCHEDULE DAY 220\", Blank Schedule Type Limits Name input -- will not be validated.\n   ** Warning ** ProcessScheduleInput: Schedule:Day:Interval=\"SCHEDULE DAY 221\", Blank Schedule Type Limits Name input -- will not be validated.\n   ** Warning ** ProcessScheduleInput: Schedule:Day:Interval=\"SCHEDULE DAY 222\", Blank Schedule Type Limits Name input -- will not be validated.\n   ** Warning ** ProcessScheduleInput: Schedule:Day:Interval=\"SCHEDULE DAY 223\", Blank Schedule Type Limits Name input -- will not be validated.\n   ** Warning ** ProcessScheduleInput: Schedule:Day:Interval=\"SCHEDULE DAY 224\", Blank Schedule Type Limits Name input -- will not be validated.\n   ** Warning ** ProcessScheduleInput: Schedule:Day:Interval=\"SCHEDULE DAY 225\", Blank Schedule Type Limits Name input -- will not be validated.\n   ** Warning ** ProcessScheduleInput: Schedule:Day:Interval=\"SCHEDULE DAY 226\", Blank Schedule Type Limits Name input -- will not be validated.\n   ** Warning ** ProcessScheduleInput: Schedule:Day:Interval=\"SCHEDULE DAY 227\", Blank Schedule Type Limits Name input -- will not be validated.\n   ** Warning ** ProcessScheduleInput: Schedule:Day:Interval=\"SCHEDULE DAY 228\", Blank Schedule Type Limits Name input -- will not be validated.\n   ** Warning ** ProcessScheduleInput: Schedule:Day:Interval=\"SCHEDULE DAY 229\", Blank Schedule Type Limits Name input -- will not be validated.\n   ** Warning ** ProcessScheduleInput: Schedule:Day:Interval=\"SCHEDULE DAY 23\", Blank Schedule Type Limits Name input -- will not be validated.\n   ** Warning ** ProcessScheduleInput: Schedule:Day:Interval=\"SCHEDULE DAY 230\", Blank Schedule Type Limits Name input -- will not be validated.\n   ** Warning ** ProcessScheduleInput: Schedule:Day:Interval=\"SCHEDULE DAY 231\", Blank Schedule Type Limits Name input -- will not be validated.\n   ** Warning ** ProcessScheduleInput: Schedule:Day:Interval=\"SCHEDULE DAY 232\", Blank Schedule Type Limits Name input -- will not be validated.\n   ** Warning ** ProcessScheduleInput: Schedule:Day:Interval=\"SCHEDULE DAY 233\", Blank Schedule Type Limits Name input -- will not be validated.\n   ** Warning ** ProcessScheduleInput: Schedule:Day:Interval=\"SCHEDULE DAY 234\", Blank Schedule Type Limits Name input -- will not be validated.\n   ** Warning ** ProcessScheduleInput: Schedule:Day:Interval=\"SCHEDULE DAY 235\", Blank Schedule Type Limits Name input -- will not be validated.\n   ** Warning ** ProcessScheduleInput: Schedule:Day:Interval=\"SCHEDULE DAY 236\", Blank Schedule Type Limits Name input -- will not be validated.\n   ** Warning ** ProcessScheduleInput: Schedule:Day:Interval=\"SCHEDULE DAY 237\", Blank Schedule Type Limits Name input -- will not be validated.\n   ** Warning ** ProcessScheduleInput: Schedule:Day:Interval=\"SCHEDULE DAY 238\", Blank Schedule Type Limits Name input -- will not be validated.\n   ** Warning ** ProcessScheduleInput: Schedule:Day:Interval=\"SCHEDULE DAY 239\", Blank Schedule Type Limits Name input -- will not be validated.\n   ** Warning ** ProcessScheduleInput: Schedule:Day:Interval=\"SCHEDULE DAY 24\", Blank Schedule Type Limits Name input -- will not be validated.\n   ** Warning ** ProcessScheduleInput: Schedule:Day:Interval=\"SCHEDULE DAY 240\", Blank Schedule Type Limits Name input -- will not be validated.\n   ** Warning ** ProcessScheduleInput: Schedule:Day:Interval=\"SCHEDULE DAY 241\", Blank Schedule Type Limits Name input -- will not be validated.\n   ** Warning ** ProcessScheduleInput: Schedule:Day:Interval=\"SCHEDULE DAY 242\", Blank Schedule Type Limits Name input -- will not be validated.\n   ** Warning ** ProcessScheduleInput: Schedule:Day:Interval=\"SCHEDULE DAY 243\", Blank Schedule Type Limits Name input -- will not be validated.\n   ** Warning ** ProcessScheduleInput: Schedule:Day:Interval=\"SCHEDULE DAY 244\", Blank Schedule Type Limits Name input -- will not be validated.\n   ** Warning ** ProcessScheduleInput: Schedule:Day:Interval=\"SCHEDULE DAY 245\", Blank Schedule Type Limits Name input -- will not be validated.\n   ** Warning ** ProcessScheduleInput: Schedule:Day:Interval=\"SCHEDULE DAY 246\", Blank Schedule Type Limits Name input -- will not be validated.\n   ** Warning ** ProcessScheduleInput: Schedule:Day:Interval=\"SCHEDULE DAY 247\", Blank Schedule Type Limits Name input -- will not be validated.\n   ** Warning ** ProcessScheduleInput: Schedule:Day:Interval=\"SCHEDULE DAY 248\", Blank Schedule Type Limits Name input -- will not be validated.\n   ** Warning ** ProcessScheduleInput: Schedule:Day:Interval=\"SCHEDULE DAY 249\", Blank Schedule Type Limits Name input -- will not be validated.\n   ** Warning ** ProcessScheduleInput: Schedule:Day:Interval=\"SCHEDULE DAY 25\", Blank Schedule Type Limits Name input -- will not be validated.\n   ** Warning ** ProcessScheduleInput: Schedule:Day:Interval=\"SCHEDULE DAY 250\", Blank Schedule Type Limits Name input -- will not be validated.\n   ** Warning ** ProcessScheduleInput: Schedule:Day:Interval=\"SCHEDULE DAY 251\", Blank Schedule Type Limits Name input -- will not be validated.\n   ** Warning ** ProcessScheduleInput: Schedule:Day:Interval=\"SCHEDULE DAY 26\", Blank Schedule Type Limits Name input -- will not be validated.\n   ** Warning ** ProcessScheduleInput: Schedule:Day:Interval=\"SCHEDULE DAY 27\", Blank Schedule Type Limits Name input -- will not be validated.\n   ** Warning ** ProcessScheduleInput: Schedule:Day:Interval=\"SCHEDULE DAY 28\", Blank Schedule Type Limits Name input -- will not be validated.\n   ** Warning ** ProcessScheduleInput: Schedule:Day:Interval=\"SCHEDULE DAY 29\", Blank Schedule Type Limits Name input -- will not be validated.\n   ** Warning ** ProcessScheduleInput: Schedule:Day:Interval=\"SCHEDULE DAY 30\", Blank Schedule Type Limits Name input -- will not be validated.\n   ** Warning ** ProcessScheduleInput: Schedule:Day:Interval=\"SCHEDULE DAY 31\", Blank Schedule Type Limits Name input -- will not be validated.\n   ** Warning ** ProcessScheduleInput: Schedule:Day:Interval=\"SCHEDULE DAY 32\", Blank Schedule Type Limits Name input -- will not be validated.\n   ** Warning ** ProcessScheduleInput: Schedule:Day:Interval=\"SCHEDULE DAY 33\", Blank Schedule Type Limits Name input -- will not be validated.\n   ** Warning ** ProcessScheduleInput: Schedule:Day:Interval=\"SCHEDULE DAY 34\", Blank Schedule Type Limits Name input -- will not be validated.\n   ** Warning ** ProcessScheduleInput: Schedule:Day:Interval=\"SCHEDULE DAY 35\", Blank Schedule Type Limits Name input -- will not be validated.\n   ** Warning ** ProcessScheduleInput: Schedule:Day:Interval=\"SCHEDULE DAY 36\", Blank Schedule Type Limits Name input -- will not be validated.\n   ** Warning ** ProcessScheduleInput: Schedule:Day:Interval=\"SCHEDULE DAY 37\", Blank Schedule Type Limits Name input -- will not be validated.\n   ** Warning ** ProcessScheduleInput: Schedule:Day:Interval=\"SCHEDULE DAY 38\", Blank Schedule Type Limits Name input -- will not be validated.\n   ** Warning ** ProcessScheduleInput: Schedule:Day:Interval=\"SCHEDULE DAY 39\", Blank Schedule Type Limits Name input -- will not be validated.\n   ** Warning ** ProcessScheduleInput: Schedule:Day:Interval=\"SCHEDULE DAY 40\", Blank Schedule Type Limits Name input -- will not be validated.\n   ** Warning ** ProcessScheduleInput: Schedule:Day:Interval=\"SCHEDULE DAY 41\", Blank Schedule Type Limits Name input -- will not be validated.\n   ** Warning ** ProcessScheduleInput: Schedule:Day:Interval=\"SCHEDULE DAY 42\", Blank Schedule Type Limits Name input -- will not be validated.\n   ** Warning ** ProcessScheduleInput: Schedule:Day:Interval=\"SCHEDULE DAY 43\", Blank Schedule Type Limits Name input -- will not be validated.\n   ** Warning ** ProcessScheduleInput: Schedule:Day:Interval=\"SCHEDULE DAY 44\", Blank Schedule Type Limits Name input -- will not be validated.\n   ** Warning ** ProcessScheduleInput: Schedule:Day:Interval=\"SCHEDULE DAY 45\", Blank Schedule Type Limits Name input -- will not be validated.\n   ** Warning ** ProcessScheduleInput: Schedule:Day:Interval=\"SCHEDULE DAY 46\", Blank Schedule Type Limits Name input -- will not be validated.\n   ** Warning ** ProcessScheduleInput: Schedule:Day:Interval=\"SCHEDULE DAY 47\", Blank Schedule Type Limits Name input -- will not be validated.\n   ** Warning ** ProcessScheduleInput: Schedule:Day:Interval=\"SCHEDULE DAY 48\", Blank Schedule Type Limits Name input -- will not be validated.\n   ** Warning ** ProcessScheduleInput: Schedule:Day:Interval=\"SCHEDULE DAY 49\", Blank Schedule Type Limits Name input -- will not be validated.\n   ** Warning ** ProcessScheduleInput: Schedule:Day:Interval=\"SCHEDULE DAY 50\", Blank Schedule Type Limits Name input -- will not be validated.\n   ** Warning ** ProcessScheduleInput: Schedule:Day:Interval=\"SCHEDULE DAY 51\", Blank Schedule Type Limits Name input -- will not be validated.\n   ** Warning ** ProcessScheduleInput: Schedule:Day:Interval=\"SCHEDULE DAY 52\", Blank Schedule Type Limits Name input -- will not be validated.\n   ** Warning ** ProcessScheduleInput: Schedule:Day:Interval=\"SCHEDULE DAY 53\", Blank Schedule Type Limits Name input -- will not be validated.\n   ** Warning ** ProcessScheduleInput: Schedule:Day:Interval=\"SCHEDULE DAY 54\", Blank Schedule Type Limits Name input -- will not be validated.\n   ** Warning ** ProcessScheduleInput: Schedule:Day:Interval=\"SCHEDULE DAY 55\", Blank Schedule Type Limits Name input -- will not be validated.\n   ** Warning ** ProcessScheduleInput: Schedule:Day:Interval=\"SCHEDULE DAY 56\", Blank Schedule Type Limits Name input -- will not be validated.\n   ** Warning ** ProcessScheduleInput: Schedule:Day:Interval=\"SCHEDULE DAY 57\", Blank Schedule Type Limits Name input -- will not be validated.\n   ** Warning ** ProcessScheduleInput: Schedule:Day:Interval=\"SCHEDULE DAY 58\", Blank Schedule Type Limits Name input -- will not be validated.\n   ** Warning ** ProcessScheduleInput: Schedule:Day:Interval=\"SCHEDULE DAY 59\", Blank Schedule Type Limits Name input -- will not be validated.\n   ** Warning ** ProcessScheduleInput: Schedule:Day:Interval=\"SCHEDULE DAY 60\", Blank Schedule Type Limits Name input -- will not be validated.\n   ** Warning ** ProcessScheduleInput: Schedule:Day:Interval=\"SCHEDULE DAY 61\", Blank Schedule Type Limits Name input -- will not be validated.\n   ** Warning ** ProcessScheduleInput: Schedule:Day:Interval=\"SCHEDULE DAY 62\", Blank Schedule Type Limits Name input -- will not be validated.\n   ** Warning ** ProcessScheduleInput: Schedule:Day:Interval=\"SCHEDULE DAY 63\", Blank Schedule Type Limits Name input -- will not be validated.\n   ** Warning ** ProcessScheduleInput: Schedule:Day:Interval=\"SCHEDULE DAY 64\", Blank Schedule Type Limits Name input -- will not be validated.\n   ** Warning ** ProcessScheduleInput: Schedule:Day:Interval=\"SCHEDULE DAY 65\", Blank Schedule Type Limits Name input -- will not be validated.\n   ** Warning ** ProcessScheduleInput: Schedule:Day:Interval=\"SCHEDULE DAY 66\", Blank Schedule Type Limits Name input -- will not be validated.\n   ** Warning ** ProcessScheduleInput: Schedule:Day:Interval=\"SCHEDULE DAY 67\", Blank Schedule Type Limits Name input -- will not be validated.\n   ** Warning ** ProcessScheduleInput: Schedule:Day:Interval=\"SCHEDULE DAY 68\", Blank Schedule Type Limits Name input -- will not be validated.\n   ** Warning ** ProcessScheduleInput: Schedule:Day:Interval=\"SCHEDULE DAY 69\", Blank Schedule Type Limits Name input -- will not be validated.\n   ** Warning ** ProcessScheduleInput: Schedule:Day:Interval=\"SCHEDULE DAY 70\", Blank Schedule Type Limits Name input -- will not be validated.\n   ** Warning ** ProcessScheduleInput: Schedule:Day:Interval=\"SCHEDULE DAY 71\", Blank Schedule Type Limits Name input -- will not be validated.\n   ** Warning ** ProcessScheduleInput: Schedule:Day:Interval=\"SCHEDULE DAY 72\", Blank Schedule Type Limits Name input -- will not be validated.\n   ** Warning ** ProcessScheduleInput: Schedule:Day:Interval=\"SCHEDULE DAY 73\", Blank Schedule Type Limits Name input -- will not be validated.\n   ** Warning ** ProcessScheduleInput: Schedule:Day:Interval=\"SCHEDULE DAY 74\", Blank Schedule Type Limits Name input -- will not be validated.\n   ** Warning ** ProcessScheduleInput: Schedule:Day:Interval=\"SCHEDULE DAY 75\", Blank Schedule Type Limits Name input -- will not be validated.\n   ** Warning ** ProcessScheduleInput: Schedule:Day:Interval=\"SCHEDULE DAY 76\", Blank Schedule Type Limits Name input -- will not be validated.\n   ** Warning ** ProcessScheduleInput: Schedule:Day:Interval=\"SCHEDULE DAY 77\", Blank Schedule Type Limits Name input -- will not be validated.\n   ** Warning ** ProcessScheduleInput: Schedule:Day:Interval=\"SCHEDULE DAY 78\", Blank Schedule Type Limits Name input -- will not be validated.\n   ** Warning ** ProcessScheduleInput: Schedule:Day:Interval=\"SCHEDULE DAY 79\", Blank Schedule Type Limits Name input -- will not be validated.\n   ** Warning ** ProcessScheduleInput: Schedule:Day:Interval=\"SCHEDULE DAY 8\", Blank Schedule Type Limits Name input -- will not be validated.\n   ** Warning ** ProcessScheduleInput: Schedule:Day:Interval=\"SCHEDULE DAY 80\", Blank Schedule Type Limits Name input -- will not be validated.\n   ** Warning ** ProcessScheduleInput: Schedule:Day:Interval=\"SCHEDULE DAY 81\", Blank Schedule Type Limits Name input -- will not be validated.\n   ** Warning ** ProcessScheduleInput: Schedule:Day:Interval=\"SCHEDULE DAY 82\", Blank Schedule Type Limits Name input -- will not be validated.\n   ** Warning ** ProcessScheduleInput: Schedule:Day:Interval=\"SCHEDULE DAY 83\", Blank Schedule Type Limits Name input -- will not be validated.\n   ** Warning ** ProcessScheduleInput: Schedule:Day:Interval=\"SCHEDULE DAY 84\", Blank Schedule Type Limits Name input -- will not be validated.\n   ** Warning ** ProcessScheduleInput: Schedule:Day:Interval=\"SCHEDULE DAY 85\", Blank Schedule Type Limits Name input -- will not be validated.\n   ** Warning ** ProcessScheduleInput: Schedule:Day:Interval=\"SCHEDULE DAY 86\", Blank Schedule Type Limits Name input -- will not be validated.\n   ** Warning ** ProcessScheduleInput: Schedule:Day:Interval=\"SCHEDULE DAY 87\", Blank Schedule Type Limits Name input -- will not be validated.\n   ** Warning ** ProcessScheduleInput: Schedule:Day:Interval=\"SCHEDULE DAY 88\", Blank Schedule Type Limits Name input -- will not be validated.\n   ** Warning ** ProcessScheduleInput: Schedule:Day:Interval=\"SCHEDULE DAY 89\", Blank Schedule Type Limits Name input -- will not be validated.\n   ** Warning ** ProcessScheduleInput: Schedule:Day:Interval=\"SCHEDULE DAY 9\", Blank Schedule Type Limits Name input -- will not be validated.\n   ** Warning ** ProcessScheduleInput: Schedule:Day:Interval=\"SCHEDULE DAY 90\", Blank Schedule Type Limits Name input -- will not be validated.\n   ** Warning ** ProcessScheduleInput: Schedule:Day:Interval=\"SCHEDULE DAY 91\", Blank Schedule Type Limits Name input -- will not be validated.\n   ** Warning ** ProcessScheduleInput: Schedule:Day:Interval=\"SCHEDULE DAY 92\", Blank Schedule Type Limits Name input -- will not be validated.\n   ** Warning ** ProcessScheduleInput: Schedule:Day:Interval=\"SCHEDULE DAY 93\", Blank Schedule Type Limits Name input -- will not be validated.\n   ** Warning ** ProcessScheduleInput: Schedule:Day:Interval=\"SCHEDULE DAY 94\", Blank Schedule Type Limits Name input -- will not be validated.\n   ** Warning ** ProcessScheduleInput: Schedule:Day:Interval=\"SCHEDULE DAY 95\", Blank Schedule Type Limits Name input -- will not be validated.\n   ** Warning ** ProcessScheduleInput: Schedule:Day:Interval=\"SCHEDULE DAY 96\", Blank Schedule Type Limits Name input -- will not be validated.\n   ** Warning ** ProcessScheduleInput: Schedule:Day:Interval=\"SCHEDULE DAY 97\", Blank Schedule Type Limits Name input -- will not be validated.\n   ** Warning ** ProcessScheduleInput: Schedule:Day:Interval=\"SCHEDULE DAY 98\", Blank Schedule Type Limits Name input -- will not be validated.\n   ** Warning ** ProcessScheduleInput: Schedule:Day:Interval=\"SCHEDULE DAY 99\", Blank Schedule Type Limits Name input -- will not be validated.\n   ** Warning ** ProcessScheduleInput: Schedule:Year=\"ECONOMIZER MAX OA FRACTION 100 PCT\", Blank Schedule Type Limits Name input -- will not be validated.\n   ** Warning ** ProcessScheduleInput: Schedule:Year=\"SCHEDULE RULESET 10\", Blank Schedule Type Limits Name input -- will not be validated.\n   ** Warning ** ProcessScheduleInput: Schedule:Year=\"SCHEDULE RULESET 100\", Blank Schedule Type Limits Name input -- will not be validated.\n   ** Warning ** ProcessScheduleInput: Schedule:Year=\"SCHEDULE RULESET 101\", Blank Schedule Type Limits Name input -- will not be validated.\n   ** Warning ** ProcessScheduleInput: Schedule:Year=\"SCHEDULE RULESET 102\", Blank Schedule Type Limits Name input -- will not be validated.\n   ** Warning ** ProcessScheduleInput: Schedule:Year=\"SCHEDULE RULESET 103\", Blank Schedule Type Limits Name input -- will not be validated.\n   ** Warning ** ProcessScheduleInput: Schedule:Year=\"SCHEDULE RULESET 104\", Blank Schedule Type Limits Name input -- will not be validated.\n   ** Warning ** ProcessScheduleInput: Schedule:Year=\"SCHEDULE RULESET 105\", Blank Schedule Type Limits Name input -- will not be validated.\n   ** Warning ** ProcessScheduleInput: Schedule:Year=\"SCHEDULE RULESET 106\", Blank Schedule Type Limits Name input -- will not be validated.\n   ** Warning ** ProcessScheduleInput: Schedule:Year=\"SCHEDULE RULESET 107\", Blank Schedule Type Limits Name input -- will not be validated.\n   ** Warning ** ProcessScheduleInput: Schedule:Year=\"SCHEDULE RULESET 108\", Blank Schedule Type Limits Name input -- will not be validated.\n   ** Warning ** ProcessScheduleInput: Schedule:Year=\"SCHEDULE RULESET 109\", Blank Schedule Type Limits Name input -- will not be validated.\n   ** Warning ** ProcessScheduleInput: Schedule:Year=\"SCHEDULE RULESET 11\", Blank Schedule Type Limits Name input -- will not be validated.\n   ** Warning ** ProcessScheduleInput: Schedule:Year=\"SCHEDULE RULESET 110\", Blank Schedule Type Limits Name input -- will not be validated.\n   ** Warning ** ProcessScheduleInput: Schedule:Year=\"SCHEDULE RULESET 111\", Blank Schedule Type Limits Name input -- will not be validated.\n   ** Warning ** ProcessScheduleInput: Schedule:Year=\"SCHEDULE RULESET 112\", Blank Schedule Type Limits Name input -- will not be validated.\n   ** Warning ** ProcessScheduleInput: Schedule:Year=\"SCHEDULE RULESET 113\", Blank Schedule Type Limits Name input -- will not be validated.\n   ** Warning ** ProcessScheduleInput: Schedule:Year=\"SCHEDULE RULESET 114\", Blank Schedule Type Limits Name input -- will not be validated.\n   ** Warning ** ProcessScheduleInput: Schedule:Year=\"SCHEDULE RULESET 115\", Blank Schedule Type Limits Name input -- will not be validated.\n   ** Warning ** ProcessScheduleInput: Schedule:Year=\"SCHEDULE RULESET 116\", Blank Schedule Type Limits Name input -- will not be validated.\n   ** Warning ** ProcessScheduleInput: Schedule:Year=\"SCHEDULE RULESET 117\", Blank Schedule Type Limits Name input -- will not be validated.\n   ** Warning ** ProcessScheduleInput: Schedule:Year=\"SCHEDULE RULESET 118\", Blank Schedule Type Limits Name input -- will not be validated.\n   ** Warning ** ProcessScheduleInput: Schedule:Year=\"SCHEDULE RULESET 119\", Blank Schedule Type Limits Name input -- will not be validated.\n   ** Warning ** ProcessScheduleInput: Schedule:Year=\"SCHEDULE RULESET 12\", Blank Schedule Type Limits Name input -- will not be validated.\n   ** Warning ** ProcessScheduleInput: Schedule:Year=\"SCHEDULE RULESET 120\", Blank Schedule Type Limits Name input -- will not be validated.\n   ** Warning ** ProcessScheduleInput: Schedule:Year=\"SCHEDULE RULESET 121\", Blank Schedule Type Limits Name input -- will not be validated.\n   ** Warning ** ProcessScheduleInput: Schedule:Year=\"SCHEDULE RULESET 122\", Blank Schedule Type Limits Name input -- will not be validated.\n   ** Warning ** ProcessScheduleInput: Schedule:Year=\"SCHEDULE RULESET 123\", Blank Schedule Type Limits Name input -- will not be validated.\n   ** Warning ** ProcessScheduleInput: Schedule:Year=\"SCHEDULE RULESET 124\", Blank Schedule Type Limits Name input -- will not be validated.\n   ** Warning ** ProcessScheduleInput: Schedule:Year=\"SCHEDULE RULESET 125\", Blank Schedule Type Limits Name input -- will not be validated.\n   ** Warning ** ProcessScheduleInput: Schedule:Year=\"SCHEDULE RULESET 126\", Blank Schedule Type Limits Name input -- will not be validated.\n   ** Warning ** ProcessScheduleInput: Schedule:Year=\"SCHEDULE RULESET 127\", Blank Schedule Type Limits Name input -- will not be validated.\n   ** Warning ** ProcessScheduleInput: Schedule:Year=\"SCHEDULE RULESET 128\", Blank Schedule Type Limits Name input -- will not be validated.\n   ** Warning ** ProcessScheduleInput: Schedule:Year=\"SCHEDULE RULESET 129\", Blank Schedule Type Limits Name input -- will not be validated.\n   ** Warning ** ProcessScheduleInput: Schedule:Year=\"SCHEDULE RULESET 13\", Blank Schedule Type Limits Name input -- will not be validated.\n   ** Warning ** ProcessScheduleInput: Schedule:Year=\"SCHEDULE RULESET 130\", Blank Schedule Type Limits Name input -- will not be validated.\n   ** Warning ** ProcessScheduleInput: Schedule:Year=\"SCHEDULE RULESET 131\", Blank Schedule Type Limits Name input -- will not be validated.\n   ** Warning ** ProcessScheduleInput: Schedule:Year=\"SCHEDULE RULESET 132\", Blank Schedule Type Limits Name input -- will not be validated.\n   ** Warning ** ProcessScheduleInput: Schedule:Year=\"SCHEDULE RULESET 133\", Blank Schedule Type Limits Name input -- will not be validated.\n   ** Warning ** ProcessScheduleInput: Schedule:Year=\"SCHEDULE RULESET 134\", Blank Schedule Type Limits Name input -- will not be validated.\n   ** Warning ** ProcessScheduleInput: Schedule:Year=\"SCHEDULE RULESET 135\", Blank Schedule Type Limits Name input -- will not be validated.\n   ** Warning ** ProcessScheduleInput: Schedule:Year=\"SCHEDULE RULESET 136\", Blank Schedule Type Limits Name input -- will not be validated.\n   ** Warning ** ProcessScheduleInput: Schedule:Year=\"SCHEDULE RULESET 137\", Blank Schedule Type Limits Name input -- will not be validated.\n   ** Warning ** ProcessScheduleInput: Schedule:Year=\"SCHEDULE RULESET 138\", Blank Schedule Type Limits Name input -- will not be validated.\n   ** Warning ** ProcessScheduleInput: Schedule:Year=\"SCHEDULE RULESET 139\", Blank Schedule Type Limits Name input -- will not be validated.\n   ** Warning ** ProcessScheduleInput: Schedule:Year=\"SCHEDULE RULESET 14\", Blank Schedule Type Limits Name input -- will not be validated.\n   ** Warning ** ProcessScheduleInput: Schedule:Year=\"SCHEDULE RULESET 140\", Blank Schedule Type Limits Name input -- will not be validated.\n   ** Warning ** ProcessScheduleInput: Schedule:Year=\"SCHEDULE RULESET 141\", Blank Schedule Type Limits Name input -- will not be validated.\n   ** Warning ** ProcessScheduleInput: Schedule:Year=\"SCHEDULE RULESET 142\", Blank Schedule Type Limits Name input -- will not be validated.\n   ** Warning ** ProcessScheduleInput: Schedule:Year=\"SCHEDULE RULESET 143\", Blank Schedule Type Limits Name input -- will not be validated.\n   ** Warning ** ProcessScheduleInput: Schedule:Year=\"SCHEDULE RULESET 144\", Blank Schedule Type Limits Name input -- will not be validated.\n   ** Warning ** ProcessScheduleInput: Schedule:Year=\"SCHEDULE RULESET 145\", Blank Schedule Type Limits Name input -- will not be validated.\n   ** Warning ** ProcessScheduleInput: Schedule:Year=\"SCHEDULE RULESET 146\", Blank Schedule Type Limits Name input -- will not be validated.\n   ** Warning ** ProcessScheduleInput: Schedule:Year=\"SCHEDULE RULESET 147\", Blank Schedule Type Limits Name input -- will not be validated.\n   ** Warning ** ProcessScheduleInput: Schedule:Year=\"SCHEDULE RULESET 148\", Blank Schedule Type Limits Name input -- will not be validated.\n   ** Warning ** ProcessScheduleInput: Schedule:Year=\"SCHEDULE RULESET 149\", Blank Schedule Type Limits Name input -- will not be validated.\n   ** Warning ** ProcessScheduleInput: Schedule:Year=\"SCHEDULE RULESET 15\", Blank Schedule Type Limits Name input -- will not be validated.\n   ** Warning ** ProcessScheduleInput: Schedule:Year=\"SCHEDULE RULESET 150\", Blank Schedule Type Limits Name input -- will not be validated.\n   ** Warning ** ProcessScheduleInput: Schedule:Year=\"SCHEDULE RULESET 151\", Blank Schedule Type Limits Name input -- will not be validated.\n   ** Warning ** ProcessScheduleInput: Schedule:Year=\"SCHEDULE RULESET 152\", Blank Schedule Type Limits Name input -- will not be validated.\n   ** Warning ** ProcessScheduleInput: Schedule:Year=\"SCHEDULE RULESET 153\", Blank Schedule Type Limits Name input -- will not be validated.\n   ** Warning ** ProcessScheduleInput: Schedule:Year=\"SCHEDULE RULESET 154\", Blank Schedule Type Limits Name input -- will not be validated.\n   ** Warning ** ProcessScheduleInput: Schedule:Year=\"SCHEDULE RULESET 155\", Blank Schedule Type Limits Name input -- will not be validated.\n   ** Warning ** ProcessScheduleInput: Schedule:Year=\"SCHEDULE RULESET 156\", Blank Schedule Type Limits Name input -- will not be validated.\n   ** Warning ** ProcessScheduleInput: Schedule:Year=\"SCHEDULE RULESET 157\", Blank Schedule Type Limits Name input -- will not be validated.\n   ** Warning ** ProcessScheduleInput: Schedule:Year=\"SCHEDULE RULESET 158\", Blank Schedule Type Limits Name input -- will not be validated.\n   ** Warning ** ProcessScheduleInput: Schedule:Year=\"SCHEDULE RULESET 159\", Blank Schedule Type Limits Name input -- will not be validated.\n   ** Warning ** ProcessScheduleInput: Schedule:Year=\"SCHEDULE RULESET 16\", Blank Schedule Type Limits Name input -- will not be validated.\n   ** Warning ** ProcessScheduleInput: Schedule:Year=\"SCHEDULE RULESET 160\", Blank Schedule Type Limits Name input -- will not be validated.\n   ** Warning ** ProcessScheduleInput: Schedule:Year=\"SCHEDULE RULESET 161\", Blank Schedule Type Limits Name input -- will not be validated.\n   ** Warning ** ProcessScheduleInput: Schedule:Year=\"SCHEDULE RULESET 162\", Blank Schedule Type Limits Name input -- will not be validated.\n   ** Warning ** ProcessScheduleInput: Schedule:Year=\"SCHEDULE RULESET 163\", Blank Schedule Type Limits Name input -- will not be validated.\n   ** Warning ** ProcessScheduleInput: Schedule:Year=\"SCHEDULE RULESET 164\", Blank Schedule Type Limits Name input -- will not be validated.\n   ** Warning ** ProcessScheduleInput: Schedule:Year=\"SCHEDULE RULESET 165\", Blank Schedule Type Limits Name input -- will not be validated.\n   ** Warning ** ProcessScheduleInput: Schedule:Year=\"SCHEDULE RULESET 166\", Blank Schedule Type Limits Name input -- will not be validated.\n   ** Warning ** ProcessScheduleInput: Schedule:Year=\"SCHEDULE RULESET 167\", Blank Schedule Type Limits Name input -- will not be validated.\n   ** Warning ** ProcessScheduleInput: Schedule:Year=\"SCHEDULE RULESET 168\", Blank Schedule Type Limits Name input -- will not be validated.\n   ** Warning ** ProcessScheduleInput: Schedule:Year=\"SCHEDULE RULESET 169\", Blank Schedule Type Limits Name input -- will not be validated.\n   ** Warning ** ProcessScheduleInput: Schedule:Year=\"SCHEDULE RULESET 17\", Blank Schedule Type Limits Name input -- will not be validated.\n   ** Warning ** ProcessScheduleInput: Schedule:Year=\"SCHEDULE RULESET 170\", Blank Schedule Type Limits Name input -- will not be validated.\n   ** Warning ** ProcessScheduleInput: Schedule:Year=\"SCHEDULE RULESET 171\", Blank Schedule Type Limits Name input -- will not be validated.\n   ** Warning ** ProcessScheduleInput: Schedule:Year=\"SCHEDULE RULESET 172\", Blank Schedule Type Limits Name input -- will not be validated.\n   ** Warning ** ProcessScheduleInput: Schedule:Year=\"SCHEDULE RULESET 173\", Blank Schedule Type Limits Name input -- will not be validated.\n   ** Warning ** ProcessScheduleInput: Schedule:Year=\"SCHEDULE RULESET 174\", Blank Schedule Type Limits Name input -- will not be validated.\n   ** Warning ** ProcessScheduleInput: Schedule:Year=\"SCHEDULE RULESET 175\", Blank Schedule Type Limits Name input -- will not be validated.\n   ** Warning ** ProcessScheduleInput: Schedule:Year=\"SCHEDULE RULESET 176\", Blank Schedule Type Limits Name input -- will not be validated.\n   ** Warning ** ProcessScheduleInput: Schedule:Year=\"SCHEDULE RULESET 177\", Blank Schedule Type Limits Name input -- will not be validated.\n   ** Warning ** ProcessScheduleInput: Schedule:Year=\"SCHEDULE RULESET 178\", Blank Schedule Type Limits Name input -- will not be validated.\n   ** Warning ** ProcessScheduleInput: Schedule:Year=\"SCHEDULE RULESET 179\", Blank Schedule Type Limits Name input -- will not be validated.\n   ** Warning ** ProcessScheduleInput: Schedule:Year=\"SCHEDULE RULESET 18\", Blank Schedule Type Limits Name input -- will not be validated.\n   ** Warning ** ProcessScheduleInput: Schedule:Year=\"SCHEDULE RULESET 180\", Blank Schedule Type Limits Name input -- will not be validated.\n   ** Warning ** ProcessScheduleInput: Schedule:Year=\"SCHEDULE RULESET 181\", Blank Schedule Type Limits Name input -- will not be validated.\n   ** Warning ** ProcessScheduleInput: Schedule:Year=\"SCHEDULE RULESET 182\", Blank Schedule Type Limits Name input -- will not be validated.\n   ** Warning ** ProcessScheduleInput: Schedule:Year=\"SCHEDULE RULESET 183\", Blank Schedule Type Limits Name input -- will not be validated.\n   ** Warning ** ProcessScheduleInput: Schedule:Year=\"SCHEDULE RULESET 184\", Blank Schedule Type Limits Name input -- will not be validated.\n   ** Warning ** ProcessScheduleInput: Schedule:Year=\"SCHEDULE RULESET 185\", Blank Schedule Type Limits Name input -- will not be validated.\n   ** Warning ** ProcessScheduleInput: Schedule:Year=\"SCHEDULE RULESET 186\", Blank Schedule Type Limits Name input -- will not be validated.\n   ** Warning ** ProcessScheduleInput: Schedule:Year=\"SCHEDULE RULESET 187\", Blank Schedule Type Limits Name input -- will not be validated.\n   ** Warning ** ProcessScheduleInput: Schedule:Year=\"SCHEDULE RULESET 188\", Blank Schedule Type Limits Name input -- will not be validated.\n   ** Warning ** ProcessScheduleInput: Schedule:Year=\"SCHEDULE RULESET 189\", Blank Schedule Type Limits Name input -- will not be validated.\n   ** Warning ** ProcessScheduleInput: Schedule:Year=\"SCHEDULE RULESET 19\", Blank Schedule Type Limits Name input -- will not be validated.\n   ** Warning ** ProcessScheduleInput: Schedule:Year=\"SCHEDULE RULESET 190\", Blank Schedule Type Limits Name input -- will not be validated.\n   ** Warning ** ProcessScheduleInput: Schedule:Year=\"SCHEDULE RULESET 191\", Blank Schedule Type Limits Name input -- will not be validated.\n   ** Warning ** ProcessScheduleInput: Schedule:Year=\"SCHEDULE RULESET 192\", Blank Schedule Type Limits Name input -- will not be validated.\n   ** Warning ** ProcessScheduleInput: Schedule:Year=\"SCHEDULE RULESET 193\", Blank Schedule Type Limits Name input -- will not be validated.\n   ** Warning ** ProcessScheduleInput: Schedule:Year=\"SCHEDULE RULESET 194\", Blank Schedule Type Limits Name input -- will not be validated.\n   ** Warning ** ProcessScheduleInput: Schedule:Year=\"SCHEDULE RULESET 195\", Blank Schedule Type Limits Name input -- will not be validated.\n   ** Warning ** ProcessScheduleInput: Schedule:Year=\"SCHEDULE RULESET 196\", Blank Schedule Type Limits Name input -- will not be validated.\n   ** Warning ** ProcessScheduleInput: Schedule:Year=\"SCHEDULE RULESET 197\", Blank Schedule Type Limits Name input -- will not be validated.\n   ** Warning ** ProcessScheduleInput: Schedule:Year=\"SCHEDULE RULESET 198\", Blank Schedule Type Limits Name input -- will not be validated.\n   ** Warning ** ProcessScheduleInput: Schedule:Year=\"SCHEDULE RULESET 199\", Blank Schedule Type Limits Name input -- will not be validated.\n   ** Warning ** ProcessScheduleInput: Schedule:Year=\"SCHEDULE RULESET 20\", Blank Schedule Type Limits Name input -- will not be validated.\n   ** Warning ** ProcessScheduleInput: Schedule:Year=\"SCHEDULE RULESET 200\", Blank Schedule Type Limits Name input -- will not be validated.\n   ** Warning ** ProcessScheduleInput: Schedule:Year=\"SCHEDULE RULESET 201\", Blank Schedule Type Limits Name input -- will not be validated.\n   ** Warning ** ProcessScheduleInput: Schedule:Year=\"SCHEDULE RULESET 202\", Blank Schedule Type Limits Name input -- will not be validated.\n   ** Warning ** ProcessScheduleInput: Schedule:Year=\"SCHEDULE RULESET 203\", Blank Schedule Type Limits Name input -- will not be validated.\n   ** Warning ** ProcessScheduleInput: Schedule:Year=\"SCHEDULE RULESET 204\", Blank Schedule Type Limits Name input -- will not be validated.\n   ** Warning ** ProcessScheduleInput: Schedule:Year=\"SCHEDULE RULESET 205\", Blank Schedule Type Limits Name input -- will not be validated.\n   ** Warning ** ProcessScheduleInput: Schedule:Year=\"SCHEDULE RULESET 206\", Blank Schedule Type Limits Name input -- will not be validated.\n   ** Warning ** ProcessScheduleInput: Schedule:Year=\"SCHEDULE RULESET 207\", Blank Schedule Type Limits Name input -- will not be validated.\n   ** Warning ** ProcessScheduleInput: Schedule:Year=\"SCHEDULE RULESET 208\", Blank Schedule Type Limits Name input -- will not be validated.\n   ** Warning ** ProcessScheduleInput: Schedule:Year=\"SCHEDULE RULESET 209\", Blank Schedule Type Limits Name input -- will not be validated.\n   ** Warning ** ProcessScheduleInput: Schedule:Year=\"SCHEDULE RULESET 21\", Blank Schedule Type Limits Name input -- will not be validated.\n   ** Warning ** ProcessScheduleInput: Schedule:Year=\"SCHEDULE RULESET 210\", Blank Schedule Type Limits Name input -- will not be validated.\n   ** Warning ** ProcessScheduleInput: Schedule:Year=\"SCHEDULE RULESET 211\", Blank Schedule Type Limits Name input -- will not be validated.\n   ** Warning ** ProcessScheduleInput: Schedule:Year=\"SCHEDULE RULESET 212\", Blank Schedule Type Limits Name input -- will not be validated.\n   ** Warning ** ProcessScheduleInput: Schedule:Year=\"SCHEDULE RULESET 213\", Blank Schedule Type Limits Name input -- will not be validated.\n   ** Warning ** ProcessScheduleInput: Schedule:Year=\"SCHEDULE RULESET 214\", Blank Schedule Type Limits Name input -- will not be validated.\n   ** Warning ** ProcessScheduleInput: Schedule:Year=\"SCHEDULE RULESET 215\", Blank Schedule Type Limits Name input -- will not be validated.\n   ** Warning ** ProcessScheduleInput: Schedule:Year=\"SCHEDULE RULESET 216\", Blank Schedule Type Limits Name input -- will not be validated.\n   ** Warning ** ProcessScheduleInput: Schedule:Year=\"SCHEDULE RULESET 217\", Blank Schedule Type Limits Name input -- will not be validated.\n   ** Warning ** ProcessScheduleInput: Schedule:Year=\"SCHEDULE RULESET 218\", Blank Schedule Type Limits Name input -- will not be validated.\n   ** Warning ** ProcessScheduleInput: Schedule:Year=\"SCHEDULE RULESET 219\", Blank Schedule Type Limits Name input -- will not be validated.\n   ** Warning ** ProcessScheduleInput: Schedule:Year=\"SCHEDULE RULESET 22\", Blank Schedule Type Limits Name input -- will not be validated.\n   ** Warning ** ProcessScheduleInput: Schedule:Year=\"SCHEDULE RULESET 220\", Blank Schedule Type Limits Name input -- will not be validated.\n   ** Warning ** ProcessScheduleInput: Schedule:Year=\"SCHEDULE RULESET 221\", Blank Schedule Type Limits Name input -- will not be validated.\n   ** Warning ** ProcessScheduleInput: Schedule:Year=\"SCHEDULE RULESET 222\", Blank Schedule Type Limits Name input -- will not be validated.\n   ** Warning ** ProcessScheduleInput: Schedule:Year=\"SCHEDULE RULESET 223\", Blank Schedule Type Limits Name input -- will not be validated.\n   ** Warning ** ProcessScheduleInput: Schedule:Year=\"SCHEDULE RULESET 224\", Blank Schedule Type Limits Name input -- will not be validated.\n   ** Warning ** ProcessScheduleInput: Schedule:Year=\"SCHEDULE RULESET 225\", Blank Schedule Type Limits Name input -- will not be validated.\n   ** Warning ** ProcessScheduleInput: Schedule:Year=\"SCHEDULE RULESET 226\", Blank Schedule Type Limits Name input -- will not be validated.\n   ** Warning ** ProcessScheduleInput: Schedule:Year=\"SCHEDULE RULESET 227\", Blank Schedule Type Limits Name input -- will not be validated.\n   ** Warning ** ProcessScheduleInput: Schedule:Year=\"SCHEDULE RULESET 228\", Blank Schedule Type Limits Name input -- will not be validated.\n   ** Warning ** ProcessScheduleInput: Schedule:Year=\"SCHEDULE RULESET 229\", Blank Schedule Type Limits Name input -- will not be validated.\n   ** Warning ** ProcessScheduleInput: Schedule:Year=\"SCHEDULE RULESET 23\", Blank Schedule Type Limits Name input -- will not be validated.\n   ** Warning ** ProcessScheduleInput: Schedule:Year=\"SCHEDULE RULESET 230\", Blank Schedule Type Limits Name input -- will not be validated.\n   ** Warning ** ProcessScheduleInput: Schedule:Year=\"SCHEDULE RULESET 231\", Blank Schedule Type Limits Name input -- will not be validated.\n   ** Warning ** ProcessScheduleInput: Schedule:Year=\"SCHEDULE RULESET 232\", Blank Schedule Type Limits Name input -- will not be validated.\n   ** Warning ** ProcessScheduleInput: Schedule:Year=\"SCHEDULE RULESET 233\", Blank Schedule Type Limits Name input -- will not be validated.\n   ** Warning ** ProcessScheduleInput: Schedule:Year=\"SCHEDULE RULESET 234\", Blank Schedule Type Limits Name input -- will not be validated.\n   ** Warning ** ProcessScheduleInput: Schedule:Year=\"SCHEDULE RULESET 235\", Blank Schedule Type Limits Name input -- will not be validated.\n   ** Warning ** ProcessScheduleInput: Schedule:Year=\"SCHEDULE RULESET 236\", Blank Schedule Type Limits Name input -- will not be validated.\n   ** Warning ** ProcessScheduleInput: Schedule:Year=\"SCHEDULE RULESET 237\", Blank Schedule Type Limits Name input -- will not be validated.\n   ** Warning ** ProcessScheduleInput: Schedule:Year=\"SCHEDULE RULESET 238\", Blank Schedule Type Limits Name input -- will not be validated.\n   ** Warning ** ProcessScheduleInput: Schedule:Year=\"SCHEDULE RULESET 239\", Blank Schedule Type Limits Name input -- will not be validated.\n   ** Warning ** ProcessScheduleInput: Schedule:Year=\"SCHEDULE RULESET 24\", Blank Schedule Type Limits Name input -- will not be validated.\n   ** Warning ** ProcessScheduleInput: Schedule:Year=\"SCHEDULE RULESET 240\", Blank Schedule Type Limits Name input -- will not be validated.\n   ** Warning ** ProcessScheduleInput: Schedule:Year=\"SCHEDULE RULESET 241\", Blank Schedule Type Limits Name input -- will not be validated.\n   ** Warning ** ProcessScheduleInput: Schedule:Year=\"SCHEDULE RULESET 242\", Blank Schedule Type Limits Name input -- will not be validated.\n   ** Warning ** ProcessScheduleInput: Schedule:Year=\"SCHEDULE RULESET 25\", Blank Schedule Type Limits Name input -- will not be validated.\n   ** Warning ** ProcessScheduleInput: Schedule:Year=\"SCHEDULE RULESET 26\", Blank Schedule Type Limits Name input -- will not be validated.\n   ** Warning ** ProcessScheduleInput: Schedule:Year=\"SCHEDULE RULESET 27\", Blank Schedule Type Limits Name input -- will not be validated.\n   ** Warning ** ProcessScheduleInput: Schedule:Year=\"SCHEDULE RULESET 28\", Blank Schedule Type Limits Name input -- will not be validated.\n   ** Warning ** ProcessScheduleInput: Schedule:Year=\"SCHEDULE RULESET 29\", Blank Schedule Type Limits Name input -- will not be validated.\n   ** Warning ** ProcessScheduleInput: Schedule:Year=\"SCHEDULE RULESET 3\", Blank Schedule Type Limits Name input -- will not be validated.\n   ** Warning ** ProcessScheduleInput: Schedule:Year=\"SCHEDULE RULESET 30\", Blank Schedule Type Limits Name input -- will not be validated.\n   ** Warning ** ProcessScheduleInput: Schedule:Year=\"SCHEDULE RULESET 31\", Blank Schedule Type Limits Name input -- will not be validated.\n   ** Warning ** ProcessScheduleInput: Schedule:Year=\"SCHEDULE RULESET 32\", Blank Schedule Type Limits Name input -- will not be validated.\n   ** Warning ** ProcessScheduleInput: Schedule:Year=\"SCHEDULE RULESET 33\", Blank Schedule Type Limits Name input -- will not be validated.\n   ** Warning ** ProcessScheduleInput: Schedule:Year=\"SCHEDULE RULESET 34\", Blank Schedule Type Limits Name input -- will not be validated.\n   ** Warning ** ProcessScheduleInput: Schedule:Year=\"SCHEDULE RULESET 35\", Blank Schedule Type Limits Name input -- will not be validated.\n   ** Warning ** ProcessScheduleInput: Schedule:Year=\"SCHEDULE RULESET 36\", Blank Schedule Type Limits Name input -- will not be validated.\n   ** Warning ** ProcessScheduleInput: Schedule:Year=\"SCHEDULE RULESET 37\", Blank Schedule Type Limits Name input -- will not be validated.\n   ** Warning ** ProcessScheduleInput: Schedule:Year=\"SCHEDULE RULESET 38\", Blank Schedule Type Limits Name input -- will not be validated.\n   ** Warning ** ProcessScheduleInput: Schedule:Year=\"SCHEDULE RULESET 39\", Blank Schedule Type Limits Name input -- will not be validated.\n   ** Warning ** ProcessScheduleInput: Schedule:Year=\"SCHEDULE RULESET 4\", Blank Schedule Type Limits Name input -- will not be validated.\n   ** Warning ** ProcessScheduleInput: Schedule:Year=\"SCHEDULE RULESET 40\", Blank Schedule Type Limits Name input -- will not be validated.\n   ** Warning ** ProcessScheduleInput: Schedule:Year=\"SCHEDULE RULESET 41\", Blank Schedule Type Limits Name input -- will not be validated.\n   ** Warning ** ProcessScheduleInput: Schedule:Year=\"SCHEDULE RULESET 42\", Blank Schedule Type Limits Name input -- will not be validated.\n   ** Warning ** ProcessScheduleInput: Schedule:Year=\"SCHEDULE RULESET 43\", Blank Schedule Type Limits Name input -- will not be validated.\n   ** Warning ** ProcessScheduleInput: Schedule:Year=\"SCHEDULE RULESET 44\", Blank Schedule Type Limits Name input -- will not be validated.\n   ** Warning ** ProcessScheduleInput: Schedule:Year=\"SCHEDULE RULESET 45\", Blank Schedule Type Limits Name input -- will not be validated.\n   ** Warning ** ProcessScheduleInput: Schedule:Year=\"SCHEDULE RULESET 46\", Blank Schedule Type Limits Name input -- will not be validated.\n   ** Warning ** ProcessScheduleInput: Schedule:Year=\"SCHEDULE RULESET 47\", Blank Schedule Type Limits Name input -- will not be validated.\n   ** Warning ** ProcessScheduleInput: Schedule:Year=\"SCHEDULE RULESET 48\", Blank Schedule Type Limits Name input -- will not be validated.\n   ** Warning ** ProcessScheduleInput: Schedule:Year=\"SCHEDULE RULESET 49\", Blank Schedule Type Limits Name input -- will not be validated.\n   ** Warning ** ProcessScheduleInput: Schedule:Year=\"SCHEDULE RULESET 5\", Blank Schedule Type Limits Name input -- will not be validated.\n   ** Warning ** ProcessScheduleInput: Schedule:Year=\"SCHEDULE RULESET 50\", Blank Schedule Type Limits Name input -- will not be validated.\n   ** Warning ** ProcessScheduleInput: Schedule:Year=\"SCHEDULE RULESET 51\", Blank Schedule Type Limits Name input -- will not be validated.\n   ** Warning ** ProcessScheduleInput: Schedule:Year=\"SCHEDULE RULESET 52\", Blank Schedule Type Limits Name input -- will not be validated.\n   ** Warning ** ProcessScheduleInput: Schedule:Year=\"SCHEDULE RULESET 53\", Blank Schedule Type Limits Name input -- will not be validated.\n   ** Warning ** ProcessScheduleInput: Schedule:Year=\"SCHEDULE RULESET 54\", Blank Schedule Type Limits Name input -- will not be validated.\n   ** Warning ** ProcessScheduleInput: Schedule:Year=\"SCHEDULE RULESET 55\", Blank Schedule Type Limits Name input -- will not be validated.\n   ** Warning ** ProcessScheduleInput: Schedule:Year=\"SCHEDULE RULESET 56\", Blank Schedule Type Limits Name input -- will not be validated.\n   ** Warning ** ProcessScheduleInput: Schedule:Year=\"SCHEDULE RULESET 57\", Blank Schedule Type Limits Name input -- will not be validated.\n   ** Warning ** ProcessScheduleInput: Schedule:Year=\"SCHEDULE RULESET 58\", Blank Schedule Type Limits Name input -- will not be validated.\n   ** Warning ** ProcessScheduleInput: Schedule:Year=\"SCHEDULE RULESET 59\", Blank Schedule Type Limits Name input -- will not be validated.\n   ** Warning ** ProcessScheduleInput: Schedule:Year=\"SCHEDULE RULESET 6\", Blank Schedule Type Limits Name input -- will not be validated.\n   ** Warning ** ProcessScheduleInput: Schedule:Year=\"SCHEDULE RULESET 60\", Blank Schedule Type Limits Name input -- will not be validated.\n   ** Warning ** ProcessScheduleInput: Schedule:Year=\"SCHEDULE RULESET 61\", Blank Schedule Type Limits Name input -- will not be validated.\n   ** Warning ** ProcessScheduleInput: Schedule:Year=\"SCHEDULE RULESET 62\", Blank Schedule Type Limits Name input -- will not be validated.\n   ** Warning ** ProcessScheduleInput: Schedule:Year=\"SCHEDULE RULESET 63\", Blank Schedule Type Limits Name input -- will not be validated.\n   ** Warning ** ProcessScheduleInput: Schedule:Year=\"SCHEDULE RULESET 64\", Blank Schedule Type Limits Name input -- will not be validated.\n   ** Warning ** ProcessScheduleInput: Schedule:Year=\"SCHEDULE RULESET 65\", Blank Schedule Type Limits Name input -- will not be validated.\n   ** Warning ** ProcessScheduleInput: Schedule:Year=\"SCHEDULE RULESET 66\", Blank Schedule Type Limits Name input -- will not be validated.\n   ** Warning ** ProcessScheduleInput: Schedule:Year=\"SCHEDULE RULESET 67\", Blank Schedule Type Limits Name input -- will not be validated.\n   ** Warning ** ProcessScheduleInput: Schedule:Year=\"SCHEDULE RULESET 68\", Blank Schedule Type Limits Name input -- will not be validated.\n   ** Warning ** ProcessScheduleInput: Schedule:Year=\"SCHEDULE RULESET 69\", Blank Schedule Type Limits Name input -- will not be validated.\n   ** Warning ** ProcessScheduleInput: Schedule:Year=\"SCHEDULE RULESET 7\", Blank Schedule Type Limits Name input -- will not be validated.\n   ** Warning ** ProcessScheduleInput: Schedule:Year=\"SCHEDULE RULESET 70\", Blank Schedule Type Limits Name input -- will not be validated.\n   ** Warning ** ProcessScheduleInput: Schedule:Year=\"SCHEDULE RULESET 71\", Blank Schedule Type Limits Name input -- will not be validated.\n   ** Warning ** ProcessScheduleInput: Schedule:Year=\"SCHEDULE RULESET 72\", Blank Schedule Type Limits Name input -- will not be validated.\n   ** Warning ** ProcessScheduleInput: Schedule:Year=\"SCHEDULE RULESET 73\", Blank Schedule Type Limits Name input -- will not be validated.\n   ** Warning ** ProcessScheduleInput: Schedule:Year=\"SCHEDULE RULESET 74\", Blank Schedule Type Limits Name input -- will not be validated.\n   ** Warning ** ProcessScheduleInput: Schedule:Year=\"SCHEDULE RULESET 75\", Blank Schedule Type Limits Name input -- will not be validated.\n   ** Warning ** ProcessScheduleInput: Schedule:Year=\"SCHEDULE RULESET 76\", Blank Schedule Type Limits Name input -- will not be validated.\n   ** Warning ** ProcessScheduleInput: Schedule:Year=\"SCHEDULE RULESET 77\", Blank Schedule Type Limits Name input -- will not be validated.\n   ** Warning ** ProcessScheduleInput: Schedule:Year=\"SCHEDULE RULESET 78\", Blank Schedule Type Limits Name input -- will not be validated.\n   ** Warning ** ProcessScheduleInput: Schedule:Year=\"SCHEDULE RULESET 79\", Blank Schedule Type Limits Name input -- will not be validated.\n   ** Warning ** ProcessScheduleInput: Schedule:Year=\"SCHEDULE RULESET 8\", Blank Schedule Type Limits Name input -- will not be validated.\n   ** Warning ** ProcessScheduleInput: Schedule:Year=\"SCHEDULE RULESET 80\", Blank Schedule Type Limits Name input -- will not be validated.\n   ** Warning ** ProcessScheduleInput: Schedule:Year=\"SCHEDULE RULESET 81\", Blank Schedule Type Limits Name input -- will not be validated.\n   ** Warning ** ProcessScheduleInput: Schedule:Year=\"SCHEDULE RULESET 82\", Blank Schedule Type Limits Name input -- will not be validated.\n   ** Warning ** ProcessScheduleInput: Schedule:Year=\"SCHEDULE RULESET 83\", Blank Schedule Type Limits Name input -- will not be validated.\n   ** Warning ** ProcessScheduleInput: Schedule:Year=\"SCHEDULE RULESET 84\", Blank Schedule Type Limits Name input -- will not be validated.\n   ** Warning ** ProcessScheduleInput: Schedule:Year=\"SCHEDULE RULESET 85\", Blank Schedule Type Limits Name input -- will not be validated.\n   ** Warning ** ProcessScheduleInput: Schedule:Year=\"SCHEDULE RULESET 86\", Blank Schedule Type Limits Name input -- will not be validated.\n   ** Warning ** ProcessScheduleInput: Schedule:Year=\"SCHEDULE RULESET 87\", Blank Schedule Type Limits Name input -- will not be validated.\n   ** Warning ** ProcessScheduleInput: Schedule:Year=\"SCHEDULE RULESET 88\", Blank Schedule Type Limits Name input -- will not be validated.\n   ** Warning ** ProcessScheduleInput: Schedule:Year=\"SCHEDULE RULESET 89\", Blank Schedule Type Limits Name input -- will not be validated.\n   ** Warning ** ProcessScheduleInput: Schedule:Year=\"SCHEDULE RULESET 9\", Blank Schedule Type Limits Name input -- will not be validated.\n   ** Warning ** ProcessScheduleInput: Schedule:Year=\"SCHEDULE RULESET 90\", Blank Schedule Type Limits Name input -- will not be validated.\n   ** Warning ** ProcessScheduleInput: Schedule:Year=\"SCHEDULE RULESET 91\", Blank Schedule Type Limits Name input -- will not be validated.\n   ** Warning ** ProcessScheduleInput: Schedule:Year=\"SCHEDULE RULESET 92\", Blank Schedule Type Limits Name input -- will not be validated.\n   ** Warning ** ProcessScheduleInput: Schedule:Year=\"SCHEDULE RULESET 93\", Blank Schedule Type Limits Name input -- will not be validated.\n   ** Warning ** ProcessScheduleInput: Schedule:Year=\"SCHEDULE RULESET 94\", Blank Schedule Type Limits Name input -- will not be validated.\n   ** Warning ** ProcessScheduleInput: Schedule:Year=\"SCHEDULE RULESET 95\", Blank Schedule Type Limits Name input -- will not be validated.\n   ** Warning ** ProcessScheduleInput: Schedule:Year=\"SCHEDULE RULESET 96\", Blank Schedule Type Limits Name input -- will not be validated.\n   ** Warning ** ProcessScheduleInput: Schedule:Year=\"SCHEDULE RULESET 97\", Blank Schedule Type Limits Name input -- will not be validated.\n   ** Warning ** ProcessScheduleInput: Schedule:Year=\"SCHEDULE RULESET 98\", Blank Schedule Type Limits Name input -- will not be validated.\n   ** Warning ** ProcessScheduleInput: Schedule:Year=\"SCHEDULE RULESET 99\", Blank Schedule Type Limits Name input -- will not be validated.\n   ** Warning ** ProcessScheduleInput: Schedule:Constant=\"ALWAYS OFF DISCRETE\", Blank Schedule Type Limits Name input -- will not be validated.\n   ** Warning ** ProcessScheduleInput: Schedule:Constant=\"ALWAYS ON CONTINUOUS\", Blank Schedule Type Limits Name input -- will not be validated.\n   ** Warning ** CheckUsedConstructions: There are 24 nominally unused constructions in input.\n   **   ~~~   ** For explicit details on each unused construction, use Output:Diagnostics,DisplayExtraWarnings;\n   ************* Beginning System Sizing Calculations\n   ** Warning ** GetDXCoils: Coil:Cooling:DX:SingleSpeed=\"COIL COOLING DX SINGLE SPEED 59 5KBTU/HR 11.0EER\", invalid\n   **   ~~~   ** ...Part Load Fraction Correlation Curve Name = DXCOOL-NECB2011-REF-COOLPLFFPLR 54 has out of range value.\n   **   ~~~   ** ...Curve maximum must be <= 1.0, curve max at PLR = 0.99 is 1.015\n   **   ~~~   ** ...Setting curve maximum to 1.0 and simulation continues.\n   ** Warning ** GetDXCoils: Coil:Cooling:DX:SingleSpeed=\"COIL COOLING DX SINGLE SPEED 56 4KBTU/HR 11.0EER\", invalid\n   **   ~~~   ** ...Part Load Fraction Correlation Curve Name = DXCOOL-NECB2011-REF-COOLPLFFPLR 51 has out of range value.\n   **   ~~~   ** ...Curve maximum must be <= 1.0, curve max at PLR = 0.99 is 1.015\n   **   ~~~   ** ...Setting curve maximum to 1.0 and simulation continues.\n   ** Warning ** GetDXCoils: Coil:Cooling:DX:SingleSpeed=\"COIL COOLING DX SINGLE SPEED 57 4KBTU/HR 11.0EER\", invalid\n   **   ~~~   ** ...Part Load Fraction Correlation Curve Name = DXCOOL-NECB2011-REF-COOLPLFFPLR 52 has out of range value.\n   **   ~~~   ** ...Curve maximum must be <= 1.0, curve max at PLR = 0.99 is 1.015\n   **   ~~~   ** ...Setting curve maximum to 1.0 and simulation continues.\n   ** Warning ** GetDXCoils: Coil:Cooling:DX:SingleSpeed=\"COIL COOLING DX SINGLE SPEED 58 7KBTU/HR 10.9EER\", invalid\n   **   ~~~   ** ...Part Load Fraction Correlation Curve Name = DXCOOL-NECB2011-REF-COOLPLFFPLR 53 has out of range value.\n   **   ~~~   ** ...Curve maximum must be <= 1.0, curve max at PLR = 0.99 is 1.015\n   **   ~~~   ** ...Setting curve maximum to 1.0 and simulation continues.\n   ** Warning ** GetDXCoils: Coil:Cooling:DX:SingleSpeed=\"COIL COOLING DX SINGLE SPEED 55 8KBTU/HR 10.8EER\", invalid\n   **   ~~~   ** ...Part Load Fraction Correlation Curve Name = DXCOOL-NECB2011-REF-COOLPLFFPLR 50 has out of range value.\n   **   ~~~   ** ...Curve maximum must be <= 1.0, curve max at PLR = 0.99 is 1.015\n   **   ~~~   ** ...Setting curve maximum to 1.0 and simulation continues.\n   ** Warning ** GetDXCoils: Coil:Cooling:DX:SingleSpeed=\"COIL COOLING DX SINGLE SPEED 63 9KBTU/HR 10.6EER\", invalid\n   **   ~~~   ** ...Part Load Fraction Correlation Curve Name = DXCOOL-NECB2011-REF-COOLPLFFPLR 59 has out of range value.\n   **   ~~~   ** ...Curve maximum must be <= 1.0, curve max at PLR = 0.99 is 1.015\n   **   ~~~   ** ...Setting curve maximum to 1.0 and simulation continues.\n   ** Warning ** GetDXCoils: Coil:Cooling:DX:SingleSpeed=\"COIL COOLING DX SINGLE SPEED 62 9KBTU/HR 10.5EER\", invalid\n   **   ~~~   ** ...Part Load Fraction Correlation Curve Name = DXCOOL-NECB2011-REF-COOLPLFFPLR 58 has out of range value.\n   **   ~~~   ** ...Curve maximum must be <= 1.0, curve max at PLR = 0.99 is 1.015\n   **   ~~~   ** ...Setting curve maximum to 1.0 and simulation continues.\n   ** Warning ** GetDXCoils: Coil:Cooling:DX:SingleSpeed=\"COIL COOLING DX SINGLE SPEED 60 12KBTU/HR 9.9EER\", invalid\n   **   ~~~   ** ...Part Load Fraction Correlation Curve Name = DXCOOL-NECB2011-REF-COOLPLFFPLR 56 has out of range value.\n   **   ~~~   ** ...Curve maximum must be <= 1.0, curve max at PLR = 0.99 is 1.015\n   **   ~~~   ** ...Setting curve maximum to 1.0 and simulation continues.\n   ** Warning ** GetDXCoils: Coil:Cooling:DX:SingleSpeed=\"COIL COOLING DX SINGLE SPEED 61 12KBTU/HR 10.0EER\", invalid\n   **   ~~~   ** ...Part Load Fraction Correlation Curve Name = DXCOOL-NECB2011-REF-COOLPLFFPLR 57 has out of range value.\n   **   ~~~   ** ...Curve maximum must be <= 1.0, curve max at PLR = 0.99 is 1.015\n   **   ~~~   ** ...Setting curve maximum to 1.0 and simulation continues.\n   ** Warning ** GetDXCoils: Coil:Cooling:DX:SingleSpeed=\"COIL COOLING DX SINGLE SPEED 77 5KBTU/HR 11.0EER\", invalid\n   **   ~~~   ** ...Part Load Fraction Correlation Curve Name = DXCOOL-NECB2011-REF-COOLPLFFPLR 74 has out of range value.\n   **   ~~~   ** ...Curve maximum must be <= 1.0, curve max at PLR = 0.99 is 1.015\n   **   ~~~   ** ...Setting curve maximum to 1.0 and simulation continues.\n   ** Warning ** GetDXCoils: Coil:Cooling:DX:SingleSpeed=\"COIL COOLING DX SINGLE SPEED 73 5KBTU/HR 11.0EER\", invalid\n   **   ~~~   ** ...Part Load Fraction Correlation Curve Name = DXCOOL-NECB2011-REF-COOLPLFFPLR 70 has out of range value.\n   **   ~~~   ** ...Curve maximum must be <= 1.0, curve max at PLR = 0.99 is 1.015\n   **   ~~~   ** ...Setting curve maximum to 1.0 and simulation continues.\n   ** Warning ** GetDXCoils: Coil:Cooling:DX:SingleSpeed=\"COIL COOLING DX SINGLE SPEED 75 5KBTU/HR 11.0EER\", invalid\n   **   ~~~   ** ...Part Load Fraction Correlation Curve Name = DXCOOL-NECB2011-REF-COOLPLFFPLR 72 has out of range value.\n   **   ~~~   ** ...Curve maximum must be <= 1.0, curve max at PLR = 0.99 is 1.015\n   **   ~~~   ** ...Setting curve maximum to 1.0 and simulation continues.\n   ** Warning ** GetDXCoils: Coil:Cooling:DX:SingleSpeed=\"COIL COOLING DX SINGLE SPEED 76 8KBTU/HR 10.9EER\", invalid\n   **   ~~~   ** ...Part Load Fraction Correlation Curve Name = DXCOOL-NECB2011-REF-COOLPLFFPLR 73 has out of range value.\n   **   ~~~   ** ...Curve maximum must be <= 1.0, curve max at PLR = 0.99 is 1.015\n   **   ~~~   ** ...Setting curve maximum to 1.0 and simulation continues.\n   ** Warning ** GetDXCoils: Coil:Cooling:DX:SingleSpeed=\"COIL COOLING DX SINGLE SPEED 74 8KBTU/HR 10.8EER\", invalid\n   **   ~~~   ** ...Part Load Fraction Correlation Curve Name = DXCOOL-NECB2011-REF-COOLPLFFPLR 71 has out of range value.\n   **   ~~~   ** ...Curve maximum must be <= 1.0, curve max at PLR = 0.99 is 1.015\n   **   ~~~   ** ...Setting curve maximum to 1.0 and simulation continues.\n   ** Warning ** GetDXCoils: Coil:Cooling:DX:SingleSpeed=\"COIL COOLING DX SINGLE SPEED 81 9KBTU/HR 10.5EER\", invalid\n   **   ~~~   ** ...Part Load Fraction Correlation Curve Name = DXCOOL-NECB2011-REF-COOLPLFFPLR 79 has out of range value.\n   **   ~~~   ** ...Curve maximum must be <= 1.0, curve max at PLR = 0.99 is 1.015\n   **   ~~~   ** ...Setting curve maximum to 1.0 and simulation continues.\n   ** Warning ** GetDXCoils: Coil:Cooling:DX:SingleSpeed=\"COIL COOLING DX SINGLE SPEED 80 9KBTU/HR 10.5EER\", invalid\n   **   ~~~   ** ...Part Load Fraction Correlation Curve Name = DXCOOL-NECB2011-REF-COOLPLFFPLR 78 has out of range value.\n   **   ~~~   ** ...Curve maximum must be <= 1.0, curve max at PLR = 0.99 is 1.015\n   **   ~~~   ** ...Setting curve maximum to 1.0 and simulation continues.\n   ** Warning ** GetDXCoils: Coil:Cooling:DX:SingleSpeed=\"COIL COOLING DX SINGLE SPEED 78 12KBTU/HR 10.0EER\", invalid\n   **   ~~~   ** ...Part Load Fraction Correlation Curve Name = DXCOOL-NECB2011-REF-COOLPLFFPLR 75 has out of range value.\n   **   ~~~   ** ...Curve maximum must be <= 1.0, curve max at PLR = 0.99 is 1.015\n   **   ~~~   ** ...Setting curve maximum to 1.0 and simulation continues.\n   ** Warning ** GetDXCoils: Coil:Cooling:DX:SingleSpeed=\"COIL COOLING DX SINGLE SPEED 79 12KBTU/HR 10.0EER\", invalid\n   **   ~~~   ** ...Part Load Fraction Correlation Curve Name = DXCOOL-NECB2011-REF-COOLPLFFPLR 76 has ou
[...]
+aEOTqdWawSWo04WZ0NTsz1SQ7mhDkanZmpCmCtO0cyZAmBMUvkeRIE4Liwy9Z0oSg+PBLnjQhKD78milNSbJ1OzPZNFmakmSrd2a4ab40JcnW8Mx805Rpyl1p63hmxGnWNCXJ1vHMlEOchjgNcdo9QsRp9UKchjgNcVpmIU5DnNbpWSFOa+zf4ecRp20vxGmb1cPntPbMLwAOOOCAAw444IADDjjggDN4nD3TDkADDTTQQAMNNNBAAw000AyH5tHoDsABBxxwwAEHHHDAAQcccMr3Q5y2XojTNuK02UDEabMhiNNmOxOnzW6/FloquXEFjV1BE1fQ1BU0cwXNXUELV9DSFdT4/r2WZOt2spU72dqdbPVOtn4nW8GTreHJVvFk63hl63jlu79tHa9sHa+6dby9OK2ZVS5OU3LiV6lcnKbkxLdAuThNyYlvgHJxmpITn35BnCYFuRqdGW+COE0KcpU6M9sEcZoU5Op1ZrAJ4jTpZnQ1OzPVBHGaFORqdmaklYvTmjmCOE0Kil8iQZwmBcWHXxCnSUHx4RfEaVJQfPgVcZqWZOt2ZrIp4jQtyVbvzHBTxGlakq3hmfmmiNO0u9LW8cyIU8RpWpKt45kphzgNcRritHuEiNPqhTgNcRritMxCnIY4rdOzQpzW2L/DzyNO216I0zarh89p7ZlfABxwwAEHHHDAAQcccMABZ/A4e6YdgAYaaKCBBhpooIEGGmigGQ7No9EdgAMOOOCAAw444IADDjjglO+HOG29EKdtxGnzgYjT5kMQp813Jk47PKgs3jQlZ2zKmZhypqacmSlnbspZmHKWppzG1+6lIFejk6vSydXp5Cp1crU6uWqdXL1OrmInV7MrV7Mr213tanblanbVqdntBWmNqHI/mhATvkLldjQhJjz35W40ISY88+VmNCEmPO+CF03JMfU4HmOCFE3JMVU5nmGCEU3JMbU5HmCCDk25B019jqeX4EJTckx9jkdXuQitESN40JSc8OURLGhKTnjcBQeakhMed8GApuSEx13xn0lBrkbHE0yRn0lBrlLHQ0wxn0lBrl7Hc0zRnkk3o6vZ8ShTnGdSkKvZ8TRDeIbwDOHZPUKEZ/VCeIbwDOFZZiE8Q3jW6VkhPGvs3+HnEZ5tL4Rnm9XD56v2zAsADjjggAMOOOCAAw444IAzeJw90wVAAw000EADDTTQQAMNNNAMh+bRaArAAQcccMABBxxwwAEHHHDK90N4tl4IzzbCs8VAhGeLIQjPFjsUnh1OTcYzIWjsCpq4gqauoJkraO4KWriClq6g975wryTZup1s5U62didbvZOt38lW8GRreLJVPNk6Xtk6Xvnub1vHK1vHq24d7yJC285STGjlOfGrpLjQynPiW0CxoZXnxDeA4kMrz4lPv2REE4Jcjc6MN0mKJgS5Sp2ZbZIXTQhy9Toz2CQ1mnAzupqdmWqSHU0IcjU7M9IUQdp2jmRIE4Lil0hypAlB8eGXLGlCUHz4JU+aEBQffs2UpiTZup2ZbJosTUmy1Tsz3DRfmpJka3hmvmnKNOWutHU8M+I0a5qSZOt4ZsohTkOchjjtHiHitHohTkOchjgtsxCnIU7r9KwQpzX27/DziNO2F+K0zerhc1p75hcABxxwwAEHHHDAAQcccMAZPM6eaQeggQYaaKCBBhpooIEGGmiGQ/NodAfggAMOOOCAAw444IADDjjl+yFOWy/EaRtx2nIg4rTlEMRpy52J02a3Xwstldy4gsauoIkraOoKmrmC5q6ghSto6QpqfP9eS7J1O9nKnWztTrZ6J1u/k63gydbwZKt4snW8snW88t3fto5Xto5X3TreXpzWzCoXpyk58atULk5TcuJboFycpuTEN0C5OE3JiU+/IE6TglyNzow3QZwmBblKnZltgjhNCnL1OjPYBHGadDO6mp2ZaoI4TQpyNTsz0srFac0cQZwmBcUvkSBOk4Liwy+I06Sg+PAL4jQpKD78ijhNS7J1OzPZFHGalmSrd2a4KeI0LcnW8Mx8U8Rp2l1p63hmxCniNC3J1vHMlEOchjgNcdo9QsRp9UKchjgNcVpmIU5DnNbpWSFOa+zf4ecRp20vxGmb1cPntPbMLwAOOOCAAw444IADDjjggDN4nD3TDkADDTTQQAMNNNBAAw000AyH5tHoDsABBxxwwAEHHHDAAQcccMr3Q5y2XojT7sRpi2F406aHA/Cm3UDiTSsKwpv2cBDetFZJeNPwpuFNw5uGNw1vGt40vGl40371ZsSb9nAQ3rQHg/Cm4U3Dm4Y3zZaEN61dEt60GAZvGt609xfetDt8vGnvL7xpbRbetG4/jzcNb1qnZ4U3rbF/h5/Hm7a98KZtVg8f09ozvQA44IADDjjggAMOOOCAA87gcfbMOgANNNBAAw000EADDTTQQDMcmkdjOwAHHHDAAQcccMABBxxwwCnfD2/aeuFN23jTDgciTktDEKelnYnTDg8qizdNyRmbciamnKkpZ2bKmZtyFqacpSmn8bV7KcjV6OSqdHJ1OrlKnVytTq5aJ1evk6vYydXsytXsynZXu5pduZpddWp2e0FaI6rcjybEhK9QuR1NiAnPfbkbTYgJz3y5GU2ICc+74EVTckw9jseYIEVTckxVjmeYYERTckxtjgeYoENT7kFTn+PpJbjQlBxTn+PRVS5Ca8QIHjQlJ3x5BAuakhMed8GBpuSEx10woCk54XFX/GdSkKvR8QRT5GdSkKvU8RBTzGdSkKvX8RxTtGfSzehqdjzKFOeZFORqdjzNEJ4hPEN4do8Q4Vm9EJ4hPEN4llkIzxCedXpWCM8a+3f4eYRn2wvh2Wb18PmqPfMCgAMOOOCAAw444IADDjjgDB5nz3QB0EADDTTQQAMNNNBAAw00w6F5NJoCcMABBxxwwAEHHHDAAQec8v0Qnq0XwrON8CwNRHhWDUF4Vu1QeHY4NRnPhKCxK2jiCpq6gmauoLkraOEKWrqC3vvCvZJk63aylTvZ2p1s9U62fidbwZOt4clW8WTreGXreOW7v20dr2wdr7p1vIsIbTtLMaGV58SvkuJCK8+JbwHFhlaeE98Aig+tPCc+/ZIRTQhyNToz3iQpmhDkKnVmtkleNCHI1evMYJPUaMLN6Gp2ZqpJdjQhyNXszEhTBGnbOZIhTQiKXyLJkSYExYdfsqQJQfHhlzxpQlB8+DVTmpJk63ZmsmmyNCXJVu/McNN8aUqSreGZ+aYp05S70tbxzIjTrGlKkq3jmSmHOA1xGuK0e4SI0+qFOA1xGuK0zEKchjit07NCnNbYv8PPI07bXojTNquHz2ntmV8AHHDAAQcccMABBxxwwAFn8Dh7ph2ABhpooIEGGmiggQYaaKAZDs2j0R2AAw444IADDjjggAMOOOCU74c4bb0Qp23EadVAxGnjIYjTxjsTp81uvxZaKrlxBY1dQRNX0NQVNHMFzV1BC1fQ0hXU+P69lmTrdrKVO9nanWz1TrZ+J1vBk63hyVbxZOt4Zet45bu/bR2vbB2vunW8vTitmVUuTlNy4lepXJym5MS3QLk4TcmJb4BycZqSE59+QZwmBbkanRlvgjhNCnKVOjPbBHGaFOTqdWawCeI06WZ0NTsz1QRxmhTkanZmpJWL05o5gjhNCopfIkGcJgXFh18Qp0lB8eEXxGlSUHz4FXGalmTrdmayKeI0LclW78xwU8RpWpKt4Zn5pojTtLvS1vHMiFPEaVqSreOZKYc4DXEa4rR7hIjT6oU4DXEa4rTMQpyGOK3Ts0Kc1ti/w88jTtteiNM2q4fPae2ZXwAccMABBxxwwAEHHHDAAWfwOHumHYAGGmiggQYaaKCBBhpooBkOzaPRHYADDjjggAMOOOCAAw444JTvhzhtvRCnbcRp44GI0yZDEKdNdiZOOzyoLN40JWdsypmYcqamnJkpZ27KWZhylqacxtfupSBXo5Or0snV6eQqdXK1OrlqnVy9Tq5iJ1ezK1ezK9td7Wp25Wp21anZ7QVpjahyP5oQE75C5XY0ISY89+VuNCEmPPPlZjQhJjzvghdNyTH1OB5jghRNyTFVOZ5hghFNyTG1OR5ggg5NuQdNfY6nl+BCU3JMfY5HV7kIrREjeNCUnPDlESxoSk543AUHmpITHnfBgKbkhMdd8Z9JQa5GxxNMkZ9JQa5Sx0NMMZ9JQa5ex3NM0Z5JN6Or2fEoU5xnUpCr2fE0Q3iG8Azh2T1ChGf1QniG8AzhWWYhPEN41ulZITxr7N/h5xGebS+EZ5vVw+er9swLAA444IADDjjggAMOOOCAM3icPdMFQAMNNNBAAw000EADDTTQDIfm0WgKwAEHHHDAAQcccMABBxxwyvdDeLZeCM82wrPJQIRn0yEIz6Y7FJ4dTk3GMyFo7AqauIKmrqCZK2juClq4gpauoPe+cK8k2bqdbOVOtnYnW72Trd/JVvBka3iyVTzZOl7ZOl757m9bxytbx6tuHe8iQtvOUkxo5Tnxq6S40Mpz4ltAsaGV58Q3gOJDK8+JT79kRBOCXI3OjDdJiiYEuUqdmW2SF00IcvU6M9gkNZpwM7qanZlqkh1NCHI1OzPSFEHado5kSBOC4pdIcqQJQfHhlyxpQlB8+CVPmhAUH37NlKYk2bqdmWyaLE1JstU7M9w0X5qSZGt4Zr5pyjTlrrR1PDPiNGuakmTreGbKIU5DnIY47R4h4rR6IU5DnIY4LbMQpyFO6/SsEKc19u/w84jTthfitM3q4XNae+YXAAcccMABBxxwwAEHHHDAGTzOnmkHoIEGGmiggQYaaKCBBhpohkPzaHQH4IADDjjggAMOOOCAAw445fshTlsvxGkbcdp0IOK02RDEabOdidNmt18LLZXcuILGrqCJK2jqCpq5guauoIUraOkKanz/XkuydTvZyp1s7U62eidbv5Ot4MnW8GSreLJ1vLJ1vPLd37aOV7aOV9063l6c1swqF6cpOfGrVC5OU3LiW6BcnKbkxDdAuThNyYlPvyBOk4Jcjc6MN0GcJgW5Sp2ZbYI4TQpy9Toz2ARxmnQzupqdmWqCOE0KcjU7M9LKxWnNHEGcJgXFL5EgTpOC4sMviNOkoPjwC+I0KSg+/Io4TUuydTsz2RRxmpZkq3dmuCniNC3J1vDMfFPEadpdaet4ZsQp4jQtydbxzJRDnIY4DXHaPULEafVCnIY4DXFaZiFOQ5zW6VkhTmvs3+HnEadtL8Rpm9XD57T2zC8ADjjggAMOOOCAAw444IAzeJw90w5AAw000EADDTTQQAMNNNAMh+bR6A7AAQcccMABBxxwwAEHHHDK90Octl6I0zbitNlAxGnzIYjT5jsTpx0eVBZvmpIzNuVMTDlTU87MlDM35SxMOUtTTuNr91KQq9HJVenk6nRylTq5Wp1ctU6uXidXsZOr2ZWr2ZXtrnY1u3I1u+rU7PaCtEZUuR9NiAlfoXI7mhATnvtyN5oQE575cjOaEBOed8GLpuSYehyPMUGKpuSYqhzPMMGIpuSY2hwPMEGHptyDpj7H00twoSk5pj7Ho6tchNaIETxoSk748ggWNCUnPO6CA03JCY+7YEBTcsLjrvjPpCBXo+MJpsjPpCBXqeMhppjPpCBXr+M5pmjPpJvR1ex4lCnOMynI1ex4miE8Q3iG8OweIcKzeiE8Q3iG8CyzEJ4hPOv0rBCeNfbv8PMIz7YXwrPN6uHzVXvmBQAHHHDAAQcccMABBxxwwBk8zp7pAqCBBhpooIEGGmiggQYaaIZD82g0BeCAAw444IADDjjggAMOOOX7ITxbL4RnG+HZfCDCs8UQhGeLHQrPDqcm45kQNHYFTVxBU1fQzBU0dwUtXEFLV9B7X7hXkmzdTrZyJ1u7k63eydbvZCt4sjU82SqebB2vbB2vfPe3reOVreNVt453EaFtZykmtPKc+FVSXGjlOfEtoNjQynPiG0DxoZXnxKdfMqIJQa5GZ8abJEUTglylzsw2yYsmBLl6nRlskhpNuBldzc5MNcmOJgS5mp0ZaYogbTtHMqQJQfFLJDnShKD48EuWNCEoPvySJ00Iig+/ZkpTkmzdzkw2TZamJNnqnRlumi9NSbI1PDPfNGWaclfaOp4ZcZo1TUmydTwz5RCnIU5DnHaPEHFavRCnIU5DnJZZiNMQp3V6VojTGvt3+HnEadsLcdpm9fA5rT3zC4ADDjjggAMOOOCAAw444AweZ8+0A9BAAw000EADDTTQQAMNNMOheTS6A3DAAQcccMABBxxwwAEHnPL9EKetF+K0jThtMRBx2nII4rTlzsRps9uvhZZKblxBY1fQxBU0dQXNXEFzV9DCFbR0BTW+f68l2bqdbOVOtnYnW72Trd/JVvBka3iyVTzZOl7ZOl757m9bxytbx6tuHW8vTmtmlYvTlJz4VSoXpyk58S1QLk5TcuIboFycpuTEp18Qp0lBrkZnxpsgTpOCXKXOzDZBnCYFuXqdGWyCOE26GV3Nzkw1QZwmBbmanRlp5eK0Zo4gTpOC4pdIEKdJQfHhF8RpUlB8+AVxmhQUH35FnKYl2bqdmWyKOE1LstU7M9wUcZqWZGt4Zr4p4jTtrrR1PDPiFHGalmTreGbKIU5DnIY47R4h4rR6IU5DnIY4LbMQpyFO6/SsEKc19u/w84jTthfitM3q4XNae+YXAAcccMABBxxwwAEHHHDAGTzOnmkHoIEGGmiggQYaaKCBBhpohkPzaHQH4IADDjjggAMOOOCAAw445fshTlsvxGkbcdpyGOK02eEAxGk3kLsSpx0eVBZvmpIzNuVMTDlTU87MlDM35SxMOUtTTuNr91KQq9HJVenk6nRylTq5Wp1ctU6uXidXsZOr2ZWr2ZXtrnY1u3I1u+rU7PaCtEZUuR9NiAlfoXI7mhATnvtyN5oQE575cjOaEBOed8GLpuSYehyPMUGKpuSYqhzPMMGIpuSY2hwPMEGHptyDpj7H00twoSk5pj7Ho6tchNaIETxoSk748ggWNCUnPO6CA03JCY+7YEBTcsLjrvjPpCBXo+MJpsjPpCBXqeMhppjPpCBXr+M5pmjPpJvR1ex4lCnOMynI1ex4miE8Q3iG8OweIcKzeiE8Q3iG8CyzEJ4hPOv0rBCeNfbv8PMIz7YXwrPN6uHzVXvmBQAHHHDAAQcccMABBxxwwBk8zp7pAqCBBhpooIEGGmiggQYaaIZD82g0BeCAAw444IADDjjggAMOOOX7ITxbL4Rnd8KzofjO0hB8ZwnfGb6zh79mj+8M3xm+M3xnbYLwneE7w3eG7wzfGb4zfGf4zjoNLnxn+M5aBeE7ezgI39nDQfjOHg7CdxbB4DvDd/b+wnd2h4/v7P2F76zNwnfW7efxneE76/Ss8J019u/w8/jOthe+s83q4eNVe6YFAAcccMABBxxwwAEHHHDAGTzOntkCoIEGGmiggQYaaKCBBhpohkPzaCwF4IADDjjggAMOOOCAAw445fvhO1svfGcb39nhQIRn1RCEZ9UOhWeHU5PxTAgau4ImrqCpK2jmCpq7ghauoKUr6L0v3CtJtm4nW7mTrd3JVu9k63eyFTzZGp5sFU+2jle2jle++9vW8crW8apbx7uI0LazFBNaeU78KikutPKc+BZQbGjlOfENoPjQynPi0y8Z0YQgV6Mz402SoglBrlJnZpvkRROCXL3ODDZJjSbcjK5mZ6aaZEcTglzNzow0RZC2nSMZ0oSg+CWSHGlCUHz4JUuaEBQffsmTJgTFh18zpSlJtm5nJpsmS1OSbPXODDfNl6Yk2RqemW+aMk25K20dz4w4zZqmJNk6nplyiNMQpyFOu0eIOK1eiNMQpyFOyyzEaYjTOj0rxGmN/Tv8POK07YU4bbN6+JzWnvkFwAEHHHDAAQcccMABBxxwBo+zZ9oBaKCBBhpooIEGGmiggQaa4dA8Gt0BOOCAAw444IADDjjggANO+X6I09YLcdpGnJYGIk4bD0GcNt6ZOG12+7XQUsmNK2jsCpq4gqauoJkraO4KWriClq6gxvfvtSRbt5Ot3MnW7mSrd7L1O9kKnmwNT7aKJ1vHK1vHK9/9bet4Zet41a3j7cVpzaxycZqSE79K5eI0JSe+BcrFaUpOfAOUi9OUnPj0C+I0KcjV6Mx4E8RpUpCr1JnZJojTpCBXrzODTRCnSTejq9mZqSaI06QgV7MzI61cnNbMEcRpUlD8EgniNCkoPvyCOE0Kig+/IE6TguLDr4jTtCRbtzOTTRGnaUm2emeGmyJO05JsDc/MN0Wcpt2Vto5nRpwiTtOSbB3PTDnEaYjTEKfdI0ScVi/EaYjTEKdlFuI0xGmdnhXitMb+HX4ecdr2Qpy2WT18TmvP/ALggAMOOOCAAw444IADDjiDx9kz7QA00EADDTTQQAMNNNBAA81waB6N7gAccMABBxxwwAEHHHDAAad8P8Rp64U4bSNOqwYiTpsMQZw22Zk47fCgsnjTlJyxKWdiypmacmamnLkpZ2HKWZpyGl+7l4JcjU6uSidXp5Or1MnV6uSqdXL1OrmKnVzNrlzNrmx3tavZlavZVadmtxekNaLK/WhCTPgKldvRhJjw3Je70YSY8MyXm9GEmPC8C140JcfU43iMCVI0JcdU5XiGCUY0JcfU5niACTo05R409TmeXoILTckx9TkeXeUitEaM4EFTcsKXR7CgKTnhcRccaEpOeNwFA5qSEx53xX8mBbkaHU8wRX4mBblKHQ8xxXwmBbl6Hc8xRXsm3YyuZsejTHGeSUGuZsfTDOEZwjOEZ/cIEZ7VC+EZwjOEZ5mF8AzhWadnhfCssX+Hn0d4tr0Qnm1WD5+v2jMvADjggAMOOOCAAw444IADzuBx9kwXAA000EADDTTQQAMNNNBAMxyaR6MpAAcccMABBxxwwAEHHHDAKd8P4dl6ITzbCM/GAxGeTYcgPJvuUHh2ODUZz4SgsSto4gqauoJmrqC5K2jhClq6gt77wr2SZOt2spU72dqdbPVOtn4nW8GTreHJVvFk63hl63jlu79tHa9sHa+6dbyLCG07SzGhlefEr5LiQivPiW8BxYZWnhPfAIoPrTwnPv2SEU0IcjU6M94kKZoQ5Cp1ZrZJXjQhyNXrzGCT1GjCzehqdmaqSXY0IcjV7MxIUwRp2zmSIU0Iil8iyZEmBMWHX7KkCUHx4Zc8aUJQfPg1U5qSZOt2ZrJpsjQlyVbvzHDTfGlKkq3hmfmmKdOUu9LW8cyI06xpSpKt45kphzgNcRritHuEiNPqhTgNcRritMxCnIY4rdOzQpzW2L/DzyNO216I0zarh89p7ZlfABxwwAEHHHDAAQcccMABZ/A4e6YdgAYaaKCBBhpooIEGGmigGQ7No9EdgAMOOOCAAw444IADDjjglO+HOG29EKdtxGmTgYjTZkMQp812Jk6b3X4ttFRy4woau4ImrqCpK2jmCpq7ghauoKUrqPH9ey3J1u1kK3eytTvZ6p1s/U62gidbw5Ot4snW8crW8cp3f9s6Xtk6XnXreHtxWjOrXJym5MSvUrk4TcmJb4FycZqSE98A5eI0JSc+/YI4TQpyNToz3gRxmhTkKnVmtgniNCnI1evMYBPEadLN6Gp2ZqoJ4jQpyNXszEgrF6c1cwRxmhQUv0SCOE0Kig+/IE6TguLDL4jTpKD48CviNC3J1u3MZFPEaVqSrd6Z4aaI07QkW8Mz800Rp2l3pa3jmRGniNO0JFvHM1MOcRriNMRp9wgRp9ULcRriNMRpmYU4DXFap2eFOK2xf4efR5y2vRCnbVYPn9PaM78AOOCAAw444IADDjjggAPO4HH2TDsADTTQQAMNNNBAAw000EAzHJpHozsABxxwwAEHHHDAAQcccMAp3w9x2nohTtuI06YDEafNhyBOm+9MnHZ4UFm8aUrO2JQzMeVMTTkzU87clLMw5SxNOY2v3UtBrkYnV6WTq9PJVerkanVy1Tq5ep1cxU6uZleuZle2u9rV7MrV7KpTs9sL0hpR5X40ISZ8hcrtaEJMeO7L3WhCTHjmy81oQkx43gUvmpJj6nE8xgQpmpJjqnI8wwQjmpJjanM8wAQdmnIPmvocTy/BhabkmPocj65yEVojRvCgKTnhyyNY0JSc8LgLDjQlJzzuggFNyQmPu+I/k4JcjY4nmCI/k4JcpY6HmGI+k4JcvY7nmKI9k25GV7PjUaY4z6QgV7PjaYbwDOEZwrN7hAjP6oXwDOEZwrPMQniG8KzTs0J41ti/w88jPNteCM82q4fPV+2ZFwAccMABBxxwwAEHHHDAAWfwOHumC4AGGmiggQYaaKCBBhpooBkOzaPRFIADDjjggAMOOOCAAw444JTvh/BsvRCebYRns4EIzxZDEJ4tdig8O5yajGdC0NgVNHEFTV1BM1fQ3BW0cAUtXUHvfeFeSbJ1O9nKnWztTrZ6J1u/k63gydbwZKt4snW8snW88t3fto5Xto5X3TreRYS2naWY0Mpz4ldJcaGV58S3gGJDK8+JbwDFh1aeE59+yYgmBLkanRlvkhRNCHKVOjPbJC+aEOTqdWawSWo04WZ0NTsz1SQ7mhDkanZmpCmCtO0cyZAmBMUvkeRIE4Liwy9Z0oSg+PBLnjQhKD78milNSbJ1OzPZNFmakmSrd2a4ab40JcnW8Mx805Rpyl1p63hmxGnWNCXJ1vHMlEOchjgNcdo9QsRp9UKchjgNcVpmIU5DnNbpWSFOa+zf4ecRp20vxGmb1cPntPbMLwAOOOCAAw444IADDjjggDN4nD3TDkADDTTQQAMNNNBAAw000AyH5tHoDsABBxxwwAEHHHDAAQcccMr3Q5y2XojTNuK0+UDEacshiNOWOxOnzW6/FloquXEFjV1BE1fQ1BU0cwXNXUELV9DSFdT4/r2WZOt2spU72dqdbPVOtn4nW8GTreHJVvFk63hl63jlu79tHa9sHa+6dby9OK2ZVS5OU3LiV6lcnKbkxLdAuThNyYlvgHJxmpITn35BnCYFuRqdGW+COE0KcpU6M9sEcZoU5Op1ZrAJ4jTpZnQ1OzPVBHGaFORqdmaklYvTmjmCOE0Kil8iQZwmBcWHXxCnSUHx4RfEaVJQfPgVcZqWZOt2ZrIp4jQtyVbvzHBTxGlakq3hmfmmiNO0u9LW8cyIU8RpWpKt45kphzgNcRritHuEiNPqhTgNcRritMxCnIY4rdOzQpzW2L/DzyNO216I0zarh89p7ZlfABxwwAEHHHDAAQcccMABZ/A4e6YdgAYaaKCBBhpooIEGGmigGQ7No9EdgAMOOOCAAw444IADDjjglO+HOG29EKdtxGmLYYjT5ocDEKfdQO5KnHZ4UFm8aUrO2JQzMeVMTTkzU87clLMw5SxNOY2v3UtBrkYnV6WTq9PJVerkanVy1Tq5ep1cxU6uZleuZle2u9rV7MrV7KpTs9sL0hpR5X40ISZ8hcrtaEJMeO7L3WhCTHjmy81oQkx43gUvmpJj6nE8xgQpmpJjqnI8wwQjmpJjanM8wAQdmnIPmvocTy/BhabkmPocj65yEVojRvCgKTnhyyNY0JSc8LgLDjQlJzzuggFNyQmPu+I/k4JcjY4nmCI/k4JcpY6HmGI+k4JcvY7nmKI9k25GV7PjUaY4z6QgV7PjaYbwDOEZwrN7hAjP6oXwDOEZwrPMQniG8KzTs0J41ti/w88jPNteCM82q4fPV+2ZFwAccMABBxxwwAEHHHDAAWfwOHumC4AGGmiggQYaaKCBBhpooBkOzaPRFIADDjjggAMOOOCAAw444JTvh/BsvRCebYRny4EIz9IQhGdpZ8KzNDk8ONxaaWLxnxljx/3ETvqJnfYTO+sndt5P7KKf2GU/sY2v+ztzezpnqaeDlno6aamno5Z6Omupp8OWejptqafjlno6b1VP563qa671dN6qns5bpZy39mK5XHK5Z86X2vbVLbfQ+VLb3mTljjpfattbrNxg50tte4MJfjtjbD+nq/XbBUGGZ4zt54C1fq8gmPOMsf2csdZvFATNnnEq9HPKWr9LEJx8xth+TlnrtwjlAr9cquDzM8a2fWkF258xtu0FJrgAjbFtLzDBFGiMbXuBKR5BZ25P56z1OwVFOujM7emotX6zoBgKnbk9nbbW7xcUnaFzTvR03lq/ZVDch87cns5b63cNiBIRJSJKvEeIKLFeiBIRJSJKzCxEiYgSOz0rRImN/Tv8PKLE7YUocbN6+FzmnvlEwAEHHHDAAQcccMABBxxwBo+zZ5oRaKCBBhpooIEGGmiggQaa4dA8Gr0JOOCAAw444IADDjjggANO+X5/A1Hin1c/vFldHF1dX6xGTz//AG/ifnkTVxc/nrxcjf7zqG7eH8/P34zqX1j9OefJ4ecDUShWQ1AoVjtTKE6nB+Pl1hpPLQpFY+y4n9hJP7HTfmJn/cTO+4ld9BO77Ce2YTpw5vZ0zlJPBy31dNJST0ct9XTWUk+HLfV02lJPxy31dN6qns5b1ddc6+m8VT2dt0o5b+0VirnkcoWiL7Xtq1uuUPSltr3JyhWKvtS2t1i5QtGX2vYGExSKxth+TlfrtwuCQtEY288Ba/1eQVAoGmP7OWOt3ygICkXjVOjnlLV+lyAoFI2x/Zyy1m8RyhWKuVRBoWiMbfvSCgpFY2zbC0xQKBpj215ggkLRGNv2AlMUis7cns5Z63cKikLRmdvTUWv9ZkFRKDpzezptrd8vKApF55zo6by1fsugKBSduT2dt9bvGlAoolBEoXiPEIVivVAoolBEoZhZKBRRKHZ6VigUG/t3+HkUitsLheJm9fCJzT0zjYADDjjggAMOOOCAAw444AweZ88EJNBAAw000EADDTTQQAMNNMOheTTiE3DAAQcccMABBxxwwAEHnPL9UCj++nq8CsXrN29O344+Obm4VScOxJk4HoIzcbwzZ+Ltfy6VM5lyxqaciSlnasqZmXLmppyFKWdpymk4BaQgV6OTq9LJ1enkKnVytTq5ap1cvU6uYidXsytXsyvbXe1qduVqdtWp2e1dfo2ocnmfEBO+QuV6PiEmPPflAj4hJjzz5Yo9ISY874JET8kx9TgeY4IXT8kxVTmeYYLqTskxtTkeYIK9TrkHTX2Op5cgpFNyTH2OR1e5Y64RI0jllJzw5RG0cUpOeNwFMZySEx53Qf2m5ITHXZG7SUGuRscTTPG1SUGuUsdDTFGwSUGuXsdzTLGqSTejq9nxKFNEaVKQq9nxNLsX9G8XJ+cXJ1dvR2n0fPT0q+uzD2oL1ez5/zs6e36Ynt/+509XL5+PUzTmDhv/H71PPplMlkvDFlX/W4z732LS/xbT/reY9b/FvP8tFv1vsex/i8Zk72uPHZzvtIMDnnZwwtMOjnjawRlPOzjkaQenPO3gmKcdnPNqB+e82sUc38E5r3Zwzquyc17d7nF0Fe1x2O5t1XhcVYuZYYv4t2HbIv5l2LaIfxe2LeIr17ZFfOPatogvXNsW8X1r2yK+bm1bZN5W+fbYwfnOvK3y7bGDE555W+XbYwdnPPO2yrfHDk555m2Vb48dnPPM2yrfHruY4zs455m3Vb49ys75uN7j84uTYI9q2e5tVUrz+Xhs2CL+bdi2iH8Zti3i34Vti/jKtW0R37i2LeIL17ZFfN/atog/G2XbIvOBQN8e8SeqfHvEH7by7RF/Dsu3R/wRLd8e8ecSfXvEH1n07RF/mtG3R/xBR98eOzjnmbdVvj12Mcd3MMgzb6t8e5SN8km9x59fX0d7LNq9rar/G5emvzdsEf82bFvEvwzbFvHvwrZF/LbKtkX8tsq2Rfy2yrZF/LbKtkV83dq2yLyt8u0Rv63y7RG/rfLtEb+t8u0Rv63y7RG/rfLtEb+t8u0Rv63y7RG/rfLtsYNznnlb5dtjF3N8B4M887bKt0fZKJ/We/zn6jjaY97ubdWnn754MZ8btoh/G7Yt4l+GbYv4d2HbIn5bZdsifltl2yJ+W2XbIn5bZdsivm5tW2TeVvn2iN9W+faI31b59ojfVvn2iN9W+faI31b59ojfVvn2iN9W+faI31b59tjBOc+8rfLtsYs5voNBnnlb5dujbJTPbt+6Xa+iPWbt3la9eDGbWbaIfxu2LeJfhm2L+Hdh2yJ+W2XbIn5bZdsifltl2yJ+W2XbIr5ubVtk3lb59ojfVvn2iN9W+faI31b59ojfVvn2iN9W+faI31b59ojfVvn2iN9W+fbYwTnPvK3y7bGLOb6DQZ55W+Xbo2yUz+s9/nQefSy+mrZ7W7VYVNV0atgi/m3Ytoh/GbYt4t+FbYv4bZVti/htlW2L+G2VbYv4bZVti5x3yrRFVrbm2iNnq3LtkRNZufbIOa5ce+T0V649cs431x45HZxrj5wpzrVHTiLn2mMH5zzztsq3xy7m+A4GeeZtlW+Ph0f5X9oYXtca5tHHo7PVT3cG2Vtx7NPLH189uzXAPqiKvXM5X66ufn9+fXZ8+XR6+GyU0vTZaFz/p2raTjf78w3GxkN9fPzi6Gr16vzi7Sc/n1y+MyFvnn8LYfRNwBcXx6uLL69rMXHrv1hzvG1y/Gl1dHl9sXqHUbuV1697z0ZuHuZhHuZhHuZhHuZhHuZhHuZhHuZhHuZhHuZhHuZhHuZhHuZhHuZhHuZhHuZhHuZhHuZhHuZhHuZhHuZhHuZhHuZhHuZhHuZhHuZhHuZhHuZhHuZhHv5f9fDbg/MfVxcXJ8erPx3VX6xNB4fi91Xrr8ZeNr8a+9Xq4mR1uf567ZNnd18gfnN6fnVwenK2evArspe/9j3dh79Ze3lw+189/+b89Ojq5PzsBurJ5dXqzfNvV9+dX6yetPvm8x9Xr1Znx80n9O7Pns4On43G9TeXD+svMtf/48np6rurGuyB6LvYg29era4+O7uqX5+bLb67Pnt5S/r0g9F/PxBxR7ja/O2vH/wud71Ovhs9vXp9cnlweftbabdRvbb+0sHN6/fZ0cvXT/8HuGvaHX791fEb9nXuN2/OL0/qwE9v/rjNs7lbdcyvUF2c/9QN6Q7r5Ox4VZ+H5+lZx799t74v/YvfnaxO6749Xb+m787Jq4vz6zer49FvfjP6v+s///ngm9dHl+vvv9cH7IPtR9/+6qM3L8jB0atXn9d7HJyuzl5dvR79blSN/mn05JPT0yejj5o/cXl68nL19Hn64OvDv3zw4Hm790zOL0ZPv795Kof/MPr+Zpt1Vdf71n/29zc3TvdfUL3qGq/zvv7+Lwd/Xb0dffzxx+9evLLE29T1r/37rk/1bn17sTr6a8lf/qXj3+n68/XrtX52H9e1rsuwbsqtyOHgm6PLy5NXZ6vjF7Ui4vLr21fyL2Uv5d0v+s315eunpb+Lm1/pR+9+n+Un6fT0ozbP8qD+ydJdLq8uzv+6arfPu58t3en8zdHLk6u37bZa/3Dxs7rd4m6r0pS7i6R5rZQcj86XT73ujnPz4hk9H6WuaV2OW3vWX57dTtVWP//LQ+8p6vXhh6N/+/c/j/7ri3//cvTVF1/++V/+9Q+jP37xh395Mfrnz778rF3A5ze39urno/ot2ujqfHR5fnE1Orv+4aYHL0e3SpPL0dHly5s3Lydnr1ok3r32dc7WZD56Nvq2/eVysbq6vjgbvTm6uFx9fnp+dPX0qL7yP7j5VW792be3f9bqxXz4LdrWtuun8FDwL/2aXjbvP2+P++1hf/rb49V3R9enV6M3F+c3d9jqt89Gv/27xeLFi88++23P4hlwwAEHHHDAAQcccMABB5z/nTijy+sfbv6/wKPjVf2Ho+OjtzXRxeoYGmiggQYaaKCBBhpooIEGmjzNT7cfzXqP5tvT6xU44IADDjjggAMOOOCAAw44JTib/97AVP/3Bn51Hf33Bo7T7b+wffLJZLJcQgoppJBCCimkkEIKKaSQQgoppMMgrW5Jj64i0sNb0vG4qhYzSCGFFFJIIYUUUkghhRRSSCGFdBik45r084uTgLRa3pKmNJ+Px5BCCimkkEIKKaSQQgoppJBCCukwSCc16Z9fX0eki1vS5c2a/h5SSCGFFFJIIYUUUkghhRRSSCEdBum0Jv3P1XFEOr8l/fTTFy/mc0ghhRRSSCGFFFJIIYUUUkghhXQYpLPb/8vE9Soind2Svngxm0EKKaSQQgoppJBCCimkkEIKKaRDIZ3XpH86j8yC1fSWdLGoqukUUkghhRRSSCGFFFJIIYUUUkgh3RnpHcrxxdFPTx8M+/ng6uTqdPXV66M3q4Or1c9XT3/7z+fXF5cPY7y9/zc/PflhdXZ5cn52urq8TXgg4sMPR58cH4+ORrdJo59Orl6PLs9/WI2Oxw/8zcsfXx0cvXmzOjt++qTe+8kHD/yFu3VwdHV18fTJz0+ejWaHHf/S25u/VLX/S5dXb09X7/CeH529fH1+cfP3n5yuvutAu8747vzs6vlPq5NXr6/qjG/PT4/bZ7z73fzHJ//x7gX+cvV6dXQ1+uLly9FXL1//9oPcL+l3H16+vDh5c/WP4c/87sPjkx9//eHw78RhN1mjk+OPn7ysG/zi5kkfnZytLr6p5pMno9uX4uMnxyeXb06P3n50cnZ689jzb0/PX/71H57EgDep757D6Ortm5u/X78aH35/9OPRuz/N/s16/Xh0Ubdt9PHo+OSHN6erg7PVT1/9+Orpk7/7Fchno8nh4e3/ePD41LnHR1dHN8Ff//eT06NvV6dPPnpyvPru6Pr0avTm4vy7k9PVk2fvHvnm5ycfpYPDZ09+PDq9Xj35aLY8WG6txfLZk5f1nXOTcHONvHjx2WdPfnnWKrXqJXXcS+qkl9RpL6mzXlLnvaQuekld9pKaDvuJ7ed0pX6OV+rnfKV+Dljq54Slfo5Y6ueMpX4OWernlFX9nLKqpxnWzymr+jlllXDKRpfXP/zQ+K/xLniHcLE67hDa8rXtFtryle0W2vJ17Rba8u7qFtry5uoW2vLe6hba8tbqFtryzuoW2vaNQcfUXs5U27cFHVN7OVVt3xR0TO3lXLV9S9AxtZeT1fYNQcfUXs5W27cDHVP7mVe9nK227wU6ppaerZ9Ozq7UtwHf1j/QPrXly9oxteXL2jG15cvaMbXlldUxteWV1TG15ZXVMbXlldUxteWV1TG17fuBrrH9nK627wi6xvZzvtq+J+ga288Ja/uuoGtsP2es7fuCrrH9nLK27wy6xvY0w/o5ZW3fHHSN7XTK/tLmHxzW/zY4+nh0tvrp7h80bv8d4+nlj6+e3f6DxIP/cnH3D4yXq6vfn1+fHV8+nR4+G6U0fTYa1/+pmrb714+fbzA2/256fPzi6Gr16vzi7Sc/n1y++we6zUvR4l8xbwK+uDheXXx5Xf97Weu/WHO8bXL8aXV0eX2xeodR/5Pf+leg/rvs7T8kNbf6anVxsrpc497stP6FvDk9vzqo/3XrwS0vf+15P0x6eXDbuzfnp0dXJ+dnN1BPLq9Wb55/u/ru/GL1pF2T/rh6tTo7bj6hd3/2dHbTgnHdhPofw1L9P9b/7PngvwjfxR5882p19dnZVf363Gzx3fXZy1vSpx+M/rvFv3vWhKvN3/76wbNRr5PvRk+vXp9c3vS6/nvtNqrX1l86uHn9Pjt6+frp/wB3TbvDX//b4Dr3mzfnlyd14Kc3f9zm2dytOuZXqC7Of+qGdId1cna8qg/u8/Ss49++W9+X/sXvTlandd+erl/Td+fk1cX59ZvV8eg3vxn93/Wf/3zwzeujy/V9Uh+wD7Yfffurj968IAdHr159Xu9xcLo6e3X1evS7UTX6p9GTT05Pn4w+av7E5enJy9XT5+mDrw//8sGD5+3eMzm/GD39/uapHP7D6PubbdZVXe9b/9nffzxK3X9B9aprvM77+vu/HPx1dXO9ffzxuxevLPE2df1r/77rU71b316sjv5a8pd/6fh3uv58/Xqtn93Hda3rMqybcjsYD75595me1fHtp3ouv759Jf9S9lLe/aLfXF++flr6u7j5lX707vdZfpJOTz9q8ywP6p8s3eXy6uL8r6t2+7z72dKdzt8cvTy5ettuq/UPFz+r2y3utipNubtImtdKyfHofPnU6+44Ny+e0fNR6prW5bi1Z/3l2e1UbfXzvzz0nqJeH344+rd///Pov7749y9HX33x5Z//5V//MPrjF3/4lxejf/7sy8/aBXx+c2uvfj6q36KNrs5Hl+c3b6TPrn+46cHL0e1bxMvR0eXLmzcvJ2evWiTevfZ1ztZkPno2+rb95XKxurq+OBu9Obq4XH1+en509fSovvI/uPlVbv3Zt7d/1urFfPgt2ta266fwUPAvf4PPXr73D7DrD1jW/6D6N/koKDjggAMOOOCAAw444IADzuBx7n/ApSa6WB1DAw000EADDTTQQAMNNNBAk6e595HAmqb+iB844IADDjjggAMOOOCAAw44f0Pj4Z9XP7xZXRxdXV+sRk8//wDn4V45D//zqG7cP69u/9cnP3x7sjq7GtW/stp8uDq+vnn9n4/mh58PRII4HYIEcbozCeLtV09LJUymnLEpZ2LKmZpyZqacuSlnYcpZmnIadgEpyNXo5Kp0cnU6uUqdXK1OrlonV6+Tq9jJ1ezK1ezKdle7ml25ml11anZ7aV8jqlzTJ8SEr1C5ik+ICc99uW5PiAnPfLlST4gJz7ugzVNyTD2Ox5ggw1NyTFWOZ5iguFNyTG2OB5ggrlPuQVOf4+kl6OiUHFOf49FVLplrxAhaOSUnfHkEdZySEx53QQ+n5ITHXVDAKTnhcVc0b1KQq9HxBFPkbVKQq9TxEFOUbFKQq9fxHFNEa9LN6Gp2PMoUfZoU5Gp2PM2Qog1CisbDPMzDPMzDPMzDPMzDPMzDPMzDPMzDPMzD+/Tw24PzH1cXFyfHqz8d1f+HqnRwiBR/65kgxd8spPidFlJ8pPgdFlL89xdS/PcXUvyOCyk+UvxfXUjxwQEHHHDAAQcccMABBxxwwBmCUhIaaKCBBhpooIEGGmiggWY4NI9GZQkOOOCAAw444IADDjjggFO+399Aiv/pyQ+rs8uT87PT1eUlSvz9UuKfX/x19Nl33528PFmdvXy7EeHvVoG//un3Htn+f9/953f/e5O+/g+b//Xt+fHb+n+/vvrh9B//z/8Huu4X3A=="
               },
               {
                  "name" : "annual_peak_electric_demand",
                  "units" : "kW",
                  "value" : 429.44916999999998
               },
               {
                  "name" : "first_year_capital_cost",
                  "units" : "$",
                  "value" : 0
               },
               {
                  "name" : "annual_utility_cost",
                  "units" : "$",
                  "value" : 101031.37
               },
               {
                  "name" : "total_lifecycle_cost",
                  "units" : "$",
                  "value" : 1691508.8999999999
               }
            ],
            "step_warnings" : [ "A table in Annual Overview section returned false and was skipped." ]
         }
      }
   ],
   "updated_at" : "20170710T194504Z",
   "weather_file" : "USA_CO_Denver.Intl.AP.725650_TMY3.epw"
}
