{
   "completed_at" : "20170710T184959Z",
   "completed_status" : "Success",
   "created_at" : "2017-07-10 18:47:04 +0000",
   "current_step" : 5,
   "description" : "",
   "eplusout_err" : "Program Version,EnergyPlus, Version 8.7.0-78a111df4a, YMD=2017.07.10 18:48,IDD_Version 8.7.0\n   ************* IDF Context for following error/warning message:\n   ************* Note -- lines truncated at 300 characters, if necessary...\n   *************      5 Building,\n   ************* indicated Name=NECB 2011-RetailStripmall-NECB HDD Method-CAN_PQ_Lake.Eon.714210_CWEC.epw created: 2017-07-10 18:47:10 +0000\n   ************* Only last 1 lines before error line shown.....\n   *************      6   NECB 2011-RetailStripmall-NECB HDD Method-CAN_PQ_Lake.Eon.714210_CWEC.epw created: 2017-07-10 18:47:10 +0000, !- Name\n   ** Warning ** IP: IDF line~6 Alpha Argument length exceeds maximum, will be truncated=  NECB 2011-RetailStripmall-NECB HDD Method-CAN_PQ_Lake.Eon.714210_CWEC.epw created: 2017-07-10 18:47:10 +000\n   **   ~~~   ** Will be processed as Alpha=NECB 2011-RETAILSTRIPMALL-NECB HDD METHOD-CAN_PQ_LAKE.EON.714210_CWEC.EPW CREATED: 2017-07-10 18:47:10 +0000\n   ************* Beginning Zone Sizing Calculations\n   ** Warning ** ProcessScheduleInput: Schedule:Day:Interval=\"ECONOMIZER MAX OA FRACTION 100 PCT DEFAULT\", Blank Schedule Type Limits Name input -- will not be validated.\n   ** Warning ** ProcessScheduleInput: Schedule:Day:Interval=\"SCHEDULE DAY 1\", Blank Schedule Type Limits Name input -- will not be validated.\n   ** Warning ** ProcessScheduleInput: Schedule:Day:Interval=\"SCHEDULE DAY 10\", Blank Schedule Type Limits Name input -- will not be validated.\n   ** Warning ** ProcessScheduleInput: Schedule:Day:Interval=\"SCHEDULE DAY 11\", Blank Schedule Type Limits Name input -- will not be validated.\n   ** Warning ** ProcessScheduleInput: Schedule:Day:Interval=\"SCHEDULE DAY 12\", Blank Schedule Type Limits Name input -- will not be validated.\n   ** Warning ** ProcessScheduleInput: Schedule:Day:Interval=\"SCHEDULE DAY 13\", Blank Schedule Type Limits Name input -- will not be validated.\n   ** Warning ** ProcessScheduleInput: Schedule:Day:Interval=\"SCHEDULE DAY 14\", Blank Schedule Type Limits Name input -- will not be validated.\n   ** Warning ** ProcessScheduleInput: Schedule:Day:Interval=\"SCHEDULE DAY 15\", Blank Schedule Type Limits Name input -- will not be validated.\n   ** Warning ** ProcessScheduleInput: Schedule:Day:Interval=\"SCHEDULE DAY 16\", Blank Schedule Type Limits Name input -- will not be validated.\n   ** Warning ** ProcessScheduleInput: Schedule:Day:Interval=\"SCHEDULE DAY 17\", Blank Schedule Type Limits Name input -- will not be validated.\n   ** Warning ** ProcessScheduleInput: Schedule:Day:Interval=\"SCHEDULE DAY 18\", Blank Schedule Type Limits Name input -- will not be validated.\n   ** Warning ** ProcessScheduleInput: Schedule:Day:Interval=\"SCHEDULE DAY 19\", Blank Schedule Type Limits Name input -- will not be validated.\n   ** Warning ** ProcessScheduleInput: Schedule:Day:Interval=\"SCHEDULE DAY 2\", Blank Schedule Type Limits Name input -- will not be validated.\n   ** Warning ** ProcessScheduleInput: Schedule:Day:Interval=\"SCHEDULE DAY 20\", Blank Schedule Type Limits Name input -- will not be validated.\n   ** Warning ** ProcessScheduleInput: Schedule:Day:Interval=\"SCHEDULE DAY 21\", Blank Schedule Type Limits Name input -- will not be validated.\n   ** Warning ** ProcessScheduleInput: Schedule:Day:Interval=\"SCHEDULE DAY 22\", Blank Schedule Type Limits Name input -- will not be validated.\n   ** Warning ** ProcessScheduleInput: Schedule:Day:Interval=\"SCHEDULE DAY 23\", Blank Schedule Type Limits Name input -- will not be validated.\n   ** Warning ** ProcessScheduleInput: Schedule:Day:Interval=\"SCHEDULE DAY 24\", Blank Schedule Type Limits Name input -- will not be validated.\n   ** Warning ** ProcessScheduleInput: Schedule:Day:Interval=\"SCHEDULE DAY 25\", Blank Schedule Type Limits Name input -- will not be validated.\n   ** Warning ** ProcessScheduleInput: Schedule:Day:Interval=\"SCHEDULE DAY 26\", Blank Schedule Type Limits Name input -- will not be validated.\n   ** Warning ** ProcessScheduleInput: Schedule:Day:Interval=\"SCHEDULE DAY 27\", Blank Schedule Type Limits Name input -- will not be validated.\n   ** Warning ** ProcessScheduleInput: Schedule:Day:Interval=\"SCHEDULE DAY 28\", Blank Schedule Type Limits Name input -- will not be validated.\n   ** Warning ** ProcessScheduleInput: Schedule:Day:Interval=\"SCHEDULE DAY 29\", Blank Schedule Type Limits Name input -- will not be validated.\n   ** Warning ** ProcessScheduleInput: Schedule:Day:Interval=\"SCHEDULE DAY 30\", Blank Schedule Type Limits Name input -- will not be validated.\n   ** Warning ** ProcessScheduleInput: Schedule:Day:Interval=\"SCHEDULE DAY 31\", Blank Schedule Type Limits Name input -- will not be validated.\n   ** Warning ** ProcessScheduleInput: Schedule:Day:Interval=\"SCHEDULE DAY 32\", Blank Schedule Type Limits Name input -- will not be validated.\n   ** Warning ** ProcessScheduleInput: Schedule:Day:Interval=\"SCHEDULE DAY 33\", Blank Schedule Type Limits Name input -- will not be validated.\n   ** Warning ** ProcessScheduleInput: Schedule:Day:Interval=\"SCHEDULE DAY 34\", Blank Schedule Type Limits Name input -- will not be validated.\n   ** Warning ** ProcessScheduleInput: Schedule:Day:Interval=\"SCHEDULE DAY 35\", Blank Schedule Type Limits Name input -- will not be validated.\n   ** Warning ** ProcessScheduleInput: Schedule:Day:Interval=\"SCHEDULE DAY 36\", Blank Schedule Type Limits Name input -- will not be validated.\n   ** Warning ** ProcessScheduleInput: Schedule:Day:Interval=\"SCHEDULE DAY 37\", Blank Schedule Type Limits Name input -- will not be validated.\n   ** Warning ** ProcessScheduleInput: Schedule:Day:Interval=\"SCHEDULE DAY 38\", Blank Schedule Type Limits Name input -- will not be validated.\n   ** Warning ** ProcessScheduleInput: Schedule:Day:Interval=\"SCHEDULE DAY 39\", Blank Schedule Type Limits Name input -- will not be validated.\n   ** Warning ** ProcessScheduleInput: Schedule:Day:Interval=\"SCHEDULE DAY 40\", Blank Schedule Type Limits Name input -- will not be validated.\n   ** Warning ** ProcessScheduleInput: Schedule:Day:Interval=\"SCHEDULE DAY 41\", Blank Schedule Type Limits Name input -- will not be validated.\n   ** Warning ** ProcessScheduleInput: Schedule:Day:Interval=\"SCHEDULE DAY 42\", Blank Schedule Type Limits Name input -- will not be validated.\n   ** Warning ** ProcessScheduleInput: Schedule:Day:Interval=\"SCHEDULE DAY 43\", Blank Schedule Type Limits Name input -- will not be validated.\n   ** Warning ** ProcessScheduleInput: Schedule:Day:Interval=\"SCHEDULE DAY 44\", Blank Schedule Type Limits Name input -- will not be validated.\n   ** Warning ** ProcessScheduleInput: Schedule:Day:Interval=\"SCHEDULE DAY 45\", Blank Schedule Type Limits Name input -- will not be validated.\n   ** Warning ** ProcessScheduleInput: Schedule:Day:Interval=\"SCHEDULE DAY 46\", Blank Schedule Type Limits Name input -- will not be validated.\n   ** Warning ** ProcessScheduleInput: Schedule:Day:Interval=\"SCHEDULE DAY 47\", Blank Schedule Type Limits Name input -- will not be validated.\n   ** Warning ** ProcessScheduleInput: Schedule:Day:Interval=\"SCHEDULE DAY 48\", Blank Schedule Type Limits Name input -- will not be validated.\n   ** Warning ** ProcessScheduleInput: Schedule:Day:Interval=\"SCHEDULE DAY 49\", Blank Schedule Type Limits Name input -- will not be validated.\n   ** Warning ** ProcessScheduleInput: Schedule:Day:Interval=\"SCHEDULE DAY 5\", Blank Schedule Type Limits Name input -- will not be validated.\n   ** Warning ** ProcessScheduleInput: Schedule:Day:Interval=\"SCHEDULE DAY 50\", Blank Schedule Type Limits Name input -- will not be validated.\n   ** Warning ** ProcessScheduleInput: Schedule:Day:Interval=\"SCHEDULE DAY 51\", Blank Schedule Type Limits Name input -- will not be validated.\n   ** Warning ** ProcessScheduleInput: Schedule:Day:Interval=\"SCHEDULE DAY 52\", Blank Schedule Type Limits Name input -- will not be validated.\n   ** Warning ** ProcessScheduleInput: Schedule:Day:Interval=\"SCHEDULE DAY 53\", Blank Schedule Type Limits Name input -- will not be validated.\n   ** Warning ** ProcessScheduleInput: Schedule:Day:Interval=\"SCHEDULE DAY 54\", Blank Schedule Type Limits Name input -- will not be validated.\n   ** Warning ** ProcessScheduleInput: Schedule:Day:Interval=\"SCHEDULE DAY 6\", Blank Schedule Type Limits Name input -- will not be validated.\n   ** Warning ** ProcessScheduleInput: Schedule:Day:Interval=\"SCHEDULE DAY 7\", Blank Schedule Type Limits Name input -- will not be validated.\n   ** Warning ** ProcessScheduleInput: Schedule:Day:Interval=\"SCHEDULE DAY 8\", Blank Schedule Type Limits Name input -- will not be validated.\n   ** Warning ** ProcessScheduleInput: Schedule:Day:Interval=\"SCHEDULE DAY 9\", Blank Schedule Type Limits Name input -- will not be validated.\n   ** Warning ** ProcessScheduleInput: Schedule:Year=\"ECONOMIZER MAX OA FRACTION 100 PCT\", Blank Schedule Type Limits Name input -- will not be validated.\n   ** Warning ** ProcessScheduleInput: Schedule:Year=\"SCHEDULE RULESET 10\", Blank Schedule Type Limits Name input -- will not be validated.\n   ** Warning ** ProcessScheduleInput: Schedule:Year=\"SCHEDULE RULESET 11\", Blank Schedule Type Limits Name input -- will not be validated.\n   ** Warning ** ProcessScheduleInput: Schedule:Year=\"SCHEDULE RULESET 12\", Blank Schedule Type Limits Name input -- will not be validated.\n   ** Warning ** ProcessScheduleInput: Schedule:Year=\"SCHEDULE RULESET 13\", Blank Schedule Type Limits Name input -- will not be validated.\n   ** Warning ** ProcessScheduleInput: Schedule:Year=\"SCHEDULE RULESET 14\", Blank Schedule Type Limits Name input -- will not be validated.\n   ** Warning ** ProcessScheduleInput: Schedule:Year=\"SCHEDULE RULESET 15\", Blank Schedule Type Limits Name input -- will not be validated.\n   ** Warning ** ProcessScheduleInput: Schedule:Year=\"SCHEDULE RULESET 16\", Blank Schedule Type Limits Name input -- will not be validated.\n   ** Warning ** ProcessScheduleInput: Schedule:Year=\"SCHEDULE RULESET 17\", Blank Schedule Type Limits Name input -- will not be validated.\n   ** Warning ** ProcessScheduleInput: Schedule:Year=\"SCHEDULE RULESET 18\", Blank Schedule Type Limits Name input -- will not be validated.\n   ** Warning ** ProcessScheduleInput: Schedule:Year=\"SCHEDULE RULESET 19\", Blank Schedule Type Limits Name input -- will not be validated.\n   ** Warning ** ProcessScheduleInput: Schedule:Year=\"SCHEDULE RULESET 20\", Blank Schedule Type Limits Name input -- will not be validated.\n   ** Warning ** ProcessScheduleInput: Schedule:Year=\"SCHEDULE RULESET 21\", Blank Schedule Type Limits Name input -- will not be validated.\n   ** Warning ** ProcessScheduleInput: Schedule:Year=\"SCHEDULE RULESET 22\", Blank Schedule Type Limits Name input -- will not be validated.\n   ** Warning ** ProcessScheduleInput: Schedule:Year=\"SCHEDULE RULESET 23\", Blank Schedule Type Limits Name input -- will not be validated.\n   ** Warning ** ProcessScheduleInput: Schedule:Year=\"SCHEDULE RULESET 24\", Blank Schedule Type Limits Name input -- will not be validated.\n   ** Warning ** ProcessScheduleInput: Schedule:Year=\"SCHEDULE RULESET 25\", Blank Schedule Type Limits Name input -- will not be validated.\n   ** Warning ** ProcessScheduleInput: Schedule:Year=\"SCHEDULE RULESET 26\", Blank Schedule Type Limits Name input -- will not be validated.\n   ** Warning ** ProcessScheduleInput: Schedule:Year=\"SCHEDULE RULESET 27\", Blank Schedule Type Limits Name input -- will not be validated.\n   ** Warning ** ProcessScheduleInput: Schedule:Year=\"SCHEDULE RULESET 28\", Blank Schedule Type Limits Name input -- will not be validated.\n   ** Warning ** ProcessScheduleInput: Schedule:Year=\"SCHEDULE RULESET 29\", Blank Schedule Type Limits Name input -- will not be validated.\n   ** Warning ** ProcessScheduleInput: Schedule:Year=\"SCHEDULE RULESET 3\", Blank Schedule Type Limits Name input -- will not be validated.\n   ** Warning ** ProcessScheduleInput: Schedule:Year=\"SCHEDULE RULESET 30\", Blank Schedule Type Limits Name input -- will not be validated.\n   ** Warning ** ProcessScheduleInput: Schedule:Year=\"SCHEDULE RULESET 31\", Blank Schedule Type Limits Name input -- will not be validated.\n   ** Warning ** ProcessScheduleInput: Schedule:Year=\"SCHEDULE RULESET 32\", Blank Schedule Type Limits Name input -- will not be validated.\n   ** Warning ** ProcessScheduleInput: Schedule:Year=\"SCHEDULE RULESET 4\", Blank Schedule Type Limits Name input -- will not be validated.\n   ** Warning ** ProcessScheduleInput: Schedule:Year=\"SCHEDULE RULESET 5\", Blank Schedule Type Limits Name input -- will not be validated.\n   ** Warning ** ProcessScheduleInput: Schedule:Year=\"SCHEDULE RULESET 6\", Blank Schedule Type Limits Name input -- will not be validated.\n   ** Warning ** ProcessScheduleInput: Schedule:Year=\"SCHEDULE RULESET 7\", Blank Schedule Type Limits Name input -- will not be validated.\n   ** Warning ** ProcessScheduleInput: Schedule:Year=\"SCHEDULE RULESET 8\", Blank Schedule Type Limits Name input -- will not be validated.\n   ** Warning ** ProcessScheduleInput: Schedule:Year=\"SCHEDULE RULESET 9\", Blank Schedule Type Limits Name input -- will not be validated.\n   ** Warning ** ProcessScheduleInput: Schedule:Constant=\"ALWAYS OFF DISCRETE\", Blank Schedule Type Limits Name input -- will not be validated.\n   ** Warning ** ProcessScheduleInput: Schedule:Constant=\"ALWAYS ON CONTINUOUS\", Blank Schedule Type Limits Name input -- will not be validated.\n   ** Warning ** CheckUsedConstructions: There are 24 nominally unused constructions in input.\n   **   ~~~   ** For explicit details on each unused construction, use Output:Diagnostics,DisplayExtraWarnings;\n   ************* Beginning System Sizing Calculations\n   ************* Beginning Plant Sizing Calculations\n   ** Warning ** GetDXCoils: Coil:Cooling:DX:SingleSpeed=\"COIL COOLING DX SINGLE SPEED 10 65KBTU/HR 9.7EER\", invalid\n   **   ~~~   ** ...Part Load Fraction Correlation Curve Name = DXCOOL-NECB2011-REF-COOLPLFFPLR 1 has out of range value.\n   **   ~~~   ** ...Curve maximum must be <= 1.0, curve max at PLR = 0.99 is 1.015\n   **   ~~~   ** ...Setting curve maximum to 1.0 and simulation continues.\n   ** Warning ** GetDXCoils: Coil:Cooling:DX:SingleSpeed=\"COIL COOLING DX SINGLE SPEED 1 65KBTU/HR 14.0SEER\", invalid\n   **   ~~~   ** ...Part Load Fraction Correlation Curve Name = DXCOOL-NECB2011-REF-COOLPLFFPLR has out of range value.\n   **   ~~~   ** ...Curve maximum must be <= 1.0, curve max at PLR = 0.99 is 1.015\n   **   ~~~   ** ...Setting curve maximum to 1.0 and simulation continues.\n   ** Warning ** GetDXCoils: Coil:Cooling:DX:SingleSpeed=\"COIL COOLING DX SINGLE SPEED 3 34KBTU/HR 14.0SEER\", invalid\n   **   ~~~   ** ...Part Load Fraction Correlation Curve Name = DXCOOL-NECB2011-REF-COOLPLFFPLR 3 has out of range value.\n   **   ~~~   ** ...Curve maximum must be <= 1.0, curve max at PLR = 0.99 is 1.015\n   **   ~~~   ** ...Setting curve maximum to 1.0 and simulation continues.\n   ** Warning ** GetDXCoils: Coil:Cooling:DX:SingleSpeed=\"COIL COOLING DX SINGLE SPEED 2 33KBTU/HR 14.0SEER\", invalid\n   **   ~~~   ** ...Part Load Fraction Correlation Curve Name = DXCOOL-NECB2011-REF-COOLPLFFPLR 2 has out of range value.\n   **   ~~~   ** ...Curve maximum must be <= 1.0, curve max at PLR = 0.99 is 1.015\n   **   ~~~   ** ...Setting curve maximum to 1.0 and simulation continues.\n   ** Warning ** GetDXCoils: Coil:Cooling:DX:SingleSpeed=\"COIL COOLING DX SINGLE SPEED 6 33KBTU/HR 14.0SEER\", invalid\n   **   ~~~   ** ...Part Load Fraction Correlation Curve Name = DXCOOL-NECB2011-REF-COOLPLFFPLR 6 has out of range value.\n   **   ~~~   ** ...Curve maximum must be <= 1.0, curve max at PLR = 0.99 is 1.015\n   **   ~~~   ** ...Setting curve maximum to 1.0 and simulation continues.\n   ** Warning ** GetDXCoils: Coil:Cooling:DX:SingleSpeed=\"COIL COOLING DX SINGLE SPEED 8 34KBTU/HR 14.0SEER\", invalid\n   **   ~~~   ** ...Part Load Fraction Correlation Curve Name = DXCOOL-NECB2011-REF-COOLPLFFPLR 8 has out of range value.\n   **   ~~~   ** ...Curve maximum must be <= 1.0, curve max at PLR = 0.99 is 1.015\n   **   ~~~   ** ...Setting curve maximum to 1.0 and simulation continues.\n   ** Warning ** GetDXCoils: Coil:Cooling:DX:SingleSpeed=\"COIL COOLING DX SINGLE SPEED 7 34KBTU/HR 14.0SEER\", invalid\n   **   ~~~   ** ...Part Load Fraction Correlation Curve Name = DXCOOL-NECB2011-REF-COOLPLFFPLR 7 has out of range value.\n   **   ~~~   ** ...Curve maximum must be <= 1.0, curve max at PLR = 0.99 is 1.015\n   **   ~~~   ** ...Setting curve maximum to 1.0 and simulation continues.\n   ** Warning ** GetDXCoils: Coil:Cooling:DX:SingleSpeed=\"COIL COOLING DX SINGLE SPEED 5 33KBTU/HR 14.0SEER\", invalid\n   **   ~~~   ** ...Part Load Fraction Correlation Curve Name = DXCOOL-NECB2011-REF-COOLPLFFPLR 5 has out of range value.\n   **   ~~~   ** ...Curve maximum must be <= 1.0, curve max at PLR = 0.99 is 1.015\n   **   ~~~   ** ...Setting curve maximum to 1.0 and simulation continues.\n   ** Warning ** GetDXCoils: Coil:Cooling:DX:SingleSpeed=\"COIL COOLING DX SINGLE SPEED 4 33KBTU/HR 14.0SEER\", invalid\n   **   ~~~   ** ...Part Load Fraction Correlation Curve Name = DXCOOL-NECB2011-REF-COOLPLFFPLR 4 has out of range value.\n   **   ~~~   ** ...Curve maximum must be <= 1.0, curve max at PLR = 0.99 is 1.015\n   **   ~~~   ** ...Setting curve maximum to 1.0 and simulation continues.\n   ** Warning ** GetDXCoils: Coil:Cooling:DX:SingleSpeed=\"COIL COOLING DX SINGLE SPEED 9 34KBTU/HR 14.0SEER\", invalid\n   **   ~~~   ** ...Part Load Fraction Correlation Curve Name = DXCOOL-NECB2011-REF-COOLPLFFPLR 9 has out of range value.\n   **   ~~~   ** ...Curve maximum must be <= 1.0, curve max at PLR = 0.99 is 1.015\n   **   ~~~   ** ...Setting curve maximum to 1.0 and simulation continues.\n   ** Warning ** The Standard Ratings is calculated for Coil:Cooling:DX:SingleSpeed = COIL COOLING DX SINGLE SPEED 10 65KBTU/HR 9.7EER but not at the AHRI test condition due to curve out of bound.\n   **   ~~~   **  Review the Standard Ratings calculations in the Engineering Reference for this coil type. Also, use Output:Diagnostics, DisplayExtraWarnings for further guidance.\n   ** Warning ** The Standard Ratings is calculated for Coil:Cooling:DX:SingleSpeed = COIL COOLING DX SINGLE SPEED 1 65KBTU/HR 14.0SEER but not at the AHRI test condition due to curve out of bound.\n   **   ~~~   **  Review the Standard Ratings calculations in the Engineering Reference for this coil type. Also, use Output:Diagnostics, DisplayExtraWarnings for further guidance.\n   ** Warning ** The Standard Ratings is calculated for Coil:Cooling:DX:SingleSpeed = COIL COOLING DX SINGLE SPEED 3 34KBTU/HR 14.0SEER but not at the AHRI test condition due to curve out of bound.\n   **   ~~~   **  Review the Standard Ratings calculations in the Engineering Reference for this coil type. Also, use Output:Diagnostics, DisplayExtraWarnings for further guidance.\n   ** Warning ** The Standard Ratings is calculated for Coil:Cooling:DX:SingleSpeed = COIL COOLING DX SINGLE SPEED 2 33KBTU/HR 14.0SEER but not at the AHRI test condition due to curve out of bound.\n   **   ~~~   **  Review the Standard Ratings calculations in the Engineering Reference for this coil type. Also, use Output:Diagnostics, DisplayExtraWarnings for further guidance.\n   ** Warning ** The Standard Ratings is calculated for Coil:Cooling:DX:SingleSpeed = COIL COOLING DX SINGLE SPEED 6 33KBTU/HR 14.0SEER but not at the AHRI test condition due to curve out of bound.\n   **   ~~~   **  Review the Standard Ratings calculations in the Engineering Reference for this coil type. Also, use Output:Diagnostics, DisplayExtraWarnings for further guidance.\n   ** Warning ** The Standard Ratings is calculated for Coil:Cooling:DX:SingleSpeed = COIL COOLING DX SINGLE SPEED 8 34KBTU/HR 14.0SEER but not at the AHRI test condition due to curve out of bound.\n   **   ~~~   **  Review the Standard Ratings calculations in the Engineering Reference for this coil type. Also, use Output:Diagnostics, DisplayExtraWarnings for further guidance.\n   ** Warning ** The Standard Ratings is calculated for Coil:Cooling:DX:SingleSpeed = COIL COOLING DX SINGLE SPEED 7 34KBTU/HR 14.0SEER but not at the AHRI test condition due to curve out of bound.\n   **   ~~~   **  Review the Standard Ratings calculations in the Engineering Reference for this coil type. Also, use Output:Diagnostics, DisplayExtraWarnings for further guidance.\n   ** Warning ** The Standard Ratings is calculated for Coil:Cooling:DX:SingleSpeed = COIL COOLING DX SINGLE SPEED 5 33KBTU/HR 14.0SEER but not at the AHRI test condition due to curve out of bound.\n   **   ~~~   **  Review the Standard Ratings calculations in the Engineering Reference for this coil type. Also, use Output:Diagnostics, DisplayExtraWarnings for further guidance.\n   ** Warning ** The Standard Ratings is calculated for Coil:Cooling:DX:SingleSpeed = COIL COOLING DX SINGLE SPEED 4 33KBTU/HR 14.0SEER but not at the AHRI test condition due to curve out of bound.\n   **   ~~~   **  Review the Standard Ratings calculations in the Engineering Reference for this coil type. Also, use Output:Diagnostics, DisplayExtraWarnings for further guidance.\n   ** Warning ** The Standard Ratings is calculated for Coil:Cooling:DX:SingleSpeed = COIL COOLING DX SINGLE SPEED 9 34KBTU/HR 14.0SEER but not at the AHRI test condition due to curve out of bound.\n   **   ~~~   **  Review the Standard Ratings calculations in the Engineering Reference for this coil type. Also, use Output:Diagnostics, DisplayExtraWarnings for further guidance.\n   ** Warning ** Check input. Pump nominal power or motor efficiency is set to 0, for pump=SERVICE WATER LOOP PUMP\n   ** Warning ** Output:Meter: invalid Name=\"GAS:FACILITY\" - not found.\n   ** Warning ** Output:Meter: invalid Name=\"DISTRICTCOOLING:FACILITY\" - not found.\n   ** Warning ** Output:Meter: invalid Name=\"DISTRICTHEATING:FACILITY\" - not found.\n   ** Warning ** Output:Meter:MeterFileOnly: invalid Name=\"GAS:FACILITY\" - not found.\n   ** Warning ** Output:Meter:MeterFileOnly requested for \"Electricity:Facility\" (TimeStep), already on \"Output:Meter\". Will report to both eplusout.eso and eplusout.mtr\n   ************* Testing Individual Branch Integrity\n   ************* All Branches passed integrity testing\n   ************* Testing Individual Supply Air Path Integrity\n   ************* All Supply Air Paths passed integrity testing\n   ************* Testing Individual Return Air Path Integrity\n   ************* All Return Air Paths passed integrity testing\n   ************* No node connection errors were found.\n   ************* Beginning Simulation\n   ** Warning ** CalcDoe2DXCoil: Coil:Cooling:DX:SingleSpeed \"COIL COOLING DX SINGLE SPEED 10 65KBTU/HR 9.7EER\" - Air-cooled condenser inlet dry-bulb temperature below 0 C. Outdoor dry-bulb temperature = -14.55\n   **   ~~~   **  ... Occurrence info = RUN PERIOD 1, 01/01 09:02 - 09:05\n   **   ~~~   ** ... Operation at low ambient temperatures may require special performance curves.\n   ** Warning ** CalcDoe2DXCoil: Coil:Cooling:DX:SingleSpeed \"COIL COOLING DX SINGLE SPEED 1 65KBTU/HR 14.0SEER\" - Air-cooled condenser inlet dry-bulb temperature below 0 C. Outdoor dry-bulb temperature = -14.55\n   **   ~~~   **  ... Occurrence info = RUN PERIOD 1, 01/01 09:02 - 09:05\n   **   ~~~   ** ... Operation at low ambient temperatures may require special performance curves.\n   ** Warning ** CalcDoe2DXCoil: Coil:Cooling:DX:SingleSpeed \"COIL COOLING DX SINGLE SPEED 3 34KBTU/HR 14.0SEER\" - Air-cooled condenser inlet dry-bulb temperature below 0 C. Outdoor dry-bulb temperature = -14.55\n   **   ~~~   **  ... Occurrence info = RUN PERIOD 1, 01/01 09:02 - 09:05\n   **   ~~~   ** ... Operation at low ambient temperatures may require special performance curves.\n   ** Warning ** CalcDoe2DXCoil: Coil:Cooling:DX:SingleSpeed \"COIL COOLING DX SINGLE SPEED 2 33KBTU/HR 14.0SEER\" - Air-cooled condenser inlet dry-bulb temperature below 0 C. Outdoor dry-bulb temperature = -14.55\n   **   ~~~   **  ... Occurrence info = RUN PERIOD 1, 01/01 09:02 - 09:05\n   **   ~~~   ** ... Operation at low ambient temperatures may require special performance curves.\n   ** Warning ** CalcDoe2DXCoil: Coil:Cooling:DX:SingleSpeed \"COIL COOLING DX SINGLE SPEED 6 33KBTU/HR 14.0SEER\" - Air-cooled condenser inlet dry-bulb temperature below 0 C. Outdoor dry-bulb temperature = -14.55\n   **   ~~~   **  ... Occurrence info = RUN PERIOD 1, 01/01 09:02 - 09:05\n   **   ~~~   ** ... Operation at low ambient temperatures may require special performance curves.\n   ** Warning ** CalcDoe2DXCoil: Coil:Cooling:DX:SingleSpeed \"COIL COOLING DX SINGLE SPEED 8 34KBTU/HR 14.0SEER\" - Air-cooled condenser inlet dry-bulb temperature below 0 C. Outdoor dry-bulb temperature = -14.55\n   **   ~~~   **  ... Occurrence info = RUN PERIOD 1, 01/01 09:02 - 09:05\n   **   ~~~   ** ... Operation at low ambient temperatures may require special performance curves.\n   ** Warning ** CalcDoe2DXCoil: Coil:Cooling:DX:SingleSpeed \"COIL COOLING DX SINGLE SPEED 7 34KBTU/HR 14.0SEER\" - Air-cooled condenser inlet dry-bulb temperature below 0 C. Outdoor dry-bulb temperature = -14.55\n   **   ~~~   **  ... Occurrence info = RUN PERIOD 1, 01/01 09:02 - 09:05\n   **   ~~~   ** ... Operation at low ambient temperatures may require special performance curves.\n   ** Warning ** CalcDoe2DXCoil: Coil:Cooling:DX:SingleSpeed \"COIL COOLING DX SINGLE SPEED 5 33KBTU/HR 14.0SEER\" - Air-cooled condenser inlet dry-bulb temperature below 0 C. Outdoor dry-bulb temperature = -14.55\n   **   ~~~   **  ... Occurrence info = RUN PERIOD 1, 01/01 09:02 - 09:05\n   **   ~~~   ** ... Operation at low ambient temperatures may require special performance curves.\n   ** Warning ** CalcDoe2DXCoil: Coil:Cooling:DX:SingleSpeed \"COIL COOLING DX SINGLE SPEED 4 33KBTU/HR 14.0SEER\" - Air-cooled condenser inlet dry-bulb temperature below 0 C. Outdoor dry-bulb temperature = -14.55\n   **   ~~~   **  ... Occurrence info = RUN PERIOD 1, 01/01 09:02 - 09:05\n   **   ~~~   ** ... Operation at low ambient temperatures may require special performance curves.\n   ** Warning ** CalcDoe2DXCoil: Coil:Cooling:DX:SingleSpeed \"COIL COOLING DX SINGLE SPEED 9 34KBTU/HR 14.0SEER\" - Air-cooled condenser inlet dry-bulb temperature below 0 C. Outdoor dry-bulb temperature = -14.55\n   **   ~~~   **  ... Occurrence info = RUN PERIOD 1, 01/01 09:02 - 09:05\n   **   ~~~   ** ... Operation at low ambient temperatures may require special performance curves.\n   ** Warning ** CalcDoe2DXCoil: Coil:Cooling:DX:SingleSpeed \"COIL COOLING DX SINGLE SPEED 3 34KBTU/HR 14.0SEER\" - Full load outlet air dry-bulb temperature < 2C. This indicates the possibility of coil frost/freeze. Outlet temperature = -1.30 C.\n   **   ~~~   **  ...Occurrence info = RUN PERIOD 1, 02/13 12:30 - 12:45\n   **   ~~~   ** ... Possible reasons for low outlet air dry-bulb temperatures are: This DX coil\n   **   ~~~   **    1) may have a low inlet air dry-bulb temperature. Inlet air temperature = 12.872 C.\n   **   ~~~   **    2) may have a low air flow rate per watt of cooling capacity. Check inputs.\n   **   ~~~   **    3) is used as part of a HX assisted cooling coil which uses a high sensible effectiveness. Check inputs.\n   ** Warning ** CalcDoe2DXCoil: Coil:Cooling:DX:SingleSpeed \"COIL COOLING DX SINGLE SPEED 8 34KBTU/HR 14.0SEER\" - Full load outlet air dry-bulb temperature < 2C. This indicates the possibility of coil frost/freeze. Outlet temperature = -1.33 C.\n   **   ~~~   **  ...Occurrence info = RUN PERIOD 1, 02/13 12:30 - 12:45\n   **   ~~~   ** ... Possible reasons for low outlet air dry-bulb temperatures are: This DX coil\n   **   ~~~   **    1) may have a low inlet air dry-bulb temperature. Inlet air temperature = 12.845 C.\n   **   ~~~   **    2) may have a low air flow rate per watt of cooling capacity. Check inputs.\n   **   ~~~   **    3) is used as part of a HX assisted cooling coil which uses a high sensible effectiveness. Check inputs.\n   ** Warning ** CalcDoe2DXCoil: Coil:Cooling:DX:SingleSpeed \"COIL COOLING DX SINGLE SPEED 7 34KBTU/HR 14.0SEER\" - Full load outlet air dry-bulb temperature < 2C. This indicates the possibility of coil frost/freeze. Outlet temperature = -1.33 C.\n   **   ~~~   **  ...Occurrence info = RUN PERIOD 1, 02/13 12:30 - 12:45\n   **   ~~~   ** ... Possible reasons for low outlet air dry-bulb temperatures are: This DX coil\n   **   ~~~   **    1) may have a low inlet air dry-bulb temperature. Inlet air temperature = 12.845 C.\n   **   ~~~   **    2) may have a low air flow rate per watt of cooling capacity. Check inputs.\n   **   ~~~   **    3) is used as part of a HX assisted cooling coil which uses a high sensible effectiveness. Check inputs.\n   ** Warning ** CalcDoe2DXCoil: Coil:Cooling:DX:SingleSpeed \"COIL COOLING DX SINGLE SPEED 2 33KBTU/HR 14.0SEER\" - Full load outlet air dry-bulb temperature < 2C. This indicates the possibility of coil frost/freeze. Outlet temperature = -2.13 C.\n   **   ~~~   **  ...Occurrence info = RUN PERIOD 1, 03/14 12:00 - 12:15\n   **   ~~~   ** ... Possible reasons for low outlet air dry-bulb temperatures are: This DX coil\n   **   ~~~   **    1) may have a low inlet air dry-bulb temperature. Inlet air temperature = 12.108 C.\n   **   ~~~   **    2) may have a low air flow rate per watt of cooling capacity. Check inputs.\n   **   ~~~   **    3) is used as part of a HX assisted cooling coil which uses a high sensible effectiveness. Check inputs.\n   ** Warning ** CalcDoe2DXCoil: Coil:Cooling:DX:SingleSpeed \"COIL COOLING DX SINGLE SPEED 6 33KBTU/HR 14.0SEER\" - Full load outlet air dry-bulb temperature < 2C. This indicates the possibility of coil frost/freeze. Outlet temperature = -2.13 C.\n   **   ~~~   **  ...Occurrence info = RUN PERIOD 1, 03/14 12:00 - 12:15\n   **   ~~~   ** ... Possible reasons for low outlet air dry-bulb temperatures are: This DX coil\n   **   ~~~   **    1) may have a low inlet air dry-bulb temperature. Inlet air temperature = 12.105 C.\n   **   ~~~   **    2) may have a low air flow rate per watt of cooling capacity. Check inputs.\n   **   ~~~   **    3) is used as part of a HX assisted cooling coil which uses a high sensible effectiveness. Check inputs.\n   ** Warning ** CalcDoe2DXCoil: Coil:Cooling:DX:SingleSpeed \"COIL COOLING DX SINGLE SPEED 5 33KBTU/HR 14.0SEER\" - Full load outlet air dry-bulb temperature < 2C. This indicates the possibility of coil frost/freeze. Outlet temperature = -2.13 C.\n   **   ~~~   **  ...Occurrence info = RUN PERIOD 1, 03/14 12:00 - 12:15\n   **   ~~~   ** ... Possible reasons for low outlet air dry-bulb temperatures are: This DX coil\n   **   ~~~   **    1) may have a low inlet air dry-bulb temperature. Inlet air temperature = 12.104 C.\n   **   ~~~   **    2) may have a low air flow rate per watt of cooling capacity. Check inputs.\n   **   ~~~   **    3) is used as part of a HX assisted cooling coil which uses a high sensible effectiveness. Check inputs.\n   ** Warning ** CalcDoe2DXCoil: Coil:Cooling:DX:SingleSpeed \"COIL COOLING DX SINGLE SPEED 4 33KBTU/HR 14.0SEER\" - Full load outlet air dry-bulb temperature < 2C. This indicates the possibility of coil frost/freeze. Outlet temperature = -2.15 C.\n   **   ~~~   **  ...Occurrence info = RUN PERIOD 1, 03/14 12:00 - 12:15\n   **   ~~~   ** ... Possible reasons for low outlet air dry-bulb temperatures are: This DX coil\n   **   ~~~   **    1) may have a low inlet air dry-bulb temperature. Inlet air temperature = 12.087 C.\n   **   ~~~   **    2) may have a low air flow rate per watt of cooling capacity. Check inputs.\n   **   ~~~   **    3) is used as part of a HX assisted cooling coil which uses a high sensible effectiveness. Check inputs.\n   ** Warning ** CalcDoe2DXCoil: Coil:Cooling:DX:SingleSpeed \"COIL COOLING DX SINGLE SPEED 1 65KBTU/HR 14.0SEER\" - Full load outlet air dry-bulb temperature < 2C. This indicates the possibility of coil frost/freeze. Outlet temperature = -1.21 C.\n   **   ~~~   **  ...Occurrence info = RUN PERIOD 1, 03/19 11:15 - 11:22\n   **   ~~~   ** ... Possible reasons for low outlet air dry-bulb temperatures are: This DX coil\n   **   ~~~   **    1) may have a low inlet air dry-bulb temperature. Inlet air temperature = 12.997 C.\n   **   ~~~   **    2) may have a low air flow rate per watt of cooling capacity. Check inputs.\n   **   ~~~   **    3) is used as part of a HX assisted cooling coil which uses a high sensible effectiveness. Check inputs.\n   ** Warning ** CalcDoe2DXCoil: Coil:Cooling:DX:SingleSpeed \"COIL COOLING DX SINGLE SPEED 10 65KBTU/HR 9.7EER\" - Full load outlet air dry-bulb temperature < 2C. This indicates the possibility of coil frost/freeze. Outlet temperature = -1.91 C.\n   **   ~~~   **  ...Occurrence info = RUN PERIOD 1, 03/20 11:00 - 11:15\n   **   ~~~   ** ... Possible reasons for low outlet air dry-bulb temperatures are: This DX coil\n   **   ~~~   **    1) may have a low inlet air dry-bulb temperature. Inlet air temperature = 12.292 C.\n   **   ~~~   **    2) may have a low air flow rate per watt of cooling capacity. Check inputs.\n   **   ~~~   **    3) is used as part of a HX assisted cooling coil which uses a high sensible effectiveness. Check inputs.\n   ** Warning ** CalcDoe2DXCoil: Coil:Cooling:DX:SingleSpeed \"COIL COOLING DX SINGLE SPEED 9 34KBTU/HR 14.0SEER\" - Full load outlet air dry-bulb temperature < 2C. This indicates the possibility of coil frost/freeze. Outlet temperature = -0.16 C.\n   **   ~~~   **  ...Occurrence info = RUN PERIOD 1, 03/20 12:38 - 12:45\n   **   ~~~   ** ... Possible reasons for low outlet air dry-bulb temperatures are: This DX coil\n   **   ~~~   **    1) may have a low inlet air dry-bulb temperature. Inlet air temperature = 14.091 C.\n   **   ~~~   **    2) may have a low air flow rate per watt of cooling capacity. Check inputs.\n   **   ~~~   **    3) is used as part of a HX assisted cooling coil which uses a high sensible effectiveness. Check inputs.\n   ************* Simulation Error Summary *************\n   ************* There are 9 unused schedules in input.\n   ************* There are 9 unused week schedules in input.\n   ************* There are 32 unused day schedules in input.\n   ************* Use Output:Diagnostics,DisplayUnusedSchedules; to see them.\n   *************\n   ************* ===== Recurring Error Summary =====\n   ************* The following recurring error messages occurred.\n   *************\n   *************  ** Warning ** CalcDoe2DXCoil: Coil:Cooling:DX:SingleSpeed=\"COIL COOLING DX SINGLE SPEED 10 65KBTU/HR 9.7EER\" - Low condenser dry-bulb temperature error continues...\n   *************  **   ~~~   **   This error occurred 462 total times;\n   *************  **   ~~~   **   during Warmup 0 times;\n   *************  **   ~~~   **   during Sizing 0 times.\n   *************  **   ~~~   **   Max=-0.25 [C]  Min=-32.35 [C]\n   *************\n   *************  ** Warning ** CalcDoe2DXCoil: Coil:Cooling:DX:SingleSpeed=\"COIL COOLING DX SINGLE SPEED 1 65KBTU/HR 14.0SEER\" - Low condenser dry-bulb temperature error continues...\n   *************  **   ~~~   **   This error occurred 520 total times;\n   *************  **   ~~~   **   during Warmup 0 times;\n   *************  **   ~~~   **   during Sizing 0 times.\n   *************  **   ~~~   **   Max=-0.25 [C]  Min=-32.35 [C]\n   *************\n   *************  ** Warning ** CalcDoe2DXCoil: Coil:Cooling:DX:SingleSpeed=\"COIL COOLING DX SINGLE SPEED 3 34KBTU/HR 14.0SEER\" - Low condenser dry-bulb temperature error continues...\n   *************  **   ~~~   **   This error occurred 477 total times;\n   *************  **   ~~~   **   during Warmup 0 times;\n   *************  **   ~~~   **   during Sizing 0 times.\n   *************  **   ~~~   **   Max=-0.25 [C]  Min=-32.35 [C]\n   *************\n   *************  ** Warning ** CalcDoe2DXCoil: Coil:Cooling:DX:SingleSpeed=\"COIL COOLING DX SINGLE SPEED 2 33KBTU/HR 14.0SEER\" - Low condenser dry-bulb temperature error continues...\n   *************  **   ~~~   **   This error occurred 456 total times;\n   *************  **   ~~~   **   during Warmup 0 times;\n   *************  **   ~~~   **   during Sizing 0 times.\n   *************  **   ~~~   **   Max=-0.25 [C]  Min=-32.35 [C]\n   *************\n   *************  ** Warning ** CalcDoe2DXCoil: Coil:Cooling:DX:SingleSpeed=\"COIL COOLING DX SINGLE SPEED 6 33KBTU/HR 14.0SEER\" - Low condenser dry-bulb temperature error continues...\n   *************  **   ~~~   **   This error occurred 456 total times;\n   *************  **   ~~~   **   during Warmup 0 times;\n   *************  **   ~~~   **   during Sizing 0 times.\n   *************  **   ~~~   **   Max=-0.25 [C]  Min=-32.35 [C]\n   *************\n   *************  ** Warning ** CalcDoe2DXCoil: Coil:Cooling:DX:SingleSpeed=\"COIL COOLING DX SINGLE SPEED 8 34KBTU/HR 14.0SEER\" - Low condenser dry-bulb temperature error continues...\n   *************  **   ~~~   **   This error occurred 479 total times;\n   *************  **   ~~~   **   during Warmup 0 times;\n   *************  **   ~~~   **   during Sizing 0 times.\n   *************  **   ~~~   **   Max=-0.25 [C]  Min=-32.35 [C]\n   *************\n   *************  ** Warning ** CalcDoe2DXCoil: Coil:Cooling:DX:SingleSpeed=\"COIL COOLING DX SINGLE SPEED 7 34KBTU/HR 14.0SEER\" - Low condenser dry-bulb temperature error continues...\n   *************  **   ~~~   **   This error occurred 479 total times;\n   *************  **   ~~~   **   during Warmup 0 times;\n   *************  **   ~~~   **   during Sizing 0 times.\n   *************  **   ~~~   **   Max=-0.25 [C]  Min=-32.35 [C]\n   *************\n   *************  ** Warning ** CalcDoe2DXCoil: Coil:Cooling:DX:SingleSpeed=\"COIL COOLING DX SINGLE SPEED 5 33KBTU/HR 14.0SEER\" - Low condenser dry-bulb temperature error continues...\n   *************  **   ~~~   **   This error occurred 454 total times;\n   *************  **   ~~~   **   during Warmup 0 times;\n   *************  **   ~~~   **   during Sizing 0 times.\n   *************  **   ~~~   **   Max=-0.25 [C]  Min=-32.35 [C]\n   *************\n   *************  ** Warning ** CalcDoe2DXCoil: Coil:Cooling:DX:SingleSpeed=\"COIL COOLING DX SINGLE SPEED 4 33KBTU/HR 14.0SEER\" - Low condenser dry-bulb temperature error continues...\n   *************  **   ~~~   **   This error occurred 445 total times;\n   *************  **   ~~~   **   during Warmup 0 times;\n   *************  **   ~~~   **   during Sizing 0 times.\n   *************  **   ~~~   **   Max=-0.25 [C]  Min=-32.35 [C]\n   *************\n   *************  ** Warning ** CalcDoe2DXCoil: Coil:Cooling:DX:SingleSpeed=\"COIL COOLING DX SINGLE SPEED 9 34KBTU/HR 14.0SEER\" - Low condenser dry-bulb temperature error continues...\n   *************  **   ~~~   **   This error occurred 410 total times;\n   *************  **   ~~~   **   during Warmup 0 times;\n   *************  **   ~~~   **   during Sizing 0 times.\n   *************  **   ~~~   **   Max=-0.25 [C]  Min=-32.35 [C]\n   *************\n   *************  ** Warning ** CalcDoe2DXCoil: Coil:Cooling:DX:SingleSpeed=\"COIL COOLING DX SINGLE SPEED 3 34KBTU/HR 14.0SEER\" - Full load outlet temperature indicates a possibility of frost/freeze error continues. Outlet air temperature statistics follow:\n   *************  **   ~~~   **   This error occurred 104 total times;\n   *************  **   ~~~   **   during Warmup 0 times;\n   *************  **   ~~~   **   during Sizing 0 times.\n   *************  **   ~~~   **   Max=1.963741  Min=-2.112082\n   *************\n   *************  ** Warning ** CalcDoe2DXCoil: Coil:Cooling:DX:SingleSpeed=\"COIL COOLING DX SINGLE SPEED 8 34KBTU/HR 14.0SEER\" - Full load outlet temperature indicates a possibility of frost/freeze error continues. Outlet air temperature statistics follow:\n   *************  **   ~~~   **   This error occurred 108 total times;\n   *************  **   ~~~   **   during Warmup 0 times;\n   *************  **   ~~~   **   during Sizing 0 times.\n   *************  **   ~~~   **   Max=1.983065  Min=-2.150483\n   *************\n   *************  ** Warning ** CalcDoe2DXCoil: Coil:Cooling:DX:SingleSpeed=\"COIL COOLING DX SINGLE SPEED 7 34KBTU/HR 14.0SEER\" - Full load outlet temperature indicates a possibility of frost/freeze error continues. Outlet air temperature statistics follow:\n   *************  **   ~~~   **   This error occurred 108 total times;\n   *************  **   ~~~   **   during Warmup 0 times;\n   *************  **   ~~~   **   during Sizing 0 times.\n   *************  **   ~~~   **   Max=1.983663  Min=-2.149879\n   *************\n   *************  ** Warning ** CalcDoe2DXCoil: Coil:Cooling:DX:SingleSpeed=\"COIL COOLING DX SINGLE SPEED 2 33KBTU/HR 14.0SEER\" - Full load outlet temperature indicates a possibility of frost/freeze error continues. Outlet air temperature statistics follow:\n   *************  **   ~~~   **   This error occurred 94 total times;\n   *************  **   ~~~   **   during Warmup 0 times;\n   *************  **   ~~~   **   during Sizing 0 times.\n   *************  **   ~~~   **   Max=1.950702  Min=-2.494059\n   *************\n   *************  ** Warning ** CalcDoe2DXCoil: Coil:Cooling:DX:SingleSpeed=\"COIL COOLING DX SINGLE SPEED 6 33KBTU/HR 14.0SEER\" - Full load outlet temperature indicates a possibility of frost/freeze error continues. Outlet air temperature statistics follow:\n   *************  **   ~~~   **   This error occurred 94 total times;\n   *************  **   ~~~   **   during Warmup 0 times;\n   *************  **   ~~~   **   during Sizing 0 times.\n   *************  **   ~~~   **   Max=1.947026  Min=-2.497025\n   *************\n   *************  ** Warning ** CalcDoe2DXCoil: Coil:Cooling:DX:SingleSpeed=\"COIL COOLING DX SINGLE SPEED 5 33KBTU/HR 14.0SEER\" - Full load outlet temperature indicates a possibility of frost/freeze error continues. Outlet air temperature statistics follow:\n   *************  **   ~~~   **   This error occurred 92 total times;\n   *************  **   ~~~   **   during Warmup 0 times;\n   *************  **   ~~~   **   during Sizing 0 times.\n   *************  **   ~~~   **   Max=1.949081  Min=-2.499767\n   *************\n   *************  ** Warning ** CalcDoe2DXCoil: Coil:Cooling:DX:SingleSpeed=\"COIL COOLING DX SINGLE SPEED 4 33KBTU/HR 14.0SEER\" - Full load outlet temperature indicates a possibility of frost/freeze error continues. Outlet air temperature statistics follow:\n   *************  **   ~~~   **   This error occurred 88 total times;\n   *************  **   ~~~   **   during Warmup 0 times;\n   *************  **   ~~~   **   during Sizing 0 times.\n   *************  **   ~~~   **   Max=1.988574  Min=-2.516012\n   *************\n   *************  ** Warning ** CalcDoe2DXCoil: Coil:Cooling:DX:SingleSpeed=\"COIL COOLING DX SINGLE SPEED 1 65KBTU/HR 14.0SEER\" - Full load outlet temperature indicates a possibility of frost/freeze error continues. Outlet air temperature statistics follow:\n   *************  **   ~~~   **   This error occurred 111 total times;\n   *************  **   ~~~   **   during Warmup 0 times;\n   *************  **   ~~~   **   during Sizing 0 times.\n   *************  **   ~~~   **   Max=1.994705  Min=-2.427048\n   *************\n   *************  ** Warning ** CalcDoe2DXCoil: Coil:Cooling:DX:SingleSpeed=\"COIL COOLING DX SINGLE SPEED 10 65KBTU/HR 9.7EER\" - Full load outlet temperature indicates a possibility of frost/freeze error continues. Outlet air temperature statistics follow:\n   *************  **   ~~~   **   This error occurred 81 total times;\n   *************  **   ~~~   **   during Warmup 0 times;\n   *************  **   ~~~   **   during Sizing 0 times.\n   *************  **   ~~~   **   Max=1.981599  Min=-2.497568\n   *************\n   *************  ** Warning ** CalcDoe2DXCoil: Coil:Cooling:DX:SingleSpeed=\"COIL COOLING DX SINGLE SPEED 9 34KBTU/HR 14.0SEER\" - Full load outlet temperature indicates a possibility of frost/freeze error continues. Outlet air temperature statistics follow:\n   *************  **   ~~~   **   This error occurred 49 total times;\n   *************  **   ~~~   **   during Warmup 0 times;\n   *************  **   ~~~   **   during Sizing 0 times.\n   *************  **   ~~~   **   Max=1.984284  Min=-0.580248\n   *************\n   *************\n   ************* ===== Final Error Summary =====\n   ************* The following error categories occurred.  Consider correcting or noting.\n   ************* Nominally Unused Constructions\n   ************* ..The nominally unused constructions warning is provided to alert you to potential conditions that can cause\n   ************* ..extra time during simulation. Each construction is calculated by the algorithm indicated in the HeatBalanceAlgorithm\n   ************* ..object. You may remove the constructions indicated (when you use the DisplayExtraWarnings option).\n   *************\n   ************* EnergyPlus Warmup Error Summary. During Warmup: 0 Warning; 0 Severe Errors.\n   ************* EnergyPlus Sizing Error Summary. During Sizing: 87 Warning; 0 Severe Errors.\n   ************* EnergyPlus Completed Successfully-- 5681 Warning; 0 Severe Errors; Elapsed Time=00hr 01min  4.35sec\n",
   "file_format_version" : "0.0.1",
   "file_paths" : [ "../weather", "../seeds", "../seed" ],
   "hash" : "B930C3E5",
   "measure_paths" : [ "../measures" ],
   "name" : "LHS Autogenerated 400",
   "osa_id" : "4fef0e0f-5396-4c55-a6e1-2cd6803db3ab",
   "osd_id" : "1824aade-fdd5-469a-9812-550bc5b765b2",
   "run_directory" : "./run",
   "seed_file" : "seed.osm",
   "started_at" : "20170710T184707Z",
   "steps" : [
      {
         "arguments" : {
            "__SKIP__" : false,
            "building_type" : "RetailStripmall",
            "climate_zone" : "NECB HDD Method",
            "epw_file" : "CAN_PQ_Lake.Eon.714210_CWEC.epw",
            "template" : "NECB 2011"
         },
         "measure_dir_name" : "create_prototype_building",
         "name" : "create_prototype_building",
         "result" : {
            "completed_at" : "20170710T184818Z",
            "measure_class_name" : "CreatePrototypeBuilding",
            "measure_display_name" : "Create Prototype Building",
            "measure_name" : "create_prototype_building",
            "measure_taxonomy" : "Whole Building.Space Types",
            "measure_type" : "ModelMeasure",
            "measure_uid" : "ae90fsd7-a651-467a-bc8d-29d310b0f937",
            "measure_version_id" : "c6ec5c18-5595-459f-a082-09a19c8c869c",
            "measure_version_modified" : "20170519T182315Z",
            "measure_xml_checksum" : "057E8D9D",
            "started_at" : "20170710T184709Z",
            "stderr" : "",
            "stdout" : "[OpenStudio.Measure] <0> OSArgumentVector is deprecated, use OpenStudio::Measure::OSArgumentVector instead.\n[openstudio.EpwFile] <0> Successive data points (1970-Jan-31 to 1964-Feb-01, ending on line 753) are greater than 1 day apart in EPW file '/usr/local/bundle/bundler/gems/openstudio-standards-f448df66933d/openstudio-standards/data/weather/CAN_PQ_Lake.Eon.714210_CWEC.epw'. Data will be treated as typical (TMY)\n[openstudio.setFileExtension] <0> Path p, '/usr/local/bundle/bundler/gems/openstudio-standards-f448df66933d/openstudio-standards/data/weather/CAN_PQ_Lake.Eon.714210_CWEC.ddy', has an unexpected file extension. Was expecting 'idf'.\n[openstudio.model.YearDescription] <1> 'UseWeatherFile' is not yet a supported option for YearDescription\n[openstudio.model.YearDescription] <1> 'UseWeatherFile' is not yet a supported option for YearDescription\n[openstudio.setFileExtension] <0> Path p, '/usr/local/bundle/bundler/gems/openstudio-standards-f448df66933d/openstudio-standards/data/weather/CAN_PQ_Lake.Eon.714210_CWEC.ddy', has an unexpected file extension. Was expecting 'idf'.\n[openstudio.model.YearDescription] <1> 'UseWeatherFile' is not yet a supported option for YearDescription\n[openstudio.model.YearDescription] <1> 'UseWeatherFile' is not yet a supported option for YearDescription\n[openstudio.EpwFile] <0> Successive data points (1970-Jan-31 to 1964-Feb-01, ending on line 753) are greater than 1 day apart in EPW file '/usr/local/bundle/bundler/gems/openstudio-standards-f448df66933d/openstudio-standards/data/weather/CAN_PQ_Lake.Eon.714210_CWEC.epw'. Data will be treated as typical (TMY)\n[openstudio.weather.Model] <0> Could not find ground temperatures; will use generic temperatures, which will skew results.\n[openstudio.setFileExtension] <0> Path p, '/usr/local/bundle/bundler/gems/openstudio-standards-f448df66933d/openstudio-standards/data/weather/CAN_PQ_Lake.Eon.714210_CWEC.ddy', has an unexpected file extension. Was expecting 'idf'.\n[openstudio.model.YearDescription] <1> 'UseWeatherFile' is not yet a supported option for YearDescription\n[openstudio.model.YearDescription] <1> 'UseWeatherFile' is not yet a supported option for YearDescription\n[openstudio.EpwFile] <0> Successive data points (1970-Jan-31 to 1964-Feb-01, ending on line 753) are greater than 1 day apart in EPW file '/usr/local/bundle/bundler/gems/openstudio-standards-f448df66933d/openstudio-standards/data/weather/CAN_PQ_Lake.Eon.714210_CWEC.epw'. Data will be treated as typical (TMY)\n[openstudio.setFileExtension] <0> Path p, '/usr/local/bundle/bundler/gems/openstudio-standards-f448df66933d/openstudio-standards/data/weather/CAN_PQ_Lake.Eon.714210_CWEC.ddy', has an unexpected file extension. Was expecting 'idf'.\n[openstudio.model.YearDescription] <1> 'UseWeatherFile' is not yet a supported option for YearDescription\n[openstudio.model.YearDescription] <1> 'UseWeatherFile' is not yet a supported option for YearDescription\n[openstudio.setFileExtension] <0> Path p, '/usr/local/bundle/bundler/gems/openstudio-standards-f448df66933d/openstudio-standards/data/weather/CAN_PQ_Lake.Eon.714210_CWEC.ddy', has an unexpected file extension. Was expecting 'idf'.\n[openstudio.model.YearDescription] <1> 'UseWeatherFile' is not yet a supported option for YearDescription\n[openstudio.model.YearDescription] <1> 'UseWeatherFile' is not yet a supported option for YearDescription\n[openstudio.EpwFile] <0> Successive data points (1970-Jan-31 to 1964-Feb-01, ending on line 753) are greater than 1 day apart in EPW file '/usr/local/bundle/bundler/gems/openstudio-standards-f448df66933d/openstudio-standards/data/weather/CAN_PQ_Lake.Eon.714210_CWEC.epw'. Data will be treated as typical (TMY)\n[openstudio.setFileExtension] <0> Path p, '/usr/local/bundle/bundler/gems/openstudio-standards-f448df66933d/openstudio-standards/data/weather/CAN_PQ_Lake.Eon.714210_CWEC.ddy', has an unexpected file extension. Was expecting 'idf'.\n[openstudio.model.YearDescription] <1> 'UseWeatherFile' is not yet a supported option for YearDescription\n[openstudio.model.YearDescription] <1> 'UseWeatherFile' is not yet a supported option for YearDescription\n[openstudio.setFileExtension] <0> Path p, '/usr/local/bundle/bundler/gems/openstudio-standards-f448df66933d/openstudio-standards/data/weather/CAN_PQ_Lake.Eon.714210_CWEC.ddy', has an unexpected file extension. Was expecting 'idf'.\n[openstudio.model.YearDescription] <1> 'UseWeatherFile' is not yet a supported option for YearDescription\n[openstudio.model.YearDescription] <1> 'UseWeatherFile' is not yet a supported option for YearDescription\n[utilities.idf.WorkspaceObject] <0> Object of type 'Schedule:Constant' and named 'Always Off Discrete', points to an object named OnOff 1 from field 1, but that object cannot be located.\n[utilities.idf.WorkspaceObject] <0> Object of type 'Schedule:Constant' and named 'Always On Continuous', points to an object named Fractional 1 from field 1, but that object cannot be located.\n[utilities.idf.WorkspaceObject] <0> Object of type 'Schedule:Constant' and named 'Always Off Discrete', points to an object named OnOff 1 from field 1, but that object cannot be located.\n[utilities.idf.WorkspaceObject] <0> Object of type 'Schedule:Constant' and named 'Always On Continuous', points to an object named Fractional 1 from field 1, but that object cannot be located.\n[openstudio.standards.Fan] <0> For Fan Constant Volume 1, there is no greater nominal HP.  Use the efficiency of the largest motor category.\n[openstudio.standards.Fan] <0> For Fan Constant Volume 10, there is no greater nominal HP.  Use the efficiency of the largest motor category.\n[openstudio.standards.Fan] <0> For Fan Constant Volume 2, there is no greater nominal HP.  Use the efficiency of the largest motor category.\n[openstudio.standards.Fan] <0> For Fan Constant Volume 3, there is no greater nominal HP.  Use the efficiency of the largest motor category.\n[openstudio.standards.Fan] <0> For Fan Constant Volume 4, there is no greater nominal HP.  Use the efficiency of the largest motor category.\n[openstudio.standards.Fan] <0> For Fan Constant Volume 5, there is no greater nominal HP.  Use the efficiency of the largest motor category.\n[openstudio.standards.Fan] <0> For Fan Constant Volume 6, there is no greater nominal HP.  Use the efficiency of the largest motor category.\n[openstudio.standards.Fan] <0> For Fan Constant Volume 7, there is no greater nominal HP.  Use the efficiency of the largest motor category.\n[openstudio.standards.Fan] <0> For Fan Constant Volume 8, there is no greater nominal HP.  Use the efficiency of the largest motor category.\n[openstudio.standards.Fan] <0> For Fan Constant Volume 9, there is no greater nominal HP.  Use the efficiency of the largest motor category.\n[openstudio.EpwFile] <0> Successive data points (1970-Jan-31 to 1964-Feb-01, ending on line 753) are greater than 1 day apart in EPW file '/usr/local/bundle/bundler/gems/openstudio-standards-f448df66933d/openstudio-standards/data/weather/CAN_PQ_Lake.Eon.714210_CWEC.epw'. Data will be treated as typical (TMY)\n[openstudio.setFileExtension] <0> Path p, '/usr/local/bundle/bundler/gems/openstudio-standards-f448df66933d/openstudio-standards/data/weather/CAN_PQ_Lake.Eon.714210_CWEC.ddy', has an unexpected file extension. Was expecting 'idf'.\n[openstudio.model.YearDescription] <1> 'UseWeatherFile' is not yet a supported option for YearDescription\n[openstudio.model.YearDescription] <1> 'UseWeatherFile' is not yet a supported option for YearDescription\n[openstudio.setFileExtension] <0> Path p, '/usr/local/bundle/bundler/gems/openstudio-standards-f448df66933d/openstudio-standards/data/weather/CAN_PQ_Lake.Eon.714210_CWEC.ddy', has an unexpected file extension. Was expecting 'idf'.\n[openstudio.model.YearDescription] <1> 'UseWeatherFile' is not yet a supported option for YearDescription\n[openstudio.model.YearDescription] <1> 'UseWeatherFile' is not yet a supported option for YearDescription\n[openstudio.EpwFile] <0> Successive data points (1970-Jan-31 to 1964-Feb-01, ending on line 753) are greater than 1 day apart in EPW file '/usr/local/bundle/bundler/gems/openstudio-standards-f448df66933d/openstudio-standards/data/weather/CAN_PQ_Lake.Eon.714210_CWEC.epw'. Data will be treated as typical (TMY)\n[openstudio.setFileExtension] <0> Path p, '/usr/local/bundle/bundler/gems/openstudio-standards-f448df66933d/openstudio-standards/data/weather/CAN_PQ_Lake.Eon.714210_CWEC.ddy', has an unexpected file extension. Was expecting 'idf'.\n[openstudio.model.YearDescription] <1> 'UseWeatherFile' is not yet a supported option for YearDescription\n[openstudio.model.YearDescription] <1> 'UseWeatherFile' is not yet a supported option for YearDescription\n[openstudio.setFileExtension] <0> Path p, '/usr/local/bundle/bundler/gems/openstudio-standards-f448df66933d/openstudio-standards/data/weather/CAN_PQ_Lake.Eon.714210_CWEC.ddy', has an unexpected file extension. Was expecting 'idf'.\n[openstudio.model.YearDescription] <1> 'UseWeatherFile' is not yet a supported option for YearDescription\n[openstudio.model.YearDescription] <1> 'UseWeatherFile' is not yet a supported option for YearDescription\n[openstudio.EpwFile] <0> Successive data points (1970-Jan-31 to 1964-Feb-01, ending on line 753) are greater than 1 day apart in EPW file '/usr/local/bundle/bundler/gems/openstudio-standards-f448df66933d/openstudio-standards/data/weather/CAN_PQ_Lake.Eon.714210_CWEC.epw'. Data will be treated as typical (TMY)\n[openstudio.setFileExtension] <0> Path p, '/usr/local/bundle/bundler/gems/openstudio-standards-f448df66933d/openstudio-standards/data/weather/CAN_PQ_Lake.Eon.714210_CWEC.ddy', has an unexpected file extension. Was expecting 'idf'.\n[openstudio.model.YearDescription] <1> 'UseWeatherFile' is not yet a supported option for YearDescription\n[openstudio.model.YearDescription] <1> 'UseWeatherFile' is not yet a supported option for YearDescription\n[openstudio.setFileExtension] <0> Path p, '/usr/local/bundle/bundler/gems/openstudio-standards-f448df66933d/openstudio-standards/data/weather/CAN_PQ_Lake.Eon.714210_CWEC.ddy', has an unexpected file extension. Was expecting 'idf'.\n[openstudio.model.YearDescription] <1> 'UseWeatherFile' is not yet a supported option for YearDescription\n[openstudio.model.YearDescription] <1> 'UseWeatherFile' is not yet a supported option for YearDescription\n[openstudio.EpwFile] <0> Successive data points (1970-Jan-31 to 1964-Feb-01, ending on line 753) are greater than 1 day apart in EPW file '/usr/local/bundle/bundler/gems/openstudio-standards-f448df66933d/openstudio-standards/data/weather/CAN_PQ_Lake.Eon.714210_CWEC.epw'. Data will be treated as typical (TMY)\n[openstudio.setFileExtension] <0> Path p, '/usr/local/bundle/bundler/gems/openstudio-standards-f448df66933d/openstudio-standards/data/weather/CAN_PQ_Lake.Eon.714210_CWEC.ddy', has an unexpected file extension. Was expecting 'idf'.\n[openstudio.model.YearDescription] <1> 'UseWeatherFile' is not yet a supported option for YearDescription\n[openstudio.model.YearDescription] <1> 'UseWeatherFile' is not yet a supported option for YearDescription\n[openstudio.setFileExtension] <0> Path p, '/usr/local/bundle/bundler/gems/openstudio-standards-f448df66933d/openstudio-standards/data/weather/CAN_PQ_Lake.Eon.714210_CWEC.ddy', has an unexpected file extension. Was expecting 'idf'.\n[openstudio.model.YearDescription] <1> 'UseWeatherFile' is not yet a supported option for YearDescription\n[openstudio.model.YearDescription] <1> 'UseWeatherFile' is not yet a supported option for YearDescription\n[openstudio.EpwFile] <0> Successive data points (1970-Jan-31 to 1964-Feb-01, ending on line 753) are greater than 1 day apart in EPW file '/usr/local/bundle/bundler/gems/openstudio-standards-f448df66933d/openstudio-standards/data/weather/CAN_PQ_Lake.Eon.714210_CWEC.epw'. Data will be treated as typical (TMY)\n[openstudio.setFileExtension] <0> Path p, '/usr/local/bundle/bundler/gems/openstudio-standards-f448df66933d/openstudio-standards/data/weather/CAN_PQ_Lake.Eon.714210_CWEC.ddy', has an unexpected file extension. Was expecting 'idf'.\n[openstudio.model.YearDescription] <1> 'UseWeatherFile' is not yet a supported option for YearDescription\n[openstudio.model.YearDescription] <1> 'UseWeatherFile' is not yet a supported option for YearDescription\n[openstudio.setFileExtension] <0> Path p, '/usr/local/bundle/bundler/gems/openstudio-standards-f448df66933d/openstudio-standards/data/weather/CAN_PQ_Lake.Eon.714210_CWEC.ddy', has an unexpected file extension. Was expecting 'idf'.\n[openstudio.model.YearDescription] <1> 'UseWeatherFile' is not yet a supported option for YearDescription\n[openstudio.model.YearDescription] <1> 'UseWeatherFile' is not yet a supported option for YearDescription\n[openstudio.EpwFile] <0> Successive data points (1970-Jan-31 to 1964-Feb-01, ending on line 753) are greater than 1 day apart in EPW file '/usr/local/bundle/bundler/gems/openstudio-standards-f448df66933d/openstudio-standards/data/weather/CAN_PQ_Lake.Eon.714210_CWEC.epw'. Data will be treated as typical (TMY)\n[openstudio.setFileExtension] <0> Path p, '/usr/local/bundle/bundler/gems/openstudio-standards-f448df66933d/openstudio-standards/data/weather/CAN_PQ_Lake.Eon.714210_CWEC.ddy', has an unexpected file extension. Was expecting 'idf'.\n[openstudio.model.YearDescription] <1> 'UseWeatherFile' is not yet a supported option for YearDescription\n[openstudio.model.YearDescription] <1> 'UseWeatherFile' is not yet a supported option for YearDescription\n[openstudio.setFileExtension] <0> Path p, '/usr/local/bundle/bundler/gems/openstudio-standards-f448df66933d/openstudio-standards/data/weather/CAN_PQ_Lake.Eon.714210_CWEC.ddy', has an unexpected file extension. Was expecting 'idf'.\n[openstudio.model.YearDescription] <1> 'UseWeatherFile' is not yet a supported option for YearDescription\n[openstudio.model.YearDescription] <1> 'UseWeatherFile' is not yet a supported option for YearDescription\n[openstudio.EpwFile] <0> Successive data points (1970-Jan-31 to 1964-Feb-01, ending on line 753) are greater than 1 day apart in EPW file '/usr/local/bundle/bundler/gems/openstudio-standards-f448df66933d/openstudio-standards/data/weather/CAN_PQ_Lake.Eon.714210_CWEC.epw'. Data will be treated as typical (TMY)\n[openstudio.setFileExtension] <0> Path p, '/usr/local/bundle/bundler/gems/openstudio-standards-f448df66933d/openstudio-standards/data/weather/CAN_PQ_Lake.Eon.714210_CWEC.ddy', has an unexpected file extension. Was expecting 'idf'.\n[openstudio.model.YearDescription] <1> 'UseWeatherFile' is not yet a supported option for YearDescription\n[openstudio.model.YearDescription] <1> 'UseWeatherFile' is not yet a supported option for YearDescription\n[openstudio.setFileExtension] <0> Path p, '/usr/local/bundle/bundler/gems/openstudio-standards-f448df66933d/openstudio-standards/data/weather/CAN_PQ_Lake.Eon.714210_CWEC.ddy', has an unexpected file extension. Was expecting 'idf'.\n[openstudio.model.YearDescription] <1> 'UseWeatherFile' is not yet a supported option for YearDescription\n[openstudio.model.YearDescription] <1> 'UseWeatherFile' is not yet a supported option for YearDescription\n[openstudio.EpwFile] <0> Successive data points (1970-Jan-31 to 1964-Feb-01, ending on line 753) are greater than 1 day apart in EPW file '/usr/local/bundle/bundler/gems/openstudio-standards-f448df66933d/openstudio-standards/data/weather/CAN_PQ_Lake.Eon.714210_CWEC.epw'. Data will be treated as typical (TMY)\n[openstudio.setFileExtension] <0> Path p, '/usr/local/bundle/bundler/gems/openstudio-standards-f448df66933d/openstudio-standards/data/weather/CAN_PQ_Lake.Eon.714210_CWEC.ddy', has an unexpected file extension. Was expecting 'idf'.\n[openstudio.model.YearDescription] <1> 'UseWeatherFile' is not yet a supported option for YearDescription\n[openstudio.model.YearDescription] <1> 'UseWeatherFile' is not yet a supported option for YearDescription\n[openstudio.setFileExtension] <0> Path p, '/usr/local/bundle/bundler/gems/openstudio-standards-f448df66933d/openstudio-standards/data/weather/CAN_PQ_Lake.Eon.714210_CWEC.ddy', has an unexpected file extension. Was expecting 'idf'.\n[openstudio.model.YearDescription] <1> 'UseWeatherFile' is not yet a supported option for YearDescription\n[openstudio.model.YearDescription] <1> 'UseWeatherFile' is not yet a supported option for YearDescription\n[openstudio.EpwFile] <0> Successive data points (1970-Jan-31 to 1964-Feb-01, ending on line 753) are greater than 1 day apart in EPW file '/usr/local/bundle/bundler/gems/openstudio-standards-f448df66933d/openstudio-standards/data/weather/CAN_PQ_Lake.Eon.714210_CWEC.epw'. Data will be treated as typical (TMY)\n[openstudio.setFileExtension] <0> Path p, '/usr/local/bundle/bundler/gems/openstudio-standards-f448df66933d/openstudio-standards/data/weather/CAN_PQ_Lake.Eon.714210_CWEC.ddy', has an unexpected file extension. Was expecting 'idf'.\n[openstudio.model.YearDescription] <1> 'UseWeatherFile' is not yet a supported option for YearDescription\n[openstudio.model.YearDescription] <1> 'UseWeatherFile' is not yet a supported option for YearDescription\n[openstudio.setFileExtension] <0> Path p, '/usr/local/bundle/bundler/gems/openstudio-standards-f448df66933d/openstudio-standards/data/weather/CAN_PQ_Lake.Eon.714210_CWEC.ddy', has an unexpected file extension. Was expecting 'idf'.\n[openstudio.model.YearDescription] <1> 'UseWeatherFile' is not yet a supported option for YearDescription\n[openstudio.model.YearDescription] <1> 'UseWeatherFile' is not yet a supported option for YearDescription\n[openstudio.EpwFile] <0> Successive data points (1970-Jan-31 to 1964-Feb-01, ending on line 753) are greater than 1 day apart in EPW file '/usr/local/bundle/bundler/gems/openstudio-standards-f448df66933d/openstudio-standards/data/weather/CAN_PQ_Lake.Eon.714210_CWEC.epw'. Data will be treated as typical (TMY)\n[openstudio.setFileExtension] <0> Path p, '/usr/local/bundle/bundler/gems/openstudio-standards-f448df66933d/openstudio-standards/data/weather/CAN_PQ_Lake.Eon.714210_CWEC.ddy', has an unexpected file extension. Was expecting 'idf'.\n[openstudio.model.YearDescription] <1> 'UseWeatherFile' is not yet a supported option for YearDescription\n[openstudio.model.YearDescription] <1> 'UseWeatherFile' is not yet a supported option for YearDescription\n[openstudio.setFileExtension] <0> Path p, '/usr/local/bundle/bundler/gems/openstudio-standards-f448df66933d/openstudio-standards/data/weather/CAN_PQ_Lake.Eon.714210_CWEC.ddy', has an unexpected file extension. Was expecting 'idf'.\n[openstudio.model.YearDescription] <1> 'UseWeatherFile' is not yet a supported option for YearDescription\n[openstudio.model.YearDescription] <1> 'UseWeatherFile' is not yet a supported option for YearDescription\n[openstudio.standards.Fan] <0> For Fan Constant Volume 1, there is no greater nominal HP.  Use the efficiency of the largest motor category.\n[openstudio.standards.Fan] <0> For Fan Constant Volume 10, there is no greater nominal HP.  Use the efficiency of the largest motor category.\n[openstudio.standards.Fan] <0> For Fan Constant Volume 2, there is no greater nominal HP.  Use the efficiency of the largest motor category.\n[openstudio.standards.Fan] <0> For Fan Constant Volume 3, there is no greater nominal HP.  Use the efficiency of the largest motor category.\n[openstudio.standards.Fan] <0> For Fan Constant Volume 4, there is no greater nominal HP.  Use the efficiency of the largest motor category.\n[openstudio.standards.Fan] <0> For Fan Constant Volume 5, there is no greater nominal HP.  Use the efficiency of the largest motor category.\n[openstudio.standards.Fan] <0> For Fan Constant Volume 6, there is no greater nominal HP.  Use the efficiency of the largest motor category.\n[openstudio.standards.Fan] <0> For Fan Constant Volume 7, there is no greater nominal HP.  Use the efficiency of the largest motor category.\n[openstudio.standards.Fan] <0> For Fan Constant Volume 8, there is no greater nominal HP.  Use the efficiency of the largest motor category.\n[openstudio.standards.Fan] <0> For Fan Constant Volume 9, there is no greater nominal HP.  Use the efficiency of the largest motor category.\n",
            "step_errors" : [],
            "step_files" : [],
            "step_info" : [
               "Started adding geometry",
               "Finished adding geometry",
               "Started adding weather file for climate zone: NECB HDD Method.",
               "Template =",
               "Setting LGstore1 to Space Function.Retail - sales",
               "Setting LGstore2 to Space Function.Retail - sales",
               "Setting SMstore1 to Space Function.Retail - sales",
               "Setting SMstore2 to Space Function.Retail - sales",
               "Setting SMstore3 to Space Function.Retail - sales",
               "Setting SMstore4 to Space Function.Retail - sales",
               "Setting SMstore5 to Space Function.Retail - sales",
               "Setting SMstore6 to Space Function.Retail - sales",
               "Setting SMstore7 to Space Function.Retail - sales",
               "Setting SMstore8 to Space Function.Retail - sales",
               "Started applying space types (loads)",
               "Space Function Retail - sales had no people, one has been created.",
               "Space Function Retail - sales set occupancy to 3.1 people/1000 ft^2.",
               "Space Function Retail - sales had no lights, one has been created.",
               "Space Function Retail - sales set LPD to 1.681531029 W/ft^2.",
               "Space Function Retail - sales had no electric equipment, one has been created.",
               "Space Function Retail - sales set electric EPD to 0.232255667 W/ft^2.",
               "Space Function Retail - sales had no ventilation specification, one has been created.",
               "Space Function Retail - sales set ventilation per area to 0.233 cfm/ft^2.",
               "Space Function Retail - sales had no infiltration objects, one has been created.",
               "Space Function Retail - sales set infiltration to 0.0 per ft^2 exterior surface area.",
               "Space Function Retail - sales set occupancy schedule to NECB-C-Occupancy.",
               "Space Function Retail - sales set occupant activity schedule to NECB-Activity.",
               "Space Function Retail - sales set lighting schedule to NECB-C-Lighting.",
               "Space Function Retail - sales set electric equipment schedule to NECB-C-Electric-Equipment.",
               "Space Function Retail - sales set infiltration schedule to Always On.",
               "Space Function Retail - sales set heating setpoint schedule to NECB-C-Thermostat Setpoint-Heating.",
               "Space Function Retail - sales set cooling setpoint schedule to NECB-C-Thermostat Setpoint-Cooling.",
               "Finished applying space types (loads)",
               "Started applying constructions",
               "Adding construction set: NECB 2011-NECB HDD Method-StripMall--is_residentialNo",
               "Adding construction Typical Insulated Exterior Mass Floor R-15.63.",
               "Adding construction Typical Insulated Exterior Mass Wall R-12.5.",
               "Adding construction Typical Insulated Metal Building Roof R-20.41.",
               "Adding construction Typical Interior Floor.",
               "Adding construction Typical Interior Wall.",
               "Adding construction Typical Interior Ceiling.",
               "Adding construction Typical Insulated Carpeted 6in Slab Floor.",
               "Adding construction U 0.55 SHGC 0.31 Dbl Ref-D Tint 6mm/6mm Air.",
               "Adding construction Typical Insulated Metal Door R-1.43.",
               "Adding construction U 0.35 SHGC 0.35 Dbl LoE (e2-.1) Tint 6mm/13mm Air.",
               "Adding construction Typical Overhead Door R-2.0.",
               "Adding construction U 0.48 SHGC 0.40 Dbl Ref-D Clr 6mm/13mm.",
               "Adding construction Typical Interior Window.",
               "Adding construction Typical Interior Door.",
               "Adding construction Typical Interior Partition.",
               "Finished applying constructions",
               "WWR NonRes = 0%; window = 0 ft2, wall = 0 ft2.",
               "WWR Res = 0%; window = 0 ft2, wall = 0 ft2.",
               "WWR Semiheated = 0%; window = 0 ft2, wall = 0 ft2.",
               "The skylight to roof ratios (SRRs) are: NonRes: 0%, Res: 0%.",
               "Started creating thermal zones",
               "Finished creating thermal zones",
               "Running simulation /mnt/openstudio/analysis_4fef0e0f-5396-4c55-a6e1-2cd6803db3ab/data_point_1824aade-fdd5-469a-9812-550bc5b765b2/run/000_create_prototype_building/output/RetailStripmall-NECB 2011-NECB HDD Method-CAN_PQ_Lake.Eon.714210_CWEC.epw/SR0.",
               "Finished run.",
               "Started Adding HVAC",
               "Finished adding HVAC",
               "Started Adding Service Water Heating",
               "Adding service water loop.",
               "Adding water heater.",
               "Template =",
               "Finished adding Service Water Heating",
               "Set sizing factors to 1.3 for heating and 1.3 for cooling.",
               "Running simulation /mnt/openstudio/analysis_4fef0e0f-5396-4c55-a6e1-2cd6803db3ab/data_point_1824aade-fdd5-469a-9812-550bc5b765b2/run/000_create_prototype_building/output/RetailStripmall-NECB 2011-NECB HDD Method-CAN_PQ_Lake.Eon.714210_CWEC.epw/SR1.",
               "Finished run.",
               "Started applying multizone vav OA sizing.",
               "Finished applying multizone vav OA sizing.",
               "Started applying prototype HVAC assumptions.",
               "For Fan Constant Volume 1: allowed_hp = 1.66HP; motor eff = 61.5%; total fan eff = 40% based on 2422 cfm.",
               "For Fan Constant Volume 10: allowed_hp = 1.68HP; motor eff = 61.5%; total fan eff = 40% based on 2455 cfm.",
               "For Fan Constant Volume 2: allowed_hp = 1.01HP; motor eff = 61.5%; total fan eff = 40% based on 1244 cfm.",
               "For Fan Constant Volume 3: allowed_hp = 1.01HP; motor eff = 61.5%; total fan eff = 40% based on 1270 cfm.",
               "For Fan Constant Volume 4: allowed_hp = 1.01HP; motor eff = 61.5%; total fan eff = 40% based on 1245 cfm.",
               "For Fan Constant Volume 5: allowed_hp = 1.01HP; motor eff = 61.5%; total fan eff = 40% based on 1243 cfm.",
               "For Fan Constant Volume 6: allowed_hp = 1.01HP; motor eff = 61.5%; total fan eff = 40% based on 1243 cfm.",
               "For Fan Constant Volume 7: allowed_hp = 1.01HP; motor eff = 61.5%; total fan eff = 40% based on 1267 cfm.",
               "For Fan Constant Volume 8: allowed_hp = 1.01HP; motor eff = 61.5%; total fan eff = 40% based on 1266 cfm.",
               "For Fan Constant Volume 9: allowed_hp = 1.01HP; motor eff = 61.5%; total fan eff = 40% based on 1266 cfm.",
               "Sp-SMstore8 Sys-3 Flr-1 Sch-C HPlcmt-east ZN NECB System 3 PSZ does not require an economizer because the total cooling capacity of 33761 Btu/hr is less than the minimum capacity of 68243 Btu/hr.",
               "Sp-SMstore6 Sys-3 Flr-1 Sch-C HPlcmt-north ZN NECB System 3 PSZ does not require an economizer because the total cooling capacity of 33145 Btu/hr is less than the minimum capacity of 68243 Btu/hr.",
               "Sp-SMstore7 Sys-3 Flr-1 Sch-C HPlcmt-north ZN NECB System 3 PSZ does not require an economizer because the total cooling capacity of 33178 Btu/hr is less than the minimum capacity of 68243 Btu/hr.",
               "Sp-LGstore2 Sys-3 Flr-1 Sch-C HPlcmt-north ZN NECB System 3 PSZ does not require an economizer because the total cooling capacity of 64553 Btu/hr is less than the minimum capacity of 68243 Btu/hr.",
               "Sp-SMstore1 Sys-3 Flr-1 Sch-C HPlcmt-north ZN NECB System 3 PSZ does not require an economizer because the total cooling capacity of 33867 Btu/hr is less than the minimum capacity of 68243 Btu/hr.",
               "Sp-SMstore2 Sys-3 Flr-1 Sch-C HPlcmt-north ZN NECB System 3 PSZ does not require an economizer because the total cooling capacity of 33150 Btu/hr is less than the minimum capacity of 68243 Btu/hr.",
               "Sp-SMstore4 Sys-3 Flr-1 Sch-C HPlcmt-north ZN NECB System 3 PSZ does not require an economizer because the total cooling capacity of 33761 Btu/hr is less than the minimum capacity of 68243 Btu/hr.",
               "Sp-SMstore5 Sys-3 Flr-1 Sch-C HPlcmt-north ZN NECB System 3 PSZ does not require an economizer because the total cooling capacity of 33762 Btu/hr is less than the minimum capacity of 68243 Btu/hr.",
               "Sp-LGstore1 Sys-3 Flr-1 Sch-C HPlcmt-west ZN NECB System 3 PSZ does not require an economizer because the total cooling capacity of 65441 Btu/hr is less than the minimum capacity of 68243 Btu/hr.",
               "Sp-SMstore3 Sys-3 Flr-1 Sch-C HPlcmt-north ZN NECB System 3 PSZ does not require an economizer because the total cooling capacity of 33139 Btu/hr is less than the minimum capacity of 68243 Btu/hr.",
               "Finished applying prototype HVAC assumptions.",
               "Started applying HVAC efficiency standards.",
               "For Sp-LGstore1 Sys-3 Flr-1 Sch-C HPlcmt-west ZN NECB System 3 PSZ, ERV not required based on 0% OA flow, design supply air flow of 2455cfm, and climate zone NECB HDD Method.",
               "For Sp-LGstore1 Sys-3 Flr-1 Sch-C HPlcmt-west ZN NECB System 3 PSZ, ERV not required based on exhaust heat content.",
               "For NECB 2011 NECB HDD Method:  Sp-LGstore1 Sys-3 Flr-1 Sch-C HPlcmt-west ZN NECB System 3 PSZ: DCV is not required for any system.",
               "For Sp-LGstore1 Sys-3 Flr-1 Sch-C HPlcmt-west ZN NECB System 3 PSZ: Annual occupied hours = 4168 hr/yr, assuming a 0.15 occupancy threshold.  This schedule will be used as the HVAC operation schedule.",
               "For Sp-LGstore1 Sys-3 Flr-1 Sch-C HPlcmt-west ZN NECB System 3 PSZ: Setting motorized OA damper schedule to Sp-LGstore1 Sys-3 Flr-1 Sch-C HPlcmt-west ZN NECB System 3 PSZ Occ Sch.",
               "For Sp-LGstore2 Sys-3 Flr-1 Sch-C HPlcmt-north ZN NECB System 3 PSZ, ERV not required based on 0% OA flow, design supply air flow of 2422cfm, and climate zone NECB HDD Method.",
               "For Sp-LGstore2 Sys-3 Flr-1 Sch-C HPlcmt-north ZN NECB System 3 PSZ, ERV not required based on exhaust heat content.",
               "For NECB 2011 NECB HDD Method:  Sp-LGstore2 Sys-3 Flr-1 Sch-C HPlcmt-north ZN NECB System 3 PSZ: DCV is not required for any system.",
               "For Sp-LGstore2 Sys-3 Flr-1 Sch-C HPlcmt-north ZN NECB System 3 PSZ: Annual occupied hours = 4168 hr/yr, assuming a 0.15 occupancy threshold.  This schedule will be used as the HVAC operation schedule.",
               "For Sp-LGstore2 Sys-3 Flr-1 Sch-C HPlcmt-north ZN NECB System 3 PSZ: Setting motorized OA damper schedule to Sp-LGstore2 Sys-3 Flr-1 Sch-C HPlcmt-north ZN NECB System 3 PSZ Occ Sch.",
               "For Sp-SMstore1 Sys-3 Flr-1 Sch-C HPlcmt-north ZN NECB System 3 PSZ, ERV not required based on 0% OA flow, design supply air flow of 1270cfm, and climate zone NECB HDD Method.",
               "For Sp-SMstore1 Sys-3 Flr-1 Sch-C HPlcmt-north ZN NECB System 3 PSZ, ERV not required based on exhaust heat content.",
               "For NECB 2011 NECB HDD Method:  Sp-SMstore1 Sys-3 Flr-1 Sch-C HPlcmt-north ZN NECB System 3 PSZ: DCV is not required for any system.",
               "For Sp-SMstore1 Sys-3 Flr-1 Sch-C HPlcmt-north ZN NECB System 3 PSZ: Annual occupied hours = 4168 hr/yr, assuming a 0.15 occupancy threshold.  This schedule will be used as the HVAC operation schedule.",
               "For Sp-SMstore1 Sys-3 Flr-1 Sch-C HPlcmt-north ZN NECB System 3 PSZ: Setting motorized OA damper schedule to Sp-SMstore1 Sys-3 Flr-1 Sch-C HPlcmt-north ZN NECB System 3 PSZ Occ Sch.",
               "For Sp-SMstore2 Sys-3 Flr-1 Sch-C HPlcmt-north ZN NECB System 3 PSZ, ERV not required based on 0% OA flow, design supply air flow of 1244cfm, and climate zone NECB HDD Method.",
               "For Sp-SMstore2 Sys-3 Flr-1 Sch-C HPlcmt-north ZN NECB System 3 PSZ, ERV not required based on exhaust heat content.",
               "For NECB 2011 NECB HDD Method:  Sp-SMstore2 Sys-3 Flr-1 Sch-C HPlcmt-north ZN NECB System 3 PSZ: DCV is not required for any system.",
               "For Sp-SMstore2 Sys-3 Flr-1 Sch-C HPlcmt-north ZN NECB System 3 PSZ: Annual occupied hours = 4168 hr/yr, assuming a 0.15 occupancy threshold.  This schedule will be used as the HVAC operation schedule.",
[...]
1YtXqIFkJB7AyYhdwZMQu4LmIRsq2ASsq2CSci2CiYh2yqYhGyrYBIltgqnIS+3OA3ZVuE0ZFuF05BtFU5DtlU4DdlW4TRkW4XTkG0VTkO2Vbj6t4V5XmKrcBpbKOQltgqnsV4pr3wVST1btXhXCUBC7g2YhNwZMAm5L2ASsq2CSci2CiYh2yqYhGyrYBKyrYJJlNgqnIa83OI0ZFuF05BtFU5DtlU4DdlW4TRkW4XTkG0VTkO2VTgN2Vbh6t8W5nmJrcJpbKGQl9gqnMZ6pbxyx/d6tmqxJTxAQu4NmITcGTAJuS9gErKtgknItgomIdsqmIRsq2ASsq2CSZTYKpyGvNziNGRbhdOQbRVOQ7ZVOA3ZVuE0ZFuF05BtFU5DtlU4DdlW4erfFuZ5ia3CaWyhkJfYKpzGeqW8cmPderZqsfMuQELuDZiE3BkwCbkvYBKyrYJJyLYKJiHbKpiEbKtgErKtgkmU2Cqchrzc4jRkW4XTkG0VTkO2VTgN2VbhNGRbhdOQbRVOQ7ZVOA3ZVuHq3xbmeYmtwmlsoZCX2CqcxnqlvHL/wnq2arHBIUBC7g2YhNwZMAm5L2ASsq2CSci2CiYh2yqYhGyrYBKyrYJJlG62htKQl1ucRtlGViiNsj2uUBpl21+hNMr2fENplG0Hh9Io2ykOpVG2iRxKo2x/OVT928I8L92VDqWxhUJeYqtwGtWl/HOdHV6XWzerUxXpu9UGssW+sY30dtwsdoCt3Cp2tf9zqrMX8Szy00a/01Su22+qnvlbt19vu9n7HONhW2vfH3iZHsfJ/Pl9kC72T364/xqbTOcJ3ie+Tj7OzHbGtS80HPPHHG+1l84SvcAwOzIv233DG3wzzDDDDDPMMMMMM8wwwwwzzDDDDDPMMMMMM8wwwwwzzDDDDDPMMMMMM8wwwwwzzDDDDDPMMMMMM8wwwwwzzDDDDDPMMMMMM/yXCs/b8a1OksDXbz3zYK3b7vyfz6uaR2PTx4/Gnusk0Ony8VqnuXqAeBrGWTsMIl35iGz6o+d0q5+sTdvFq+encehlQRzlUE6a6WnrSo/iRDv1nnx+o8c68h/f0OJc46DTVD3z5HLHPMhs/nBCPcoMWEXqVdr25VhnZ1Fm2ieXGM2iYUHa2FV/VqRYEeqHqy8qn+U2RzBSjWwSpO206JV6Qub45qJ23n5n3nDS+C+wbbYVvnl0PGdf5r2cxmlgEr7MT9e5m9Vh0vyAKonv7JBWWEHkazMfWm7T8urVcb3uhaNAh2a8NZZtupgn4ySeTbWvfv5Z/W15/r59OfHS5fPvZoLtfhud/zCaN0jbG49fGY12qKNxNlHPVFf9UznPw9BRJ48/kYbBUDda7u5F5/Nu5Xz77k7iRDWu81vp/KKuc5nlUF3qmnN/z1cc+w4yhxnGy3wX15/bX/RcnZ6eLhpvvYxF1mW3X9ve6uq4SrT3ZZ2Lv1peY/t5017Luzs1w9oMhuVIKTZyaF96aRqMI+0PzBYR6UXRkp/Xa8pVR09n6aSxbl/kXXqy6M/1Z1IYntS5y7b55LoqaZbEX3Q9ncVn11WKp94wyOb1pJYfXvuuComV1LpZVgvJ42VlnelhvfiYYzWdHy88qqVc22w2060+69dmUVVrff5rlacwx96e+vD7J/Xv979/VOfvP3767d2v6s37X38bqNdnH8/qJXiVr9r63jMWTWWxSuMkU9HsJh8HQ1VsaZIqLx3m5iWIxjUyrtre5PmmMntNdVV/cUl0NksiNfWSVL8KYy9reGbJ38278ptzV8W5Wo1ZbdG+kV3eQlXir5vd6eXBfxbTvZjsjR1fj7xZmKlpEudrmN5pqp2fjo4Gg7OznQ1vPEMc4hCHOMQhDnGIQxziEIc4f00clc5u8n8CK1+bk8r35oYo0T5pSEMa0pCGNKQhDWlIQxrSkKac5q74r1n/Q3MVzjRxiEMc4hCHOMQhDnGIQxziEGcdnIf3BrrmvYHnM+m9gT23+IXt+fP9/eNjkpKUpCQlKUlJSlKSkpSkJCUpSUn6NEi7BamXSaSdgrTX63aPDkhKUpKSlKQkJSlJSUpSkpKUpCQl6dMg7RnSV0kgkHaPC1LXPTzs9UhKUpKSlKQkJSlJSUpSkpKUpCQl6dMg3TeknyYzifSoID3Oj/4LkpKUpCQlKUlJSlKSkpSkJCUpSUn6NEj7hvRf2pdIDwvSly8Hg8NDkpKUpCQlKUlJSlKSkpSkJCUpSUn6NEgPim8mZloiPShIB4ODA5KSlKQkJSlJSUpSkpKUpCQlKUlJ+lRIDw3p21jaWbDbL0iPjrrdfp+kJCUpSUlKUpKSlKQkJSlJSUpSkm6NdIXiJ95dozLZfTsLslCfT7ypbmf6PmvsvI5nSVqNMf/+ypfBjY7SII5CnRYZKlLs7annvq88VWRSd0E2UWl8o5Xfq7gyvR23velUR37DMdrObsUFq6PtZVnScO6dpjroWF40zy/q1r8ozeahXuC1vGg4iZP8eifUIwvaZY5RHGWtOx2MJ5nJcRWHfv0ci745n7bO36ZZnOh9dT5PWz31KkxarjofTloD9fpDOLzJWlGc5F3wxzv17mzwwnws0zeqpz6c/6HeD4fmszu7ZZ36bC8dJsE0+4f4mWd7fnD747B4jZwsz6UC/9QZmhE/yBvJCyKdXPb7jipa7tTxg3QaevOTIArzUOsqjIdffnFkvjzp4hZUNp/m15vG27v2br3F2dIrzXHrJWZwqlPlBzfTULcjfXd+O244P33P2FT7nU7xR+VkM2l9L/PyvBd/OqF3pUPnxPH1yJuFmZom8SgItdNcRC7vnRO33Wk6t14408u/D82alF+TLzODwdmZ87VZK08XlKcHyrMPytMH5TkA5TkE5TkC5TkG5XE7qESoEe2ihrSLGtMualC7qFHtooa1ixrXLmpgu6iR3UWN7C5srUaN7C5qZHetRrZKZzc3j15SXauiJdq3SCO2kV0asYXs0ojtY5dGnPd2acRZb5dGnPN2acQZb5dGnO92aeRCZpkHNI7lMmaZBzSS5SJmmQc0luUSZpkHNJrlAmaZBzSe5fJlmQe1LoPGs1y7LPPUH893QZTZl60rc6p+HrF5LPOIzWOZR2weyzzidLfMI053yzzidLfMI053yzzidLfMI9cv20SoES1XMNtEqDEt1zDbRKhRLVcx20SocS3XMdtEqJEtVzLbRLC1GjWy5WJmm6j+yH741aLyrcJSmes8+ofe4rXDAInu5iV6m5fY37xEf/MSB5uXONy8xNHmJY43L/Gosm9KYwvzu+SLWZyG/M0WTkP+0gunIX/Ti9OQvwTGacjfD+M05K+OcRryt8q4+reFed7dRh3fQiHvbqGSd9cr5ZUvb6xnqxZvdwRIyL0Bk5A7AyYh9wVMQrZVMAnZVsEkZFsFk5BtFUxCtlUwiZJfrnEa8k9/OA3ZVuE0ZFuF05BtFU5DtlU4DdlW4TRkW4XTkG0VTkO2Vbj6t4V5XvITP05jC4W8xFbhNNYr5ZXvyKpnqxYv0QJIyL0Bk5A7AyYh9wVMQrZVMAnZVsEkZFsFk5BtFUxCtlUwiRJbhdOQl1uchmyrcBqyrcJpyLYKpyHbKpyGbKtwGrKtwmnItgqnIdsqXP3bwjwvsVU4jS0U8hJbhdNYr5RXvoqknq1avKsEICH3BkxC7gyYhNwXMAnZVsEkZFsFk5BtFUxCtlUwCdlWwSRKbBVOQ15ucRqyrcJpyLYKpyHbKpyGbKtwGrKtwmnItgqnIdsqnIZsq3D1bwvzvMRW4TS2UMhLbBVOY71SXrnjez1btdgSHiAh9wZMQu4MmITcFzAJ2VbBJGRbBZOQbRVMQrZVMAnZVsEkSmwVTkNebnEasq3Caci2Cqch2yqchmyrcBqyrcJpyLYKpyHbKpyGbKtw9W8L87zEVuE0tlDIS2wVTmO9Ul65sW49W7XYeRcgIfcGTELuDJiE3BcwCdlWwSRkWwWTkG0VTEK2VTAJ2VbBJEpsFU5DXm5xGrKtwmnItgqnIdsqnIZsq3Aasq3Caci2Cqch2yqchmyrcPVvC/O8xFbhNLZQyEtsFU5jvVJeuX9hPVu12OAQICH3BkxC7gyYhNwXMAnZVsEkZFsFk5BtFUxCtlUwCdlWwSRKN1tDacjLLU6jbCMrlEbZHlcojbLtr1AaZXu+oTTKtoNDaZTtFIfSKNtEDqVRtr8cqv5tYZ6X7kqH0thCIS+xVTiN6lL+uc4Or8utm9WpivTdagPZYt/YRno7bhY7wFZuFbva/znV2Yt4Fvlpo99pKtftN1XP/K3br7fd7H2O8bCtte8PvEyP42T+/D5IF/snP9x/jU2m8wTvE18nH2dmO+PaFxqO+WOOt9pLZ4leYJgdmZftvuENvhlmmGGGGWaYYYYZZphhhhlmmGGGGWaYYYYZZphhhhlmmGGGGWaYYYYZZphhhhlmmGGGGWaYYYYZZphhhhlmmGGGGWaYYYYZ/kuF5+34VidJ4Ou3nnmw1m13/s/nVc2jsenjR2PPdRLodPl4rdNcPUA8DeOsHQaRrnxENv3Rc7rVT9am7eLV89M49LIgjnIoJ830tHWlR3GinXpPPr/RYx35j29oca5x0GmqnnlyuWMeZDZ/OKEeZQasIvUqbftyrLOzKDPtk0uMZtGwIG3sqj8rUqwI9cPVF5XPcpsjGKlGNgnSdlr0Sj0hc3xzUTtvvzNvOGn8F9g22wrfPDqesy/zXk7jNDAJX+an69zN6jBpfkCVxHd2SCusIPK1mQ8tt2l59eq4XvfCUaBDM94ayzZdzJNxEs+m2lc//6z+tjx/376ceOny+XczwXa/jc5/GM0bpO2Nx6+MRjvU0TibqGeqq/6pnOdh6KiTx59Iw2CoGy1396Lzebdyvn13J3GiGtf5rXR+Ude5zHKoLnXNub/nK459B5nDDONlvovrz+0veq5OT08XjbdexiLrstuvbW91dVwl2vuyzsVfLa+x/bxpr+XdnZphbQbDcqQUGzm0L700DcaR9gdmi4j0omjJz+s15aqjp7N00li3L/IuPVn05/ozKQxP6txl23xyXZU0S+Ivup7O4rPrKsVTbxhk83pSyw+vfVeFxEpq3SyrheTxsrLO9LBefMyxms6PFx7VUq5tNpvpVp/1a7OoqrU+/7XKU5hjb099+P2T+vf73z+q8/cfP/327lf15v2vvw3U67OPZ/USvMpXbX3vGYumslilcZKpaHaTj4OhKrY0SZWXDnPzEkTjGhlXbW/yfFOZvaa6qr+4JDqbJZGaekmqX4WxlzU8s+Tv5l35zbmr4lytxqy2aN/ILm+hKvHXze708uA/i+leTPbGjq9H3izM1DSJ8zVM7zTVzk9HR4PB2dnOhjeeIQ5xiEMc4hCHOMQhDnGIQ5y/Jo5KZzf5P4GVr81J5XtzQ5RonzSkIQ1pSEMa0pCGNKQhDWlIU05zV/zXrP+huQpnmjjEIQ5xiEMc4hCHOMQhDnGIsw7Ow3sDXfPewPOZ9N7Anlv8wvb8+f7+8TFJSUpSkpKUpCQlKUlJSlKSkpSkJH0apN2C1Msk0k5B2ut1u0cHJCUpSUlKUpKSlKQkJSlJSUpSkpL0aZD2DOmrJBBIu8cFqeseHvZ6JCUpSUlKUpKSlKQkJSlJSUpSkpL0aZDuG9JPk5lEelSQHudH/wVJSUpSkpKUpCQlKUlJSlKSkpSkJH0apH1D+i/tS6SHBenLl4PB4SFJSUpSkpKUpCQlKUlJSlKSkpSkJH0apAfFNxMzLZEeFKSDwcEBSUlKUpKSlKQkJSlJSUpSkpKUpCR9KqSHhvRtLO0s2O0XpEdH3W6/T1KSkpSkJCUpSUlKUpKSlKQkJSlJt0a6QvET765Rmey+nQVZqM8n3lS3M32fNXZex7MkrcaYf3/ly+BGR2kQR6FOiwwVKfb21HPfV54qMqm7IJuoNL7Ryu9VXJnejtvedKojv+EYbWe34oLV0fayLGk4905THXQsL5rnF3XrX5Rm81Av8FpeNJzESX69E+qRBe0yxyiOstadDsaTzOS4ikO/fo5F35xPW+dv0yxOdF+dz9NWT70Kk5arzoeT1kC9/hAOb7JWFCd5F/zxTr07G7wwH8v0jeqpD+d/qPfDofnszm5Zpz7bS4dJMM3+IX7m2Z4f3P44LF4jJ8tzqcA/dYZmxA/yRvKCSCeX/QNHFS136vhBOg29+UkQhXmodRXGwy+/ODJfnnRxCyqbT/PrTePtXXu33uJs6ZXmuPUSMzjVqfKDm2mo25G+O78dN5yfvmdsqv1Op/ijcrKZtL6XeXneiz+d0LvSoXPi+HrkzcJMTZN4FITaaS4il/fOidvuNJ1bL5zp5d+HZk3Kr8mXmcHg7Mz52qyVpwvK0wPl2Qfl6YPyHIDyHILyHIHyHIPyuB1UItSIdlFD2kWNaRc1qF3UqHZRw9pFjWsXNbBd1MjuokZ2F7ZWo0Z2FzWyu1YjW6Wzm5tHL6muVdES7VukEdvILo3YQnZpxPaxSyPOe7s04qy3SyPOebs04oy3SyPOd7s0ciGzzAMax3IZs8wDGslyEbPMAxrLcgmzzAMazXIBs8wDGs9y+bLMg1qXQeNZrl2WeeqP57sgyuzL1pU5VT+P2DyWecTmscwjNo9lHnG6W+YRp7tlHnG6W+YRp7tlHnG6W+aR65dtItSIliuYbSLUmJZrmG0i1KiWq5htItS4luuYbSLUyJYrmW0i2FqNGtlyMbNNVH9kP/xqUflWYanMdR79Q2/x2mGARHfzEr3NS+xvXqK/eYmDzUscbl7iaPMSx5uXeFTZN6Wxhfld8sUsTkP+ZgunIX/phdOQv+nFachfAuM05O+HcRryV8c4DflbZVz928I8726jjm+hkHe3UMm765Xyypc31rNVi7c7AiTk3oBJyJ0Bk5D7AiYh2yqYhGyrYBKyrYJJyLYKJiHbKphEyS/XOA35pz+chmyrcBqyrcJpyLYKpyHbKpyGbKtwGrKtwmnItgqnIdsqXP3bwjwv+Ykfp7GFQl5iq3Aa65Xyyndk1bNVi5doASTk3oBJyJ0Bk5D7AiYh2yqYhGyrYBKyrYJJyLYKJiHbKphEia3CacjLLU5DtlU4DdlW4TRkW4XTkG0VTkO2VTgN2VbhNGRbhdOQbRWu/m1hnpfYKpzGFgp5ia3CaaxXyitfRVLPVi3eVQKQkHsDJiF3BkxC7guYhGyrYBKyrYJJyLYKJiHbKpiEbKtgEiW2CqchL7c4DdlW4TRkW4XTkG0VTkO2VTgN2VbhNGRbhdOQbRVOQ7ZVuPq3hXleYqtwGlso5CW2CqexXimv3PG9nq1abAkPkJB7AyYhdwZMQu4LmIRsq2ASsq2CSci2CiYh2yqYhGyrYBIltgqnIS+3OA3ZVuE0ZFuF05BtFU5DtlU4DdlW4TRkW4XTkG0VTkO2Vbj6t4V5XmKrcBpbKOQltgqnsV4pr9xYt56tWuy8C5CQewMmIXcGTELuC5iEbKtgErKtgknItgomIdsqmIRsq2ASJbYKpyEvtzgN2VbhNGRbhdOQbRVOQ7ZVOA3ZVuE0ZFuF05BtFU5DtlW4+reFeV5iq3AaWyjkJbYKp7FeKa/cv7CerVpscAiQkHsDJiF3BkxC7guYhGyrYBKyrYJJyLYKJiHbKpiEbKtgEqWbraE05OUWp1G2kRVKo2yPK5RG2fZXKI2yPd9QGmXbwaE0ynaKQ2mUbSKH0ijbXw5V/7Ywz0t3pUNpbKGQl9gqnEZ1Kf9cZ4fX5dbN6lRF+m61gWyxb2wjvR03ix1gK7eKXe3/nOrsRTyL/LTR7zSV6/abqmf+1u3X2272Psd42Nba9wdepsdxMn9+H6SL/ZMf7r/GJtN5gveJr5OPM7Odce0LDcf8Mcdb7aWzRC8wzI7My3bf8AbfDDPMMMMMM8wwwwwzzDDDDDPMMMMMM8wwwwwzzDDDDDPMMMMMM8wwwwwzzDDDDDPMMMMMM8wwwwwzzDDDDDPMMMMMM8wwwwz/pcLzdnyrkyTw9VvPPFjrtjv/5/Oq5tHY9PGjsec6CXS6fLzWaa4eIJ6GcdYOg0hXPiKb/ug53eona9N28er5aRx6WRBHOZSTZnrautKjONFOvSef3+ixjvzHN7Q41zjoNFXPPLncMQ8ymz+cUI8yA1aRepW2fTnW2VmUmfbJJUazaFiQNnbVnxUpVoT64eqLyme5zRGMVCObBGk7LXqlnpA5vrmonbffmTecNP4LbJtthW8eHc/Zl3kvp3EamIQv89N17mZ1mDQ/oEriOzukFVYQ+drMh5bbtLx6dVyve+Eo0KEZb41lmy7myTiJZ1Ptq59/Vn9bnr9vX068dPn8u5lgu99G5z+M5g3S9sbjV0ajHeponE3UM9VV/1TO8zB01MnjT6RhMNSNlrt70fm8WznfvruTOFGN6/xWOr+o61xmOVSXuubc3/MVx76DzGGG8TLfxfXn9hc9V6enp4vGWy9jkXXZ7de2t7o6rhLtfVnn4q+W19h+3rTX8u5OzbA2g2E5UoqNHNqXXpoG40j7A7NFRHpRtOTn9Zpy1dHTWTpprNsXeZeeLPpz/ZkUhid17rJtPrmuSpol8RddT2fx2XWV4qk3DLJ5Panlh9e+q0JiJbVultVC8nhZWWd6WC8+5lhN58cLj2op1zabzXSrz/q1WVTVWp//WuUpzLG3pz78/kn9+/3vH9X5+4+ffnv3q3rz/tffBur12cezegle5au2vveMRVNZrNI4yVQ0u8nHwVAVW5qkykuHuXkJonGNjKu2N3m+qcxeU13VX1wSnc2SSE29JNWvwtjLGp5Z8nfzrvzm3FVxrlZjVlu0b2SXt1CV+Otmd3p58J/FdC8me2PH1yNvFmZqmsT5GqZ3mmrnp6OjweDsbGfDG88QhzjEIQ5xiEMc4hCHOMQhzl8TR6Wzm/yfwMrX5qTyvbkhSrRPGtKQhjSkIQ1pSEMa0pCGNKQpp7kr/mvW/9BchTNNHOIQhzjEIQ5xiEMc4hCHOMRZB+fhvYGueW/g+Ux6b2DPLX5he/58f//4mKQkJSlJSUpSkpKUpCQlKUlJSlKSPg3SbkHqZRJppyDt9brdowOSkpSkJCUpSUlKUpKSlKQkJSlJSfo0SHuG9FUSCKTd44LUdQ8Pez2SkpSkJCUpSUlKUpKSlKQkJSlJSfo0SPcN6afJTCI9KkiP86P/gqQkJSlJSUpSkpKUpCQlKUlJSlKSPg3SviH9l/Yl0sOC9OXLweDwkKQkJSlJSUpSkpKUpCQlKUlJSlKSPg3Sg+KbiZmWSA8K0sHg4ICkJCUpSUlKUpKSlKQkJSlJSUpSkj4V0kND+jaWdhbs9gvSo6Nut98nKUlJSlKSkpSkJCUpSUlKUpKSlKRbI12h+Il316hMdt/OgizU5xNvqtuZvs8aO6/jWZJWY8y/v/JlcKOjNIijUKdFhooUe3vque8rTxWZ1F2QTVQa32jl9yquTG/HbW861ZHfcIy2s1txwepoe1mWNJx7p6kOOpYXzfOLuvUvSrN5qBd4LS8aTuIkv94J9ciCdpljFEdZ604H40lmclzFoV8/x6Jvzqet87dpFif6QJ3P01ZPvQqTlqvOh5PWQL3+EA5vslYUJ3kX/PFOvTsbvDAfy/SN6qkP53+o98Oh+ezOblmnPttLh0kwzf4hfubZnh/c/jgsXiMny3OpwD91hmbED/JG8oJIJ5f9Q0cVLXfq+EE6Db35SRCFeah1FcbDL784Ml+edHELKptP8+tN4+1de7fe4mzplea49RIzONWp8oObaajbkb47vx03nJ++Z2yq/U6n+KNyspm0vpd5ed6LP53Qu9Khc+L4euTNwkxNk3gUhNppLiKX986J2+40nVsvnOnl34dmTcqvyZeZweDszPnarJWnC8rTA+XZB+Xpg/IcgPIcgvIcgfIcg/K4HVQi1Ih2UUPaRY1pFzWoXdSodlHD2kWNaxc1sF3UyO6iRnYXtlajRnYXNbK7ViNbpbObm0cvqa5V0RLtW6QR28gujdhCdmnE9rFLI857uzTirLdLI855uzTijLdLI853uzRyIbPMAxrHchmzzAMayXIRs8wDGstyCbPMAxrNcgGzzAMaz3L5ssyDWpdB41muXZZ56o/nuyDK7MvWlTlVP4/YPJZ5xOaxzCM2j2Uecbpb5hGnu2Uecbpb5hGnu2Uecbpb5pHrl20i1IiWK5htItSYlmuYbSLUqJarmG0i1LiW65htItTIliuZbSLYWo0a2XIxs01Uf2Q//GpR+VZhqcx1Hv1Db/HaYYBEd/MSvc1L7G9eor95iYPNSxxuXuJo8xLHm5d4VNk3pbGF+V3yxSxOQ/5mC6chf+mF05C/6cVpyF8C4zTk74dxGvJXxzgN+VtlXP3bwjzvbqOOb6GQd7dQybvrlfLKlzfWs1WLtzsCJOTegEnInQGTkPsCJiHbKpiEbKtgErKtgknItgomIdsqmETJL9c4DfmnP5yGbKtwGrKtwmnItgqnIdsqnIZsq3Aasq3Caci2Cqch2ypc/dvCPC/5iR+nsYVCXmKrcBrrlfLKd2TVs1WLl2gBJOTegEnInQGTkPsCJiHbKpiEbKtgErKtgknItgomIdsqmESJrcJpyMstTkO2VTgN2VbhNGRbhdOQbRVOQ7ZVOA3ZVuE0ZFuF05BtFa7+bWGel9gqnMYWCnmJrcJprFfKK19FUs9WLd5VApCQewMmIXcGTELuC5iEbKtgErKtgknItgomIdsqmIRsq2ASJbYKpyEvtzgN2VbhNGRbhdOQbRVOQ7ZVOA3ZVuE0ZFuF05BtFU5DtlW4+reFeV5iq3AaWyjkJbYKp7FeKa/c8b2erVpsCQ+QkHsDJiF3BkxC7guYhGyrYBKyrYJJyLYKJiHbKpiEbKtgEiW2CqchL7c4DdlW4TRkW4XTkG0VTkO2VTgN2VbhNGRbhdOQbRVOQ7ZVuPq3hXleYqtwGlso5CW2CqexXimv3Fi3nq1a7LwLkJB7AyYhdwZMQu4LmIRsq2ASsq2CSci2CiYh2yqYhGyrYBIltgqnIS+3OA3ZVuE0ZFuF05BtFU5DtlU4DdlW4TRkW4XTkG0VTkO2Vbj6t4V5XmKrcBpbKOQltgqnsV4pr9y/sJ6tWmxwCJCQewMmIXcGTELuC5iEbKtgErKtgknItgomIdsqmIRsq2ASpZutoTTk5RanUbaRFUqjbI8rlEbZ9lcojbI931AaZdvBoTTKdopDaZRtIofSKNtfDlX/tjDPS3elQ2lsoZCX2CqcRnUp/1xnh9fl1s3qVEX6brWBbLFvbCO9HTeLHWArt4pd7f+c6uxFPIv8tNHvNJXr9puqZ/7W7dfbbvY+x3jY1tr3B16mx3Eyf34fpIv9kx/uv8Ym03mC94mvk48zs51x7QsNx/wxx1vtpbNELzDMjszLdt/wBt8MM8wwwwwzzDDDDDPMMMMMM8wwwwwzzDDDDDPMMMMMM8wwwwwzzDDDDDPMMMMMM8wwwwwzzDDDDDPMMMMMM8wwwwwzzDDDDP+lwvN2fKuTJPD1W888WOu2O//n86rm0dj08aOx5zoJdLp8vNZprh4gnoZx1g6DSFc+Ipv+6Dnd6idr03bx6vlpHHpZEEc5lJNmetq60qM40U69J5/f6LGO/Mc3tDjXOOg0Vc88udwxDzKbP5xQjzIDVpF6lbZ9OdbZWZSZ9sklRrNoWJA2dtWfFSlWhPrh6ovKZ7nNEYxUI5sEaTsteqWekDm+uaidt9+ZN5w0/gtsm22Fbx4dz9mXeS+ncRqYhC/z03XuZnWYND+gSuI7O6QVVhD52syHltu0vHp1XK974SjQoRlvjWWbLubJOIlnU+2rn39Wf1uev29fTrx0+fy7mWC730bnP4zmDdL2xuNXRqMd6micTdQz1VX/VM7zMHTUyeNPpGEw1I2Wu3vR+bxbOd++u5M4UY3r/FY6v6jrXGY5VJe65tzf8xXHvoPMYYbxMt/F9ef2Fz1Xp6eni8ZbL2ORddnt17a3ujquEu19Wefir5bX2H7etNfy7k7NsDaDYTlSio0c2pdemgbjSPsDs0VEelG05Of1mnLV0dNZOmms2xd5l54s+nP9mRSGJ3Xusm0+ua5KmiXxF11PZ/HZdZXiqTcMsnk9qeWH176rQmIltW6W1ULyeFlZZ3pYLz7mWE3nxwuPainXNpvNdKvP+rVZVNVan/9a5SnMsbenPvz+Sf37/e8f1fn7j59+e/erevP+198G6vXZx7N6CV7lq7a+94xFU1ms0jjJVDS7ycfBUBVbmqTKS4e5eQmicY2Mq7Y3eb6pzF5TXdVfXBKdzZJITb0k1a/C2Msanlnyd/Ou/ObcVXGuVmNWW7RvZJe3UJX462Z3ennwn8V0LyZ7Y8fXI28WZmqaxPkapneaaueno6PB4OxsZ8MbzxCHOMQhDnGIQxziEIc4xCHOXxNHpbOb/J/AytfmpPK9uSFKtE8a0pCGNKQhDWlIQxrSkIY0pCmnuSv+a9b/0FyFM00c4hCHOMQhDnGIQxziEIc4xFkH5+G9ga55b+D5THpvYM8tfmF7/nx///iYpCQlKUlJSlKSkpSkJCUpSUlKUpI+DdJuQeplEmmnIO31ut2jA5KSlKQkJSlJSUpSkpKUpCQlKUlJ+jRIe4b0VRIIpN3jgtR1Dw97PZKSlKQkJSlJSUpSkpKUpCQlKUlJ+jRI9w3pp8lMIj0qSI/zo/+CpCQlKUlJSlKSkpSkJCUpSUlKUpI+DdK+If2X9iXSw4L05cvB4PCQpCQlKUlJSlKSkpSkJCUpSUlKUpI+DdKD4puJmZZIDwrSweDggKQkJSlJSUpSkpKUpCQlKUlJSlKSPhXSQ0P6NpZ2Fuz2C9Kjo2633ycpSUlKUpKSlKQkJSlJSUpSkpKUpFsjXaH4iXfXqEx2386CLNTnE2+q25m+zxo7r+NZklZjzL+/8mVwo6M0iKNQp0WGihR7e+q57ytPFZnUXZBNVBrfaOX3Kq5Mb8dtbzrVkd9wjLazW3HB6mh7WZY0nHunqQ46lhfN84u69S9Ks3moF3gtLxpO4iS/3gn1yIJ2mWMUR1nrTgfjSWZyXMWhXz/Hom/Op63zt2kWJ/pQnc/TVk+9CpOWq86Hk9ZAvf4QDm+yVhQneRf88U69Oxu8MB/L9I3qqQ/nf6j3w6H57M5uWac+20uHSTDN/iF+5tmeH9z+OCxeIyfLc6nAP3WGZsQP8kbygkgnl/0jRxUtd+r4QToNvflJEIV5qHUVxsMvvzgyX550cQsqm0/z603j7V17t97ibOmV5rj1EjM41anyg5tpqNuRvju/HTecn75nbKr9Tqf4o3KymbS+l3l53os/ndC70qFz4vh65M3CTE2TeBSE2mkuIpf3zonb7jSdWy+c6eXfh2ZNyq/Jl5nB4OzM+dqslacLytMD5dkH5emD8hyA8hyC8hyB8hyD8rgdVCLUiHZRQ9pFjWkXNahd1Kh2UcPaRY1rFzWwXdTI7qJGdhe2VqNGdhc1srtWI1uls5ubRy+prlXREu1bpBHbyC6N2EJ2acT2sUsjznu7NOKst0sjznm7NOKMt0sjzne7NHIhs8wDGsdyGbPMAxrJchGzzAMay3IJs8wDGs1yAbPMAxrPcvmyzINal0HjWa5dlnnqj+e7IMrsy9aVOVU/j9g8lnnE5rHMIzaPZR5xulvmEae7ZR5xulvmEae7ZR5xulvmkeuXbSLUiJYrmG0i1JiWa5htItSolquYbSLUuJbrmG0i1MiWK5ltIthajRrZcjGzTVR/ZD/8alH5VmGpzHUe/UNv8dphgER38xK9zUvsb16iv3mJg81LHG5e4mjzEsebl3hU2TelsYX5XfLFLE5D/mYLpyF/6YXTkL/pxWnIXwLjNOTvh3Ea8lfHOA35W2Vc/dvCPO9uo45voZB3t1DJu+uV8sqXN9azVYu3OwIk5N6AScidAZOQ+wImIdsqmIRsq2ASsq2CSci2CiYh2yqYRMkv1zgN+ac/nIZsq3Aasq3Caci2Cqch2yqchmyrcBqyrcJpyLYKpyHbKlz928I8L/mJH6exhUJeYqtwGuuV8sp3ZNWzVYuXaAEk5N6AScidAZOQ+wImIdsqmIRsq2ASsq2CSci2CiYh2yqYRImtwmnIyy1OQ7ZVOA3ZVuE0ZFuF05BtFU5DtlU4DdlW4TRkW4XTkG0Vrv5tYZ6X2CqcxhYKeYmtwmmsV8orX0VSz1Yt3lUCkJB7AyYhdwZMQu4LmIRsq2ASsq2CSci2CiYh2yqYhGyrYBIltgqnIS+3OA3ZVuE0ZFuF05BtFU5DtlU4DdlW4TRkW4XTkG0VTkO2Vbj6t4V5XmKrcBpbKOQltgqnsV4pr9zxvZ6tWmwJD5CQewMmIXcGTELuC5iEbKtgErKtgknItgomIdsqmIRsq2ASJbYKpyEvtzgN2VbhNGRbhdOQbRVOQ7ZVOA3ZVuE0ZFuF05BtFU5DtlW4+reFeV5iq3AaWyjkJbYKp7FeKa/cWLeerVrsvAuQkHsDJiF3BkxC7guYhGyrYBKyrYJJyLYKJiHbKpiEbKtgEiW2CqchL7c4DdlW4TRkW4XTkG0VTkO2VTgN2VbhNGRbhdOQbRVOQ7ZVuPq3hXleYqtwGlso5CW2CqexXimv3L+wnq1abHAIkJB7AyYhdwZMQu4LmIRsq2ASsq2CSci2CiYh2yqYhGyrYBKlm62hNOTlFqdRtpEVSqNsjyuURtn2VyiNsj3fUBpl28GhNMp2ikNplG0ih9Io218OVf+2MM9Ld6VDaWyhkJfYKpxGdSn/XGeH1+XWzepURfputYFssW9sI70dN4sdYCu3il3t/5zq7EU8i/y00e80lev2m6pn/tbt19tu9j7HeNjW2vcHXqbHcTJ/fh+ki/2TH+6/xibTeYL3ia+TjzOznXHtCw3H/DHHW+2ls0QvMMyOzMt23/AG3wwzzDDDDDPMMMMMM8wwwwwzzDDDDDPMMMMMM8wwwwwzzDDDDDPMMMMMM8wwwwwzzDDDDDPMMMMMM8wwwwwzzDDDDDPMMMMM/6XC83Z8q5Mk8PVbzzxY67Y7/+fzqubR2PTxo7HnOgl0uny81mmuHiCehnHWDoNIVz4im/7oOd3qJ2vTdvHq+WkcelkQRzmUk2Z62rrSozjRTr0nn9/osY78xze0ONc46DRVzzy53DEPMps/nFCPMgNWkXqVtn051tlZlJn2ySVGs2hYkDZ21Z8VKVaE+uHqi8pnuc0RjFQjmwRpOy16pZ6QOb65qJ2335k3nDT+C2ybbYVvHh3P2Zd5L6dxGpiEL/PTde5mdZg0P6BK4js7pBVWEPnazIeW27S8enVcr3vhKNChGW+NZZsu5sk4iWdT7auff1Z/W56/b19OvHT5/LuZYLvfRuc/jOYN0vbG41dGox3qaJxN1DPVVf9UzvMwdNTJ40+kYTDUjZa7e9H5vFs53767kzhRjev8Vjq/qOtcZjlUl7rm3N/zFce+g8xhhvEy38X15/YXPVenp6eLxlsvY5F12e3Xtre6Oq4S7X1Z5+KvltfYft601/LuTs2w/k9759rbNo6F4e/7K7gaYOJgbcWyY+cyzSxSx2kLtE0RpxjMBEVAW7StRJYEkUpiDPLfV5TlrN1WNalLW+++/BCnovjyEXnOIVuqx9IYUktJEjmYN5RzZ+IxuydTRPDrZCQ/5RvK5UQHEZ/W8s5FPKXHi/nM70mue6zylKa8M28vXIT+HVPrZ3Fv3p78gI4cMVfrKr0591MlXSy7yquyDCTrYSWPe2gHH1mW7rweeEiDWLpqOu6mzvpUT1ZVpfufNu0pZNnbIx8+XpE/Lz5eksHF5dWb96/I24tXb3rkdf+yryZwHkdt9kjlFo0In3A/FMSLZrEdjEiS0oQTykfx5sXxJgqKy7GXOisrM62ToXpwCZmIQo8ENOTs3PWpqFEZ8nfjqVy5NkyuKQ3m5i3aSrfpI2wSfqo208vz/jNx98TZazs2G9PIFSQI/TiGsZ062fnl8LDX6/d3Kk48AxzgAAc4wAEOcIADHOAABzj/mziER7P4r8DEZvIiselcEoXMBg1oQAMa0IAGNKABDWhAAxrQfJvmIXk16zOaoRsx4AAHOMABDnCAAxzgAAc4wAFOHpzn7w205PcGDqKs7w1sW8kJ2+np/v7REUhBClKQghSkIAUpSEEKUpCCFKQg3Q7SVkJKRRZpMyFtt1utwy5IQQpSkIIUpCAFKUhBClKQghSkIN0O0rYkPQ+dDNLWUUJqWQcH7TZIQQpSkIIUpCAFKUhBClKQghSkIN0O0n1JejWNskgPE9KjuHReghSkIAUpSEEKUpCCFKQgBSlIQQrS7SDtSNI/mJ1FepCQnp31egcHIAUpSEEKUpCCFKQgBSlIQQpSkIJ0O0i7yb9MRCyLtJuQ9nrdLkhBClKQghSkIAUpSEEKUpCCFKQg3RbSA0n6zs/KLNjqJKSHh61WpwNSkIIUpCAFKUhBClKQghSkIAUpSL8b6RLFDulDbaPYoykc4bLBlAbMFOxR1HZe+1HIN2PMv2x55syYxx3fcxlPFDZI7O2RU9smlCRK5MERU8L9GSN2e0NLfj8xaRAwz64Zsm9jd0ODZTGpEGHNeDTqpNvUbDSPG7XUG3Exd9kCr0G90dQP4/aGy8YatKnG2PdE44E5k6mQGkPftdU1FnMzCBqDd1z4ITskgzlvtMm5GzYsMhhNGz3y+oM7mokGo1yQv96T9/3eS3mXYDPSJh8Gf5GL0UjeurP7rTl9scdHoROI3zPvebFnO/dfr85sky0WaxHHPjFG0uB78RhRx2PhTefIIMnAnRi2wwOXzo8dz42rGkPXH939ZmTzxaKLRyBiHsTt5djt3dJ7urj6zZay3NNQ2iY5IbYzC1xmeuxhcD+pGb98yVgn+81m8mOjr0lZmwoa617/bbh0yFzj2LDZmEauIEHojx2XGfVFzc2jcWyZzbpxT92IGcfdI/NopRwe1Y2RDFCxQhxzer1+33iqK6m2KlFtV6K6X4lqpxLVbiWqB5WoHlaielSJqtWsRrYa77KqcS+rGv+yqnEwqxoPs6pxMasaH7OqcTKrGi9rVeNlrYrWsGq8rFWNl7UKeBnh0Wy29p3fOXYIIbM1RBXHVk9UcWT1RBXHVU9UMXbpiSpGLj1RxbilJ6oYtfREFWOWnqjqxkBTtRKfUt0WaKpW4lWqmwJN1Ur8SnVLoKlaiWepbgg0VSvxLdXtgKZqNetVJb6luhfQVM3rWw+OJ4puA4byBnVVxWHVVFUcVk1VxWHVVFUMWZqqiiFLU1UxZGmqKoYsTVXFkKWpqrof0JWtxrtUdwS6stX4l+qeQFe2Gg9T3RXoylbjY6r7Al3ZarxMdWegK1vRGlaNl6luDnRltbzsk8qBQ3qQSE6Ixx6W5xnJMUaN30/qyYHExpOL5WkkZ+KlH3k2r3WadWJZnTppy99aHbXTj8cY4/mQ1bZ7VLCJH85PHx2+OM17HgqFI89Y4CK0WXgZycM15YaSY77O8Y5RHoVsgSHPB9MpKHqIm5wjrXc1YKHDeIob95ROSOD6wpSHWxu75F977s2k3EzsLvBdKhzfi6EMLljQGLKxHzJDzZLesgnz7PUHWlyrdWMraEtLkIdhlvyRnpFuPD5eypo3Eyb6npDjE3cxjrxRQlrbJX8rHJJKQvbc+nqjb8jijElNTB0e27Vsp9aRLCuNzHj8+nQ0rf0XWFdtiZ+eDaa6N4HPHSl4Fl9WeZplkTJfoQr9Bz2kJZbj2Uw6bsOqa7Zeltu8DccOc6W91dIxXfjJJPSjgNnk11/JP9Prj+bNlPI0nkgH212tnX+1Nh4Qk04m57IP02XeREzJC9Ii/ybGqesa5Hj9Du46I1ZrWLvXzU+7G/3tiyfxQ1K7jR+l+Ru5jbtJTTXtV1771wmx9CdIFmnGqd717SfzjsXh7eRkMXj5FBPVdNpvdR91WYYho3d5Gj9pttG9X45X+nQn0qylMaSWkiyM5s3iBSBmJ68A8etkJD/lG8rlRAcRn9byzkU8pceL+czvSa57rPKUprwzby9chP4dU+tncW/envyAjhwxV+sqvTn3UyVdLLvKq7IMJOthJY97aAcfWZbuvB54SINYumo67qbO+lRPVlWl+5827Slk2dsjHz5ekT8vPl6SwcXl1Zv3r8jbi1dveuR1/7KvJnAeR232SOUWjQifcD/eSHvRLLaDEUm2iJxQPoo3L443UVBcjr3UWVmZaZ0M1YNLyEQUeiSgIWfnrk9FjcqQvxtP5cq1YXJNaTA3b9FWuk0fYZPw0w94UfOzA9j0bUx5oPpD3hsFDnCAAxzgAAc4wAEOcIADnK3H+fIFF0kUMhs0oAENaEADGtCABjSgAQ1oQPNtmi9eCZQ08hU/4AAHOMABDnCAAxzgAAc4wAHOD0yPeMVmAQupiEJGaue7SJD4UyVI/INKi3vNko/T2dBhniByymTeQ2ZH8fg3yEHzfCtSIHabP38KxJjxe6VATP7jad4UTCXptEvS2S9Jp1OSTrcknYOSdA5L0jkqSWctt0AhobIs2irLpK2ybNoqy6itsqzaKsusrbLs2irLsK2yLLtVlmW3SovVZVl2qyzLbmlZtnrKvjWp/En6CshkjlD+RHwFZDL9Pn+yvQIymT6fP6FeAZlMfy+QNK+ITkl2nL2MFUiFV0SnJFPOXsMKJLgrolOSNWcvYAXS1hWJgyXZc/bqVSAZXRGdkuw5e+nKn2JuTaZAUrkiOpnDUyBxXBGdTHcvkByuiE6muxdIAFdEJ9PdiyR5KyRUlkVnr2BFUrcVEirLqLMXsSIJ2QoJlWXX2etYkTRrhSJjWZadvZQVSZ5WSKgsy85ezZASbStSoqEa1ahGNapRjWpUoxrVqEY1qlGNalSj+meqnpv+PQtDx2bvqPyHKstsIiX+ypMgJf5zQUp8rYKU+EiJr1GQEv/zgpT4nxekxNcsSImPlPhfLUiJDxzgAAc4wAEOcIADHOAABzjA2YaEkqABDWhAAxrQgAY0oAENaECzPTT/N4ksgQMc4AAHOMABDnCAAxzgACd/fz8gJf6ZM2Med3zPZZwjIf7PlRDfD+9Ifzx2Rg7zRvPnNPjfNwF+evdnNat/Xv6++HxWT395/hj69lx+TsXM/f0f/wHFEpG6"
               },
               {
                  "name" : "annual_peak_electric_demand",
                  "units" : "kW",
                  "value" : 224.28567999999999
               },
               {
                  "name" : "first_year_capital_cost",
                  "units" : "$",
                  "value" : 0
               },
               {
                  "name" : "annual_utility_cost",
                  "units" : "$",
                  "value" : 0
               },
               {
                  "name" : "total_lifecycle_cost",
                  "units" : "$",
                  "value" : 0
               }
            ],
            "step_warnings" : [ "A table in Annual Overview section returned false and was skipped." ]
         }
      }
   ],
   "updated_at" : "20170710T185000Z",
   "weather_file" : "USA_CO_Denver.Intl.AP.725650_TMY3.epw"
}
