{
   "completed_at" : "20170710T183142Z",
   "completed_status" : "Success",
   "created_at" : "2017-07-10 18:26:32 +0000",
   "current_step" : 5,
   "description" : "",
   "eplusout_err" : "Program Version,EnergyPlus, Version 8.7.0-78a111df4a, YMD=2017.07.10 18:28,IDD_Version 8.7.0\n   ************* IDF Context for following error/warning message:\n   ************* Note -- lines truncated at 300 characters, if necessary...\n   *************      5 Building,\n   ************* indicated Name=NECB 2011-MidriseApartment-NECB HDD Method-CAN_YT_Whitehorse.719640_CWEC.epw created: 2017-07-10 18:26:38 +0000\n   ************* Only last 1 lines before error line shown.....\n   *************      6   NECB 2011-MidriseApartment-NECB HDD Method-CAN_YT_Whitehorse.719640_CWEC.epw created: 2017-07-10 18:26:38 +0000, !- Name\n   ** Warning ** IP: IDF line~6 Alpha Argument length exceeds maximum, will be truncated=  NECB 2011-MidriseApartment-NECB HDD Method-CAN_YT_Whitehorse.719640_CWEC.epw created: 2017-07-10 18:26:38 +000\n   **   ~~~   ** Will be processed as Alpha=NECB 2011-MIDRISEAPARTMENT-NECB HDD METHOD-CAN_YT_WHITEHORSE.719640_CWEC.EPW CREATED: 2017-07-10 18:26:38 +0000\n   ************* Beginning Zone Sizing Calculations\n   ** Warning ** ProcessScheduleInput: Schedule:Day:Interval=\"ECONOMIZER MAX OA FRACTION 100 PCT DEFAULT\", Blank Schedule Type Limits Name input -- will not be validated.\n   ** Warning ** ProcessScheduleInput: Schedule:Day:Interval=\"SCHEDULE DAY 1\", Blank Schedule Type Limits Name input -- will not be validated.\n   ** Warning ** ProcessScheduleInput: Schedule:Day:Interval=\"SCHEDULE DAY 10\", Blank Schedule Type Limits Name input -- will not be validated.\n   ** Warning ** ProcessScheduleInput: Schedule:Day:Interval=\"SCHEDULE DAY 11\", Blank Schedule Type Limits Name input -- will not be validated.\n   ** Warning ** ProcessScheduleInput: Schedule:Day:Interval=\"SCHEDULE DAY 12\", Blank Schedule Type Limits Name input -- will not be validated.\n   ** Warning ** ProcessScheduleInput: Schedule:Day:Interval=\"SCHEDULE DAY 13\", Blank Schedule Type Limits Name input -- will not be validated.\n   ** Warning ** ProcessScheduleInput: Schedule:Day:Interval=\"SCHEDULE DAY 14\", Blank Schedule Type Limits Name input -- will not be validated.\n   ** Warning ** ProcessScheduleInput: Schedule:Day:Interval=\"SCHEDULE DAY 15\", Blank Schedule Type Limits Name input -- will not be validated.\n   ** Warning ** ProcessScheduleInput: Schedule:Day:Interval=\"SCHEDULE DAY 16\", Blank Schedule Type Limits Name input -- will not be validated.\n   ** Warning ** ProcessScheduleInput: Schedule:Day:Interval=\"SCHEDULE DAY 17\", Blank Schedule Type Limits Name input -- will not be validated.\n   ** Warning ** ProcessScheduleInput: Schedule:Day:Interval=\"SCHEDULE DAY 18\", Blank Schedule Type Limits Name input -- will not be validated.\n   ** Warning ** ProcessScheduleInput: Schedule:Day:Interval=\"SCHEDULE DAY 19\", Blank Schedule Type Limits Name input -- will not be validated.\n   ** Warning ** ProcessScheduleInput: Schedule:Day:Interval=\"SCHEDULE DAY 2\", Blank Schedule Type Limits Name input -- will not be validated.\n   ** Warning ** ProcessScheduleInput: Schedule:Day:Interval=\"SCHEDULE DAY 20\", Blank Schedule Type Limits Name input -- will not be validated.\n   ** Warning ** ProcessScheduleInput: Schedule:Day:Interval=\"SCHEDULE DAY 21\", Blank Schedule Type Limits Name input -- will not be validated.\n   ** Warning ** ProcessScheduleInput: Schedule:Day:Interval=\"SCHEDULE DAY 22\", Blank Schedule Type Limits Name input -- will not be validated.\n   ** Warning ** ProcessScheduleInput: Schedule:Day:Interval=\"SCHEDULE DAY 23\", Blank Schedule Type Limits Name input -- will not be validated.\n   ** Warning ** ProcessScheduleInput: Schedule:Day:Interval=\"SCHEDULE DAY 24\", Blank Schedule Type Limits Name input -- will not be validated.\n   ** Warning ** ProcessScheduleInput: Schedule:Day:Interval=\"SCHEDULE DAY 25\", Blank Schedule Type Limits Name input -- will not be validated.\n   ** Warning ** ProcessScheduleInput: Schedule:Day:Interval=\"SCHEDULE DAY 26\", Blank Schedule Type Limits Name input -- will not be validated.\n   ** Warning ** ProcessScheduleInput: Schedule:Day:Interval=\"SCHEDULE DAY 27\", Blank Schedule Type Limits Name input -- will not be validated.\n   ** Warning ** ProcessScheduleInput: Schedule:Day:Interval=\"SCHEDULE DAY 28\", Blank Schedule Type Limits Name input -- will not be validated.\n   ** Warning ** ProcessScheduleInput: Schedule:Day:Interval=\"SCHEDULE DAY 29\", Blank Schedule Type Limits Name input -- will not be validated.\n   ** Warning ** ProcessScheduleInput: Schedule:Day:Interval=\"SCHEDULE DAY 30\", Blank Schedule Type Limits Name input -- will not be validated.\n   ** Warning ** ProcessScheduleInput: Schedule:Day:Interval=\"SCHEDULE DAY 31\", Blank Schedule Type Limits Name input -- will not be validated.\n   ** Warning ** ProcessScheduleInput: Schedule:Day:Interval=\"SCHEDULE DAY 32\", Blank Schedule Type Limits Name input -- will not be validated.\n   ** Warning ** ProcessScheduleInput: Schedule:Day:Interval=\"SCHEDULE DAY 33\", Blank Schedule Type Limits Name input -- will not be validated.\n   ** Warning ** ProcessScheduleInput: Schedule:Day:Interval=\"SCHEDULE DAY 34\", Blank Schedule Type Limits Name input -- will not be validated.\n   ** Warning ** ProcessScheduleInput: Schedule:Day:Interval=\"SCHEDULE DAY 35\", Blank Schedule Type Limits Name input -- will not be validated.\n   ** Warning ** ProcessScheduleInput: Schedule:Day:Interval=\"SCHEDULE DAY 36\", Blank Schedule Type Limits Name input -- will not be validated.\n   ** Warning ** ProcessScheduleInput: Schedule:Day:Interval=\"SCHEDULE DAY 37\", Blank Schedule Type Limits Name input -- will not be validated.\n   ** Warning ** ProcessScheduleInput: Schedule:Day:Interval=\"SCHEDULE DAY 38\", Blank Schedule Type Limits Name input -- will not be validated.\n   ** Warning ** ProcessScheduleInput: Schedule:Day:Interval=\"SCHEDULE DAY 39\", Blank Schedule Type Limits Name input -- will not be validated.\n   ** Warning ** ProcessScheduleInput: Schedule:Day:Interval=\"SCHEDULE DAY 40\", Blank Schedule Type Limits Name input -- will not be validated.\n   ** Warning ** ProcessScheduleInput: Schedule:Day:Interval=\"SCHEDULE DAY 41\", Blank Schedule Type Limits Name input -- will not be validated.\n   ** Warning ** ProcessScheduleInput: Schedule:Day:Interval=\"SCHEDULE DAY 42\", Blank Schedule Type Limits Name input -- will not be validated.\n   ** Warning ** ProcessScheduleInput: Schedule:Day:Interval=\"SCHEDULE DAY 43\", Blank Schedule Type Limits Name input -- will not be validated.\n   ** Warning ** ProcessScheduleInput: Schedule:Day:Interval=\"SCHEDULE DAY 44\", Blank Schedule Type Limits Name input -- will not be validated.\n   ** Warning ** ProcessScheduleInput: Schedule:Day:Interval=\"SCHEDULE DAY 45\", Blank Schedule Type Limits Name input -- will not be validated.\n   ** Warning ** ProcessScheduleInput: Schedule:Day:Interval=\"SCHEDULE DAY 46\", Blank Schedule Type Limits Name input -- will not be validated.\n   ** Warning ** ProcessScheduleInput: Schedule:Day:Interval=\"SCHEDULE DAY 47\", Blank Schedule Type Limits Name input -- will not be validated.\n   ** Warning ** ProcessScheduleInput: Schedule:Day:Interval=\"SCHEDULE DAY 48\", Blank Schedule Type Limits Name input -- will not be validated.\n   ** Warning ** ProcessScheduleInput: Schedule:Day:Interval=\"SCHEDULE DAY 49\", Blank Schedule Type Limits Name input -- will not be validated.\n   ** Warning ** ProcessScheduleInput: Schedule:Day:Interval=\"SCHEDULE DAY 50\", Blank Schedule Type Limits Name input -- will not be validated.\n   ** Warning ** ProcessScheduleInput: Schedule:Day:Interval=\"SCHEDULE DAY 51\", Blank Schedule Type Limits Name input -- will not be validated.\n   ** Warning ** ProcessScheduleInput: Schedule:Day:Interval=\"SCHEDULE DAY 52\", Blank Schedule Type Limits Name input -- will not be validated.\n   ** Warning ** ProcessScheduleInput: Schedule:Day:Interval=\"SCHEDULE DAY 53\", Blank Schedule Type Limits Name input -- will not be validated.\n   ** Warning ** ProcessScheduleInput: Schedule:Day:Interval=\"SCHEDULE DAY 54\", Blank Schedule Type Limits Name input -- will not be validated.\n   ** Warning ** ProcessScheduleInput: Schedule:Day:Interval=\"SCHEDULE DAY 55\", Blank Schedule Type Limits Name input -- will not be validated.\n   ** Warning ** ProcessScheduleInput: Schedule:Day:Interval=\"SCHEDULE DAY 56\", Blank Schedule Type Limits Name input -- will not be validated.\n   ** Warning ** ProcessScheduleInput: Schedule:Day:Interval=\"SCHEDULE DAY 57\", Blank Schedule Type Limits Name input -- will not be validated.\n   ** Warning ** ProcessScheduleInput: Schedule:Day:Interval=\"SCHEDULE DAY 58\", Blank Schedule Type Limits Name input -- will not be validated.\n   ** Warning ** ProcessScheduleInput: Schedule:Day:Interval=\"SCHEDULE DAY 59\", Blank Schedule Type Limits Name input -- will not be validated.\n   ** Warning ** ProcessScheduleInput: Schedule:Day:Interval=\"SCHEDULE DAY 6\", Blank Schedule Type Limits Name input -- will not be validated.\n   ** Warning ** ProcessScheduleInput: Schedule:Day:Interval=\"SCHEDULE DAY 60\", Blank Schedule Type Limits Name input -- will not be validated.\n   ** Warning ** ProcessScheduleInput: Schedule:Day:Interval=\"SCHEDULE DAY 61\", Blank Schedule Type Limits Name input -- will not be validated.\n   ** Warning ** ProcessScheduleInput: Schedule:Day:Interval=\"SCHEDULE DAY 62\", Blank Schedule Type Limits Name input -- will not be validated.\n   ** Warning ** ProcessScheduleInput: Schedule:Day:Interval=\"SCHEDULE DAY 63\", Blank Schedule Type Limits Name input -- will not be validated.\n   ** Warning ** ProcessScheduleInput: Schedule:Day:Interval=\"SCHEDULE DAY 64\", Blank Schedule Type Limits Name input -- will not be validated.\n   ** Warning ** ProcessScheduleInput: Schedule:Day:Interval=\"SCHEDULE DAY 65\", Blank Schedule Type Limits Name input -- will not be validated.\n   ** Warning ** ProcessScheduleInput: Schedule:Day:Interval=\"SCHEDULE DAY 66\", Blank Schedule Type Limits Name input -- will not be validated.\n   ** Warning ** ProcessScheduleInput: Schedule:Day:Interval=\"SCHEDULE DAY 67\", Blank Schedule Type Limits Name input -- will not be validated.\n   ** Warning ** ProcessScheduleInput: Schedule:Day:Interval=\"SCHEDULE DAY 68\", Blank Schedule Type Limits Name input -- will not be validated.\n   ** Warning ** ProcessScheduleInput: Schedule:Day:Interval=\"SCHEDULE DAY 69\", Blank Schedule Type Limits Name input -- will not be validated.\n   ** Warning ** ProcessScheduleInput: Schedule:Day:Interval=\"SCHEDULE DAY 7\", Blank Schedule Type Limits Name input -- will not be validated.\n   ** Warning ** ProcessScheduleInput: Schedule:Day:Interval=\"SCHEDULE DAY 70\", Blank Schedule Type Limits Name input -- will not be validated.\n   ** Warning ** ProcessScheduleInput: Schedule:Day:Interval=\"SCHEDULE DAY 71\", Blank Schedule Type Limits Name input -- will not be validated.\n   ** Warning ** ProcessScheduleInput: Schedule:Day:Interval=\"SCHEDULE DAY 72\", Blank Schedule Type Limits Name input -- will not be validated.\n   ** Warning ** ProcessScheduleInput: Schedule:Day:Interval=\"SCHEDULE DAY 73\", Blank Schedule Type Limits Name input -- will not be validated.\n   ** Warning ** ProcessScheduleInput: Schedule:Day:Interval=\"SCHEDULE DAY 74\", Blank Schedule Type Limits Name input -- will not be validated.\n   ** Warning ** ProcessScheduleInput: Schedule:Day:Interval=\"SCHEDULE DAY 75\", Blank Schedule Type Limits Name input -- will not be validated.\n   ** Warning ** ProcessScheduleInput: Schedule:Day:Interval=\"SCHEDULE DAY 76\", Blank Schedule Type Limits Name input -- will not be validated.\n   ** Warning ** ProcessScheduleInput: Schedule:Day:Interval=\"SCHEDULE DAY 77\", Blank Schedule Type Limits Name input -- will not be validated.\n   ** Warning ** ProcessScheduleInput: Schedule:Day:Interval=\"SCHEDULE DAY 78\", Blank Schedule Type Limits Name input -- will not be validated.\n   ** Warning ** ProcessScheduleInput: Schedule:Day:Interval=\"SCHEDULE DAY 79\", Blank Schedule Type Limits Name input -- will not be validated.\n   ** Warning ** ProcessScheduleInput: Schedule:Day:Interval=\"SCHEDULE DAY 8\", Blank Schedule Type Limits Name input -- will not be validated.\n   ** Warning ** ProcessScheduleInput: Schedule:Day:Interval=\"SCHEDULE DAY 9\", Blank Schedule Type Limits Name input -- will not be validated.\n   ** Warning ** ProcessScheduleInput: Schedule:Year=\"ECONOMIZER MAX OA FRACTION 100 PCT\", Blank Schedule Type Limits Name input -- will not be validated.\n   ** Warning ** ProcessScheduleInput: Schedule:Year=\"SCHEDULE RULESET 10\", Blank Schedule Type Limits Name input -- will not be validated.\n   ** Warning ** ProcessScheduleInput: Schedule:Year=\"SCHEDULE RULESET 11\", Blank Schedule Type Limits Name input -- will not be validated.\n   ** Warning ** ProcessScheduleInput: Schedule:Year=\"SCHEDULE RULESET 12\", Blank Schedule Type Limits Name input -- will not be validated.\n   ** Warning ** ProcessScheduleInput: Schedule:Year=\"SCHEDULE RULESET 13\", Blank Schedule Type Limits Name input -- will not be validated.\n   ** Warning ** ProcessScheduleInput: Schedule:Year=\"SCHEDULE RULESET 14\", Blank Schedule Type Limits Name input -- will not be validated.\n   ** Warning ** ProcessScheduleInput: Schedule:Year=\"SCHEDULE RULESET 15\", Blank Schedule Type Limits Name input -- will not be validated.\n   ** Warning ** ProcessScheduleInput: Schedule:Year=\"SCHEDULE RULESET 16\", Blank Schedule Type Limits Name input -- will not be validated.\n   ** Warning ** ProcessScheduleInput: Schedule:Year=\"SCHEDULE RULESET 17\", Blank Schedule Type Limits Name input -- will not be validated.\n   ** Warning ** ProcessScheduleInput: Schedule:Year=\"SCHEDULE RULESET 18\", Blank Schedule Type Limits Name input -- will not be validated.\n   ** Warning ** ProcessScheduleInput: Schedule:Year=\"SCHEDULE RULESET 19\", Blank Schedule Type Limits Name input -- will not be validated.\n   ** Warning ** ProcessScheduleInput: Schedule:Year=\"SCHEDULE RULESET 20\", Blank Schedule Type Limits Name input -- will not be validated.\n   ** Warning ** ProcessScheduleInput: Schedule:Year=\"SCHEDULE RULESET 21\", Blank Schedule Type Limits Name input -- will not be validated.\n   ** Warning ** ProcessScheduleInput: Schedule:Year=\"SCHEDULE RULESET 22\", Blank Schedule Type Limits Name input -- will not be validated.\n   ** Warning ** ProcessScheduleInput: Schedule:Year=\"SCHEDULE RULESET 23\", Blank Schedule Type Limits Name input -- will not be validated.\n   ** Warning ** ProcessScheduleInput: Schedule:Year=\"SCHEDULE RULESET 24\", Blank Schedule Type Limits Name input -- will not be validated.\n   ** Warning ** ProcessScheduleInput: Schedule:Year=\"SCHEDULE RULESET 25\", Blank Schedule Type Limits Name input -- will not be validated.\n   ** Warning ** ProcessScheduleInput: Schedule:Year=\"SCHEDULE RULESET 26\", Blank Schedule Type Limits Name input -- will not be validated.\n   ** Warning ** ProcessScheduleInput: Schedule:Year=\"SCHEDULE RULESET 27\", Blank Schedule Type Limits Name input -- will not be validated.\n   ** Warning ** ProcessScheduleInput: Schedule:Year=\"SCHEDULE RULESET 28\", Blank Schedule Type Limits Name input -- will not be validated.\n   ** Warning ** ProcessScheduleInput: Schedule:Year=\"SCHEDULE RULESET 29\", Blank Schedule Type Limits Name input -- will not be validated.\n   ** Warning ** ProcessScheduleInput: Schedule:Year=\"SCHEDULE RULESET 3\", Blank Schedule Type Limits Name input -- will not be validated.\n   ** Warning ** ProcessScheduleInput: Schedule:Year=\"SCHEDULE RULESET 30\", Blank Schedule Type Limits Name input -- will not be validated.\n   ** Warning ** ProcessScheduleInput: Schedule:Year=\"SCHEDULE RULESET 31\", Blank Schedule Type Limits Name input -- will not be validated.\n   ** Warning ** ProcessScheduleInput: Schedule:Year=\"SCHEDULE RULESET 32\", Blank Schedule Type Limits Name input -- will not be validated.\n   ** Warning ** ProcessScheduleInput: Schedule:Year=\"SCHEDULE RULESET 33\", Blank Schedule Type Limits Name input -- will not be validated.\n   ** Warning ** ProcessScheduleInput: Schedule:Year=\"SCHEDULE RULESET 34\", Blank Schedule Type Limits Name input -- will not be validated.\n   ** Warning ** ProcessScheduleInput: Schedule:Year=\"SCHEDULE RULESET 35\", Blank Schedule Type Limits Name input -- will not be validated.\n   ** Warning ** ProcessScheduleInput: Schedule:Year=\"SCHEDULE RULESET 36\", Blank Schedule Type Limits Name input -- will not be validated.\n   ** Warning ** ProcessScheduleInput: Schedule:Year=\"SCHEDULE RULESET 37\", Blank Schedule Type Limits Name input -- will not be validated.\n   ** Warning ** ProcessScheduleInput: Schedule:Year=\"SCHEDULE RULESET 38\", Blank Schedule Type Limits Name input -- will not be validated.\n   ** Warning ** ProcessScheduleInput: Schedule:Year=\"SCHEDULE RULESET 39\", Blank Schedule Type Limits Name input -- will not be validated.\n   ** Warning ** ProcessScheduleInput: Schedule:Year=\"SCHEDULE RULESET 4\", Blank Schedule Type Limits Name input -- will not be validated.\n   ** Warning ** ProcessScheduleInput: Schedule:Year=\"SCHEDULE RULESET 40\", Blank Schedule Type Limits Name input -- will not be validated.\n   ** Warning ** ProcessScheduleInput: Schedule:Year=\"SCHEDULE RULESET 41\", Blank Schedule Type Limits Name input -- will not be validated.\n   ** Warning ** ProcessScheduleInput: Schedule:Year=\"SCHEDULE RULESET 42\", Blank Schedule Type Limits Name input -- will not be validated.\n   ** Warning ** ProcessScheduleInput: Schedule:Year=\"SCHEDULE RULESET 43\", Blank Schedule Type Limits Name input -- will not be validated.\n   ** Warning ** ProcessScheduleInput: Schedule:Year=\"SCHEDULE RULESET 44\", Blank Schedule Type Limits Name input -- will not be validated.\n   ** Warning ** ProcessScheduleInput: Schedule:Year=\"SCHEDULE RULESET 45\", Blank Schedule Type Limits Name input -- will not be validated.\n   ** Warning ** ProcessScheduleInput: Schedule:Year=\"SCHEDULE RULESET 46\", Blank Schedule Type Limits Name input -- will not be validated.\n   ** Warning ** ProcessScheduleInput: Schedule:Year=\"SCHEDULE RULESET 47\", Blank Schedule Type Limits Name input -- will not be validated.\n   ** Warning ** ProcessScheduleInput: Schedule:Year=\"SCHEDULE RULESET 48\", Blank Schedule Type Limits Name input -- will not be validated.\n   ** Warning ** ProcessScheduleInput: Schedule:Year=\"SCHEDULE RULESET 49\", Blank Schedule Type Limits Name input -- will not be validated.\n   ** Warning ** ProcessScheduleInput: Schedule:Year=\"SCHEDULE RULESET 5\", Blank Schedule Type Limits Name input -- will not be validated.\n   ** Warning ** ProcessScheduleInput: Schedule:Year=\"SCHEDULE RULESET 50\", Blank Schedule Type Limits Name input -- will not be validated.\n   ** Warning ** ProcessScheduleInput: Schedule:Year=\"SCHEDULE RULESET 51\", Blank Schedule Type Limits Name input -- will not be validated.\n   ** Warning ** ProcessScheduleInput: Schedule:Year=\"SCHEDULE RULESET 52\", Blank Schedule Type Limits Name input -- will not be validated.\n   ** Warning ** ProcessScheduleInput: Schedule:Year=\"SCHEDULE RULESET 53\", Blank Schedule Type Limits Name input -- will not be validated.\n   ** Warning ** ProcessScheduleInput: Schedule:Year=\"SCHEDULE RULESET 54\", Blank Schedule Type Limits Name input -- will not be validated.\n   ** Warning ** ProcessScheduleInput: Schedule:Year=\"SCHEDULE RULESET 55\", Blank Schedule Type Limits Name input -- will not be validated.\n   ** Warning ** ProcessScheduleInput: Schedule:Year=\"SCHEDULE RULESET 56\", Blank Schedule Type Limits Name input -- will not be validated.\n   ** Warning ** ProcessScheduleInput: Schedule:Year=\"SCHEDULE RULESET 57\", Blank Schedule Type Limits Name input -- will not be validated.\n   ** Warning ** ProcessScheduleInput: Schedule:Year=\"SCHEDULE RULESET 58\", Blank Schedule Type Limits Name input -- will not be validated.\n   ** Warning ** ProcessScheduleInput: Schedule:Year=\"SCHEDULE RULESET 59\", Blank Schedule Type Limits Name input -- will not be validated.\n   ** Warning ** ProcessScheduleInput: Schedule:Year=\"SCHEDULE RULESET 6\", Blank Schedule Type Limits Name input -- will not be validated.\n   ** Warning ** ProcessScheduleInput: Schedule:Year=\"SCHEDULE RULESET 60\", Blank Schedule Type Limits Name input -- will not be validated.\n   ** Warning ** ProcessScheduleInput: Schedule:Year=\"SCHEDULE RULESET 61\", Blank Schedule Type Limits Name input -- will not be validated.\n   ** Warning ** ProcessScheduleInput: Schedule:Year=\"SCHEDULE RULESET 62\", Blank Schedule Type Limits Name input -- will not be validated.\n   ** Warning ** ProcessScheduleInput: Schedule:Year=\"SCHEDULE RULESET 63\", Blank Schedule Type Limits Name input -- will not be validated.\n   ** Warning ** ProcessScheduleInput: Schedule:Year=\"SCHEDULE RULESET 64\", Blank Schedule Type Limits Name input -- will not be validated.\n   ** Warning ** ProcessScheduleInput: Schedule:Year=\"SCHEDULE RULESET 65\", Blank Schedule Type Limits Name input -- will not be validated.\n   ** Warning ** ProcessScheduleInput: Schedule:Year=\"SCHEDULE RULESET 66\", Blank Schedule Type Limits Name input -- will not be validated.\n   ** Warning ** ProcessScheduleInput: Schedule:Year=\"SCHEDULE RULESET 67\", Blank Schedule Type Limits Name input -- will not be validated.\n   ** Warning ** ProcessScheduleInput: Schedule:Year=\"SCHEDULE RULESET 68\", Blank Schedule Type Limits Name input -- will not be validated.\n   ** Warning ** ProcessScheduleInput: Schedule:Year=\"SCHEDULE RULESET 69\", Blank Schedule Type Limits Name input -- will not be validated.\n   ** Warning ** ProcessScheduleInput: Schedule:Year=\"SCHEDULE RULESET 7\", Blank Schedule Type Limits Name input -- will not be validated.\n   ** Warning ** ProcessScheduleInput: Schedule:Year=\"SCHEDULE RULESET 70\", Blank Schedule Type Limits Name input -- will not be validated.\n   ** Warning ** ProcessScheduleInput: Schedule:Year=\"SCHEDULE RULESET 71\", Blank Schedule Type Limits Name input -- will not be validated.\n   ** Warning ** ProcessScheduleInput: Schedule:Year=\"SCHEDULE RULESET 72\", Blank Schedule Type Limits Name input -- will not be validated.\n   ** Warning ** ProcessScheduleInput: Schedule:Year=\"SCHEDULE RULESET 73\", Blank Schedule Type Limits Name input -- will not be validated.\n   ** Warning ** ProcessScheduleInput: Schedule:Year=\"SCHEDULE RULESET 74\", Blank Schedule Type Limits Name input -- will not be validated.\n   ** Warning ** ProcessScheduleInput: Schedule:Year=\"SCHEDULE RULESET 8\", Blank Schedule Type Limits Name input -- will not be validated.\n   ** Warning ** ProcessScheduleInput: Schedule:Year=\"SCHEDULE RULESET 9\", Blank Schedule Type Limits Name input -- will not be validated.\n   ** Warning ** ProcessScheduleInput: Schedule:Constant=\"ALWAYS OFF DISCRETE\", Blank Schedule Type Limits Name input -- will not be validated.\n   ** Warning ** ProcessScheduleInput: Schedule:Constant=\"ALWAYS ON CONTINUOUS\", Blank Schedule Type Limits Name input -- will not be validated.\n   ** Warning ** CheckUsedConstructions: There are 26 nominally unused constructions in input.\n   **   ~~~   ** For explicit details on each unused construction, use Output:Diagnostics,DisplayExtraWarnings;\n   ************* Beginning System Sizing Calculations\n   ** Warning ** GetDXCoils: Coil:Cooling:DX:SingleSpeed=\"COIL COOLING DX SINGLE SPEED 24 8KBTU/HR 10.9EER\", invalid\n   **   ~~~   ** ...Part Load Fraction Correlation Curve Name = DXCOOL-NECB2011-REF-COOLPLFFPLR 16 has out of range value.\n   **   ~~~   ** ...Curve maximum must be <= 1.0, curve max at PLR = 0.99 is 1.015\n   **   ~~~   ** ...Setting curve maximum to 1.0 and simulation continues.\n   ** Warning ** GetDXCoils: Coil:Cooling:DX:SingleSpeed=\"COIL COOLING DX SINGLE SPEED 22 5KBTU/HR 11.0EER\", invalid\n   **   ~~~   ** ...Part Load Fraction Correlation Curve Name = DXCOOL-NECB2011-REF-COOLPLFFPLR 14 has out of range value.\n   **   ~~~   ** ...Curve maximum must be <= 1.0, curve max at PLR = 0.99 is 1.015\n   **   ~~~   ** ...Setting curve maximum to 1.0 and simulation continues.\n   ** Warning ** GetDXCoils: Coil:Cooling:DX:SingleSpeed=\"COIL COOLING DX SINGLE SPEED 21 5KBTU/HR 11.0EER\", invalid\n   **   ~~~   ** ...Part Load Fraction Correlation Curve Name = DXCOOL-NECB2011-REF-COOLPLFFPLR 13 has out of range value.\n   **   ~~~   ** ...Curve maximum must be <= 1.0, curve max at PLR = 0.99 is 1.015\n   **   ~~~   ** ...Setting curve maximum to 1.0 and simulation continues.\n   ** Warning ** GetDXCoils: Coil:Cooling:DX:SingleSpeed=\"COIL COOLING DX SINGLE SPEED 23 9KBTU/HR 10.5EER\", invalid\n   **   ~~~   ** ...Part Load Fraction Correlation Curve Name = DXCOOL-NECB2011-REF-COOLPLFFPLR 15 has out of range value.\n   **   ~~~   ** ...Curve maximum must be <= 1.0, curve max at PLR = 0.99 is 1.015\n   **   ~~~   ** ...Setting curve maximum to 1.0 and simulation continues.\n   ** Warning ** GetDXCoils: Coil:Cooling:DX:SingleSpeed=\"COIL COOLING DX SINGLE SPEED 20 10KBTU/HR 10.3EER\", invalid\n   **   ~~~   ** ...Part Load Fraction Correlation Curve Name = DXCOOL-NECB2011-REF-COOLPLFFPLR 12 has out of range value.\n   **   ~~~   ** ...Curve maximum must be <= 1.0, curve max at PLR = 0.99 is 1.015\n   **   ~~~   ** ...Setting curve maximum to 1.0 and simulation continues.\n   ** Warning ** GetDXCoils: Coil:Cooling:DX:SingleSpeed=\"COIL COOLING DX SINGLE SPEED 25 11KBTU/HR 10.1EER\", invalid\n   **   ~~~   ** ...Part Load Fraction Correlation Curve Name = DXCOOL-NECB2011-REF-COOLPLFFPLR 17 has out of range value.\n   **   ~~~   ** ...Curve maximum must be <= 1.0, curve max at PLR = 0.99 is 1.015\n   **   ~~~   ** ...Setting curve maximum to 1.0 and simulation continues.\n   ** Warning ** GetDXCoils: Coil:Cooling:DX:SingleSpeed=\"COIL COOLING DX SINGLE SPEED 26 11KBTU/HR 10.1EER\", invalid\n   **   ~~~   ** ...Part Load Fraction Correlation Curve Name = DXCOOL-NECB2011-REF-COOLPLFFPLR 18 has out of range value.\n   **   ~~~   ** ...Curve maximum must be <= 1.0, curve max at PLR = 0.99 is 1.015\n   **   ~~~   ** ...Setting curve maximum to 1.0 and simulation continues.\n   ** Warning ** GetDXCoils: Coil:Cooling:DX:SingleSpeed=\"COIL COOLING DX SINGLE SPEED 27 13KBTU/HR 9.8EER\", invalid\n   **   ~~~   ** ...Part Load Fraction Correlation Curve Name = DXCOOL-NECB2011-REF-COOLPLFFPLR 19 has out of range value.\n   **   ~~~   ** ...Curve maximum must be <= 1.0, curve max at PLR = 0.99 is 1.015\n   **   ~~~   ** ...Setting curve maximum to 1.0 and simulation continues.\n   ** Warning ** GetDXCoils: Coil:Cooling:DX:SingleSpeed=\"COIL COOLING DX SINGLE SPEED 6 8KBTU/HR 10.9EER\", invalid\n   **   ~~~   ** ...Part Load Fraction Correlation Curve Name = DXCOOL-NECB2011-REF-COOLPLFFPLR 24 has out of range value.\n   **   ~~~   ** ...Curve maximum must be <= 1.0, curve max at PLR = 0.99 is 1.015\n   **   ~~~   ** ...Setting curve maximum to 1.0 and simulation continues.\n   ** Warning ** GetDXCoils: Coil:Cooling:DX:SingleSpeed=\"COIL COOLING DX SINGLE SPEED 4 6KBTU/HR 11.0EER\", invalid\n   **   ~~~   ** ...Part Load Fraction Correlation Curve Name = DXCOOL-NECB2011-REF-COOLPLFFPLR 22 has out of range value.\n   **   ~~~   ** ...Curve maximum must be <= 1.0, curve max at PLR = 0.99 is 1.015\n   **   ~~~   ** ...Setting curve maximum to 1.0 and simulation continues.\n   ** Warning ** GetDXCoils: Coil:Cooling:DX:SingleSpeed=\"COIL COOLING DX SINGLE SPEED 3 6KBTU/HR 11.0EER\", invalid\n   **   ~~~   ** ...Part Load Fraction Correlation Curve Name = DXCOOL-NECB2011-REF-COOLPLFFPLR 21 has out of range value.\n   **   ~~~   ** ...Curve maximum must be <= 1.0, curve max at PLR = 0.99 is 1.015\n   **   ~~~   ** ...Setting curve maximum to 1.0 and simulation continues.\n   ** Warning ** GetDXCoils: Coil:Cooling:DX:SingleSpeed=\"COIL COOLING DX SINGLE SPEED 2 10KBTU/HR 10.4EER\", invalid\n   **   ~~~   ** ...Part Load Fraction Correlation Curve Name = DXCOOL-NECB2011-REF-COOLPLFFPLR 11 has out of range value.\n   **   ~~~   ** ...Curve maximum must be <= 1.0, curve max at PLR = 0.99 is 1.015\n   **   ~~~   ** ...Setting curve maximum to 1.0 and simulation continues.\n   ** Warning ** GetDXCoils: Coil:Cooling:DX:SingleSpeed=\"COIL COOLING DX SINGLE SPEED 5 12KBTU/HR 10.0EER\", invalid\n   **   ~~~   ** ...Part Load Fraction Correlation Curve Name = DXCOOL-NECB2011-REF-COOLPLFFPLR 23 has out of range value.\n   **   ~~~   ** ...Curve maximum must be <= 1.0, curve max at PLR = 0.99 is 1.015\n   **   ~~~   ** ...Setting curve maximum to 1.0 and simulation continues.\n   ** Warning ** GetDXCoils: Coil:Cooling:DX:SingleSpeed=\"COIL COOLING DX SINGLE SPEED 7 12KBTU/HR 9.9EER\", invalid\n   **   ~~~   ** ...Part Load Fraction Correlation Curve Name = DXCOOL-NECB2011-REF-COOLPLFFPLR 25 has out of range value.\n   **   ~~~   ** ...Curve maximum must be <= 1.0, curve max at PLR = 0.99 is 1.015\n   **   ~~~   ** ...Setting curve maximum to 1.0 and simulation continues.\n   ** Warning ** GetDXCoils: Coil:Cooling:DX:SingleSpeed=\"COIL COOLING DX SINGLE SPEED 9 12KBTU/HR 9.9EER\", invalid\n   **   ~~~   ** ...Part Load Fraction Correlation Curve Name = DXCOOL-NECB2011-REF-COOLPLFFPLR 27 has out of range value.\n   **   ~~~   ** ...Curve maximum must be <= 1.0, curve max at PLR = 0.99 is 1.015\n   **   ~~~   ** ...Setting curve maximum to 1.0 and simulation continues.\n   ** Warning ** GetDXCoils: Coil:Cooling:DX:SingleSpeed=\"COIL COOLING DX SINGLE SPEED 8 14KBTU/HR 9.5EER\", invalid\n   **   ~~~   ** ...Part Load Fraction Correlation Curve Name = DXCOOL-NECB2011-REF-COOLPLFFPLR 26 has out of range value.\n   **   ~~~   ** ...Curve maximum must be <= 1.0, curve max at PLR = 0.99 is 1.015\n   **   ~~~   ** ...Setting curve maximum to 1.0 and simulation continues.\n   ** Warning ** GetDXCoils: Coil:Cooling:DX:SingleSpeed=\"COIL COOLING DX SINGLE SPEED 10 14KBTU/HR 9.4EER\", invalid\n   **   ~~~   ** ...Part Load Fraction Correlation Curve Name = DXCOOL-NECB2011-REF-COOLPLFFPLR 1 has out of range value.\n   **   ~~~   ** ...Curve maximum must be <= 1.0, curve max at PLR = 0.99 is 1.015\n   **   ~~~   ** ...Setting curve maximum to 1.0 and simulation continues.\n   ** Warning ** GetDXCoils: Coil:Cooling:DX:SingleSpeed=\"COIL COOLING DX SINGLE SPEED 15 11KBTU/HR 10.2EER\", invalid\n   **   ~~~   ** ...Part Load Fraction Correlation Curve Name = DXCOOL-NECB2011-REF-COOLPLFFPLR 6 has out of range value.\n   **   ~~~   ** ...Curve maximum must be <= 1.0, curve max at PLR = 0.99 is 1.015\n   **   ~~~   ** ...Setting curve maximum to 1.0 and simulation continues.\n   ** Warning ** GetDXCoils: Coil:Cooling:DX:SingleSpeed=\"COIL COOLING DX SINGLE SPEED 12 9KBTU/HR 10.6EER\", invalid\n   **   ~~~   ** ...Part Load Fraction Correlation Curve Name = DXCOOL-NECB2011-REF-COOLPLFFPLR 3 has out of range value.\n   **   ~~~   ** ...Curve maximum must be <= 1.0, curve max at PLR = 0.99 is 1.015\n   **   ~~~   ** ...Setting curve maximum to 1.0 and simulation continues.\n   ** Warning ** GetDXCoils: Coil:Cooling:DX:SingleSpeed=\"COIL COOLING DX SINGLE SPEED 13 9KBTU/HR 10.6EER\", invalid\n   **   ~~~   ** ...Part Load Fraction Correlation Curve Name = DXCOOL-NECB2011-REF-COOLPLFFPLR 4 has out of range value.\n   **   ~~~   ** ...Curve maximum must be <= 1.0, curve max at PLR = 0.99 is 1.015\n   **   ~~~   ** ...Setting curve maximum to 1.0 and simulation continues.\n   ** Warning ** GetDXCoils: Coil:Cooling:DX:SingleSpeed=\"COIL COOLING DX SINGLE SPEED 14 11KBTU/HR 10.2EER\", invalid\n   **   ~~~   ** ...Part Load Fraction Correlation Curve Name = DXCOOL-NECB2011-REF-COOLPLFFPLR 5 has out of range value.\n   **   ~~~   ** ...Curve maximum must be <= 1.0, curve max at PLR = 0.99 is 1.015\n   **   ~~~   ** ...Setting curve maximum to 1.0 and simulation continues.\n   ** Warning ** GetDXCoils: Coil:Cooling:DX:SingleSpeed=\"COIL COOLING DX SINGLE SPEED 11 12KBTU/HR 10.0EER\", invalid\n   **   ~~~   ** ...Part Load Fraction Correlation Curve Name = DXCOOL-NECB2011-REF-COOLPLFFPLR 2 has out of range value.\n   **   ~~~   ** ...Curve maximum must be <= 1.0, curve max at PLR = 0.99 is 1.015\n   **   ~~~   ** ...Setting curve maximum to 1.0 and simulation continues.\n   ** Warning ** GetDXCoils: Coil:Cooling:DX:SingleSpeed=\"COIL COOLING DX SINGLE SPEED 16 15KBTU/HR 9.3EER\", invalid\n   **   ~~~   ** ...Part Load Fraction Correlation Curve Name = DXCOOL-NECB2011-REF-COOLPLFFPLR 7 has out of range value.\n   **   ~~~   ** ...Curve maximum must be <= 1.0, curve max at PLR = 0.99 is 1.015\n   **   ~~~   ** ...Setting curve maximum to 1.0 and simulation continues.\n   ** Warning ** GetDXCoils: Coil:Cooling:DX:SingleSpeed=\"COIL COOLING DX SINGLE SPEED 19 15KBTU/HR 9.3EER\", invalid\n   **   ~~~   ** ...Part Load Fraction Correlation Curve Name = DXCOOL-NECB2011-REF-COOLPLFFPLR 10 has out of range value.\n   **   ~~~   ** ...Curve maximum must be <= 1.0, curve max at PLR = 0.99 is 1.015\n   **   ~~~   ** ...Setting curve maximum to 1.0 and simulation continues.\n   ** Warning ** GetDXCoils: Coil:Cooling:DX:SingleSpeed=\"COIL COOLING DX SINGLE SPEED 18 16KBTU/HR 9.3EER\", invalid\n   **   ~~~   ** ...Part Load Fraction Correlation Curve Name = DXCOOL-NECB2011-REF-COOLPLFFPLR 9 has out of range value.\n   **   ~~~   ** ...Curve maximum must be <= 1.0, curve max at PLR = 0.99 is 1.015\n   **   ~~~   ** ...Setting curve maximum to 1.0 and simulation continues.\n   ** Warning ** GetDXCoils: Coil:Cooling:DX:SingleSpeed=\"COIL COOLING DX SINGLE SPEED 17 17KBTU/HR 9.3EER\", invalid\n   **   ~~~   ** ...Part Load Fraction Correlation Curve Name = DXCOOL-NECB2011-REF-COOLPLFFPLR 8 has out of range value.\n   **   ~~~   ** ...Curve maximum must be <= 1.0, curve max at PLR = 0.99 is 1.015\n   **   ~~~   ** ...Setting curve maximum to 1.0 and simulation continues.\n   ** Warning ** GetDXCoils: Coil:Cooling:DX:SingleSpeed=\"COIL COOLING DX SINGLE SPEED 1 59KBTU/HR 14.0SEER\", invalid\n   **   ~~~   ** ...Part Load Fraction Correlation Curve Name = DXCOOL-NECB2011-REF-COOLPLFFPLR has out of range value.\n   **   ~~~   ** ...Curve maximum must be <= 1.0, curve max at PLR = 0.99 is 1.015\n   **   ~~~   ** ...Setting curve maximum to 1.0 and simulation continues.\n   ** Warning ** GetDXCoils: Coil:Cooling:DX:SingleSpeed=\"COIL COOLING DX SINGLE SPEED 28 20KBTU/HR 14.0SEER\", invalid\n   **   ~~~   ** ...Part Load Fraction Correlation Curve Name = DXCOOL-NECB2011-REF-COOLPLFFPLR 20 has out of range value.\n   **   ~~~   ** ...Curve maximum must be <= 1.0, curve max at PLR = 0.99 is 1.015\n   **   ~~~   ** ...Setting curve maximum to 1.0 and simulation continues.\n   ************* Beginning Plant Sizing Calculations\n   ** Warning ** The Standard Ratings is calculated for Coil:Cooling:DX:SingleSpeed = COIL COOLING DX SINGLE SPEED 24 8KBTU/HR 10.9EER but not at the AHRI test condition due to curve out of bound.\n   **   ~~~   **  Review the Standard Ratings calculations in the Engineering Reference for this coil type. Also, use Output:Diagnostics, DisplayExtraWarnings for further guidance.\n   ** Warning ** The Standard Ratings is calculated for Coil:Cooling:DX:SingleSpeed = COIL COOLING DX SINGLE SPEED 22 5KBTU/HR 11.0EER but not at the AHRI test condition due to curve out of bound.\n   **   ~~~   **  Review the Standard Ratings calculations in the Engineering Reference for this coil type. Also, use Output:Diagnostics, DisplayExtraWarnings for further guidance.\n   ** Warning ** The Standard Ratings is calculated for Coil:Cooling:DX:SingleSpeed = COIL COOLING DX SINGLE SPEED 21 5KBTU/HR 11.0EER but not at the AHRI test condition due to curve out of bound.\n   **   ~~~   **  Review the Standard Ratings calculations in the Engineering Reference for this coil type. Also, use Output:Diagnostics, DisplayExtraWarnings for further guidance.\n   ** Warning ** The Standard Ratings is calculated for Coil:Cooling:DX:SingleSpeed = COIL COOLING DX SINGLE SPEED 23 9KBTU/HR 10.5EER but not at the AHRI test condition due to curve out of bound.\n   **   ~~~   **  Review the Standard Ratings calculations in the Engineering Reference for this coil type. Also, use Output:Diagnostics, DisplayExtraWarnings for further guidance.\n   ** Warning ** The Standard Ratings is calculated for Coil:Cooling:DX:SingleSpeed = COIL COOLING DX SINGLE SPEED 20 10KBTU/HR 10.3EER but not at the AHRI test condition due to curve out of bound.\n   **   ~~~   **  Review the Standard Ratings calculations in the Engineering Reference for this coil type. Also, use Output:Diagnostics, DisplayExtraWarnings for further guidance.\n   ** Warning ** The Standard Ratings is calculated for Coil:Cooling:DX:SingleSpeed = COIL COOLING DX SINGLE SPEED 25 11KBTU/HR 10.1EER but not at the AHRI test condition due to curve out of bound.\n   **   ~~~   **  Review the Standard Ratings calculations in the Engineering Reference for this coil type. Also, use Output:Diagnostics, DisplayExtraWarnings for further guidance.\n   ** Warning ** The Standard Ratings is calculated for Coil:Cooling:DX:SingleSpeed = COIL COOLING DX SINGLE SPEED 26 11KBTU/HR 10.1EER but not at the AHRI test condition due to curve out of bound.\n   **   ~~~   **  Review the Standard Ratings calculations in the Engineering Reference for this coil type. Also, use Output:Diagnostics, DisplayExtraWarnings for further guidance.\n   ** Warning ** The Standard Ratings is calculated for Coil:Cooling:DX:SingleSpeed = COIL COOLING DX SINGLE SPEED 27 13KBTU/HR 9.8EER but not at the AHRI test condition due to curve out of bound.\n   **   ~~~   **  Review the Standard Ratings calculations in the Engineering Reference for this coil type. Also, use Output:Diagnostics, DisplayExtraWarnings for further guidance.\n   ** Warning ** The Standard Ratings is calculated for Coil:Cooling:DX:SingleSpeed = COIL COOLING DX SINGLE SPEED 6 8KBTU/HR 10.9EER but not at the AHRI test condition due to curve out of bound.\n   **   ~~~   **  Review the Standard Ratings calculations in the Engineering Reference for this coil type. Also, use Output:Diagnostics, DisplayExtraWarnings for further guidance.\n   ** Warning ** The Standard Ratings is calculated for Coil:Cooling:DX:SingleSpeed = COIL COOLING DX SINGLE SPEED 4 6KBTU/HR 11.0EER but not at the AHRI test condition due to curve out of bound.\n   **   ~~~   **  Review the Standard Ratings calculations in the Engineering Reference for this coil type. Also, use Output:Diagnostics, DisplayExtraWarnings for further guidance.\n   ** Warning ** The Standard Ratings is calculated for Coil:Cooling:DX:SingleSpeed = COIL COOLING DX SINGLE SPEED 3 6KBTU/HR 11.0EER but not at the AHRI test condition due to curve out of bound.\n   **   ~~~   **  Review the Standard Ratings calculations in the Engineering Reference for this coil type. Also, use Output:Diagnostics, DisplayExtraWarnings for further guidance.\n   ** Warning ** The Standard Ratings is calculated for Coil:Cooling:DX:SingleSpeed = COIL COOLING DX SINGLE SPEED 2 10KBTU/HR 10.4EER but not at the AHRI test condition due to curve out of bound.\n   **   ~~~   **  Review the Standard Ratings calculations in the Engineering Reference for this coil type. Also, use Output:Diagnostics, DisplayExtraWarnings for further guidance.\n   ** Warning ** The Standard Ratings is calculated for Coil:Cooling:DX:SingleSpeed = COIL COOLING DX SINGLE SPEED 5 12KBTU/HR 10.0EER but not at the AHRI test condition due to curve out of bound.\n   **   ~~~   **  Review the Standard Ratings calculations in the Engineering Reference for this coil type. Also, use Output:Diagnostics, DisplayExtraWarnings for further guidance.\n   ** Warning ** The Standard Ratings is calculated for Coil:Cooling:DX:SingleSpeed = COIL COOLING DX SINGLE SPEED 7 12KBTU/HR 9.9EER but not at the AHRI test condition due to curve out of bound.\n   **   ~~~   **  Review the Standard Ratings calculations in the Engineering Reference for this coil type. Also, use Output:Diagnostics, DisplayExtraWarnings for further guidance.\n   ** Warning ** The Standard Ratings is calculated for Coil:Cooling:DX:SingleSpeed = COIL COOLING DX SINGLE SPEED 9 12KBTU/HR 9.9EER but not at the AHRI test condition due to curve out of bound.\n   **   ~~~   **  Review the Standard Ratings calculations in the Engineering Reference for this coil type. Also, use Output:Diagnostics, DisplayExtraWarnings for further guidance.\n   ** Warning ** The Standard Ratings is calculated for Coil:Cooling:DX:SingleSpeed = COIL COOLING DX SINGLE SPEED 8 14KBTU/HR 9.5EER but not at the AHRI test condition due to curve out of bound.\n   **   ~~~   **  Review the Standard Ratings calculations in the Engineering Reference for this coil type. Also, use Output:Diagnostics, DisplayExtraWarnings for further guidance.\n   ** Warning ** The Standard Ratings is calculated for Coil:Cooling:DX:SingleSpeed = COIL COOLING DX SINGLE SPEED 10 14KBTU/HR 9.4EER but not at the AHRI test condition due to curve out of bound.\n   **   ~~~   **  Review the Standard Ratings calculations in the Engineering Reference for this coil type. Also, use Output:Diagnostics, DisplayExtraWarnings for further guidance.\n   ** Warning ** The Standard Ratings is calculated for Coil:Cooling:DX:SingleSpeed = COIL COOLING DX SINGLE SPEED 15 11KBTU/HR 10.2EER but not at the AHRI test condition due to curve out of bound.\n   **   ~~~   **  Review the Standard Ratings calculations in the Engineering Reference for this coil type. Also, use Output:Diagnostics, DisplayExtraWarnings for further guidance.\n   ** Warning ** The Standard Ratings is calculated for Coil:Cooling:DX:SingleSpeed = COIL COOLING DX SINGLE SPEED 12 9KBTU/HR 10.6EER but not at the AHRI test condition due to curve out of bound.\n   **   ~~~   **  Review the Standard Ratings calculations in the Engineering Reference for this coil type. Also, use Output:Diagnostics, DisplayExtraWarnings for further guidance.\n   ** Warning ** The Standard Ratings is calculated for Coil:Cooling:DX:SingleSpeed = COIL COOLING DX SINGLE SPEED 13 9KBTU/HR 10.6EER but not at the AHRI test condition due to curve out of bound.\n   **   ~~~   **  Review the Standard Ratings calculations in the Engineering Reference for this coil type. Also, use Output:Diagnostics, DisplayExtraWarnings for further guidance.\n   ** Warning ** The Standard Ratings is calculated for Coil:Cooling:DX:SingleSpeed = COIL COOLING DX SINGLE SPEED 14 11KBTU/HR 10.2EER but not at the AHRI test condition due to curve out of bound.\n   **   ~~~   **  Review the Standard Ratings calculations in the Engineering Reference for this coil type. Also, use Output:Diagnostics, DisplayExtraWarnings for further guidance.\n   ** Warning ** The Standard Ratings is calculated for Coil:Cooling:DX:SingleSpeed = COIL COOLING DX SINGLE SPEED 11 12KBTU/HR 10.0EER but not at the AHRI test condition due to curve out of bound.\n   **   ~~~   **  Review the Standard Ratings calculations in the Engineering Reference for this coil type. Also, use Output:Diagnostics, DisplayExtraWarnings for further guidance.\n   ** Warning ** The Standard Ratings is calculated for Coil:Cooling:DX:SingleSpeed = COIL COOLING DX SINGLE SPEED 16 15KBTU/HR 9.3EER but not at the AHRI test condition due to curve out of bound.\n   **   ~~~   **  Review the Standard Ratings calculations in the Engineering Reference for this coil type. Also, use Output:Diagnostics, DisplayExtraWarnings for further guidance.\n   ** Warning ** The Standard Ratings is calculated for Coil:Cooling:DX:SingleSpeed = COIL COOLING DX SINGLE SPEED 19 15KBTU/HR 9.3EER but not at the AHRI test condition due to curve out of bound.\n   **   ~~~   **  Review the Standard Ratings calculations in the Engineering Reference for this coil type. Also, use Output:Diagnostics, DisplayExtraWarnings for further guidance.\n   ** Warning ** The Standard Ratings is calculated for Coil:Cooling:DX:SingleSpeed = COIL COOLING DX SINGLE SPEED 18 16KBTU/HR 9.3EER but not at the AHRI test condition due to curve out of bound.\n   **   ~~~   **  Review the Standard Ratings calculations in the Engineering Reference for this coil type. Also, use Output:Diagnostics, DisplayExtraWarnings for further guidance.\n   ** Warning ** The Standard Ratings is calculated for Coil:Cooling:DX:SingleSpeed = COIL COOLING DX SINGLE SPEED 17 17KBTU/HR 9.3EER but not at the AHRI test condition due to curve out of bound.\n   **   ~~~   **  Review the Standard Ratings calculations in the Engineering Reference for this coil type. Also, use Output:Diagnostics, DisplayExtraWarnings for further guidance.\n   ** Warning ** The Standard Ratings is calculated for Coil:Cooling:DX:SingleSpeed = COIL COOLING DX SINGLE SPEED 1 59KBTU/HR 14.0SEER but not at the AHRI test condition due to curve out of bound.\n   **   ~~~   **  Review the Standard Ratings calculations in the Engineering Reference for this coil type. Also, use Output:Diagnostics, DisplayExtraWarnings for further guidance.\n   ** Warning ** The Standard Ratings is calculated for Coil:Cooling:DX:SingleSpeed = COIL COOLING DX SINGLE SPEED 28 20KBTU/HR 14.0SEER but not at the AHRI test condition due to curve out of bound.\n   **   ~~~   **  Review the Standard Ratings calculations in the Engineering Reference for this coil type. Also, use Output:Diagnostics, DisplayExtraWarnings for further guidance.\n   ** Warning ** Output:Meter: invalid Name=\"GAS:FACILITY\" - not found.\n   ** Warning ** Output:Meter: invalid Name=\"DISTRICTCOOLING:FACILITY\" - not found.\n   ** Warning ** Output:Meter: invalid Name=\"DISTRICTHEATING:FACILITY\" - not found.\n   ** Warning ** Output:Meter:MeterFileOnly: invalid Name=\"GAS:FACILITY\" - not found.\n   ** Warning ** Output:Meter:MeterFileOnly: invalid Name=\"GAS:FACILITY\" - not found.\n   ** Warning ** Output:Meter:MeterFileOnly requested for \"Electricity:Facility\" (TimeStep), already on \"Output:Meter\". Will report to both eplusout.eso and eplusout.mtr\n   ************* Testing Individual Branch Integrity\n   ************* All Branches passed integrity testing\n   ************* Testing Individual Supply Air Path Integrity\n   ************* All Supply Air Paths passed integrity testing\n   ************* Testing Individual Return Air Path Integrity\n   ************* All Return Air Paths passed integrity testing\n   ************* No node connection errors were found.\n   ************* Beginning Simulation\n   ** Warning ** GetInputEconomicsTariff: UtilityCost:Tariff=\"NONEGAS\" missing meter\n   **   ~~~   ** Meter referenced is not present due to a lack of equipment that uses that energy source/meter:\"GAS:FACILITY\".\n   ** Warning ** CalcDoe2DXCoil: Coil:Cooling:DX:SingleSpeed \"COIL COOLING DX SINGLE SPEED 28 20KBTU/HR 14.0SEER\" - Full load outlet air dry-bulb temperature < 2C. This indicates the possibility of coil frost/freeze. Outlet temperature = -1.32 C.\n   **   ~~~   **  ...Occurrence info = RUN PERIOD 1, 01/19 21:15 - 21:19\n   **   ~~~   ** ... Possible reasons for low outlet air dry-bulb temperatures are: This DX coil\n   **   ~~~   **    1) may have a low inlet air dry-bulb temperature. Inlet air temperature = 11.865 C.\n   **   ~~~   **    2) may have a low air flow rate per watt of cooling capacity. Check inputs.\n   **   ~~~   **    3) is used as part of a HX assisted cooling coil which uses a high sensible effectiveness. Check inputs.\n   ** Warning ** CalcDoe2DXCoil: Coil:Cooling:DX:SingleSpeed \"COIL COOLING DX SINGLE SPEED 25 11KBTU/HR 10.1EER\" - Air-cooled condenser inlet dry-bulb temperature below 0 C. Outdoor dry-bulb temperature = -1.40\n   **   ~~~   **  ... Occurrence info = RUN PERIOD 1, 01/20 12:15 - 12:22\n   **   ~~~   ** ... Operation at low ambient temperatures may require special performance curves.\n   ** Warning ** CalcDoe2DXCoil: Coil:Cooling:DX:SingleSpeed \"COIL COOLING DX SINGLE SPEED 26 11KBTU/HR 10.1EER\" - Air-cooled condenser inlet dry-bulb temperature below 0 C. Outdoor dry-bulb temperature = -1.40\n   **   ~~~   **  ... Occurrence info = RUN PERIOD 1, 01/20 12:15 - 12:22\n   **   ~~~   ** ... Operation at low ambient temperatures may require special performance curves.\n   ** Warning ** CalcDoe2DXCoil: Coil:Cooling:DX:SingleSpeed \"COIL COOLING DX SINGLE SPEED 27 13KBTU/HR 9.8EER\" - Air-cooled condenser inlet dry-bulb temperature below 0 C. Outdoor dry-bulb temperature = -1.25\n   **   ~~~   **  ... Occurrence info = RUN PERIOD 1, 01/20 12:38 - 12:45\n   **   ~~~   ** ... Operation at low ambient temperatures may require special performance curves.\n   ** Warning ** CalcDoe2DXCoil: Coil:Cooling:DX:SingleSpeed \"COIL COOLING DX SINGLE SPEED 7 12KBTU/HR 9.9EER\" - Air-cooled condenser inlet dry-bulb temperature below 0 C. Outdoor dry-bulb temperature = -1.25\n   **   ~~~   **  ... Occurrence info = RUN PERIOD 1, 01/20 12:38 - 12:45\n   **   ~~~   ** ... Operation at low ambient temperatures may require special performance curves.\n   ** Warning ** CalcDoe2DXCoil: Coil:Cooling:DX:SingleSpeed \"COIL COOLING DX SINGLE SPEED 9 12KBTU/HR 9.9EER\" - Air-cooled condenser inlet dry-bulb temperature below 0 C. Outdoor dry-bulb temperature = -1.25\n   **   ~~~   **  ... Occurrence info = RUN PERIOD 1, 01/20 12:38 - 12:45\n   **   ~~~   ** ... Operation at low ambient temperatures may require special performance curves.\n   ** Warning ** CalcDoe2DXCoil: Coil:Cooling:DX:SingleSpeed \"COIL COOLING DX SINGLE SPEED 8 14KBTU/HR 9.5EER\" - Air-cooled condenser inlet dry-bulb temperature below 0 C. Outdoor dry-bulb temperature = -0.55\n   **   ~~~   **  ... Occurrence info = RUN PERIOD 1, 01/20 13:00 - 13:08\n   **   ~~~   ** ... Operation at low ambient temperatures may require special performance curves.\n   ** Warning ** CalcDoe2DXCoil: Coil:Cooling:DX:SingleSpeed \"COIL COOLING DX SINGLE SPEED 10 14KBTU/HR 9.4EER\" - Air-cooled condenser inlet dry-bulb temperature below 0 C. Outdoor dry-bulb temperature = -0.30\n   **   ~~~   **  ... Occurrence info = RUN PERIOD 1, 01/20 14:15 - 14:30\n   **   ~~~   ** ... Operation at low ambient temperatures may require special performance curves.\n   ** Warning ** CalcDoe2DXCoil: Coil:Cooling:DX:SingleSpeed \"COIL COOLING DX SINGLE SPEED 16 15KBTU/HR 9.3EER\" - Air-cooled condenser inlet dry-bulb temperature below 0 C. Outdoor dry-bulb temperature = -0.30\n   **   ~~~   **  ... Occurrence info = RUN PERIOD 1, 01/20 14:15 - 14:30\n   **   ~~~   ** ... Operation at low ambient temperatures may require special performance curves.\n   ** Warning ** CalcDoe2DXCoil: Coil:Cooling:DX:SingleSpeed \"COIL COOLING DX SINGLE SPEED 19 15KBTU/HR 9.3EER\" - Air-cooled condenser inlet dry-bulb temperature below 0 C. Outdoor dry-bulb temperature = -0.30\n   **   ~~~   **  ... Occurrence info = RUN PERIOD 1, 01/20 14:15 - 14:30\n   **   ~~~   ** ... Operation at low ambient temperatures may require special performance curves.\n   ** Warning ** CalcDoe2DXCoil: Coil:Cooling:DX:SingleSpeed \"COIL COOLING DX SINGLE SPEED 18 16KBTU/HR 9.3EER\" - Air-cooled condenser inlet dry-bulb temperature below 0 C. Outdoor dry-bulb temperature = -7.08\n   **   ~~~   **  ... Occurrence info = RUN PERIOD 1, 01/27 13:38 - 13:45\n   **   ~~~   ** ... Operation at low ambient temperatures may require special performance curves.\n   ** Warning ** CalcDoe2DXCoil: Coil:Cooling:DX:SingleSpeed \"COIL COOLING DX SINGLE SPEED 17 17KBTU/HR 9.3EER\" - Air-cooled condenser inlet dry-bulb temperature below 0 C. Outdoor dry-bulb temperature = -7.20\n   **   ~~~   **  ... Occurrence info = RUN PERIOD 1, 01/27 13:45 - 14:00\n   **   ~~~   ** ... Operation at low ambient temperatures may require special performance curves.\n   ** Warning ** CalcDoe2DXCoil: Coil:Cooling:DX:SingleSpeed \"COIL COOLING DX SINGLE SPEED 6 8KBTU/HR 10.9EER\" - Air-cooled condenser inlet dry-bulb temperature below 0 C. Outdoor dry-bulb temperature = -1.00\n   **   ~~~   **  ... Occurrence info = RUN PERIOD 1, 02/21 21:45 - 22:00\n   **   ~~~   ** ... Operation at low ambient temperatures may require special performance curves.\n   ** Warning ** CalcDoe2DXCoil: Coil:Cooling:DX:SingleSpeed \"COIL COOLING DX SINGLE SPEED 28 20KBTU/HR 14.0SEER\" - Air-cooled condenser inlet dry-bulb temperature below 0 C. Outdoor dry-bulb temperature = -1.95\n   **   ~~~   **  ... Occurrence info = RUN PERIOD 1, 02/28 13:08 - 13:15\n   **   ~~~   ** ... Operation at low ambient temperatures may require special performance curves.\n   ** Warning ** CalcDoe2DXCoil: Coil:Cooling:DX:SingleSpeed \"COIL COOLING DX SINGLE SPEED 5 12KBTU/HR 10.0EER\" - Air-cooled condenser inlet dry-bulb temperature below 0 C. Outdoor dry-bulb temperature = -0.23\n   **   ~~~   **  ... Occurrence info = RUN PERIOD 1, 03/09 18:00 - 18:15\n   **   ~~~   ** ... Operation at low ambient temperatures may require special performance curves.\n   ** Warning ** CalcDoe2DXCoil: Coil:Cooling:DX:SingleSpeed \"COIL COOLING DX SINGLE SPEED 24 8KBTU/HR 10.9EER\" - Air-cooled condenser inlet dry-bulb temperature below 0 C. Outdoor dry-bulb temperature = -1.30\n   **   ~~~   **  ... Occurrence info = RUN PERIOD 1, 03/20 14:15 - 14:30\n   **   ~~~   ** ... Operation at low ambient temperatures may require special performance curves.\n   ** Warning ** CalcDoe2DXCoil: Coil:Cooling:DX:SingleSpeed \"COIL COOLING DX SINGLE SPEED 4 6KBTU/HR 11.0EER\" - Air-cooled condenser inlet dry-bulb temperature below 0 C. Outdoor dry-bulb temperature = -0.70\n   **   ~~~   **  ... Occurrence info = RUN PERIOD 1, 03/21 19:45 - 20:00\n   **   ~~~   ** ... Operation at low ambient temperatures may require special performance curves.\n   ** Warning ** CalcDoe2DXCoil: Coil:Cooling:DX:SingleSpeed \"COIL COOLING DX SINGLE SPEED 3 6KBTU/HR 11.0EER\" - Air-cooled condenser inlet dry-bulb temperature below 0 C. Outdoor dry-bulb temperature = -3.40\n   **   ~~~   **  ... Occurrence info = RUN PERIOD 1, 03/21 22:45 - 23:00\n   **   ~~~   ** ... Operation at low ambient temperatures may require special performance curves.\n   ** Warning ** CalcDoe2DXCoil: Coil:Cooling:DX:SingleSpeed \"COIL COOLING DX SINGLE SPEED 2 10KBTU/HR 10.4EER\" - Air-cooled condenser inlet dry-bulb temperature below 0 C. Outdoor dry-bulb temperature = -4.28\n   **   ~~~   **  ... Occurrence info = RUN PERIOD 1, 03/23 10:30 - 10:35\n   **   ~~~   ** ... Operation at low ambient temperatures may require special performance curves.\n   ** Warning ** CalcDoe2DXCoil: Coil:Cooling:DX:SingleSpeed \"COIL COOLING DX SINGLE SPEED 15 11KBTU/HR 10.2EER\" - Air-cooled condenser inlet dry-bulb temperature below 0 C. Outdoor dry-bulb temperature = -0.30\n   **   ~~~   **  ... Occurrence info = RUN PERIOD 1, 03/23 12:45 - 13:00\n   **   ~~~   ** ... Operation at low ambient temperatures may require special performance curves.\n   ** Warning ** CalcDoe2DXCoil: Coil:Cooling:DX:SingleSpeed \"COIL COOLING DX SINGLE SPEED 20 10KBTU/HR 10.3EER\" - Air-cooled condenser inlet dry-bulb temperature below 0 C. Outdoor dry-bulb temperature = -0.45\n   **   ~~~   **  ... Occurrence info = RUN PERIOD 1, 03/23 18:00 - 18:15\n   **   ~~~   ** ... Operation at low ambient temperatures may require special performance curves.\n   ** Warning ** CalcDoe2DXCoil: Coil:Cooling:DX:SingleSpeed \"COIL COOLING DX SINGLE SPEED 11 12KBTU/HR 10.0EER\" - Air-cooled condenser inlet dry-bulb temperature below 0 C. Outdoor dry-bulb temperature = -0.15\n   **   ~~~   **  ... Occurrence info = RUN PERIOD 1, 04/07 17:00 - 17:08\n   **   ~~~   ** ... Operation at low ambient temperatures may require special performance curves.\n   ** Warning ** CalcDoe2DXCoil: Coil:Cooling:DX:SingleSpeed \"COIL COOLING DX SINGLE SPEED 4 6KBTU/HR 11.0EER\" - Full load outlet air dry-bulb temperature < 2C. This indicates the possibility of coil frost/freeze. Outlet temperature = 1.87 C.\n   **   ~~~   **  ...Occurrence info = RUN PERIOD 1, 04/07 21:30 - 21:38\n   **   ~~~   ** ... Possible reasons for low outlet air dry-bulb temperatures are: This DX coil\n   **   ~~~   **    1) may have a low inlet air dry-bulb temperature. Inlet air temperature = 15.480 C.\n   **   ~~~   **    2) may have a low air flow rate per watt of cooling capacity. Check inputs.\n   **   ~~~   **    3) is used as part of a HX assisted cooling coil which uses a high sensible effectiveness. Check inputs.\n   ** Warning ** CalcDoe2DXCoil: Coil:Cooling:DX:SingleSpeed \"COIL COOLING DX SINGLE SPEED 23 9KBTU/HR 10.5EER\" - Air-cooled condenser inlet dry-bulb temperature below 0 C. Outdoor dry-bulb temperature = -1.10\n   **   ~~~   **  ... Occurrence info = RUN PERIOD 1, 04/15 08:53 - 09:00\n   **   ~~~   ** ... Operation at low ambient temperatures may require special performance curves.\n   ** Warning ** CalcDoe2DXCoil: Coil:Cooling:DX:SingleSpeed \"COIL COOLING DX SINGLE SPEED 22 5KBTU/HR 11.0EER\" - Air-cooled condenser inlet dry-bulb temperature below 0 C. Outdoor dry-bulb temperature = -0.85\n   **   ~~~   **  ... Occurrence info = RUN PERIOD 1, 04/18 19:15 - 19:30\n   **   ~~~   ** ... Operation at low ambient temperatures may require special performance curves.\n   ** Warning ** CalcDoe2DXCoil: Coil:Cooling:DX:SingleSpeed \"COIL COOLING DX SINGLE SPEED 21 5KBTU/HR 11.0EER\" - Air-cooled condenser inlet dry-bulb temperature below 0 C. Outdoor dry-bulb temperature = -1.70\n   **   ~~~   **  ... Occurrence info = RUN PERIOD 1, 04/18 19:45 - 20:00\n   **   ~~~   ** ... Operation at low ambient temperatures may require special performance curves.\n   ** Warning ** CalcDoe2DXCoil: Coil:Cooling:DX:SingleSpeed \"COIL COOLING DX SINGLE SPEED 22 5KBTU/HR 11.0EER\" - Full load outlet air dry-bulb temperature < 2C. This indicates the possibility of coil frost/freeze. Outlet temperature = 1.96 C.\n   **   ~~~   **  ...Occurrence info = RUN PERIOD 1, 04/19 20:15 - 20:30\n   **   ~~~   ** ... Possible reasons for low outlet air dry-bulb temperatures are: This DX coil\n   **   ~~~   **    1) may have a low inlet air dry-bulb temperature. Inlet air temperature = 15.380 C.\n   **   ~~~   **    2) may have a low air flow rate per watt of cooling capacity. Check inputs.\n   **   ~~~   **    3) is used as part of a HX assisted cooling coil which uses a high sensible effectiveness. Check inputs.\n   ** Warning ** CalcDoe2DXCoil: Coil:Cooling:DX:SingleSpeed \"COIL COOLING DX SINGLE SPEED 3 6KBTU/HR 11.0EER\" - Full load outlet air dry-bulb temperature < 2C. This indicates the possibility of coil frost/freeze. Outlet temperature = 1.98 C.\n   **   ~~~   **  ...Occurrence info = RUN PERIOD 1, 04/19 23:30 - 23:45\n   **   ~~~   ** ... Possible reasons for low outlet air dry-bulb temperatures are: This DX coil\n   **   ~~~   **    1) may have a low inlet air dry-bulb temperature. Inlet air temperature = 15.656 C.\n   **   ~~~   **    2) may have a low air flow rate per watt of cooling capacity. Check inputs.\n   **   ~~~   **    3) is used as part of a HX assisted cooling coil which uses a high sensible effectiveness. Check inputs.\n   ************* Simulation Error Summary *************\n   ************* There are 9 unused schedules in input.\n   ************* There are 9 unused week schedules in input.\n   ************* There are 17 unused day schedules in input.\n   ************* Use Output:Diagnostics,DisplayUnusedSchedules; to see them.\n   *************\n   ************* ===== Recurring Error Summary =====\n   ************* The following recurring error messages occurred.\n   *************\n   *************  ** Warning ** CalcDoe2DXCoil: Coil:Cooling:DX:SingleSpeed=\"COIL COOLING DX SINGLE SPEED 28 20KBTU/HR 14.0SEER\" - Full load outlet temperature indicates a possibility of frost/freeze error continues. Outlet air temperature statistics follow:\n   *************  **   ~~~   **   This error occurred 558 total times;\n   *************  **   ~~~   **   during Warmup 0 times;\n   *************  **   ~~~   **   during Sizing 0 times.\n   *************  **   ~~~   **   Max=1.996032  Min=-2.038539\n   *************\n   *************  ** Warning ** CalcDoe2DXCoil: Coil:Cooling:DX:SingleSpeed=\"COIL COOLING DX SINGLE SPEED 25 11KBTU/HR 10.1EER\" - Low condenser dry-bulb temperature error continues...\n   *************  **   ~~~   **   This error occurred 1666 total times;\n   *************  **   ~~~   **   during Warmup 0 times;\n   *************  **   ~~~   **   during Sizing 0 times.\n   *************  **   ~~~   **   Max=-5.000000E-002 [C]  Min=-26.5 [C]\n   *************\n   *************  ** Warning ** CalcDoe2DXCoil: Coil:Cooling:DX:SingleSpeed=\"COIL COOLING DX SINGLE SPEED 26 11KBTU/HR 10.1EER\" - Low condenser dry-bulb temperature error continues...\n   *************  **   ~~~   **   This error occurred 1548 total times;\n   *************  **   ~~~   **   during Warmup 0 times;\n   *************  **   ~~~   **   during Sizing 0 times.\n   *************  **   ~~~   **   Max=-5.000000E-002 [C]  Min=-26.5 [C]\n   *************\n   *************  ** Warning ** CalcDoe2DXCoil: Coil:Cooling:DX:SingleSpeed=\"COIL COOLING DX SINGLE SPEED 27 13KBTU/HR 9.8EER\" - Low condenser dry-bulb temperature error continues...\n   *************  **   ~~~   **   This error occurred 1132 total times;\n   *************  **   ~~~   **   during Warmup 0 times;\n   *************  **   ~~~   **   during Sizing 0 times.\n   *************  **   ~~~   **   Max=-5.000000E-002 [C]  Min=-24.625 [C]\n   *************\n   *************  ** Warning ** CalcDoe2DXCoil: Coil:Cooling:DX:SingleSpeed=\"COIL COOLING DX SINGLE SPEED 7 12KBTU/HR 9.9EER\" - Low condenser dry-bulb temperature error continues...\n   *************  **   ~~~   **   This error occurred 2949 total times;\n   *************  **   ~~~   **   during Warmup 0 times;\n   *************  **   ~~~   **   during Sizing 0 times.\n   *************  **   ~~~   **   Max=-2.500000E-002 [C]  Min=-25.25 [C]\n   *************\n   *************  ** Warning ** CalcDoe2DXCoil: Coil:Cooling:DX:SingleSpeed=\"COIL COOLING DX SINGLE SPEED 9 12KBTU/HR 9.9EER\" - Low condenser dry-bulb temperature error continues...\n   *************  **   ~~~   **   This error occurred 2940 total times;\n   *************  **   ~~~   **   during Warmup 0 times;\n   *************  **   ~~~   **   during Sizing 0 times.\n   *************  **   ~~~   **   Max=-2.500000E-002 [C]  Min=-25.25 [C]\n   *************\n   *************  ** Warning ** CalcDoe2DXCoil: Coil:Cooling:DX:SingleSpeed=\"COIL COOLING DX SINGLE SPEED 8 14KBTU/HR 9.5EER\" - Low condenser dry-bulb temperature error continues...\n   *************  **   ~~~   **   This error occurred 1759 total times;\n   *************  **   ~~~   **   during Warmup 0 times;\n   *************  **   ~~~   **   during Sizing 0 times.\n   *************  **   ~~~   **   Max=-5.000000E-002 [C]  Min=-24.625 [C]\n   *************\n   *************  ** Warning ** CalcDoe2DXCoil: Coil:Cooling:DX:SingleSpeed=\"COIL COOLING DX SINGLE SPEED 10 14KBTU/HR 9.4EER\" - Low condenser dry-bulb temperature error continues...\n   *************  **   ~~~   **   This error occurred 1759 total times;\n   *************  **   ~~~   **   during Warmup 0 times;\n   *************  **   ~~~   **   during Sizing 0 times.\n   *************  **   ~~~   **   Max=-5.000000E-002 [C]  Min=-23.85 [C]\n   *************\n   *************  ** Warning ** CalcDoe2DXCoil: Coil:Cooling:DX:SingleSpeed=\"COIL COOLING DX SINGLE SPEED 16 15KBTU/HR 9.3EER\" - Low condenser dry-bulb temperature error continues...\n   *************  **   ~~~   **   This error occurred 653 total times;\n   *************  **   ~~~   **   during Warmup 0 times;\n   *************  **   ~~~   **   during Sizing 0 times.\n   *************  **   ~~~   **   Max=-5.000000E-002 [C]  Min=-23.85 [C]\n   *************\n   *************  ** Warning ** CalcDoe2DXCoil: Coil:Cooling:DX:SingleSpeed=\"COIL COOLING DX SINGLE SPEED 19 15KBTU/HR 9.3EER\" - Low condenser dry-bulb temperature error continues...\n   *************  **   ~~~   **   This error occurred 656 total times;\n   *************  **   ~~~   **   during Warmup 0 times;\n   *************  **   ~~~   **   during Sizing 0 times.\n   *************  **   ~~~   **   Max=-5.000000E-002 [C]  Min=-24. [C]\n   *************\n   *************  ** Warning ** CalcDoe2DXCoil: Coil:Cooling:DX:SingleSpeed=\"COIL COOLING DX SINGLE SPEED 18 16KBTU/HR 9.3EER\" - Low condenser dry-bulb temperature error continues...\n   *************  **   ~~~   **   This error occurred 619 total times;\n   *************  **   ~~~   **   during Warmup 0 times;\n   *************  **   ~~~   **   during Sizing 0 times.\n   *************  **   ~~~   **   Max=-5.000000E-002 [C]  Min=-23.85 [C]\n   *************\n   *************  ** Warning ** CalcDoe2DXCoil: Coil:Cooling:DX:SingleSpeed=\"COIL COOLING DX SINGLE SPEED 17 17KBTU/HR 9.3EER\" - Low condenser dry-bulb temperature error continues...\n   *************  **   ~~~   **   This error occurred 563 total times;\n   *************  **   ~~~   **   during Warmup 0 times;\n   *************  **   ~~~   **   during Sizing 0 times.\n   *************  **   ~~~   **   Max=-5.000000E-002 [C]  Min=-23.7 [C]\n   *************\n   *************  ** Warning ** CalcDoe2DXCoil: Coil:Cooling:DX:SingleSpeed=\"COIL COOLING DX SINGLE SPEED 6 8KBTU/HR 10.9EER\" - Low condenser dry-bulb temperature error continues...\n   *************  **   ~~~   **   This error occurred 1106 total times;\n   *************  **   ~~~   **   during Warmup 0 times;\n   *************  **   ~~~   **   during Sizing 0 times.\n   *************  **   ~~~   **   Max=-5.000000E-002 [C]  Min=-16.4 [C]\n   *************\n   *************  ** Warning ** CalcDoe2DXCoil: Coil:Cooling:DX:SingleSpeed=\"COIL COOLING DX SINGLE SPEED 28 20KBTU/HR 14.0SEER\" - Low condenser dry-bulb temperature error continues...\n   *************  **   ~~~   **   This error occurred 66 total times;\n   *************  **   ~~~   **   during Warmup 0 times;\n   *************  **   ~~~   **   during Sizing 0 times.\n   *************  **   ~~~   **   Max=-2.500000E-002 [C]  Min=-3.675 [C]\n   *************\n   *************  ** Warning ** CalcDoe2DXCoil: Coil:Cooling:DX:SingleSpeed=\"COIL COOLING DX SINGLE SPEED 5 12KBTU/HR 10.0EER\" - Low condenser dry-bulb temperature error continues...\n   *************  **   ~~~   **   This error occurred 325 total times;\n   *************  **   ~~~   **   during Warmup 0 times;\n   *************  **   ~~~   **   during Sizing 0 times.\n   *************  **   ~~~   **   Max=-0.1 [C]  Min=-7.8 [C]\n   *************\n   *************  ** Warning ** CalcDoe2DXCoil: Coil:Cooling:DX:SingleSpeed=\"COIL COOLING DX SINGLE SPEED 24 8KBTU/HR 10.9EER\" - Low condenser dry-bulb temperature error continues...\n   *************  **   ~~~   **   This error occurred 107 total times;\n   *************  **   ~~~   **   during Warmup 0 times;\n   *************  **   ~~~   **   during Sizing 0 times.\n   *************  **   ~~~   **   Max=-0.125 [C]  Min=-3.75 [C]\n   *************\n   *************  ** Warning ** CalcDoe2DXCoil: Coil:Cooling:DX:SingleSpeed=\"COIL COOLING DX SINGLE SPEED 4 6KBTU/HR 11.0EER\" - Low condenser dry-bulb temperature error continues...\n   *************  **   ~~~   **   This error occurred 319 total times;\n   *************  **   ~~~   **   during Warmup 0 times;\n   *************  **   ~~~   **   during Sizing 0 times.\n   *************  **   ~~~   **   Max=-5.000000E-002 [C]  Min=-8.9 [C]\n   *************\n   *************  ** Warning ** CalcDoe2DXCoil: Coil:Cooling:DX:SingleSpeed=\"COIL COOLING DX SINGLE SPEED 3 6KBTU/HR 11.0EER\" - Low condenser dry-bulb temperature error continues...\n   *************  **   ~~~   **   This error occurred 258 total times;\n   *************  **   ~~~   **   during Warmup 0 times;\n   *************  **   ~~~   **   during Sizing 0 times.\n   *************  **   ~~~   **   Max=-5.000000E-002 [C]  Min=-6.1 [C]\n   *************\n   *************  ** Warning ** CalcDoe2DXCoil: Coil:Cooling:DX:SingleSpeed=\"COIL COOLING DX SINGLE SPEED 2 10KBTU/HR 10.4EER\" - Low condenser dry-bulb temperature error continues...\n   *************  **   ~~~   **   This error occurred 103 total times;\n   *************  **   ~~~   **   during Warmup 0 times;\n   *************  **   ~~~   **   during Sizing 0 times.\n   *************  **   ~~~   **   Max=-0.1 [C]  Min=-4.275 [C]\n   *************\n   *************  ** Warning ** CalcDoe2DXCoil: Coil:Cooling:DX:SingleSpeed=\"COIL COOLING DX SINGLE SPEED 15 11KBTU/HR 10.2EER\" - Low condenser dry-bulb temperature error continues...\n   *************  **   ~~~   **   This error occurred 18 total times;\n   *************  **   ~~~   **   during Warmup 0 times;\n   *************  **   ~~~   **   during Sizing 0 times.\n   *************  **   ~~~   **   Max=-0.125 [C]  Min=-2.8 [C]\n   *************\n   *************  ** Warning ** CalcDoe2DXCoil: Coil:Cooling:DX:SingleSpeed=\"COIL COOLING DX SINGLE SPEED 20 10KBTU/HR 10.3EER\" - Low condenser dry-bulb temperature error continues...\n   *************  **   ~~~   **   This error occurred 87 total times;\n   *************  **   ~~~   **   during Warmup 0 times;\n   *************  **   ~~~   **   during Sizing 0 times.\n   *************  **   ~~~   **   Max=-0.125 [C]  Min=-3.9 [C]\n   *************\n   *************  ** Warning ** CalcDoe2DXCoil: Coil:Cooling:DX:SingleSpeed=\"COIL COOLING DX SINGLE SPEED 11 12KBTU/HR 10.0EER\" - Low condenser dry-bulb temperature error continues...\n   *************  **   ~~~   **   This error occurred 57 total times;\n   *************  **   ~~~   **   during Warmup 0 times;\n   *************  **   ~~~   **   during Sizing 0 times.\n   *************  **   ~~~   **   Max=-0.125 [C]  Min=-3.625 [C]\n   *************\n   *************  ** Warning ** CalcDoe2DXCoil: Coil:Cooling:DX:SingleSpeed=\"COIL COOLING DX SINGLE SPEED 4 6KBTU/HR 11.0EER\" - Full load outlet temperature indicates a possibility of frost/freeze error continues. Outlet air temperature statistics follow:\n   *************  **   ~~~   **   This error occurred 14 total times;\n   *************  **   ~~~   **   during Warmup 0 times;\n   *************  **   ~~~   **   during Sizing 0 times.\n   *************  **   ~~~   **   Max=1.985257  Min=1.006457\n   *************\n   *************  ** Warning ** CalcDoe2DXCoil: Coil:Cooling:DX:SingleSpeed=\"COIL COOLING DX SINGLE SPEED 23 9KBTU/HR 10.5EER\" - Low condenser dry-bulb temperature error continues...\n   *************  **   ~~~   **   This error occurred 24 total times;\n   *************  **   ~~~   **   during Warmup 0 times;\n   *************  **   ~~~   **   during Sizing 0 times.\n   *************  **   ~~~   **   Max=-0.15 [C]  Min=-1.975 [C]\n   *************\n   *************  ** Warning ** CalcDoe2DXCoil: Coil:Cooling:DX:SingleSpeed=\"COIL COOLING DX SINGLE SPEED 22 5KBTU/HR 11.0EER\" - Low condenser dry-bulb temperature error continues...\n   *************  **   ~~~   **   This error occurred 37 total times;\n   *************  **   ~~~   **   during Warmup 0 times;\n   *************  **   ~~~   **   during Sizing 0 times.\n   *************  **   ~~~   **   Max=-0.1 [C]  Min=-2.8 [C]\n   *************\n   *************  ** Warning ** CalcDoe2DXCoil: Coil:Cooling:DX:SingleSpeed=\"COIL COOLING DX SINGLE SPEED 21 5KBTU/HR 11.0EER\" - Low condenser dry-bulb temperature error continues...\n   *************  **   ~~~   **   This error occurred 10 total times;\n   *************  **   ~~~   **   during Warmup 0 times;\n   *************  **   ~~~   **   during Sizing 0 times.\n   *************  **   ~~~   **   Max=-0.1 [C]  Min=-1.825 [C]\n   *************\n   *************  ** Warning ** CalcDoe2DXCoil: Coil:Cooling:DX:SingleSpeed=\"COIL COOLING DX SINGLE SPEED 22 5KBTU/HR 11.0EER\" - Full load outlet temperature indicates a possibility of frost/freeze error continues. Outlet air temperature statistics follow:\n   *************  **   ~~~   **   This error occurred 3 total times;\n   *************  **   ~~~   **   during Warmup 0 times;\n   *************  **   ~~~   **   during Sizing 0 times.\n   *************  **   ~~~   **   Max=1.96028  Min=1.801579\n   *************\n   *************  ** Warning ** CalcDoe2DXCoil: Coil:Cooling:DX:SingleSpeed=\"COIL COOLING DX SINGLE SPEED 3 6KBTU/HR 11.0EER\" - Full load outlet temperature indicates a possibility of frost/freeze error continues. Outlet air temperature statistics follow:\n   *************  **   ~~~   **   This error occurred 1 total times;\n   *************  **   ~~~   **   during Warmup 0 times;\n   *************  **   ~~~   **   during Sizing 0 times.\n   *************  **   ~~~   **   Max=1.984016  Min=1.984016\n   *************\n   *************\n   ************* ===== Final Error Summary =====\n   ************* The following error categories occurred.  Consider correcting or noting.\n   ************* Nominally Unused Constructions\n   ************* ..The nominally unused constructions warning is provided to alert you to potential conditions that can cause\n   ************* ..extra time during simulation. Each construction is calculated by the algorithm indicated in the HeatBalanceAlgorithm\n   ************* ..object. You may remove the constructions indicated (when you use the DisplayExtraWarnings option).\n   *************\n   ************* EnergyPlus Warmup Error Summary. During Warmup: 0 Warning; 0 Severe Errors.\n   ************* EnergyPlus Sizing Error Summary. During Sizing: 181 Warning; 0 Severe Errors.\n   ************* EnergyPlus Completed Successfully-- 19554 Warning; 0 Severe Errors; Elapsed Time=00hr 02min 53.61sec\n",
   "file_format_version" : "0.0.1",
   "file_paths" : [ "../weather", "../seeds", "../seed" ],
   "hash" : "A7A7C001",
   "measure_paths" : [ "../measures" ],
   "name" : "LHS Autogenerated 154",
   "osa_id" : "4fef0e0f-5396-4c55-a6e1-2cd6803db3ab",
   "osd_id" : "18982854-d89d-4cfc-9fd5-3ed6b54fa390",
   "run_directory" : "./run",
   "seed_file" : "seed.osm",
   "started_at" : "20170710T182635Z",
   "steps" : [
      {
         "arguments" : {
            "__SKIP__" : false,
            "building_type" : "MidriseApartment",
            "climate_zone" : "NECB HDD Method",
            "epw_file" : "CAN_YT_Whitehorse.719640_CWEC.epw",
            "template" : "NECB 2011"
         },
         "measure_dir_name" : "create_prototype_building",
         "name" : "create_prototype_building",
         "result" : {
            "completed_at" : "20170710T182749Z",
            "measure_class_name" : "CreatePrototypeBuilding",
            "measure_display_name" : "Create Prototype Building",
            "measure_name" : "create_prototype_building",
            "measure_taxonomy" : "Whole Building.Space Types",
            "measure_type" : "ModelMeasure",
            "measure_uid" : "ae90fsd7-a651-467a-bc8d-29d310b0f937",
            "measure_version_id" : "c6ec5c18-5595-459f-a082-09a19c8c869c",
            "measure_version_modified" : "20170519T182315Z",
            "measure_xml_checksum" : "057E8D9D",
            "started_at" : "20170710T182637Z",
            "stderr" : "",
[...]
lh1/QpklB+eEXtGlSUH74FW2almTrdrHZFG2almSrd7HcFG2almRreLHfFG2adlfaOl6sOEWbpiXZOl5sObRpaNPQpj0Qok27Dto0tGlo04pBm4Y2bdG7Qps2e/6C16NNux+0adOs8C2tjdkFwAEHHHDAAQcccMABBxxwhsfZmHQAGmiggQYaaKCBBhpooIFmHJq3kR2AAw444IADDjjggAMOOOD0Pw9t2m3Qpk3atBhDm7YbQJu2e5k27eNLs1jTlJydKWdvyjmYco6mnJMp52zKuZhyZj+6l4JcjQ5XpcPV6XCVOlytDletw9XrcBU7XM1urmY3213tanZzNbstavbzerRZVL8dTYhJP6F+N5oQk577fjOaEJOe+X4vmhCTnnfBiqbkmHqcrzFBiabkmKqc7zDBh6bkmNqcLzBBhqbcg6Y+59tLMKEpOaY+56urX4M2ixEsaEpO+vEIDjQlJz3uggFNyUmPu+A/U3LS467Yz6QgV6PzDaaoz6QgV6nzJaZ4z6QgV6/zPaZIz6Sb0dXsfJUpxjMpyNXsfJuhO0N3hu7sgRDd2XXQnaE7Q3dWDLozdGeL3hW6s9nzF7we3dn9oDubZoVvV23MCgAOOOCAAw444IADDjjggDM8zsZkAdBAAw000EADDTTQQAMNNOPQvI2kABxwwAEHHHDAAQcccMABp/956M5ug+5s0p21MXRn+wF0Z/sX6s4+DibfmRC0cwXtXUEHV9DRFXRyBZ1dQRdX0Kef2ytJtm6Hrdxha3fY6h22foet4GFreNgqHraON1vHm+/+tnW82TrelnV8iQbtPkvxoPXn5J+SYkLrz8lvAcWF1p+T3wCKDa0/Jz/9kg9NCHI1ulhvkhJNCHKVuthtkhVNCHL1ulhskhhNuBldzS62muRGE4JczS5WmqJHu8+R/GhCUP4RSYY0ISg//JIjTQjKD79kSROC8sOvedKUJFu3i82mqdKUJFu9i+Wm2dKUJFvDi/2mCdOUu9LW8WLFac40JcnW8WLLoU1Dm4Y27YEQbdp10KahTUObVgzaNLRpi94V2rTZ8xe8Hm3a/aBNm2aFb2ltzC4ADjjggAMOOOCAAw444IAzPM7GpAPQQAMNNNBAAw000EADDTTj0LyN7AAccMABBxxwwAEHHHDAAaf/eWjTboM2bdKm7cbQph0G0KYdXqZNO377UWiv4sYVtHMF7V1BB1fQ0RV0cgWdXUEXV9Ds1/dakq3bYSt32NodtnqHrd9hK3jYGh62ioet483W8ea7v20db7aOt2Udf16bNs/q16YpOfmn1K9NU3LyW6Bfm6bk5DdAvzZNyclPv6BNk4JcjS7Wm6BNk4JcpS52m6BNk4JcvS4Wm6BNk25GV7OLrSZo06QgV7OLldavTZvnCNo0KSj/iARtmhSUH35BmyYF5Ydf0KZJQfnhV7RpWpKt28VmU7RpWpKt3sVyU7RpWpKt4cV+U7Rp2l1p63ix4hRtmpZk63ix5dCmoU1Dm/ZAiDbtOmjT0KahTSsGbRratEXvCm3a7PkLXo827X7Qpk2zwre0NmYXAAcccMABBxxwwAEHHHDAGR5nY9IBaKCBBhpooIEGGmiggQaacWjeRnYADjjggAMOOOCAAw444IDT/zy0abdBmzZp0/ZjaNOOA2jTji/Tpn18aRZrmpKzM+XsTTkHU87RlHMy5ZxNORdTzuxH91KQq9HhqnS4Oh2uUoer1eGqdbh6Ha5ih6vZzdXsZrurXc1urma3Rc1+Xo82i+q3owkx6SfU70YTYtJz329GE2LSM9/vRRNi0vMuWNGUHFOP8zUmKNGUHFOV8x0m+NCUHFOb8wUmyNCUe9DU53x7CSY0JcfU53x19WvQZjGCBU3JST8ewYGm5KTHXTCgKTnpcRf8Z0pOetwV+5kU5Gp0vsEU9ZkU5Cp1vsQU75kU5Op1vscU6Zl0M7qana8yxXgmBbmanW8zdGfoztCdPRCiO7sOujN0Z+jOikF3hu5s0btCdzZ7/oLXozu7H3Rn06zw7aqNWQHAAQcccMABBxxwwAEHHHCGx9mYLAAaaKCBBhpooIEGGmiggWYcmreRFIADDjjggAMOOOCAAw444PQ/D93ZbdCdTbqzwxi6s9MAurPTC3VnHweT70wI2rmC9q6ggyvo6Ao6uYLOrqCLK+jTz+2VJFu3w1busLU7bPUOW7/DVvCwNTxsFQ9bx5ut4813f9s63mwdb8s6vkSDdp+leND6c/JPSTGh9efkt4DiQuvPyW8AxYbWn5OffsmHJgS5Gl2sN0mJJgS5Sl3sNsmKJgS5el0sNkmMJtyMrmYXW01yowlBrmYXK03Ro93nSH40ISj/iCRDmhCUH37JkSYE5YdfsqQJQfnh1zxpSpKt28Vm01RpSpKt3sVy02xpSpKt4cV+04Rpyl1p63ix4jRnmpJk63ix5dCmoU1Dm/ZAiDbtOmjT0KahTSsGbRratEXvCm3a7PkLXo827X7Qpk2zwre0NmYXAAcccMABBxxwwAEHHHDAGR5nY9IBaKCBBhpooIEGGmiggQaacWjeRnYADjjggAMOOOCAAw444IDT/zy0abdBmzZp045jaNPOA2jTzi/Tph2//Si0V3HjCtq5gvauoIMr6OgKOrmCzq6giyto9ut7LcnW7bCVO2ztDlu9w9bvsBU8bA0PW8XD1vFm63jz3d+2jjdbx9uyjj+vTZtn9WvTlJz8U+rXpik5+S3Qr01TcvIboF+bpuTkp1/QpklBrkYX603QpklBrlIXu03QpklBrl4Xi03Qpkk3o6vZxVYTtGlSkKvZxUrr16bNcwRtmhSUf0SCNk0Kyg+/oE2TgvLDL2jTpKD88CvaNC3J1u1isynaNC3JVu9iuSnaNC3J1vBivynaNO2utHW8WHGKNk1LsnW82HJo09CmoU17IESbdh20aWjT0KYVgzYNbdqid4U2bfb8Ba9Hm3Y/aNOmWeFbWhuzC4ADDjjggAMOOOCAAw444AyPszHpADTQQAMNNNBAAw000EADzTg0byM7AAcccMABBxxwwAEHHHDA6X8e2rTboE2btGmnMbRplwG0aZeXadM+vjSLNU3J2Zly9qacgynnaMo5mXLOppyLKWf2o3spyNXocFU6XJ0OV6nD1epw1TpcvQ5XscPV7OZqdrPd1a5mN1ez26JmP69Hm0X129GEmPQT6nejCTHpue83owkx6Znv96IJMel5F6xoSo6px/kaE5RoSo6pyvkOE3xoSo6pzfkCE2Royj1o6nO+vQQTmpJj6nO+uvo1aLMYwYKm5KQfj+BAU3LS4y4Y0JSc9LgL/jMlJz3uiv1MCnI1Ot9givpMCnKVOl9iivdMCnL1Ot9jivRMuhldzc5XmWI8k4Jczc63GbozdGfozh4I0Z1dB90ZujN0Z8WgO0N3tuhdoTubPX/B69Gd3Q+6s2lW+HbVxqwA4IADDjjggAMOOOCAAw44w+NsTBYADTTQQAMNNNBAAw000EAzDs3bSArAAQcccMABBxxwwAEHHHD6n4fu7Dbozibd2XkI3dnpY/u6s78yvk539nEw+c6EoJ0raO8KOriCjq6gkyvo7Aq6uII+/dxeSbJ1O2zlDlu7w1bvsPU7bAUPW8PDVvGwdbzZOt5897et483W8bas40s0aPdZigetPyf/lBQTWn9OfgsoLrT+nPwGUGxo/Tn56Zd8aEKQq9HFepOUaEKQq9TFbpOsaEKQq9fFYpPEaMLN6Gp2sdUkN5oQ5Gp2sdIUPdp9juRHE4Lyj0gypAlB+eGXHGlCUH74JUuaEJQffs2TpiTZul1sNk2VpiTZ6l0sN82WpiTZGl7sN02YptyVto4XK05zpilJto4XWw5tGto0tGkPhGjTroM2DW0a2rRi0KahTVv0rtCmzZ6/4PVo0+4Hbdo0K3xLa2N2AXDAAQcccMABBxxwwAEHnOFxNiYdgAYaaKCBBhpooIEGGmigGYfmbWQH4IADDjjggAMOOOCAAw44/c9Dm3YbtGmTNu0yhjYtBtCmxcu0acdvPwrtVdy4gnauoL0r6OAKOrqCTq6gsyvo4gqa/fpeS7J1O2zlDlu7w1bvsPU7bAUPW8PDVvGwdbzZOt5897et483W8bas489r0+ZZ/do0JSf/lPq1aUpOfgv0a9OUnPwG6NemKTn56Re0aVKQq9HFehO0aVKQq9TFbhO0aVKQq9fFYhO0adLN6Gp2sdUEbZoU5Gp2sdL6tWnzHEGbJgXlH5GgTZOC8sMvaNOkoPzwC9o0KSg//Io2TUuydbvYbIo2TUuy1btYboo2TUuyNbzYb4o2TbsrbR0vVpyiTdOSbB0vthzaNLRpaNMeCNGmXQdtGto0tGnFoE1Dm7boXaFNmz1/wevRpt0P2rRpVviW1sbsAuCAAw444IADDjjggAMOOMPjbEw6AA000EADDTTQQAMNNNBAMw7N28gOwAEHHHDAAQcccMABBxxw+p+HNu02aNO+a9MOY1jT2gDWtIY1rS8Ia9qPg7CmPZWENQ1rGtY0rGlY07CmYU3DmoY17VdvRqxpPw7CmvbDIKxpWNOwpmFNsyVhTXsuCWtaDoM1DWva58Ga9h0fa9rnwZr2zGBNW/Z6rGlY0xa9K6xps+cveD3WtPvBmjbNCl/S2phcABxwwAEHHHDAAQcccMABZ3icjTkHoIEGGmiggQYaaKCBBhpoxqF5G9cBOOCAAw444IADDjjggANO//Owpt0Ga9pkTfsYQ5u2G0CbtnuZNu3jS7NY05ScnSlnb8o5mHKOppyTKedsyrmYcmY/upeCXI0OV6XD1elwlTpcrQ5XrcPV63AVO1zNbq5mN9td7Wp2czW7LWr283q0WVS/HU2IST+hfjeaEJOe+34zmhCTnvl+L5oQk553wYqm5Jh6nK8xQYmm5JiqnO8wwYem5JjanC8wQYam3IOmPufbSzChKTmmPuerq1+DNosRLGhKTvrxCA40JSc97oIBTclJj7vgP1Ny0uOu2M+kIFej8w2mqM+kIFep8yWmeM+kIFev8z2mSM+km9HV7HyVKcYzKcjV7HyboTtDd4bu7IEQ3dl10J2hO0N3Vgy6M3Rni94VurPZ8xe8Ht3Z/aA7m2aFb1dtzAoADjjggAMOOOCAAw444IAzPM7GZAHQQAMNNNBAAw000EADDTTj0LyNpAAccMABBxxwwAEHHHDAAaf/eejOboPubNKdxRi6s/0AurP9C3VnHweT70wI2rmC9q6ggyvo6Ao6uYLOrqCLK+jTz+2VJFu3w1busLU7bPUOW7/DVvCwNTxsFQ9bx5ut4813f9s63mwdb8s6vkSDdp+leND6c/JPSTGh9efkt4DiQuvPyW8AxYbWn5OffsmHJgS5Gl2sN0mJJgS5Sl3sNsmKJgS5el0sNkmMJtyMrmYXW01yowlBrmYXK03Ro93nSH40ISj/iCRDmhCUH37JkSYE5YdfsqQJQfnh1zxpSpKt28Vm01RpSpKt3sVy02xpSpKt4cV+04Rpyl1p63ix4jRnmpJk63ix5dCmoU1Dm/ZAiDbtOmjT0KahTSsGbRratEXvCm3a7PkLXo827X7Qpk2zwre0NmYXAAcccMABBxxwwAEHHHDAGR5nY9IBaKCBBhpooIEGGmiggQaacWjeRnYADjjggAMOOOCAAw444IDT/zy0abdBmzZp09oY2rTDANq0w8u0acdvPwrtVdy4gnauoL0r6OAKOrqCTq6gsyvo4gqa/fpeS7J1O2zlDlu7w1bvsPU7bAUPW8PDVvGwdbzZOt5897et483W8bas489r0+ZZ/do0JSf/lPq1aUpOfgv0a9OUnPwG6NemKTn56Re0aVKQq9HFehO0aVKQq9TFbhO0aVKQq9fFYhO0adLN6Gp2sdUEbZoU5Gp2sdL6tWnzHEGbJgXlH5GgTZOC8sMvaNOkoPzwC9o0KSg//Io2TUuydbvYbIo2TUuy1btYboo2TUuyNbzYb4o2TbsrbR0vVpyiTdOSbB0vthzaNLRpaNMeCNGmXQdtGto0tGnFoE1Dm7boXaFNmz1/wevRpt0P2rRpVviW1sbsAuCAAw444IADDjjggAMOOMPjbEw6AA000EADDTTQQAMNNNBAMw7N28gOwAEHHHDAAQcccMABBxxw+p+HNu02aNMmbdpuDG3acQBt2vFl2rSPL81iTVNydqacvSnnYMo5mnJOppyzKediypn96F4KcjU6XJUOV6fDVepwtTpctQ5Xr8NV7HA1u7ma3Wx3tavZzdXstqjZz+vRZlH9djQhJv2E+t1oQkx67vvNaEJMeub7vWhCTHreBSuakmPqcb7GBCWakmOqcr7DBB+akmNqc77ABBmacg+a+pxvL8GEpuSY+pyvrn4N2ixGsKApOenHIzjQlJz0uAsGNCUnPe6C/0zJSY+7Yj+TglyNzjeYoj6TglylzpeY4j2Tgly9zveYIj2TbkZXs/NVphjPpCBXs/Nthu4M3Rm6swdCdGfXQXeG7gzdWTHoztCdLXpX6M5mz1/wenRn94PubJoVvl21MSsAOOCAAw444IADDjjggAPO8DgbkwVAAw000EADDTTQQAMNNNCMQ/M2kgJwwAEHHHDAAQcccMABB5z+56E7uw26s0l3th9Dd3YaQHd2eqHu7ONg8p0JQTtX0N4VdHAFHV1BJ1fQ2RV0cQV9+rm9kmTrdtjKHbZ2h63eYet32AoetoaHreJh63izdbz57m9bx5ut421Zx5do0O6zFA9af07+KSkmtP6c/BZQXGj9OfkNoNjQ+nPy0y/50IQgV6OL9SYp0YQgV6mL3SZZ0YQgV6+LxSaJ0YSb0dXsYqtJbjQhyNXsYqUperT7HMmPJgTlH5FkSBOC8sMvOdKEoPzwS5Y0ISg//JonTUmydbvYbJoqTUmy1btYbpotTUmyNbzYb5owTbkrbR0vVpzmTFOSbB0vthzaNLRpaNMeCNGmXQdtGto0tGnFoE1Dm7boXaFNmz1/wevRpt0P2rRpVviW1sbsAuCAAw444IADDjjggAMOOMPjbEw6AA000EADDTTQQAMNNNBAMw7N28gOwAEHHHDAAQcccMABBxxw+p+HNu02aNMmbdphDG3aeQBt2vll2rTjtx+F9ipuXEE7V9DeFXRwBR1dQSdX0NkVdHEFzX59ryXZuh22coet3WGrd9j6HbaCh63hYat42DrebB1vvvvb1vFm63hb1vHntWnzrH5tmpKTf0r92jQlJ78F+rVpSk5+A/Rr05Sc/PQL2jQpyNXoYr0J2jQpyFXqYrcJ2jQpyNXrYrEJ2jTpZnQ1u9hqgjZNCnI1u1hp/dq0eY6gTZOC8o9I0KZJQfnhF7RpUlB++AVtmhSUH35Fm6Yl2bpdbDZFm6Yl2epdLDdFm6Yl2Rpe7DdFm6bdlbaOFytO0aZpSbaOF1sObRraNLRpD4Ro066DNg1tGtq0YtCmoU1b9K7Qps2ev+D1aNPuB23aNCt8S2tjdgFwwAEHHHDAAQcccMABB5zhcTYmHYAGGmiggQYaaKCBBhpooBmH5m1kB+CAAw444IADDjjggAMOOP3PQ5t2G7RpkzbtOIY27TKANu3yMm3ax5dmsaYpOTtTzt6UczDlHE05J1PO2ZRzMeXMfnQvBbkaHa5Kh6vT4Sp1uFodrlqHq9fhKna4mt1czW62u9rV7OZqdlvU7Of1aLOofjuaEJN+Qv1uNCEmPff9ZjQhJj3z/V40ISY974IVTckx9ThfY4ISTckxVTnfYYIPTckxtTlfYIIMTbkHTX3Ot5dgQlNyTH3OV1e/Bm0WI1jQlJz04xEcaEpOetwFA5qSkx53wX+m5KTHXbGfSUGuRucbTFGfSUGuUudLTPGeSUGuXud7TJGeSTejq9n5KlOMZ1KQq9n5NkN3hu4M3dkDIbqz66A7Q3eG7qwYdGfozha9K3Rns+cveD26s/tBdzbNCt+u2pgVABxwwAEHHHDAAQcccMABZ3icjckCoIEGGmiggQYaaKCBBhpoxqF5G0kBOOCAAw444IADDjjggANO//PQnd0G3dmkOzsNoTs7f2xfd/ZXxtfpzj4OJt+ZELRzBe1dQQdX0NEVdHIFnV1BF1fQp5/bK0m2boet3GFrd9jqHbZ+h63gYWt42Coeto43W8eb7/62dbzZOt6WdXyJBu0+S/Gg9efkn5JiQuvPyW8BxYXWn5PfAIoNrT8nP/2SD00IcjW6WG+SEk0IcpW62G2SFU0IcvW6WGySGE24GV3NLraa5EYTglzNLlaaoke7z5H8aEJQ/hFJhjQhKD/8kiNNCMoPv2RJE4Lyw6950pQkW7eLzaap0pQkW72L5abZ0pQkW8OL/aYJ05S70tbxYsVpzjQlydbxYsuhTUObhjbtgRBt2nXQpqFNQ5tWDNo0tGmL3hXatNnzF7webdr9oE2bZoVvaW3MLgAOOOCAAw444IADDjjggDM8zsakA9BAAw000EADDTTQQAMNNOPQvI3sABxwwAEHHHDAAQcccMABp/95aNNugzZt0qadx9CmxQDatHiZNu347UehvYobV9DOFbR3BR1cQUdX0MkVdHYFXVxBs1/fa0m2boet3GFrd9jqHbZ+h63gYWt42Coeto43W8eb7/62dbzZOt6Wdfx5bdo8q1+bpuTkn1K/Nk3JyW+Bfm2akpPfAP3aNCUnP/2CNk0KcjW6WG+CNk0KcpW62G2CNk0KcvW6WGyCNk26GV3NLraaoE2TglzNLlZavzZtniNo06Sg/CMStGlSUH74BW2aFJQffkGbJgXlh1/RpmlJtm4Xm03RpmlJtnoXy03RpmlJtoYX+03Rpml3pa3jxYpTtGlakq3jxZZDm4Y2DW3aAyHatOugTUObhjatGLRpaNMWvSu0abPnL3g92rT7QZs2zQrf0tqYXQAccMABBxxwwAEHHHDAAWd4nI1JB6CBBhpooIEGGmiggQYaaMaheRvZATjggAMOOOCAAw444IADTv/z0KbdBm3apE27jKFNawNo09rLtGkfX5rFmqbk7Ew5e1POwZRzNOWcTDlnU87FlDP70b0U5Gp0uCodrk6Hq9ThanW4ah2uXoer2OFqdnM1u9nualezm6vZbVGzn9ejzaL67WhCTPoJ9bvRhJj03Peb0YSY9Mz3e9GEmPS8C1Y0JcfU43yNCUo0JcdU5XyHCT40JcfU5nyBCTI05R409TnfXoIJTckx9TlfXf0atFmMYEFTctKPR3CgKTnpcRcMaEpOetwF/5mSkx53xX4mBbkanW8wRX0mBblKnS8xxXsmBbl6ne8xRXom3YyuZuerTDGeSUGuZufbDN0ZujN0Zw+E6M6ug+4M3Rm6s2LQnaE7W/Su0J3Nnr/g9ejO7gfd2TQrfLtqY1YAcMABBxxwwAEHHHDAAQec4XE2JguABhpooIEGGmiggQYaaKAZh+ZtJAXggAMOOOCAAw444IADDjj9z0N3dht0Z991Z8cxbGe7AWxnO2xn2M5+/CN7bGfYzrCdYTt7JgjbGbYzbGfYzrCdYTvDdobtbNHiwnaG7eypIGxnPw7CdvbjIGxnPw7CdpbBYDvDdvZ5sJ19x8d29nmwnT0z2M6WvR7bGbazRe8K29ns+Qtej+3sfrCdTbPCl6s2JgUABxxwwAEHHHDAAQcccMAZHmdjrgBooIEGGmiggQYaaKCBBppxaN7GUQAOOOCAAw444IADDjjggNP/PGxnt8F2NtnOPsbQne0H0J3tX6g7+ziYfGdC0M4VtHcFHVxBR1fQyRV0dgVdXEGffm6vJNm6HbZyh63dYat32PodtoKHreFhq3jYOt5sHW+++9vW8WbreFvW8SUatPssxYPWn5N/SooJrT8nvwUUF1p/Tn4DKDa0/pz89Es+NCHI1ehivUlKNCHIVepit0lWNCHI1etisUliNOFmdDW72GqSG00IcjW7WGmKHu0+R/KjCUH5RyQZ0oSg/PBLjjQhKD/8kiVNCMoPv+ZJU5Js3S42m6ZKU5Js9S6Wm2ZLU5JsDS/2myZMU+5KW8eLFac505QkW8eLLYc2DW0a2rQHQrRp10GbhjYNbVoxaNPQpi16V2jTZs9f8Hq0afeDNm2aFb6ltTG7ADjggAMOOOCAAw444IADzvA4G5MOQAMNNNBAAw000EADDTTQjEPzNrIDcMABBxxwwAEHHHDAAQec/uehTbsN2rRJmxZjaNMOA2jTDi/Tph2//Si0V3HjCtq5gvauoIMr6OgKOrmCzq6giyto9ut7LcnW7bCVO2ztDlu9w9bvsBU8bA0PW8XD1vFm63jz3d+2jjdbx9uyjj+vTZtn9WvTlJz8U+rXpik5+S3Qr01TcvIboF+bpuTkp1/QpklBrkYX603QpklBrlIXu03QpklBrl4Xi03Qpkk3o6vZxVYTtGlSkKvZxUrr16bNcwRtmhSUf0SCNk0Kyg+/oE2TgvLDL2jTpKD88CvaNC3J1u1isynaNC3JVu9iuSnaNC3J1vBivynaNO2utHW8WHGKNk1LsnW82HJo09CmoU17IESbdh20aWjT0KYVgzYNbdqid4U2bfb8Ba9Hm3Y/aNOmWeFbWhuzC4ADDjjggAMOOOCAAw444AyPszHpADTQQAMNNNBAAw000EADzTg0byM7AAcccMABBxxwwAEHHHDA6X8e2rTboE2btGltDG3acQBt2vFl2rSPL81iTVNydqacvSnnYMo5mnJOppyzKediypn96F4KcjU6XJUOV6fDVepwtTpctQ5Xr8NV7HA1u7ma3Wx3tavZzdXstqjZz+vRZlH9djQhJv2E+t1oQkx67vvNaEJMeub7vWhCTHreBSuakmPqcb7GBCWakmOqcr7DBB+akmNqc77ABBmacg+a+pxvL8GEpuSY+pyvrn4N2ixGsKApOenHIzjQlJz0uAsGNCUnPe6C/0zJSY+7Yj+TglyNzjeYoj6TglylzpeY4j2Tgly9zveYIj2TbkZXs/NVphjPpCBXs/Nthu4M3Rm6swdCdGfXQXeG7gzdWTHoztCdLXpX6M5mz1/wenRn94PubJoVvl21MSsAOOCAAw444IADDjjggAPO8DgbkwVAAw000EADDTTQQAMNNNCMQ/M2kgJwwAEHHHDAAQcccMABB5z+56E7uw26s0l3thtDd3YaQHd2eqHu7ONg8p0JQTtX0N4VdHAFHV1BJ1fQ2RV0cQV9+rm9kmTrdtjKHbZ2h63eYet32AoetoaHreJh63izdbz57m9bx5ut421Zx5do0O6zFA9af07+KSkmtP6c/BZQXGj9OfkNoNjQ+nPy0y/50IQgV6OL9SYp0YQgV6mL3SZZ0YQgV6+LxSaJ0YSb0dXsYqtJbjQhyNXsYqUperT7HMmPJgTlH5FkSBOC8sMvOdKEoPzwS5Y0ISg//JonTUmydbvYbJoqTUmy1btYbpotTUmyNbzYb5owTbkrbR0vVpzmTFOSbB0vthzaNLRpaNMeCNGmXQdtGto0tGnFoE1Dm7boXaFNmz1/wevRpt0P2rRpVviW1sbsAuCAAw444IADDjjggAMOOMPjbEw6AA000EADDTTQQAMNNNBAMw7N28gOwAEHHHDAAQcccMABBxxw+p+HNu02aNMmbdp+DG3aeQBt2vll2rTjtx+F9ipuXEE7V9DeFXRwBR1dQSdX0NkVdHEFzX59ryXZuh22coet3WGrd9j6HbaCh63hYat42DrebB1vvvvb1vFm63hb1vHntWnzrH5tmpKTf0r92jQlJ78F+rVpSk5+A/Rr05Sc/PQL2jQpyNXoYr0J2jQpyFXqYrcJ2jQpyNXrYrEJ2jTpZnQ1u9hqgjZNCnI1u1hp/dq0eY6gTZOC8o9I0KZJQfnhF7RpUlB++AVtmhSUH35Fm6Yl2bpdbDZFm6Yl2epdLDdFm6Yl2Rpe7DdFm6bdlbaOFytO0aZpSbaOF1sObRraNLRpD4Ro066DNg1tGtq0YtCmoU1b9K7Qps2ev+D1aNPuB23aNCt8S2tjdgFwwAEHHHDAAQcccMABB5zhcTYmHYAGGmiggQYaaKCBBhpooBmH5m1kB+CAAw444IADDjjggAMOOP3PQ5t2G7RpkzbtMIY27TKANu3yMm3ax5dmsaYpOTtTzt6UczDlHE05J1PO2ZRzMeXMfnQvBbkaHa5Kh6vT4Sp1uFodrlqHq9fhKna4mt1czW62u9rV7OZqdlvU7Of1aLOofjuaEJN+Qv1uNCEmPff9ZjQhJj3z/V40ISY974IVTckx9ThfY4ISTckxVTnfYYIPTckxtTlfYIIMTbkHTX3Ot5dgQlNyTH3OV1e/Bm0WI1jQlJz04xEcaEpOetwFA5qSkx53wX+m5KTHXbGfSUGuRucbTFGfSUGuUudLTPGeSUGuXud7TJGeSTejq9n5KlOMZ1KQq9n5NkN3hu4M3dkDIbqz66A7Q3eG7qwYdGfozha9K3Rns+cveD26s/tBdzbNCt+u2pgVABxwwAEHHHDAAQcccMABZ3icjckCoIEGGmiggQYaaKCBBhpoxqF5G0kBOOCAAw444IADDjjggANO//PQnd0G3dmkOzsOoTu7fGxfd/ZXxtfpzj4OJt+ZELRzBe1dQQdX0NEVdHIFnV1BF1fQp5/bK0m2boet3GFrd9jqHbZ+h63gYWt42Coeto43W8eb7/62dbzZOt6WdXyJBu0+S/Gg9efkn5JiQuvPyW8BxYXWn5PfAIoNrT8nP/2SD00IcjW6WG+SEk0IcpW62G2SFU0IcvW6WGySGE24GV3NLraa5EYTglzNLlaaoke7z5H8aEJQ/hFJhjQhKD/8kiNNCMoPv2RJE4Lyw6950pQkW7eLzaap0pQkW72L5abZ0pQkW8OL/aYJ05S70tbxYsVpzjQlydbxYsuhTUObhjbtgRBt2nXQpqFNQ5tWDNo0tGmL3hXatNnzF7webdr9oE2bZoVvaW3MLgAOOOCAAw444IADDjjggDM8zsakA9BAAw000EADDTTQQAMNNOPQvI3sABxwwAEHHHDAAQcccMABp/95aNNugzZt0qadxtCmxQDatHiZNu347UehvYobV9DOFbR3BR1cQUdX0MkVdHYFXVxBs1/fa0m2boet3GFrd9jqHbZ+h63gYWt42Coeto43W8eb7/62dbzZOt6Wdfx5bdo8q1+bpuTkn1K/Nk3JyW+Bfm2akpPfAP3aNCUnP/2CNk0KcjW6WG+CNk0KcpW62G2CNk0KcvW6WGyCNk26GV3NLraaoE2TglzNLlZavzZtniNo06Sg/CMStGlSUH74BW2aFJQffkGbJgXlh1/RpmlJtm4Xm03RpmlJtnoXy03RpmlJtoYX+03Rpml3pa3jxYpTtGlakq3jxZZDm4Y2DW3aAyHatOugTUObhjatGLRpaNMWvSu0abPnL3g92rT7QZs2zQrf0tqYXQAccMABBxxwwAEHHHDAAWd4nI1JB6CBBhpooIEGGmiggQYaaMaheRvZATjggAMOOOCAAw444IADTv/z0KbdBm3apE07j6FNawNo09rLtGkfX5rFmqbk7Ew5e1POwZRzNOWcTDlnU87FlDP70b0U5Gp0uCodrk6Hq9ThanW4ah2uXoer2OFqdnM1u9nualezm6vZbVGzn9ejzaL67WhCTPoJ9bvRhJj03Peb0YSY9Mz3e9GEmPS8C1Y0JcfU43yNCUo0JcdU5XyHCT40JcfU5nyBCTI05R409TnfXoIJTckx9TlfXf0atFmMYEFTctKPR3CgKTnpcRcMaEpOetwF/5mSkx53xX4mBbkanW8wRX0mBblKnS8xxXsmBbl6ne8xRXom3YyuZuerTDGeSUGuZufbDN0ZujN0Zw+E6M6ug+4M3Rm6s2LQnaE7W/Su0J3Nnr/g9ejO7gfd2TQrfLtqY1YAcMABBxxwwAEHHHDAAQec4XE2JguABhpooIEGGmiggQYaaKAZh+ZtJAXggAMOOOCAAw444IADDjj9z0N3dht0Z5Pu7DKG7mw3gO5s90Ld2cfB5DsTgnauoL0r6OAKOrqCTq6gsyvo4gr69HN7JcnW7bCVO2ztDlu9w9bvsBU8bA0PW8XD1vFm63jz3d+2jjdbx9uyji/RoN1nKR60/pz8U1JMaP05+S2guND6c/IbQLGh9efkp1/yoQlBrkYX601SoglBrlIXu02yoglBrl4Xi00Sowk3o6vZxVaT3GhCkKvZxUpT9Gj3OZIfTQjKPyLJkCYE5YdfcqQJQfnhlyxpQlB++DVPmpJk63ax2TRVmpJkq3ex3DRbmpJka3ix3zRhmnJX2jperDjNmaYk2TpebDm0aWjT0KY9EKJNuw7aNLRpaNOKQZuGNm3Ru0KbNnv+gtejTbsftGnTrPAtrY3ZBcABBxxwwAEHHHDAAQcccIbH2Zh0ABpooIEGGmiggQYaaKCBZhyat5EdgAMOOOCAAw444IADDjjg9D8Pbdpt0KZ916adxrCm7Qewpu2xpvUFYU37cRDWtKeSsKZhTcOahjUNaxrWNKxpWNOwpv3qzYg17cdBWNN+GIQ1DWsa1jSsaVjTnkrCmlYN1rRfn2f+92msaXU01rTv+FjTPg/WtGcGa9qy12NNw5q26F1hTZs9f8HrsabdD9a0aVb4ktbG5ALggAMOOOCAAw444IADDjjD42zMOQANNNBAAw000EADDTTQQDMOzdu4DsABBxxwwAEHHHDAAQcccPqfhzXtNljTJmvaxxjatMMA2rTDy7Rpx28/Cu1V3LiCdq6gvSvo4Ao6uoJOrqCzK+jiCpr9+l5LsnU7bOUOW7vDVu+w9TtsBQ9bw8NW8bB1vNk63nz3t63jzdbxtqzjz2vT5ln92jQlJ/+U+rVpSk5+C/Rr05Sc/Abo16YpOfnpF7RpUpCr0cV6E7RpUpCr1MVuE7RpUpCr18ViE7Rp0s3oanax1QRtmhTkanax0vq1afMcQZsmBeUfkaBNk4Lywy9o06Sg/PAL2jQpKD/8ijZNS7J1u9hsijZNS7LVu1huijZNS7I1vNhvijZNuyttHS9WnKJN05JsHS+2HNo0tGlo0x4I0aZdB20a2jS0acWgTUObtuhdoU2bPX/B69Gm3Q/atGlW+JbWxuwC4IADDjjggAMOOOCAAw44w+NsTDoADTTQQAMNNNBAAw000EAzDs3byA7AAQcccMABBxxwwAEHHHD6n4c27TZo0yZtWoyhTTsOoE07vkyb9vGlWaxpSs7OlLM35RxMOUdTzsmUczblXEw5sx/dS0GuRoer0uHqdLhKHa5Wh6vW4ep1uIodrmY3V7Ob7a52Nbu5mt0WNft5Pdosqt+OJsSkn1C/G02ISc99vxlNiEnPfL8XTYhJz7tgRVNyTD3O15igRFNyTFXOd5jgQ1NyTG3OF5ggQ1PuQVOf8+0lmNCUHFOf89XVr0GbxQgWNCUn/XgEB5qSkx53wYCm5KTHXfCfKTnpcVfsZ1KQq9H5BlPUZ1KQq9T5ElO8Z1KQq9f5HlOkZ9LN6Gp2vsoU45kU5Gp2vs3QnaE7Q3f2QIju7DroztCdoTsrBt0ZurNF7wrd2ez5C16P7ux+0J1Ns8K3qzZmBQAHHHDAAQcccMABBxxwwBkeZ2OyAGiggQYaaKCBBhpooIEGmnFo3kZSAA444IADDjjggAMOOOCA0/88dGe3QXc26c7aGLqz0wC6s9MLdWcfB5PvTAjauYL2rqCDK+joCjq5gs6uoIsr6NPP7ZUkW7fDVu6wtTts9Q5bv8NW8LA1PGwVD1vHm63jzXd/2zrebB1vyzq+RIN2n6V40Ppz8k9JMaH15+S3gOJC68/JbwDFhtafk59+yYcmBLkaXaw3SYkmBLlKXew2yYomBLl6XSw2SYwm3IyuZhdbTXKjCUGuZhcrTdGj3edIfjQhKP+IJEOaEJQffsmRJgTlh1+ypAlB+eHXPGlKkq3bxWbTVGlKkq3exXLTbGlKkq3hxX7ThGnKXWnreLHiNGeakmTreLHl0KahTUOb9kCINu06aNPQpqFNKwZtGtq0Re8Kbdrs+QtejzbtftCmTbPCt7Q2ZhcABxxwwAEHHHDAAQcccMAZHmdj0gFooIEGGmiggQYaaKCBBppxaN5GdgAOOOCAAw444IADDjjggNP/PLRpt0GbNmnTdmNo084DaNPOL9OmHb/9KLRXceMK2rmC9q6ggyvo6Ao6uYLOrqCLK2j263stydbtsJU7bO0OW73D1u+wFTxsDQ9bxcPW8WbrePPd37aON1vH27KOP69Nm2f1a9OUnPxT6temKTn5LdCvTVNy8hugX5um5OSnX9CmSUGuRhfrTdCmSUGuUhe7TdCmSUGuXheLTdCmSTejq9nFVhO0aVKQq9nFSuvXps1zBG2aFJR/RII2TQrKD7+gTZOC8sMvaNOkoPzwK9o0LcnW7WKzKdo0LclW72K5Kdo0LcnW8GK/Kdo07a60dbxYcYo2TUuydbzYcmjT0KahTXsgRJt2HbRpaNPQphWDNg1t2qJ3hTZt9vwFr0ebdj9o06ZZ4VtaG7MLgAMOOOCAAw444IADDjjgDI+zMekANNBAAw000EADDTTQQAPNODRvIzsABxxwwAEHHHDAAQcccMDpfx7atNugTZu0afsxtGmXAbRpF7RpfUFo034chDbtqSS0aWjT0KahTUObhjYNbRraNLRpv3ozok37cRDatB8GoU1Dm4Y2DW2aLQlt2nNJaNNyGLRpaNM+D9q07/ho0z4P2rRnBm3astejTUObtuhdoU2bPX/B69Gm3Q/atGlW+JbWxuwC4IADDjjggAMOOOCAAw44w+NsTDoADTTQQAMNNNBAAw000EAzDs3byA7AAQcccMABBxxwwAEHHHD6n4c27TZo075r085DWNPi42P72rQr5Ku8aR9fmkWbpuTsTDl7U87BlHM05ZxMOWdTzsWUM/vVvRTkanS4Kh2uToer1OFqdbhqHa5eh6vY4Wp2czW72e5qV7Obq9ltUbOf96PNovr1aEJM+gn1y9GEmPTc96vRhJj0zPeL0YSY9LwLWjQlx9TjfI0JTjQlx1TlfIcJQjQlx9TmfIEJNjTlHjT1Od9eggpNyTH1OV9d/R60WYygQVNy0o9HkKApOelxFxRoSk563AUBmpKTHndFfyYFuRqdbzDFfSYFuUqdLzFFfCYFuXqd7zHFeibdjK5m56tMUZ5JQa5m59sM3xm+M3xnD4T4zq6D7wzfGb6zYvCd4Ttb9K7wnc2ev+D1+M7uB9/ZNCt8vWpjWgBwwAEHHHDAAQcccMABB5zhcTZmC4AGGmiggQYaaKCBBhpooBmH5m0sBeCAAw444IADDjjggAMOOP3Pw3d2G3xn331nl0F8ZzGC7yxe5juL/ceXj7uJvUV/ZozdrRO7Xyf2sE7scZ3Y0zqx53ViL+vEzn7t78xd6ZzFSgctVjppsdJRi5XOWqx02GKl0xYrHbdY6by1lc5bW2uvrXTe2krnrSnn7XmvXJXcr5nzpT776fZL6Hypz95k/Yo6X+qzt1i/wM6X+uwNJujtjLHrnK6n/1wQXHjG2HUO2NN/KwjiPGPsOmfs6T8UBMuecSusc8qe/itBUPIZY9c5ZU//idDv76tSBZ2fMfbZj1aQ/Rljn73ABBWgMfbZC0wQBRpjn73AFI2gM3elc/b0XwqKc9CZu9JRe/qPBUVQ6Mxd6bQ9/feCYjN07omVztvTfzIo6kNn7krn7em/GvAk4knEk/hAiCfxOngS8STiSSwGTyKexEXvCk/i7PkLXo8n8X7wJE6zwtcyN6YTAQcccMABBxxwwAEHHHDAGR5nY5YRaKCBBhpooIEGGmiggQaacWjexm4CDjjggAMOOOCAAw444IDT/7z/AE/i//n6h3/9+stv//xvv3z9zX/+u/+CNnFb2sSvv/z7T7/7+pv/+9tr8/7h55//9TfX/4ddv+e8//i7QRSKbQSFYnuZQvF4+XK5m/PFYlD0pe5WSd2vknpYJfW4SuppldTzKqmXVVJnggNj7DqnK9Y5XrHO+Yp1Dlisc8JinSMW65yxWOeQxTqnrK1zytpKO2ydU9bWOWVNOGXPqxKL4H5Toi30yU+235NoC33y7uq3JNpCn7y3+h2JttAn7yzBkOhLXeVMPftngaBH9KWucqye/ZtAcCP6Ulc5Wc/+QSCIEX07YJWz9exfA4IV0Ze6ytl69k+BfiViESoYEX2pT36sgg/Rl/rklSXYEH2pT15ZggvRl/rklaWYEI2x65yuZ/8iUDSIxth1DtizfxQoDkRj7Dpn7Nm/CxQBonErrHPKnv3TQLEfGmPXOWXP/nWA+hD1IerDB0LUh9dBfYj6EPVhMagPUR8ueleoD2fPX/B61If3g/pwmhW+abkxQwg44IADDjjggAMOOOCAA87wOBsTh0ADDTTQQAMNNNBAAw000IxD8zbCEnDAAQcccMABBxxwwAEHnP7noT789Xlb9eHflId///Xbf/z3P/zjT1//+Oe/yQ//9+/++evv/+2vn/9//c1pGAnibgQJ4u5lEsRvPz3tlTCZcnamnL0p52DKOZpyTqacsynnYsqZ2QWkIFejw1XpcHU6XKUOV6vDVetw9TpcxQ5Xs5ur2c12V7ua3VzNboua/by0bxbVr+kTYtJPqF/FJ8Sk575ftyfEpGe+X6knxKTnXdDmKTmmHudrTJDhKTmmKuc7TFDcKTmmNucLTBDXKfegqc/59hJ0dEqOqc/56uqXzM1iBK2ckpN+PII6TslJj7ugh1Ny0uMuKOCUnPS4K5o3KcjV6HyDKfI2KchV6nyJKUo2KcjV63yPKaI16WZ0NTtfZYo+TQpyNTvfZkjRhpCi8c/8M//MP/PP/DP/zD/zz/wz/8w/88/8M//MP/PPW/rnv3z5+d+//vLLT7//+r9+e/0fquLLB1L8u3eCFH8apPiLBik+UvwFgxT/8yDF/zxI8RcOUnyk+L86SPHBAQcccMABBxxwwAEHHHDAGUEpCQ000EADDTTQQAMNNNBAMw7N26gswQEHHHDAAQcccMABBxxw+p/3HyDF/x8//eHrH//0089//Jevf/oTSvxtKfF//uX//eZ//tM//fS7n77+8Xd/mUT4r1Xg31796V/u/+/v//1v/zml3/7L9B//+PPv/3L9z3/+8x/+5b/9p/8P0ICbrQ=="
               },
               {
                  "name" : "annual_peak_electric_demand",
                  "units" : "kW",
                  "value" : 96.196929999999995
               },
               {
                  "name" : "first_year_capital_cost",
                  "units" : "$",
                  "value" : 0
               },
               {
                  "name" : "annual_utility_cost",
                  "units" : "$",
                  "value" : 42805.220000000001
               },
               {
                  "name" : "total_lifecycle_cost",
                  "units" : "$",
                  "value" : 716662.60999999999
               }
            ],
            "step_warnings" : [ "A table in Annual Overview section returned false and was skipped." ]
         }
      }
   ],
   "updated_at" : "20170710T183142Z",
   "weather_file" : "USA_CO_Denver.Intl.AP.725650_TMY3.epw"
}
