{
   "completed_at" : "20170710T183113Z",
   "completed_status" : "Success",
   "created_at" : "2017-07-10 18:24:16 +0000",
   "current_step" : 5,
   "description" : "",
   "eplusout_err" : "Program Version,EnergyPlus, Version 8.7.0-78a111df4a, YMD=2017.07.10 18:26,IDD_Version 8.7.0\n   ************* IDF Context for following error/warning message:\n   ************* Note -- lines truncated at 300 characters, if necessary...\n   *************      5 Building,\n   ************* indicated Name=NECB 2011-LargeHotel-NECB HDD Method-CAN_NB_Fredericton.717000_CWEC.epw created: 2017-07-10 18:24:30 +0000\n   ************* Only last 1 lines before error line shown.....\n   *************      6   NECB 2011-LargeHotel-NECB HDD Method-CAN_NB_Fredericton.717000_CWEC.epw created: 2017-07-10 18:24:30 +0000, !- Name\n   ** Warning ** IP: IDF line~6 Alpha Argument length exceeds maximum, will be truncated=  NECB 2011-LargeHotel-NECB HDD Method-CAN_NB_Fredericton.717000_CWEC.epw created: 2017-07-10 18:24:30 +000\n   **   ~~~   ** Will be processed as Alpha=NECB 2011-LARGEHOTEL-NECB HDD METHOD-CAN_NB_FREDERICTON.717000_CWEC.EPW CREATED: 2017-07-10 18:24:30 +0000\n   ************* Beginning Zone Sizing Calculations\n   ** Warning ** ProcessScheduleInput: Schedule:Day:Interval=\"ECONOMIZER MAX OA FRACTION 100 PCT DEFAULT\", Blank Schedule Type Limits Name input -- will not be validated.\n   ** Warning ** ProcessScheduleInput: Schedule:Day:Interval=\"SCHEDULE DAY 1\", Blank Schedule Type Limits Name input -- will not be validated.\n   ** Warning ** ProcessScheduleInput: Schedule:Day:Interval=\"SCHEDULE DAY 10\", Blank Schedule Type Limits Name input -- will not be validated.\n   ** Warning ** ProcessScheduleInput: Schedule:Day:Interval=\"SCHEDULE DAY 11\", Blank Schedule Type Limits Name input -- will not be validated.\n   ** Warning ** ProcessScheduleInput: Schedule:Day:Interval=\"SCHEDULE DAY 12\", Blank Schedule Type Limits Name input -- will not be validated.\n   ** Warning ** ProcessScheduleInput: Schedule:Day:Interval=\"SCHEDULE DAY 13\", Blank Schedule Type Limits Name input -- will not be validated.\n   ** Warning ** ProcessScheduleInput: Schedule:Day:Interval=\"SCHEDULE DAY 14\", Blank Schedule Type Limits Name input -- will not be validated.\n   ** Warning ** ProcessScheduleInput: Schedule:Day:Interval=\"SCHEDULE DAY 15\", Blank Schedule Type Limits Name input -- will not be validated.\n   ** Warning ** ProcessScheduleInput: Schedule:Day:Interval=\"SCHEDULE DAY 16\", Blank Schedule Type Limits Name input -- will not be validated.\n   ** Warning ** ProcessScheduleInput: Schedule:Day:Interval=\"SCHEDULE DAY 17\", Blank Schedule Type Limits Name input -- will not be validated.\n   ** Warning ** ProcessScheduleInput: Schedule:Day:Interval=\"SCHEDULE DAY 18\", Blank Schedule Type Limits Name input -- will not be validated.\n   ** Warning ** ProcessScheduleInput: Schedule:Day:Interval=\"SCHEDULE DAY 19\", Blank Schedule Type Limits Name input -- will not be validated.\n   ** Warning ** ProcessScheduleInput: Schedule:Day:Interval=\"SCHEDULE DAY 2\", Blank Schedule Type Limits Name input -- will not be validated.\n   ** Warning ** ProcessScheduleInput: Schedule:Day:Interval=\"SCHEDULE DAY 20\", Blank Schedule Type Limits Name input -- will not be validated.\n   ** Warning ** ProcessScheduleInput: Schedule:Day:Interval=\"SCHEDULE DAY 21\", Blank Schedule Type Limits Name input -- will not be validated.\n   ** Warning ** ProcessScheduleInput: Schedule:Day:Interval=\"SCHEDULE DAY 22\", Blank Schedule Type Limits Name input -- will not be validated.\n   ** Warning ** ProcessScheduleInput: Schedule:Day:Interval=\"SCHEDULE DAY 23\", Blank Schedule Type Limits Name input -- will not be validated.\n   ** Warning ** ProcessScheduleInput: Schedule:Day:Interval=\"SCHEDULE DAY 24\", Blank Schedule Type Limits Name input -- will not be validated.\n   ** Warning ** ProcessScheduleInput: Schedule:Day:Interval=\"SCHEDULE DAY 25\", Blank Schedule Type Limits Name input -- will not be validated.\n   ** Warning ** ProcessScheduleInput: Schedule:Day:Interval=\"SCHEDULE DAY 26\", Blank Schedule Type Limits Name input -- will not be validated.\n   ** Warning ** ProcessScheduleInput: Schedule:Day:Interval=\"SCHEDULE DAY 27\", Blank Schedule Type Limits Name input -- will not be validated.\n   ** Warning ** ProcessScheduleInput: Schedule:Day:Interval=\"SCHEDULE DAY 28\", Blank Schedule Type Limits Name input -- will not be validated.\n   ** Warning ** ProcessScheduleInput: Schedule:Day:Interval=\"SCHEDULE DAY 29\", Blank Schedule Type Limits Name input -- will not be validated.\n   ** Warning ** ProcessScheduleInput: Schedule:Day:Interval=\"SCHEDULE DAY 30\", Blank Schedule Type Limits Name input -- will not be validated.\n   ** Warning ** ProcessScheduleInput: Schedule:Day:Interval=\"SCHEDULE DAY 31\", Blank Schedule Type Limits Name input -- will not be validated.\n   ** Warning ** ProcessScheduleInput: Schedule:Day:Interval=\"SCHEDULE DAY 32\", Blank Schedule Type Limits Name input -- will not be validated.\n   ** Warning ** ProcessScheduleInput: Schedule:Day:Interval=\"SCHEDULE DAY 33\", Blank Schedule Type Limits Name input -- will not be validated.\n   ** Warning ** ProcessScheduleInput: Schedule:Day:Interval=\"SCHEDULE DAY 34\", Blank Schedule Type Limits Name input -- will not be validated.\n   ** Warning ** ProcessScheduleInput: Schedule:Day:Interval=\"SCHEDULE DAY 35\", Blank Schedule Type Limits Name input -- will not be validated.\n   ** Warning ** ProcessScheduleInput: Schedule:Day:Interval=\"SCHEDULE DAY 36\", Blank Schedule Type Limits Name input -- will not be validated.\n   ** Warning ** ProcessScheduleInput: Schedule:Day:Interval=\"SCHEDULE DAY 37\", Blank Schedule Type Limits Name input -- will not be validated.\n   ** Warning ** ProcessScheduleInput: Schedule:Day:Interval=\"SCHEDULE DAY 38\", Blank Schedule Type Limits Name input -- will not be validated.\n   ** Warning ** ProcessScheduleInput: Schedule:Day:Interval=\"SCHEDULE DAY 39\", Blank Schedule Type Limits Name input -- will not be validated.\n   ** Warning ** ProcessScheduleInput: Schedule:Day:Interval=\"SCHEDULE DAY 40\", Blank Schedule Type Limits Name input -- will not be validated.\n   ** Warning ** ProcessScheduleInput: Schedule:Day:Interval=\"SCHEDULE DAY 41\", Blank Schedule Type Limits Name input -- will not be validated.\n   ** Warning ** ProcessScheduleInput: Schedule:Day:Interval=\"SCHEDULE DAY 42\", Blank Schedule Type Limits Name input -- will not be validated.\n   ** Warning ** ProcessScheduleInput: Schedule:Day:Interval=\"SCHEDULE DAY 43\", Blank Schedule Type Limits Name input -- will not be validated.\n   ** Warning ** ProcessScheduleInput: Schedule:Day:Interval=\"SCHEDULE DAY 44\", Blank Schedule Type Limits Name input -- will not be validated.\n   ** Warning ** ProcessScheduleInput: Schedule:Day:Interval=\"SCHEDULE DAY 45\", Blank Schedule Type Limits Name input -- will not be validated.\n   ** Warning ** ProcessScheduleInput: Schedule:Day:Interval=\"SCHEDULE DAY 46\", Blank Schedule Type Limits Name input -- will not be validated.\n   ** Warning ** ProcessScheduleInput: Schedule:Day:Interval=\"SCHEDULE DAY 47\", Blank Schedule Type Limits Name input -- will not be validated.\n   ** Warning ** ProcessScheduleInput: Schedule:Day:Interval=\"SCHEDULE DAY 48\", Blank Schedule Type Limits Name input -- will not be validated.\n   ** Warning ** ProcessScheduleInput: Schedule:Day:Interval=\"SCHEDULE DAY 49\", Blank Schedule Type Limits Name input -- will not be validated.\n   ** Warning ** ProcessScheduleInput: Schedule:Day:Interval=\"SCHEDULE DAY 50\", Blank Schedule Type Limits Name input -- will not be validated.\n   ** Warning ** ProcessScheduleInput: Schedule:Day:Interval=\"SCHEDULE DAY 51\", Blank Schedule Type Limits Name input -- will not be validated.\n   ** Warning ** ProcessScheduleInput: Schedule:Day:Interval=\"SCHEDULE DAY 52\", Blank Schedule Type Limits Name input -- will not be validated.\n   ** Warning ** ProcessScheduleInput: Schedule:Day:Interval=\"SCHEDULE DAY 53\", Blank Schedule Type Limits Name input -- will not be validated.\n   ** Warning ** ProcessScheduleInput: Schedule:Day:Interval=\"SCHEDULE DAY 54\", Blank Schedule Type Limits Name input -- will not be validated.\n   ** Warning ** ProcessScheduleInput: Schedule:Day:Interval=\"SCHEDULE DAY 55\", Blank Schedule Type Limits Name input -- will not be validated.\n   ** Warning ** ProcessScheduleInput: Schedule:Day:Interval=\"SCHEDULE DAY 56\", Blank Schedule Type Limits Name input -- will not be validated.\n   ** Warning ** ProcessScheduleInput: Schedule:Day:Interval=\"SCHEDULE DAY 57\", Blank Schedule Type Limits Name input -- will not be validated.\n   ** Warning ** ProcessScheduleInput: Schedule:Day:Interval=\"SCHEDULE DAY 58\", Blank Schedule Type Limits Name input -- will not be validated.\n   ** Warning ** ProcessScheduleInput: Schedule:Day:Interval=\"SCHEDULE DAY 59\", Blank Schedule Type Limits Name input -- will not be validated.\n   ** Warning ** ProcessScheduleInput: Schedule:Day:Interval=\"SCHEDULE DAY 60\", Blank Schedule Type Limits Name input -- will not be validated.\n   ** Warning ** ProcessScheduleInput: Schedule:Day:Interval=\"SCHEDULE DAY 61\", Blank Schedule Type Limits Name input -- will not be validated.\n   ** Warning ** ProcessScheduleInput: Schedule:Day:Interval=\"SCHEDULE DAY 62\", Blank Schedule Type Limits Name input -- will not be validated.\n   ** Warning ** ProcessScheduleInput: Schedule:Day:Interval=\"SCHEDULE DAY 63\", Blank Schedule Type Limits Name input -- will not be validated.\n   ** Warning ** ProcessScheduleInput: Schedule:Day:Interval=\"SCHEDULE DAY 64\", Blank Schedule Type Limits Name input -- will not be validated.\n   ** Warning ** ProcessScheduleInput: Schedule:Day:Interval=\"SCHEDULE DAY 65\", Blank Schedule Type Limits Name input -- will not be validated.\n   ** Warning ** ProcessScheduleInput: Schedule:Day:Interval=\"SCHEDULE DAY 66\", Blank Schedule Type Limits Name input -- will not be validated.\n   ** Warning ** ProcessScheduleInput: Schedule:Day:Interval=\"SCHEDULE DAY 67\", Blank Schedule Type Limits Name input -- will not be validated.\n   ** Warning ** ProcessScheduleInput: Schedule:Day:Interval=\"SCHEDULE DAY 68\", Blank Schedule Type Limits Name input -- will not be validated.\n   ** Warning ** ProcessScheduleInput: Schedule:Day:Interval=\"SCHEDULE DAY 69\", Blank Schedule Type Limits Name input -- will not be validated.\n   ** Warning ** ProcessScheduleInput: Schedule:Day:Interval=\"SCHEDULE DAY 70\", Blank Schedule Type Limits Name input -- will not be validated.\n   ** Warning ** ProcessScheduleInput: Schedule:Day:Interval=\"SCHEDULE DAY 71\", Blank Schedule Type Limits Name input -- will not be validated.\n   ** Warning ** ProcessScheduleInput: Schedule:Day:Interval=\"SCHEDULE DAY 72\", Blank Schedule Type Limits Name input -- will not be validated.\n   ** Warning ** ProcessScheduleInput: Schedule:Day:Interval=\"SCHEDULE DAY 73\", Blank Schedule Type Limits Name input -- will not be validated.\n   ** Warning ** ProcessScheduleInput: Schedule:Day:Interval=\"SCHEDULE DAY 74\", Blank Schedule Type Limits Name input -- will not be validated.\n   ** Warning ** ProcessScheduleInput: Schedule:Day:Interval=\"SCHEDULE DAY 75\", Blank Schedule Type Limits Name input -- will not be validated.\n   ** Warning ** ProcessScheduleInput: Schedule:Day:Interval=\"SCHEDULE DAY 76\", Blank Schedule Type Limits Name input -- will not be validated.\n   ** Warning ** ProcessScheduleInput: Schedule:Day:Interval=\"SCHEDULE DAY 77\", Blank Schedule Type Limits Name input -- will not be validated.\n   ** Warning ** ProcessScheduleInput: Schedule:Day:Interval=\"SCHEDULE DAY 78\", Blank Schedule Type Limits Name input -- will not be validated.\n   ** Warning ** ProcessScheduleInput: Schedule:Day:Interval=\"SCHEDULE DAY 8\", Blank Schedule Type Limits Name input -- will not be validated.\n   ** Warning ** ProcessScheduleInput: Schedule:Day:Interval=\"SCHEDULE DAY 9\", Blank Schedule Type Limits Name input -- will not be validated.\n   ** Warning ** ProcessScheduleInput: Schedule:Year=\"ECONOMIZER MAX OA FRACTION 100 PCT\", Blank Schedule Type Limits Name input -- will not be validated.\n   ** Warning ** ProcessScheduleInput: Schedule:Year=\"SCHEDULE RULESET 10\", Blank Schedule Type Limits Name input -- will not be validated.\n   ** Warning ** ProcessScheduleInput: Schedule:Year=\"SCHEDULE RULESET 11\", Blank Schedule Type Limits Name input -- will not be validated.\n   ** Warning ** ProcessScheduleInput: Schedule:Year=\"SCHEDULE RULESET 12\", Blank Schedule Type Limits Name input -- will not be validated.\n   ** Warning ** ProcessScheduleInput: Schedule:Year=\"SCHEDULE RULESET 13\", Blank Schedule Type Limits Name input -- will not be validated.\n   ** Warning ** ProcessScheduleInput: Schedule:Year=\"SCHEDULE RULESET 14\", Blank Schedule Type Limits Name input -- will not be validated.\n   ** Warning ** ProcessScheduleInput: Schedule:Year=\"SCHEDULE RULESET 15\", Blank Schedule Type Limits Name input -- will not be validated.\n   ** Warning ** ProcessScheduleInput: Schedule:Year=\"SCHEDULE RULESET 16\", Blank Schedule Type Limits Name input -- will not be validated.\n   ** Warning ** ProcessScheduleInput: Schedule:Year=\"SCHEDULE RULESET 17\", Blank Schedule Type Limits Name input -- will not be validated.\n   ** Warning ** ProcessScheduleInput: Schedule:Year=\"SCHEDULE RULESET 18\", Blank Schedule Type Limits Name input -- will not be validated.\n   ** Warning ** ProcessScheduleInput: Schedule:Year=\"SCHEDULE RULESET 19\", Blank Schedule Type Limits Name input -- will not be validated.\n   ** Warning ** ProcessScheduleInput: Schedule:Year=\"SCHEDULE RULESET 20\", Blank Schedule Type Limits Name input -- will not be validated.\n   ** Warning ** ProcessScheduleInput: Schedule:Year=\"SCHEDULE RULESET 21\", Blank Schedule Type Limits Name input -- will not be validated.\n   ** Warning ** ProcessScheduleInput: Schedule:Year=\"SCHEDULE RULESET 22\", Blank Schedule Type Limits Name input -- will not be validated.\n   ** Warning ** ProcessScheduleInput: Schedule:Year=\"SCHEDULE RULESET 23\", Blank Schedule Type Limits Name input -- will not be validated.\n   ** Warning ** ProcessScheduleInput: Schedule:Year=\"SCHEDULE RULESET 24\", Blank Schedule Type Limits Name input -- will not be validated.\n   ** Warning ** ProcessScheduleInput: Schedule:Year=\"SCHEDULE RULESET 25\", Blank Schedule Type Limits Name input -- will not be validated.\n   ** Warning ** ProcessScheduleInput: Schedule:Year=\"SCHEDULE RULESET 26\", Blank Schedule Type Limits Name input -- will not be validated.\n   ** Warning ** ProcessScheduleInput: Schedule:Year=\"SCHEDULE RULESET 27\", Blank Schedule Type Limits Name input -- will not be validated.\n   ** Warning ** ProcessScheduleInput: Schedule:Year=\"SCHEDULE RULESET 28\", Blank Schedule Type Limits Name input -- will not be validated.\n   ** Warning ** ProcessScheduleInput: Schedule:Year=\"SCHEDULE RULESET 29\", Blank Schedule Type Limits Name input -- will not be validated.\n   ** Warning ** ProcessScheduleInput: Schedule:Year=\"SCHEDULE RULESET 3\", Blank Schedule Type Limits Name input -- will not be validated.\n   ** Warning ** ProcessScheduleInput: Schedule:Year=\"SCHEDULE RULESET 30\", Blank Schedule Type Limits Name input -- will not be validated.\n   ** Warning ** ProcessScheduleInput: Schedule:Year=\"SCHEDULE RULESET 31\", Blank Schedule Type Limits Name input -- will not be validated.\n   ** Warning ** ProcessScheduleInput: Schedule:Year=\"SCHEDULE RULESET 32\", Blank Schedule Type Limits Name input -- will not be validated.\n   ** Warning ** ProcessScheduleInput: Schedule:Year=\"SCHEDULE RULESET 33\", Blank Schedule Type Limits Name input -- will not be validated.\n   ** Warning ** ProcessScheduleInput: Schedule:Year=\"SCHEDULE RULESET 34\", Blank Schedule Type Limits Name input -- will not be validated.\n   ** Warning ** ProcessScheduleInput: Schedule:Year=\"SCHEDULE RULESET 35\", Blank Schedule Type Limits Name input -- will not be validated.\n   ** Warning ** ProcessScheduleInput: Schedule:Year=\"SCHEDULE RULESET 36\", Blank Schedule Type Limits Name input -- will not be validated.\n   ** Warning ** ProcessScheduleInput: Schedule:Year=\"SCHEDULE RULESET 37\", Blank Schedule Type Limits Name input -- will not be validated.\n   ** Warning ** ProcessScheduleInput: Schedule:Year=\"SCHEDULE RULESET 38\", Blank Schedule Type Limits Name input -- will not be validated.\n   ** Warning ** ProcessScheduleInput: Schedule:Year=\"SCHEDULE RULESET 39\", Blank Schedule Type Limits Name input -- will not be validated.\n   ** Warning ** ProcessScheduleInput: Schedule:Year=\"SCHEDULE RULESET 4\", Blank Schedule Type Limits Name input -- will not be validated.\n   ** Warning ** ProcessScheduleInput: Schedule:Year=\"SCHEDULE RULESET 40\", Blank Schedule Type Limits Name input -- will not be validated.\n   ** Warning ** ProcessScheduleInput: Schedule:Year=\"SCHEDULE RULESET 41\", Blank Schedule Type Limits Name input -- will not be validated.\n   ** Warning ** ProcessScheduleInput: Schedule:Year=\"SCHEDULE RULESET 42\", Blank Schedule Type Limits Name input -- will not be validated.\n   ** Warning ** ProcessScheduleInput: Schedule:Year=\"SCHEDULE RULESET 43\", Blank Schedule Type Limits Name input -- will not be validated.\n   ** Warning ** ProcessScheduleInput: Schedule:Year=\"SCHEDULE RULESET 44\", Blank Schedule Type Limits Name input -- will not be validated.\n   ** Warning ** ProcessScheduleInput: Schedule:Year=\"SCHEDULE RULESET 45\", Blank Schedule Type Limits Name input -- will not be validated.\n   ** Warning ** ProcessScheduleInput: Schedule:Year=\"SCHEDULE RULESET 46\", Blank Schedule Type Limits Name input -- will not be validated.\n   ** Warning ** ProcessScheduleInput: Schedule:Year=\"SCHEDULE RULESET 47\", Blank Schedule Type Limits Name input -- will not be validated.\n   ** Warning ** ProcessScheduleInput: Schedule:Year=\"SCHEDULE RULESET 48\", Blank Schedule Type Limits Name input -- will not be validated.\n   ** Warning ** ProcessScheduleInput: Schedule:Year=\"SCHEDULE RULESET 49\", Blank Schedule Type Limits Name input -- will not be validated.\n   ** Warning ** ProcessScheduleInput: Schedule:Year=\"SCHEDULE RULESET 5\", Blank Schedule Type Limits Name input -- will not be validated.\n   ** Warning ** ProcessScheduleInput: Schedule:Year=\"SCHEDULE RULESET 50\", Blank Schedule Type Limits Name input -- will not be validated.\n   ** Warning ** ProcessScheduleInput: Schedule:Year=\"SCHEDULE RULESET 51\", Blank Schedule Type Limits Name input -- will not be validated.\n   ** Warning ** ProcessScheduleInput: Schedule:Year=\"SCHEDULE RULESET 52\", Blank Schedule Type Limits Name input -- will not be validated.\n   ** Warning ** ProcessScheduleInput: Schedule:Year=\"SCHEDULE RULESET 53\", Blank Schedule Type Limits Name input -- will not be validated.\n   ** Warning ** ProcessScheduleInput: Schedule:Year=\"SCHEDULE RULESET 54\", Blank Schedule Type Limits Name input -- will not be validated.\n   ** Warning ** ProcessScheduleInput: Schedule:Year=\"SCHEDULE RULESET 55\", Blank Schedule Type Limits Name input -- will not be validated.\n   ** Warning ** ProcessScheduleInput: Schedule:Year=\"SCHEDULE RULESET 56\", Blank Schedule Type Limits Name input -- will not be validated.\n   ** Warning ** ProcessScheduleInput: Schedule:Year=\"SCHEDULE RULESET 57\", Blank Schedule Type Limits Name input -- will not be validated.\n   ** Warning ** ProcessScheduleInput: Schedule:Year=\"SCHEDULE RULESET 58\", Blank Schedule Type Limits Name input -- will not be validated.\n   ** Warning ** ProcessScheduleInput: Schedule:Year=\"SCHEDULE RULESET 59\", Blank Schedule Type Limits Name input -- will not be validated.\n   ** Warning ** ProcessScheduleInput: Schedule:Year=\"SCHEDULE RULESET 6\", Blank Schedule Type Limits Name input -- will not be validated.\n   ** Warning ** ProcessScheduleInput: Schedule:Year=\"SCHEDULE RULESET 7\", Blank Schedule Type Limits Name input -- will not be validated.\n   ** Warning ** ProcessScheduleInput: Schedule:Year=\"SCHEDULE RULESET 8\", Blank Schedule Type Limits Name input -- will not be validated.\n   ** Warning ** ProcessScheduleInput: Schedule:Year=\"SCHEDULE RULESET 9\", Blank Schedule Type Limits Name input -- will not be validated.\n   ** Warning ** ProcessScheduleInput: Schedule:Constant=\"ALWAYS OFF DISCRETE\", Blank Schedule Type Limits Name input -- will not be validated.\n   ** Warning ** ProcessScheduleInput: Schedule:Constant=\"ALWAYS ON CONTINUOUS\", Blank Schedule Type Limits Name input -- will not be validated.\n   ** Warning ** CheckUsedConstructions: There are 23 nominally unused constructions in input.\n   **   ~~~   ** For explicit details on each unused construction, use Output:Diagnostics,DisplayExtraWarnings;\n   ** Warning ** GetInternalHeatGains: ElectricEquipment Combination of ZoneList and Object Name generate a name too long.\n   **   ~~~   ** Object Name=\"SPACE FUNCTION HOSPITAL - LAUNDRY/WASHING ELEC EQUIP\".\n   **   ~~~   ** ZoneList/Zone Name=\"SP-LAUNDRY_FLR_1 SYS-3 FLR-1 SCH-C HPLCMT-EAST ZN\".\n   **   ~~~   ** Item length=[101] > Maximum Length=[100]. You may need to shorten the names.\n   **   ~~~   ** Shortening the Object Name by [2] characters will assure uniqueness for this ZoneList.\n   **   ~~~   ** name that will be used (may be needed in reporting)=\"SP-LAUNDRY_FLR_1 SYS-3 FLR-1 SCH-C HPLCMT-EAST ZN SPACE FUNCTION HOSPITAL - LAUNDRY/WASHING ELEC EQUIP\".\n   ** Warning ** GetInternalHeatGains: ElectricEquipment Combination of ZoneList and Object Name generate a name too long.\n   **   ~~~   ** Object Name=\"SPACE FUNCTION HOTEL/MOTEL - ROOMS ELEC EQUIP\".\n   **   ~~~   ** ZoneList/Zone Name=\"SP-ROOM_3_MULT19_FLR_3 SYS-1 FLR-2 SCH-F HPLCMT-SOUTH ZN\".\n   **   ~~~   ** Item length=[101] > Maximum Length=[100]. You may need to shorten the names.\n   **   ~~~   ** Shortening the Object Name by [2] characters will assure uniqueness for this ZoneList.\n   **   ~~~   ** name that will be used (may be needed in reporting)=\"SP-ROOM_3_MULT19_FLR_3 SYS-1 FLR-2 SCH-F HPLCMT-SOUTH ZN SPACE FUNCTION HOTEL/MOTEL - ROOMS ELEC EQUIP\".\n   ** Warning ** GetInternalHeatGains: ElectricEquipment Combination of ZoneList and Object Name generate a name too long.\n   **   ~~~   ** Object Name=\"SPACE FUNCTION HOTEL/MOTEL - ROOMS ELEC EQUIP\".\n   **   ~~~   ** ZoneList/Zone Name=\"SP-ROOM_4_MULT19_FLR_3 SYS-1 FLR-2 SCH-F HPLCMT-NORTH ZN\".\n   **   ~~~   ** Item length=[101] > Maximum Length=[100]. You may need to shorten the names.\n   **   ~~~   ** Shortening the Object Name by [2] characters will assure uniqueness for this ZoneList.\n   **   ~~~   ** name that will be used (may be needed in reporting)=\"SP-ROOM_4_MULT19_FLR_3 SYS-1 FLR-2 SCH-F HPLCMT-NORTH ZN SPACE FUNCTION HOTEL/MOTEL - ROOMS ELEC EQUIP\".\n   ** Warning ** Calculated design heating load for zone=SP-BASEMENT SYS-4 FLR-3 SCH-E HPLCMT-NORTH ZN is zero.\n   **   ~~~   ** Check Sizing:Zone and ZoneControl:Thermostat inputs.\n   ** Warning ** Calculated design heating load for zone=SP-LOBBY_FLR_1 SYS-6 FLR-1 SCH-H HPLCMT-NORTH ZN is zero.\n   **   ~~~   ** Check Sizing:Zone and ZoneControl:Thermostat inputs.\n   ************* Beginning System Sizing Calculations\n   ** Warning ** Since Zone Minimum Air Flow Input Method = CONSTANT, input for Fixed Minimum Air Flow Rate will be ignored.\n   **   ~~~   ** Occurs in AirTerminal:SingleDuct:VAV:Reheat = AIR TERMINAL SINGLE DUCT VAV REHEAT 2\n   ** Warning ** Since Zone Minimum Air Flow Input Method = CONSTANT, input for Fixed Minimum Air Flow Rate will be ignored.\n   **   ~~~   ** Occurs in AirTerminal:SingleDuct:VAV:Reheat = AIR TERMINAL SINGLE DUCT VAV REHEAT 5\n   ** Warning ** Since Zone Minimum Air Flow Input Method = CONSTANT, input for Fixed Minimum Air Flow Rate will be ignored.\n   **   ~~~   ** Occurs in AirTerminal:SingleDuct:VAV:Reheat = AIR TERMINAL SINGLE DUCT VAV REHEAT 3\n   ** Warning ** Since Zone Minimum Air Flow Input Method = CONSTANT, input for Fixed Minimum Air Flow Rate will be ignored.\n   **   ~~~   ** Occurs in AirTerminal:SingleDuct:VAV:Reheat = AIR TERMINAL SINGLE DUCT VAV REHEAT 1\n   ** Warning ** Since Zone Minimum Air Flow Input Method = CONSTANT, input for Fixed Minimum Air Flow Rate will be ignored.\n   **   ~~~   ** Occurs in AirTerminal:SingleDuct:VAV:Reheat = AIR TERMINAL SINGLE DUCT VAV REHEAT 4\n   ** Warning ** GetDXCoils: Coil:Cooling:DX:SingleSpeed=\"COIL COOLING DX SINGLE SPEED 8 49KBTU/HR 9.3EER\", invalid\n   **   ~~~   ** ...Part Load Fraction Correlation Curve Name = DXCOOL-NECB2011-REF-COOLPLFFPLR 16 has out of range value.\n   **   ~~~   ** ...Curve maximum must be <= 1.0, curve max at PLR = 0.99 is 1.015\n   **   ~~~   ** ...Setting curve maximum to 1.0 and simulation continues.\n   ** Warning ** GetDXCoils: Coil:Cooling:DX:SingleSpeed=\"COIL COOLING DX SINGLE SPEED 5 15KBTU/HR 9.3EER\", invalid\n   **   ~~~   ** ...Part Load Fraction Correlation Curve Name = DXCOOL-NECB2011-REF-COOLPLFFPLR 13 has out of range value.\n   **   ~~~   ** ...Curve maximum must be <= 1.0, curve max at PLR = 0.99 is 1.015\n   **   ~~~   ** ...Setting curve maximum to 1.0 and simulation continues.\n   ** Warning ** GetDXCoils: Coil:Cooling:DX:SingleSpeed=\"COIL COOLING DX SINGLE SPEED 9 18KBTU/HR 9.3EER\", invalid\n   **   ~~~   ** ...Part Load Fraction Correlation Curve Name = DXCOOL-NECB2011-REF-COOLPLFFPLR 17 has out of range value.\n   **   ~~~   ** ...Curve maximum must be <= 1.0, curve max at PLR = 0.99 is 1.015\n   **   ~~~   ** ...Setting curve maximum to 1.0 and simulation continues.\n   ** Warning ** GetDXCoils: Coil:Cooling:DX:SingleSpeed=\"COIL COOLING DX SINGLE SPEED 6 15KBTU/HR 9.3EER\", invalid\n   **   ~~~   ** ...Part Load Fraction Correlation Curve Name = DXCOOL-NECB2011-REF-COOLPLFFPLR 14 has out of range value.\n   **   ~~~   ** ...Curve maximum must be <= 1.0, curve max at PLR = 0.99 is 1.015\n   **   ~~~   ** ...Setting curve maximum to 1.0 and simulation continues.\n   ** Warning ** GetDXCoils: Coil:Cooling:DX:SingleSpeed=\"COIL COOLING DX SINGLE SPEED 10 18KBTU/HR 9.3EER\", invalid\n   **   ~~~   ** ...Part Load Fraction Correlation Curve Name = DXCOOL-NECB2011-REF-COOLPLFFPLR 1 has out of range value.\n   **   ~~~   ** ...Curve maximum must be <= 1.0, curve max at PLR = 0.99 is 1.015\n   **   ~~~   ** ...Setting curve maximum to 1.0 and simulation continues.\n   ** Warning ** GetDXCoils: Coil:Cooling:DX:SingleSpeed=\"COIL COOLING DX SINGLE SPEED 7 4KBTU/HR 11.0EER\", invalid\n   **   ~~~   ** ...Part Load Fraction Correlation Curve Name = DXCOOL-NECB2011-REF-COOLPLFFPLR 15 has out of range value.\n   **   ~~~   ** ...Curve maximum must be <= 1.0, curve max at PLR = 0.99 is 1.015\n   **   ~~~   ** ...Setting curve maximum to 1.0 and simulation continues.\n   ** Warning ** GetDXCoils: Coil:Cooling:DX:SingleSpeed=\"COIL COOLING DX SINGLE SPEED 11 7KBTU/HR 10.9EER\", invalid\n   **   ~~~   ** ...Part Load Fraction Correlation Curve Name = DXCOOL-NECB2011-REF-COOLPLFFPLR 2 has out of range value.\n   **   ~~~   ** ...Curve maximum must be <= 1.0, curve max at PLR = 0.99 is 1.015\n   **   ~~~   ** ...Setting curve maximum to 1.0 and simulation continues.\n   ** Warning ** GetDXCoils: Coil:Cooling:DX:SingleSpeed=\"COIL COOLING DX SINGLE SPEED 2 2KBTU/HR 11.0EER\", invalid\n   **   ~~~   ** ...Part Load Fraction Correlation Curve Name = DXCOOL-NECB2011-REF-COOLPLFFPLR 10 has out of range value.\n   **   ~~~   ** ...Curve maximum must be <= 1.0, curve max at PLR = 0.99 is 1.015\n   **   ~~~   ** ...Setting curve maximum to 1.0 and simulation continues.\n   ** Warning ** GetDXCoils: Coil:Cooling:DX:SingleSpeed=\"COIL COOLING DX SINGLE SPEED 4 15KBTU/HR 9.4EER\", invalid\n   **   ~~~   ** ...Part Load Fraction Correlation Curve Name = DXCOOL-NECB2011-REF-COOLPLFFPLR 12 has out of range value.\n   **   ~~~   ** ...Curve maximum must be <= 1.0, curve max at PLR = 0.99 is 1.015\n   **   ~~~   ** ...Setting curve maximum to 1.0 and simulation continues.\n   ** Warning ** GetDXCoils: Coil:Cooling:DX:SingleSpeed=\"COIL COOLING DX SINGLE SPEED 3 14KBTU/HR 9.4EER\", invalid\n   **   ~~~   ** ...Part Load Fraction Correlation Curve Name = DXCOOL-NECB2011-REF-COOLPLFFPLR 11 has out of range value.\n   **   ~~~   ** ...Curve maximum must be <= 1.0, curve max at PLR = 0.99 is 1.015\n   **   ~~~   ** ...Setting curve maximum to 1.0 and simulation continues.\n   ** Warning ** GetDXCoils: Coil:Cooling:DX:SingleSpeed=\"COIL COOLING DX SINGLE SPEED 1 260KBTU/HR 8.21EER\", invalid\n   **   ~~~   ** ...Part Load Fraction Correlation Curve Name = DXCOOL-NECB2011-REF-COOLPLFFPLR has out of range value.\n   **   ~~~   ** ...Curve maximum must be <= 1.0, curve max at PLR = 0.99 is 1.015\n   **   ~~~   ** ...Setting curve maximum to 1.0 and simulation continues.\n   ** Warning ** GetDXCoils: Coil:Cooling:DX:SingleSpeed=\"COIL COOLING DX SINGLE SPEED 14 101KBTU/HR 9.7EER\", invalid\n   **   ~~~   ** ...Part Load Fraction Correlation Curve Name = DXCOOL-NECB2011-REF-COOLPLFFPLR 5 has out of range value.\n   **   ~~~   ** ...Curve maximum must be <= 1.0, curve max at PLR = 0.99 is 1.015\n   **   ~~~   ** ...Setting curve maximum to 1.0 and simulation continues.\n   ** Warning ** GetDXCoils: Coil:Cooling:DX:SingleSpeed=\"COIL COOLING DX SINGLE SPEED 18 87KBTU/HR 9.7EER\", invalid\n   **   ~~~   ** ...Part Load Fraction Correlation Curve Name = DXCOOL-NECB2011-REF-COOLPLFFPLR 9 has out of range value.\n   **   ~~~   ** ...Curve maximum must be <= 1.0, curve max at PLR = 0.99 is 1.015\n   **   ~~~   ** ...Setting curve maximum to 1.0 and simulation continues.\n   ** Warning ** GetDXCoils: Coil:Cooling:DX:SingleSpeed=\"COIL COOLING DX SINGLE SPEED 13 60KBTU/HR 14.0SEER\", invalid\n   **   ~~~   ** ...Part Load Fraction Correlation Curve Name = DXCOOL-NECB2011-REF-COOLPLFFPLR 4 has out of range value.\n   **   ~~~   ** ...Curve maximum must be <= 1.0, curve max at PLR = 0.99 is 1.015\n   **   ~~~   ** ...Setting curve maximum to 1.0 and simulation continues.\n   ** Warning ** GetDXCoils: Coil:Cooling:DX:SingleSpeed=\"COIL COOLING DX SINGLE SPEED 15 101KBTU/HR 9.7EER\", invalid\n   **   ~~~   ** ...Part Load Fraction Correlation Curve Name = DXCOOL-NECB2011-REF-COOLPLFFPLR 6 has out of range value.\n   **   ~~~   ** ...Curve maximum must be <= 1.0, curve max at PLR = 0.99 is 1.015\n   **   ~~~   ** ...Setting curve maximum to 1.0 and simulation continues.\n   ** Warning ** GetDXCoils: Coil:Cooling:DX:SingleSpeed=\"COIL COOLING DX SINGLE SPEED 16 38KBTU/HR 14.0SEER\", invalid\n   **   ~~~   ** ...Part Load Fraction Correlation Curve Name = DXCOOL-NECB2011-REF-COOLPLFFPLR 7 has out of range value.\n   **   ~~~   ** ...Curve maximum must be <= 1.0, curve max at PLR = 0.99 is 1.015\n   **   ~~~   ** ...Setting curve maximum to 1.0 and simulation continues.\n   ** Warning ** GetDXCoils: Coil:Cooling:DX:SingleSpeed=\"COIL COOLING DX SINGLE SPEED 12 18KBTU/HR 14.0SEER\", invalid\n   **   ~~~   ** ...Part Load Fraction Correlation Curve Name = DXCOOL-NECB2011-REF-COOLPLFFPLR 3 has out of range value.\n   **   ~~~   ** ...Curve maximum must be <= 1.0, curve max at PLR = 0.99 is 1.015\n   **   ~~~   ** ...Setting curve maximum to 1.0 and simulation continues.\n   ** Warning ** GetDXCoils: Coil:Cooling:DX:SingleSpeed=\"COIL COOLING DX SINGLE SPEED 17 6KBTU/HR 14.0SEER\", invalid\n   **   ~~~   ** ...Part Load Fraction Correlation Curve Name = DXCOOL-NECB2011-REF-COOLPLFFPLR 8 has out of range value.\n   **   ~~~   ** ...Curve maximum must be <= 1.0, curve max at PLR = 0.99 is 1.015\n   **   ~~~   ** ...Setting curve maximum to 1.0 and simulation continues.\n   ************* Beginning Plant Sizing Calculations\n   ** Warning ** The Standard Ratings is calculated for Coil:Cooling:DX:SingleSpeed = COIL COOLING DX SINGLE SPEED 8 49KBTU/HR 9.3EER but not at the AHRI test condition due to curve out of bound.\n   **   ~~~   **  Review the Standard Ratings calculations in the Engineering Reference for this coil type. Also, use Output:Diagnostics, DisplayExtraWarnings for further guidance.\n   ** Warning ** The Standard Ratings is calculated for Coil:Cooling:DX:SingleSpeed = COIL COOLING DX SINGLE SPEED 5 15KBTU/HR 9.3EER but not at the AHRI test condition due to curve out of bound.\n   **   ~~~   **  Review the Standard Ratings calculations in the Engineering Reference for this coil type. Also, use Output:Diagnostics, DisplayExtraWarnings for further guidance.\n   ** Warning ** The Standard Ratings is calculated for Coil:Cooling:DX:SingleSpeed = COIL COOLING DX SINGLE SPEED 9 18KBTU/HR 9.3EER but not at the AHRI test condition due to curve out of bound.\n   **   ~~~   **  Review the Standard Ratings calculations in the Engineering Reference for this coil type. Also, use Output:Diagnostics, DisplayExtraWarnings for further guidance.\n   ** Warning ** The Standard Ratings is calculated for Coil:Cooling:DX:SingleSpeed = COIL COOLING DX SINGLE SPEED 6 15KBTU/HR 9.3EER but not at the AHRI test condition due to curve out of bound.\n   **   ~~~   **  Review the Standard Ratings calculations in the Engineering Reference for this coil type. Also, use Output:Diagnostics, DisplayExtraWarnings for further guidance.\n   ** Warning ** The Standard Ratings is calculated for Coil:Cooling:DX:SingleSpeed = COIL COOLING DX SINGLE SPEED 10 18KBTU/HR 9.3EER but not at the AHRI test condition due to curve out of bound.\n   **   ~~~   **  Review the Standard Ratings calculations in the Engineering Reference for this coil type. Also, use Output:Diagnostics, DisplayExtraWarnings for further guidance.\n   ** Warning ** The Standard Ratings is calculated for Coil:Cooling:DX:SingleSpeed = COIL COOLING DX SINGLE SPEED 7 4KBTU/HR 11.0EER but not at the AHRI test condition due to curve out of bound.\n   **   ~~~   **  Review the Standard Ratings calculations in the Engineering Reference for this coil type. Also, use Output:Diagnostics, DisplayExtraWarnings for further guidance.\n   ** Warning ** The Standard Ratings is calculated for Coil:Cooling:DX:SingleSpeed = COIL COOLING DX SINGLE SPEED 11 7KBTU/HR 10.9EER but not at the AHRI test condition due to curve out of bound.\n   **   ~~~   **  Review the Standard Ratings calculations in the Engineering Reference for this coil type. Also, use Output:Diagnostics, DisplayExtraWarnings for further guidance.\n   ** Warning ** The Standard Ratings is calculated for Coil:Cooling:DX:SingleSpeed = COIL COOLING DX SINGLE SPEED 2 2KBTU/HR 11.0EER but not at the AHRI test condition due to curve out of bound.\n   **   ~~~   **  Review the Standard Ratings calculations in the Engineering Reference for this coil type. Also, use Output:Diagnostics, DisplayExtraWarnings for further guidance.\n   ** Warning ** The Standard Ratings is calculated for Coil:Cooling:DX:SingleSpeed = COIL COOLING DX SINGLE SPEED 4 15KBTU/HR 9.4EER but not at the AHRI test condition due to curve out of bound.\n   **   ~~~   **  Review the Standard Ratings calculations in the Engineering Reference for this coil type. Also, use Output:Diagnostics, DisplayExtraWarnings for further guidance.\n   ** Warning ** The Standard Ratings is calculated for Coil:Cooling:DX:SingleSpeed = COIL COOLING DX SINGLE SPEED 3 14KBTU/HR 9.4EER but not at the AHRI test condition due to curve out of bound.\n   **   ~~~   **  Review the Standard Ratings calculations in the Engineering Reference for this coil type. Also, use Output:Diagnostics, DisplayExtraWarnings for further guidance.\n   ** Warning ** The Standard Ratings is calculated for Coil:Cooling:DX:SingleSpeed = COIL COOLING DX SINGLE SPEED 1 260KBTU/HR 8.21EER but not at the AHRI test condition due to curve out of bound.\n   **   ~~~   **  Review the Standard Ratings calculations in the Engineering Reference for this coil type. Also, use Output:Diagnostics, DisplayExtraWarnings for further guidance.\n   ** Warning ** The Standard Ratings is calculated for Coil:Cooling:DX:SingleSpeed = COIL COOLING DX SINGLE SPEED 14 101KBTU/HR 9.7EER but not at the AHRI test condition due to curve out of bound.\n   **   ~~~   **  Review the Standard Ratings calculations in the Engineering Reference for this coil type. Also, use Output:Diagnostics, DisplayExtraWarnings for further guidance.\n   ** Warning ** The Standard Ratings is calculated for Coil:Cooling:DX:SingleSpeed = COIL COOLING DX SINGLE SPEED 18 87KBTU/HR 9.7EER but not at the AHRI test condition due to curve out of bound.\n   **   ~~~   **  Review the Standard Ratings calculations in the Engineering Reference for this coil type. Also, use Output:Diagnostics, DisplayExtraWarnings for further guidance.\n   ** Warning ** The Standard Ratings is calculated for Coil:Cooling:DX:SingleSpeed = COIL COOLING DX SINGLE SPEED 13 60KBTU/HR 14.0SEER but not at the AHRI test condition due to curve out of bound.\n   **   ~~~   **  Review the Standard Ratings calculations in the Engineering Reference for this coil type. Also, use Output:Diagnostics, DisplayExtraWarnings for further guidance.\n   ** Warning ** The Standard Ratings is calculated for Coil:Cooling:DX:SingleSpeed = COIL COOLING DX SINGLE SPEED 15 101KBTU/HR 9.7EER but not at the AHRI test condition due to curve out of bound.\n   **   ~~~   **  Review the Standard Ratings calculations in the Engineering Reference for this coil type. Also, use Output:Diagnostics, DisplayExtraWarnings for further guidance.\n   ** Warning ** The Standard Ratings is calculated for Coil:Cooling:DX:SingleSpeed = COIL COOLING DX SINGLE SPEED 16 38KBTU/HR 14.0SEER but not at the AHRI test condition due to curve out of bound.\n   **   ~~~   **  Review the Standard Ratings calculations in the Engineering Reference for this coil type. Also, use Output:Diagnostics, DisplayExtraWarnings for further guidance.\n   ** Warning ** The Standard Ratings is calculated for Coil:Cooling:DX:SingleSpeed = COIL COOLING DX SINGLE SPEED 12 18KBTU/HR 14.0SEER but not at the AHRI test condition due to curve out of bound.\n   **   ~~~   **  Review the Standard Ratings calculations in the Engineering Reference for this coil type. Also, use Output:Diagnostics, DisplayExtraWarnings for further guidance.\n   ** Warning ** The Standard Ratings is calculated for Coil:Cooling:DX:SingleSpeed = COIL COOLING DX SINGLE SPEED 17 6KBTU/HR 14.0SEER but not at the AHRI test condition due to curve out of bound.\n   **   ~~~   **  Review the Standard Ratings calculations in the Engineering Reference for this coil type. Also, use Output:Diagnostics, DisplayExtraWarnings for further guidance.\n   ** Warning ** Missing temperature setpoint for LeavingSetpointModulated mode chiller named PRIMARY CHILLER WATERCOOLED SCROLL 33TONS 0.8KW/TON\n   **   ~~~   **   A temperature setpoint is needed at the outlet node of a chiller in variable flow mode, use a SetpointManager\n   **   ~~~   **   The overall loop setpoint will be assumed for chiller. The simulation continues ... \n   ** Warning ** Missing temperature setpoint for LeavingSetpointModulated mode chiller named SECONDARY CHILLER WATERCOOLED SCROLL 0TONS 0.8KW/TON\n   **   ~~~   **   A temperature setpoint is needed at the outlet node of a chiller in variable flow mode, use a SetpointManager\n   **   ~~~   **   The overall loop setpoint will be assumed for chiller. The simulation continues ... \n   ** Warning ** Missing temperature setpoint for LeavingSetpointModulated mode Boiler named PRIMARY BOILER 2470KBTU/HR 0.83 THERMAL EFF\n   **   ~~~   **   A temperature setpoint is needed at the outlet node of a boiler in variable flow mode, use a SetpointManager\n   **   ~~~   **   The overall loop setpoint will be assumed for Boiler. The simulation continues ... \n   ** Warning ** Output:Meter: invalid Name=\"DISTRICTCOOLING:FACILITY\" - not found.\n   ** Warning ** Output:Meter: invalid Name=\"DISTRICTHEATING:FACILITY\" - not found.\n   ** Warning ** Output:Meter:MeterFileOnly requested for \"Electricity:Facility\" (TimeStep), already on \"Output:Meter\". Will report to both eplusout.eso and eplusout.mtr\n   ************* Testing Individual Branch Integrity\n   ************* All Branches passed integrity testing\n   ************* Testing Individual Supply Air Path Integrity\n   ************* All Supply Air Paths passed integrity testing\n   ************* Testing Individual Return Air Path Integrity\n   ************* All Return Air Paths passed integrity testing\n   ************* No node connection errors were found.\n   ************* Beginning Simulation\n   ** Warning ** CalcDoe2DXCoil: Coil:Cooling:DX:SingleSpeed \"COIL COOLING DX SINGLE SPEED 7 4KBTU/HR 11.0EER\" - Air-cooled condenser inlet dry-bulb temperature below 0 C. Outdoor dry-bulb temperature = -8.95\n   **   ~~~   **  ... Occurrence info = RUN PERIOD 1, 01/01 00:00 - 00:15\n   **   ~~~   ** ... Operation at low ambient temperatures may require special performance curves.\n   ** Warning ** CalcDoe2DXCoil: Coil:Cooling:DX:SingleSpeed \"COIL COOLING DX SINGLE SPEED 16 38KBTU/HR 14.0SEER\" - Air-cooled condenser inlet dry-bulb temperature below 0 C. Outdoor dry-bulb temperature = -7.18\n   **   ~~~   **  ... Occurrence info = RUN PERIOD 1, 01/01 01:02 - 01:04\n   **   ~~~   ** ... Operation at low ambient temperatures may require special performance curves.\n   ** Warning ** CalcDoe2DXCoil: Coil:Cooling:DX:SingleSpeed \"COIL COOLING DX SINGLE SPEED 16 38KBTU/HR 14.0SEER\" - Full load outlet air dry-bulb temperature < 2C. This indicates the possibility of coil frost/freeze. Outlet temperature = 1.97 C.\n   **   ~~~   **  ...Occurrence info = RUN PERIOD 1, 01/01 01:02 - 01:04\n   **   ~~~   ** ... Possible reasons for low outlet air dry-bulb temperatures are: This DX coil\n   **   ~~~   **    1) may have a low inlet air dry-bulb temperature. Inlet air temperature = 15.829 C.\n   **   ~~~   **    2) may have a low air flow rate per watt of cooling capacity. Check inputs.\n   **   ~~~   **    3) is used as part of a HX assisted cooling coil which uses a high sensible effectiveness. Check inputs.\n   ** Warning ** CalcDoe2DXCoil: Coil:Cooling:DX:SingleSpeed \"COIL COOLING DX SINGLE SPEED 11 7KBTU/HR 10.9EER\" - Air-cooled condenser inlet dry-bulb temperature below 0 C. Outdoor dry-bulb temperature = -13.70\n   **   ~~~   **  ... Occurrence info = RUN PERIOD 1, 01/01 09:57 - 10:00\n   **   ~~~   ** ... Operation at low ambient temperatures may require special performance curves.\n   ** Warning ** SimHVAC: Maximum iterations (20) exceeded for all HVAC loops, at RUN PERIOD 1, 01/01 10:11 - 10:13\n   **   ~~~   ** The solution for one or more of the Air Loop HVAC systems did not appear to converge\n   **   ~~~   ** ...use Output:Diagnostics,DisplayExtraWarnings; to show more details on each max iteration exceeded.\n   ** Warning ** CalcDoe2DXCoil: Coil:Cooling:DX:SingleSpeed \"COIL COOLING DX SINGLE SPEED 4 15KBTU/HR 9.4EER\" - Air-cooled condenser inlet dry-bulb temperature below 0 C. Outdoor dry-bulb temperature = -11.98\n   **   ~~~   **  ... Occurrence info = RUN PERIOD 1, 01/01 10:38 - 10:45\n   **   ~~~   ** ... Operation at low ambient temperatures may require special performance curves.\n   ** Warning ** CalcDoe2DXCoil: Coil:Cooling:DX:SingleSpeed \"COIL COOLING DX SINGLE SPEED 9 18KBTU/HR 9.3EER\" - Air-cooled condenser inlet dry-bulb temperature below 0 C. Outdoor dry-bulb temperature = -9.85\n   **   ~~~   **  ... Occurrence info = RUN PERIOD 1, 01/01 11:23 - 11:30\n   **   ~~~   ** ... Operation at low ambient temperatures may require special performance curves.\n   ** Warning ** CalcDoe2DXCoil: Coil:Cooling:DX:SingleSpeed \"COIL COOLING DX SINGLE SPEED 5 15KBTU/HR 9.3EER\" - Air-cooled condenser inlet dry-bulb temperature below 0 C. Outdoor dry-bulb temperature = -9.08\n   **   ~~~   **  ... Occurrence info = RUN PERIOD 1, 01/01 11:40 - 11:45\n   **   ~~~   ** ... Operation at low ambient temperatures may require special performance curves.\n   ** Warning ** CalcDoe2DXCoil: Coil:Cooling:DX:SingleSpeed \"COIL COOLING DX SINGLE SPEED 10 18KBTU/HR 9.3EER\" - Air-cooled condenser inlet dry-bulb temperature below 0 C. Outdoor dry-bulb temperature = -4.30\n   **   ~~~   **  ... Occurrence info = RUN PERIOD 1, 01/01 14:45 - 14:50\n   **   ~~~   ** ... Operation at low ambient temperatures may require special performance curves.\n   ** Warning ** CalcDoe2DXCoil: Coil:Cooling:DX:SingleSpeed \"COIL COOLING DX SINGLE SPEED 6 15KBTU/HR 9.3EER\" - Air-cooled condenser inlet dry-bulb temperature below 0 C. Outdoor dry-bulb temperature = -3.50\n   **   ~~~   **  ... Occurrence info = RUN PERIOD 1, 01/01 15:15 - 15:22\n   **   ~~~   ** ... Operation at low ambient temperatures may require special performance curves.\n   ** Warning ** CalcDoe2DXCoil: Coil:Cooling:DX:SingleSpeed \"COIL COOLING DX SINGLE SPEED 13 60KBTU/HR 14.0SEER\" - Air-cooled condenser inlet dry-bulb temperature below 0 C. Outdoor dry-bulb temperature = -7.80\n   **   ~~~   **  ... Occurrence info = RUN PERIOD 1, 01/02 07:02 - 07:04\n   **   ~~~   ** ... Operation at low ambient temperatures may require special performance curves.\n   ** Warning ** CalcDoe2DXCoil: Coil:Cooling:DX:SingleSpeed \"COIL COOLING DX SINGLE SPEED 17 6KBTU/HR 14.0SEER\" - Air-cooled condenser inlet dry-bulb temperature below 0 C. Outdoor dry-bulb temperature = -2.00\n   **   ~~~   **  ... Occurrence info = RUN PERIOD 1, 01/02 19:15 - 19:18\n   **   ~~~   ** ... Operation at low ambient temperatures may require special performance curves.\n   ** Warning ** CalcDoe2DXCoil: Coil:Cooling:DX:SingleSpeed \"COIL COOLING DX SINGLE SPEED 17 6KBTU/HR 14.0SEER\" - Full load outlet air dry-bulb temperature < 2C. This indicates the possibility of coil frost/freeze. Outlet temperature = -2.60 C.\n   **   ~~~   **  ...Occurrence info = RUN PERIOD 1, 01/02 19:15 - 19:18\n   **   ~~~   ** ... Possible reasons for low outlet air dry-bulb temperatures are: This DX coil\n   **   ~~~   **    1) may have a low inlet air dry-bulb temperature. Inlet air temperature = 12.904 C.\n   **   ~~~   **    2) may have a low air flow rate per watt of cooling capacity. Check inputs.\n   **   ~~~   **    3) is used as part of a HX assisted cooling coil which uses a high sensible effectiveness. Check inputs.\n   ** Warning ** SimHVAC: Maximum iterations (20) exceeded for all HVAC loops, at RUN PERIOD 1, 01/17 10:05 - 10:10\n   **   ~~~   ** The solution for one or more of the Air Loop HVAC systems did not appear to converge\n   ** Warning ** SimHVAC: Maximum iterations (20) exceeded for all HVAC loops, at RUN PERIOD 1, 01/17 10:15 - 10:19\n   ** Warning ** CalcDoe2DXCoil: Coil:Cooling:DX:SingleSpeed \"COIL COOLING DX SINGLE SPEED 7 4KBTU/HR 11.0EER\" - Full load outlet air dry-bulb temperature < 2C. This indicates the possibility of coil frost/freeze. Outlet temperature = 1.93 C.\n   **   ~~~   **  ...Occurrence info = RUN PERIOD 1, 01/17 10:23 - 10:26\n   **   ~~~   ** ... Possible reasons for low outlet air dry-bulb temperatures are: This DX coil\n   **   ~~~   **    1) may have a low inlet air dry-bulb temperature. Inlet air temperature = 15.091 C.\n   **   ~~~   **    2) may have a low air flow rate per watt of cooling capacity. Check inputs.\n   **   ~~~   **    3) is used as part of a HX assisted cooling coil which uses a high sensible effectiveness. Check inputs.\n   ** Warning ** SimHVAC: Maximum iterations (20) exceeded for all HVAC loops, at RUN PERIOD 1, 01/17 10:30 - 10:38\n   **   ~~~   ** The solution for one or more of the Air Loop HVAC systems did not appear to converge\n   ** Warning ** SimHVAC: Maximum iterations (20) exceeded for all HVAC loops, at RUN PERIOD 1, 01/17 10:38 - 10:45\n   **   ~~~   ** The solution for one or more of the Air Loop HVAC systems did not appear to converge\n   ** Warning ** SimHVAC: Maximum iterations (20) exceeded for all HVAC loops, at RUN PERIOD 1, 01/18 09:45 - 10:00\n   **   ~~~   ** The solution for one or more of the Air Loop HVAC systems did not appear to converge\n   ** Warning ** SimHVAC: Maximum iterations (20) exceeded for all HVAC loops, at RUN PERIOD 1, 01/18 10:00 - 10:15\n   **   ~~~   ** The solution for one or more of the Air Loop HVAC systems did not appear to converge\n   ** Warning ** SimHVAC: Maximum iterations (20) exceeded for all HVAC loops, at RUN PERIOD 1, 01/18 10:04 - 10:08\n   **   ~~~   ** The solution for one or more of the Air Loop HVAC systems did not appear to converge\n   ** Warning ** SimHVAC: Maximum iterations (20) exceeded for all HVAC loops, at RUN PERIOD 1, 01/18 10:11 - 10:15\n   **   ~~~   ** The solution for one or more of the Air Loop HVAC systems did not appear to converge\n   ** Warning ** SimHVAC: Maximum iterations (20) exceeded for all HVAC loops, at RUN PERIOD 1, 01/18 12:45 - 13:00\n   **   ~~~   ** The solution for one or more of the Air Loop HVAC systems did not appear to converge\n   ** Warning ** SimHVAC: Maximum iterations (20) exceeded for all HVAC loops, at RUN PERIOD 1, 01/20 10:25 - 10:30\n   **   ~~~   ** The solution for one or more of the Air Loop HVAC systems did not appear to converge\n   ** Warning ** SimHVAC: Maximum iterations (20) exceeded for all HVAC loops, at RUN PERIOD 1, 01/20 10:30 - 10:45\n   **   ~~~   ** The solution for one or more of the Air Loop HVAC systems did not appear to converge\n   ** Warning ** SimHVAC: Maximum iterations (20) exceeded for all HVAC loops, at RUN PERIOD 1, 01/20 10:40 - 10:45\n   **   ~~~   ** The solution for one or more of the Air Loop HVAC systems did not appear to converge\n   ** Warning ** SimHVAC: Maximum iterations (20) exceeded for all HVAC loops, at RUN PERIOD 1, 01/20 10:45 - 11:00\n   **   ~~~   ** The solution for one or more of the Air Loop HVAC systems did not appear to converge\n   ** Warning ** CalcDoe2DXCoil: Coil:Cooling:DX:SingleSpeed \"COIL COOLING DX SINGLE SPEED 13 60KBTU/HR 14.0SEER\" - Full load outlet air dry-bulb temperature < 2C. This indicates the possibility of coil frost/freeze. Outlet temperature = 1.80 C.\n   **   ~~~   **  ...Occurrence info = RUN PERIOD 1, 01/21 09:02 - 09:04\n   **   ~~~   ** ... Possible reasons for low outlet air dry-bulb temperatures are: This DX coil\n   **   ~~~   **    1) may have a low inlet air dry-bulb temperature. Inlet air temperature = 15.992 C.\n   **   ~~~   **    2) may have a low air flow rate per watt of cooling capacity. Check inputs.\n   **   ~~~   **    3) is used as part of a HX assisted cooling coil which uses a high sensible effectiveness. Check inputs.\n   ** Warning ** CalcDoe2DXCoil: Coil:Cooling:DX:SingleSpeed \"COIL COOLING DX SINGLE SPEED 3 14KBTU/HR 9.4EER\" - Air-cooled condenser inlet dry-bulb temperature below 0 C. Outdoor dry-bulb temperature = -18.00\n   **   ~~~   **  ... Occurrence info = RUN PERIOD 1, 01/27 10:30 - 10:38\n   **   ~~~   ** ... Operation at low ambient temperatures may require special performance curves.\n   ** Warning ** CalcDoe2DXCoil: Coil:Cooling:DX:SingleSpeed \"COIL COOLING DX SINGLE SPEED 2 2KBTU/HR 11.0EER\" - Air-cooled condenser inlet dry-bulb temperature below 0 C. Outdoor dry-bulb temperature = -0.10\n   **   ~~~   **  ... Occurrence info = RUN PERIOD 1, 03/18 23:15 - 23:30\n   **   ~~~   ** ... Operation at low ambient temperatures may require special performance curves.\n   ** Warning ** CalcDoe2DXCoil: Coil:Cooling:DX:SingleSpeed \"COIL COOLING DX SINGLE SPEED 2 2KBTU/HR 11.0EER\" - Full load outlet air dry-bulb temperature < 2C. This indicates the possibility of coil frost/freeze. Outlet temperature = 1.94 C.\n   **   ~~~   **  ...Occurrence info = RUN PERIOD 1, 03/19 00:00 - 00:15\n   **   ~~~   ** ... Possible reasons for low outlet air dry-bulb temperatures are: This DX coil\n   **   ~~~   **    1) may have a low inlet air dry-bulb temperature. Inlet air temperature = 15.284 C.\n   **   ~~~   **    2) may have a low air flow rate per watt of cooling capacity. Check inputs.\n   **   ~~~   **    3) is used as part of a HX assisted cooling coil which uses a high sensible effectiveness. Check inputs.\n   ** Warning ** CalcDoe2DXCoil: Coil:Cooling:DX:SingleSpeed \"COIL COOLING DX SINGLE SPEED 12 18KBTU/HR 14.0SEER\" - Full load outlet air dry-bulb temperature < 2C. This indicates the possibility of coil frost/freeze. Outlet temperature = -0.78 C.\n   **   ~~~   **  ...Occurrence info = RUN PERIOD 1, 04/14 13:00 - 13:15\n   **   ~~~   ** ... Possible reasons for low outlet air dry-bulb temperatures are: This DX coil\n   **   ~~~   **    1) may have a low inlet air dry-bulb temperature. Inlet air temperature = 16.421 C.\n   **   ~~~   **    2) may have a low air flow rate per watt of cooling capacity. Check inputs.\n   **   ~~~   **    3) is used as part of a HX assisted cooling coil which uses a high sensible effectiveness. Check inputs.\n   ** Warning ** CalcDoe2DXCoil: Coil:Cooling:DX:SingleSpeed \"COIL COOLING DX SINGLE SPEED 18 87KBTU/HR 9.7EER\" - Full load outlet air dry-bulb temperature < 2C. This indicates the possibility of coil frost/freeze. Outlet temperature = -1.00 C.\n   **   ~~~   **  ...Occurrence info = RUN PERIOD 1, 04/15 13:15 - 13:20\n   **   ~~~   ** ... Possible reasons for low outlet air dry-bulb temperatures are: This DX coil\n   **   ~~~   **    1) may have a low inlet air dry-bulb temperature. Inlet air temperature = 14.700 C.\n   **   ~~~   **    2) may have a low air flow rate per watt of cooling capacity. Check inputs.\n   **   ~~~   **    3) is used as part of a HX assisted cooling coil which uses a high sensible effectiveness. Check inputs.\n   ** Warning ** CalcDoe2DXCoil: Coil:Cooling:DX:SingleSpeed \"COIL COOLING DX SINGLE SPEED 14 101KBTU/HR 9.7EER\" - Full load outlet air dry-bulb temperature < 2C. This indicates the possibility of coil frost/freeze. Outlet temperature = 1.93 C.\n   **   ~~~   **  ...Occurrence info = RUN PERIOD 1, 05/23 13:15 - 13:30\n   **   ~~~   ** ... Possible reasons for low outlet air dry-bulb temperatures are: This DX coil\n   **   ~~~   **    1) may have a low inlet air dry-bulb temperature. Inlet air temperature = 18.300 C.\n   **   ~~~   **    2) may have a low air flow rate per watt of cooling capacity. Check inputs.\n   **   ~~~   **    3) is used as part of a HX assisted cooling coil which uses a high sensible effectiveness. Check inputs.\n   ** Warning ** CalcDoe2DXCoil: Coil:Cooling:DX:SingleSpeed \"COIL COOLING DX SINGLE SPEED 15 101KBTU/HR 9.7EER\" - Full load outlet air dry-bulb temperature < 2C. This indicates the possibility of coil frost/freeze. Outlet temperature = 1.93 C.\n   **   ~~~   **  ...Occurrence info = RUN PERIOD 1, 05/23 13:15 - 13:30\n   **   ~~~   ** ... Possible reasons for low outlet air dry-bulb temperatures are: This DX coil\n   **   ~~~   **    1) may have a low inlet air dry-bulb temperature. Inlet air temperature = 18.300 C.\n   **   ~~~   **    2) may have a low air flow rate per watt of cooling capacity. Check inputs.\n   **   ~~~   **    3) is used as part of a HX assisted cooling coil which uses a high sensible effectiveness. Check inputs.\n   ** Warning ** CalcDoe2DXCoil: Coil:Cooling:DX:SingleSpeed \"COIL COOLING DX SINGLE SPEED 1 260KBTU/HR 8.21EER\" - Full load outlet air dry-bulb temperature < 2C. This indicates the possibility of coil frost/freeze. Outlet temperature = 1.79 C.\n   **   ~~~   **  ...Occurrence info = RUN PERIOD 1, 05/23 16:45 - 17:00\n   **   ~~~   ** ... Possible reasons for low outlet air dry-bulb temperatures are: This DX coil\n   **   ~~~   **    1) may have a low inlet air dry-bulb temperature. Inlet air temperature = 20.000 C.\n   **   ~~~   **    2) may have a low air flow rate per watt of cooling capacity. Check inputs.\n   **   ~~~   **    3) is used as part of a HX assisted cooling coil which uses a high sensible effectiveness. Check inputs.\n   ************* Simulation Error Summary *************\n   ************* There are 9 unused schedules in input.\n   ************* There are 9 unused week schedules in input.\n   ************* There are 35 unused day schedules in input.\n   ************* Use Output:Diagnostics,DisplayUnusedSchedules; to see them.\n   *************\n   ************* ===== Recurring Error Summary =====\n   ************* The following recurring error messages occurred.\n   *************\n   *************  ** Warning ** Plant loop falling below lower temperature limit, PlantLoop=\"MAIN SERVICE WATER LOOP\"\n   *************  **   ~~~   **   This error occurred 82 total times;\n   *************  **   ~~~   **   during Warmup 1 times;\n   *************  **   ~~~   **   during Sizing 0 times.\n   *************  **   ~~~   **   Min=3.118502\n   *************\n   *************  ** Warning ** CalcDoe2DXCoil: Coil:Cooling:DX:SingleSpeed=\"COIL COOLING DX SINGLE SPEED 7 4KBTU/HR 11.0EER\" - Low condenser dry-bulb temperature error continues...\n   *************  **   ~~~   **   This error occurred 7288 total times;\n   *************  **   ~~~   **   during Warmup 0 times;\n   *************  **   ~~~   **   during Sizing 0 times.\n   *************  **   ~~~   **   Max=-5.551115E-017 [C]  Min=-24.6 [C]\n   *************\n   *************  ** Warning ** CalcDoe2DXCoil: Coil:Cooling:DX:SingleSpeed=\"COIL COOLING DX SINGLE SPEED 16 38KBTU/HR 14.0SEER\" - Low condenser dry-bulb temperature error continues...\n   *************  **   ~~~   **   This error occurred 659 total times;\n   *************  **   ~~~   **   during Warmup 0 times;\n   *************  **   ~~~   **   during Sizing 0 times.\n   *************  **   ~~~   **   Max=-5.000000E-002 [C]  Min=-32.475 [C]\n   *************\n   *************  ** Warning ** CalcDoe2DXCoil: Coil:Cooling:DX:SingleSpeed=\"COIL COOLING DX SINGLE SPEED 16 38KBTU/HR 14.0SEER\" - Full load outlet temperature indicates a possibility of frost/freeze error continues. Outlet air temperature statistics follow:\n   *************  **   ~~~   **   This error occurred 9 total times;\n   *************  **   ~~~   **   during Warmup 0 times;\n   *************  **   ~~~   **   during Sizing 0 times.\n   *************  **   ~~~   **   Max=1.969207  Min=-1.251098\n   *************\n   *************  ** Warning ** CalcDoe2DXCoil: Coil:Cooling:DX:SingleSpeed=\"COIL COOLING DX SINGLE SPEED 11 7KBTU/HR 10.9EER\" - Low condenser dry-bulb temperature error continues...\n   *************  **   ~~~   **   This error occurred 3186 total times;\n   *************  **   ~~~   **   during Warmup 0 times;\n   *************  **   ~~~   **   during Sizing 0 times.\n   *************  **   ~~~   **   Max=-5.551115E-017 [C]  Min=-26.1 [C]\n   *************\n   *************  ** Warning ** CalcDoe2DXCoil: Coil:Cooling:DX:SingleSpeed=\"COIL COOLING DX SINGLE SPEED 4 15KBTU/HR 9.4EER\" - Low condenser dry-bulb temperature error continues...\n   *************  **   ~~~   **   This error occurred 2928 total times;\n   *************  **   ~~~   **   during Warmup 0 times;\n   *************  **   ~~~   **   during Sizing 0 times.\n   *************  **   ~~~   **   Max=-5.551115E-017 [C]  Min=-25. [C]\n   *************\n   *************  ** Warning ** CalcDoe2DXCoil: Coil:Cooling:DX:SingleSpeed=\"COIL COOLING DX SINGLE SPEED 9 18KBTU/HR 9.3EER\" - Low condenser dry-bulb temperature error continues...\n   *************  **   ~~~   **   This error occurred 1612 total times;\n   *************  **   ~~~   **   during Warmup 0 times;\n   *************  **   ~~~   **   during Sizing 0 times.\n   *************  **   ~~~   **   Max=-2.500000E-002 [C]  Min=-19.4 [C]\n   *************\n   *************  ** Warning ** CalcDoe2DXCoil: Coil:Cooling:DX:SingleSpeed=\"COIL COOLING DX SINGLE SPEED 5 15KBTU/HR 9.3EER\" - Low condenser dry-bulb temperature error continues...\n   *************  **   ~~~   **   This error occurred 2177 total times;\n   *************  **   ~~~   **   during Warmup 0 times;\n   *************  **   ~~~   **   during Sizing 0 times.\n   *************  **   ~~~   **   Max=-5.000000E-002 [C]  Min=-19.55 [C]\n   *************\n   *************  ** Warning ** CalcDoe2DXCoil: Coil:Cooling:DX:SingleSpeed=\"COIL COOLING DX SINGLE SPEED 10 18KBTU/HR 9.3EER\" - Low condenser dry-bulb temperature error continues...\n   *************  **   ~~~   **   This error occurred 488 total times;\n   *************  **   ~~~   **   during Warmup 0 times;\n   *************  **   ~~~   **   during Sizing 0 times.\n   *************  **   ~~~   **   Max=-5.000000E-002 [C]  Min=-13.3 [C]\n   *************\n   *************  ** Warning ** CalcDoe2DXCoil: Coil:Cooling:DX:SingleSpeed=\"COIL COOLING DX SINGLE SPEED 6 15KBTU/HR 9.3EER\" - Low condenser dry-bulb temperature error continues...\n   *************  **   ~~~   **   This error occurred 650 total times;\n   *************  **   ~~~   **   during Warmup 0 times;\n   *************  **   ~~~   **   during Sizing 0 times.\n   *************  **   ~~~   **   Max=-5.000000E-002 [C]  Min=-13.875 [C]\n   *************\n   *************  ** Warning ** CalcDoe2DXCoil: Coil:Cooling:DX:SingleSpeed=\"COIL COOLING DX SINGLE SPEED 13 60KBTU/HR 14.0SEER\" - Low condenser dry-bulb temperature error continues...\n   *************  **   ~~~   **   This error occurred 296 total times;\n   *************  **   ~~~   **   during Warmup 0 times;\n   *************  **   ~~~   **   during Sizing 0 times.\n   *************  **   ~~~   **   Max=-0.1 [C]  Min=-32.475 [C]\n   *************\n   *************  ** Warning ** CalcDoe2DXCoil: Coil:Cooling:DX:SingleSpeed=\"COIL COOLING DX SINGLE SPEED 17 6KBTU/HR 14.0SEER\" - Low condenser dry-bulb temperature error continues...\n   *************  **   ~~~   **   This error occurred 95 total times;\n   *************  **   ~~~   **   during Warmup 0 times;\n   *************  **   ~~~   **   during Sizing 0 times.\n   *************  **   ~~~   **   Max=-0.1 [C]  Min=-5.825 [C]\n   *************\n   *************  ** Warning ** CalcDoe2DXCoil: Coil:Cooling:DX:SingleSpeed=\"COIL COOLING DX SINGLE SPEED 17 6KBTU/HR 14.0SEER\" - Full load outlet temperature indicates a possibility of frost/freeze error continues. Outlet air temperature statistics follow:\n   *************  **   ~~~   **   This error occurred 259 total times;\n   *************  **   ~~~   **   during Warmup 0 times;\n   *************  **   ~~~   **   during Sizing 0 times.\n   *************  **   ~~~   **   Max=1.995623  Min=-4.353647\n   *************\n   *************  ** Warning ** CalcDoe2DXCoil: Coil:Cooling:DX:SingleSpeed=\"COIL COOLING DX SINGLE SPEED 7 4KBTU/HR 11.0EER\" - Full load outlet temperature indicates a possibility of frost/freeze error continues. Outlet air temperature statistics follow:\n   *************  **   ~~~   **   This error occurred 352 total times;\n   *************  **   ~~~   **   during Warmup 0 times;\n   *************  **   ~~~   **   during Sizing 0 times.\n   *************  **   ~~~   **   Max=1.980897  Min=0.302021\n   *************\n   *************  ** Warning ** SimHVAC: Exceeding Maximum iterations for all HVAC loops, during RUN PERIOD 1 continues\n   *************  **   ~~~   **   This error occurred 69 total times;\n   *************  **   ~~~   **   during Warmup 0 times;\n   *************  **   ~~~   **   during Sizing 0 times.\n   *************\n   *************  ** Warning ** CalcDoe2DXCoil: Coil:Cooling:DX:SingleSpeed=\"COIL COOLING DX SINGLE SPEED 13 60KBTU/HR 14.0SEER\" - Full load outlet temperature indicates a possibility of frost/freeze error continues. Outlet air temperature statistics follow:\n   *************  **   ~~~   **   This error occurred 2 total times;\n   *************  **   ~~~   **   during Warmup 0 times;\n   *************  **   ~~~   **   during Sizing 0 times.\n   *************  **   ~~~   **   Max=1.798707  Min=1.469477\n   *************\n   *************  ** Warning ** CalcDoe2DXCoil: Coil:Cooling:DX:SingleSpeed=\"COIL COOLING DX SINGLE SPEED 3 14KBTU/HR 9.4EER\" - Low condenser dry-bulb temperature error continues...\n   *************  **   ~~~   **   This error occurred 838 total times;\n   *************  **   ~~~   **   during Warmup 0 times;\n   *************  **   ~~~   **   during Sizing 0 times.\n   *************  **   ~~~   **   Max=-5.551115E-017 [C]  Min=-19.4 [C]\n   *************\n   *************  ** Warning ** CalcDoe2DXCoil: Coil:Cooling:DX:SingleSpeed=\"COIL COOLING DX SINGLE SPEED 2 2KBTU/HR 11.0EER\" - Low condenser dry-bulb temperature error continues...\n   *************  **   ~~~   **   This error occurred 175 total times;\n   *************  **   ~~~   **   during Warmup 0 times;\n   *************  **   ~~~   **   during Sizing 0 times.\n   *************  **   ~~~   **   Max=-2.500000E-002 [C]  Min=-6.425 [C]\n   *************\n   *************  ** Warning ** CalcDoe2DXCoil: Coil:Cooling:DX:SingleSpeed=\"COIL COOLING DX SINGLE SPEED 2 2KBTU/HR 11.0EER\" - Full load outlet temperature indicates a possibility of frost/freeze error continues. Outlet air temperature statistics follow:\n   *************  **   ~~~   **   This error occurred 98 total times;\n   *************  **   ~~~   **   during Warmup 0 times;\n   *************  **   ~~~   **   during Sizing 0 times.\n   *************  **   ~~~   **   Max=1.995723  Min=6.207612E-002\n   *************\n   *************  ** Warning ** CalcDoe2DXCoil: Coil:Cooling:DX:SingleSpeed=\"COIL COOLING DX SINGLE SPEED 12 18KBTU/HR 14.0SEER\" - Full load outlet temperature indicates a possibility of frost/freeze error continues. Outlet air temperature statistics follow:\n   *************  **   ~~~   **   This error occurred 558 total times;\n   *************  **   ~~~   **   during Warmup 0 times;\n   *************  **   ~~~   **   during Sizing 0 times.\n   *************  **   ~~~   **   Max=1.993178  Min=-3.72485\n   *************\n   *************  ** Warning ** CalcDoe2DXCoil: Coil:Cooling:DX:SingleSpeed=\"COIL COOLING DX SINGLE SPEED 18 87KBTU/HR 9.7EER\" - Full load outlet temperature indicates a possibility of frost/freeze error continues. Outlet air temperature statistics follow:\n   *************  **   ~~~   **   This error occurred 48 total times;\n   *************  **   ~~~   **   during Warmup 0 times;\n   *************  **   ~~~   **   during Sizing 0 times.\n   *************  **   ~~~   **   Max=1.968723  Min=-3.126536\n   *************\n   *************  ** Warning ** CalcDoe2DXCoil: Coil:Cooling:DX:SingleSpeed=\"COIL COOLING DX SINGLE SPEED 14 101KBTU/HR 9.7EER\" - Full load outlet temperature indicates a possibility of frost/freeze error continues. Outlet air temperature statistics follow:\n   *************  **   ~~~   **   This error occurred 23 total times;\n   *************  **   ~~~   **   during Warmup 0 times;\n   *************  **   ~~~   **   during Sizing 0 times.\n   *************  **   ~~~   **   Max=1.98436  Min=0.295988\n   *************\n   *************  ** Warning ** CalcDoe2DXCoil: Coil:Cooling:DX:SingleSpeed=\"COIL COOLING DX SINGLE SPEED 15 101KBTU/HR 9.7EER\" - Full load outlet temperature indicates a possibility of frost/freeze error continues. Outlet air temperature statistics follow:\n   *************  **   ~~~   **   This error occurred 27 total times;\n   *************  **   ~~~   **   during Warmup 0 times;\n   *************  **   ~~~   **   during Sizing 0 times.\n   *************  **   ~~~   **   Max=1.98436  Min=0.295988\n   *************\n   *************  ** Warning ** CalcDoe2DXCoil: Coil:Cooling:DX:SingleSpeed=\"COIL COOLING DX SINGLE SPEED 1 260KBTU/HR 8.21EER\" - Full load outlet temperature indicates a possibility of frost/freeze error continues. Outlet air temperature statistics follow:\n   *************  **   ~~~   **   This error occurred 26 total times;\n   *************  **   ~~~   **   during Warmup 0 times;\n   *************  **   ~~~   **   during Sizing 0 times.\n   *************  **   ~~~   **   Max=1.988044  Min=0.295988\n   *************\n   *************\n   ************* ===== Final Error Summary =====\n   ************* The following error categories occurred.  Consider correcting or noting.\n   ************* Nominally Unused Constructions\n   ************* ..The nominally unused constructions warning is provided to alert you to potential conditions that can cause\n   ************* ..extra time during simulation. Each construction is calculated by the algorithm indicated in the HeatBalanceAlgorithm\n   ************* ..object. You may remove the constructions indicated (when you use the DisplayExtraWarnings option).\n   *************\n   ************* EnergyPlus Warmup Error Summary. During Warmup: 0 Warning; 0 Severe Errors.\n   ************* EnergyPlus Sizing Error Summary. During Sizing: 163 Warning; 0 Severe Errors.\n   ************* EnergyPlus Completed Successfully-- 22147 Warning; 0 Severe Errors; Elapsed Time=00hr 03min 54.16sec\n",
   "file_format_version" : "0.0.1",
   "file_paths" : [ "../weather", "../seeds", "../seed" ],
   "hash" : "EE1BAB78",
   "measure_paths" : [ "../measures" ],
   "name" : "LHS Autogenerated 99",
   "osa_id" : "4fef0e0f-5396-4c55-a6e1-2cd6803db3ab",
   "osd_id" : "18c600d7-e268-4f04-a90d-df75fb27711c",
   "run_directory" : "./run",
   "seed_file" : "seed.osm",
   "started_at" : "20170710T182425Z",
   "steps" : [
      {
         "arguments" : {
            "__SKIP__" : false,
            "building_type" : "LargeHotel",
            "climate_zone" : "NECB HDD Method",
            "epw_file" : "CAN_NB_Fredericton.717000_CWEC.epw",
            "template" : "NECB 2011"
         },
         "measure_dir_name" : "create_prototype_building",
         "name" : "create_prototype_building",
         "result" : {
            "completed_at" : "20170710T182621Z",
            "measure_class_name" : "CreatePrototypeBuilding",
            "measure_display_name" : "Create Prototype Building",
            "measure_name" : "create_prototype_building",
            "measure_taxonomy" : "Whole Building.Space Types",
            "measure_type" : "ModelMeasure",
            "measure_uid" : "ae90fsd7-a651-467a-bc8d-29d310b0f937",
            "measure_version_id" : "c6ec5c18-5595-459f-a082-09a19c8c869c",
            "measure_version_modified" : "20170519T182315Z",
            "measure_xml_checksum" : "057E8D9D",
            "started_at" : "20170710T182428Z",
            "stderr" : "",
[...]
VWyyt6qosF5LVZaXO9Ki8+JhjOZ1XFx61q5yqalWmW3nWz518Vy31/M/regpzPH2qfv3tnfr3m9/eqtM3b9/99MsP6uc3P/x0rH48eXtSTuBVtmrrW8+0aCqNVBLFqZrMrrI6GKk80iRRXjLKmpdgMi6huLz2RufBzux11Hn5xSXW6SyeqKkXJ/pVGHlp2zNL/k52Kx88dp4/Vupirm/RHtguXsI64c+bTXq57z/z6Z5P9vYTX194szBV0zjK1jD9pKOefHNwcHx8cvJkw8EzxCEOcYhDHOIQhzjEIQ5xiPPnxFHJ7Cr7J7DytXlQ+d6dIYq1TxrSkIY0pCENaUhDGtKQhjSkKaa5yf806w805+FME4c4xCEOcYhDHOIQhzjEIQ5x6uDcf2+gY7438HQmfW9g38nfYXv+fG/v8JCkJCUpSUlKUpKSlKQkJSlJSUpSkm4HqZuTeqlE2stJ+33XPRiSlKQkJSlJSUpSkpKUpCQlKUlJStLtIO0b0ldxIJC6hzmp4+zv9/skJSlJSUpSkpKUpCQlKUlJSlKSknQ7SPcM6bvLmUR6kJMeZsfgBUlJSlKSkpSkJCUpSUlKUpKSlKQk3Q7SgSH9l/Yl0v2c9OXL4+P9fZKSlKQkJSlJSUpSkpKUpCQlKUlJuh2kw/w3EzMtkQ5z0uPj4ZCkJCUpSUlKUpKSlKQkJSlJSUpSkm4L6b4hfR1JyYLuICc9OHDdwYCkJCUpSUlKUpKSlKQkJSlJSUpSkjZGukTxY++mvVbstpsGaahPL72p7qb6Nm0/+TGaxcl6jLsvz3wZXOlJEkSTUCe5whqJp0/Vc99XnsqV1E2QXqokutLK7685M7ked73pVE/8dst4t3bWnLA8ul6axu3Wbaujhr2KJ91lJ7nlT0rSu1DP8Xa9yegyirPzW6G+qEC70LiIJunujQ7Gl6nROI9Cv7zG/N6cTndfeInOblCqTu+S3T31Kox3++p0dLl7on78NRxdpbuTKM5uwX9+Ub+cHL8wT0v1ldpTv57+R70Zjcxzn+wU3dTvnyajOJim/xCf8/1TP7j++rB4jiyWaanAP2qNTMUfZxfJCyY6PnOcXkvll+6o5QfJNPTungWTMBvbPQ+j0afvWjJgpjp/DSq9m2bnm6v39KN37c0fLTzTHNdebKpTHSk/uJqGujvRN6fX43brm69AdtRer5f/Z+10M7q+l3qZ8PvfW6F3rsPWs5avL7xZmKppHF0EoW515iNnt61nTrfXaV174Uwvfh6ZVSk7J1tojo9PTlqfO6V0XJBOH6SzB9IZgHSGIJ19kM4BSOcQpOP0UEKoinZQJe2gatpBFbWDqmoHVdYOqq4dVGE7qMp2UZXtwtZqVGW7qMp2K1W2SmZXVytfU11qR4u1X0FGvEbVZMQrVE1GvD7VZMR5X01GnPXVZMQ5X01GnPHVZMT5Xk1G3sgq6oDqWN7GKuqAKlnexCrqgGpZ3sIq6oCqWd7AKuqA6lnevirqoNZlUD3Le1dFnfL1fBNM0urb1rl5qLyOeHkq6oiXp6KOeHkq6ojTvaKOON0r6ojTvaKOON0r6ojTvaKOvH9VFUJVtLyDVRVC1bS8h1UVQlW1vItVFULVtbyPVRVCVba8k1UVgq3VqMqWN7OqQuUr+/59i7XfKyxtc72Vf+jNv3gYYOFu3qK/eYu9zVsMNm8x3LzF/uYtDjZvcbh5i5WdfVMeDcxvp4EJ7jQww50GprjTwBx3GpjkTgOz3GlgmjsNzHO3gXnuNrGPNzDP3QbmuVtvnq/9+sZybdX8+x0BFvLdgFnINwNmId8LmIW85MIs5BUXZiEvuDALeb2FWcjLLcyi4J1rnIf81h/OQ35XEOchv2GI82hgihe0VTiPBiZ5QVuF82hgmhe0Vbj9T26rcB5N7OMNbOQFbRXOo948X/stWeXaqvnXaAEs5LsBs5BvBsxCvhcwC3nJhVnIKy7MQl5wYRbyeguzkP82CmZR0FbhPOS2Cucht1U4D7mtwnnIf6KF85D/LhHnIf/JIs5D/mtGnIf8h444jwbmeUFbhfNoYh9vYCMvaKtwHvW28rVfRlKurZp/WwnAQr4bMAv5ZsAs5HsBs5DbKpiF3FbBLOS2CmYht1UwC3m5hVkUtFU4D7mtwnnIbRXOQ26rcB5yW4XzkNsqnIfcVuE85LYK5yG3VTiPBuZ5QVuF82hiH29gIy9oq3Ae9bbytZnv5dqqeSg8wEK+GzAL+WbALOR7AbOQ2yqYhdxWwSzktgpmIbdVMAt5uYVZFLRVOA+5rcJ5yG0VzkNuq3AecluF85DbKpyH3FbhPOS2Cucht1U4jwbmeUFbhfNoYh9vYCMvaKtwHvW28rXRuuXaqnn2LsBCvhswC/lmwCzkewGzkNsqmIXcVsEs5LYKZiG3VTALebmFWRS0VTgPua3CechtFc5DbqtwHnJbhfOQ2yqch9xW4TzktgrnIbdVOI8G5nlBW4XzaGIfb2AjL2ircB71tvK1CYbl2qp5xCHAQr4bMAv5ZsAs5HsBs5DbKpiF3FbBLOS2CmYht1Uwi6LcKZBFYdgayqMorQrlURRkhfIoyrhCeRTFX6E8ijLfUB5FcXAoj6KkOJRHUYgcyqOBeV7QVuE8mtjHG9jIC9oqnMf6rfxDmYTXRXizOlITfbNMkM2DY9vJ9biTJ8CujYpdJkAnOn0RzSZ+0h70OspxBh3VNz+5g3Jxs7cZxn2wte8fe6keR/Hd89sgmSco37/+EjHTmcCb2Nfx25kJNC59ouG4W+V4rb1kFus5hslkXlz3DUd8c5jDHOYwhznMYQ5zmMMc5jCHOcxhDnOYwxzmMIc5zGEOc5jDHOYwhznMYQ5zmMMc5jCHOcxhDnOYwxzmMIc5zGEOc5jDHOYwhznMYQ5z+E81fNeNrnUcB75+7ZkP1jrdnuXnVc1HY5PVj8ae6jjQyeLjta3O8gPE0zBKu2Ew0Ws/Ipt87XO66z9Zm3Tzr56fRqGXBtEkg2olqZ7unuuLKNatcp98/lmP9cRffUHzx9rDXkf1zSeXe+aDzOY/rVBfpAZsjfRStns21unJJDXXJ7O4mE1GOWl7R/2+RmJJqO/Pfr/2s9zmCC5UO70Mkm6S35VyRuZ4cFI3u34n3uiy/V/gqmpLfPPR8Yx9oXs2jZLACL7MHi7zapaHkfkKVRzdVENaYgUTX5v5sOt0Kp69PD7WPfEi0KGpt/bims7nyTiOZlPtq2+/VX9bPH7bPbv0ksXn380E23k4evfV0eyCdL3x+JXx6IZ6Mk4v1ffKVf9Uredh2FLPVp+RhMFIt3ednfe9Dztr59sXrySKVftj9lJ636mPmc2iVBe+5rG/ZytO9RtkDlPGC733Hz90P+k7dXR0NL949RRz1cVt/1j1pS6P81h7n+qc/LniOVWfb67X4tUdmbI2xbColDzIoXvmJUkwnmj/2EREJO/zK/mh3qVc3ujpLLls170X2S19Nr+f9WdSGD4r8yq75pl1XZI0jj7pcj7z59Z1iqbeKEjvylktnlz7VeUWS6u6KsuFZHVZqTM9Ki8+5lhO59WFR+0qp6palelWnvVzJ99VSz3/87qewhxPn6pff3un/v3mt7fq9M3bdz/98oP6+c0PPx2rH0/enpQTeJWt2vrWMy2aSiOVRHGqJrOrrA5GKo80SZSXjLLmJZiMSygur73RebAzex11Xn5xiXU6iydq6sWJfhVGXtr2zJK/k93KB4+d54+VupjrW7QHtouXsE7482aTXu77z3y655O9/cTXF94sTNU0jrI1TD/pqCffHBwcH5+cPNlw8AxxiEMc4hCHOMQhDnGIQxzi/DlxVDK7yv4JrHxtHlS+d2eIYu2ThjSkIQ1pSEMa0pCGNKQhDWmKaW7yP836A815ONPEIQ5xiEMc4hCHOMQhDnGIQ5w6OPffG+iY7w08nUnfG9h38nfYnj/f2zs8JClJSUpSkpKUpCQlKUlJSlKSkpSk20Hq5qReKpH2ctJ+33UPhiQlKUlJSlKSkpSkJCUpSUlKUpKSdDtI+4b0VRwIpO5hTuo4+/v9PklJSlKSkpSkJCUpSUlKUpKSlKQk3Q7SPUP67nImkR7kpIfZMXhBUpKSlKQkJSlJSUpSkpKUpCQlKUm3g3RgSP+lfYl0Pyd9+fL4eH+fpCQlKUlJSlKSkpSkJCUpSUlKUpJuB+kw/83ETEukw5z0+Hg4JClJSUpSkpKUpCQlKUlJSlKSkpSk20K6b0hfR1KyoDvISQ8OXHcwIClJSUpSkpKUpCQlKUlJSlKSkpSkjZEuUfzYu2mvFbvtpkEa6tNLb6q7qb5N209+jGZxsh7j7sszXwZXepIE0STUSa6wRuLpU/Xc95WnciV1E6SXKomutPL7a85MrsddbzrVE7/dMt6tnTUnLI+ul6Zxu3Xb6qhhr+JJd9lJbvmTkvQu1HO8XW8yuozi7PxWqC8q0C40LqJJunujg/FlajTOo9AvrzG/N6fT3eMojgM/is9ehfHZUJ3eJbt9lf28u6dOR5e7J+rHX8PRVbqbRLPsRvznF/XLyfEL87RUX6m++vX0P+rNaGSe+2Sn6NZ+/zQZxcE0/Yf4nO+f+sH114fFc2SxTEsF/lFrZOr+OLtUXjDR8ZnjOC2VX8Cjlh8k09C7exZMwmxs9zyMRp++a8mAmer8Naj0bpqdb67h04/etTd/tPBMc1x7salRdaT84Goa6u5E35xej9utb74C2VF7vV7+n7WTzuj6Xuplwu9/b4XeuQ5bz1q+vvBmYaqmcXQRhLrVmY+c3baeOd1ep3XthTO9+Hlk1qbsnGy5OT4+OWl97pTScUE6fZDOHkhnANIZgnT2QToHIJ1DkI7TQwmhKtpBlbSDqmkHVdQOqqodVFk7qLp2UIXtoCrbRVW2C1urUZXtoirbrVTZKpldXa18WXWpHS3WfgUZ8RpVkxGvUDUZ8fpUkxHnfTUZcdZXkxHnfDUZccZXkxHnezUZeSOrqAOqY3kbq6gDqmR5E6uoA6pleQurqAOqZnkDq6gDqmd5+6qog1qXQfUs710VdcrX800wSatvW+fmofI64uWpqCNenoo64uWpqCNO94o64nSvqCNO94o64nSvqCNO94o68v5VVQhV0fIOVlUIVdPyHlZVCFXV8i5WVQhV1/I+VlUIVdnyTlZVCLZWoypb3syqCpWv7Pt3L9Z+u7C0zfVW/qE3//phgIX8r1uYRX/zr2Jv8xaDzVsMN2+xv3mLg81bHG7eYmVn35RHA/O74BezOA/5N1s4D/mXXjgP+Te9OA/5l8A4D/n3wzgP+VfHOA/5t8q4/U/+hTPOQ/5dNM6jgXle8BtsnEe9rXztlziWext3/i2PAAv5bsAs5LYKZiHfC5iF3FbBLOS2CmYht1UwC7mtglnIbRXMoqCtwnk0ML8L2iqch7zc4jzktgrnIbdVOA+5rcJ5yG0VzkNuq3AecluF2//ktgrn0cQ+3sA8L2ircB715vna78oq11bNv0wLYOGKuwfMQm6rYBZyWwWzkNsqmIXcVsEs5LYKZiG3VTALua2CWRS0VTiPBuZ3QVuF85CXW5yHvNziPOS2Cucht1U4D7mtwnnIbRXOQ26rcPuf3FbhPJrYxxuY5wVtFc6j3jxf+5Uk5dqq+XeWACzktgpmIbdVMAu5rYJZyG0VzEJuq2AWclsFs5DbKpiF3FbBLAraKpxHA/O7oK3CecjLLc5DXm5xHnJbhfOQ2yqch9xW4TzktgrnIbdVuP1PbqtwHk3s4w3M84K2CudRb56vTX4v11bNo+EBFnJbBbOQ2yqYhdxWwSzktgpmIbdVMAu5rYJZyG0VzEJuq2AWBW0VzqOB+V3QVuE85OUW5yEvtzgPua3CechtFc5DbqtwHnJbhfOQ2yrc/ie3VTiPJvbxBuZ5QVuF86g3z9cG7JZrq+YJvAALua2CWchtFcxCbqtgFnJbBbOQ2yqYhdxWwSzktgpmIbdVMIuCtgrn0cD8LmircB7ycovzkJdbnIfcVuE85LYK5yG3VTgPua3CechtFW7/k9sqnEcT+3gD87ygrcJ51Jvna3MMy7VV86BDgIXcVsEs5LYKZiG3VTALua2CWchtFcxCbqtgFnJbBbOQ2yqYRUFbhfNoYH4XRrShPIoyrlAeRfFXKI+izDeUR1EcHMqjKCkO5VEUIofyKMqXQ+1/RdFzKI8m9vEG5nlhlh3KY/08/1Am4XUR4ayO1ETfLBNk8+DYdnI97uQJsGujYpc50IlOX0SziZ+0B72OcpxBR/XNT+6gXNzsbYZxH2/t+8deqsdRfPf8NkjmOcr3r79E2HQm8Cb2dfx2ZmKNS59oOO5WOV5rL5nFeo5hkpkX133DQd8c5jCHOcxhDnOYwxzmMIc5zGEOc5jDHOYwhznMYQ5zmMMc5jCHOcxhDnOYwxzmMIc5zGEOc5jDHOYwhznMYQ5zmMMc5jCHOcxhDnOYwxz+Uw3fdaNrHceBr1975oO1Trdn+XlV89HYZPWjsac6DnSy+Hhtq7P8APE0jNJuGEz02o/IJl/7nO76T9Ym3fyr56dR6KVBNMmgWkmqp7vn+iKKdavcJ59/1mM98Vdf0Pyx9rDXUX3zyeWe+SCz+U8r1BepAVsjvZTtno11ejJJzfXJLC5mk1FO2t5Rv6+RWBLq+7Pfr/0stzmCC9VOL4Okm+R3pZyROR6c1M2u34k3umz/F7iq2hLffHQ8Y1/onk2jJDCCL7OHy7ya5WFkvkIVRzfVkJZYwcTXZj7sOp2KZy+Pj3VPvAh0aOqtvbim83kyjqPZVPvq22/V3xaP33bPLr1k8fl3M8F2Ho7efXU0uyBdbzx+ZTy6oZ6M00v1vXLVP1XreRi21LPVZyRhMNLtXWfnfe/Dztr59sUriWLV/pi9lN536mNmsyjVha957O/ZilP9BpnDlPFC7/3HD91P+k4dHR3NL149xVx1cds/Vn2py+M81t6nOid/rnhO1eeb67V4dUemrE0xLColD3LonnlJEown2j82ERHJ+/xKfqh3KZc3ejpLLtt170V2S5/N72f9mRSGz8q8yq55Zl2XJI2jT7qcz/y5dZ2iqTcK0rtyVosn135VucXSqq7KciFZXVbqTI/Ki485ltN5deFRu8qpqlZlupVn/dzJd9VSz/+8rqcwx9On6tff3ql/v/ntrTp98/bdT7/8oH5+88NPx+rHk7cn5QReZau2vvVMi6bSSCVRnKrJ7Cqrg5HKI00S5SWjrHkJJuMSistrb3Qe7MxeR52XX1xinc7iiZp6caJfhZGXtj2z5O9kt/LBY+f5Y6Uu5voW7YHt4iWsE/682aSX+/4zn+75ZG8/8fWFNwtTNY2jbA3TTzrqyTcHB8fHJydPNhw8QxziEIc4xCEOcYhDHOIQhzh/ThyVzK6yfwIrX5sHle/dGaJY+6QhDWlIQxrSkIY0pCENaUhDmmKam/xPs/5Acx7ONHGIQxziEIc4xCEOcYhDHOIQpw7O/fcGOuZ7A09n0vcG9p38Hbbnz/f2Dg9JSlKSkpSkJCUpSUlKUpKSlKQkJel2kLo5qZdKpL2ctN933YMhSUlKUpKSlKQkJSlJSUpSkpKUpCTdDtK+IX0VBwKpe5iTOs7+fr9PUpKSlKQkJSlJSUpSkpKUpCQlKUm3g3TPkL67nEmkBznpYXYMXpCUpCQlKUlJSlKSkpSkJCUpSUlK0u0gHRjSf2lfIt3PSV++PD7e3ycpSUlKUpKSlKQkJSlJSUpSkpKUpNtBOsx/MzHTEukwJz0+Hg5JSlKSkpSkJCUpSUlKUpKSlKQkJem2kO4b0teRlCzoDnLSgwPXHQxISlKSkpSkJCUpSUlKUpKSlKQkJWljpEsUP/Zu2mvFbrtpkIb69NKb6m6qb9P2kx+jWZysx7j78syXwZWeJEE0CXWSK6yRePpUPfd95alcSd0E6aVKoiut/P6aM5PrcdebTvXEb7eMd2tnzQnLo+uladxu3bY6atireNJddpJb/qQkvQv1HG/Xm4wuozg7vxXqiwq0C42LaJLu3uhgfJkajfMo9MtrzO/N6XT3ZTAJJuOzV2F8NlSnd8luX2U/7+6p09Hl7gv146/h6CrdnURxdhv+84v65eT4hXlaqq9UX/16+h/1ZjQyz32yU3Rjv3+ajOJgmv5DfM73T/3g+uvD4jmyWKalAv+oNTJVf5xdKC+Y6PjMcdyWyi/fUcsPkmno3T0LJmE2tnseRqNP37VkwEx1/hpUejfNzjdX8OlH79qbP1p4pjmuvdhUqDpSfnA1DXV3om9Or8ft1jdfgeyovV4v/8/aKWd0fS/1MuH3v7dC71yHrWctX194szBV0zi6CELd6sxHzm5bz5xur9O69sKZXvw8MitTdk622Bwfn5y0PndK6bggnT5IZw+kMwDpDEE6+yCdA5DOIUjH6aGEUBXtoEraQdW0gypqB1XVDqqsHVRdO6jCdlCV7aIq24Wt1ajKdlGV7VaqbJXMrq5Wvqq61I4Wa7+CjHiNqsmIV6iajHh9qsmI876ajDjrq8mIc76ajDjjq8mI872ajLyRVdQB1bG8jVXUAVWyvIlV1AHVsryFVdQBVbO8gVXUAdWzvH1V1EGty6B6lveuijrl6/kmmKTVt61z81B5HfHyVNQRL09FHfHyVNQRp3tFHXG6V9QRp3tFHXG6V9QRp3tFHXn/qiqEqmh5B6sqhKppeQ+rKoSqankXqyqEqmt5H6sqhKpseSerKgRbq1GVLW9mVYXKV/b9exdrv1tY2uZ6K//Qm3/5MMBC/tctzKK/+Vext3mLweYthpu32N+8xcHmLQ43b7Gys2/Ko4H5XfCLWZyH/JstnIf8Sy+ch/ybXpyH/EtgnIf8+2Gch/yrY5yH/Ftl3P4n/8IZ5yH/Lhrn0cA8L/gNNs6j3la+9iscy72NO/+OR4CFfDdgFnJbBbOQ7wXMQm6rYBZyWwWzkNsqmIXcVsEs5LYKZlHQVuE8GpjfBW0VzkNebnEecluF85DbKpyH3FbhPOS2Cucht1U4D7mtwu1/cluF82hiH29gnhe0VTiPevN87TdllWur5l+lBbBwxd0DZiG3VTALua2CWchtFcxCbqtgFnJbBbOQ2yqYhdxWwSwK2iqcRwPzu6CtwnnIyy3OQ15ucR5yW4XzkNsqnIfcVuE85LYK5yG3Vbj9T26rcB5N7OMNzPOCtgrnUW+er/1CknJt1fwbSwAWclsFs5DbKpiF3FbBLOS2CmYht1UwC7mtglnIbRXMQm6rYBYFbRXOo4H5XdBW4Tzk5RbnIS+3OA+5rcJ5yG0VzkNuq3AecluF85DbKtz+J7dVOI8m9vEG5nlBW4XzqDfP1+a+l2ur5sHwAAu5rYJZyG0VzEJuq2AWclsFs5DbKpiF3FbBLOS2CmYht1Uwi4K2CufRwPwuaKtwHvJyi/OQl1uch9xW4TzktgrnIbdVOA+5rcJ5yG0Vbv+T2yqcRxP7eAPzvKCtwnnUm+dr43XLtVXz/F2AhdxWwSzktgpmIbdVMAu5rYJZyG0VzEJuq2AWclsFs5DbKphFQVuF82hgfhe0VTgPebnFecjLLc5DbqtwHnJbhfOQ2yqch9xW4Tzktgq3/8ltFc6jiX28gXle0FbhPOrN87UphuXaqnnMIcBCbqtgFnJbBbOQ2yqYhdxWwSzktgpmIbdVMAu5rYJZyG0VzKKgrcJ5NDC/CyPaUB5FGVcoj6L4K5RHUeYbyqMoDg7lUZQUh/IoCpFDeRTly6H2v6LoOZRHE/t4A/O8MMsO5bF+nn8ok/C6CHBWR2qib5YJsnlwbDu5HnfyBNi1UbHLFOhEpy+i2cRP2oNeRznOoKP65id3UC5u9jbDuA+39v1jL9XjKL57fhsk8xTl+9dfImo6E3gT+zp+OzOhxqVPNBx3qxyvtZfMYj3HMLnMi+u+4ZhvDnOYwxzmMIc5zGEOc5jDHOYwhznMYQ5zmMMc5jCHOcxhDnOYwxzmMIc5zGEOc5jDHOYwhznMYQ5zmMMc5jCHOcxhDnOYwxzmMIc5zGEO/6mG77rRtY7jwNevPfPBWqfbs/y8qvlobLL60dhTHQc6WXy8ttVZfoB4GkZpNwwmeu1HZJOvfU53/Sdrk27+1fPTKPTSIJpkUK0k1dPdc30RxbpV7pPPP+uxnvirL2j+WHvY66i++eRyz3yQ2fynFeqL1ICtkV7Kds/GOj2ZpOb6ZBYXs8koJ23vqN/XSCwJ9f3Z79d+ltscwYVqp5dB0k3yu1LOyBwPTupm1+/EG122/wtcVW2Jbz46nrEvdM+mURIYwZfZw2VezfIwMl+hiqObakhLrGDiazMfdp1OxbOXx8e6J14EOjT11l5c0/k8GcfRbKp99e236m+Lx2+7Z5desvj8u5lgOw9H7746ml2QrjcevzIe3VBPxuml+l656p+q9TwMW+rZ6jOSMBjp9q6z8773YWftfPvilUSxan/MXkrvO/Uxs1mU6sLXPPb3bMWpfoPMYcp4off+44fuJ32njo6O5hevnmKuurjtH6u+1OVxHmvvU52TP1c8p+rzzfVavLojU9amGBaVkgc5dM+8JAnGE+0fm4iI5H1+JT/Uu5TLGz2dJZftuvciu6XP5vez/kwKw2dlXmXXPLOuS5LG0Sddzmf+3LpO0dQbBeldOavFk2u/qtxiaVVXZbmQrC4rdaZH5cXHHMvpvLrwqF3lVFWrMt3Ks37u5Ltqqed/XtdTmOPpU/Xrb+/Uv9/89ladvnn77qdfflA/v/nhp2P148nbk3ICr7JVW996pkVTaaSSKE7VZHaV1cFI5ZEmifKSUda8BJNxCcXltTc6D3Zmr6POyy8usU5n8URNvTjRr8LIS9ueWfJ3slv54LHz/LFSF3N9i/bAdvES1gl/3mzSy33/mU/3fLK3n/j6wpuFqZrGUbaG6Scd9eSbg4Pj45OTJxsOniEOcYhDHOIQhzjEIQ5xiEOcPyeOSmZX2T+Bla/Ng8r37gxRrH3SkIY0pCENaUhDGtKQhjSkIU0xzU3+p1l/oDkPZ5o4xCEOcYhDHOIQhzjEIQ5xiFMH5/57Ax3zvYGnM+l7A/tO/g7b8+d7e4eHJCUpSUlKUpKSlKQkJSlJSUpSkpJ0O0jdnNRLJdJeTtrvu+7BkKQkJSlJSUpSkpKUpCQlKUlJSlKSbgdp35C+igOB1D3MSR1nf7/fJylJSUpSkpKUpCQlKUlJSlKSkpSk20G6Z0jfXc4k0oOc9DA7Bi9ISlKSkpSkJCUpSUlKUpKSlKQkJel2kA4M6b+0L5Hu56QvXx4f7++TlKQkJSlJSUpSkpKUpCQlKUlJStLtIB3mv5mYaYl0mJMeHw+HJCUpSUlKUpKSlKQkJSlJSUpSkpJ0W0j3DenrSEoWdAc56cGB6w4GJCUpSUlKUpKSlKQkJSlJSUpSkpK0MdIlih97N+21YrfdNEhDfXrpTXU31bdp+8mP0SxO1mPcfXnmy+BKT5IgmoQ6yRXWSDx9qp77vvJUrqRugvRSJdGVVn5/zZnJ9bjrTad64rdbxru1s+aE5dH10jRut25bHTXsVTzpLjvJLX9Skt6Feo63601Gl1Gcnd8K9UUF2oXGRTRJd290ML5MjcZ5FPrlNeb35nS6+/8F6ehST85ehfHZUJ3eJbt9lf28u6dOR5e7L9SPv4ajq3RXe0mq/vOL+uXk+IV5VqqvVF/9evof9WY0Mk99slN0Y79/moziYJr+Q3zO90/94Prrw+I5slimpQL/qDUyVX+cXSgvmOj4zHH6LZVfvqOWHyTT0Lt7FkzCbGz3PIxGn75ryYCZ6vw1qPRump1vruDTj961N3+08ExzXHuxqVB1pPzgahrq7kTfnF6P261vvgLZUXu9Xv6ftVPO6Ppe6mXC739vhd65DlvPWr6+8GZhqqZxdBGEutWZj5zdtp453V6nde2FM916Nhh0+4cPjv6g0xqZhSqTyNae4+OTk9bnTilZdzOy/c3I7m1GdrAZ2eFmZPc3I3uwGdnDzcg6vQ3pbmieORuaaM6GZpqzoanmbGiuORuabM6GZpuzoenmbGi+uRuab+6m9rUNzTd3Q/PNtZlvKpldXa18JXidziHWfgXVste3mmrZq1tNtey1raZadiWrplp2HaumWnYVq6Zadg2rplp2BaumWrphqCi7mdlVul2oKLuZ+VW6Wagou5kZVrpVqCi7mTlWulGoKLuZWVa6Tagou6E9bDOzrHSPUFG29iy7CSapdXtwbp5RXrbspa0oW/bSVpQte2krypZdwCrKll3AKsqWXcAqypZdwCrKll3AKsqW7hOq6m5onpXuFKrqbmimle4VqupuaK6V7haq6m5otpXuF6rqbmi+le4Yqupual/b0Hwr3TRU1a023z6UeeNi8b6kOlITfbN8YyR/P6SdXI87+Rsba98BWb65mej0RTSb+El70Osoxxl0VN/85A7KvYtym2Hcv2fr+8deqsdRfPf8Nkjmbw7eX4sS76BmAm9iX8dvZ+a9utInGo67VY7X2ktmsZ5jmLcbF/fA9j3h/A2pVatTHQc6WeBmTosbMg2jtGveJVtrmXztda8nTbp54U2j0EuDaJJBtZJUT3fP9UUU61a5SvpZj/XEX31B88faw6wK+qYSzJtqjvnP4i3Xte9GL2W7Z2OdnkxSc30yi4vZZJSTtnfU7yXeczWE+v7s92vnhjmCC9VOL4Mkq2tzXjkjczw4qZtdvxNvdNn+L3BVtSX+4j3Ghe7ZNEoCI/gye7jMq1keRuYrVHF0Uw1piRVMfG0m7q7TqXj28vhY98SLQIem3tqLazqfJ+M4mk21r779Vv1t8fht9+zSSxbriZlgOw9H7746ml2QrjcevzIe3VBPxuml+l656p+q9TwMW+rZ6jOSMBjp9q6z8773YWftfPvilUSxan/MXkrvO/Uxs1mU6sLXPPb3I+VUv0HmMGW80Hv/8UP3k86Wt6Oj+cWrp5irLm77x6ovdXmcx9r7VOfkzxXPqfp8c70Wr+7IlLUphkWl5Btj92z+90Taz/+iKHmfX8kP9S7l8kZPZ8llu+69yG7ps/n9rD+TwvBZmVfZNc+s65KkcfRJl/OZP7euUzT1RkF6V85q8eTaryq3WFrVVVkuJKvLSp3pUXnxMcdyOq8uPGpXOVXVqky38qyfO/muWur5n9f1FOZ4+lT9+ts79e83v71Vp2/evvvplx/Uz29++OlY/Xjy9qScwKts1da3nmnRVBqpJMoa6cnsKquDkcpbxER5yShrXoLJuITi8tobnQc7s9dR5+UXl1ins3iipl6c6Fdh5KVtzyz5O9mtfPDYef5YqYu5vkV7YLt4CeuEP/8P/u7zD+/YLv6407wB+z/5M1TiEIc4xCEOcYhDHOIQhzjE2XqcL//yxRDF2icNaUhDGtKQhjSkIQ1pSEMa0hTTfPE3gYbG/IkfcYhDHOIQhzjEIQ5xiEMc4hDnf5i2+E5fTXXspbNYq/arHeYtPq68xdl0Gt6p50GszI3akszEvW3ITNxrLDMx/7luOBNIpw/S2QPpDEA6Q5DOPkjnAKRzCNJZyRSwEkJVtIMqaQdV0w6qqB1UVTuosnZQde2gCttBVbaLqmwXtlajKttFVbZbqbLLZ/mtSNUP77OQEa9Q/Xg+Cxlx3tcP4LOQEed8/Yg9CxlxvluE6NnogOpY3sYscvFsdEClLO9hFlF3NjqgapY3MIv0Opt1EFTP8u5lEUhnowOqZ3nrqp8xtyJjESpnoyNeHovYOBsdcbpbBMPZ6IjT3SL6zUZHnO424W5WQqiKlncwm7w2KyFUUcubmE0Em5UQqq7lfcwmVc1qZURVtryV2QSlWQmhKlvezb4Quv++J8d839PpTPq+p75T7veNz5/v7R0eAizkf93CLOR/98Is5H8Rwyzk3wLBLOTfD8Es5N8cwSzk3ynBLOTfNsEsCn7FivNoYH4X/GIW59HADC/4dS7Oo4E5XvBLYJxHA7O84FfHOI8G5nnBL5xxHk3s4w3M84LfYOM86s1zN/fwUsmjV66t6vdd92AIsJDvBsxCvhkwC/lewCzkJRdmIa+4MAt5wYVZyOstzEJebmEWBW0VzqOB+V3QVuE8GpjhBW0VzqOBOV7QVuE8GpjlBW0VzqOBeV7QVuE8mtjHG5jnBW0VzqPePO8bj1dxIH07+WG5tspx9vf7fYCFfDdgFvLNgFnI9wJmIS+5MAt5xYVZyAsuzEJeb2EW8nILsyhoq3AeDczvgrYK59HADC9oq3AeDczxgrYK59HALC9oq3AeDczzgrYK59HEPt7APC9oq3Ae9eb5nvF4dzmTPA7KtVXmG5cGLwAW8t2AWcg3A2Yh3wuYhbzkwizkFRdmIS+4MAt5vYVZyMstzKKgrcJ5NDC/C9oqnEcDM7ygrcJ5NDDHC9oqnEcDs7ygrcJ5NDDPC9oqnEcT+3gD87ygrcJ51JvnA+PxL+1LHvvl2qqXL4+P9/cBFvLdgFnINwNmId8LmIW85MIs5BUXZiEvuDALeb2FWcjLLcyioK3CeTQwvwvaKpxHAzO8oK3CeTQwxwvaKpxHA7O8oK3CeTQwzwvaKpxHE/t4A/O8oK3CedSb58O8dZtpyWNYrq06Ph4OIRby3YBZyDcDZiHfC5iFvOTCLOQVF2YhL7gwC3m9hVnIyy3MoqCtwnk0ML8L2iqcRwMzvKCtwnk0MMcL2iqcRwOzvKCtwnk0MM8L2iqcRxP7eAPzvKCtwnnUm+f7xuN1JP1ZvDso11YdHLjuYACwKMq5AVkUJeCALIqycUAWRXlQIIuipCiQRVGGFMiiKF0KZFGUOwWyKAxbQ3k0ML8LI9pQHg3M8MJgN5RHA3O8MA4O5dHALC8MkUN5NDDPC6PnUB5N7OMNzPPCLDuUx/p5/qFMwusihlkdqYm+WSbI5sGx7eR63MkTYNdGxS6znBOdvohmEz9pD3od5TiDjuqbn9xBubjZ2wzjPofa94+9VI+j+O75bZDMk5DvX3+JwOhM4E3s6/jtzAQTlz7RcNytcrzWXjKL9RzDZCsvrvuGE7k5zGEOc5jDHOYwhznMYQ5zmMMc5jCHOcxhDnOYwxzmMIc5zGEOc5jDHOYwhznMYQ5zmMMc5jCHOcxhDnOYwxzmMIc5zGEOc5jDHOYwhzn8pxq+60bXOo4DX7/2zAdrnW7P8vOq5qOxyepHY091HOhk8fHaVmf5AeJpGKXdMJjotR+RTb72Od31n6xNuvlXz0+j0EuDaJJBtZJUT3fP9UUU61a5Tz7/rMd64q++oPlj7WGvo/rmk8s980Fm859WqC9SA7ZGeinbPRvr9GSSmuuTWVzMJqOctL2jfl8jsSTU92e/X/tZbnMEF6qdXgZJN8nvSjkjczw4qZtdvxNvdNn+L3BVtSW++eh4xr7QPZtGSWAEX2YPl3k1y8PIfIUqjm6qIS2xgomvzXzYdToVz14eH+ueeBHo0NRbe3FN5/NkHEezqfbVt9+qvy0ev+2eXXrJ4vPvZoLtPBy9++podkG63nj8ynh0Qz0Zp5fqe+Wqf6rW8zBsqWerz0jCYKTbu87O+96HnbXz7YtXEsWq/TF7Kb3v1MfMZlGqC1/z2N+zFaf6DTKHKeOF3vuPH7qf9J06OjqaX7x6irnq4rZ/rPpSl8d5rL1PdU7+XPGcqs8312vx6o5MWZtiWFRKHuTQPfOSJBhPtH9sIiKS9/mV/FDvUi5v9HSWXLbr3ovslj6b38/6MykMn5V5lV3zzLouSRpHn3Q5n/lz6zpFU28UpHflrBZPrv2qcoulVV2V5UKyuqzUmR6VFx9zLKfz6sKjdpVTVa3KdCvP+rmT76qlnv95XU9hjqdP1a+/vVP/fvPbW3X65u27n375Qf385oefjtWPJ29Pygm8ylZtfeuZFk2lkUqiOFWT2VVWByOVR5okyktGWfMSTMYlFJfX3ug82Jm9jjovv7jEOp3FEzX14kS/CiMvbXtmyd/JbuWDx87zx0pdzPUt2gPbxUtYJ/x5s0kv9/1nPt3zyd5+4usLbxamahpH2Rqmn3TUk28ODo6PT06ebDh4hjjEIQ5xiEMc4hCHOMQhDnH+nDgqmV1l/wRWvjYPKt+7M0Sx9klDGtKQhjSkIQ1pSEMa0pCGNMU0N/mfZv2B5jycaeIQhzjEIQ5xiEMc4hCHOMQhTh2c++8NdMz3Bp7OpO8N7Dv5O2zPn+/tHR6SlKQkJSlJSUpSkpKUpCQlKUlJStLtIHVzUi+VSHs5ab/vugdDkpKUpCQlKUlJSlKSkpSkJCUpSUm6HaR9Q/oqDgRS9zAndZz9/X6fpCQlKUlJSlKSkpSkJCUpSUlKUpJuB+meIX13OZNID3LSw+wYvCApSUlKUpKSlKQkJSlJSUpSkpKUpNtBOjCk/9K+RLqfk758eXy8v09SkpKUpCQlKUlJSlKSkpSkJCUpSbeDdJj/ZmKmJdJhTnp8PBySlKQkJSlJSUpSkpKUpCQlKUlJStJtId03pK8jKVnQHeSkBweuOxiQlKQkJSlJSUpSkpKUpCQlKUlJStLGSJcofuzdtNeK3XbTIA316aU31d1U36btJz9GszhZj3H35Zkvgys9SYJoEuokV1gj8fSpeu77ylO5kroJ0kuVRFda+f01ZybX4643neqJ324Z79bOmhOWR9dL07jdum111LBX8aS77CS3/ElJehfqOd6uNxldRnF2fivUFxVoFxoX0STdvdHB+DI1GudR6JfXmN+b//P8/8wv8Ft9qb1UvRmN1Ono8slO0U36/mkyioNp+g/xOd8/9YPrrw+L58himZYK/KPWyFTwcfaivWCi4zPHGbRUfimOWn6QTEPv7lkwCbOx3fMwGn36riUDZqrz16DSu2l2vrkaTz9619780cIzzXHtxaba1JHyg6tpqLsTfXN6PW63vvkKZEft9Xr5f9ZOH6Pre6mXCb//vRV65zpsPWv5+sKbhamaxtFFEOpWZz5ydtt65nR7nda1F85069nwsHv44Dg47LRGZs3JFLJl5Pj45KT1uVNK1d2Ian8jqnsbUR1sRHW4EdX9jagebET1cCOqTm8zspuZXc5mppezmfnlbGaCOZuZYc5mppizmTnmbGaSOZuZZe5mZpm7oT1sM7PM3cwscy1mmUpmV1crX+Ndo0OItV9BtOS1rSZa8spWEy15XauJlly7qomWXLmqiZZct6qJlly1qomWXLOqiZZtDCqqbmROlW0LKqpuZFaVbQoqqm5kXpVtCSqqbmRmlW0IKqpuZG6VbQcqqm5mv9rI3CrbC1RUrTu3boJJatsGnJsnlFcteVkrqpa8rBVVS17Wiqoll6yKqiWXrIqqJZesiqoll6yKqiWXrIqqZfuBqrKbmV1lO4KqspuZX2V7gqqym5lhZbuCqrKbmWNl+4KqspuZZWU7g6qyG9rDNjPLyjYHVWUrzbIPZd5wWLw3qI7URN8s39DI38doJ9fjTv6GxNp3LpZvMCY6fRHNJn7SHvQ6ynEGHdU3P7mDcu9+3GYY9++b+v6xl+pxFN89vw2S+Rt095eixLuYmcCb2Nfx25l5v6z0iYbjbpXjtfaSWaznGOYtv8UtsH1fNn8jadXqVMeBTha4mdPihkzDKO2ad7fWWiZfe93rSZNuXnfTKPTSIJpkUK0k1dPdc30RxbpVrpJ+1mM98Vdf0Pyx9jCrgr6pBPNmmGP+s3jbc+07wkvZ7tlYpyeT1FyfzOJiNhnlpO0d9XuJ9z0Nob4/+/3auWGO4EK108sgyeranFfOyBwPTupm1+/EG122/wtcVW2Jv3hvcKF7No2SwAi+zB4u82qWh5H5ClUc3VRDWmIFE1+bibvrdCqevTw+1j3xItChqbf24prO58k4jmZT7atvv1V/Wzx+2z279JLFemIm2M7D0buvjmYXpOuNx6+MRzfUk3F6qb5Xrvqnaj0Pw5Z6tvqMJAxGur3r7LzvfdhZO9++eCVRrNofs5fS+059zGwWpbrwNY/9/Ug51W+QOUwZL/Tef/zQ/aSz5e3oaH7x6inmqovb/rHqS10e57H2PtU5+XPFc6o+31yvxas7MmVtimFRKfnG2D2b/02P9vO/6kne51fyQ71LubzR01ly2a57L7Jb+mx+P+vPpDB8VuZVds0z67okaRx90uV85s+t6xRNvVGQ3pWzWjy59qvKLZZWdVWWC8nqslJnelRefMyxnM6rC4/aVU5VtSrTrTzr506+q5Z6/ud1PYU5nj5Vv/72Tv37zW9v1embt+9++uUH9fObH346Vj+evD0pJ/AqW7X1rWdaNJVGKomyRnoyu8rqYKTyFjFRXjLKmpdgMi6huLz2RufBzux11Hn5xSXW6SyeqKkXJ/pVGHlp2zNL/k52Kx88dp4/Vupirm/RHtguXsI64c//g7+9/MMbsIs/sDRvqP5P/hSUOMQhDnGIQxziEIc4xCEOcbYe58s/cDFEsfZJQxrSkIY0pCENaUhDGtKQhjTFNF/8SaChMX/iRxziEIc4xCEOcYhDHOIQhzjE+R8mHr7TV1Mde+ks1qr9aoeZh48q8/Bfnqm4H3X+P8+vzgM9SZW5ZSb5UPuz7Prvqv3eqy0JQRxuQwjisLEQxPyjp3VDmEA6fZDOHkhnANIZgnT2QToHIJ1DkM5KuoCVEKqiHVRJO6iadlBF7aCq2kGVtYOqawdV2A6qsl1UZbuwtRpV2S6qst1KlV0+tG9Fqn5Mn4WMeIXqR/FZyIjzvn7cnoWMOOfrR+pZyIjz3SI2z0YHVMfyNmYRhmejAypleQ+ziLiz0QFVs7yBWQTX2ayDoHqWdy+LODobHVA9y1tX/ZC5FRmLWDkbHfHyWETH2eiI090iHs5GR5zuFhFwNjridLeJebMSQlW0vIPZhLdZCaGKWt7EbCLZrIRQdS3vYzZBa1YrI6qy5a3MJj7NSghV2fJuxlC0rQhF4zCHOcxhDnOYwxzmMIc5zGEOc5jDHObwYxq+60bXOo4DX7/2zC+qnG6PofgPXglD8e8PhuJXOhiKz1D8CgdD8f94MBT/jwdD8SseDMVnKP5XD4biE4c4xCEOcYhDHOIQhzjEIQ5xtiFSkjSkIQ1pSEMa0pCGNKQhDWm2h+YvE2VJHOIQhzjEIQ5xiEMc4hCHOPX9/geh+C+DKz1JgmgS6iRhJP7jisSP4k/q5OIiGAV6Mrq7D8JvNgJ/8ew/jDz8/8uf5/97r7744f5/ziP/zvzvZXoV/uP/+f8BeeO2ug=="
               },
               {
                  "name" : "annual_peak_electric_demand",
                  "units" : "kW",
                  "value" : 276.52458000000001
               },
               {
                  "name" : "first_year_capital_cost",
                  "units" : "$",
                  "value" : 0
               },
               {
                  "name" : "annual_utility_cost",
                  "units" : "$",
                  "value" : 0
               },
               {
                  "name" : "total_lifecycle_cost",
                  "units" : "$",
                  "value" : 0
               }
            ],
            "step_warnings" : []
         }
      }
   ],
   "updated_at" : "20170710T183113Z",
   "weather_file" : "USA_CO_Denver.Intl.AP.725650_TMY3.epw"
}
