{
   "completed_at" : "20170710T183129Z",
   "completed_status" : "Success",
   "created_at" : "2017-07-10 18:29:23 +0000",
   "current_step" : 5,
   "description" : "",
   "eplusout_err" : "Program Version,EnergyPlus, Version 8.7.0-78a111df4a, YMD=2017.07.10 18:30,IDD_Version 8.7.0\n   ************* IDF Context for following error/warning message:\n   ************* Note -- lines truncated at 300 characters, if necessary...\n   *************      5 Building,\n   ************* indicated Name=NECB 2011-SmallOffice-NECB HDD Method-CAN_BC_Summerland.717680_CWEC.epw created: 2017-07-10 18:29:28 +0000\n   ************* Only last 1 lines before error line shown.....\n   *************      6   NECB 2011-SmallOffice-NECB HDD Method-CAN_BC_Summerland.717680_CWEC.epw created: 2017-07-10 18:29:28 +0000, !- Name\n   ** Warning ** IP: IDF line~6 Alpha Argument length exceeds maximum, will be truncated=  NECB 2011-SmallOffice-NECB HDD Method-CAN_BC_Summerland.717680_CWEC.epw created: 2017-07-10 18:29:28 +000\n   **   ~~~   ** Will be processed as Alpha=NECB 2011-SMALLOFFICE-NECB HDD METHOD-CAN_BC_SUMMERLAND.717680_CWEC.EPW CREATED: 2017-07-10 18:29:28 +0000\n   ************* Beginning Zone Sizing Calculations\n   ** Warning ** ProcessScheduleInput: Schedule:Day:Interval=\"ECONOMIZER MAX OA FRACTION 100 PCT DEFAULT\", Blank Schedule Type Limits Name input -- will not be validated.\n   ** Warning ** ProcessScheduleInput: Schedule:Day:Interval=\"SCHEDULE DAY 1\", Blank Schedule Type Limits Name input -- will not be validated.\n   ** Warning ** ProcessScheduleInput: Schedule:Day:Interval=\"SCHEDULE DAY 10\", Blank Schedule Type Limits Name input -- will not be validated.\n   ** Warning ** ProcessScheduleInput: Schedule:Day:Interval=\"SCHEDULE DAY 11\", Blank Schedule Type Limits Name input -- will not be validated.\n   ** Warning ** ProcessScheduleInput: Schedule:Day:Interval=\"SCHEDULE DAY 12\", Blank Schedule Type Limits Name input -- will not be validated.\n   ** Warning ** ProcessScheduleInput: Schedule:Day:Interval=\"SCHEDULE DAY 13\", Blank Schedule Type Limits Name input -- will not be validated.\n   ** Warning ** ProcessScheduleInput: Schedule:Day:Interval=\"SCHEDULE DAY 14\", Blank Schedule Type Limits Name input -- will not be validated.\n   ** Warning ** ProcessScheduleInput: Schedule:Day:Interval=\"SCHEDULE DAY 15\", Blank Schedule Type Limits Name input -- will not be validated.\n   ** Warning ** ProcessScheduleInput: Schedule:Day:Interval=\"SCHEDULE DAY 16\", Blank Schedule Type Limits Name input -- will not be validated.\n   ** Warning ** ProcessScheduleInput: Schedule:Day:Interval=\"SCHEDULE DAY 17\", Blank Schedule Type Limits Name input -- will not be validated.\n   ** Warning ** ProcessScheduleInput: Schedule:Day:Interval=\"SCHEDULE DAY 18\", Blank Schedule Type Limits Name input -- will not be validated.\n   ** Warning ** ProcessScheduleInput: Schedule:Day:Interval=\"SCHEDULE DAY 19\", Blank Schedule Type Limits Name input -- will not be validated.\n   ** Warning ** ProcessScheduleInput: Schedule:Day:Interval=\"SCHEDULE DAY 2\", Blank Schedule Type Limits Name input -- will not be validated.\n   ** Warning ** ProcessScheduleInput: Schedule:Day:Interval=\"SCHEDULE DAY 20\", Blank Schedule Type Limits Name input -- will not be validated.\n   ** Warning ** ProcessScheduleInput: Schedule:Day:Interval=\"SCHEDULE DAY 21\", Blank Schedule Type Limits Name input -- will not be validated.\n   ** Warning ** ProcessScheduleInput: Schedule:Day:Interval=\"SCHEDULE DAY 22\", Blank Schedule Type Limits Name input -- will not be validated.\n   ** Warning ** ProcessScheduleInput: Schedule:Day:Interval=\"SCHEDULE DAY 23\", Blank Schedule Type Limits Name input -- will not be validated.\n   ** Warning ** ProcessScheduleInput: Schedule:Day:Interval=\"SCHEDULE DAY 5\", Blank Schedule Type Limits Name input -- will not be validated.\n   ** Warning ** ProcessScheduleInput: Schedule:Day:Interval=\"SCHEDULE DAY 6\", Blank Schedule Type Limits Name input -- will not be validated.\n   ** Warning ** ProcessScheduleInput: Schedule:Day:Interval=\"SCHEDULE DAY 7\", Blank Schedule Type Limits Name input -- will not be validated.\n   ** Warning ** ProcessScheduleInput: Schedule:Day:Interval=\"SCHEDULE DAY 8\", Blank Schedule Type Limits Name input -- will not be validated.\n   ** Warning ** ProcessScheduleInput: Schedule:Day:Interval=\"SCHEDULE DAY 9\", Blank Schedule Type Limits Name input -- will not be validated.\n   ** Warning ** ProcessScheduleInput: Schedule:Year=\"ECONOMIZER MAX OA FRACTION 100 PCT\", Blank Schedule Type Limits Name input -- will not be validated.\n   ** Warning ** ProcessScheduleInput: Schedule:Year=\"SCHEDULE RULESET 10\", Blank Schedule Type Limits Name input -- will not be validated.\n   ** Warning ** ProcessScheduleInput: Schedule:Year=\"SCHEDULE RULESET 11\", Blank Schedule Type Limits Name input -- will not be validated.\n   ** Warning ** ProcessScheduleInput: Schedule:Year=\"SCHEDULE RULESET 12\", Blank Schedule Type Limits Name input -- will not be validated.\n   ** Warning ** ProcessScheduleInput: Schedule:Year=\"SCHEDULE RULESET 13\", Blank Schedule Type Limits Name input -- will not be validated.\n   ** Warning ** ProcessScheduleInput: Schedule:Year=\"SCHEDULE RULESET 14\", Blank Schedule Type Limits Name input -- will not be validated.\n   ** Warning ** ProcessScheduleInput: Schedule:Year=\"SCHEDULE RULESET 15\", Blank Schedule Type Limits Name input -- will not be validated.\n   ** Warning ** ProcessScheduleInput: Schedule:Year=\"SCHEDULE RULESET 16\", Blank Schedule Type Limits Name input -- will not be validated.\n   ** Warning ** ProcessScheduleInput: Schedule:Year=\"SCHEDULE RULESET 17\", Blank Schedule Type Limits Name input -- will not be validated.\n   ** Warning ** ProcessScheduleInput: Schedule:Year=\"SCHEDULE RULESET 3\", Blank Schedule Type Limits Name input -- will not be validated.\n   ** Warning ** ProcessScheduleInput: Schedule:Year=\"SCHEDULE RULESET 4\", Blank Schedule Type Limits Name input -- will not be validated.\n   ** Warning ** ProcessScheduleInput: Schedule:Year=\"SCHEDULE RULESET 5\", Blank Schedule Type Limits Name input -- will not be validated.\n   ** Warning ** ProcessScheduleInput: Schedule:Year=\"SCHEDULE RULESET 6\", Blank Schedule Type Limits Name input -- will not be validated.\n   ** Warning ** ProcessScheduleInput: Schedule:Year=\"SCHEDULE RULESET 7\", Blank Schedule Type Limits Name input -- will not be validated.\n   ** Warning ** ProcessScheduleInput: Schedule:Year=\"SCHEDULE RULESET 8\", Blank Schedule Type Limits Name input -- will not be validated.\n   ** Warning ** ProcessScheduleInput: Schedule:Year=\"SCHEDULE RULESET 9\", Blank Schedule Type Limits Name input -- will not be validated.\n   ** Warning ** ProcessScheduleInput: Schedule:Constant=\"ALWAYS OFF DISCRETE\", Blank Schedule Type Limits Name input -- will not be validated.\n   ** Warning ** ProcessScheduleInput: Schedule:Constant=\"ALWAYS ON CONTINUOUS\", Blank Schedule Type Limits Name input -- will not be validated.\n   ** Warning ** CheckUsedConstructions: There are 22 nominally unused constructions in input.\n   **   ~~~   ** For explicit details on each unused construction, use Output:Diagnostics,DisplayExtraWarnings;\n   ************* Beginning System Sizing Calculations\n   ************* Beginning Plant Sizing Calculations\n   ** Warning ** GetDXCoils: Coil:Cooling:DX:SingleSpeed=\"COIL COOLING DX SINGLE SPEED 5 17KBTU/HR 14.0SEER\", invalid\n   **   ~~~   ** ...Part Load Fraction Correlation Curve Name = DXCOOL-NECB2011-REF-COOLPLFFPLR 4 has out of range value.\n   **   ~~~   ** ...Curve maximum must be <= 1.0, curve max at PLR = 0.99 is 1.015\n   **   ~~~   ** ...Setting curve maximum to 1.0 and simulation continues.\n   ** Warning ** GetDXCoils: Coil:Cooling:DX:SingleSpeed=\"COIL COOLING DX SINGLE SPEED 4 20KBTU/HR 14.0SEER\", invalid\n   **   ~~~   ** ...Part Load Fraction Correlation Curve Name = DXCOOL-NECB2011-REF-COOLPLFFPLR 3 has out of range value.\n   **   ~~~   ** ...Curve maximum must be <= 1.0, curve max at PLR = 0.99 is 1.015\n   **   ~~~   ** ...Setting curve maximum to 1.0 and simulation continues.\n   ** Warning ** GetDXCoils: Coil:Cooling:DX:SingleSpeed=\"COIL COOLING DX SINGLE SPEED 2 18KBTU/HR 14.0SEER\", invalid\n   **   ~~~   ** ...Part Load Fraction Correlation Curve Name = DXCOOL-NECB2011-REF-COOLPLFFPLR 1 has out of range value.\n   **   ~~~   ** ...Curve maximum must be <= 1.0, curve max at PLR = 0.99 is 1.015\n   **   ~~~   ** ...Setting curve maximum to 1.0 and simulation continues.\n   ** Warning ** GetDXCoils: Coil:Cooling:DX:SingleSpeed=\"COIL COOLING DX SINGLE SPEED 1 16KBTU/HR 14.0SEER\", invalid\n   **   ~~~   ** ...Part Load Fraction Correlation Curve Name = DXCOOL-NECB2011-REF-COOLPLFFPLR has out of range value.\n   **   ~~~   ** ...Curve maximum must be <= 1.0, curve max at PLR = 0.99 is 1.015\n   **   ~~~   ** ...Setting curve maximum to 1.0 and simulation continues.\n   ** Warning ** GetDXCoils: Coil:Cooling:DX:SingleSpeed=\"COIL COOLING DX SINGLE SPEED 3 21KBTU/HR 14.0SEER\", invalid\n   **   ~~~   ** ...Part Load Fraction Correlation Curve Name = DXCOOL-NECB2011-REF-COOLPLFFPLR 2 has out of range value.\n   **   ~~~   ** ...Curve maximum must be <= 1.0, curve max at PLR = 0.99 is 1.015\n   **   ~~~   ** ...Setting curve maximum to 1.0 and simulation continues.\n   ** Warning ** The Standard Ratings is calculated for Coil:Cooling:DX:SingleSpeed = COIL COOLING DX SINGLE SPEED 5 17KBTU/HR 14.0SEER but not at the AHRI test condition due to curve out of bound.\n   **   ~~~   **  Review the Standard Ratings calculations in the Engineering Reference for this coil type. Also, use Output:Diagnostics, DisplayExtraWarnings for further guidance.\n   ** Warning ** The Standard Ratings is calculated for Coil:Cooling:DX:SingleSpeed = COIL COOLING DX SINGLE SPEED 4 20KBTU/HR 14.0SEER but not at the AHRI test condition due to curve out of bound.\n   **   ~~~   **  Review the Standard Ratings calculations in the Engineering Reference for this coil type. Also, use Output:Diagnostics, DisplayExtraWarnings for further guidance.\n   ** Warning ** The Standard Ratings is calculated for Coil:Cooling:DX:SingleSpeed = COIL COOLING DX SINGLE SPEED 2 18KBTU/HR 14.0SEER but not at the AHRI test condition due to curve out of bound.\n   **   ~~~   **  Review the Standard Ratings calculations in the Engineering Reference for this coil type. Also, use Output:Diagnostics, DisplayExtraWarnings for further guidance.\n   ** Warning ** The Standard Ratings is calculated for Coil:Cooling:DX:SingleSpeed = COIL COOLING DX SINGLE SPEED 1 16KBTU/HR 14.0SEER but not at the AHRI test condition due to curve out of bound.\n   **   ~~~   **  Review the Standard Ratings calculations in the Engineering Reference for this coil type. Also, use Output:Diagnostics, DisplayExtraWarnings for further guidance.\n   ** Warning ** The Standard Ratings is calculated for Coil:Cooling:DX:SingleSpeed = COIL COOLING DX SINGLE SPEED 3 21KBTU/HR 14.0SEER but not at the AHRI test condition due to curve out of bound.\n   **   ~~~   **  Review the Standard Ratings calculations in the Engineering Reference for this coil type. Also, use Output:Diagnostics, DisplayExtraWarnings for further guidance.\n   ** Warning ** Check input. Pump nominal power or motor efficiency is set to 0, for pump=SERVICE WATER LOOP PUMP\n   ** Warning ** Output:Meter: invalid Name=\"DISTRICTCOOLING:FACILITY\" - not found.\n   ** Warning ** Output:Meter: invalid Name=\"DISTRICTHEATING:FACILITY\" - not found.\n   ** Warning ** Output:Meter:MeterFileOnly requested for \"Electricity:Facility\" (TimeStep), already on \"Output:Meter\". Will report to both eplusout.eso and eplusout.mtr\n   ************* Testing Individual Branch Integrity\n   ************* All Branches passed integrity testing\n   ************* Testing Individual Supply Air Path Integrity\n   ************* All Supply Air Paths passed integrity testing\n   ************* Testing Individual Return Air Path Integrity\n   ************* All Return Air Paths passed integrity testing\n   ************* No node connection errors were found.\n   ************* Beginning Simulation\n   ** Warning ** CalcDoe2DXCoil: Coil:Cooling:DX:SingleSpeed \"COIL COOLING DX SINGLE SPEED 4 20KBTU/HR 14.0SEER\" - Air-cooled condenser inlet dry-bulb temperature below 0 C. Outdoor dry-bulb temperature = -0.60\n   **   ~~~   **  ... Occurrence info = RUN PERIOD 1, 01/02 06:03 - 06:05\n   **   ~~~   ** ... Operation at low ambient temperatures may require special performance curves.\n   ** Warning ** CalcDoe2DXCoil: Coil:Cooling:DX:SingleSpeed \"COIL COOLING DX SINGLE SPEED 2 18KBTU/HR 14.0SEER\" - Air-cooled condenser inlet dry-bulb temperature below 0 C. Outdoor dry-bulb temperature = -0.60\n   **   ~~~   **  ... Occurrence info = RUN PERIOD 1, 01/02 06:03 - 06:05\n   **   ~~~   ** ... Operation at low ambient temperatures may require special performance curves.\n   ** Warning ** CalcDoe2DXCoil: Coil:Cooling:DX:SingleSpeed \"COIL COOLING DX SINGLE SPEED 1 16KBTU/HR 14.0SEER\" - Air-cooled condenser inlet dry-bulb temperature below 0 C. Outdoor dry-bulb temperature = -0.60\n   **   ~~~   **  ... Occurrence info = RUN PERIOD 1, 01/02 06:03 - 06:05\n   **   ~~~   ** ... Operation at low ambient temperatures may require special performance curves.\n   ** Warning ** CalcDoe2DXCoil: Coil:Cooling:DX:SingleSpeed \"COIL COOLING DX SINGLE SPEED 3 21KBTU/HR 14.0SEER\" - Air-cooled condenser inlet dry-bulb temperature below 0 C. Outdoor dry-bulb temperature = -0.60\n   **   ~~~   **  ... Occurrence info = RUN PERIOD 1, 01/02 06:03 - 06:05\n   **   ~~~   ** ... Operation at low ambient temperatures may require special performance curves.\n   ** Warning ** CalcDoe2DXCoil: Coil:Cooling:DX:SingleSpeed \"COIL COOLING DX SINGLE SPEED 5 17KBTU/HR 14.0SEER\" - Air-cooled condenser inlet dry-bulb temperature below 0 C. Outdoor dry-bulb temperature = -0.60\n   **   ~~~   **  ... Occurrence info = RUN PERIOD 1, 01/02 21:15 - 21:18\n   **   ~~~   ** ... Operation at low ambient temperatures may require special performance curves.\n   ** Warning ** CalcDoe2DXCoil: Coil:Cooling:DX:SingleSpeed \"COIL COOLING DX SINGLE SPEED 5 17KBTU/HR 14.0SEER\" - Full load outlet air dry-bulb temperature < 2C. This indicates the possibility of coil frost/freeze. Outlet temperature = 1.86 C.\n   **   ~~~   **  ...Occurrence info = RUN PERIOD 1, 01/02 21:30 - 21:35\n   **   ~~~   ** ... Possible reasons for low outlet air dry-bulb temperatures are: This DX coil\n   **   ~~~   **    1) may have a low inlet air dry-bulb temperature. Inlet air temperature = 15.252 C.\n   **   ~~~   **    2) may have a low air flow rate per watt of cooling capacity. Check inputs.\n   **   ~~~   **    3) is used as part of a HX assisted cooling coil which uses a high sensible effectiveness. Check inputs.\n   ** Warning ** CalcDoe2DXCoil: Coil:Cooling:DX:SingleSpeed \"COIL COOLING DX SINGLE SPEED 1 16KBTU/HR 14.0SEER\" - Full load outlet air dry-bulb temperature < 2C. This indicates the possibility of coil frost/freeze. Outlet temperature = 1.94 C.\n   **   ~~~   **  ...Occurrence info = RUN PERIOD 1, 01/02 21:45 - 21:52\n   **   ~~~   ** ... Possible reasons for low outlet air dry-bulb temperatures are: This DX coil\n   **   ~~~   **    1) may have a low inlet air dry-bulb temperature. Inlet air temperature = 15.278 C.\n   **   ~~~   **    2) may have a low air flow rate per watt of cooling capacity. Check inputs.\n   **   ~~~   **    3) is used as part of a HX assisted cooling coil which uses a high sensible effectiveness. Check inputs.\n   ************* Simulation Error Summary *************\n   ************* There are 9 unused schedules in input.\n   ************* There are 9 unused week schedules in input.\n   ************* There are 16 unused day schedules in input.\n   ************* Use Output:Diagnostics,DisplayUnusedSchedules; to see them.\n   *************\n   ************* ===== Recurring Error Summary =====\n   ************* The following recurring error messages occurred.\n   *************\n   *************  ** Warning ** CalcDoe2DXCoil: Coil:Cooling:DX:SingleSpeed=\"COIL COOLING DX SINGLE SPEED 4 20KBTU/HR 14.0SEER\" - Low condenser dry-bulb temperature error continues...\n   *************  **   ~~~   **   This error occurred 174 total times;\n   *************  **   ~~~   **   during Warmup 0 times;\n   *************  **   ~~~   **   during Sizing 0 times.\n   *************  **   ~~~   **   Max=-0.1 [C]  Min=-12.2 [C]\n   *************\n   *************  ** Warning ** CalcDoe2DXCoil: Coil:Cooling:DX:SingleSpeed=\"COIL COOLING DX SINGLE SPEED 2 18KBTU/HR 14.0SEER\" - Low condenser dry-bulb temperature error continues...\n   *************  **   ~~~   **   This error occurred 371 total times;\n   *************  **   ~~~   **   during Warmup 0 times;\n   *************  **   ~~~   **   during Sizing 0 times.\n   *************  **   ~~~   **   Max=-2.500000E-002 [C]  Min=-12.75 [C]\n   *************\n   *************  ** Warning ** CalcDoe2DXCoil: Coil:Cooling:DX:SingleSpeed=\"COIL COOLING DX SINGLE SPEED 1 16KBTU/HR 14.0SEER\" - Low condenser dry-bulb temperature error continues...\n   *************  **   ~~~   **   This error occurred 286 total times;\n   *************  **   ~~~   **   during Warmup 0 times;\n   *************  **   ~~~   **   during Sizing 0 times.\n   *************  **   ~~~   **   Max=-2.500000E-002 [C]  Min=-12.2 [C]\n   *************\n   *************  ** Warning ** CalcDoe2DXCoil: Coil:Cooling:DX:SingleSpeed=\"COIL COOLING DX SINGLE SPEED 3 21KBTU/HR 14.0SEER\" - Low condenser dry-bulb temperature error continues...\n   *************  **   ~~~   **   This error occurred 151 total times;\n   *************  **   ~~~   **   during Warmup 0 times;\n   *************  **   ~~~   **   during Sizing 0 times.\n   *************  **   ~~~   **   Max=-0.1 [C]  Min=-12.2 [C]\n   *************\n   *************  ** Warning ** CalcDoe2DXCoil: Coil:Cooling:DX:SingleSpeed=\"COIL COOLING DX SINGLE SPEED 5 17KBTU/HR 14.0SEER\" - Low condenser dry-bulb temperature error continues...\n   *************  **   ~~~   **   This error occurred 284 total times;\n   *************  **   ~~~   **   during Warmup 0 times;\n   *************  **   ~~~   **   during Sizing 0 times.\n   *************  **   ~~~   **   Max=-2.500000E-002 [C]  Min=-12.2 [C]\n   *************\n   *************  ** Warning ** CalcDoe2DXCoil: Coil:Cooling:DX:SingleSpeed=\"COIL COOLING DX SINGLE SPEED 5 17KBTU/HR 14.0SEER\" - Full load outlet temperature indicates a possibility of frost/freeze error continues. Outlet air temperature statistics follow:\n   *************  **   ~~~   **   This error occurred 203 total times;\n   *************  **   ~~~   **   during Warmup 0 times;\n   *************  **   ~~~   **   during Sizing 0 times.\n   *************  **   ~~~   **   Max=1.989571  Min=-1.638988\n   *************\n   *************  ** Warning ** CalcDoe2DXCoil: Coil:Cooling:DX:SingleSpeed=\"COIL COOLING DX SINGLE SPEED 1 16KBTU/HR 14.0SEER\" - Full load outlet temperature indicates a possibility of frost/freeze error continues. Outlet air temperature statistics follow:\n   *************  **   ~~~   **   This error occurred 45 total times;\n   *************  **   ~~~   **   during Warmup 0 times;\n   *************  **   ~~~   **   during Sizing 0 times.\n   *************  **   ~~~   **   Max=1.981431  Min=-0.11427\n   *************\n   *************\n   ************* ===== Final Error Summary =====\n   ************* The following error categories occurred.  Consider correcting or noting.\n   ************* Nominally Unused Constructions\n   ************* ..The nominally unused constructions warning is provided to alert you to potential conditions that can cause\n   ************* ..extra time during simulation. Each construction is calculated by the algorithm indicated in the HeatBalanceAlgorithm\n   ************* ..object. You may remove the constructions indicated (when you use the DisplayExtraWarnings option).\n   *************\n   ************* EnergyPlus Warmup Error Summary. During Warmup: 0 Warning; 0 Severe Errors.\n   ************* EnergyPlus Sizing Error Summary. During Sizing: 41 Warning; 0 Severe Errors.\n   ************* EnergyPlus Completed Successfully-- 1570 Warning; 0 Severe Errors; Elapsed Time=00hr 00min 41.52sec\n",
   "file_format_version" : "0.0.1",
   "file_paths" : [ "../weather", "../seeds", "../seed" ],
   "hash" : "B9B3C31C",
   "measure_paths" : [ "../measures" ],
   "name" : "LHS Autogenerated 212",
   "osa_id" : "4fef0e0f-5396-4c55-a6e1-2cd6803db3ab",
   "osd_id" : "193a9b3c-5954-48ae-a39b-6d61fff8c8cd",
   "run_directory" : "./run",
   "seed_file" : "seed.osm",
   "started_at" : "20170710T182926Z",
   "steps" : [
      {
         "arguments" : {
            "__SKIP__" : false,
            "building_type" : "SmallOffice",
            "climate_zone" : "NECB HDD Method",
            "epw_file" : "CAN_BC_Summerland.717680_CWEC.epw",
            "template" : "NECB 2011"
         },
         "measure_dir_name" : "create_prototype_building",
         "name" : "create_prototype_building",
         "result" : {
            "completed_at" : "20170710T183016Z",
            "measure_class_name" : "CreatePrototypeBuilding",
            "measure_display_name" : "Create Prototype Building",
            "measure_name" : "create_prototype_building",
            "measure_taxonomy" : "Whole Building.Space Types",
            "measure_type" : "ModelMeasure",
            "measure_uid" : "ae90fsd7-a651-467a-bc8d-29d310b0f937",
            "measure_version_id" : "c6ec5c18-5595-459f-a082-09a19c8c869c",
            "measure_version_modified" : "20170519T182315Z",
            "measure_xml_checksum" : "057E8D9D",
            "started_at" : "20170710T182928Z",
            "stderr" : "",
            "stdout" : "[OpenStudio.Measure] <0> OSArgumentVector is deprecated, use OpenStudio::Measure::OSArgumentVector instead.\n[openstudio.EpwFile] <0> Successive data points (1966-Jan-31 to 1965-Feb-01, ending on line 753) are greater than 1 day apart in EPW file '/usr/local/bundle/bundler/gems/openstudio-standards-f448df66933d/openstudio-standards/data/weather/CAN_BC_Summerland.717680_CWEC.epw'. Data will be treated as typical (TMY)\n[openstudio.setFileExtension] <0> Path p, '/usr/local/bundle/bundler/gems/openstudio-standards-f448df66933d/openstudio-standards/data/weather/CAN_BC_Summerland.717680_CWEC.ddy', has an unexpected file extension. Was expecting 'idf'.\n[openstudio.model.YearDescription] <1> 'UseWeatherFile' is not yet a supported option for YearDescription\n[openstudio.model.YearDescription] <1> 'UseWeatherFile' is not yet a supported option for YearDescription\n[openstudio.setFileExtension] <0> Path p, '/usr/local/bundle/bundler/gems/openstudio-standards-f448df66933d/openstudio-standards/data/weather/CAN_BC_Summerland.717680_CWEC.ddy', has an unexpected file extension. Was expecting 'idf'.\n[openstudio.model.YearDescription] <1> 'UseWeatherFile' is not yet a supported option for YearDescription\n[openstudio.model.YearDescription] <1> 'UseWeatherFile' is not yet a supported option for YearDescription\n[openstudio.EpwFile] <0> Successive data points (1966-Jan-31 to 1965-Feb-01, ending on line 753) are greater than 1 day apart in EPW file '/usr/local/bundle/bundler/gems/openstudio-standards-f448df66933d/openstudio-standards/data/weather/CAN_BC_Summerland.717680_CWEC.epw'. Data will be treated as typical (TMY)\n[openstudio.weather.Model] <0> Could not find ground temperatures; will use generic temperatures, which will skew results.\n[openstudio.setFileExtension] <0> Path p, '/usr/local/bundle/bundler/gems/openstudio-standards-f448df66933d/openstudio-standards/data/weather/CAN_BC_Summerland.717680_CWEC.ddy', has an unexpected file extension. Was expecting 'idf'.\n[openstudio.model.YearDescription] <1> 'UseWeatherFile' is not yet a supported option for YearDescription\n[openstudio.model.YearDescription] <1> 'UseWeatherFile' is not yet a supported option for YearDescription\n[openstudio.EpwFile] <0> Successive data points (1966-Jan-31 to 1965-Feb-01, ending on line 753) are greater than 1 day apart in EPW file '/usr/local/bundle/bundler/gems/openstudio-standards-f448df66933d/openstudio-standards/data/weather/CAN_BC_Summerland.717680_CWEC.epw'. Data will be treated as typical (TMY)\n[openstudio.setFileExtension] <0> Path p, '/usr/local/bundle/bundler/gems/openstudio-standards-f448df66933d/openstudio-standards/data/weather/CAN_BC_Summerland.717680_CWEC.ddy', has an unexpected file extension. Was expecting 'idf'.\n[openstudio.model.YearDescription] <1> 'UseWeatherFile' is not yet a supported option for YearDescription\n[openstudio.model.YearDescription] <1> 'UseWeatherFile' is not yet a supported option for YearDescription\n[openstudio.setFileExtension] <0> Path p, '/usr/local/bundle/bundler/gems/openstudio-standards-f448df66933d/openstudio-standards/data/weather/CAN_BC_Summerland.717680_CWEC.ddy', has an unexpected file extension. Was expecting 'idf'.\n[openstudio.model.YearDescription] <1> 'UseWeatherFile' is not yet a supported option for YearDescription\n[openstudio.model.YearDescription] <1> 'UseWeatherFile' is not yet a supported option for YearDescription\n[openstudio.EpwFile] <0> Successive data points (1966-Jan-31 to 1965-Feb-01, ending on line 753) are greater than 1 day apart in EPW file '/usr/local/bundle/bundler/gems/openstudio-standards-f448df66933d/openstudio-standards/data/weather/CAN_BC_Summerland.717680_CWEC.epw'. Data will be treated as typical (TMY)\n[openstudio.setFileExtension] <0> Path p, '/usr/local/bundle/bundler/gems/openstudio-standards-f448df66933d/openstudio-standards/data/weather/CAN_BC_Summerland.717680_CWEC.ddy', has an unexpected file extension. Was expecting 'idf'.\n[openstudio.model.YearDescription] <1> 'UseWeatherFile' is not yet a supported option for YearDescription\n[openstudio.model.YearDescription] <1> 'UseWeatherFile' is not yet a supported option for YearDescription\n[openstudio.setFileExtension] <0> Path p, '/usr/local/bundle/bundler/gems/openstudio-standards-f448df66933d/openstudio-standards/data/weather/CAN_BC_Summerland.717680_CWEC.ddy', has an unexpected file extension. Was expecting 'idf'.\n[openstudio.model.YearDescription] <1> 'UseWeatherFile' is not yet a supported option for YearDescription\n[openstudio.model.YearDescription] <1> 'UseWeatherFile' is not yet a supported option for YearDescription\n[utilities.idf.WorkspaceObject] <0> Object of type 'Schedule:Constant' and named 'Always Off Discrete', points to an object named OnOff 1 from field 1, but that object cannot be located.\n[utilities.idf.WorkspaceObject] <0> Object of type 'Schedule:Constant' and named 'Always On Continuous', points to an object named Fractional 1 from field 1, but that object cannot be located.\n[utilities.idf.WorkspaceObject] <0> Object of type 'Schedule:Constant' and named 'Always Off Discrete', points to an object named OnOff 1 from field 1, but that object cannot be located.\n[utilities.idf.WorkspaceObject] <0> Object of type 'Schedule:Constant' and named 'Always On Continuous', points to an object named Fractional 1 from field 1, but that object cannot be located.\n[openstudio.standards.Fan] <0> For Fan Constant Volume 1, there is no greater nominal HP.  Use the efficiency of the largest motor category.\n[openstudio.standards.Fan] <0> For Fan Constant Volume 2, there is no greater nominal HP.  Use the efficiency of the largest motor category.\n[openstudio.standards.Fan] <0> For Fan Constant Volume 3, there is no greater nominal HP.  Use the efficiency of the largest motor category.\n[openstudio.standards.Fan] <0> For Fan Constant Volume 4, there is no greater nominal HP.  Use the efficiency of the largest motor category.\n[openstudio.standards.Fan] <0> For Fan Constant Volume 5, there is no greater nominal HP.  Use the efficiency of the largest motor category.\n[openstudio.EpwFile] <0> Successive data points (1966-Jan-31 to 1965-Feb-01, ending on line 753) are greater than 1 day apart in EPW file '/usr/local/bundle/bundler/gems/openstudio-standards-f448df66933d/openstudio-standards/data/weather/CAN_BC_Summerland.717680_CWEC.epw'. Data will be treated as typical (TMY)\n[openstudio.setFileExtension] <0> Path p, '/usr/local/bundle/bundler/gems/openstudio-standards-f448df66933d/openstudio-standards/data/weather/CAN_BC_Summerland.717680_CWEC.ddy', has an unexpected file extension. Was expecting 'idf'.\n[openstudio.model.YearDescription] <1> 'UseWeatherFile' is not yet a supported option for YearDescription\n[openstudio.model.YearDescription] <1> 'UseWeatherFile' is not yet a supported option for YearDescription\n[openstudio.setFileExtension] <0> Path p, '/usr/local/bundle/bundler/gems/openstudio-standards-f448df66933d/openstudio-standards/data/weather/CAN_BC_Summerland.717680_CWEC.ddy', has an unexpected file extension. Was expecting 'idf'.\n[openstudio.model.YearDescription] <1> 'UseWeatherFile' is not yet a supported option for YearDescription\n[openstudio.model.YearDescription] <1> 'UseWeatherFile' is not yet a supported option for YearDescription\n[openstudio.EpwFile] <0> Successive data points (1966-Jan-31 to 1965-Feb-01, ending on line 753) are greater than 1 day apart in EPW file '/usr/local/bundle/bundler/gems/openstudio-standards-f448df66933d/openstudio-standards/data/weather/CAN_BC_Summerland.717680_CWEC.epw'. Data will be treated as typical (TMY)\n[openstudio.setFileExtension] <0> Path p, '/usr/local/bundle/bundler/gems/openstudio-standards-f448df66933d/openstudio-standards/data/weather/CAN_BC_Summerland.717680_CWEC.ddy', has an unexpected file extension. Was expecting 'idf'.\n[openstudio.model.YearDescription] <1> 'UseWeatherFile' is not yet a supported option for YearDescription\n[openstudio.model.YearDescription] <1> 'UseWeatherFile' is not yet a supported option for YearDescription\n[openstudio.setFileExtension] <0> Path p, '/usr/local/bundle/bundler/gems/openstudio-standards-f448df66933d/openstudio-standards/data/weather/CAN_BC_Summerland.717680_CWEC.ddy', has an unexpected file extension. Was expecting 'idf'.\n[openstudio.model.YearDescription] <1> 'UseWeatherFile' is not yet a supported option for YearDescription\n[openstudio.model.YearDescription] <1> 'UseWeatherFile' is not yet a supported option for YearDescription\n[openstudio.EpwFile] <0> Successive data points (1966-Jan-31 to 1965-Feb-01, ending on line 753) are greater than 1 day apart in EPW file '/usr/local/bundle/bundler/gems/openstudio-standards-f448df66933d/openstudio-standards/data/weather/CAN_BC_Summerland.717680_CWEC.epw'. Data will be treated as typical (TMY)\n[openstudio.setFileExtension] <0> Path p, '/usr/local/bundle/bundler/gems/openstudio-standards-f448df66933d/openstudio-standards/data/weather/CAN_BC_Summerland.717680_CWEC.ddy', has an unexpected file extension. Was expecting 'idf'.\n[openstudio.model.YearDescription] <1> 'UseWeatherFile' is not yet a supported option for YearDescription\n[openstudio.model.YearDescription] <1> 'UseWeatherFile' is not yet a supported option for YearDescription\n[openstudio.setFileExtension] <0> Path p, '/usr/local/bundle/bundler/gems/openstudio-standards-f448df66933d/openstudio-standards/data/weather/CAN_BC_Summerland.717680_CWEC.ddy', has an unexpected file extension. Was expecting 'idf'.\n[openstudio.model.YearDescription] <1> 'UseWeatherFile' is not yet a supported option for YearDescription\n[openstudio.model.YearDescription] <1> 'UseWeatherFile' is not yet a supported option for YearDescription\n[openstudio.EpwFile] <0> Successive data points (1966-Jan-31 to 1965-Feb-01, ending on line 753) are greater than 1 day apart in EPW file '/usr/local/bundle/bundler/gems/openstudio-standards-f448df66933d/openstudio-standards/data/weather/CAN_BC_Summerland.717680_CWEC.epw'. Data will be treated as typical (TMY)\n[openstudio.setFileExtension] <0> Path p, '/usr/local/bundle/bundler/gems/openstudio-standards-f448df66933d/openstudio-standards/data/weather/CAN_BC_Summerland.717680_CWEC.ddy', has an unexpected file extension. Was expecting 'idf'.\n[openstudio.model.YearDescription] <1> 'UseWeatherFile' is not yet a supported option for YearDescription\n[openstudio.model.YearDescription] <1> 'UseWeatherFile' is not yet a supported option for YearDescription\n[openstudio.setFileExtension] <0> Path p, '/usr/local/bundle/bundler/gems/openstudio-standards-f448df66933d/openstudio-standards/data/weather/CAN_BC_Summerland.717680_CWEC.ddy', has an unexpected file extension. Was expecting 'idf'.\n[openstudio.model.YearDescription] <1> 'UseWeatherFile' is not yet a supported option for YearDescription\n[openstudio.model.YearDescription] <1> 'UseWeatherFile' is not yet a supported option for YearDescription\n[openstudio.EpwFile] <0> Successive data points (1966-Jan-31 to 1965-Feb-01, ending on line 753) are greater than 1 day apart in EPW file '/usr/local/bundle/bundler/gems/openstudio-standards-f448df66933d/openstudio-standards/data/weather/CAN_BC_Summerland.717680_CWEC.epw'. Data will be treated as typical (TMY)\n[openstudio.setFileExtension] <0> Path p, '/usr/local/bundle/bundler/gems/openstudio-standards-f448df66933d/openstudio-standards/data/weather/CAN_BC_Summerland.717680_CWEC.ddy', has an unexpected file extension. Was expecting 'idf'.\n[openstudio.model.YearDescription] <1> 'UseWeatherFile' is not yet a supported option for YearDescription\n[openstudio.model.YearDescription] <1> 'UseWeatherFile' is not yet a supported option for YearDescription\n[openstudio.setFileExtension] <0> Path p, '/usr/local/bundle/bundler/gems/openstudio-standards-f448df66933d/openstudio-standards/data/weather/CAN_BC_Summerland.717680_CWEC.ddy', has an unexpected file extension. Was expecting 'idf'.\n[openstudio.model.YearDescription] <1> 'UseWeatherFile' is not yet a supported option for YearDescription\n[openstudio.model.YearDescription] <1> 'UseWeatherFile' is not yet a supported option for YearDescription\n[openstudio.standards.Fan] <0> For Fan Constant Volume 1, there is no greater nominal HP.  Use the efficiency of the largest motor category.\n[openstudio.standards.Fan] <0> For Fan Constant Volume 2, there is no greater nominal HP.  Use the efficiency of the largest motor category.\n[openstudio.standards.Fan] <0> For Fan Constant Volume 3, there is no greater nominal HP.  Use the efficiency of the largest motor category.\n[openstudio.standards.Fan] <0> For Fan Constant Volume 4, there is no greater nominal HP.  Use the efficiency of the largest motor category.\n[openstudio.standards.Fan] <0> For Fan Constant Volume 5, there is no greater nominal HP.  Use the efficiency of the largest motor category.\n",
            "step_errors" : [],
            "step_files" : [],
            "step_info" : [
               "Started adding geometry",
               "Finished adding geometry",
               "Started adding weather file for climate zone: NECB HDD Method.",
               "Template =",
               "Setting Attic to Space Function.- undefined -",
               "Setting Core_ZN to Space Function.Office - enclosed",
               "Setting Perimeter_ZN_1 to Space Function.Office - enclosed",
               "Setting Perimeter_ZN_2 to Space Function.Office - enclosed",
               "Setting Perimeter_ZN_3 to Space Function.Office - enclosed",
               "Setting Perimeter_ZN_4 to Space Function.Office - enclosed",
               "Started applying space types (loads)",
               "Space Function - undefined - had no ventilation specification, one has been created.",
               "Space Function - undefined - had no infiltration objects, one has been created.",
               "Space Function - undefined - set infiltration to 0.0 per ft^2 exterior surface area.",
               "Space Function - undefined - set infiltration schedule to Always On.",
               "Space Function Office - enclosed had no people, one has been created.",
               "Space Function Office - enclosed set occupancy to 4.65 people/1000 ft^2.",
               "Space Function Office - enclosed had no lights, one has been created.",
               "Space Function Office - enclosed set LPD to 1.105536975 W/ft^2.",
               "Space Function Office - enclosed had no electric equipment, one has been created.",
               "Space Function Office - enclosed set electric EPD to 0.696767001 W/ft^2.",
               "Space Function Office - enclosed had no ventilation specification, one has been created.",
               "Space Function Office - enclosed set ventilation per area to 0.085 cfm/ft^2.",
               "Space Function Office - enclosed had no infiltration objects, one has been created.",
               "Space Function Office - enclosed set infiltration to 0.0 per ft^2 exterior surface area.",
               "Space Function Office - enclosed set occupancy schedule to NECB-A-Occupancy.",
               "Space Function Office - enclosed set occupant activity schedule to NECB-Activity.",
               "Space Function Office - enclosed set lighting schedule to NECB-A-Lighting.",
               "Space Function Office - enclosed set electric equipment schedule to NECB-A-Electric-Equipment.",
               "Space Function Office - enclosed set infiltration schedule to Always On.",
               "Space Function Office - enclosed set heating setpoint schedule to NECB-A-Thermostat Setpoint-Heating.",
               "Space Function Office - enclosed set cooling setpoint schedule to NECB-A-Thermostat Setpoint-Cooling.",
               "Finished applying space types (loads)",
               "For NECB 2011, no exterior wall area was found, no infiltration will be added.",
               "Started applying constructions",
               "Adding construction set: NECB 2011-NECB HDD Method-Office--is_residentialNo",
               "Adding construction Typical Insulated Exterior Mass Floor R-15.63.",
               "Adding construction Typical Insulated Exterior Mass Wall R-12.5.",
               "Adding construction Typical Insulated Metal Building Roof R-20.41.",
               "Adding construction Typical Interior Floor.",
               "Adding construction Typical Interior Wall.",
               "Adding construction Typical Interior Ceiling.",
               "Adding construction Typical Insulated Carpeted 6in Slab Floor.",
               "Adding construction U 0.55 SHGC 0.31 Dbl Ref-D Tint 6mm/6mm Air.",
               "Adding construction Typical Insulated Metal Door R-1.43.",
               "Adding construction U 0.35 SHGC 0.35 Dbl LoE (e2-.1) Tint 6mm/13mm Air.",
               "Adding construction Typical Overhead Door R-2.0.",
               "Adding construction U 0.48 SHGC 0.40 Dbl Ref-D Clr 6mm/13mm.",
               "Adding construction Typical Interior Window.",
               "Adding construction Typical Interior Door.",
               "Adding construction Typical Interior Partition.",
               "Finished applying constructions",
               "WWR NonRes = 0%; window = 0 ft2, wall = 0 ft2.",
               "WWR Res = 0%; window = 0 ft2, wall = 0 ft2.",
               "WWR Semiheated = 0%; window = 0 ft2, wall = 0 ft2.",
               "The skylight to roof ratios (SRRs) are: NonRes: 0%, Res: 0%.",
               "Started creating thermal zones",
               "Finished creating thermal zones",
               "Running simulation /mnt/openstudio/analysis_4fef0e0f-5396-4c55-a6e1-2cd6803db3ab/data_point_193a9b3c-5954-48ae-a39b-6d61fff8c8cd/run/000_create_prototype_building/output/SmallOffice-NECB 2011-NECB HDD Method-CAN_BC_Summerland.717680_CWEC.epw/SR0.",
               "Finished run.",
               "Started Adding HVAC",
               "Finished adding HVAC",
               "Started Adding Service Water Heating",
               "Adding service water loop.",
               "Adding water heater.",
               "Template =",
               "Finished adding Service Water Heating",
               "Set sizing factors to 1.3 for heating and 1.3 for cooling.",
               "Running simulation /mnt/openstudio/analysis_4fef0e0f-5396-4c55-a6e1-2cd6803db3ab/data_point_193a9b3c-5954-48ae-a39b-6d61fff8c8cd/run/000_create_prototype_building/output/SmallOffice-NECB 2011-NECB HDD Method-CAN_BC_Summerland.717680_CWEC.epw/SR1.",
               "Finished run.",
               "Started applying multizone vav OA sizing.",
               "Finished applying multizone vav OA sizing.",
               "Started applying prototype HVAC assumptions.",
               "For Fan Constant Volume 1: allowed_hp = 1.01HP; motor eff = 61.5%; total fan eff = 40% based on 598 cfm.",
               "For Fan Constant Volume 2: allowed_hp = 1.01HP; motor eff = 61.5%; total fan eff = 40% based on 679 cfm.",
               "For Fan Constant Volume 3: allowed_hp = 1.01HP; motor eff = 61.5%; total fan eff = 40% based on 772 cfm.",
               "For Fan Constant Volume 4: allowed_hp = 1.01HP; motor eff = 61.5%; total fan eff = 40% based on 757 cfm.",
               "For Fan Constant Volume 5: allowed_hp = 1.01HP; motor eff = 61.5%; total fan eff = 40% based on 634 cfm.",
               "Sp-Perimeter_ZN_4 Sys-3 Flr-1 Sch-A HPlcmt-west ZN NECB System 3 PSZ does not require an economizer because the total cooling capacity of 20567 Btu/hr is less than the minimum capacity of 68243 Btu/hr.",
               "Sp-Perimeter_ZN_3 Sys-3 Flr-1 Sch-A HPlcmt-north ZN NECB System 3 PSZ does not require an economizer because the total cooling capacity of 15939 Btu/hr is less than the minimum capacity of 68243 Btu/hr.",
               "Sp-Perimeter_ZN_2 Sys-3 Flr-1 Sch-A HPlcmt-east ZN NECB System 3 PSZ does not require an economizer because the total cooling capacity of 18101 Btu/hr is less than the minimum capacity of 68243 Btu/hr.",
               "Sp-Core_ZN Sys-3 Flr-1 Sch-A HPlcmt-core ZN NECB System 3 PSZ does not require an economizer because the total cooling capacity of 16890 Btu/hr is less than the minimum capacity of 68243 Btu/hr.",
               "Sp-Perimeter_ZN_1 Sys-3 Flr-1 Sch-A HPlcmt-south ZN NECB System 3 PSZ does not require an economizer because the total cooling capacity of 20181 Btu/hr is less than the minimum capacity of 68243 Btu/hr.",
               "Finished applying prototype HVAC assumptions.",
               "Started applying HVAC efficiency standards.",
               "For Sp-Core_ZN Sys-3 Flr-1 Sch-A HPlcmt-core ZN NECB System 3 PSZ, ERV not required based on 0% OA flow, design supply air flow of 634cfm, and climate zone NECB HDD Method.",
               "For Sp-Core_ZN Sys-3 Flr-1 Sch-A HPlcmt-core ZN NECB System 3 PSZ, ERV not required based on exhaust heat content.",
               "For NECB 2011 NECB HDD Method:  Sp-Core_ZN Sys-3 Flr-1 Sch-A HPlcmt-core ZN NECB System 3 PSZ: DCV is not required for any system.",
               "For Sp-Core_ZN Sys-3 Flr-1 Sch-A HPlcmt-core ZN NECB System 3 PSZ: Unoccupied fan shutoff not required because system fan HP of 0.64 HP is less than the minimum threshold of 0.75 HP.",
               "For Sp-Core_ZN Sys-3 Flr-1 Sch-A HPlcmt-core ZN NECB System 3 PSZ: Setting motorized OA damper schedule to Always On Discrete.",
               "For Sp-Perimeter_ZN_1 Sys-3 Flr-1 Sch-A HPlcmt-south ZN NECB System 3 PSZ, ERV not required based on 0% OA flow, design supply air flow of 757cfm, and climate zone NECB HDD Method.",
               "For Sp-Perimeter_ZN_1 Sys-3 Flr-1 Sch-A HPlcmt-south ZN NECB System 3 PSZ, ERV not required based on exhaust heat content.",
               "For NECB 2011 NECB HDD Method:  Sp-Perimeter_ZN_1 Sys-3 Flr-1 Sch-A HPlcmt-south ZN NECB System 3 PSZ: DCV is not required for any system.",
               "For Sp-Perimeter_ZN_1 Sys-3 Flr-1 Sch-A HPlcmt-south ZN NECB System 3 PSZ: Annual occupied hours = 2860 hr/yr, assuming a 0.15 occupancy threshold.  This schedule will be used as the HVAC operation schedule.",
               "For Sp-Perimeter_ZN_1 Sys-3 Flr-1 Sch-A HPlcmt-south ZN NECB System 3 PSZ: Setting motorized OA damper schedule to Sp-Perimeter_ZN_1 Sys-3 Flr-1 Sch-A HPlcmt-south ZN NECB System 3 PSZ Occ Sch.",
               "For Sp-Perimeter_ZN_2 Sys-3 Flr-1 Sch-A HPlcmt-east ZN NECB System 3 PSZ, ERV not required based on 0% OA flow, design supply air flow of 679cfm, and climate zone NECB HDD Method.",
               "For Sp-Perimeter_ZN_2 Sys-3 Flr-1 Sch-A HPlcmt-east ZN NECB System 3 PSZ, ERV not required based on exhaust heat content.",
               "For NECB 2011 NECB HDD Method:  Sp-Perimeter_ZN_2 Sys-3 Flr-1 Sch-A HPlcmt-east ZN NECB System 3 PSZ: DCV is not required for any system.",
               "For Sp-Perimeter_ZN_2 Sys-3 Flr-1 Sch-A HPlcmt-east ZN NECB System 3 PSZ: Unoccupied fan shutoff not required because system fan HP of 0.69 HP is less than the minimum threshold of 0.75 HP.",
               "For Sp-Perimeter_ZN_2 Sys-3 Flr-1 Sch-A HPlcmt-east ZN NECB System 3 PSZ: Setting motorized OA damper schedule to Always On Discrete.",
               "For Sp-Perimeter_ZN_3 Sys-3 Flr-1 Sch-A HPlcmt-north ZN NECB System 3 PSZ, ERV not required based on 0% OA flow, design supply air flow of 598cfm, and climate zone NECB HDD Method.",
               "For Sp-Perimeter_ZN_3 Sys-3 Flr-1 Sch-A HPlcmt-north ZN NECB System 3 PSZ, ERV not required based on exhaust heat content.",
               "For NECB 2011 NECB HDD Method:  Sp-Perimeter_ZN_3 Sys-3 Flr-1 Sch-A HPlcmt-north ZN NECB System 3 PSZ: DCV is not required for any system.",
               "For Sp-Perimeter_ZN_3 Sys-3 Flr-1 Sch-A HPlcmt-north ZN NECB System 3 PSZ: Unoccupied fan shutoff not required because system fan HP of 0.61 HP is less than the minimum threshold of 0.75 HP.",
               "For Sp-Perimeter_ZN_3 Sys-3 Flr-1 Sch-A HPlcmt-north ZN NECB System 3 PSZ: Setting motorized OA damper schedule to Always On Discrete.",
               "For Sp-Perimeter_ZN_4 Sys-3 Flr-1 Sch-A HPlcmt-west ZN NECB System 3 PSZ, ERV not required based on 0% OA flow, design supply air flow of 772cfm, and climate zone NECB HDD Method.",
               "For Sp-Perimeter_ZN_4 Sys-3 Flr-1 Sch-A HPlcmt-west ZN NECB System 3 PSZ, ERV not required based on exhaust heat content.",
               "For NECB 2011 NECB HDD Method:  Sp-Perimeter_ZN_4 Sys-3 Flr-1 Sch-A HPlcmt-west ZN NECB System 3 PSZ: DCV is not required for any system.",
               "For Sp-Perimeter_ZN_4 Sys-3 Flr-1 Sch-A HPlcmt-west ZN NECB System 3 PSZ: Annual occupied hours = 2860 hr/yr, assuming a 0.15 occupancy threshold.  This schedule will be used as the HVAC operation schedule.",
               "For Sp-Perimeter_ZN_4 Sys-3 Flr-1 Sch-A HPlcmt-west ZN NECB System 3 PSZ: Setting motorized OA damper schedule to Sp-Perimeter_ZN_4 Sys-3 Flr-1 Sch-A HPlcmt-west ZN NECB System 3 PSZ Occ Sch.",
               "For Fan Constant Volume 1: motor nameplate = 0.37244415549988646HP, motor eff = 61.5%.",
               "For Fan Constant Volume 2: motor nameplate = 0.4229772900908685HP, motor eff = 61.5%.",
               "For Fan Constant Volume 3: motor nameplate = 0.48059582225914266HP, motor eff = 61.5%.",
               "For Fan Constant Volume 4: motor nameplate = 0.47157455330787545HP, motor eff = 61.5%.",
               "For Fan Constant Volume 5: motor nameplate = 0.3946822617714763HP, motor eff = 61.5%.",
               "For Service Water Loop Pump: brake hp = 0.0HP, motor nameplate = 0.1HP, motor eff = 70.0%.",
               "For Pump Variable Speed 1: brake hp = 0.09HP, motor nameplate = 1.0HP, motor eff = 85.5%.",
               "For NECB 2011: Coil Cooling DX Single Speed 1: AirCooled All Other Single Package Capacity = 16kBtu/hr; SEER = 14.0",
               "For NECB 2011: Coil Cooling DX Single Speed 2: AirCooled All Other Single Package Capacity = 18kBtu/hr; SEER = 14.0",
               "For NECB 2011: Coil Cooling DX Single Speed 3: AirCooled All Other Single Package Capacity = 21kBtu/hr; SEER = 14.0",
               "For NECB 2011: Coil Cooling DX Single Speed 4: AirCooled All Other Single Package Capacity = 20kBtu/hr; SEER = 14.0",
               "For NECB 2011: Coil Cooling DX Single Speed 5: AirCooled All Other Single Package Capacity = 17kBtu/hr; SEER = 14.0",
               "For NECB 2011: Primary Boiler: Gas Hot Water Capacity = 69kBtu/hr; AFUE = 0.85",
               "For NECB 2011: Secondary Boiler: Gas Hot Water Capacity = 0kBtu/hr; AFUE = 0.85",
               "For NECB 2011: 40.0gal NaturalGas Water Heater - 40kBtu/hr 0.82 Therm Eff; thermal efficiency = 0.82, skin-loss UA = 6Btu/hr",
               "Finished applying HVAC efficiency standards.",
               "Started adding daylighting controls.",
               "For Attic, daylighting control not applicable because no exterior fenestration is present.",
               "For Core_ZN, daylighting control not applicable because no exterior fenestration is present.",
               "Finished adding daylighting controls.",
               "Total Time = 48sec."
            ],
            "step_result" : "Success",
            "step_values" : [
               {
                  "name" : "building_type",
                  "value" : "SmallOffice"
               },
               {
                  "name" : "template",
                  "value" : "NECB 2011"
               },
               {
                  "name" : "climate_zone",
                  "value" : "NECB HDD Method"
               },
               {
                  "name" : "epw_file",
                  "value" : "CAN_BC_Summerland.717680_CWEC.epw"
               }
            ],
            "step_warnings" : [
               "[openstudio.EpwFile] Successive data points (1966-Jan-31 to 1965-Feb-01, ending on line 753) are greater than 1 day apart in EPW file '/usr/local/bundle/bundler/gems/openstudio-standards-f448df66933d/openstudio-standards/data/weather/CAN_BC_Summerland.717680_CWEC.epw'. Data will be treated as typical (TMY)",
               "[openstudio.EpwFile] Successive data points (1966-Jan-31 to 1965-Feb-01, ending on line 753) are greater than 1 day apart in EPW file '/usr/local/bundle/bundler/gems/openstudio-standards-f448df66933d/openstudio-standards/data/weather/CAN_BC_Summerland.717680_CWEC.epw'. Data will be treated as typical (TMY)",
               "[openstudio.weather.Model] Could not find ground temperatures; will use generic temperatures, which will skew results.",
               "[openstudio.EpwFile] Successive data points (1966-Jan-31 to 1965-Feb-01, ending on line 753) are greater than 1 day apart in EPW file '/usr/local/bundle/bundler/gems/openstudio-standards-f448df66933d/openstudio-standards/data/weather/CAN_BC_Summerland.717680_CWEC.epw'. Data will be treated as typical (TMY)",
               "[openstudio.EpwFile] Successive data points (1966-Jan-31 to 1965-Feb-01, ending on line 753) are greater than 1 day apart in EPW file '/usr/local/bundle/bundler/gems/openstudio-standards-f448df66933d/openstudio-standards/data/weather/CAN_BC_Summerland.717680_CWEC.epw'. Data will be treated as typical (TMY)",
               "[openstudio.standards.Fan] For Fan Constant Volume 1, there is no greater nominal HP.  Use the efficiency of the largest motor category.",
               "[openstudio.standards.Fan] For Fan Constant Volume 2, there is no greater nominal HP.  Use the efficiency of the largest motor category.",
               "[openstudio.standards.Fan] For Fan Constant Volume 3, there is no greater nominal HP.  Use the efficiency of the largest motor category.",
               "[openstudio.standards.Fan] For Fan Constant Volume 4, there is no greater nominal HP.  Use the efficiency of the largest motor category.",
               "[openstudio.standards.Fan] For Fan Constant Volume 5, there is no greater nominal HP.  Use the efficiency of the largest motor category.",
               "[openstudio.EpwFile] Successive data points (1966-Jan-31 to 1965-Feb-01, ending on line 753) are greater than 1 day apart in EPW file '/usr/local/bundle/bundler/gems/openstudio-standards-f448df66933d/openstudio-standards/data/weather/CAN_BC_Summerland.717680_CWEC.epw'. Data will be treated as typical (TMY)",
               "[openstudio.EpwFile] Successive data points (1966-Jan-31 to 1965-Feb-01, ending on line 753) are greater than 1 day apart in EPW file '/usr/local/bundle/bundler/gems/openstudio-standards-f448df66933d/openstudio-standards/data/weather/CAN_BC_Summerland.717680_CWEC.epw'. Data will be treated as typical (TMY)",
               "[openstudio.EpwFile] Successive data points (1966-Jan-31 to 1965-Feb-01, ending on line 753) are greater than 1 day apart in EPW file '/usr/local/bundle/bundler/gems/openstudio-standards-f448df66933d/openstudio-standards/data/weather/CAN_BC_Summerland.717680_CWEC.epw'. Data will be treated as typical (TMY)",
               "[openstudio.EpwFile] Successive data points (1966-Jan-31 to 1965-Feb-01, ending on line 753) are greater than 1 day apart in EPW file '/usr/local/bundle/bundler/gems/openstudio-standards-f448df66933d/openstudio-standards/data/weather/CAN_BC_Summerland.717680_CWEC.epw'. Data will be treated as typical (TMY)",
               "[openstudio.EpwFile] Successive data points (1966-Jan-31 to 1965-Feb-01, ending on line 753) are greater than 1 day apart in EPW file '/usr/local/bundle/bundler/gems/openstudio-standards-f448df66933d/openstudio-standards/data/weather/CAN_BC_Summerland.717680_CWEC.epw'. Data will be treated as typical (TMY)",
               "[openstudio.standards.Fan] For Fan Constant Volume 1, there is no greater nominal HP.  Use the efficiency of the largest motor category.",
               "[openstudio.standards.Fan] For Fan Constant Volume 2, there is no greater nominal HP.  Use the efficiency of the largest motor category.",
               "[openstudio.standards.Fan] For Fan Constant Volume 3, there is no greater nominal HP.  Use the efficiency of the largest motor category.",
               "[openstudio.standards.Fan] For Fan Constant Volume 4, there is no greater nominal HP.  Use the efficiency of the largest motor category.",
               "[openstudio.standards.Fan] For Fan Constant Volume 5, there is no greater nominal HP.  Use the efficiency of the largest motor category."
            ]
         }
      },
      {
         "arguments" : {
            "__SKIP__" : false
         },
         "measure_dir_name" : "view_model",
         "name" : "view_model",
         "result" : {
            "completed_at" : "20170710T183017Z",
            "measure_class_name" : "ViewModel",
            "measure_display_name" : "ViewModel",
            "measure_name" : "view_model",
            "measure_taxonomy" : "Reporting.QAQC",
            "measure_type" : "ModelMeasure",
            "measure_uid" : "f4669f10-fda5-489d-8e1c-7ca3c2d40378",
            "measure_version_id" : "f4975c5f-7c25-42a2-927b-02d99b4427ef",
            "measure_version_modified" : "20170526T150340Z",
            "measure_xml_checksum" : "1E1F8B97",
            "started_at" : "20170710T183016Z",
            "stderr" : "",
            "stdout" : "[OpenStudio.Measure] <0> OSArgumentVector is deprecated, use OpenStudio::Measure::OSArgumentVector instead.\n",
            "step_errors" : [],
            "step_files" : [
               "/mnt/openstudio/analysis_4fef0e0f-5396-4c55-a6e1-2cd6803db3ab/data_point_193a9b3c-5954-48ae-a39b-6d61fff8c8cd/run/001_view_model/report.html",
               "/mnt/openstudio/analysis_4fef0e0f-5396-4c55-a6e1-2cd6803db3ab/data_point_193a9b3c-5954-48ae-a39b-6d61fff8c8cd/run/001_view_model/report.json"
            ],
            "step_final_condition" : "Report written to <a href='file:////mnt/openstudio/analysis_4fef0e0f-5396-4c55-a6e1-2cd6803db3ab/data_point_193a9b3c-5954-48ae-a39b-6d61fff8c8cd/run/001_view_model/report.html'>report.html</a>.",
            "step_info" : [ "No changes made to the model." ],
            "step_result" : "NA",
            "step_values" : [
               {
                  "name" : "view_model_html_zip",
[...]
uAS8ngW+mzqhhF/NQncuOmKIX8neZQrn12knyl1Zv4UbcXsogl5wF8fQafqm13pqQDVfJf5o8hmgQ7ogA7ogA7ogA7ogA7ogA7obD2dTdUPwSjkQ7ABG7ABG7ABG7ABG7ABG7ABG7DJZrOhkyTYCN0j0AEd0AEd0AEd0AEd0AEd0AEd0ClCR10DLP2Fba7pBaZgCqZgCqZgCqZgCqZgCqZgCqZgCqbbwTRXTDFlOhdHBFMwBVMwBVMwBVMwBVMwBVMwBVMwBdPtYKqlwJqyniuqgjVYgzVYgzVYgzVYgzVYgzVYgzVYgzVYPyLrJa1h6N40c8FurdiLJ/xs7E65FfPbuPnst2AWRvk07jbv/MCvpjx041nIWfPVjsDIAdnbY8fDIXNZisVuvHjMouCKs2En587oemS506k4UKQhrDd2cm5YFsuN43B+hEy/rXmTOPDFUb8piu/EuSuC3q7rD8ZB2Lg/7EQT4zLw490b7o3GscC4CCZDdYz503l7evLL7vHuhzEPr4IodmN2xuNp4CXAv3E39vzRs52s5/ViLxqE3jT+WXrNi72hd/1wtfQeOViCxbzhUWMg3Pkkab/r+Tw8d5wGSzvlqDH0ounEvXvu+eI8nN2LSTD48lNDzi8BnTeBxXfT5H7RL3uf3Wt3/mnmnaKkh/Rcj9jR8iwen9+cXY+ajR82ObZYVxxtk/zJjaSVA10+/n1K1DdSfrJzVO1OegbYQAw/4sSnudrf2nlTGUgOGVKHDKlLhtQjQ+qTIe2TIR2QIR2SIa0dvmkIReflNp2b23R+btM5uk3n6Tadq9t0vm7TObtN5+0Onbc7hGM6nbc7dN7uaHr7pvCSYgYM+VADKKOv9IAyekoPKKOf9IAyxgQ9oIwRQQ8oYzzQA8oYDfSAMsYCPaCsxKeJRObbWWlPE4nMu7OSniYSmX9npTxNJDIPz0p4mkhkPp6V7jSR6MZvMh/PynWaSDo+viF8oZjmhDaGBlJGN2kiZXSTJlJGN2kiZQwFmkgZQ4EmUsZQoImUMRRoImUMBZpIWflOF4rOy7Myni4UnZ9n5TxdKDpPz8p6ulB0vp6V93Sh6Lw9K/PpQhGO6XTenpX8dKFyvR2H0eMw+gWQwm04jH6j4DB6FVo4jB6H0RcpOIxeFBxGj8Po04LD6LOvxGH0+QCi4DD67TizEXRAB3RAB3RAB3RAB3RAB3RAZ+vpPLGjHMEGbMAGbMAGbMAGbMAGbMAGbLaHzdM6sxF0QAd0QAd0QAd0QAd0QAd0QOdJ0XlEcbbjQexde/Hda37NJ6z5b8izPUV5tsVD2g4lts4WKLF1KlNia1vtHokQmxFQhwqoSwXUowLqUwHtUwEdUAEdUgGt7cs3QyLzbZvMuW0y77bJ3Nsm82+bzMFtMg+3yVzcJvNxh8zHHbrxm8zHHTIfd/R8XF1xbR2ruOCaCY68l4rLrZngyEeB4mJrJjjyEaC41JoJjjz6DYTWjICoPDojvRmorBkBUTl1Rm4zkFgzAqLy64zEZqCvZjQyUnl2RlYzEFczAqLy7IyUVlxZbR3HQFjNCEjeRQayakZA8uA3EFUzApIHv4GkmhGQPPhNBNXMkMh8OyOzmaipmSGRuXdGcjORUjNDIvPwjPxmoqNmNlaS+XhGijMRUTNDIvPxjCwHBTUoqEFBbYMhFNREgYIaFNSgoJZRoKAGBTWtVkFBbc2+xvVQUFstUFC7LyUs2HpiQgOgAzqgAzqgAzqgAzqgAzqgAzpbT+eJ6Q+ADdiADdiADdiADdiADdiADdhsD5vvRvcAdEAHdEAHdEAHdEAHdEAHdECnuL1HUFCDYNqTEkw7G4z5cJb0stgOFfGY2e3tkE3rboFsWrcy2bR+uim0qMQNFVCHCqhLBdSjAupTAe1TAR1QAR1SAa3tvjdDIvNtm8y5bTLvtsnc2ybzb5vMwW0yD7fJXNwm83GHzMcduvGbzMcdMh939HxcXTZtHau4bJoJjryXisummeDIR4HismkmOPIRoLhsmgmOPPoNZNOMgKg8OiO9GcimGQFROXVGbjOQTTMCovLrjMRmIJtmNDJSeXZGVjOQTTMCovLsjJRWXDZtHcdANs0ISN5FBrJpRkDy4DeQTTMCkge/gWyaEZA8+E1k08yQyHw7I7OZyKaZIZG5d0ZyM5FNM0Mi8/CM/GYim2Y2VpL5eEaKM5FNM0Mi8/GMLAfZNMimQTZtgyFk00SBbBpk0yCbllEgmwbZNK1WQTZtzb7G9ZBNWy2QTbsvJazSemLqAqADOqADOqADOqADOqADOqADOltP54mJDoAN2IAN2IAN2IAN2IAN2IAN2GwPm+9G7AB0QAd0QAd0QAd0QAd0QAd0QKe4PcimLQpk0+5l0+ztkE3rbYFsWq8y2bS25ZCoppngdIhwukQ4PSKcPhHOPhHOARHOIRHO2qZ7IyAqj7apXNqm8mmbyqltKq+2qdzapvJrm8qxbSrPdqg82yEbq6k826HybEfLs9Xl0dagiqujGcBIe6i4NpoBjDTuiyujGcBIY764LpoBjDTeDVTRTHCI/Fiexgwk0UxwiFxZnsMM9NBMcIi8WZ7ADMTQTMZBIn+WZy8DJTQTHCJ/lqeu4jJoazAGKmgmONLuMdBAM8GRhruBApoJjjTcDfTPTHCk4W6ifmYEROXR8gxmIn1mBETl1PIkZqJ7ZgRE5dfyPGYiemY0MlJ5tjyVmSieGQFRebY8m0HuDHJnkDvbYAi5M1Egdwa5M8idZRTInUHuTKtVkDtbs69xPeTOVgvkzu5LCaurnpgqAOiADuiADuiADuiADuiADuiAztbTeWJiAWADNmADNmADNmADNmADNmADNtvD5rsRKQAd0AEd0AEd0AEd0AEd0AEd0CluD3JniwK5s3u5M2c75M76WyB31q9Q7qzdI9I7MwDqUAF1qYB6VEB9KqB9KqADKqBDKqBvttubIJH5tk3m3DaZd9tk7m2T+bdN5uA2mYfbZC5uk/m4Q+bjDt34TebjDpmPO3o+riODtoplooNWHEfeSyZKaMVx5KOAiRZacRz5CGCihlYcRx79RnpoBkBUHp2R3owk0QyAqJw6I7cZqaIZAFH5dUZiMxJGMxgZqTw7I6sZaaMZAFF5dkZKM5FHW8Ux0kczAJJ3kZFCmgGQPPiNNNIMgOTBb6SSZgAkD34znTQTJDLfzshsZlJpJkhk7p2R3MzU0kyQyDw8I7+ZCaaZjJVkPp6R4sw000yQyHw8I8tBNg2yaZBN22AI2TRRIJsG2TTIpmUUyKZBNk2rVZBNW7OvcT1k01YLZNPuSwmrtJ6YugDogA7ogA7ogA7ogA7ogA7ogM7W03liogNgAzZgAzZgAzZgAzZgAzZgAzbbw+a7ETsAHdABHdABHdABHdABHdABHdApbg+yaYsC2bR72bTOdsim7W+BbNp+ZbJp/XRTaFGJGyqgDhVQlwqoRwXUpwLapwI6oAI6pAJa231vhkTm2zaZc9tk3m2TubdN5t82mYPbZB5uk7m4TebjDpmPO3TjN5mPO2Q+7uj5uLps2jpWcdk0Exx5LxWXTTPBkY8CxWXTTHDkI0Bx2TQTHHn0G8imGQFReXRGejOQTTMConLqjNxmIJtmBETl1xmJzUA2zWhkpPLsjKxmIJtmBETl2Rkprbhs2jqOgWyaEZC8iwxk04yA5MFvIJtmBCQPfgPZNCMgefCbyKaZIZH5dkZmM5FNM0Mic++M5GYim2aGRObhGfnNRDbNbKwk8/GMFGcim2aGRObjGVkOsmmQTYNs2gZDyKaJAtk0yKZBNi2jQDYNsmlarYJs2pp9jeshm7ZaIJt2X0pYpfXE1AVAB3RAB3RAB3RAB3RAB3RAB3S2ns4TEx0AG7ABG7ABG7ABG7ABG7ABG7DZHjbfjdgB6IAO6IAO6IAO6IAO6IAO6IBOcXuQTVsUyKbdy6Z1t0M27WALZNMOKpNNa1sOiWqaCU6HCKdLhNMjwukT4ewT4RwQ4RwS4axtujcCovJom8qlbSqftqmc2qbyapvKrW0qv7apHNum8myHyrMdsrGayrMdKs92tDxbXR5tDaq4OpoBjLSHimujGcBI4764MpoBjDTmi+uiGcBI491AFc0Eh8iP5WnMQBLNBIfIleU5zEAPzQSHyJvlCcxADM1kHCTyZ3n2MlBCM8Eh8md56ioug7YGY6CCZoIj7R4DDTQTHGm4GyigmeBIw91A/8wERxruJupnRkBUHi3PYCbSZ0ZAVE4tT2ImumdGQFR+Lc9jJqJnRiMjlWfLU5mJ4pkREJVny7MZ5M4gdwa5sw2GkDsTBXJnkDuD3FlGgdwZ5M60WgW5szX7GtdD7my1QO7svpSwuuqJqQKADuiADuiADuiADuiADuiADuhsPZ0nJhYANmADNmADNmADNmADNmADNmCzPWy+G5EC0AEd0AEd0AEd0AEd0AEd0AGd4vYgd7YokDu7lzvrbYfc2eEWyJ0dVih31u4R6Z0ZAHWogLpUQD0qoD4V0D4V0AEV0CEV0Dfb7U2QyHzbJnNum8y7bTL3tsn82yZzcJvMw20yF7fJfNwh83GHbvwm83GHzMcdPR/XkUFbxTLRQSuOI+8lEyW04jjyUcBEC604jnwEMFFDK44jj34jPTQDICqPzkhvRpJoBkBUTp2R24xU0QyAqPw6I7EZCaMZjIxUnp2R1Yy00QyAqDw7I6WZyKOt4hjpoxkAybvISCHNAEge/EYaaQZA8uA3UkkzAJIHv5lOmgkSmW9nZDYzqTQTJDL3zkhuZmppJkhkHp6R38wE00zGSjIfz0hxZpppJkhkPp6R5SCbBtk0yKZtMIRsmiiQTYNsGmTTMgpk0yCbptUqyKat2de4HrJpqwWyafelhFVaT0xdAHRAB3RAB3RAB3RAB3RAB3RAZ+vpPDHRAbABG7ABG7ABG7ABG7ABG7ABm+1h892IHYAO6IAO6IAO6IAO6IAO6IAO6BS3B9m0RYFs2r1sWn8rZNM67acvm5ZwrEo2rZ9uCi0qcUMF1KEC6lIB9aiA+lRA+1RAB1RAh1RAa7vvzZDIfNsmc26bzLttMve2yfzbJnNwm8zDbTIXt8l83CHzcYdu/CbzcYfMxx09H1eXTVvHKi6bZoIj76XismkmOPJRoLhsmgmOfAQoLptmgiOPfgPZNCMgKo/OSG8GsmlGQFROnZHbDGTTjICo/DojsRnIphmNjFSenZHVDGTTjICoPDsjpRWXTVvHMZBNMwKSd5GBbJoRkDz4DWTTjIDkwW8gm2YEJA9+E9k0MyQy387IbCayaWZIZO6dkdxMZNPMkMg8PCO/mcimmY2VZD6ekeJMZNPMkMh8PCPLQTYNsmmQTdtgCNk0USCbBtk0yKZlFMimQTZNq1WQTVuzr3E9ZNNWC2TT7ksJq7SemLoA6IAO6IAO6IAO6IAO6IAO6IDO1tN5YqIDYAM2YAM2YAM2YAM2YAM2YAM228PmuxE7AB3QAR3QAR3QAR3QAR3QAR3QKW4PsmmLAtm0e9m0/e2QTbO3QDbNrkw2rW05JKppJjgdIpwuEU6PCKdPhLNPhHNAhHNIhLO26d4IiMqjbSqXtql82qZyapvKq20qt7ap/NqmcmybyrMdKs92yMZqKs92qDzb0fJsdXm0Naji6mgGMNIeKq6NZgAjjfviymgGMNKYL66LZgAjjXcDVTQTHCI/lqcxA0k0ExwiV5bnMAM9NBMcIm+WJzADMTSTcZDIn+XZy0AJzQSHyJ/lqau4DNoajIEKmgmOtHsMNNBMcKThbqCAZoIjDXcD/TMTHGm4m6ifGQFRebQ8g5lInxkBUTm1PImZ6J4ZAVH5tTyPmYieGY2MVJ4tT2UmimdGQFSeLc9mkDuD3BnkzjYYQu5MFMidQe4McmcZBXJnkDvTahXkztbsa1wPubPVArmz+1LC6qonpgoAOqADOqADOqADOqADOqADOqCz9XSemFgA2IAN2IAN2IAN2IAN2IAN2IDN9rD5bkQKQAd0QAd0QAd0QAd0QAd0QAd0ituD3NmiQO5sKXfW2Q61M2cL1M6cCtXO2j0iuTMDoA4VUJcKqEcF1KcC2qcCOqACOqQC+ma3vQkSmW/bZM5tk3m3TebeNpl/22QObpN5uE3m4jaZjztkPu7Qjd9kPu6Q+bij5+M6KmirWCYyaMVx5L1kIoRWHEc+CphIoRXHkY8AJmJoxXHk0W8kh2YAROXRGenNSBHNAIjKqTNym5EomgEQlV9nJDYjXTSDkZHKszOympE0mgEQlWdnpDQTdbRVHCN5NAMgeRcZCaQZAMmD30gizQBIHvxGImkGQPLgN5NJM0Ei8+2MzGamlGaCRObeGcnNTCzNBInMwzPym5lemslYSebjGSnOTDLNBInMxzOyHFTToJoG1bQNhlBNEwWqaVBNg2paRoFqGlTTtFoF1bQ1+xrXQzVttUA17b6UsEjriYkLgA7ogA7ogA7ogA7ogA7ogA7obD2dJ6Y5ADZgAzZgAzZgAzZgAzZgAzZgsz1svhutA9ABHdABHdABHdABHdABHdABneL2oJq2KFBNW6qmdbdDNa2zBappncpU0/rpntCiCjdUQB0qoC4VUI8KqE8FtE8FdEAFdEgFtLb53gyJzLdtMue2ybzbJnNvm8y/bTIHt8k83CZzcZvMxx0yH3foxm8yH3fIfNzR83F11bR1rOKqaSY48l4qrppmgiMfBYqrppngyEeA4qppJjjy6DdQTTMCovLojPRmoJpmBETl1Bm5zUA1zQiIyq8zEpuBaprRyEjl2RlZzUA1zQiIyrMzUlpx1bR1HAPVNCMgeRcZqKYZAcmD30A1zQhIHvwGqmlGQPLgN1FNM0Mi8+2MzGaimmaGRObeGcnNRDXNDInMwzPym4lqmtlYSebjGSnORDXNDInMxzOyHFTToJoG1bQNhlBNEwWqaVBNg2paRoFqGlTTtFoF1bQ1+xrXQzVttUA17b6UsEjriYkLgA7ogA7ogA7ogA7ogA7ogA7obD2dJ6Y5ADZgAzZgAzZgAzZgAzZgAzZgsz1svhutA9ABHdABHdABHdABHdABHdABneL2oJq2KFBNW6qm9bZDNa27Bapp3cpU09qWQyKaZoLTIcLpEuH0iHD6RDj7RDgHRDiHRDhre+6NgKg82qZyaZvKp20qp7apvNqmcmubyq9tKse2qTzbofJsh2yspvJsh8qzHS3PVldHW4MqLo5mACPtoeLSaAYw0rgvLoxmACON+eKyaAYw0ng3EEUzwSHyY3kaM1BEM8EhcmV5DjOQQzPBIfJmeQIz0EIzGQeJ/FmevQyE0ExwiPxZnrqKq6CtwRiIoJngSLvHQALNBEca7gYCaCY40nA3kD8zwZGGu4n4mREQlUfLM5iJ8pkREJVTy5OYieyZERCVX8vzmInmmdHISOXZ8lRmInhmBETl2fJsBrUzqJ1B7WyDIdTORIHaGdTOoHaWUaB2BrUzrVZB7WzNvsb1UDtbLVA7uy8lLK56YqIAoAM6oAM6oAM6oAM6oAM6oAM6W0/niWkFgA3YgA3YgA3YgA3YgA3YgA3YbA+b70ajAHRAB3RAB3RAB3RAB3RAB3RAp7g9qJ0tCtTOlmpn/e1QO+ttgdpZr0K1s3aPSO7MAKhDBdSlAupRAfWpgPapgA6ogA6pgL7ZbW+CRObbNplz22TebZO5t03m3zaZg9tkHm6TubhN5uMOmY87dOM3mY87ZD7u6Pm4jgraKpaJDFpxHHkvmQihFceRjwImUmjFceQjgIkYWnEcefQbyaEZAFF5dEZ6M1JEMwCicuqM3GYkimYAROXXGYnNSBfNYGSk8uyMrGYkjWYAROXZGSnNRB1tFcdIHs0ASN5FRgJpBkDy4DeSSDMAkge/kUiaAZA8+M1k0kyQyHw7I7OZKaWZIJG5d0ZyMxNLM0Ei8/CM/Gaml2YyVpL5eEaKM5NMM0Ei8/GMLAfVNKimQTVtgyFU00SBahpU06CallGgmgbVNK1WQTVtzb7G9VBNWy1QTbsvJSzSemLiAqADOqADOqADOqADOqADOqADOltP54lpDoAN2IAN2IAN2IAN2IAN2IAN2GwPm+9G6wB0QAd0QAd0QAd0QAd0QAd0QKe4PaimLQpU05aqafvboZrW3wLVtH5lqmn9dE9oUYUbKqAOFVCXCqhHBdSnAtqnAjqgAjqkAlrbfG+GRObbNplz22TebZO5t03m3zaZg9tkHm6TubhN5uMOmY87dOM3mY87ZD7u6Pm4umraOlZx1TQTHHkvFVdNM8GRjwLFVdNMcOQjQHHVNBMcefQbqKYZAVF5dEZ6M1BNMwKicuqM3GagmmYEROXXGYnNQDXNaGSk8uyMrGagmmYEROXZGSmtuGraOo6BapoRkLyLDFTTjIDkwW+gmmYEJA9+A9U0IyB58Juoppkhkfl2RmYzUU0zQyJz74zkZqKaZoZE5uEZ+c1ENc1srCTz8YwUZ6KaZoZE5uMZWQ6qaVBNg2raBkOopokC1TSopkE1LaNANQ2qaVqtgmramn2N66GatlqgmnZfSlik9cTEBUAHdEAHdEAHdEAHdEAHdEAHdLaezhPTHAAbsAEbsAEbsAEbsAEbsAEbsNkeNt+N1gHogA7ogA7ogA7ogA7ogA7ogE5xe1BNWxSopi1V0w62QzVtfwtU0/YrU01rWw6JaJoJTocIp0uE0yPC6RPh7BPhHBDhHBLhrO25NwKi8mibyqVtKp+2qZzapvJqm8qtbSq/tqkc26bybIfKsx2ysZrKsx0qz3a0PFtdHW0Nqrg4mgGMtIeKS6MZwEjjvrgwmgGMNOaLy6IZwEjj3UAUzQSHyI/lacxAEc0Eh8iV5TnMQA7NBIfIm+UJzEALzWQcJPJnefYyEEIzwSHyZ3nqKq6CtgZjIIJmgiPtHgMJNBMcabgbCKCZ4EjD3UD+zARHGu4m4mdGQFQeLc9gJspnRkBUTi1PYiayZ0ZAVH4tz2MmmmdGIyOVZ8tTmYngmREQlWfLsxnUzqB2BrWzDYZQOxMFamdQO4PaWUaB2hnUzrRaBbWzNfsa10PtbLVA7ey+lLC46omJAoAO6IAO6IAO6IAO6IAO6IAO6Gw9nSemFQA2YAM2YAM2YAM2YAM2YAM2YLM9bL4bjQLQAR3QAR3QAR3QAR3QAR3QAZ3i9qB2tihQO1uqnR1uh9rZwRaonR1UpnZmd9tWe6XYXRLxM0LYTjmw3XJge+XA9suB3S8H9qAc2MNyYNf2+lPilhRndkmBZpcUaXZJoWaXFGt2ScFmlxRtdknhZpcUb05J8eaUlddKijenpHhzTOJNXVUuC7m4yBwdqmrvFpego0NVHcmKC9TRoaqOYsXl6+hQVUcwA3E7Qthyokt5umCghEcIW06AKc8VDGTzCGHLiTHliYKBxh5hVignypRnCQaCfISw5USZ8hShuHpfFqqBmB8hrGrXGkj9EcKqDmAGQoCEsKoDmIFMICGs6gBmIiJIiVtSnCnPFEwUBylxSwo15cmCiTwhJW5J0aY8XzDRMqTMEyXFm/KUwUT4kBK3pHhTnjVAJREqiVBJ3GAIlURRoJIIlUSoJGYUqCRCJVGrVVBJXLOvcT1UElcLVBLvSwmLMp+YmAjogA7ogA7ogA7ogA7ogA7ogM7W03liGiNgAzZgAzZgAzZgAzZgAzZgAzbbw+a70TYBHdABHdABHdABHdABHdABHdApbu8RVBI/8KspD914FnLWfLUD0cSnJZrIw2tvwNm/XeF5r4NgysQDE+ucu+1X2yGgeLgFAoqH1Qkoin8XVWoiwukQ4XSJcHpEOH0inH0inAMinEMinHWBARMgKo+2qVzapvJpm8qpbSqvtqnc2qbya5vKsW0qz3aoPNshG6upPNuh8mxHy7M1hP1WoQyU/IrDSHvIQKuvOIw07g3U+IrDSGPeQG+vOIw03k0U9QxwiPxYnsZMRPIMcIhcWZ7DTHTvDHCIvFmewEyk7AzGQSJ/lmcvE3U6Axwif5anLgPBuVUYE4U5Axxp95hoyBngSMPdRCXOAEca7iY6cAY40nA3UnozAaLyaHkGMxJvMwGicmp5EjPSYzMBovJreR4zklgzGRmpPFueyoxU00yAqDxbns02gP4IvSD04jtms13WPJv5O0KSqr/7366/27Z303+/5IPdji1Lc+21L3rHx93u4SGBCad8E53yTXTLN9Er30S/fBP75Zs4KN/EYfkm1jJ7WTYqiG+7ggC3K4hwu4IQtyuIcbuCILcriHK7gjC3K4hzp4I4d6rI4xXEuVNBnDvF4txJbbixzEZbbVrV6TjOQZ/AhPxpkJmQPwwyE/JnQWZCPuSSmZCPuGQm5AMumQn5eEtmQj7ckpnImFbR2aggvjOmVXQ2KojwjGkVnY0KYjxjWkVno4Ioz5hW0dmoIM4zplV0NqrI4xXEeca0is5GsTjvCBuvQk9iwzlUm1bZ9v5+p0NgQv40yEzIHwaZCfmzIDMhH3LJTMhHXDIT8gGXzIR8vCUzIV8bRWYiY0EgnQ35iio6G/LFVnQ25Ouw6GzIl2jR2ZCvS6SzIV+ySGdDvpqRzoZ8oSOdjQriPGNaRWejijxeQSLPmFbR2SiWyrvCxofxTGbjQG1adZiU3i8EJuRPg8yE/GGQmZA/CzIT8mkVmQn5tIrMhHxaRWZCPq0iMyEfbslMZEyr6GzIp1V0NuTTKjob8mkVnQ35tIrOhnxaRWdDPq2isyGfVtHZkE+r6GxUEOcZ0yo6G1Xk8QoSeca0is5GsVTeEzb+zYcyG/tq06qXL09O9vcJTMifBpkJ+cMgMyF/FmQm5NMqMhPyaRWZCfm0isyEfFpFZkI+3JKZyJhW0dmQT6vobMinVXQ25NMqOhvyaRWdDfm0is6GfFpFZ0M+raKzIZ9W0dmoIM4zplV0NqrI4xUk8oxpFZ2NYqm8n07dZlxmo682rTo56fdJTMifBpkJ+cMgMyF/FmQm5NMqMhPyaRWZCfm0isyEfFpFZkI+3JKZyJhW0dmQT6vobMinVXQ25NMqOhvyaRWdDfm0is6GfFpFZ0M+raKzIZ9W0dmoIM4zplV0NqrI4xUk8oxpFZ2NYql8X9h4E8iWxTs9tWnVwYHj9HoEJuRPg8yE/GGQmZA/CzIT8mkVmQn5tIrMhHxaRWZCPq0iM5GlO0VkIlNsjcpGlloVlY0sISsqG1kaV1Q2suSvqGxkab5R2ciSg6OykaUUR2UjS0SOykYFcZ4xraKzUUUeryCRZ0yr6Gzkp/JPKgqvC01mdsR8frMUkE11Y5vR9aiVKsDmSsUuhZ0jHv8SzPxh1Oy1W8y2ey3WEf9yempys7cJjXtR6uHwxI35KAjvjm+9aC6LfN9+BfXoBOBdOOTh+5lQKVa+UfC4W+fxhrvRLORzGkJoedHvJctzoxrVqEY1qlGNalSjGtWoRjWqUY1qVKMa1ahGNapRjWpUoxrVqEY1qlGNalSjGtWoRjWqUY1qVKMa1ahGNapRjWpUoxrVqEY1qlGNalSjulbVd1ZwzcPQG/I3rthYa1ttw/2qYmtstL419oyHHo8W22sbreUG4ukkiK2J5/PcLbLRQ/t083fWRlZ69Pw0mLixF/gJqUYU8+nuBb8MQt5Q2/n8mo+4P1xv0PyzZr/dYh2xc7ktNjKLP40Jv4wFsRzoJax1PuLxqR+L/klMXM78Qcq0ucP+yoFYMuT3d3/M3cstinfJmvHYi6wofSpqhkRZuclK+u/UHYybfxPWRVvSF1vHE+4L3PNpEHkC8GXysUprlkXAPMAqDG70KC1pef6Qi3jY/f/tnW1v27YWx9/fT8FpQONgtmLZeV6zIXWdtkDbFEmLYQ2CQLZoW4ksGXpIYgz57leU5dy4LS1SPvKW3b9epKmO+D8/kTzkaSUfW3XN1vPjumzDgcs9Md9qeZ/O4mQYBsmEO+zFC/ZTfv7evBrZUf75dxFgm0+t0x9a0w4x7eHwRPgwPe4P4xF7yVrsd2Yce57BDheviDy3z2sNa/OieblZGG/f3UkQstp1eivNX9l16iafqrlfce6XdMXRHyBxiGmc611cX5o3fMqOjo5mnVdOMVPNh/1a91bnRy/k9k2Zxg+abXSvF/2V392RmNZiMuQzJSvkYF7ZUeQOfe50RImI6CLryctyXTkf6EkSjWplxyId0sPZeJaPJM87VLlLU1xZ1ksUh8ENV/Mzu7asp2Bi9914quYqv7j0XWUu5q7KqswXksVlpUx4aC8+4piH8+LCwxrM0lXTCTd11od6tqsqXf9QlFOIY2uLffrymf15+uWMnZ+efX738Q17f/rmXYe97Z511QRO0lWb39siRWNxwKIgjJmfjNN50GdZSZOI2VE/TV5cf6igOO97ofNkZ7brrKe+uIQ8TkKfTeww4ideYMc1Wyz5m+lQPjnXy84pdWZxivbEbX4LRcIP1VZ6ecw/s3DPgr224fCBnXgxm4RBuobxjTrb+Hl/v9PpdjcqLjwDHOAABzjAAQ5wgAMc4AAHOP9OHBYl4/SfwMzh4iRz7KkgCrkDGtCABjSgAQ1oQAMa0IAGNKBZTnOXvZr1DU3PSzhwgAMc4AAHOMABDnCAAxzgAKcMzuP3BlriewPPE9n3Brat7Anb8fH29sEBSEEKUpCCFKQgBSlIQQpSkIIUpCB9HqStjNSOZaTNjLTdbrX2d0EKUpCCFKQgBSlIQQpSkIIUpCAF6fMgbQvSk9CVkLYOMlLL2ttrt0EKUpCCFKQgBSlIQQpSkIIUpCAF6fMg3Rakn0eJjHQ/Iz1Ij51XIAUpSEEKUpCCFKQgBSlIQQpSkIL0eZDuCNI/uCMj3ctIX7/udPb2QApSkIIUpCAFKUhBClKQghSkIAXp8yDdzf5nIuEy0t2MtNPZ3QUpSEEKUpCCFKQgBSlIQQpSkIIUpM+FdE+QfghklQVbOxnp/n6rtbMDUpCCFKQgBSlIQQpSkIIUpCAFKUjXRjpHcUL7rlYodm/Gbuzx85E94WbM7+PaxtsgCaNijOn3LV+7Y+5HbuB7PMoUCiS2ttix4zCbZUrszo1HLArGnDntgpbR7dC0JxPuOzVD+DY2CxrMD9OO47Bm3Bt1ttvUbDRNG7XUG0Xx1OMzvIbt90dBmLY3PD7QoM01BoEfN+64OxzFQqMXeI66xmxszieNTzxMByjm4dXXj1cWO59GjTY78cJG+nt/1Dhmbz95/XHciIIkHYivH9nHbueVuCzmY9Zmn86/stN+X1y7sblsaF9uRf3QncS/Sa95ueW4tz82S9vIxVIt5jpHRl/M+07aVbbrpze53TRY1n9HhuNGE8+eHrq+l5oaPS/o3/xqyPlS0dktsHg6SduLLty6tm/t2dmlLcVxa4diirIj5rjjicdNn9+d3w5rxs/fM9bZdrOZ/SgMOSHr2LGd6l78ZXh2j3vGoeHwgZ14MZuEwcD1uFGfWa7ujUPLbNaNW9tLeP57X6xMaZt0sel0ul3joa6k0yLSaRPpbBPp7BDp7BLp7BHp7BPpHBDpWE0qIaoZbVFNaYtqTltUk9qimtUW1bS2qOa1RTWxLaqZ3aKa2S2ytZpqZreoZnZLa2azKBmPF76qWmlHC7mjISPtIz0ZaQ/pyUj7R09GGvd6MtKo15ORxryejDTi9WSk8a4nI9/INHWI5rF8G9PUIZrJ8k1MU4doLsu3ME0dotks38A0dYjms3z70tShWpeJ5rN879LUUZ/Pd64f629bPXFKXUfaPZo60u7R1JF2j6aONNw1daThrqkjDXdNHWm4a+pIw11TR75/6QpRzWj5DqYrRDWn5XuYrhDVrJbvYrpCVPNavo/pClHNbPlOpitEtlZTzWz5ZqYrpD6zH59dFH63sGybay78Q2/25cMELlrVu2hX72K7ehc71bvYrd7FXvUu9qt3cVC9i4WdvSofa4hvaw0Bbq0hwq01hLi1hhi31hDk1hqi3FpDmFtriPPWGuK8tY59fA1x3lpDnLfKxXnhVziqpVWz73gkcCEfDTIX8sEgcyEfCzIX8iWXzIV8xSVzIV9wyVzI11syF/LllszFkrSKzsca4ntJWkXnYw0RviStovOxhhhfklbR+VhDlC9Jq+h8rCHOl6RVdD7WsY+vIc6XpFV0PsrFeeE3ZamlVbOv0iJwIR8NMhfywSBzIR8LMhfyJZfMhXzFJXMhX3DJXMjXWzIX8nejyFwseSGQzof8jSo6H/KXreh8yN/DovMhf0WLzof8vUQ6H/JXFul8yN9mpPMhf9GRzsca4nxJWkXnYx37+Bo28iVpFZ2Pclt54ReSqKVVs28sIXAhHw0yF/LBIHMhHwsyF/K0isyFPK0icyFPq8hcyNMqMhfy5ZbMxZK0is6HPK2i8yFPq+h8yNMqOh/ytIrOhzytovMhT6vofMjTKjof8rSKzsca4nxJWkXnYx37+Bo28iVpFZ2Pclt5Yd13tbRqVhiewIV8NMhcyAeDzIV8LMhcyNMqMhfytIrMhTytInMhT6vIXMiXWzIXS9IqOh/ytIrOhzytovMhT6vofMjTKjof8rSKzoc8raLzIU+r6HzI0yo6H2uI8yVpFZ2Pdezja9jIl6RVdD7KbeWF5XXV0qpZ/V0CF/LRIHMhHwwyF/KxIHMhT6vIXMjTKjIX8rSKzIU8rSJzIV9uyVwsSavofMjTKjof8rSKzoc8raLzIU+r6HzI0yo6H/K0is6HPK2i8yFPq+h8rCHOl6RVdD7WsY+vYSNfklbR+Si3lRdWMVRLq2ZlDglcyEeDzIV8MMhcyMeCzIU8rSJzIU+ryFzI0yoyF/K0iszFsrpTRC6WFluj8rGsWhWVj2WFrKh8LKtxReVjWfkrKh/Lar5R+VhWDo7Kx7JKcVQ+lhWRo/KxhjhfklbR+VjHPr6GjXxJWkXno3grv1Sp8JoXcGZHzOd38wKyWd3YWnQ7rGcVYAtLxc6rQEc8fhUkvhPVdpp1Zlk7ddYWv7V21MrN3qcYj8WtHadjx3wYhNPjezeaVVF+vH+FUtOpwGno8PAsEUWNlRsKjukixwduR0nIZxiiLnPe7xWX+YYZZphhhhlmmGGGGWaYYYYZZphhhhlmmGGGGWaYYYYZZphhhhlmmGGGGWaYYYYZZphhhhlmmGGGGWaYYYYZZphhhhlmmGGG+V9lnprBLQ9D1+EfbPHBWstsrvh5VfHR2Gjxo7HnPHR5lH+81qjPP0A88YLY9FyfF35ENvrR53SLP1kbmdlXz08Cz47dwE+hjCjmk0aPD4KQG2qffH7Ph9x3Fm9odq6226yztvjkclN8kFn8MDw+iAVYgfRc1rwa8rjrx6J/UheDxO9npLVN9leBxJyQP7a+KPwstzjcAavFIzcyo2xU1ByJ40kjM+2/rt0f1f4HrKs2xxcfHU/Zc92rSRC5QvB1elrlbuaHkPkBVRjc6SHNsVzf4SIeGlZds/X8uC7bcOByT8y3Wt6nszgZhkEy4Q578YL9lJ+/N69GdpR//l0E2OZT6/SH1rRDTHs4PBE+TI/7w3jEXrIW+50Zx55nsMPFKyLP7fNaw9q8aF5uFsbbd3cShKx2nd5K81d2nbrJp2ruV5z7JV1x9AdIHGIa53oX15fmDZ+yo6OjWeeVU8xU82G/1r3V+dELuX1TpvGDZhvd60V/5Xd3JKa1mAz5TMkKOZhXdhS5Q587HVEiIrrIevKyXFfOB3qSRKNa2bFIh/RwNp7lI8nzDlXu0hRXlvUSxWFww9X8zK4t6ymY2H03nqq5yi8ufVeZi7mrsirzhWRxWSkTHtqLjzjm4by48LAGs3TVdMJNnfWhnu2qStc/FOUU4tjaYp++fGZ/nn45Y+enZ5/ffXzD3p++eddhb7tnXTWBk3TV5ve2SNFYHLAoCGPmJ+N0HvRZVtIkYnbUT5MX1x8qKM77Xug82ZntOuupLy4hj5PQZxM7jPiJF9hxzRZL/mY6lE/O9bJzSp1ZnKI9cZvfQpHwQ7WVXh7zzyzcs2CvbTh8YCdezCZhkK5hfKPONn7e3+90ut2NigvPAAc4wAEOcIADHOAABzjAAc6/E4dFyTj9JzBzuDjJHHsqiELugAY0oAENaEADGtCABjSgAQ1oltPcZa9mfUPT8xIOHOAABzjAAQ5wgAMc4AAHOMApg/P4vYGW+N7A80T2vYFtK3vCdny8vX1wAFKQghSkIAUpSEEKUpCCFKQgBSlInwdpKyO1YxlpMyNtt1ut/V2QghSkIAUpSEEKUpCCFKQgBSlIQfo8SNuC9CR0JaStg4zUsvb22m2QghSkIAUpSEEKUpCCFKQgBSlIQfo8SLcF6edRIiPdz0gP0mPnFUhBClKQghSkIAUpSEEKUpCCFKQgfR6kO4L0D+7ISPcy0tevO529PZCCFKQgBSlIQQpSkIIUpCAFKUhB+jxId7P/mUi4jHQ3I+10dndBClKQghSkIAUpSEEKUpCCFKQgBelzId0TpB8CWWXB1k5Gur/fau3sgBSkIAUpSEEKUpCCFKQgBSlIQQrStZHOUZzQvqsVit2bsRt7/HxkT7gZ8/u4tvE2SMKoGGP6fcvX7pj7kRv4Ho8yhQKJrS127DjMZpkSu3PjEYuCMWdOu6BldDs07cmE+07NEL6NzYIG88O04zisGfdGne02NRtN00Yt9UZRPPX4DK9h+/1REKbtDY8PNGhzjUHgx4077g5HsdDoBZ6jrjEbm/NJ4xMP0wGKeXj19ePVNjufRo02O/HChsXO+6PGMXv7yeuPhaMoZl8/so/dzitxVczHrM0+nX9lp/2+uHRjc9nIvtyK+qE7iX+TXvNyy3Fvf2yWtpGLpVrMdY6Mvpj2nbSnbNdP73HbMljWfUeG40YTz54eur6Xmho9L+jf/GrI+VLR2S2weDpJ24se3Lq2b+3Z2aUtxXFrh2KGsiPmuOOJx02f353fDmvGz98z1tl2s5n9KIw4IevYsZ3qXvxleHaPe8ah4fCBnXgxm4TBwPW4UZ9Zru6NQ8ts1o1b20u4cbh7YB48OfYP6kZfLFOpQrrydDrdrvFQV1JtVaLarkR1uxLVnUpUdytR3atEdb8S1YNKVK1mNbLVRJdVTXhZ1cSXVU2AWdVEmFVNiFnVxJhVTZBZ1URZq5ooa1W0h1UTZa1qoqy1QpSxKBmPF775u0SGEHJHQ1Sxb/VEFXtWT1SxX/VEFdcuPVHFlUtPVHHd0hNVXLX0RBXXLD1R1cRAU7WSmFJNCzRVK4kq1aRAU7WSuFJNCTRVK4ks1YRAU7WS2FJNBzRVq9mvKokt1VxAU7VsbN25frxqGtATF6irKnarpqpit2qqKnarpqrikqWpqrhkaaoqLlmaqopLlqaq4pKlqaqaD+jKVhNdqhmBrmw18aWaE+jKVhNhqlmBrmw1MaaaF+jKVhNlqpmBrmxFe1g1UaaaHOjKakXZpcoDh/xxIjtiPr+bP8/IHmPUotthPXsgUfjkYv5MMuLxqyDxnai206wzy9qps7b4rbWj9vTjPsV4fNTqOB075sMgnB7fu9Hsmd5jVyg8+EwFTkOHh2eJeMSm3FBwTBc5PnA7SkI+wxBPCfMhWPVRbvYcadHVOQ9dHuW4qad8QCZeEJvi4Vahy+hH911MGpnZvJsEnh27gZ9CGVHMJ40eHwQhN9Rm0ns+5L6zeEOzc7XddBa0xUwQD8Ms8SN/Ulr4EHkua14Nedz1Y9E/qYtB4vcz0tom+0vhUakg5I+tLwpjQxzugNXikRul81q0U3MkjieNzLT/unZ/VPsfsK7aHD9/NpjrXk2CyBWCr9PTKnczP4TMD6jC4E4PaY7l+g4Xgduw6pqt58d12YYDl3tivtXyPp3FyTAMkgl32IsX7Kf8/L15NbKjfD0RAbb51Dr9oTXtENMeDk+ED9Pj/jAesZesxX5nxrHnGexw8YrIc/u81rA2L5qXm4Xx9t2dBCGrXae30vyVXadu8qma+xXnfjlilv4AiUNM41zv4vrSvOHp8nZ0NOu8coqZaj7s17q3Oj96IbdvyjR+0Gyje73or/zujsS0FpMhnynZxmhezV4D4k72IlB0kfXkZbmunA/0JIlGtbJjkQ7p4Ww8y0eS5x2q3KUprizrJYrD4Iar+ZldW9ZTMLH7bjxVc5VfXPquMhdzV2VV5gvJ4rJSJjy0Fx9xzMN5ceFhDWbpqumEmzrrQz3bVZWufyjKKcSxtcU+ffnM/jz9csbOT88+v/v4hr0/ffOuw952z7pqAifpqs3vbZGisThgUZAm0n4yTudBn2UpYsTsqJ8mL64/VFCc973QebIz23XWU19cQh4noc8mdhjxEy+w45otlvzNdCifnOtl55Q6szhFe+I2v4Ui4Ye/4XXNbx7A5u9kigeqf8vbo8ABDnCAAxzgAAc4wAEOcIDz7HG+f8FFEIXcAQ1oQAMa0IAGNKABDWhAAxrQLKf57pVAQSNe8QMOcIADHOAABzjAAQ5wgAMc4PyNRRI/8/GEh3achJzVTjZRJvEfVSbxD1vMuLc8++N43HO5HzMxZKLuIXeStP8bbK958jxKILaeQQnE1tpKIGYfPC1bgolIp02ks02ks0Oks0uks0eks0+kc0Cks1BbYCUhqhltUU1pi2pOW1ST2qKa1RbVtLao5rVFNbEtqpndoprZLbK1mmpmt6hmdktrZquX7FuQKl+kbwUZaQ+VL8S3gow07ssX21tBRhrz5QvqrSAjjfcViuatokM0j+Xb2Aql8FbRIZrK8j1shQJ3q+gQzWb5BrZC2bpV1kGi+SzfvVYoRreKDtF8lm9d5UvMLcisUFRuFR1p96xQOG4VHWm4r1AcbhUdabivUABuFR1puK9S5G0lIaoZLd/BVindtpIQ1aSWb2KrFGRbSYhqXsv3sVXKrK20MlLNbPlWtkrxtJWEqGa2fDdDSbRnURINZphhhhlmmGGGGWaYYYYZZphhhhnmf5J5aga3PAxdh3+wxX9UWWYTJfGf3AlK4j8eKImvdaAkPkriaxwoif/tgZL43x4oia95oCQ+SuL/8EBJfOAABzjAAQ5wgAMc4AAHOMABznMoKAka0IAGNKABDWhAAxrQgAY0z4fm/6aQJXCAAxzgAAc4wAEOcIADHOCU9/c3lMR/7Y65H7mB7/EoQkH8f1ZB/CC8Yd3BwO273O9PH8vgr7cAfn71N5anf5//PvvzUT3/5fGPXuBMxZ+jeOz99p//ArH0GVs="
               },
               {
                  "name" : "annual_peak_electric_demand",
                  "units" : "kW",
                  "value" : 17.779070000000001
               },
               {
                  "name" : "first_year_capital_cost",
                  "units" : "$",
                  "value" : 0
               },
               {
                  "name" : "annual_utility_cost",
                  "units" : "$",
                  "value" : 6003.9899999999998
               },
               {
                  "name" : "total_lifecycle_cost",
                  "units" : "$",
                  "value" : 101145.92999999999
               }
            ],
            "step_warnings" : []
         }
      }
   ],
   "updated_at" : "20170710T183129Z",
   "weather_file" : "USA_CO_Denver.Intl.AP.725650_TMY3.epw"
}
