{
   "completed_at" : "20170710T185622Z",
   "completed_status" : "Success",
   "created_at" : "2017-07-10 18:52:08 +0000",
   "current_step" : 5,
   "description" : "",
   "eplusout_err" : "Program Version,EnergyPlus, Version 8.7.0-78a111df4a, YMD=2017.07.10 18:53,IDD_Version 8.7.0\n   ************* IDF Context for following error/warning message:\n   ************* Note -- lines truncated at 300 characters, if necessary...\n   *************      5 Building,\n   ************* indicated Name=NECB 2011-MidriseApartment-NECB HDD Method-CAN_MB_Churchill.719130_CWEC.epw created: 2017-07-10 18:52:14 +0000\n   ************* Only last 1 lines before error line shown.....\n   *************      6   NECB 2011-MidriseApartment-NECB HDD Method-CAN_MB_Churchill.719130_CWEC.epw created: 2017-07-10 18:52:14 +0000, !- Name\n   ** Warning ** IP: IDF line~6 Alpha Argument length exceeds maximum, will be truncated=  NECB 2011-MidriseApartment-NECB HDD Method-CAN_MB_Churchill.719130_CWEC.epw created: 2017-07-10 18:52:14 +000\n   **   ~~~   ** Will be processed as Alpha=NECB 2011-MIDRISEAPARTMENT-NECB HDD METHOD-CAN_MB_CHURCHILL.719130_CWEC.EPW CREATED: 2017-07-10 18:52:14 +0000\n   ************* Beginning Zone Sizing Calculations\n   ** Warning ** ProcessScheduleInput: Schedule:Day:Interval=\"ECONOMIZER MAX OA FRACTION 100 PCT DEFAULT\", Blank Schedule Type Limits Name input -- will not be validated.\n   ** Warning ** ProcessScheduleInput: Schedule:Day:Interval=\"SCHEDULE DAY 1\", Blank Schedule Type Limits Name input -- will not be validated.\n   ** Warning ** ProcessScheduleInput: Schedule:Day:Interval=\"SCHEDULE DAY 10\", Blank Schedule Type Limits Name input -- will not be validated.\n   ** Warning ** ProcessScheduleInput: Schedule:Day:Interval=\"SCHEDULE DAY 11\", Blank Schedule Type Limits Name input -- will not be validated.\n   ** Warning ** ProcessScheduleInput: Schedule:Day:Interval=\"SCHEDULE DAY 12\", Blank Schedule Type Limits Name input -- will not be validated.\n   ** Warning ** ProcessScheduleInput: Schedule:Day:Interval=\"SCHEDULE DAY 13\", Blank Schedule Type Limits Name input -- will not be validated.\n   ** Warning ** ProcessScheduleInput: Schedule:Day:Interval=\"SCHEDULE DAY 14\", Blank Schedule Type Limits Name input -- will not be validated.\n   ** Warning ** ProcessScheduleInput: Schedule:Day:Interval=\"SCHEDULE DAY 15\", Blank Schedule Type Limits Name input -- will not be validated.\n   ** Warning ** ProcessScheduleInput: Schedule:Day:Interval=\"SCHEDULE DAY 16\", Blank Schedule Type Limits Name input -- will not be validated.\n   ** Warning ** ProcessScheduleInput: Schedule:Day:Interval=\"SCHEDULE DAY 17\", Blank Schedule Type Limits Name input -- will not be validated.\n   ** Warning ** ProcessScheduleInput: Schedule:Day:Interval=\"SCHEDULE DAY 18\", Blank Schedule Type Limits Name input -- will not be validated.\n   ** Warning ** ProcessScheduleInput: Schedule:Day:Interval=\"SCHEDULE DAY 19\", Blank Schedule Type Limits Name input -- will not be validated.\n   ** Warning ** ProcessScheduleInput: Schedule:Day:Interval=\"SCHEDULE DAY 2\", Blank Schedule Type Limits Name input -- will not be validated.\n   ** Warning ** ProcessScheduleInput: Schedule:Day:Interval=\"SCHEDULE DAY 20\", Blank Schedule Type Limits Name input -- will not be validated.\n   ** Warning ** ProcessScheduleInput: Schedule:Day:Interval=\"SCHEDULE DAY 21\", Blank Schedule Type Limits Name input -- will not be validated.\n   ** Warning ** ProcessScheduleInput: Schedule:Day:Interval=\"SCHEDULE DAY 22\", Blank Schedule Type Limits Name input -- will not be validated.\n   ** Warning ** ProcessScheduleInput: Schedule:Day:Interval=\"SCHEDULE DAY 23\", Blank Schedule Type Limits Name input -- will not be validated.\n   ** Warning ** ProcessScheduleInput: Schedule:Day:Interval=\"SCHEDULE DAY 24\", Blank Schedule Type Limits Name input -- will not be validated.\n   ** Warning ** ProcessScheduleInput: Schedule:Day:Interval=\"SCHEDULE DAY 25\", Blank Schedule Type Limits Name input -- will not be validated.\n   ** Warning ** ProcessScheduleInput: Schedule:Day:Interval=\"SCHEDULE DAY 26\", Blank Schedule Type Limits Name input -- will not be validated.\n   ** Warning ** ProcessScheduleInput: Schedule:Day:Interval=\"SCHEDULE DAY 27\", Blank Schedule Type Limits Name input -- will not be validated.\n   ** Warning ** ProcessScheduleInput: Schedule:Day:Interval=\"SCHEDULE DAY 28\", Blank Schedule Type Limits Name input -- will not be validated.\n   ** Warning ** ProcessScheduleInput: Schedule:Day:Interval=\"SCHEDULE DAY 29\", Blank Schedule Type Limits Name input -- will not be validated.\n   ** Warning ** ProcessScheduleInput: Schedule:Day:Interval=\"SCHEDULE DAY 30\", Blank Schedule Type Limits Name input -- will not be validated.\n   ** Warning ** ProcessScheduleInput: Schedule:Day:Interval=\"SCHEDULE DAY 31\", Blank Schedule Type Limits Name input -- will not be validated.\n   ** Warning ** ProcessScheduleInput: Schedule:Day:Interval=\"SCHEDULE DAY 32\", Blank Schedule Type Limits Name input -- will not be validated.\n   ** Warning ** ProcessScheduleInput: Schedule:Day:Interval=\"SCHEDULE DAY 33\", Blank Schedule Type Limits Name input -- will not be validated.\n   ** Warning ** ProcessScheduleInput: Schedule:Day:Interval=\"SCHEDULE DAY 34\", Blank Schedule Type Limits Name input -- will not be validated.\n   ** Warning ** ProcessScheduleInput: Schedule:Day:Interval=\"SCHEDULE DAY 35\", Blank Schedule Type Limits Name input -- will not be validated.\n   ** Warning ** ProcessScheduleInput: Schedule:Day:Interval=\"SCHEDULE DAY 36\", Blank Schedule Type Limits Name input -- will not be validated.\n   ** Warning ** ProcessScheduleInput: Schedule:Day:Interval=\"SCHEDULE DAY 37\", Blank Schedule Type Limits Name input -- will not be validated.\n   ** Warning ** ProcessScheduleInput: Schedule:Day:Interval=\"SCHEDULE DAY 38\", Blank Schedule Type Limits Name input -- will not be validated.\n   ** Warning ** ProcessScheduleInput: Schedule:Day:Interval=\"SCHEDULE DAY 39\", Blank Schedule Type Limits Name input -- will not be validated.\n   ** Warning ** ProcessScheduleInput: Schedule:Day:Interval=\"SCHEDULE DAY 40\", Blank Schedule Type Limits Name input -- will not be validated.\n   ** Warning ** ProcessScheduleInput: Schedule:Day:Interval=\"SCHEDULE DAY 41\", Blank Schedule Type Limits Name input -- will not be validated.\n   ** Warning ** ProcessScheduleInput: Schedule:Day:Interval=\"SCHEDULE DAY 42\", Blank Schedule Type Limits Name input -- will not be validated.\n   ** Warning ** ProcessScheduleInput: Schedule:Day:Interval=\"SCHEDULE DAY 43\", Blank Schedule Type Limits Name input -- will not be validated.\n   ** Warning ** ProcessScheduleInput: Schedule:Day:Interval=\"SCHEDULE DAY 44\", Blank Schedule Type Limits Name input -- will not be validated.\n   ** Warning ** ProcessScheduleInput: Schedule:Day:Interval=\"SCHEDULE DAY 45\", Blank Schedule Type Limits Name input -- will not be validated.\n   ** Warning ** ProcessScheduleInput: Schedule:Day:Interval=\"SCHEDULE DAY 46\", Blank Schedule Type Limits Name input -- will not be validated.\n   ** Warning ** ProcessScheduleInput: Schedule:Day:Interval=\"SCHEDULE DAY 47\", Blank Schedule Type Limits Name input -- will not be validated.\n   ** Warning ** ProcessScheduleInput: Schedule:Day:Interval=\"SCHEDULE DAY 48\", Blank Schedule Type Limits Name input -- will not be validated.\n   ** Warning ** ProcessScheduleInput: Schedule:Day:Interval=\"SCHEDULE DAY 49\", Blank Schedule Type Limits Name input -- will not be validated.\n   ** Warning ** ProcessScheduleInput: Schedule:Day:Interval=\"SCHEDULE DAY 50\", Blank Schedule Type Limits Name input -- will not be validated.\n   ** Warning ** ProcessScheduleInput: Schedule:Day:Interval=\"SCHEDULE DAY 51\", Blank Schedule Type Limits Name input -- will not be validated.\n   ** Warning ** ProcessScheduleInput: Schedule:Day:Interval=\"SCHEDULE DAY 52\", Blank Schedule Type Limits Name input -- will not be validated.\n   ** Warning ** ProcessScheduleInput: Schedule:Day:Interval=\"SCHEDULE DAY 53\", Blank Schedule Type Limits Name input -- will not be validated.\n   ** Warning ** ProcessScheduleInput: Schedule:Day:Interval=\"SCHEDULE DAY 54\", Blank Schedule Type Limits Name input -- will not be validated.\n   ** Warning ** ProcessScheduleInput: Schedule:Day:Interval=\"SCHEDULE DAY 55\", Blank Schedule Type Limits Name input -- will not be validated.\n   ** Warning ** ProcessScheduleInput: Schedule:Day:Interval=\"SCHEDULE DAY 56\", Blank Schedule Type Limits Name input -- will not be validated.\n   ** Warning ** ProcessScheduleInput: Schedule:Day:Interval=\"SCHEDULE DAY 57\", Blank Schedule Type Limits Name input -- will not be validated.\n   ** Warning ** ProcessScheduleInput: Schedule:Day:Interval=\"SCHEDULE DAY 58\", Blank Schedule Type Limits Name input -- will not be validated.\n   ** Warning ** ProcessScheduleInput: Schedule:Day:Interval=\"SCHEDULE DAY 59\", Blank Schedule Type Limits Name input -- will not be validated.\n   ** Warning ** ProcessScheduleInput: Schedule:Day:Interval=\"SCHEDULE DAY 6\", Blank Schedule Type Limits Name input -- will not be validated.\n   ** Warning ** ProcessScheduleInput: Schedule:Day:Interval=\"SCHEDULE DAY 60\", Blank Schedule Type Limits Name input -- will not be validated.\n   ** Warning ** ProcessScheduleInput: Schedule:Day:Interval=\"SCHEDULE DAY 61\", Blank Schedule Type Limits Name input -- will not be validated.\n   ** Warning ** ProcessScheduleInput: Schedule:Day:Interval=\"SCHEDULE DAY 62\", Blank Schedule Type Limits Name input -- will not be validated.\n   ** Warning ** ProcessScheduleInput: Schedule:Day:Interval=\"SCHEDULE DAY 63\", Blank Schedule Type Limits Name input -- will not be validated.\n   ** Warning ** ProcessScheduleInput: Schedule:Day:Interval=\"SCHEDULE DAY 64\", Blank Schedule Type Limits Name input -- will not be validated.\n   ** Warning ** ProcessScheduleInput: Schedule:Day:Interval=\"SCHEDULE DAY 65\", Blank Schedule Type Limits Name input -- will not be validated.\n   ** Warning ** ProcessScheduleInput: Schedule:Day:Interval=\"SCHEDULE DAY 66\", Blank Schedule Type Limits Name input -- will not be validated.\n   ** Warning ** ProcessScheduleInput: Schedule:Day:Interval=\"SCHEDULE DAY 67\", Blank Schedule Type Limits Name input -- will not be validated.\n   ** Warning ** ProcessScheduleInput: Schedule:Day:Interval=\"SCHEDULE DAY 68\", Blank Schedule Type Limits Name input -- will not be validated.\n   ** Warning ** ProcessScheduleInput: Schedule:Day:Interval=\"SCHEDULE DAY 69\", Blank Schedule Type Limits Name input -- will not be validated.\n   ** Warning ** ProcessScheduleInput: Schedule:Day:Interval=\"SCHEDULE DAY 7\", Blank Schedule Type Limits Name input -- will not be validated.\n   ** Warning ** ProcessScheduleInput: Schedule:Day:Interval=\"SCHEDULE DAY 70\", Blank Schedule Type Limits Name input -- will not be validated.\n   ** Warning ** ProcessScheduleInput: Schedule:Day:Interval=\"SCHEDULE DAY 71\", Blank Schedule Type Limits Name input -- will not be validated.\n   ** Warning ** ProcessScheduleInput: Schedule:Day:Interval=\"SCHEDULE DAY 72\", Blank Schedule Type Limits Name input -- will not be validated.\n   ** Warning ** ProcessScheduleInput: Schedule:Day:Interval=\"SCHEDULE DAY 73\", Blank Schedule Type Limits Name input -- will not be validated.\n   ** Warning ** ProcessScheduleInput: Schedule:Day:Interval=\"SCHEDULE DAY 74\", Blank Schedule Type Limits Name input -- will not be validated.\n   ** Warning ** ProcessScheduleInput: Schedule:Day:Interval=\"SCHEDULE DAY 75\", Blank Schedule Type Limits Name input -- will not be validated.\n   ** Warning ** ProcessScheduleInput: Schedule:Day:Interval=\"SCHEDULE DAY 76\", Blank Schedule Type Limits Name input -- will not be validated.\n   ** Warning ** ProcessScheduleInput: Schedule:Day:Interval=\"SCHEDULE DAY 77\", Blank Schedule Type Limits Name input -- will not be validated.\n   ** Warning ** ProcessScheduleInput: Schedule:Day:Interval=\"SCHEDULE DAY 78\", Blank Schedule Type Limits Name input -- will not be validated.\n   ** Warning ** ProcessScheduleInput: Schedule:Day:Interval=\"SCHEDULE DAY 79\", Blank Schedule Type Limits Name input -- will not be validated.\n   ** Warning ** ProcessScheduleInput: Schedule:Day:Interval=\"SCHEDULE DAY 8\", Blank Schedule Type Limits Name input -- will not be validated.\n   ** Warning ** ProcessScheduleInput: Schedule:Day:Interval=\"SCHEDULE DAY 9\", Blank Schedule Type Limits Name input -- will not be validated.\n   ** Warning ** ProcessScheduleInput: Schedule:Year=\"ECONOMIZER MAX OA FRACTION 100 PCT\", Blank Schedule Type Limits Name input -- will not be validated.\n   ** Warning ** ProcessScheduleInput: Schedule:Year=\"SCHEDULE RULESET 10\", Blank Schedule Type Limits Name input -- will not be validated.\n   ** Warning ** ProcessScheduleInput: Schedule:Year=\"SCHEDULE RULESET 11\", Blank Schedule Type Limits Name input -- will not be validated.\n   ** Warning ** ProcessScheduleInput: Schedule:Year=\"SCHEDULE RULESET 12\", Blank Schedule Type Limits Name input -- will not be validated.\n   ** Warning ** ProcessScheduleInput: Schedule:Year=\"SCHEDULE RULESET 13\", Blank Schedule Type Limits Name input -- will not be validated.\n   ** Warning ** ProcessScheduleInput: Schedule:Year=\"SCHEDULE RULESET 14\", Blank Schedule Type Limits Name input -- will not be validated.\n   ** Warning ** ProcessScheduleInput: Schedule:Year=\"SCHEDULE RULESET 15\", Blank Schedule Type Limits Name input -- will not be validated.\n   ** Warning ** ProcessScheduleInput: Schedule:Year=\"SCHEDULE RULESET 16\", Blank Schedule Type Limits Name input -- will not be validated.\n   ** Warning ** ProcessScheduleInput: Schedule:Year=\"SCHEDULE RULESET 17\", Blank Schedule Type Limits Name input -- will not be validated.\n   ** Warning ** ProcessScheduleInput: Schedule:Year=\"SCHEDULE RULESET 18\", Blank Schedule Type Limits Name input -- will not be validated.\n   ** Warning ** ProcessScheduleInput: Schedule:Year=\"SCHEDULE RULESET 19\", Blank Schedule Type Limits Name input -- will not be validated.\n   ** Warning ** ProcessScheduleInput: Schedule:Year=\"SCHEDULE RULESET 20\", Blank Schedule Type Limits Name input -- will not be validated.\n   ** Warning ** ProcessScheduleInput: Schedule:Year=\"SCHEDULE RULESET 21\", Blank Schedule Type Limits Name input -- will not be validated.\n   ** Warning ** ProcessScheduleInput: Schedule:Year=\"SCHEDULE RULESET 22\", Blank Schedule Type Limits Name input -- will not be validated.\n   ** Warning ** ProcessScheduleInput: Schedule:Year=\"SCHEDULE RULESET 23\", Blank Schedule Type Limits Name input -- will not be validated.\n   ** Warning ** ProcessScheduleInput: Schedule:Year=\"SCHEDULE RULESET 24\", Blank Schedule Type Limits Name input -- will not be validated.\n   ** Warning ** ProcessScheduleInput: Schedule:Year=\"SCHEDULE RULESET 25\", Blank Schedule Type Limits Name input -- will not be validated.\n   ** Warning ** ProcessScheduleInput: Schedule:Year=\"SCHEDULE RULESET 26\", Blank Schedule Type Limits Name input -- will not be validated.\n   ** Warning ** ProcessScheduleInput: Schedule:Year=\"SCHEDULE RULESET 27\", Blank Schedule Type Limits Name input -- will not be validated.\n   ** Warning ** ProcessScheduleInput: Schedule:Year=\"SCHEDULE RULESET 28\", Blank Schedule Type Limits Name input -- will not be validated.\n   ** Warning ** ProcessScheduleInput: Schedule:Year=\"SCHEDULE RULESET 29\", Blank Schedule Type Limits Name input -- will not be validated.\n   ** Warning ** ProcessScheduleInput: Schedule:Year=\"SCHEDULE RULESET 3\", Blank Schedule Type Limits Name input -- will not be validated.\n   ** Warning ** ProcessScheduleInput: Schedule:Year=\"SCHEDULE RULESET 30\", Blank Schedule Type Limits Name input -- will not be validated.\n   ** Warning ** ProcessScheduleInput: Schedule:Year=\"SCHEDULE RULESET 31\", Blank Schedule Type Limits Name input -- will not be validated.\n   ** Warning ** ProcessScheduleInput: Schedule:Year=\"SCHEDULE RULESET 32\", Blank Schedule Type Limits Name input -- will not be validated.\n   ** Warning ** ProcessScheduleInput: Schedule:Year=\"SCHEDULE RULESET 33\", Blank Schedule Type Limits Name input -- will not be validated.\n   ** Warning ** ProcessScheduleInput: Schedule:Year=\"SCHEDULE RULESET 34\", Blank Schedule Type Limits Name input -- will not be validated.\n   ** Warning ** ProcessScheduleInput: Schedule:Year=\"SCHEDULE RULESET 35\", Blank Schedule Type Limits Name input -- will not be validated.\n   ** Warning ** ProcessScheduleInput: Schedule:Year=\"SCHEDULE RULESET 36\", Blank Schedule Type Limits Name input -- will not be validated.\n   ** Warning ** ProcessScheduleInput: Schedule:Year=\"SCHEDULE RULESET 37\", Blank Schedule Type Limits Name input -- will not be validated.\n   ** Warning ** ProcessScheduleInput: Schedule:Year=\"SCHEDULE RULESET 38\", Blank Schedule Type Limits Name input -- will not be validated.\n   ** Warning ** ProcessScheduleInput: Schedule:Year=\"SCHEDULE RULESET 39\", Blank Schedule Type Limits Name input -- will not be validated.\n   ** Warning ** ProcessScheduleInput: Schedule:Year=\"SCHEDULE RULESET 4\", Blank Schedule Type Limits Name input -- will not be validated.\n   ** Warning ** ProcessScheduleInput: Schedule:Year=\"SCHEDULE RULESET 40\", Blank Schedule Type Limits Name input -- will not be validated.\n   ** Warning ** ProcessScheduleInput: Schedule:Year=\"SCHEDULE RULESET 41\", Blank Schedule Type Limits Name input -- will not be validated.\n   ** Warning ** ProcessScheduleInput: Schedule:Year=\"SCHEDULE RULESET 42\", Blank Schedule Type Limits Name input -- will not be validated.\n   ** Warning ** ProcessScheduleInput: Schedule:Year=\"SCHEDULE RULESET 43\", Blank Schedule Type Limits Name input -- will not be validated.\n   ** Warning ** ProcessScheduleInput: Schedule:Year=\"SCHEDULE RULESET 44\", Blank Schedule Type Limits Name input -- will not be validated.\n   ** Warning ** ProcessScheduleInput: Schedule:Year=\"SCHEDULE RULESET 45\", Blank Schedule Type Limits Name input -- will not be validated.\n   ** Warning ** ProcessScheduleInput: Schedule:Year=\"SCHEDULE RULESET 46\", Blank Schedule Type Limits Name input -- will not be validated.\n   ** Warning ** ProcessScheduleInput: Schedule:Year=\"SCHEDULE RULESET 47\", Blank Schedule Type Limits Name input -- will not be validated.\n   ** Warning ** ProcessScheduleInput: Schedule:Year=\"SCHEDULE RULESET 48\", Blank Schedule Type Limits Name input -- will not be validated.\n   ** Warning ** ProcessScheduleInput: Schedule:Year=\"SCHEDULE RULESET 49\", Blank Schedule Type Limits Name input -- will not be validated.\n   ** Warning ** ProcessScheduleInput: Schedule:Year=\"SCHEDULE RULESET 5\", Blank Schedule Type Limits Name input -- will not be validated.\n   ** Warning ** ProcessScheduleInput: Schedule:Year=\"SCHEDULE RULESET 50\", Blank Schedule Type Limits Name input -- will not be validated.\n   ** Warning ** ProcessScheduleInput: Schedule:Year=\"SCHEDULE RULESET 51\", Blank Schedule Type Limits Name input -- will not be validated.\n   ** Warning ** ProcessScheduleInput: Schedule:Year=\"SCHEDULE RULESET 52\", Blank Schedule Type Limits Name input -- will not be validated.\n   ** Warning ** ProcessScheduleInput: Schedule:Year=\"SCHEDULE RULESET 53\", Blank Schedule Type Limits Name input -- will not be validated.\n   ** Warning ** ProcessScheduleInput: Schedule:Year=\"SCHEDULE RULESET 54\", Blank Schedule Type Limits Name input -- will not be validated.\n   ** Warning ** ProcessScheduleInput: Schedule:Year=\"SCHEDULE RULESET 55\", Blank Schedule Type Limits Name input -- will not be validated.\n   ** Warning ** ProcessScheduleInput: Schedule:Year=\"SCHEDULE RULESET 56\", Blank Schedule Type Limits Name input -- will not be validated.\n   ** Warning ** ProcessScheduleInput: Schedule:Year=\"SCHEDULE RULESET 57\", Blank Schedule Type Limits Name input -- will not be validated.\n   ** Warning ** ProcessScheduleInput: Schedule:Year=\"SCHEDULE RULESET 58\", Blank Schedule Type Limits Name input -- will not be validated.\n   ** Warning ** ProcessScheduleInput: Schedule:Year=\"SCHEDULE RULESET 59\", Blank Schedule Type Limits Name input -- will not be validated.\n   ** Warning ** ProcessScheduleInput: Schedule:Year=\"SCHEDULE RULESET 6\", Blank Schedule Type Limits Name input -- will not be validated.\n   ** Warning ** ProcessScheduleInput: Schedule:Year=\"SCHEDULE RULESET 60\", Blank Schedule Type Limits Name input -- will not be validated.\n   ** Warning ** ProcessScheduleInput: Schedule:Year=\"SCHEDULE RULESET 61\", Blank Schedule Type Limits Name input -- will not be validated.\n   ** Warning ** ProcessScheduleInput: Schedule:Year=\"SCHEDULE RULESET 62\", Blank Schedule Type Limits Name input -- will not be validated.\n   ** Warning ** ProcessScheduleInput: Schedule:Year=\"SCHEDULE RULESET 63\", Blank Schedule Type Limits Name input -- will not be validated.\n   ** Warning ** ProcessScheduleInput: Schedule:Year=\"SCHEDULE RULESET 64\", Blank Schedule Type Limits Name input -- will not be validated.\n   ** Warning ** ProcessScheduleInput: Schedule:Year=\"SCHEDULE RULESET 65\", Blank Schedule Type Limits Name input -- will not be validated.\n   ** Warning ** ProcessScheduleInput: Schedule:Year=\"SCHEDULE RULESET 66\", Blank Schedule Type Limits Name input -- will not be validated.\n   ** Warning ** ProcessScheduleInput: Schedule:Year=\"SCHEDULE RULESET 67\", Blank Schedule Type Limits Name input -- will not be validated.\n   ** Warning ** ProcessScheduleInput: Schedule:Year=\"SCHEDULE RULESET 68\", Blank Schedule Type Limits Name input -- will not be validated.\n   ** Warning ** ProcessScheduleInput: Schedule:Year=\"SCHEDULE RULESET 69\", Blank Schedule Type Limits Name input -- will not be validated.\n   ** Warning ** ProcessScheduleInput: Schedule:Year=\"SCHEDULE RULESET 7\", Blank Schedule Type Limits Name input -- will not be validated.\n   ** Warning ** ProcessScheduleInput: Schedule:Year=\"SCHEDULE RULESET 70\", Blank Schedule Type Limits Name input -- will not be validated.\n   ** Warning ** ProcessScheduleInput: Schedule:Year=\"SCHEDULE RULESET 71\", Blank Schedule Type Limits Name input -- will not be validated.\n   ** Warning ** ProcessScheduleInput: Schedule:Year=\"SCHEDULE RULESET 72\", Blank Schedule Type Limits Name input -- will not be validated.\n   ** Warning ** ProcessScheduleInput: Schedule:Year=\"SCHEDULE RULESET 73\", Blank Schedule Type Limits Name input -- will not be validated.\n   ** Warning ** ProcessScheduleInput: Schedule:Year=\"SCHEDULE RULESET 74\", Blank Schedule Type Limits Name input -- will not be validated.\n   ** Warning ** ProcessScheduleInput: Schedule:Year=\"SCHEDULE RULESET 8\", Blank Schedule Type Limits Name input -- will not be validated.\n   ** Warning ** ProcessScheduleInput: Schedule:Year=\"SCHEDULE RULESET 9\", Blank Schedule Type Limits Name input -- will not be validated.\n   ** Warning ** ProcessScheduleInput: Schedule:Constant=\"ALWAYS OFF DISCRETE\", Blank Schedule Type Limits Name input -- will not be validated.\n   ** Warning ** ProcessScheduleInput: Schedule:Constant=\"ALWAYS ON CONTINUOUS\", Blank Schedule Type Limits Name input -- will not be validated.\n   ** Warning ** CheckUsedConstructions: There are 26 nominally unused constructions in input.\n   **   ~~~   ** For explicit details on each unused construction, use Output:Diagnostics,DisplayExtraWarnings;\n   ************* Beginning System Sizing Calculations\n   ** Warning ** GetDXCoils: Coil:Cooling:DX:SingleSpeed=\"COIL COOLING DX SINGLE SPEED 24 7KBTU/HR 11.0EER\", invalid\n   **   ~~~   ** ...Part Load Fraction Correlation Curve Name = DXCOOL-NECB2011-REF-COOLPLFFPLR 16 has out of range value.\n   **   ~~~   ** ...Curve maximum must be <= 1.0, curve max at PLR = 0.99 is 1.015\n   **   ~~~   ** ...Setting curve maximum to 1.0 and simulation continues.\n   ** Warning ** GetDXCoils: Coil:Cooling:DX:SingleSpeed=\"COIL COOLING DX SINGLE SPEED 22 5KBTU/HR 11.0EER\", invalid\n   **   ~~~   ** ...Part Load Fraction Correlation Curve Name = DXCOOL-NECB2011-REF-COOLPLFFPLR 14 has out of range value.\n   **   ~~~   ** ...Curve maximum must be <= 1.0, curve max at PLR = 0.99 is 1.015\n   **   ~~~   ** ...Setting curve maximum to 1.0 and simulation continues.\n   ** Warning ** GetDXCoils: Coil:Cooling:DX:SingleSpeed=\"COIL COOLING DX SINGLE SPEED 21 5KBTU/HR 11.0EER\", invalid\n   **   ~~~   ** ...Part Load Fraction Correlation Curve Name = DXCOOL-NECB2011-REF-COOLPLFFPLR 13 has out of range value.\n   **   ~~~   ** ...Curve maximum must be <= 1.0, curve max at PLR = 0.99 is 1.015\n   **   ~~~   ** ...Setting curve maximum to 1.0 and simulation continues.\n   ** Warning ** GetDXCoils: Coil:Cooling:DX:SingleSpeed=\"COIL COOLING DX SINGLE SPEED 23 10KBTU/HR 10.5EER\", invalid\n   **   ~~~   ** ...Part Load Fraction Correlation Curve Name = DXCOOL-NECB2011-REF-COOLPLFFPLR 15 has out of range value.\n   **   ~~~   ** ...Curve maximum must be <= 1.0, curve max at PLR = 0.99 is 1.015\n   **   ~~~   ** ...Setting curve maximum to 1.0 and simulation continues.\n   ** Warning ** GetDXCoils: Coil:Cooling:DX:SingleSpeed=\"COIL COOLING DX SINGLE SPEED 20 9KBTU/HR 10.6EER\", invalid\n   **   ~~~   ** ...Part Load Fraction Correlation Curve Name = DXCOOL-NECB2011-REF-COOLPLFFPLR 12 has out of range value.\n   **   ~~~   ** ...Curve maximum must be <= 1.0, curve max at PLR = 0.99 is 1.015\n   **   ~~~   ** ...Setting curve maximum to 1.0 and simulation continues.\n   ** Warning ** GetDXCoils: Coil:Cooling:DX:SingleSpeed=\"COIL COOLING DX SINGLE SPEED 25 10KBTU/HR 10.3EER\", invalid\n   **   ~~~   ** ...Part Load Fraction Correlation Curve Name = DXCOOL-NECB2011-REF-COOLPLFFPLR 17 has out of range value.\n   **   ~~~   ** ...Curve maximum must be <= 1.0, curve max at PLR = 0.99 is 1.015\n   **   ~~~   ** ...Setting curve maximum to 1.0 and simulation continues.\n   ** Warning ** GetDXCoils: Coil:Cooling:DX:SingleSpeed=\"COIL COOLING DX SINGLE SPEED 26 11KBTU/HR 10.3EER\", invalid\n   **   ~~~   ** ...Part Load Fraction Correlation Curve Name = DXCOOL-NECB2011-REF-COOLPLFFPLR 18 has out of range value.\n   **   ~~~   ** ...Curve maximum must be <= 1.0, curve max at PLR = 0.99 is 1.015\n   **   ~~~   ** ...Setting curve maximum to 1.0 and simulation continues.\n   ** Warning ** GetDXCoils: Coil:Cooling:DX:SingleSpeed=\"COIL COOLING DX SINGLE SPEED 27 12KBTU/HR 10.0EER\", invalid\n   **   ~~~   ** ...Part Load Fraction Correlation Curve Name = DXCOOL-NECB2011-REF-COOLPLFFPLR 19 has out of range value.\n   **   ~~~   ** ...Curve maximum must be <= 1.0, curve max at PLR = 0.99 is 1.015\n   **   ~~~   ** ...Setting curve maximum to 1.0 and simulation continues.\n   ** Warning ** GetDXCoils: Coil:Cooling:DX:SingleSpeed=\"COIL COOLING DX SINGLE SPEED 6 7KBTU/HR 11.0EER\", invalid\n   **   ~~~   ** ...Part Load Fraction Correlation Curve Name = DXCOOL-NECB2011-REF-COOLPLFFPLR 24 has out of range value.\n   **   ~~~   ** ...Curve maximum must be <= 1.0, curve max at PLR = 0.99 is 1.015\n   **   ~~~   ** ...Setting curve maximum to 1.0 and simulation continues.\n   ** Warning ** GetDXCoils: Coil:Cooling:DX:SingleSpeed=\"COIL COOLING DX SINGLE SPEED 4 6KBTU/HR 11.0EER\", invalid\n   **   ~~~   ** ...Part Load Fraction Correlation Curve Name = DXCOOL-NECB2011-REF-COOLPLFFPLR 22 has out of range value.\n   **   ~~~   ** ...Curve maximum must be <= 1.0, curve max at PLR = 0.99 is 1.015\n   **   ~~~   ** ...Setting curve maximum to 1.0 and simulation continues.\n   ** Warning ** GetDXCoils: Coil:Cooling:DX:SingleSpeed=\"COIL COOLING DX SINGLE SPEED 3 6KBTU/HR 11.0EER\", invalid\n   **   ~~~   ** ...Part Load Fraction Correlation Curve Name = DXCOOL-NECB2011-REF-COOLPLFFPLR 21 has out of range value.\n   **   ~~~   ** ...Curve maximum must be <= 1.0, curve max at PLR = 0.99 is 1.015\n   **   ~~~   ** ...Setting curve maximum to 1.0 and simulation continues.\n   ** Warning ** GetDXCoils: Coil:Cooling:DX:SingleSpeed=\"COIL COOLING DX SINGLE SPEED 2 9KBTU/HR 10.5EER\", invalid\n   **   ~~~   ** ...Part Load Fraction Correlation Curve Name = DXCOOL-NECB2011-REF-COOLPLFFPLR 11 has out of range value.\n   **   ~~~   ** ...Curve maximum must be <= 1.0, curve max at PLR = 0.99 is 1.015\n   **   ~~~   ** ...Setting curve maximum to 1.0 and simulation continues.\n   ** Warning ** GetDXCoils: Coil:Cooling:DX:SingleSpeed=\"COIL COOLING DX SINGLE SPEED 5 9KBTU/HR 10.5EER\", invalid\n   **   ~~~   ** ...Part Load Fraction Correlation Curve Name = DXCOOL-NECB2011-REF-COOLPLFFPLR 23 has out of range value.\n   **   ~~~   ** ...Curve maximum must be <= 1.0, curve max at PLR = 0.99 is 1.015\n   **   ~~~   ** ...Setting curve maximum to 1.0 and simulation continues.\n   ** Warning ** GetDXCoils: Coil:Cooling:DX:SingleSpeed=\"COIL COOLING DX SINGLE SPEED 7 11KBTU/HR 10.3EER\", invalid\n   **   ~~~   ** ...Part Load Fraction Correlation Curve Name = DXCOOL-NECB2011-REF-COOLPLFFPLR 25 has out of range value.\n   **   ~~~   ** ...Curve maximum must be <= 1.0, curve max at PLR = 0.99 is 1.015\n   **   ~~~   ** ...Setting curve maximum to 1.0 and simulation continues.\n   ** Warning ** GetDXCoils: Coil:Cooling:DX:SingleSpeed=\"COIL COOLING DX SINGLE SPEED 9 11KBTU/HR 10.2EER\", invalid\n   **   ~~~   ** ...Part Load Fraction Correlation Curve Name = DXCOOL-NECB2011-REF-COOLPLFFPLR 27 has out of range value.\n   **   ~~~   ** ...Curve maximum must be <= 1.0, curve max at PLR = 0.99 is 1.015\n   **   ~~~   ** ...Setting curve maximum to 1.0 and simulation continues.\n   ** Warning ** GetDXCoils: Coil:Cooling:DX:SingleSpeed=\"COIL COOLING DX SINGLE SPEED 8 12KBTU/HR 9.8EER\", invalid\n   **   ~~~   ** ...Part Load Fraction Correlation Curve Name = DXCOOL-NECB2011-REF-COOLPLFFPLR 26 has out of range value.\n   **   ~~~   ** ...Curve maximum must be <= 1.0, curve max at PLR = 0.99 is 1.015\n   **   ~~~   ** ...Setting curve maximum to 1.0 and simulation continues.\n   ** Warning ** GetDXCoils: Coil:Cooling:DX:SingleSpeed=\"COIL COOLING DX SINGLE SPEED 10 13KBTU/HR 9.8EER\", invalid\n   **   ~~~   ** ...Part Load Fraction Correlation Curve Name = DXCOOL-NECB2011-REF-COOLPLFFPLR 1 has out of range value.\n   **   ~~~   ** ...Curve maximum must be <= 1.0, curve max at PLR = 0.99 is 1.015\n   **   ~~~   ** ...Setting curve maximum to 1.0 and simulation continues.\n   ** Warning ** GetDXCoils: Coil:Cooling:DX:SingleSpeed=\"COIL COOLING DX SINGLE SPEED 15 12KBTU/HR 9.9EER\", invalid\n   **   ~~~   ** ...Part Load Fraction Correlation Curve Name = DXCOOL-NECB2011-REF-COOLPLFFPLR 6 has out of range value.\n   **   ~~~   ** ...Curve maximum must be <= 1.0, curve max at PLR = 0.99 is 1.015\n   **   ~~~   ** ...Setting curve maximum to 1.0 and simulation continues.\n   ** Warning ** GetDXCoils: Coil:Cooling:DX:SingleSpeed=\"COIL COOLING DX SINGLE SPEED 12 11KBTU/HR 10.1EER\", invalid\n   **   ~~~   ** ...Part Load Fraction Correlation Curve Name = DXCOOL-NECB2011-REF-COOLPLFFPLR 3 has out of range value.\n   **   ~~~   ** ...Curve maximum must be <= 1.0, curve max at PLR = 0.99 is 1.015\n   **   ~~~   ** ...Setting curve maximum to 1.0 and simulation continues.\n   ** Warning ** GetDXCoils: Coil:Cooling:DX:SingleSpeed=\"COIL COOLING DX SINGLE SPEED 13 11KBTU/HR 10.1EER\", invalid\n   **   ~~~   ** ...Part Load Fraction Correlation Curve Name = DXCOOL-NECB2011-REF-COOLPLFFPLR 4 has out of range value.\n   **   ~~~   ** ...Curve maximum must be <= 1.0, curve max at PLR = 0.99 is 1.015\n   **   ~~~   ** ...Setting curve maximum to 1.0 and simulation continues.\n   ** Warning ** GetDXCoils: Coil:Cooling:DX:SingleSpeed=\"COIL COOLING DX SINGLE SPEED 14 13KBTU/HR 9.6EER\", invalid\n   **   ~~~   ** ...Part Load Fraction Correlation Curve Name = DXCOOL-NECB2011-REF-COOLPLFFPLR 5 has out of range value.\n   **   ~~~   ** ...Curve maximum must be <= 1.0, curve max at PLR = 0.99 is 1.015\n   **   ~~~   ** ...Setting curve maximum to 1.0 and simulation continues.\n   ** Warning ** GetDXCoils: Coil:Cooling:DX:SingleSpeed=\"COIL COOLING DX SINGLE SPEED 11 13KBTU/HR 9.6EER\", invalid\n   **   ~~~   ** ...Part Load Fraction Correlation Curve Name = DXCOOL-NECB2011-REF-COOLPLFFPLR 2 has out of range value.\n   **   ~~~   ** ...Curve maximum must be <= 1.0, curve max at PLR = 0.99 is 1.015\n   **   ~~~   ** ...Setting curve maximum to 1.0 and simulation continues.\n   ** Warning ** GetDXCoils: Coil:Cooling:DX:SingleSpeed=\"COIL COOLING DX SINGLE SPEED 16 13KBTU/HR 9.8EER\", invalid\n   **   ~~~   ** ...Part Load Fraction Correlation Curve Name = DXCOOL-NECB2011-REF-COOLPLFFPLR 7 has out of range value.\n   **   ~~~   ** ...Curve maximum must be <= 1.0, curve max at PLR = 0.99 is 1.015\n   **   ~~~   ** ...Setting curve maximum to 1.0 and simulation continues.\n   ** Warning ** GetDXCoils: Coil:Cooling:DX:SingleSpeed=\"COIL COOLING DX SINGLE SPEED 19 13KBTU/HR 9.8EER\", invalid\n   **   ~~~   ** ...Part Load Fraction Correlation Curve Name = DXCOOL-NECB2011-REF-COOLPLFFPLR 10 has out of range value.\n   **   ~~~   ** ...Curve maximum must be <= 1.0, curve max at PLR = 0.99 is 1.015\n   **   ~~~   ** ...Setting curve maximum to 1.0 and simulation continues.\n   ** Warning ** GetDXCoils: Coil:Cooling:DX:SingleSpeed=\"COIL COOLING DX SINGLE SPEED 18 14KBTU/HR 9.5EER\", invalid\n   **   ~~~   ** ...Part Load Fraction Correlation Curve Name = DXCOOL-NECB2011-REF-COOLPLFFPLR 9 has out of range value.\n   **   ~~~   ** ...Curve maximum must be <= 1.0, curve max at PLR = 0.99 is 1.015\n   **   ~~~   ** ...Setting curve maximum to 1.0 and simulation continues.\n   ** Warning ** GetDXCoils: Coil:Cooling:DX:SingleSpeed=\"COIL COOLING DX SINGLE SPEED 17 14KBTU/HR 9.4EER\", invalid\n   **   ~~~   ** ...Part Load Fraction Correlation Curve Name = DXCOOL-NECB2011-REF-COOLPLFFPLR 8 has out of range value.\n   **   ~~~   ** ...Curve maximum must be <= 1.0, curve max at PLR = 0.99 is 1.015\n   **   ~~~   ** ...Setting curve maximum to 1.0 and simulation continues.\n   ** Warning ** GetDXCoils: Coil:Cooling:DX:SingleSpeed=\"COIL COOLING DX SINGLE SPEED 1 59KBTU/HR 14.0SEER\", invalid\n   **   ~~~   ** ...Part Load Fraction Correlation Curve Name = DXCOOL-NECB2011-REF-COOLPLFFPLR has out of range value.\n   **   ~~~   ** ...Curve maximum must be <= 1.0, curve max at PLR = 0.99 is 1.015\n   **   ~~~   ** ...Setting curve maximum to 1.0 and simulation continues.\n   ** Warning ** GetDXCoils: Coil:Cooling:DX:SingleSpeed=\"COIL COOLING DX SINGLE SPEED 28 18KBTU/HR 14.0SEER\", invalid\n   **   ~~~   ** ...Part Load Fraction Correlation Curve Name = DXCOOL-NECB2011-REF-COOLPLFFPLR 20 has out of range value.\n   **   ~~~   ** ...Curve maximum must be <= 1.0, curve max at PLR = 0.99 is 1.015\n   **   ~~~   ** ...Setting curve maximum to 1.0 and simulation continues.\n   ************* Beginning Plant Sizing Calculations\n   ** Warning ** The Standard Ratings is calculated for Coil:Cooling:DX:SingleSpeed = COIL COOLING DX SINGLE SPEED 24 7KBTU/HR 11.0EER but not at the AHRI test condition due to curve out of bound.\n   **   ~~~   **  Review the Standard Ratings calculations in the Engineering Reference for this coil type. Also, use Output:Diagnostics, DisplayExtraWarnings for further guidance.\n   ** Warning ** The Standard Ratings is calculated for Coil:Cooling:DX:SingleSpeed = COIL COOLING DX SINGLE SPEED 22 5KBTU/HR 11.0EER but not at the AHRI test condition due to curve out of bound.\n   **   ~~~   **  Review the Standard Ratings calculations in the Engineering Reference for this coil type. Also, use Output:Diagnostics, DisplayExtraWarnings for further guidance.\n   ** Warning ** The Standard Ratings is calculated for Coil:Cooling:DX:SingleSpeed = COIL COOLING DX SINGLE SPEED 21 5KBTU/HR 11.0EER but not at the AHRI test condition due to curve out of bound.\n   **   ~~~   **  Review the Standard Ratings calculations in the Engineering Reference for this coil type. Also, use Output:Diagnostics, DisplayExtraWarnings for further guidance.\n   ** Warning ** The Standard Ratings is calculated for Coil:Cooling:DX:SingleSpeed = COIL COOLING DX SINGLE SPEED 23 10KBTU/HR 10.5EER but not at the AHRI test condition due to curve out of bound.\n   **   ~~~   **  Review the Standard Ratings calculations in the Engineering Reference for this coil type. Also, use Output:Diagnostics, DisplayExtraWarnings for further guidance.\n   ** Warning ** The Standard Ratings is calculated for Coil:Cooling:DX:SingleSpeed = COIL COOLING DX SINGLE SPEED 20 9KBTU/HR 10.6EER but not at the AHRI test condition due to curve out of bound.\n   **   ~~~   **  Review the Standard Ratings calculations in the Engineering Reference for this coil type. Also, use Output:Diagnostics, DisplayExtraWarnings for further guidance.\n   ** Warning ** The Standard Ratings is calculated for Coil:Cooling:DX:SingleSpeed = COIL COOLING DX SINGLE SPEED 25 10KBTU/HR 10.3EER but not at the AHRI test condition due to curve out of bound.\n   **   ~~~   **  Review the Standard Ratings calculations in the Engineering Reference for this coil type. Also, use Output:Diagnostics, DisplayExtraWarnings for further guidance.\n   ** Warning ** The Standard Ratings is calculated for Coil:Cooling:DX:SingleSpeed = COIL COOLING DX SINGLE SPEED 26 11KBTU/HR 10.3EER but not at the AHRI test condition due to curve out of bound.\n   **   ~~~   **  Review the Standard Ratings calculations in the Engineering Reference for this coil type. Also, use Output:Diagnostics, DisplayExtraWarnings for further guidance.\n   ** Warning ** The Standard Ratings is calculated for Coil:Cooling:DX:SingleSpeed = COIL COOLING DX SINGLE SPEED 27 12KBTU/HR 10.0EER but not at the AHRI test condition due to curve out of bound.\n   **   ~~~   **  Review the Standard Ratings calculations in the Engineering Reference for this coil type. Also, use Output:Diagnostics, DisplayExtraWarnings for further guidance.\n   ** Warning ** The Standard Ratings is calculated for Coil:Cooling:DX:SingleSpeed = COIL COOLING DX SINGLE SPEED 6 7KBTU/HR 11.0EER but not at the AHRI test condition due to curve out of bound.\n   **   ~~~   **  Review the Standard Ratings calculations in the Engineering Reference for this coil type. Also, use Output:Diagnostics, DisplayExtraWarnings for further guidance.\n   ** Warning ** The Standard Ratings is calculated for Coil:Cooling:DX:SingleSpeed = COIL COOLING DX SINGLE SPEED 4 6KBTU/HR 11.0EER but not at the AHRI test condition due to curve out of bound.\n   **   ~~~   **  Review the Standard Ratings calculations in the Engineering Reference for this coil type. Also, use Output:Diagnostics, DisplayExtraWarnings for further guidance.\n   ** Warning ** The Standard Ratings is calculated for Coil:Cooling:DX:SingleSpeed = COIL COOLING DX SINGLE SPEED 3 6KBTU/HR 11.0EER but not at the AHRI test condition due to curve out of bound.\n   **   ~~~   **  Review the Standard Ratings calculations in the Engineering Reference for this coil type. Also, use Output:Diagnostics, DisplayExtraWarnings for further guidance.\n   ** Warning ** The Standard Ratings is calculated for Coil:Cooling:DX:SingleSpeed = COIL COOLING DX SINGLE SPEED 2 9KBTU/HR 10.5EER but not at the AHRI test condition due to curve out of bound.\n   **   ~~~   **  Review the Standard Ratings calculations in the Engineering Reference for this coil type. Also, use Output:Diagnostics, DisplayExtraWarnings for further guidance.\n   ** Warning ** The Standard Ratings is calculated for Coil:Cooling:DX:SingleSpeed = COIL COOLING DX SINGLE SPEED 5 9KBTU/HR 10.5EER but not at the AHRI test condition due to curve out of bound.\n   **   ~~~   **  Review the Standard Ratings calculations in the Engineering Reference for this coil type. Also, use Output:Diagnostics, DisplayExtraWarnings for further guidance.\n   ** Warning ** The Standard Ratings is calculated for Coil:Cooling:DX:SingleSpeed = COIL COOLING DX SINGLE SPEED 7 11KBTU/HR 10.3EER but not at the AHRI test condition due to curve out of bound.\n   **   ~~~   **  Review the Standard Ratings calculations in the Engineering Reference for this coil type. Also, use Output:Diagnostics, DisplayExtraWarnings for further guidance.\n   ** Warning ** The Standard Ratings is calculated for Coil:Cooling:DX:SingleSpeed = COIL COOLING DX SINGLE SPEED 9 11KBTU/HR 10.2EER but not at the AHRI test condition due to curve out of bound.\n   **   ~~~   **  Review the Standard Ratings calculations in the Engineering Reference for this coil type. Also, use Output:Diagnostics, DisplayExtraWarnings for further guidance.\n   ** Warning ** The Standard Ratings is calculated for Coil:Cooling:DX:SingleSpeed = COIL COOLING DX SINGLE SPEED 8 12KBTU/HR 9.8EER but not at the AHRI test condition due to curve out of bound.\n   **   ~~~   **  Review the Standard Ratings calculations in the Engineering Reference for this coil type. Also, use Output:Diagnostics, DisplayExtraWarnings for further guidance.\n   ** Warning ** The Standard Ratings is calculated for Coil:Cooling:DX:SingleSpeed = COIL COOLING DX SINGLE SPEED 10 13KBTU/HR 9.8EER but not at the AHRI test condition due to curve out of bound.\n   **   ~~~   **  Review the Standard Ratings calculations in the Engineering Reference for this coil type. Also, use Output:Diagnostics, DisplayExtraWarnings for further guidance.\n   ** Warning ** The Standard Ratings is calculated for Coil:Cooling:DX:SingleSpeed = COIL COOLING DX SINGLE SPEED 15 12KBTU/HR 9.9EER but not at the AHRI test condition due to curve out of bound.\n   **   ~~~   **  Review the Standard Ratings calculations in the Engineering Reference for this coil type. Also, use Output:Diagnostics, DisplayExtraWarnings for further guidance.\n   ** Warning ** The Standard Ratings is calculated for Coil:Cooling:DX:SingleSpeed = COIL COOLING DX SINGLE SPEED 12 11KBTU/HR 10.1EER but not at the AHRI test condition due to curve out of bound.\n   **   ~~~   **  Review the Standard Ratings calculations in the Engineering Reference for this coil type. Also, use Output:Diagnostics, DisplayExtraWarnings for further guidance.\n   ** Warning ** The Standard Ratings is calculated for Coil:Cooling:DX:SingleSpeed = COIL COOLING DX SINGLE SPEED 13 11KBTU/HR 10.1EER but not at the AHRI test condition due to curve out of bound.\n   **   ~~~   **  Review the Standard Ratings calculations in the Engineering Reference for this coil type. Also, use Output:Diagnostics, DisplayExtraWarnings for further guidance.\n   ** Warning ** The Standard Ratings is calculated for Coil:Cooling:DX:SingleSpeed = COIL COOLING DX SINGLE SPEED 14 13KBTU/HR 9.6EER but not at the AHRI test condition due to curve out of bound.\n   **   ~~~   **  Review the Standard Ratings calculations in the Engineering Reference for this coil type. Also, use Output:Diagnostics, DisplayExtraWarnings for further guidance.\n   ** Warning ** The Standard Ratings is calculated for Coil:Cooling:DX:SingleSpeed = COIL COOLING DX SINGLE SPEED 11 13KBTU/HR 9.6EER but not at the AHRI test condition due to curve out of bound.\n   **   ~~~   **  Review the Standard Ratings calculations in the Engineering Reference for this coil type. Also, use Output:Diagnostics, DisplayExtraWarnings for further guidance.\n   ** Warning ** The Standard Ratings is calculated for Coil:Cooling:DX:SingleSpeed = COIL COOLING DX SINGLE SPEED 16 13KBTU/HR 9.8EER but not at the AHRI test condition due to curve out of bound.\n   **   ~~~   **  Review the Standard Ratings calculations in the Engineering Reference for this coil type. Also, use Output:Diagnostics, DisplayExtraWarnings for further guidance.\n   ** Warning ** The Standard Ratings is calculated for Coil:Cooling:DX:SingleSpeed = COIL COOLING DX SINGLE SPEED 19 13KBTU/HR 9.8EER but not at the AHRI test condition due to curve out of bound.\n   **   ~~~   **  Review the Standard Ratings calculations in the Engineering Reference for this coil type. Also, use Output:Diagnostics, DisplayExtraWarnings for further guidance.\n   ** Warning ** The Standard Ratings is calculated for Coil:Cooling:DX:SingleSpeed = COIL COOLING DX SINGLE SPEED 18 14KBTU/HR 9.5EER but not at the AHRI test condition due to curve out of bound.\n   **   ~~~   **  Review the Standard Ratings calculations in the Engineering Reference for this coil type. Also, use Output:Diagnostics, DisplayExtraWarnings for further guidance.\n   ** Warning ** The Standard Ratings is calculated for Coil:Cooling:DX:SingleSpeed = COIL COOLING DX SINGLE SPEED 17 14KBTU/HR 9.4EER but not at the AHRI test condition due to curve out of bound.\n   **   ~~~   **  Review the Standard Ratings calculations in the Engineering Reference for this coil type. Also, use Output:Diagnostics, DisplayExtraWarnings for further guidance.\n   ** Warning ** The Standard Ratings is calculated for Coil:Cooling:DX:SingleSpeed = COIL COOLING DX SINGLE SPEED 1 59KBTU/HR 14.0SEER but not at the AHRI test condition due to curve out of bound.\n   **   ~~~   **  Review the Standard Ratings calculations in the Engineering Reference for this coil type. Also, use Output:Diagnostics, DisplayExtraWarnings for further guidance.\n   ** Warning ** The Standard Ratings is calculated for Coil:Cooling:DX:SingleSpeed = COIL COOLING DX SINGLE SPEED 28 18KBTU/HR 14.0SEER but not at the AHRI test condition due to curve out of bound.\n   **   ~~~   **  Review the Standard Ratings calculations in the Engineering Reference for this coil type. Also, use Output:Diagnostics, DisplayExtraWarnings for further guidance.\n   ** Warning ** Output:Meter: invalid Name=\"GAS:FACILITY\" - not found.\n   ** Warning ** Output:Meter: invalid Name=\"DISTRICTCOOLING:FACILITY\" - not found.\n   ** Warning ** Output:Meter: invalid Name=\"DISTRICTHEATING:FACILITY\" - not found.\n   ** Warning ** Output:Meter:MeterFileOnly: invalid Name=\"GAS:FACILITY\" - not found.\n   ** Warning ** Output:Meter:MeterFileOnly: invalid Name=\"GAS:FACILITY\" - not found.\n   ** Warning ** Output:Meter:MeterFileOnly requested for \"Electricity:Facility\" (TimeStep), already on \"Output:Meter\". Will report to both eplusout.eso and eplusout.mtr\n   ************* Testing Individual Branch Integrity\n   ************* All Branches passed integrity testing\n   ************* Testing Individual Supply Air Path Integrity\n   ************* All Supply Air Paths passed integrity testing\n   ************* Testing Individual Return Air Path Integrity\n   ************* All Return Air Paths passed integrity testing\n   ************* No node connection errors were found.\n   ************* Beginning Simulation\n   ** Warning ** GetInputEconomicsTariff: UtilityCost:Tariff=\"NONEGAS\" missing meter\n   **   ~~~   ** Meter referenced is not present due to a lack of equipment that uses that energy source/meter:\"GAS:FACILITY\".\n   ** Warning ** CalcDoe2DXCoil: Coil:Cooling:DX:SingleSpeed \"COIL COOLING DX SINGLE SPEED 25 10KBTU/HR 10.3EER\" - Air-cooled condenser inlet dry-bulb temperature below 0 C. Outdoor dry-bulb temperature = -22.80\n   **   ~~~   **  ... Occurrence info = RUN PERIOD 1, 01/02 12:00 - 12:15\n   **   ~~~   ** ... Operation at low ambient temperatures may require special performance curves.\n   ** Warning ** CalcDoe2DXCoil: Coil:Cooling:DX:SingleSpeed \"COIL COOLING DX SINGLE SPEED 26 11KBTU/HR 10.3EER\" - Air-cooled condenser inlet dry-bulb temperature below 0 C. Outdoor dry-bulb temperature = -22.80\n   **   ~~~   **  ... Occurrence info = RUN PERIOD 1, 01/02 12:00 - 12:15\n   **   ~~~   ** ... Operation at low ambient temperatures may require special performance curves.\n   ** Warning ** CalcDoe2DXCoil: Coil:Cooling:DX:SingleSpeed \"COIL COOLING DX SINGLE SPEED 27 12KBTU/HR 10.0EER\" - Air-cooled condenser inlet dry-bulb temperature below 0 C. Outdoor dry-bulb temperature = -22.93\n   **   ~~~   **  ... Occurrence info = RUN PERIOD 1, 01/02 13:00 - 13:15\n   **   ~~~   ** ... Operation at low ambient temperatures may require special performance curves.\n   ** Warning ** CalcDoe2DXCoil: Coil:Cooling:DX:SingleSpeed \"COIL COOLING DX SINGLE SPEED 7 11KBTU/HR 10.3EER\" - Air-cooled condenser inlet dry-bulb temperature below 0 C. Outdoor dry-bulb temperature = -22.93\n   **   ~~~   **  ... Occurrence info = RUN PERIOD 1, 01/02 13:00 - 13:15\n   **   ~~~   ** ... Operation at low ambient temperatures may require special performance curves.\n   ** Warning ** CalcDoe2DXCoil: Coil:Cooling:DX:SingleSpeed \"COIL COOLING DX SINGLE SPEED 9 11KBTU/HR 10.2EER\" - Air-cooled condenser inlet dry-bulb temperature below 0 C. Outdoor dry-bulb temperature = -22.93\n   **   ~~~   **  ... Occurrence info = RUN PERIOD 1, 01/02 13:00 - 13:15\n   **   ~~~   ** ... Operation at low ambient temperatures may require special performance curves.\n   ** Warning ** CalcDoe2DXCoil: Coil:Cooling:DX:SingleSpeed \"COIL COOLING DX SINGLE SPEED 25 10KBTU/HR 10.3EER\" - Full load outlet air dry-bulb temperature < 2C. This indicates the possibility of coil frost/freeze. Outlet temperature = 1.98 C.\n   **   ~~~   **  ...Occurrence info = RUN PERIOD 1, 01/04 13:15 - 13:30\n   **   ~~~   ** ... Possible reasons for low outlet air dry-bulb temperatures are: This DX coil\n   **   ~~~   **    1) may have a low inlet air dry-bulb temperature. Inlet air temperature = 14.636 C.\n   **   ~~~   **    2) may have a low air flow rate per watt of cooling capacity. Check inputs.\n   **   ~~~   **    3) is used as part of a HX assisted cooling coil which uses a high sensible effectiveness. Check inputs.\n   ** Warning ** CalcDoe2DXCoil: Coil:Cooling:DX:SingleSpeed \"COIL COOLING DX SINGLE SPEED 8 12KBTU/HR 9.8EER\" - Air-cooled condenser inlet dry-bulb temperature below 0 C. Outdoor dry-bulb temperature = -25.55\n   **   ~~~   **  ... Occurrence info = RUN PERIOD 1, 01/19 13:15 - 13:30\n   **   ~~~   ** ... Operation at low ambient temperatures may require special performance curves.\n   ** Warning ** CalcDoe2DXCoil: Coil:Cooling:DX:SingleSpeed \"COIL COOLING DX SINGLE SPEED 10 13KBTU/HR 9.8EER\" - Air-cooled condenser inlet dry-bulb temperature below 0 C. Outdoor dry-bulb temperature = -25.28\n   **   ~~~   **  ... Occurrence info = RUN PERIOD 1, 01/19 13:30 - 13:45\n   **   ~~~   ** ... Operation at low ambient temperatures may require special performance curves.\n   ** Warning ** CalcDoe2DXCoil: Coil:Cooling:DX:SingleSpeed \"COIL COOLING DX SINGLE SPEED 16 13KBTU/HR 9.8EER\" - Air-cooled condenser inlet dry-bulb temperature below 0 C. Outdoor dry-bulb temperature = -6.70\n   **   ~~~   **  ... Occurrence info = RUN PERIOD 1, 01/24 12:15 - 12:30\n   **   ~~~   ** ... Operation at low ambient temperatures may require special performance curves.\n   ** Warning ** CalcDoe2DXCoil: Coil:Cooling:DX:SingleSpeed \"COIL COOLING DX SINGLE SPEED 19 13KBTU/HR 9.8EER\" - Air-cooled condenser inlet dry-bulb temperature below 0 C. Outdoor dry-bulb temperature = -6.70\n   **   ~~~   **  ... Occurrence info = RUN PERIOD 1, 01/24 12:15 - 12:30\n   **   ~~~   ** ... Operation at low ambient temperatures may require special performance curves.\n   ** Warning ** CalcDoe2DXCoil: Coil:Cooling:DX:SingleSpeed \"COIL COOLING DX SINGLE SPEED 18 14KBTU/HR 9.5EER\" - Air-cooled condenser inlet dry-bulb temperature below 0 C. Outdoor dry-bulb temperature = -6.70\n   **   ~~~   **  ... Occurrence info = RUN PERIOD 1, 01/24 12:30 - 12:45\n   **   ~~~   ** ... Operation at low ambient temperatures may require special performance curves.\n   ** Warning ** CalcDoe2DXCoil: Coil:Cooling:DX:SingleSpeed \"COIL COOLING DX SINGLE SPEED 17 14KBTU/HR 9.4EER\" - Air-cooled condenser inlet dry-bulb temperature below 0 C. Outdoor dry-bulb temperature = -6.98\n   **   ~~~   **  ... Occurrence info = RUN PERIOD 1, 01/24 13:00 - 13:15\n   **   ~~~   ** ... Operation at low ambient temperatures may require special performance curves.\n   ** Warning ** CalcDoe2DXCoil: Coil:Cooling:DX:SingleSpeed \"COIL COOLING DX SINGLE SPEED 26 11KBTU/HR 10.3EER\" - Full load outlet air dry-bulb temperature < 2C. This indicates the possibility of coil frost/freeze. Outlet temperature = 1.63 C.\n   **   ~~~   **  ...Occurrence info = RUN PERIOD 1, 01/28 11:38 - 11:45\n   **   ~~~   ** ... Possible reasons for low outlet air dry-bulb temperatures are: This DX coil\n   **   ~~~   **    1) may have a low inlet air dry-bulb temperature. Inlet air temperature = 14.282 C.\n   **   ~~~   **    2) may have a low air flow rate per watt of cooling capacity. Check inputs.\n   **   ~~~   **    3) is used as part of a HX assisted cooling coil which uses a high sensible effectiveness. Check inputs.\n   ** Warning ** CalcDoe2DXCoil: Coil:Cooling:DX:SingleSpeed \"COIL COOLING DX SINGLE SPEED 9 11KBTU/HR 10.2EER\" - Full load outlet air dry-bulb temperature < 2C. This indicates the possibility of coil frost/freeze. Outlet temperature = 1.80 C.\n   **   ~~~   **  ...Occurrence info = RUN PERIOD 1, 01/28 12:38 - 12:45\n   **   ~~~   ** ... Possible reasons for low outlet air dry-bulb temperatures are: This DX coil\n   **   ~~~   **    1) may have a low inlet air dry-bulb temperature. Inlet air temperature = 14.453 C.\n   **   ~~~   **    2) may have a low air flow rate per watt of cooling capacity. Check inputs.\n   **   ~~~   **    3) is used as part of a HX assisted cooling coil which uses a high sensible effectiveness. Check inputs.\n   ** Warning ** CalcDoe2DXCoil: Coil:Cooling:DX:SingleSpeed \"COIL COOLING DX SINGLE SPEED 7 11KBTU/HR 10.3EER\" - Full load outlet air dry-bulb temperature < 2C. This indicates the possibility of coil frost/freeze. Outlet temperature = 1.83 C.\n   **   ~~~   **  ...Occurrence info = RUN PERIOD 1, 01/28 12:45 - 13:00\n   **   ~~~   ** ... Possible reasons for low outlet air dry-bulb temperatures are: This DX coil\n   **   ~~~   **    1) may have a low inlet air dry-bulb temperature. Inlet air temperature = 14.484 C.\n   **   ~~~   **    2) may have a low air flow rate per watt of cooling capacity. Check inputs.\n   **   ~~~   **    3) is used as part of a HX assisted cooling coil which uses a high sensible effectiveness. Check inputs.\n   ** Warning ** CalcDoe2DXCoil: Coil:Cooling:DX:SingleSpeed \"COIL COOLING DX SINGLE SPEED 6 7KBTU/HR 11.0EER\" - Air-cooled condenser inlet dry-bulb temperature below 0 C. Outdoor dry-bulb temperature = -19.50\n   **   ~~~   **  ... Occurrence info = RUN PERIOD 1, 03/12 15:45 - 16:00\n   **   ~~~   ** ... Operation at low ambient temperatures may require special performance curves.\n   ** Warning ** CalcDoe2DXCoil: Coil:Cooling:DX:SingleSpeed \"COIL COOLING DX SINGLE SPEED 24 7KBTU/HR 11.0EER\" - Air-cooled condenser inlet dry-bulb temperature below 0 C. Outdoor dry-bulb temperature = -20.58\n   **   ~~~   **  ... Occurrence info = RUN PERIOD 1, 03/13 13:30 - 13:45\n   **   ~~~   ** ... Operation at low ambient temperatures may require special performance curves.\n   ** Warning ** CalcDoe2DXCoil: Coil:Cooling:DX:SingleSpeed \"COIL COOLING DX SINGLE SPEED 20 9KBTU/HR 10.6EER\" - Air-cooled condenser inlet dry-bulb temperature below 0 C. Outdoor dry-bulb temperature = -17.33\n   **   ~~~   **  ... Occurrence info = RUN PERIOD 1, 03/24 16:00 - 16:15\n   **   ~~~   ** ... Operation at low ambient temperatures may require special performance curves.\n   ** Warning ** CalcDoe2DXCoil: Coil:Cooling:DX:SingleSpeed \"COIL COOLING DX SINGLE SPEED 5 9KBTU/HR 10.5EER\" - Air-cooled condenser inlet dry-bulb temperature below 0 C. Outdoor dry-bulb temperature = -16.50\n   **   ~~~   **  ... Occurrence info = RUN PERIOD 1, 03/24 16:45 - 17:00\n   **   ~~~   ** ... Operation at low ambient temperatures may require special performance curves.\n   ** Warning ** CalcDoe2DXCoil: Coil:Cooling:DX:SingleSpeed \"COIL COOLING DX SINGLE SPEED 6 7KBTU/HR 11.0EER\" - Full load outlet air dry-bulb temperature < 2C. This indicates the possibility of coil frost/freeze. Outlet temperature = 1.99 C.\n   **   ~~~   **  ...Occurrence info = RUN PERIOD 1, 04/04 17:15 - 17:22\n   **   ~~~   ** ... Possible reasons for low outlet air dry-bulb temperatures are: This DX coil\n   **   ~~~   **    1) may have a low inlet air dry-bulb temperature. Inlet air temperature = 14.665 C.\n   **   ~~~   **    2) may have a low air flow rate per watt of cooling capacity. Check inputs.\n   **   ~~~   **    3) is used as part of a HX assisted cooling coil which uses a high sensible effectiveness. Check inputs.\n   ** Warning ** CalcDoe2DXCoil: Coil:Cooling:DX:SingleSpeed \"COIL COOLING DX SINGLE SPEED 11 13KBTU/HR 9.6EER\" - Air-cooled condenser inlet dry-bulb temperature below 0 C. Outdoor dry-bulb temperature = -17.93\n   **   ~~~   **  ... Occurrence info = RUN PERIOD 1, 04/05 16:30 - 16:45\n   **   ~~~   ** ... Operation at low ambient temperatures may require special performance curves.\n   ** Warning ** CalcDoe2DXCoil: Coil:Cooling:DX:SingleSpeed \"COIL COOLING DX SINGLE SPEED 23 10KBTU/HR 10.5EER\" - Air-cooled condenser inlet dry-bulb temperature below 0 C. Outdoor dry-bulb temperature = -11.70\n   **   ~~~   **  ... Occurrence info = RUN PERIOD 1, 04/08 08:55 - 09:00\n   **   ~~~   ** ... Operation at low ambient temperatures may require special performance curves.\n   ** Warning ** CalcDoe2DXCoil: Coil:Cooling:DX:SingleSpeed \"COIL COOLING DX SINGLE SPEED 2 9KBTU/HR 10.5EER\" - Air-cooled condenser inlet dry-bulb temperature below 0 C. Outdoor dry-bulb temperature = -6.43\n   **   ~~~   **  ... Occurrence info = RUN PERIOD 1, 04/08 10:30 - 10:45\n   **   ~~~   ** ... Operation at low ambient temperatures may require special performance curves.\n   ** Warning ** CalcDoe2DXCoil: Coil:Cooling:DX:SingleSpeed \"COIL COOLING DX SINGLE SPEED 28 18KBTU/HR 14.0SEER\" - Air-cooled condenser inlet dry-bulb temperature below 0 C. Outdoor dry-bulb temperature = -2.50\n   **   ~~~   **  ... Occurrence info = RUN PERIOD 1, 04/08 12:15 - 12:30\n   **   ~~~   ** ... Operation at low ambient temperatures may require special performance curves.\n   ** Warning ** CalcDoe2DXCoil: Coil:Cooling:DX:SingleSpeed \"COIL COOLING DX SINGLE SPEED 28 18KBTU/HR 14.0SEER\" - Full load outlet air dry-bulb temperature < 2C. This indicates the possibility of coil frost/freeze. Outlet temperature = -0.53 C.\n   **   ~~~   **  ...Occurrence info = RUN PERIOD 1, 04/08 12:15 - 12:30\n   **   ~~~   ** ... Possible reasons for low outlet air dry-bulb temperatures are: This DX coil\n   **   ~~~   **    1) may have a low inlet air dry-bulb temperature. Inlet air temperature = 12.428 C.\n   **   ~~~   **    2) may have a low air flow rate per watt of cooling capacity. Check inputs.\n   **   ~~~   **    3) is used as part of a HX assisted cooling coil which uses a high sensible effectiveness. Check inputs.\n   ** Warning ** CalcDoe2DXCoil: Coil:Cooling:DX:SingleSpeed \"COIL COOLING DX SINGLE SPEED 22 5KBTU/HR 11.0EER\" - Air-cooled condenser inlet dry-bulb temperature below 0 C. Outdoor dry-bulb temperature = -9.40\n   **   ~~~   **  ... Occurrence info = RUN PERIOD 1, 04/08 19:45 - 20:00\n   **   ~~~   ** ... Operation at low ambient temperatures may require special performance curves.\n   ** Warning ** CalcDoe2DXCoil: Coil:Cooling:DX:SingleSpeed \"COIL COOLING DX SINGLE SPEED 22 5KBTU/HR 11.0EER\" - Full load outlet air dry-bulb temperature < 2C. This indicates the possibility of coil frost/freeze. Outlet temperature = 0.25 C.\n   **   ~~~   **  ...Occurrence info = RUN PERIOD 1, 04/08 19:45 - 20:00\n   **   ~~~   ** ... Possible reasons for low outlet air dry-bulb temperatures are: This DX coil\n   **   ~~~   **    1) may have a low inlet air dry-bulb temperature. Inlet air temperature = 12.304 C.\n   **   ~~~   **    2) may have a low air flow rate per watt of cooling capacity. Check inputs.\n   **   ~~~   **    3) is used as part of a HX assisted cooling coil which uses a high sensible effectiveness. Check inputs.\n   ** Warning ** CalcDoe2DXCoil: Coil:Cooling:DX:SingleSpeed \"COIL COOLING DX SINGLE SPEED 4 6KBTU/HR 11.0EER\" - Air-cooled condenser inlet dry-bulb temperature below 0 C. Outdoor dry-bulb temperature = -9.40\n   **   ~~~   **  ... Occurrence info = RUN PERIOD 1, 04/08 19:45 - 20:00\n   **   ~~~   ** ... Operation at low ambient temperatures may require special performance curves.\n   ** Warning ** CalcDoe2DXCoil: Coil:Cooling:DX:SingleSpeed \"COIL COOLING DX SINGLE SPEED 4 6KBTU/HR 11.0EER\" - Full load outlet air dry-bulb temperature < 2C. This indicates the possibility of coil frost/freeze. Outlet temperature = 1.32 C.\n   **   ~~~   **  ...Occurrence info = RUN PERIOD 1, 04/08 19:45 - 20:00\n   **   ~~~   ** ... Possible reasons for low outlet air dry-bulb temperatures are: This DX coil\n   **   ~~~   **    1) may have a low inlet air dry-bulb temperature. Inlet air temperature = 13.931 C.\n   **   ~~~   **    2) may have a low air flow rate per watt of cooling capacity. Check inputs.\n   **   ~~~   **    3) is used as part of a HX assisted cooling coil which uses a high sensible effectiveness. Check inputs.\n   ** Warning ** CalcDoe2DXCoil: Coil:Cooling:DX:SingleSpeed \"COIL COOLING DX SINGLE SPEED 3 6KBTU/HR 11.0EER\" - Air-cooled condenser inlet dry-bulb temperature below 0 C. Outdoor dry-bulb temperature = -8.75\n   **   ~~~   **  ... Occurrence info = RUN PERIOD 1, 04/24 19:30 - 19:45\n   **   ~~~   ** ... Operation at low ambient temperatures may require special performance curves.\n   ** Warning ** CalcDoe2DXCoil: Coil:Cooling:DX:SingleSpeed \"COIL COOLING DX SINGLE SPEED 3 6KBTU/HR 11.0EER\" - Full load outlet air dry-bulb temperature < 2C. This indicates the possibility of coil frost/freeze. Outlet temperature = 1.55 C.\n   **   ~~~   **  ...Occurrence info = RUN PERIOD 1, 04/24 19:30 - 19:45\n   **   ~~~   ** ... Possible reasons for low outlet air dry-bulb temperatures are: This DX coil\n   **   ~~~   **    1) may have a low inlet air dry-bulb temperature. Inlet air temperature = 14.155 C.\n   **   ~~~   **    2) may have a low air flow rate per watt of cooling capacity. Check inputs.\n   **   ~~~   **    3) is used as part of a HX assisted cooling coil which uses a high sensible effectiveness. Check inputs.\n   ** Warning ** CalcDoe2DXCoil: Coil:Cooling:DX:SingleSpeed \"COIL COOLING DX SINGLE SPEED 21 5KBTU/HR 11.0EER\" - Air-cooled condenser inlet dry-bulb temperature below 0 C. Outdoor dry-bulb temperature = -3.75\n   **   ~~~   **  ... Occurrence info = RUN PERIOD 1, 04/27 19:30 - 19:45\n   **   ~~~   ** ... Operation at low ambient temperatures may require special performance curves.\n   ** Warning ** CalcDoe2DXCoil: Coil:Cooling:DX:SingleSpeed \"COIL COOLING DX SINGLE SPEED 21 5KBTU/HR 11.0EER\" - Full load outlet air dry-bulb temperature < 2C. This indicates the possibility of coil frost/freeze. Outlet temperature = 1.91 C.\n   **   ~~~   **  ...Occurrence info = RUN PERIOD 1, 04/27 20:45 - 21:00\n   **   ~~~   ** ... Possible reasons for low outlet air dry-bulb temperatures are: This DX coil\n   **   ~~~   **    1) may have a low inlet air dry-bulb temperature. Inlet air temperature = 14.051 C.\n   **   ~~~   **    2) may have a low air flow rate per watt of cooling capacity. Check inputs.\n   **   ~~~   **    3) is used as part of a HX assisted cooling coil which uses a high sensible effectiveness. Check inputs.\n   ** Warning ** CalcDoe2DXCoil: Coil:Cooling:DX:SingleSpeed \"COIL COOLING DX SINGLE SPEED 14 13KBTU/HR 9.6EER\" - Air-cooled condenser inlet dry-bulb temperature below 0 C. Outdoor dry-bulb temperature = -6.70\n   **   ~~~   **  ... Occurrence info = RUN PERIOD 1, 05/01 10:25 - 10:30\n   **   ~~~   ** ... Operation at low ambient temperatures may require special performance curves.\n   ** Warning ** CalcDoe2DXCoil: Coil:Cooling:DX:SingleSpeed \"COIL COOLING DX SINGLE SPEED 15 12KBTU/HR 9.9EER\" - Air-cooled condenser inlet dry-bulb temperature below 0 C. Outdoor dry-bulb temperature = -4.28\n   **   ~~~   **  ... Occurrence info = RUN PERIOD 1, 05/01 12:00 - 12:15\n   **   ~~~   ** ... Operation at low ambient temperatures may require special performance curves.\n   ** Warning ** CalcDoe2DXCoil: Coil:Cooling:DX:SingleSpeed \"COIL COOLING DX SINGLE SPEED 12 11KBTU/HR 10.1EER\" - Air-cooled condenser inlet dry-bulb temperature below 0 C. Outdoor dry-bulb temperature = -2.50\n   **   ~~~   **  ... Occurrence info = RUN PERIOD 1, 05/21 19:21 - 19:24\n   **   ~~~   ** ... Operation at low ambient temperatures may require special performance curves.\n   ** Warning ** CalcDoe2DXCoil: Coil:Cooling:DX:SingleSpeed \"COIL COOLING DX SINGLE SPEED 13 11KBTU/HR 10.1EER\" - Air-cooled condenser inlet dry-bulb temperature below 0 C. Outdoor dry-bulb temperature = -3.30\n   **   ~~~   **  ... Occurrence info = RUN PERIOD 1, 05/21 19:53 - 20:00\n   **   ~~~   ** ... Operation at low ambient temperatures may require special performance curves.\n   ************* Simulation Error Summary *************\n   ************* There are 9 unused schedules in input.\n   ************* There are 9 unused week schedules in input.\n   ************* There are 17 unused day schedules in input.\n   ************* Use Output:Diagnostics,DisplayUnusedSchedules; to see them.\n   *************\n   ************* ===== Recurring Error Summary =====\n   ************* The following recurring error messages occurred.\n   *************\n   *************  ** Warning ** CalcDoe2DXCoil: Coil:Cooling:DX:SingleSpeed=\"COIL COOLING DX SINGLE SPEED 25 10KBTU/HR 10.3EER\" - Low condenser dry-bulb temperature error continues...\n   *************  **   ~~~   **   This error occurred 4796 total times;\n   *************  **   ~~~   **   during Warmup 0 times;\n   *************  **   ~~~   **   during Sizing 0 times.\n   *************  **   ~~~   **   Max=-1.387779E-017 [C]  Min=-37.35 [C]\n   *************\n   *************  ** Warning ** CalcDoe2DXCoil: Coil:Cooling:DX:SingleSpeed=\"COIL COOLING DX SINGLE SPEED 26 11KBTU/HR 10.3EER\" - Low condenser dry-bulb temperature error continues...\n   *************  **   ~~~   **   This error occurred 4530 total times;\n   *************  **   ~~~   **   during Warmup 0 times;\n   *************  **   ~~~   **   during Sizing 0 times.\n   *************  **   ~~~   **   Max=-1.387779E-017 [C]  Min=-37.35 [C]\n   *************\n   *************  ** Warning ** CalcDoe2DXCoil: Coil:Cooling:DX:SingleSpeed=\"COIL COOLING DX SINGLE SPEED 27 12KBTU/HR 10.0EER\" - Low condenser dry-bulb temperature error continues...\n   *************  **   ~~~   **   This error occurred 3767 total times;\n   *************  **   ~~~   **   during Warmup 0 times;\n   *************  **   ~~~   **   during Sizing 0 times.\n   *************  **   ~~~   **   Max=-1.387779E-017 [C]  Min=-36.35 [C]\n   *************\n   *************  ** Warning ** CalcDoe2DXCoil: Coil:Cooling:DX:SingleSpeed=\"COIL COOLING DX SINGLE SPEED 7 11KBTU/HR 10.3EER\" - Low condenser dry-bulb temperature error continues...\n   *************  **   ~~~   **   This error occurred 5099 total times;\n   *************  **   ~~~   **   during Warmup 0 times;\n   *************  **   ~~~   **   during Sizing 0 times.\n   *************  **   ~~~   **   Max=-1.387779E-017 [C]  Min=-36.35 [C]\n   *************\n   *************  ** Warning ** CalcDoe2DXCoil: Coil:Cooling:DX:SingleSpeed=\"COIL COOLING DX SINGLE SPEED 9 11KBTU/HR 10.2EER\" - Low condenser dry-bulb temperature error continues...\n   *************  **   ~~~   **   This error occurred 5075 total times;\n   *************  **   ~~~   **   during Warmup 0 times;\n   *************  **   ~~~   **   during Sizing 0 times.\n   *************  **   ~~~   **   Max=-1.387779E-017 [C]  Min=-36.35 [C]\n   *************\n   *************  ** Warning ** CalcDoe2DXCoil: Coil:Cooling:DX:SingleSpeed=\"COIL COOLING DX SINGLE SPEED 25 10KBTU/HR 10.3EER\" - Full load outlet temperature indicates a possibility of frost/freeze error continues. Outlet air temperature statistics follow:\n   *************  **   ~~~   **   This error occurred 181 total times;\n   *************  **   ~~~   **   during Warmup 0 times;\n   *************  **   ~~~   **   during Sizing 0 times.\n   *************  **   ~~~   **   Max=1.993754  Min=0.98532\n   *************\n   *************  ** Warning ** CalcDoe2DXCoil: Coil:Cooling:DX:SingleSpeed=\"COIL COOLING DX SINGLE SPEED 8 12KBTU/HR 9.8EER\" - Low condenser dry-bulb temperature error continues...\n   *************  **   ~~~   **   This error occurred 3711 total times;\n   *************  **   ~~~   **   during Warmup 0 times;\n   *************  **   ~~~   **   during Sizing 0 times.\n   *************  **   ~~~   **   Max=-1.387779E-017 [C]  Min=-35.8 [C]\n   *************\n   *************  ** Warning ** CalcDoe2DXCoil: Coil:Cooling:DX:SingleSpeed=\"COIL COOLING DX SINGLE SPEED 10 13KBTU/HR 9.8EER\" - Low condenser dry-bulb temperature error continues...\n   *************  **   ~~~   **   This error occurred 3646 total times;\n   *************  **   ~~~   **   during Warmup 0 times;\n   *************  **   ~~~   **   during Sizing 0 times.\n   *************  **   ~~~   **   Max=-1.387779E-017 [C]  Min=-35.8 [C]\n   *************\n   *************  ** Warning ** CalcDoe2DXCoil: Coil:Cooling:DX:SingleSpeed=\"COIL COOLING DX SINGLE SPEED 16 13KBTU/HR 9.8EER\" - Low condenser dry-bulb temperature error continues...\n   *************  **   ~~~   **   This error occurred 1136 total times;\n   *************  **   ~~~   **   during Warmup 0 times;\n   *************  **   ~~~   **   during Sizing 0 times.\n   *************  **   ~~~   **   Max=-1.387779E-017 [C]  Min=-32.8 [C]\n   *************\n   *************  ** Warning ** CalcDoe2DXCoil: Coil:Cooling:DX:SingleSpeed=\"COIL COOLING DX SINGLE SPEED 19 13KBTU/HR 9.8EER\" - Low condenser dry-bulb temperature error continues...\n   *************  **   ~~~   **   This error occurred 1163 total times;\n   *************  **   ~~~   **   during Warmup 0 times;\n   *************  **   ~~~   **   during Sizing 0 times.\n   *************  **   ~~~   **   Max=-1.387779E-017 [C]  Min=-32.8 [C]\n   *************\n   *************  ** Warning ** CalcDoe2DXCoil: Coil:Cooling:DX:SingleSpeed=\"COIL COOLING DX SINGLE SPEED 18 14KBTU/HR 9.5EER\" - Low condenser dry-bulb temperature error continues...\n   *************  **   ~~~   **   This error occurred 1262 total times;\n   *************  **   ~~~   **   during Warmup 0 times;\n   *************  **   ~~~   **   during Sizing 0 times.\n   *************  **   ~~~   **   Max=-1.387779E-017 [C]  Min=-29.55 [C]\n   *************\n   *************  ** Warning ** CalcDoe2DXCoil: Coil:Cooling:DX:SingleSpeed=\"COIL COOLING DX SINGLE SPEED 17 14KBTU/HR 9.4EER\" - Low condenser dry-bulb temperature error continues...\n   *************  **   ~~~   **   This error occurred 1330 total times;\n   *************  **   ~~~   **   during Warmup 0 times;\n   *************  **   ~~~   **   during Sizing 0 times.\n   *************  **   ~~~   **   Max=-1.387779E-017 [C]  Min=-28.975 [C]\n   *************\n   *************  ** Warning ** CalcDoe2DXCoil: Coil:Cooling:DX:SingleSpeed=\"COIL COOLING DX SINGLE SPEED 26 11KBTU/HR 10.3EER\" - Full load outlet temperature indicates a possibility of frost/freeze error continues. Outlet air temperature statistics follow:\n   *************  **   ~~~   **   This error occurred 141 total times;\n   *************  **   ~~~   **   during Warmup 0 times;\n   *************  **   ~~~   **   during Sizing 0 times.\n   *************  **   ~~~   **   Max=1.997426  Min=1.048209\n   *************\n   *************  ** Warning ** CalcDoe2DXCoil: Coil:Cooling:DX:SingleSpeed=\"COIL COOLING DX SINGLE SPEED 9 11KBTU/HR 10.2EER\" - Full load outlet temperature indicates a possibility of frost/freeze error continues. Outlet air temperature statistics follow:\n   *************  **   ~~~   **   This error occurred 65 total times;\n   *************  **   ~~~   **   during Warmup 0 times;\n   *************  **   ~~~   **   during Sizing 0 times.\n   *************  **   ~~~   **   Max=1.998679  Min=1.432553\n   *************\n   *************  ** Warning ** CalcDoe2DXCoil: Coil:Cooling:DX:SingleSpeed=\"COIL COOLING DX SINGLE SPEED 7 11KBTU/HR 10.3EER\" - Full load outlet temperature indicates a possibility of frost/freeze error continues. Outlet air temperature statistics follow:\n   *************  **   ~~~   **   This error occurred 95 total times;\n   *************  **   ~~~   **   during Warmup 0 times;\n   *************  **   ~~~   **   during Sizing 0 times.\n   *************  **   ~~~   **   Max=1.999057  Min=1.300679\n   *************\n   *************  ** Warning ** CalcDoe2DXCoil: Coil:Cooling:DX:SingleSpeed=\"COIL COOLING DX SINGLE SPEED 6 7KBTU/HR 11.0EER\" - Low condenser dry-bulb temperature error continues...\n   *************  **   ~~~   **   This error occurred 2417 total times;\n   *************  **   ~~~   **   during Warmup 0 times;\n   *************  **   ~~~   **   during Sizing 0 times.\n   *************  **   ~~~   **   Max=-1.387779E-017 [C]  Min=-22.8 [C]\n   *************\n   *************  ** Warning ** CalcDoe2DXCoil: Coil:Cooling:DX:SingleSpeed=\"COIL COOLING DX SINGLE SPEED 24 7KBTU/HR 11.0EER\" - Low condenser dry-bulb temperature error continues...\n   *************  **   ~~~   **   This error occurred 1403 total times;\n   *************  **   ~~~   **   during Warmup 0 times;\n   *************  **   ~~~   **   during Sizing 0 times.\n   *************  **   ~~~   **   Max=-1.387779E-017 [C]  Min=-20.575 [C]\n   *************\n   *************  ** Warning ** CalcDoe2DXCoil: Coil:Cooling:DX:SingleSpeed=\"COIL COOLING DX SINGLE SPEED 20 9KBTU/HR 10.6EER\" - Low condenser dry-bulb temperature error continues...\n   *************  **   ~~~   **   This error occurred 935 total times;\n   *************  **   ~~~   **   during Warmup 0 times;\n   *************  **   ~~~   **   during Sizing 0 times.\n   *************  **   ~~~   **   Max=-2.500000E-002 [C]  Min=-22.8 [C]\n   *************\n   *************  ** Warning ** CalcDoe2DXCoil: Coil:Cooling:DX:SingleSpeed=\"COIL COOLING DX SINGLE SPEED 5 9KBTU/HR 10.5EER\" - Low condenser dry-bulb temperature error continues...\n   *************  **   ~~~   **   This error occurred 1088 total times;\n   *************  **   ~~~   **   during Warmup 0 times;\n   *************  **   ~~~   **   during Sizing 0 times.\n   *************  **   ~~~   **   Max=-2.500000E-002 [C]  Min=-22.8 [C]\n   *************\n   *************  ** Warning ** CalcDoe2DXCoil: Coil:Cooling:DX:SingleSpeed=\"COIL COOLING DX SINGLE SPEED 6 7KBTU/HR 11.0EER\" - Full load outlet temperature indicates a possibility of frost/freeze error continues. Outlet air temperature statistics follow:\n   *************  **   ~~~   **   This error occurred 14 total times;\n   *************  **   ~~~   **   during Warmup 0 times;\n   *************  **   ~~~   **   during Sizing 0 times.\n   *************  **   ~~~   **   Max=1.986191  Min=1.833249\n   *************\n   *************  ** Warning ** CalcDoe2DXCoil: Coil:Cooling:DX:SingleSpeed=\"COIL COOLING DX SINGLE SPEED 11 13KBTU/HR 9.6EER\" - Low condenser dry-bulb temperature error continues...\n   *************  **   ~~~   **   This error occurred 163 total times;\n   *************  **   ~~~   **   during Warmup 0 times;\n   *************  **   ~~~   **   during Sizing 0 times.\n   *************  **   ~~~   **   Max=-2.500000E-002 [C]  Min=-18.6 [C]\n   *************\n   *************  ** Warning ** CalcDoe2DXCoil: Coil:Cooling:DX:SingleSpeed=\"COIL COOLING DX SINGLE SPEED 23 10KBTU/HR 10.5EER\" - Low condenser dry-bulb temperature error continues...\n   *************  **   ~~~   **   This error occurred 854 total times;\n   *************  **   ~~~   **   during Warmup 0 times;\n   *************  **   ~~~   **   during Sizing 0 times.\n   *************  **   ~~~   **   Max=-1.387779E-017 [C]  Min=-17.8 [C]\n   *************\n   *************  ** Warning ** CalcDoe2DXCoil: Coil:Cooling:DX:SingleSpeed=\"COIL COOLING DX SINGLE SPEED 2 9KBTU/HR 10.5EER\" - Low condenser dry-bulb temperature error continues...\n   *************  **   ~~~   **   This error occurred 922 total times;\n   *************  **   ~~~   **   during Warmup 0 times;\n   *************  **   ~~~   **   during Sizing 0 times.\n   *************  **   ~~~   **   Max=-1.387779E-017 [C]  Min=-17.8 [C]\n   *************\n   *************  ** Warning ** CalcDoe2DXCoil: Coil:Cooling:DX:SingleSpeed=\"COIL COOLING DX SINGLE SPEED 28 18KBTU/HR 14.0SEER\" - Low condenser dry-bulb temperature error continues...\n   *************  **   ~~~   **   This error occurred 33 total times;\n   *************  **   ~~~   **   during Warmup 0 times;\n   *************  **   ~~~   **   during Sizing 0 times.\n   *************  **   ~~~   **   Max=-0.175 [C]  Min=-2.5 [C]\n   *************\n   *************  ** Warning ** CalcDoe2DXCoil: Coil:Cooling:DX:SingleSpeed=\"COIL COOLING DX SINGLE SPEED 28 18KBTU/HR 14.0SEER\" - Full load outlet temperature indicates a possibility of frost/freeze error continues. Outlet air temperature statistics follow:\n   *************  **   ~~~   **   This error occurred 230 total times;\n   *************  **   ~~~   **   during Warmup 0 times;\n   *************  **   ~~~   **   during Sizing 0 times.\n   *************  **   ~~~   **   Max=1.996269  Min=-1.142857\n   *************\n   *************  ** Warning ** CalcDoe2DXCoil: Coil:Cooling:DX:SingleSpeed=\"COIL COOLING DX SINGLE SPEED 22 5KBTU/HR 11.0EER\" - Low condenser dry-bulb temperature error continues...\n   *************  **   ~~~   **   This error occurred 583 total times;\n   *************  **   ~~~   **   during Warmup 0 times;\n   *************  **   ~~~   **   during Sizing 0 times.\n   *************  **   ~~~   **   Max=-2.500000E-002 [C]  Min=-9.4 [C]\n   *************\n   *************  ** Warning ** CalcDoe2DXCoil: Coil:Cooling:DX:SingleSpeed=\"COIL COOLING DX SINGLE SPEED 22 5KBTU/HR 11.0EER\" - Full load outlet temperature indicates a possibility of frost/freeze error continues. Outlet air temperature statistics follow:\n   *************  **   ~~~   **   This error occurred 83 total times;\n   *************  **   ~~~   **   during Warmup 0 times;\n   *************  **   ~~~   **   during Sizing 0 times.\n   *************  **   ~~~   **   Max=1.99914  Min=-0.239653\n   *************\n   *************  ** Warning ** CalcDoe2DXCoil: Coil:Cooling:DX:SingleSpeed=\"COIL COOLING DX SINGLE SPEED 4 6KBTU/HR 11.0EER\" - Low condenser dry-bulb temperature error continues...\n   *************  **   ~~~   **   This error occurred 868 total times;\n   *************  **   ~~~   **   during Warmup 0 times;\n   *************  **   ~~~   **   during Sizing 0 times.\n   *************  **   ~~~   **   Max=-5.551115E-017 [C]  Min=-10.15 [C]\n   *************\n   *************  ** Warning ** CalcDoe2DXCoil: Coil:Cooling:DX:SingleSpeed=\"COIL COOLING DX SINGLE SPEED 4 6KBTU/HR 11.0EER\" - Full load outlet temperature indicates a possibility of frost/freeze error continues. Outlet air temperature statistics follow:\n   *************  **   ~~~   **   This error occurred 25 total times;\n   *************  **   ~~~   **   during Warmup 0 times;\n   *************  **   ~~~   **   during Sizing 0 times.\n   *************  **   ~~~   **   Max=1.999913  Min=1.103178\n   *************\n   *************  ** Warning ** CalcDoe2DXCoil: Coil:Cooling:DX:SingleSpeed=\"COIL COOLING DX SINGLE SPEED 3 6KBTU/HR 11.0EER\" - Low condenser dry-bulb temperature error continues...\n   *************  **   ~~~   **   This error occurred 854 total times;\n   *************  **   ~~~   **   during Warmup 0 times;\n   *************  **   ~~~   **   during Sizing 0 times.\n   *************  **   ~~~   **   Max=-5.551115E-017 [C]  Min=-9.9 [C]\n   *************\n   *************  ** Warning ** CalcDoe2DXCoil: Coil:Cooling:DX:SingleSpeed=\"COIL COOLING DX SINGLE SPEED 3 6KBTU/HR 11.0EER\" - Full load outlet temperature indicates a possibility of frost/freeze error continues. Outlet air temperature stati
[...]
JQfnhF7RpUlB++AVtmhSUH35Fm6Yl2bpd2WyKNk1LstW7stwUbZqWZGt4Zb8p2jTtrrR1vLLiFG2almTreGXLoU1Dm4Y27YkQbdpt0KahTUObVhm0aWjTmt4V2rTZ8xtejzbtcdCmTbPCt7Q2ZhcABxxwwAEHHHDAAQcccMAZHmdj0gFooIEGGmiggQYaaKCBBppxaN5GdgAOOOCAAw444IADDjjggNP/PLRp90GbNmnTYgxt2n4Abdr+Zdq03UexWNOUnL0p52DKOZpyTqacsynnYsq5mnJmP7qXglyNDlelw9XpcJU6XK0OV63D1etwFTtczS6uZhfbXe1qdnE1uzQ1e7kebRbVb0cTYtJPqN+NJsSk577fjCbEpGe+34smxKTnXbCiKTmmHudrTFCiKTmmKuc7TPChKTmmNucLTJChKfegqc/59hJMaEqOqc/56urXoM1iBAuakpN+PIIDTclJj7tgQFNy0uMu+M+UnPS4K/YzKcjV6HyDKeozKchV6nyJKd4zKcjV63yPKdIz6WZ0NTtfZYrxTApyNTvfZujO0J2hO3siRHd2G3Rn6M7QnVUG3Rm6s6Z3he5s9vyG16M7exx0Z9Os8O2qjVkBwAEHHHDAAQcccMABBxxwhsfZmCwAGmiggQYaaKCBBhpooIFmHJq3kRSAAw444IADDjjggAMOOOD0Pw/d2X3QnU26szKG7uwwgO7s8ELd2e5o8p0JQXtX0MEVdHQFnVxBZ1fQxRV0dQV9+rm9kmTrdtjKHbZ2h63eYet32AoetoaHreJh63ixdbz47m9bx4ut46Wt4y0atMcsxYPWn5N/SooJrT8nvwUUF1p/Tn4DKDa0/pz89Es+NCHI1ejKepOUaEKQq9SV3SZZ0YQgV68ri00Sowk3o6vZla0mudGEIFezKytN0aM95kh+NCEo/4gkQ5oQlB9+yZEmBOWHX7KkCUH54dc8aUqSrduVzaap0pQkW70ry02zpSlJtoZX9psmTFPuSlvHKytOc6YpSbaOV7Yc2jS0aWjTngjRpt0GbRraNLRplUGbhjat6V2hTZs9v+H1aNMeB23aNCt8S2tjdgFwwAEHHHDAAQcccMABB5zhcTYmHYAGGmiggQYaaKCBBhpooBmH5m1kB+CAAw444IADDjjggAMOOP3PQ5t2H7RpkzZtP4Y27TiANu34Mm3a6euPQnsVN66gvSvo4Ao6uoJOrqCzK+jiCrq6gma/vteSbN0OW7nD1u6w1Tts/Q5bwcPW8LBVPGwdL7aOF9/9bet4sXW8tHV8uTZtntWvTVNy8k+pX5um5OS3QL82TcnJb4B+bZqSk59+QZsmBbkaXVlvgjZNCnKVurLbBG2aFOTqdWWxCdo06WZ0Nbuy1QRtmhTkanZlpfVr0+Y5gjZNCso/IkGbJgXlh1/QpklB+eEXtGlSUH74FW2almTrdmWzKdo0LclW78pyU7RpWpKt4ZX9pmjTtLvS1vHKilO0aVqSreOVLYc2DW0a2rQnQrRpt0GbhjYNbVpl0KahTWt6V2jTZs9veD3atMdBmzbNCt/S2phdABxwwAEHHHDAAQcccMABZ3icjUkHoIEGGmiggQYaaKCBBhpoxqF5G9kBOOCAAw444IADDjjggANO//PQpt0HbdqkTTuMoU07DaBNO71Mm7b7KBZrmpKzN+UcTDlHU87JlHM25VxMOVdTzuxH91KQq9HhqnS4Oh2uUoer1eGqdbh6Ha5ih6vZxdXsYrurXc0urmaXpmYv16PNovrtaEJM+gn1u9GEmPTc95vRhJj0zPd70YSY9LwLVjQlx9TjfI0JSjQlx1TlfIcJPjQlx9TmfIEJMjTlHjT1Od9egglNyTH1OV9d/Rq0WYxgQVNy0o9HcKApOelxFwxoSk563AX/mZKTHnfFfiYFuRqdbzBFfSYFuUqdLzHFeyYFuXqd7zFFeibdjK5m56tMMZ5JQa5m59sM3Rm6M3RnT4Tozm6D7gzdGbqzyqA7Q3fW9K7Qnc2e3/B6dGePg+5smhW+XbUxKwA44IADDjjggAMOOOCAA87wOBuTBUADDTTQQAMNNNBAAw000IxD8zaSAnDAAQcccMABBxxwwAEHnP7noTu7D7qzSXd2HEN3dh5Ad3Z+oe5sdzT5zoSgvSvo4Ao6uoJOrqCzK+jiCrq6gj793F5JsnU7bOUOW7vDVu+w9TtsBQ9bw8NW8bB1vNg6Xnz3t63jxdbx0tbxFg3aY5biQevPyT8lxYTWn5PfAooLrT8nvwEUG1p/Tn76JR+aEORqdGW9SUo0IchV6spuk6xoQpCr15XFJonRhJvR1ezKVpPcaEKQq9mVlabo0R5zJD+aEJR/RJIhTQjKD7/kSBOC8sMvWdKEoPzwa540JcnW7cpm01RpSpKt3pXlptnSlCRbwyv7TROmKXelreOVFac505QkW8crWw5tGto0tGlPhGjTboM2DW0a2rTKoE1Dm9b0rtCmzZ7f8Hq0aY+DNm2aFb6ltTG7ADjggAMOOOCAAw444IADzvA4G5MOQAMNNNBAAw000EADDTTQjEPzNrIDcMABBxxwwAEHHHDAAQec/uehTbsP2rRJm3YaQ5t2GUCbdnmZNu309UehvYobV9DeFXRwBR1dQSdX0NkVdHEFXV1Bs1/fa0m2boet3GFrd9jqHbZ+h63gYWt42Coeto4XW8eL7/62dbzYOl7aOr5cmzbP6temKTn5p9SvTVNy8lugX5um5OQ3QL82TcnJT7+gTZOCXI2urDdBmyYFuUpd2W2CNk0KcvW6stgEbZp0M7qaXdlqgjZNCnI1u7LS+rVp8xxBmyYF5R+RoE2TgvLDL2jTpKD88AvaNCkoP/yKNk1LsnW7stkUbZqWZKt3Zbkp2jQtydbwyn5TtGnaXWnreGXFKdo0LcnW8cqWQ5uGNg1t2hMh2rTboE1Dm4Y2rTJo09CmNb0rtGmz5ze8Hm3a46BNm2aFb2ltzC4ADjjggAMOOOCAAw444IAzPM7GpAPQQAMNNNBAAw000EADDTTj0LyN7AAccMABBxxwwAEHHHDAAaf/eWjT7oM2bdKmncfQpl0H0KZdX6ZN230UizVNydmbcg6mnKMp52TKOZtyLqacqyln9qN7KcjV6HBVOlydDlepw9XqcNU6XL0OV7HD1ezianax3dWuZhdXs0tTs5fr0WZR/XY0ISb9hPrdaEJMeu77zWhCTHrm+71oQkx63gUrmpJj6nG+xgQlmpJjqnK+wwQfmpJjanO+wAQZmnIPmvqcby/BhKbkmPqcr65+DdosRrCgKTnpxyM40JSc9LgLBjQlJz3ugv9MyUmPu2I/k4Jcjc43mKI+k4Jcpc6XmOI9k4Jcvc73mCI9k25GV7PzVaYYz6QgV7PzbYbuDN0ZurMnQnRnt0F3hu4M3Vll0J2hO2t6V+jOZs9veD26s8dBdzbNCt+u2pgVABxwwAEHHHDAAQcccMABZ3icjckCoIEGGmiggQYaaKCBBhpoxqF5G0kBOOCAAw444IADDjjggANO//PQnd0H3dmkO7sMoTs777avO/uF8XW6s93R5DsTgvauoIMr6OgKOrmCzq6giyvo6gr69HN7JcnW7bCVO2ztDlu9w9bvsBU8bA0PW8XD1vFi63jx3d+2jhdbx0tbx1s0aI9ZigetPyf/lBQTWn9OfgsoLrT+nPwGUGxo/Tn56Zd8aEKQq9GV9SYp0YQgV6kru02yoglBrl5XFpskRhNuRlezK1tNcqMJQa5mV1aaokd7zJH8aEJQ/hFJhjQhKD/8kiNNCMoPv2RJE4Lyw6950pQkW7crm01TpSlJtnpXlptmS1OSbA2v7DdNmKbclbaOV1ac5kxTkmwdr2w5tGlo09CmPRGiTbsN2jS0aWjTKoM2DW1a07tCmzZ7fsPr0aY9Dtq0aVb4ltbG7ALggAMOOOCAAw444IADDjjD42xMOgANNNBAAw000EADDTTQQDMOzdvIDsABBxxwwAEHHHDAAQcccPqfhzbtPmjTJm3adQxtWgygTYuXadNOX38U2qu4cQXtXUEHV9DRFXRyBZ1dQRdX0NUVNPv1vZZk63bYyh22doet3mHrd9gKHraGh63iYet4sXW8+O5vW8eLreOlrePLtWnzrH5tmpKTf0r92jQlJ78F+rVpSk5+A/Rr05Sc/PQL2jQpyNXoynoTtGlSkKvUld0maNOkIFevK4tN0KZJN6Or2ZWtJmjTpCBXsysrrV+bNs8RtGlSUP4RCdo0KSg//II2TQrKD7+gTZOC8sOvaNO0JFu3K5tN0aZpSbZ6V5abok3TkmwNr+w3RZum3ZW2jldWnKJN05JsHa9sObRpaNPQpj0Rok27Ddo0tGlo0yqDNg1tWtO7Qps2e37D69GmPQ7atGlW+JbWxuwC4IADDjjggAMOOOCAAw44w+NsTDoADTTQQAMNNNBAAw000EAzDs3byA7AAQcccMABBxxwwAEHHHD6n4c27T5o075p045jWNPKANa0gjWtLwhr2veDsKYtSsKahjUNaxrWNKxpWNOwpmFNw5r2qzcj1rTvB2FN+24Q1jSsaVjTsKbZkrCmLUvCmpbDYE3DmvZ5sKZ9w8ea9nmwpi0ZrGltr8eahjWt6V1hTZs9v+H1WNMeB2vaNCt8SWtjcgFwwAEHHHDAAQcccMABB5zhcTbmHIAGGmiggQYaaKCBBhpooBmH5m1cB+CAAw444IADDjjggAMOOP3Pw5p2H6xpkzVtN4Y2bT+ANm3/Mm3a7qNYrGlKzt6UczDlHE05J1PO2ZRzMeVcTTmzH91LQa5Gh6vS4ep0uEodrlaHq9bh6nW4ih2uZhdXs4vtrnY1u7iaXZqavVyPNovqt6MJMekn1O9GE2LSc99vRhNi0jPf70UTYtLzLljRlBxTj/M1JijRlBxTlfMdJvjQlBxTm/MFJsjQlHvQ1Od8ewkmNCXH1Od8dfVr0GYxggVNyUk/HsGBpuSkx10woCk56XEX/GdKTnrcFfuZFORqdL7BFPWZFOQqdb7EFO+ZFOTqdb7HFOmZdDO6mp2vMsV4JgW5mp1vM3Rn6M7QnT0Roju7DbozdGfoziqD7gzdWdO7Qnc2e37D69GdPQ66s2lW+HbVxqwA4IADDjjggAMOOOCAAw44w+NsTBYADTTQQAMNNNBAAw000EAzDs3bSArAAQcccMABBxxwwAEHHHD6n4fu7D7ozibdWYyhOzsMoDs7vFB3tjuafGdC0N4VdHAFHV1BJ1fQ2RV0cQVdXUGffm6vJNm6HbZyh63dYat32PodtoKHreFhq3jYOl5sHS+++9vW8WLreGnreIsG7TFL8aD15+SfkmJC68/JbwHFhdafk98Aig2tPyc//ZIPTQhyNbqy3iQlmhDkKnVlt0lWNCHI1evKYpPEaMLN6Gp2ZatJbjQhyNXsykpT9GiPOZIfTQjKPyLJkCYE5YdfcqQJQfnhlyxpQlB++DVPmpJk63Zls2mqNCXJVu/KctNsaUqSreGV/aYJ05S70tbxyorTnGlKkq3jlS2HNg1tGtq0J0K0abdBm4Y2DW1aZdCmoU1reldo02bPb3g92rTHQZs2zQrf0tqYXQAccMABBxxwwAEHHHDAAWd4nI1JB6CBBhpooIEGGmiggQYaaMaheRvZATjggAMOOOCAAw444IADTv/z0KbdB23apE0rY2jTjgNo044v06advv4otFdx4wrau4IOrqCjK+jkCjq7gi6uoKsraPbrey3J1u2wlTts7Q5bvcPW77AVPGwND1vFw9bxYut48d3fto4XW8dLW8eXa9PmWf3aNCUn/5T6tWlKTn4L9GvTlJz8BujXpik5+ekXtGlSkKvRlfUmaNOkIFepK7tN0KZJQa5eVxaboE2TbkZXsytbTdCmSUGuZldWWr82bZ4jaNOkoPwjErRpUlB++AVtmhSUH35BmyYF5Ydf0aZpSbZuVzabok3Tkmz1riw3RZumJdkaXtlvijZNuyttHa+sOEWbpiXZOl7ZcmjT0KahTXsiRJt2G7RpaNPQplUGbRratKZ3hTZt9vyG16NNexy0adOs8C2tjdkFwAEHHHDAAQcccMABBxxwhsfZmHQAGmiggQYaaKCBBhpooIFmHJq3kR2AAw444IADDjjggAMOOOD0Pw9t2n3Qpk3atP0Y2rTTANq008u0abuPYrGmKTl7U87BlHM05ZxMOWdTzsWUczXlzH50LwW5Gh2uSoer0+EqdbhaHa5ah6vX4Sp2uJpdXM0utrva1ezianZpavZyPdosqt+OJsSkn1C/G02ISc99vxlNiEnPfL8XTYhJz7tgRVNyTD3O15igRFNyTFXOd5jgQ1NyTG3OF5ggQ1PuQVOf8+0lmNCUHFOf89XVr0GbxQgWNCUn/XgEB5qSkx53wYCm5KTHXfCfKTnpcVfsZ1KQq9H5BlPUZ1KQq9T5ElO8Z1KQq9f5HlOkZ9LN6Gp2vsoU45kU5Gp2vs3QnaE7Q3f2RIju7DboztCdoTurDLozdGdN7wrd2ez5Da9Hd/Y46M6mWeHbVRuzAoADDjjggAMOOOCAAw444AyPszFZADTQQAMNNNBAAw000EADzTg0byMpAAcccMABBxxwwAEHHHDA6X8eurP7oDubdGeHMXRn5wF0Z+cX6s52R5PvTAjau4IOrqCjK+jkCjq7gi6uoKsr6NPP7ZUkW7fDVu6wtTts9Q5bv8NW8LA1PGwVD1vHi63jxXd/2zpebB0vbR1v0aA9ZiketP6c/FNSTGj9OfktoLjQ+nPyG0CxofXn5Kdf8qEJQa5GV9abpEQTglylruw2yYomBLl6XVlskhhNuBldza5sNcmNJgS5ml1ZaYoe7TFH8qMJQflHJBnShKD88EuONCEoP/ySJU0Iyg+/5klTkmzdrmw2TZWmJNnqXVlumi1NSbI1vLLfNGGaclfaOl5ZcZozTUmydbyy5dCmoU1Dm/ZEiDbtNmjT0KahTasM2jS0aU3vCm3a7PkNr0eb9jho06ZZ4VtaG7MLgAMOOOCAAw444IADDjjgDI+zMekANNBAAw000EADDTTQQAPNODRvIzsABxxwwAEHHHDAAQcccMDpfx7atPugTZu0accxtGmXAbRpl5dp005ffxTaq7hxBe1dQQdX0NEVdHIFnV1BF1fQ1RU0+/W9lmTrdtjKHbZ2h63eYet32AoetoaHreJh63ixdbz47m9bx4ut46Wt48u1afOsfm2akpN/Sv3aNCUnvwX6tWlKTn4D9GvTlJz89AvaNCnI1ejKehO0aVKQq9SV3SZo06QgV68ri03Qpkk3o6vZla0maNOkIFezKyutX5s2zxG0aVJQ/hEJ2jQpKD/8gjZNCsoPv6BNk4Lyw69o07QkW7crm03RpmlJtnpXlpuiTdOSbA2v7DdFm6bdlbaOV1acok3Tkmwdr2w5tGlo09CmPRGiTbsN2jS0aWjTKoM2DW1a07tCmzZ7fsPr0aY9Dtq0aVb4ltbG7ALggAMOOOCAAw444IADDjjD42xMOgANNNBAAw000EADDTTQQDMOzdvIDsABBxxwwAEHHHDAAQcccPqfhzbtPmjTJm3aaQxt2nUAbdr1Zdq03UexWNOUnL0p52DKOZpyTqacsynnYsq5mnJmP7qXglyNDlelw9XpcJU6XK0OV63D1etwFTtczS6uZhfbXe1qdnE1uzQ1e7kebRbVb0cTYtJPqN+NJsSk577fjCbEpGe+34smxKTnXbCiKTmmHudrTFCiKTmmKuc7TPChKTmmNucLTJChKfegqc/59hJMaEqOqc/56urXoM1iBAuakpN+PIIDTclJj7tgQFNy0uMu+M+UnPS4K/YzKcjV6HyDKeozKchV6nyJKd4zKcjV63yPKdIz6WZ0NTtfZYrxTApyNTvfZujO0J2hO3siRHd2G3Rn6M7QnVUG3Rm6s6Z3he5s9vyG16M7exx0Z9Os8O2qjVkBwAEHHHDAAQcccMABBxxwhsfZmCwAGmiggQYaaKCBBhpooIFmHJq3kRSAAw444IADDjjggAMOOOD0Pw/d2X3QnU26s/MQurPLbvu6s18YX6c72x1NvjMhaO8KOriCjq6gkyvo7Aq6uIKurqBPP7dXkmzdDlu5w9busNU7bP0OW8HD1vCwVTxsHS+2jhff/W3reLF1vLR1vEWD9pileND6c/JPSTGh9efkt4DiQuvPyW8AxYbWn5OffsmHJgS5Gl1Zb5ISTQhylbqy2yQrmhDk6nVlsUliNOFmdDW7stUkN5oQ5Gp2ZaUperTHHMmPJgTlH5FkSBOC8sMvOdKEoPzwS5Y0ISg//JonTUmydbuy2TRVmpJkq3dluWm2NCXJ1vDKftOEacpdaet4ZcVpzjQlydbxypZDm4Y2DW3aEyHatNugTUObhjatMmjT0KY1vSu0abPnN7webdrjoE2bZoVvaW3MLgAOOOCAAw444IADDjjggDM8zsakA9BAAw000EADDTTQQAMNNOPQvI3sABxwwAEHHHDAAQcccMABp/95aNPugzZt0qZdxtCmxQDatHiZNu309UehvYobV9DeFXRwBR1dQSdX0NkVdHEFXV1Bs1/fa0m2boet3GFrd9jqHbZ+h63gYWt42Coeto4XW8eL7/62dbzYOl7aOr5cmzbP6temKTn5p9SvTVNy8lugX5um5OQ3QL82TcnJT7+gTZOCXI2urDdBmyYFuUpd2W2CNk0KcvW6stgEbZp0M7qaXdlqgjZNCnI1u7LS+rVp8xxBmyYF5R+RoE2TgvLDL2jTpKD88AvaNCkoP/yKNk1LsnW7stkUbZqWZKt3Zbkp2jQtydbwyn5TtGnaXWnreGXFKdo0LcnW8cqWQ5uGNg1t2hMh2rTboE1Dm4Y2rTJo09CmNb0rtGmz5ze8Hm3a46BNm2aFb2ltzC4ADjjggAMOOOCAAw444IAzPM7GpAPQQAMNNNBAAw000EADDTTj0LyN7AAccMABBxxwwAEHHHDAAaf/eWjT7oM2bdKmXcfQppUBtGnlZdq03UexWNOUnL0p52DKOZpyTqacsynnYsq5mnJmP7qXglyNDlelw9XpcJU6XK0OV63D1etwFTtczS6uZhfbXe1qdnE1uzQ1e7kebRbVb0cTYtJPqN+NJsSk577fjCbEpGe+34smxKTnXbCiKTmmHudrTFCiKTmmKuc7TPChKTmmNucLTJChKfegqc/59hJMaEqOqc/56urXoM1iBAuakpN+PIIDTclJj7tgQFNy0uMu+M+UnPS4K/YzKcjV6HyDKeozKchV6nyJKd4zKcjV63yPKdIz6WZ0NTtfZYrxTApyNTvfZujO0J2hO3siRHd2G3Rn6M7QnVUG3Rm6s6Z3he5s9vyG16M7exx0Z9Os8O2qjVkBwAEHHHDAAQcccMABBxxwhsfZmCwAGmiggQYaaKCBBhpooIFmHJq3kRSAAw444IADDjjggAMOOOD0Pw/d2X3QnX3TnZ3GsJ3tB7Cd7bGdYTv7/o/ssZ1hO8N2hu1sSRC2M2xn2M6wnWE7w3aG7QzbWdPiwnaG7WxRELaz7wdhO/t+ELaz7wdhO8tgsJ1hO/s82M6+4WM7+zzYzpYMtrO212M7w3bW9K6wnc2e3/B6bGePg+1smhW+XLUxKQA44IADDjjggAMOOOCAA87wOBtzBUADDTTQQAMNNNBAAw000IxD8zaOAnDAAQcccMABBxxwwAEHnP7nYTu7D7azyXa2G0N3dhhAd3Z4oe5sdzT5zoSgvSvo4Ao6uoJOrqCzK+jiCrq6gj793F5JsnU7bOUOW7vDVu+w9TtsBQ9bw8NW8bB1vNg6Xnz3t63jxdbx0tbxFg3aY5biQevPyT8lxYTWn5PfAooLrT8nvwEUG1p/Tn76JR+aEORqdGW9SUo0IchV6spuk6xoQpCr15XFJonRhJvR1ezKVpPcaEKQq9mVlabo0R5zJD+aEJR/RJIhTQjKD7/kSBOC8sMvWdKEoPzwa540JcnW7cpm01RpSpKt3pXlptnSlCRbwyv7TROmKXelreOVFac505QkW8crWw5tGto0tGlPhGjTboM2DW0a2rTKoE1Dm9b0rtCmzZ7f8Hq0aY+DNm2aFb6ltTG7ADjggAMOOOCAAw444IADzvA4G5MOQAMNNNBAAw000EADDTTQjEPzNrIDcMABBxxwwAEHHHDAAQec/uehTbsP2rRJmxZjaNOOA2jTji/Tpp2+/ii0V3HjCtq7gg6uoKMr6OQKOruCLq6gqyto9ut7LcnW7bCVO2ztDlu9w9bvsBU8bA0PW8XD1vFi63jx3d+2jhdbx0tbx5dr0+ZZ/do0JSf/lPq1aUpOfgv0a9OUnPwG6NemKTn56Re0aVKQq9GV9SZo06QgV6kru03QpklBrl5XFpugTZNuRlezK1tN0KZJQa5mV1ZavzZtniNo06Sg/CMStGlSUH74BW2aFJQffkGbJgXlh1/RpmlJtm5XNpuiTdOSbPWuLDdFm6Yl2Rpe2W+KNk27K20dr6w4RZumJdk6XtlyaNPQpqFNeyJEm3YbtGlo09CmVQZtGtq0pneFNm32/IbXo017HLRp06zwLa2N2QXAAQcccMABBxxwwAEHHHCGx9mYdAAaaKCBBhpooIEGGmiggWYcmreRHYADDjjggAMOOOCAAw444PQ/D23afdCmTdq0MoY27TSANu30Mm3a7qNYrGlKzt6UczDlHE05J1PO2ZRzMeVcTTmzH91LQa5Gh6vS4ep0uEodrlaHq9bh6nW4ih2uZhdXs4vtrnY1u7iaXZqavVyPNovqt6MJMekn1O9GE2LSc99vRhNi0jPf70UTYtLzLljRlBxTj/M1JijRlBxTlfMdJvjQlBxTm/MFJsjQlHvQ1Od8ewkmNCXH1Od8dfVr0GYxggVNyUk/HsGBpuSkx10woCk56XEX/GdKTnrcFfuZFORqdL7BFPWZFOQqdb7EFO+ZFOTqdb7HFOmZdDO6mp2vMsV4JgW5mp1vM3Rn6M7QnT0Roju7DbozdGfoziqD7gzdWdO7Qnc2e37D69GdPQ66s2lW+HbVxqwA4IADDjjggAMOOOCAAw44w+NsTBYADTTQQAMNNNBAAw000EAzDs3bSArAAQcccMABBxxwwAEHHHD6n4fu7D7ozibd2X4M3dl5AN3Z+YW6s93R5DsTgvauoIMr6OgKOrmCzq6giyvo6gr69HN7JcnW7bCVO2ztDlu9w9bvsBU8bA0PW8XD1vFi63jx3d+2jhdbx0tbx1s0aI9ZigetPyf/lBQTWn9OfgsoLrT+nPwGUGxo/Tn56Zd8aEKQq9GV9SYp0YQgV6kru02yoglBrl5XFpskRhNuRlezK1tNcqMJQa5mV1aaokd7zJH8aEJQ/hFJhjQhKD/8kiNNCMoPv2RJE4Lyw6950pQkW7crm01TpSlJtnpXlptmS1OSbA2v7DdNmKbclbaOV1ac5kxTkmwdr2w5tGlo09CmPRGiTbsN2jS0aWjTKoM2DW1a07tCmzZ7fsPr0aY9Dtq0aVb4ltbG7ALggAMOOOCAAw444IADDjjD42xMOgANNNBAAw000EADDTTQQDMOzdvIDsABBxxwwAEHHHDAAQcccPqfhzbtPmjTJm3aYQxt2mUAbdrlZdq009cfhfYqblxBe1fQwRV0dAWdXEFnV9DFFXR1Bc1+fa8l2bodtnKHrd1hq3fY+h22goet4WGreNg6XmwdL77729bxYut4aev4cm3aPKtfm6bk5J9SvzZNyclvgX5tmpKT3wD92jQlJz/9gjZNCnI1urLeBG2aFOQqdWW3Cdo0KcjV68piE7Rp0s3oanZlqwnaNCnI1ezKSuvXps1zBG2aFJR/RII2TQrKD7+gTZOC8sMvaNOkoPzwK9o0LcnW7cpmU7RpWpKt3pXlpmjTtCRbwyv7TdGmaXelreOVFado07QkW8crWw5tGto0tGlPhGjTboM2DW0a2rTKoE1Dm9b0rtCmzZ7f8Hq0aY+DNm2aFb6ltTG7ADjggAMOOOCAAw444IADzvA4G5MOQAMNNNBAAw000EADDTTQjEPzNrIDcMABBxxwwAEHHHDAAQec/uehTbsP2rRJm3YcQ5t2HUCbdn2ZNm33USzWNCVnb8o5mHKOppyTKedsyrmYcq6mnNmP7qUgV6PDVelwdTpcpQ5Xq8NV63D1OlzFDlezi6vZxXZXu5pdXM0uTc1erkebRfXb0YSY9BPqd6MJMem57zejCTHpme/3ogkx6XkXrGhKjqnH+RoTlGhKjqnK+Q4TfGhKjqnN+QITZGjKPWjqc769BBOakmPqc766+jVosxjBgqbkpB+P4EBTctLjLhjQlJz0uAv+MyUnPe6K/UwKcjU632CK+kwKcpU6X2KK90wKcvU632OK9Ey6GV3NzleZYjyTglzNzrcZujN0Z+jOngjRnd0G3Rm6M3RnlUF3hu6s6V2hO5s9v+H16M4eB93ZNCt8u2pjVgBwwAEHHHDAAQcccMABB5zhcTYmC4AGGmiggQYaaKCBBhpooBmH5m0kBeCAAw444IADDjjggAMOOP3PQ3d2H3Rnk+7sNITu7Lrbvu7sF8bX6c52R5PvTAjau4IOrqCjK+jkCjq7gi6uoKsr6NPP7ZUkW7fDVu6wtTts9Q5bv8NW8LA1PGwVD1vHi63jxXd/2zpebB0vbR1v0aA9ZiketP6c/FNSTGj9OfktoLjQ+nPyG0CxofXn5Kdf8qEJQa5GV9abpEQTglylruw2yYomBLl6XVlskhhNuBldza5sNcmNJgS5ml1ZaYoe7TFH8qMJQflHJBnShKD88EuONCEoP/ySJU0Iyg+/5klTkmzdrmw2TZWmJNnqXVlumi1NSbI1vLLfNGGaclfaOl5ZcZozTUmydbyy5dCmoU1Dm/ZEiDbtNmjT0KahTasM2jS0aU3vCm3a7PkNr0eb9jho06ZZ4VtaG7MLgAMOOOCAAw444IADDjjgDI+zMekANNBAAw000EADDTTQQAPNODRvIzsABxxwwAEHHHDAAQcccMDpfx7atPugTZu0aecxtGkxgDYtXqZNO339UWiv4sYVtHcFHVxBR1fQyRV0dgVdXEFXV9Ds1/dakq3bYSt32NodtnqHrd9hK3jYGh62ioet48XW8eK7v20dL7aOl7aOL9emzbP6tWlKTv4p9WvTlJz8FujXpik5+Q3Qr01TcvLTL2jTpCBXoyvrTdCmSUGuUld2m6BNk4Jcva4sNkGbJt2MrmZXtpqgTZOCXM2urLR+bdo8R9CmSUH5RyRo06Sg/PAL2jQpKD/8gjZNCsoPv6JN05Js3a5sNkWbpiXZ6l1Zboo2TUuyNbyy3xRtmnZX2jpeWXGKNk1LsnW8suXQpqFNQ5v2RIg27TZo09CmoU2rDNo0tGlN7wpt2uz5Da9Hm/Y4aNOmWeFbWhuzC4ADDjjggAMOOOCAAw444AyPszHpADTQQAMNNNBAAw000EADzTg0byM7AAcccMABBxxwwAEHHHDA6X8e2rT7oE2btGmXMbRpZQBtWnmZNm33USzWNCVnb8o5mHKOppyTKedsyrmYcq6mnNmP7qUgV6PDVelwdTpcpQ5Xq8NV63D1OlzFDlezi6vZxXZXu5pdXM0uTc1erkebRfXb0YSY9BPqd6MJMem57zejCTHpme/3ogkx6XkXrGhKjqnH+RoTlGhKjqnK+Q4TfGhKjqnN+QITZGjKPWjqc769BBOakmPqc766+jVosxjBgqbkpB+P4EBTctLjLhjQlJz0uAv+MyUnPe6K/UwKcjU632CK+kwKcpU6X2KK90wKcvU632OK9Ey6GV3NzleZYjyTglzNzrcZujN0Z+jOngjRnd0G3Rm6M3RnlUF3hu6s6V2hO5s9v+H16M4eB93ZNCt8u2pjVgBwwAEHHHDAAQcccMABB5zhcTYmC4AGGmiggQYaaKCBBhpooBmH5m0kBeCAAw444IADDjjggAMOOP3PQ3d2H3Rnk+7sOobubD+A7mz/Qt3Z7mjynQlBe1fQwRV0dAWdXEFnV9DFFXR1BX36ub2SZOt22ModtnaHrd5h63fYCh62hoet4mHreLF1vPjub1vHi63jpa3jLRq0xyzFg9afk39KigmtPye/BRQXWn9OfgMoNrT+nPz0Sz40IcjV6Mp6k5RoQpCr1JXdJlnRhCBXryuLTRKjCTejq9mVrSa50YQgV7MrK03Roz3mSH40ISj/iCRDmhCUH37JkSYE5YdfsqQJQfnh1zxpSpKt25XNpqnSlCRbvSvLTbOlKUm2hlf2myZMU+5KW8crK05zpilJto5XthzaNLRpaNOeCNGm3QZtGto0tGmVQZuGNq3pXaFNmz2/4fVo0x4Hbdo0K3xLa2N2AXDAAQcccMABBxxwwAEHnOFxNiYdgAYaaKCBBhpooIEGGmigGYfmbWQH4IADDjjggAMOOOCAAw44/c9Dm3YftGnftGnnMaxphwGsaQesaX1BWNO+H4Q1bVES1jSsaVjTsKZhTcOahjUNaxrWtF+9GbGmfT8Ia9p3g7CmYU3DmoY1DWvaoiSsabXBmvbrs+R/n8aaVo/GmvYNH2va58GatmSwprW9Hmsa1rSmd4U1bfb8htdjTXscrGnTrPAlrY3JBcABBxxwwAEHHHDAAQcccIbH2ZhzABpooIEGGmiggQYaaKCBZhyat3EdgAMOOOCAAw444IADDjjg9D8Pa9p9sKZN1rTdGNq04wDatOPLtGmnrz8K7VXcuIL2rqCDK+joCjq5gs6uoIsr6OoKmv36XkuydTts5Q5bu8NW77D1O2wFD1vDw1bxsHW82DpefPe3rePF1vHS1vHl2rR5Vr82TcnJP6V+bZqSk98C/do0JSe/Afq1aUpOfvoFbZoU5Gp0Zb0J2jQpyFXqym4TtGlSkKvXlcUmaNOkm9HV7MpWE7RpUpCr2ZWV1q9Nm+cI2jQpKP+IBG2aFJQffkGbJgXlh1/QpklB+eFXtGlakq3blc2maNO0JFu9K8tN0aZpSbaGV/abok3T7kpbxysrTtGmaUm2jle2HNo0tGlo054I0abdBm0a2jS0aZVBm4Y2reldoU2bPb/h9WjTHgdt2jQrfEtrY3YBcMABBxxwwAEHHHDAAQec4XE2Jh2ABhpooIEGGmiggQYaaKAZh+ZtZAfggAMOOOCAAw444IADDjj9z0Obdh+0aZM2LcbQpp0G0KadXqZN230UizVNydmbcg6mnKMp52TKOZtyLqacqyln9qN7KcjV6HBVOlydDlepw9XqcNU6XL0OV7HD1ezianax3dWuZhdXs0tTs5fr0WZR/XY0ISb9hPrdaEJMeu77zWhCTHrm+71oQkx63gUrmpJj6nG+xgQlmpJjqnK+wwQfmpJjanO+wAQZmnIPmvqcby/BhKbkmPqcr65+DdosRrCgKTnpxyM40JSc9LgLBjQlJz3ugv9MyUmPu2I/k4Jcjc43mKI+k4Jcpc6XmOI9k4Jcvc73mCI9k25GV7PzVaYYz6QgV7PzbYbuDN0ZurMnQnRnt0F3hu4M3Vll0J2hO2t6V+jOZs9veD26s8dBdzbNCt+u2pgVABxwwAEHHHDAAQcccMABZ3icjckCoIEGGmiggQYaaKCBBhpoxqF5G0kBOOCAAw444IADDjjggANO//PQnd0H3dmkOytj6M7OA+jOzi/Une2OJt+ZELR3BR1cQUdX0MkVdHYFXVxBV1fQp5/bK0m2boet3GFrd9jqHbZ+h63gYWt42Coeto4XW8eL7/62dbzYOl7aOt6iQXvMUjxo/Tn5p6SY0Ppz8ltAcaH15+Q3gGJD68/JT7/kQxOCXI2urDdJiSYEuUpd2W2SFU0IcvW6stgkMZpwM7qaXdlqkhtNCHI1u7LSFD3aY47kRxOC8o9IMqQJQfnhlxxpQlB++CVLmhCUH37Nk6Yk2bpd2WyaKk1JstW7stw0W5qSZGt4Zb9pwjTlrrR1vLLiNGeakmTreGXLoU1Dm4Y27YkQbdpt0KahTUObVhm0aWjTmt4V2rTZ8xtejzbtcdCmTbPCt7Q2ZhcABxxwwAEHHHDAAQcccMAZHmdj0gFooIEGGmiggQYaaKCBBppxaN5GdgAOOOCAAw444IADDjjggNP/PLRp90GbNmnT9mNo0y4DaNMuL9Omnb7+KLRXceMK2ruCDq6goyvo5Ao6u4IurqCrK2j263stydbtsJU7bO0OW73D1u+wFTxsDQ9bxcPW8WLrePHd37aOF1vHS1vHl2vT5ln92jQlJ/+U+rVpSk5+C/Rr05Sc/Abo16YpOfnpF7RpUpCr0ZX1JmjTpCBXqSu7TdCmSUGuXlcWm6BNk25GV7MrW03QpklBrmZXVlq/Nm2eI2jTpKD8IxK0aVJQfvgFbZoUlB9+QZsmBeWHX9GmaUm2blc2m6JN05Js9a4sN0WbpiXZGl7Zb4o2TbsrbR2vrDhFm6Yl2Tpe2XJo09CmoU17IkSbdhu0aWjT0KZVBm0a2rSmd4U2bfb8htejTXsctGnTrPAtrY3ZBcABBxxwwAEHHHDAAQcccIbH2Zh0ABpooIEGGmiggQYaaKCBZhyat5EdgAMOOOCAAw444IADDjjg9D8Pbdp90KZN2rTDGNq06wDatCvatL4gtGnfD0KbtigJbRraNLRpaNPQpqFNQ5uGNg1t2q/ejGjTvh+ENu27QWjT0KahTUObZktCm7YsCW1aDoM2DW3a50Gb9g0fbdrnQZu2ZNCmtb0ebRratKZ3hTZt9vyG16NNexy0adOs8C2tjdkFwAEHHHDAAQcccMABBxxwhsfZmHQAGmiggQYaaKCBBhpooIFmHJq3kR2AAw444IADDjjggAMOOOD0Pw9t2n3Qpn3Tpl2GsKbFbrd9bdoN8lXetN1HsWjTlJy9Kedgyjmack6mnLMp52LKuZpyZr+6l4JcjQ5XpcPV6XCVOlytDletw9XrcBU7XM0urmYX213tanZxNbs0NXu5H20W1a9HE2LST6hfjibEpOe+X40mxKRnvl+MJsSk513Qoik5ph7na0xwoik5pirnO0wQoik5pjbnC0ywoSn3oKnP+fYSVGhKjqnP+erq96DNYgQNmpKTfjyCBE3JSY+7oEBTctLjLgjQlJz0uCv6MynI1eh8gynuMynIVep8iSniMynI1et8jynWM+lmdDU7X2WK8kwKcjU732b4zvCd4Tt7IsR3dht8Z/jO8J1VBt8ZvrOmd4XvbPb8htfjO3scfGfTrPD1qo1pAcABBxxwwAEHHHDAAQcccIbH2ZgtABpooIEGGmiggQYaaKCBZhyat7EUgAMOOOCAAw444IADDjjg9D8P39l98J19851dB/GdxQi+s3iZ7ywOu4/dw8TBoj8zxu7XiT2sE3tcJ/a0Tux5ndjLOrHXdWJnv/Z35q50zmKlgxYrnbRY6ajFSmctVjpssdJpi5WOW6x03spK562stddWOm9lpfNWlPO23CtXS+7XzPlSl366/RI6X+rSm6xfUedLXXqL9QvsfKlLbzBBb2eMXed0Lf5zQXDhGWPXOWCL/1YQxHnG2HXO2OI/FATLnnErrHPKFv+VICj5jLHrnLLFfyL0+/tqqYLOzxi79KMVZH/G2KUXmKACNMYuvcAEUaAxdukFpmgEnbkrnbPFfykozkFn7kpHbfEfC4qg0Jm70mlb/PeCYjN07omVztviPxkU9aEzd6XztvivBjyJeBLxJD4R4km8DZ5EPIl4EiuDJxFPYtO7wpM4e37D6/EkPg6exGlW+FrmxnQi4IADDjjggAMOOOCAAw44w+NszDICDTTQQAMNNNBAAw000EAzDs3b2E3AAQcccMABBxxwwAEHHHD6n/ff4En8py9/+I8vP//mz//585cf/uff/i+0idvSJn75+b9+/O2XH/75N7fm/f1PP/3HD7f/h92+53zY/e0gCsUygkKxvEyheLp+XB/mcrUYFH2p+1VSD6ukHldJPa2Sel4l9bJK6nWV1JngwBi7zumKdY5XrHO+Yp0DFuucsFjniMU6ZyzWOWSxzikr65yystIOW+eUlXVOWRFO2XJVYiW435RoC134yfZ7Em2hC++ufkuiLXThvdXvSLSFLryzBEOiL3WVM7X0zwJBj+hLXeVYLf2bQHAj+lJXOVlL/yAQxIi+HbDK2Vr614BgRfSlrnK2lv4p0K9ErIQKRkRf6sKPVfAh+lIXXlmCDdGXuvDKElyIvtSFV5ZiQjTGrnO6lv5FoGgQjbHrHLClfxQoDkRj7DpnbOnfBYoA0bgV1jllS/80UOyHxth1TtnSvw5QH6I+RH34RIj68DaoD1Efoj6sDOpD1IdN7wr14ez5Da9Hffg4qA+nWeGblhszhIADDjjggAMOOOCAAw444AyPszFxCDTQQAMNNNBAAw000EADzTg0byMsAQcccMABBxxwwAEHHHDA6X8e6sNfn7dVH/5Vefh3X77+x//5w7/8+OWPf/6r/PAff/uvX373n798/v/7h/MwEsT9CBLE/cskiF9/etorYTLl7E05B1PO0ZRzMuWcTTkXU87VlDOzC0hBrkaHq9Lh6nS4Sh2uVoer1uHqdbiKHa5mF1ezi+2udjW7uJpdmpq9XNo3i+rX9Akx6SfUr+ITYtJz36/bE2LSM9+v1BNi0vMuaPOUHFOP8zUmyPCUHFOV8x0mKO6UHFOb8wUmiOuUe9DU53x7CTo6JcfU53x19UvmZjGCVk7JST8eQR2n5KTHXdDDKTnpcRcUcEpOetwVzZsU5Gp0vsEUeZsU5Cp1vsQUJZsU5Op1vscU0Zp0M7qana8yRZ8mBbmanW8zpGhDSNH4Z/6Zf+af+Wf+mX/mn/ln/pl/5p/5Z/6Zf+af+ect/fNfPn76ry8///zj7778w29u/0NVfOyQ4j+8E6T40yDFbxqk+EjxGwYp/udBiv95kOI3DlJ8pPi/OkjxwQEHHHDAAQcccMABBxxwwBlBKQkNNNBAAw000EADDTTQQDMOzduoLMEBBxxwwAEHHHDAAQcccPqf998gxf+/P/7hyx//9ONPf/z3L3/6E0r8bSnxf/r53374f7///Y+//fHLH3/7l0mE/1oF/v3Vn/7l8f/+9t//+p9T+v2/TP/xLz/97i+3//zXP//h3//mf/x/sjajug=="
               },
               {
                  "name" : "annual_peak_electric_demand",
                  "units" : "kW",
                  "value" : 267.11321000000004
               },
               {
                  "name" : "first_year_capital_cost",
                  "units" : "$",
                  "value" : 0
               },
               {
                  "name" : "annual_utility_cost",
                  "units" : "$",
                  "value" : 44046.559999999998
               },
               {
                  "name" : "total_lifecycle_cost",
                  "units" : "$",
                  "value" : 737445.64000000001
               }
            ],
            "step_warnings" : [ "A table in Annual Overview section returned false and was skipped." ]
         }
      }
   ],
   "updated_at" : "20170710T185622Z",
   "weather_file" : "USA_CO_Denver.Intl.AP.725650_TMY3.epw"
}
