{
   "completed_at" : "20170710T185942Z",
   "completed_status" : "Success",
   "created_at" : "2017-07-10 18:57:04 +0000",
   "current_step" : 5,
   "description" : "",
   "eplusout_err" : "Program Version,EnergyPlus, Version 8.7.0-78a111df4a, YMD=2017.07.10 18:58,IDD_Version 8.7.0\n   ************* IDF Context for following error/warning message:\n   ************* Note -- lines truncated at 300 characters, if necessary...\n   *************      5 Building,\n   ************* indicated Name=NECB 2011-RetailStripmall-NECB HDD Method-CAN_PQ_Roberval.717280_CWEC.epw created: 2017-07-10 18:57:09 +0000\n   ************* Only last 1 lines before error line shown.....\n   *************      6   NECB 2011-RetailStripmall-NECB HDD Method-CAN_PQ_Roberval.717280_CWEC.epw created: 2017-07-10 18:57:09 +0000, !- Name\n   ** Warning ** IP: IDF line~6 Alpha Argument length exceeds maximum, will be truncated=  NECB 2011-RetailStripmall-NECB HDD Method-CAN_PQ_Roberval.717280_CWEC.epw created: 2017-07-10 18:57:09 +000\n   **   ~~~   ** Will be processed as Alpha=NECB 2011-RETAILSTRIPMALL-NECB HDD METHOD-CAN_PQ_ROBERVAL.717280_CWEC.EPW CREATED: 2017-07-10 18:57:09 +0000\n   ************* Beginning Zone Sizing Calculations\n   ** Warning ** ProcessScheduleInput: Schedule:Day:Interval=\"ECONOMIZER MAX OA FRACTION 100 PCT DEFAULT\", Blank Schedule Type Limits Name input -- will not be validated.\n   ** Warning ** ProcessScheduleInput: Schedule:Day:Interval=\"SCHEDULE DAY 1\", Blank Schedule Type Limits Name input -- will not be validated.\n   ** Warning ** ProcessScheduleInput: Schedule:Day:Interval=\"SCHEDULE DAY 10\", Blank Schedule Type Limits Name input -- will not be validated.\n   ** Warning ** ProcessScheduleInput: Schedule:Day:Interval=\"SCHEDULE DAY 11\", Blank Schedule Type Limits Name input -- will not be validated.\n   ** Warning ** ProcessScheduleInput: Schedule:Day:Interval=\"SCHEDULE DAY 12\", Blank Schedule Type Limits Name input -- will not be validated.\n   ** Warning ** ProcessScheduleInput: Schedule:Day:Interval=\"SCHEDULE DAY 13\", Blank Schedule Type Limits Name input -- will not be validated.\n   ** Warning ** ProcessScheduleInput: Schedule:Day:Interval=\"SCHEDULE DAY 14\", Blank Schedule Type Limits Name input -- will not be validated.\n   ** Warning ** ProcessScheduleInput: Schedule:Day:Interval=\"SCHEDULE DAY 15\", Blank Schedule Type Limits Name input -- will not be validated.\n   ** Warning ** ProcessScheduleInput: Schedule:Day:Interval=\"SCHEDULE DAY 16\", Blank Schedule Type Limits Name input -- will not be validated.\n   ** Warning ** ProcessScheduleInput: Schedule:Day:Interval=\"SCHEDULE DAY 17\", Blank Schedule Type Limits Name input -- will not be validated.\n   ** Warning ** ProcessScheduleInput: Schedule:Day:Interval=\"SCHEDULE DAY 18\", Blank Schedule Type Limits Name input -- will not be validated.\n   ** Warning ** ProcessScheduleInput: Schedule:Day:Interval=\"SCHEDULE DAY 19\", Blank Schedule Type Limits Name input -- will not be validated.\n   ** Warning ** ProcessScheduleInput: Schedule:Day:Interval=\"SCHEDULE DAY 2\", Blank Schedule Type Limits Name input -- will not be validated.\n   ** Warning ** ProcessScheduleInput: Schedule:Day:Interval=\"SCHEDULE DAY 20\", Blank Schedule Type Limits Name input -- will not be validated.\n   ** Warning ** ProcessScheduleInput: Schedule:Day:Interval=\"SCHEDULE DAY 21\", Blank Schedule Type Limits Name input -- will not be validated.\n   ** Warning ** ProcessScheduleInput: Schedule:Day:Interval=\"SCHEDULE DAY 22\", Blank Schedule Type Limits Name input -- will not be validated.\n   ** Warning ** ProcessScheduleInput: Schedule:Day:Interval=\"SCHEDULE DAY 23\", Blank Schedule Type Limits Name input -- will not be validated.\n   ** Warning ** ProcessScheduleInput: Schedule:Day:Interval=\"SCHEDULE DAY 24\", Blank Schedule Type Limits Name input -- will not be validated.\n   ** Warning ** ProcessScheduleInput: Schedule:Day:Interval=\"SCHEDULE DAY 25\", Blank Schedule Type Limits Name input -- will not be validated.\n   ** Warning ** ProcessScheduleInput: Schedule:Day:Interval=\"SCHEDULE DAY 26\", Blank Schedule Type Limits Name input -- will not be validated.\n   ** Warning ** ProcessScheduleInput: Schedule:Day:Interval=\"SCHEDULE DAY 27\", Blank Schedule Type Limits Name input -- will not be validated.\n   ** Warning ** ProcessScheduleInput: Schedule:Day:Interval=\"SCHEDULE DAY 28\", Blank Schedule Type Limits Name input -- will not be validated.\n   ** Warning ** ProcessScheduleInput: Schedule:Day:Interval=\"SCHEDULE DAY 29\", Blank Schedule Type Limits Name input -- will not be validated.\n   ** Warning ** ProcessScheduleInput: Schedule:Day:Interval=\"SCHEDULE DAY 30\", Blank Schedule Type Limits Name input -- will not be validated.\n   ** Warning ** ProcessScheduleInput: Schedule:Day:Interval=\"SCHEDULE DAY 31\", Blank Schedule Type Limits Name input -- will not be validated.\n   ** Warning ** ProcessScheduleInput: Schedule:Day:Interval=\"SCHEDULE DAY 32\", Blank Schedule Type Limits Name input -- will not be validated.\n   ** Warning ** ProcessScheduleInput: Schedule:Day:Interval=\"SCHEDULE DAY 33\", Blank Schedule Type Limits Name input -- will not be validated.\n   ** Warning ** ProcessScheduleInput: Schedule:Day:Interval=\"SCHEDULE DAY 34\", Blank Schedule Type Limits Name input -- will not be validated.\n   ** Warning ** ProcessScheduleInput: Schedule:Day:Interval=\"SCHEDULE DAY 35\", Blank Schedule Type Limits Name input -- will not be validated.\n   ** Warning ** ProcessScheduleInput: Schedule:Day:Interval=\"SCHEDULE DAY 36\", Blank Schedule Type Limits Name input -- will not be validated.\n   ** Warning ** ProcessScheduleInput: Schedule:Day:Interval=\"SCHEDULE DAY 37\", Blank Schedule Type Limits Name input -- will not be validated.\n   ** Warning ** ProcessScheduleInput: Schedule:Day:Interval=\"SCHEDULE DAY 38\", Blank Schedule Type Limits Name input -- will not be validated.\n   ** Warning ** ProcessScheduleInput: Schedule:Day:Interval=\"SCHEDULE DAY 39\", Blank Schedule Type Limits Name input -- will not be validated.\n   ** Warning ** ProcessScheduleInput: Schedule:Day:Interval=\"SCHEDULE DAY 40\", Blank Schedule Type Limits Name input -- will not be validated.\n   ** Warning ** ProcessScheduleInput: Schedule:Day:Interval=\"SCHEDULE DAY 41\", Blank Schedule Type Limits Name input -- will not be validated.\n   ** Warning ** ProcessScheduleInput: Schedule:Day:Interval=\"SCHEDULE DAY 42\", Blank Schedule Type Limits Name input -- will not be validated.\n   ** Warning ** ProcessScheduleInput: Schedule:Day:Interval=\"SCHEDULE DAY 43\", Blank Schedule Type Limits Name input -- will not be validated.\n   ** Warning ** ProcessScheduleInput: Schedule:Day:Interval=\"SCHEDULE DAY 44\", Blank Schedule Type Limits Name input -- will not be validated.\n   ** Warning ** ProcessScheduleInput: Schedule:Day:Interval=\"SCHEDULE DAY 45\", Blank Schedule Type Limits Name input -- will not be validated.\n   ** Warning ** ProcessScheduleInput: Schedule:Day:Interval=\"SCHEDULE DAY 46\", Blank Schedule Type Limits Name input -- will not be validated.\n   ** Warning ** ProcessScheduleInput: Schedule:Day:Interval=\"SCHEDULE DAY 47\", Blank Schedule Type Limits Name input -- will not be validated.\n   ** Warning ** ProcessScheduleInput: Schedule:Day:Interval=\"SCHEDULE DAY 48\", Blank Schedule Type Limits Name input -- will not be validated.\n   ** Warning ** ProcessScheduleInput: Schedule:Day:Interval=\"SCHEDULE DAY 49\", Blank Schedule Type Limits Name input -- will not be validated.\n   ** Warning ** ProcessScheduleInput: Schedule:Day:Interval=\"SCHEDULE DAY 5\", Blank Schedule Type Limits Name input -- will not be validated.\n   ** Warning ** ProcessScheduleInput: Schedule:Day:Interval=\"SCHEDULE DAY 50\", Blank Schedule Type Limits Name input -- will not be validated.\n   ** Warning ** ProcessScheduleInput: Schedule:Day:Interval=\"SCHEDULE DAY 51\", Blank Schedule Type Limits Name input -- will not be validated.\n   ** Warning ** ProcessScheduleInput: Schedule:Day:Interval=\"SCHEDULE DAY 52\", Blank Schedule Type Limits Name input -- will not be validated.\n   ** Warning ** ProcessScheduleInput: Schedule:Day:Interval=\"SCHEDULE DAY 53\", Blank Schedule Type Limits Name input -- will not be validated.\n   ** Warning ** ProcessScheduleInput: Schedule:Day:Interval=\"SCHEDULE DAY 54\", Blank Schedule Type Limits Name input -- will not be validated.\n   ** Warning ** ProcessScheduleInput: Schedule:Day:Interval=\"SCHEDULE DAY 6\", Blank Schedule Type Limits Name input -- will not be validated.\n   ** Warning ** ProcessScheduleInput: Schedule:Day:Interval=\"SCHEDULE DAY 7\", Blank Schedule Type Limits Name input -- will not be validated.\n   ** Warning ** ProcessScheduleInput: Schedule:Day:Interval=\"SCHEDULE DAY 8\", Blank Schedule Type Limits Name input -- will not be validated.\n   ** Warning ** ProcessScheduleInput: Schedule:Day:Interval=\"SCHEDULE DAY 9\", Blank Schedule Type Limits Name input -- will not be validated.\n   ** Warning ** ProcessScheduleInput: Schedule:Year=\"ECONOMIZER MAX OA FRACTION 100 PCT\", Blank Schedule Type Limits Name input -- will not be validated.\n   ** Warning ** ProcessScheduleInput: Schedule:Year=\"SCHEDULE RULESET 10\", Blank Schedule Type Limits Name input -- will not be validated.\n   ** Warning ** ProcessScheduleInput: Schedule:Year=\"SCHEDULE RULESET 11\", Blank Schedule Type Limits Name input -- will not be validated.\n   ** Warning ** ProcessScheduleInput: Schedule:Year=\"SCHEDULE RULESET 12\", Blank Schedule Type Limits Name input -- will not be validated.\n   ** Warning ** ProcessScheduleInput: Schedule:Year=\"SCHEDULE RULESET 13\", Blank Schedule Type Limits Name input -- will not be validated.\n   ** Warning ** ProcessScheduleInput: Schedule:Year=\"SCHEDULE RULESET 14\", Blank Schedule Type Limits Name input -- will not be validated.\n   ** Warning ** ProcessScheduleInput: Schedule:Year=\"SCHEDULE RULESET 15\", Blank Schedule Type Limits Name input -- will not be validated.\n   ** Warning ** ProcessScheduleInput: Schedule:Year=\"SCHEDULE RULESET 16\", Blank Schedule Type Limits Name input -- will not be validated.\n   ** Warning ** ProcessScheduleInput: Schedule:Year=\"SCHEDULE RULESET 17\", Blank Schedule Type Limits Name input -- will not be validated.\n   ** Warning ** ProcessScheduleInput: Schedule:Year=\"SCHEDULE RULESET 18\", Blank Schedule Type Limits Name input -- will not be validated.\n   ** Warning ** ProcessScheduleInput: Schedule:Year=\"SCHEDULE RULESET 19\", Blank Schedule Type Limits Name input -- will not be validated.\n   ** Warning ** ProcessScheduleInput: Schedule:Year=\"SCHEDULE RULESET 20\", Blank Schedule Type Limits Name input -- will not be validated.\n   ** Warning ** ProcessScheduleInput: Schedule:Year=\"SCHEDULE RULESET 21\", Blank Schedule Type Limits Name input -- will not be validated.\n   ** Warning ** ProcessScheduleInput: Schedule:Year=\"SCHEDULE RULESET 22\", Blank Schedule Type Limits Name input -- will not be validated.\n   ** Warning ** ProcessScheduleInput: Schedule:Year=\"SCHEDULE RULESET 23\", Blank Schedule Type Limits Name input -- will not be validated.\n   ** Warning ** ProcessScheduleInput: Schedule:Year=\"SCHEDULE RULESET 24\", Blank Schedule Type Limits Name input -- will not be validated.\n   ** Warning ** ProcessScheduleInput: Schedule:Year=\"SCHEDULE RULESET 25\", Blank Schedule Type Limits Name input -- will not be validated.\n   ** Warning ** ProcessScheduleInput: Schedule:Year=\"SCHEDULE RULESET 26\", Blank Schedule Type Limits Name input -- will not be validated.\n   ** Warning ** ProcessScheduleInput: Schedule:Year=\"SCHEDULE RULESET 27\", Blank Schedule Type Limits Name input -- will not be validated.\n   ** Warning ** ProcessScheduleInput: Schedule:Year=\"SCHEDULE RULESET 28\", Blank Schedule Type Limits Name input -- will not be validated.\n   ** Warning ** ProcessScheduleInput: Schedule:Year=\"SCHEDULE RULESET 29\", Blank Schedule Type Limits Name input -- will not be validated.\n   ** Warning ** ProcessScheduleInput: Schedule:Year=\"SCHEDULE RULESET 3\", Blank Schedule Type Limits Name input -- will not be validated.\n   ** Warning ** ProcessScheduleInput: Schedule:Year=\"SCHEDULE RULESET 30\", Blank Schedule Type Limits Name input -- will not be validated.\n   ** Warning ** ProcessScheduleInput: Schedule:Year=\"SCHEDULE RULESET 31\", Blank Schedule Type Limits Name input -- will not be validated.\n   ** Warning ** ProcessScheduleInput: Schedule:Year=\"SCHEDULE RULESET 32\", Blank Schedule Type Limits Name input -- will not be validated.\n   ** Warning ** ProcessScheduleInput: Schedule:Year=\"SCHEDULE RULESET 4\", Blank Schedule Type Limits Name input -- will not be validated.\n   ** Warning ** ProcessScheduleInput: Schedule:Year=\"SCHEDULE RULESET 5\", Blank Schedule Type Limits Name input -- will not be validated.\n   ** Warning ** ProcessScheduleInput: Schedule:Year=\"SCHEDULE RULESET 6\", Blank Schedule Type Limits Name input -- will not be validated.\n   ** Warning ** ProcessScheduleInput: Schedule:Year=\"SCHEDULE RULESET 7\", Blank Schedule Type Limits Name input -- will not be validated.\n   ** Warning ** ProcessScheduleInput: Schedule:Year=\"SCHEDULE RULESET 8\", Blank Schedule Type Limits Name input -- will not be validated.\n   ** Warning ** ProcessScheduleInput: Schedule:Year=\"SCHEDULE RULESET 9\", Blank Schedule Type Limits Name input -- will not be validated.\n   ** Warning ** ProcessScheduleInput: Schedule:Constant=\"ALWAYS OFF DISCRETE\", Blank Schedule Type Limits Name input -- will not be validated.\n   ** Warning ** ProcessScheduleInput: Schedule:Constant=\"ALWAYS ON CONTINUOUS\", Blank Schedule Type Limits Name input -- will not be validated.\n   ** Warning ** CheckUsedConstructions: There are 24 nominally unused constructions in input.\n   **   ~~~   ** For explicit details on each unused construction, use Output:Diagnostics,DisplayExtraWarnings;\n   ************* Beginning System Sizing Calculations\n   ************* Beginning Plant Sizing Calculations\n   ** Warning ** GetDXCoils: Coil:Cooling:DX:SingleSpeed=\"COIL COOLING DX SINGLE SPEED 10 69KBTU/HR 9.7EER\", invalid\n   **   ~~~   ** ...Part Load Fraction Correlation Curve Name = DXCOOL-NECB2011-REF-COOLPLFFPLR 1 has out of range value.\n   **   ~~~   ** ...Curve maximum must be <= 1.0, curve max at PLR = 0.99 is 1.015\n   **   ~~~   ** ...Setting curve maximum to 1.0 and simulation continues.\n   ** Warning ** GetDXCoils: Coil:Cooling:DX:SingleSpeed=\"COIL COOLING DX SINGLE SPEED 1 68KBTU/HR 9.7EER\", invalid\n   **   ~~~   ** ...Part Load Fraction Correlation Curve Name = DXCOOL-NECB2011-REF-COOLPLFFPLR has out of range value.\n   **   ~~~   ** ...Curve maximum must be <= 1.0, curve max at PLR = 0.99 is 1.015\n   **   ~~~   ** ...Setting curve maximum to 1.0 and simulation continues.\n   ** Warning ** GetDXCoils: Coil:Cooling:DX:SingleSpeed=\"COIL COOLING DX SINGLE SPEED 3 35KBTU/HR 14.0SEER\", invalid\n   **   ~~~   ** ...Part Load Fraction Correlation Curve Name = DXCOOL-NECB2011-REF-COOLPLFFPLR 3 has out of range value.\n   **   ~~~   ** ...Curve maximum must be <= 1.0, curve max at PLR = 0.99 is 1.015\n   **   ~~~   ** ...Setting curve maximum to 1.0 and simulation continues.\n   ** Warning ** GetDXCoils: Coil:Cooling:DX:SingleSpeed=\"COIL COOLING DX SINGLE SPEED 2 35KBTU/HR 14.0SEER\", invalid\n   **   ~~~   ** ...Part Load Fraction Correlation Curve Name = DXCOOL-NECB2011-REF-COOLPLFFPLR 2 has out of range value.\n   **   ~~~   ** ...Curve maximum must be <= 1.0, curve max at PLR = 0.99 is 1.015\n   **   ~~~   ** ...Setting curve maximum to 1.0 and simulation continues.\n   ** Warning ** GetDXCoils: Coil:Cooling:DX:SingleSpeed=\"COIL COOLING DX SINGLE SPEED 6 35KBTU/HR 14.0SEER\", invalid\n   **   ~~~   ** ...Part Load Fraction Correlation Curve Name = DXCOOL-NECB2011-REF-COOLPLFFPLR 6 has out of range value.\n   **   ~~~   ** ...Curve maximum must be <= 1.0, curve max at PLR = 0.99 is 1.015\n   **   ~~~   ** ...Setting curve maximum to 1.0 and simulation continues.\n   ** Warning ** GetDXCoils: Coil:Cooling:DX:SingleSpeed=\"COIL COOLING DX SINGLE SPEED 8 35KBTU/HR 14.0SEER\", invalid\n   **   ~~~   ** ...Part Load Fraction Correlation Curve Name = DXCOOL-NECB2011-REF-COOLPLFFPLR 8 has out of range value.\n   **   ~~~   ** ...Curve maximum must be <= 1.0, curve max at PLR = 0.99 is 1.015\n   **   ~~~   ** ...Setting curve maximum to 1.0 and simulation continues.\n   ** Warning ** GetDXCoils: Coil:Cooling:DX:SingleSpeed=\"COIL COOLING DX SINGLE SPEED 7 35KBTU/HR 14.0SEER\", invalid\n   **   ~~~   ** ...Part Load Fraction Correlation Curve Name = DXCOOL-NECB2011-REF-COOLPLFFPLR 7 has out of range value.\n   **   ~~~   ** ...Curve maximum must be <= 1.0, curve max at PLR = 0.99 is 1.015\n   **   ~~~   ** ...Setting curve maximum to 1.0 and simulation continues.\n   ** Warning ** GetDXCoils: Coil:Cooling:DX:SingleSpeed=\"COIL COOLING DX SINGLE SPEED 5 35KBTU/HR 14.0SEER\", invalid\n   **   ~~~   ** ...Part Load Fraction Correlation Curve Name = DXCOOL-NECB2011-REF-COOLPLFFPLR 5 has out of range value.\n   **   ~~~   ** ...Curve maximum must be <= 1.0, curve max at PLR = 0.99 is 1.015\n   **   ~~~   ** ...Setting curve maximum to 1.0 and simulation continues.\n   ** Warning ** GetDXCoils: Coil:Cooling:DX:SingleSpeed=\"COIL COOLING DX SINGLE SPEED 4 35KBTU/HR 14.0SEER\", invalid\n   **   ~~~   ** ...Part Load Fraction Correlation Curve Name = DXCOOL-NECB2011-REF-COOLPLFFPLR 4 has out of range value.\n   **   ~~~   ** ...Curve maximum must be <= 1.0, curve max at PLR = 0.99 is 1.015\n   **   ~~~   ** ...Setting curve maximum to 1.0 and simulation continues.\n   ** Warning ** GetDXCoils: Coil:Cooling:DX:SingleSpeed=\"COIL COOLING DX SINGLE SPEED 9 36KBTU/HR 14.0SEER\", invalid\n   **   ~~~   ** ...Part Load Fraction Correlation Curve Name = DXCOOL-NECB2011-REF-COOLPLFFPLR 9 has out of range value.\n   **   ~~~   ** ...Curve maximum must be <= 1.0, curve max at PLR = 0.99 is 1.015\n   **   ~~~   ** ...Setting curve maximum to 1.0 and simulation continues.\n   ** Warning ** The Standard Ratings is calculated for Coil:Cooling:DX:SingleSpeed = COIL COOLING DX SINGLE SPEED 10 69KBTU/HR 9.7EER but not at the AHRI test condition due to curve out of bound.\n   **   ~~~   **  Review the Standard Ratings calculations in the Engineering Reference for this coil type. Also, use Output:Diagnostics, DisplayExtraWarnings for further guidance.\n   ** Warning ** The Standard Ratings is calculated for Coil:Cooling:DX:SingleSpeed = COIL COOLING DX SINGLE SPEED 1 68KBTU/HR 9.7EER but not at the AHRI test condition due to curve out of bound.\n   **   ~~~   **  Review the Standard Ratings calculations in the Engineering Reference for this coil type. Also, use Output:Diagnostics, DisplayExtraWarnings for further guidance.\n   ** Warning ** The Standard Ratings is calculated for Coil:Cooling:DX:SingleSpeed = COIL COOLING DX SINGLE SPEED 3 35KBTU/HR 14.0SEER but not at the AHRI test condition due to curve out of bound.\n   **   ~~~   **  Review the Standard Ratings calculations in the Engineering Reference for this coil type. Also, use Output:Diagnostics, DisplayExtraWarnings for further guidance.\n   ** Warning ** The Standard Ratings is calculated for Coil:Cooling:DX:SingleSpeed = COIL COOLING DX SINGLE SPEED 2 35KBTU/HR 14.0SEER but not at the AHRI test condition due to curve out of bound.\n   **   ~~~   **  Review the Standard Ratings calculations in the Engineering Reference for this coil type. Also, use Output:Diagnostics, DisplayExtraWarnings for further guidance.\n   ** Warning ** The Standard Ratings is calculated for Coil:Cooling:DX:SingleSpeed = COIL COOLING DX SINGLE SPEED 6 35KBTU/HR 14.0SEER but not at the AHRI test condition due to curve out of bound.\n   **   ~~~   **  Review the Standard Ratings calculations in the Engineering Reference for this coil type. Also, use Output:Diagnostics, DisplayExtraWarnings for further guidance.\n   ** Warning ** The Standard Ratings is calculated for Coil:Cooling:DX:SingleSpeed = COIL COOLING DX SINGLE SPEED 8 35KBTU/HR 14.0SEER but not at the AHRI test condition due to curve out of bound.\n   **   ~~~   **  Review the Standard Ratings calculations in the Engineering Reference for this coil type. Also, use Output:Diagnostics, DisplayExtraWarnings for further guidance.\n   ** Warning ** The Standard Ratings is calculated for Coil:Cooling:DX:SingleSpeed = COIL COOLING DX SINGLE SPEED 7 35KBTU/HR 14.0SEER but not at the AHRI test condition due to curve out of bound.\n   **   ~~~   **  Review the Standard Ratings calculations in the Engineering Reference for this coil type. Also, use Output:Diagnostics, DisplayExtraWarnings for further guidance.\n   ** Warning ** The Standard Ratings is calculated for Coil:Cooling:DX:SingleSpeed = COIL COOLING DX SINGLE SPEED 5 35KBTU/HR 14.0SEER but not at the AHRI test condition due to curve out of bound.\n   **   ~~~   **  Review the Standard Ratings calculations in the Engineering Reference for this coil type. Also, use Output:Diagnostics, DisplayExtraWarnings for further guidance.\n   ** Warning ** The Standard Ratings is calculated for Coil:Cooling:DX:SingleSpeed = COIL COOLING DX SINGLE SPEED 4 35KBTU/HR 14.0SEER but not at the AHRI test condition due to curve out of bound.\n   **   ~~~   **  Review the Standard Ratings calculations in the Engineering Reference for this coil type. Also, use Output:Diagnostics, DisplayExtraWarnings for further guidance.\n   ** Warning ** The Standard Ratings is calculated for Coil:Cooling:DX:SingleSpeed = COIL COOLING DX SINGLE SPEED 9 36KBTU/HR 14.0SEER but not at the AHRI test condition due to curve out of bound.\n   **   ~~~   **  Review the Standard Ratings calculations in the Engineering Reference for this coil type. Also, use Output:Diagnostics, DisplayExtraWarnings for further guidance.\n   ** Warning ** Check input. Pump nominal power or motor efficiency is set to 0, for pump=SERVICE WATER LOOP PUMP\n   ** Warning ** Output:Meter: invalid Name=\"GAS:FACILITY\" - not found.\n   ** Warning ** Output:Meter: invalid Name=\"DISTRICTCOOLING:FACILITY\" - not found.\n   ** Warning ** Output:Meter: invalid Name=\"DISTRICTHEATING:FACILITY\" - not found.\n   ** Warning ** Output:Meter:MeterFileOnly: invalid Name=\"GAS:FACILITY\" - not found.\n   ** Warning ** Output:Meter:MeterFileOnly requested for \"Electricity:Facility\" (TimeStep), already on \"Output:Meter\". Will report to both eplusout.eso and eplusout.mtr\n   ************* Testing Individual Branch Integrity\n   ************* All Branches passed integrity testing\n   ************* Testing Individual Supply Air Path Integrity\n   ************* All Supply Air Paths passed integrity testing\n   ************* Testing Individual Return Air Path Integrity\n   ************* All Return Air Paths passed integrity testing\n   ************* No node connection errors were found.\n   ************* Beginning Simulation\n   ** Warning ** CalcDoe2DXCoil: Coil:Cooling:DX:SingleSpeed \"COIL COOLING DX SINGLE SPEED 1 68KBTU/HR 9.7EER\" - Air-cooled condenser inlet dry-bulb temperature below 0 C. Outdoor dry-bulb temperature = -13.30\n   **   ~~~   **  ... Occurrence info = RUN PERIOD 1, 01/01 09:02 - 09:05\n   **   ~~~   ** ... Operation at low ambient temperatures may require special performance curves.\n   ** Warning ** CalcDoe2DXCoil: Coil:Cooling:DX:SingleSpeed \"COIL COOLING DX SINGLE SPEED 3 35KBTU/HR 14.0SEER\" - Air-cooled condenser inlet dry-bulb temperature below 0 C. Outdoor dry-bulb temperature = -13.30\n   **   ~~~   **  ... Occurrence info = RUN PERIOD 1, 01/01 09:02 - 09:05\n   **   ~~~   ** ... Operation at low ambient temperatures may require special performance curves.\n   ** Warning ** CalcDoe2DXCoil: Coil:Cooling:DX:SingleSpeed \"COIL COOLING DX SINGLE SPEED 2 35KBTU/HR 14.0SEER\" - Air-cooled condenser inlet dry-bulb temperature below 0 C. Outdoor dry-bulb temperature = -13.30\n   **   ~~~   **  ... Occurrence info = RUN PERIOD 1, 01/01 09:02 - 09:05\n   **   ~~~   ** ... Operation at low ambient temperatures may require special performance curves.\n   ** Warning ** CalcDoe2DXCoil: Coil:Cooling:DX:SingleSpeed \"COIL COOLING DX SINGLE SPEED 6 35KBTU/HR 14.0SEER\" - Air-cooled condenser inlet dry-bulb temperature below 0 C. Outdoor dry-bulb temperature = -13.30\n   **   ~~~   **  ... Occurrence info = RUN PERIOD 1, 01/01 09:02 - 09:05\n   **   ~~~   ** ... Operation at low ambient temperatures may require special performance curves.\n   ** Warning ** CalcDoe2DXCoil: Coil:Cooling:DX:SingleSpeed \"COIL COOLING DX SINGLE SPEED 8 35KBTU/HR 14.0SEER\" - Air-cooled condenser inlet dry-bulb temperature below 0 C. Outdoor dry-bulb temperature = -13.30\n   **   ~~~   **  ... Occurrence info = RUN PERIOD 1, 01/01 09:02 - 09:05\n   **   ~~~   ** ... Operation at low ambient temperatures may require special performance curves.\n   ** Warning ** CalcDoe2DXCoil: Coil:Cooling:DX:SingleSpeed \"COIL COOLING DX SINGLE SPEED 7 35KBTU/HR 14.0SEER\" - Air-cooled condenser inlet dry-bulb temperature below 0 C. Outdoor dry-bulb temperature = -13.30\n   **   ~~~   **  ... Occurrence info = RUN PERIOD 1, 01/01 09:02 - 09:05\n   **   ~~~   ** ... Operation at low ambient temperatures may require special performance curves.\n   ** Warning ** CalcDoe2DXCoil: Coil:Cooling:DX:SingleSpeed \"COIL COOLING DX SINGLE SPEED 5 35KBTU/HR 14.0SEER\" - Air-cooled condenser inlet dry-bulb temperature below 0 C. Outdoor dry-bulb temperature = -13.30\n   **   ~~~   **  ... Occurrence info = RUN PERIOD 1, 01/01 09:02 - 09:05\n   **   ~~~   ** ... Operation at low ambient temperatures may require special performance curves.\n   ** Warning ** CalcDoe2DXCoil: Coil:Cooling:DX:SingleSpeed \"COIL COOLING DX SINGLE SPEED 4 35KBTU/HR 14.0SEER\" - Air-cooled condenser inlet dry-bulb temperature below 0 C. Outdoor dry-bulb temperature = -13.30\n   **   ~~~   **  ... Occurrence info = RUN PERIOD 1, 01/01 09:02 - 09:05\n   **   ~~~   ** ... Operation at low ambient temperatures may require special performance curves.\n   ** Warning ** CalcDoe2DXCoil: Coil:Cooling:DX:SingleSpeed \"COIL COOLING DX SINGLE SPEED 9 36KBTU/HR 14.0SEER\" - Air-cooled condenser inlet dry-bulb temperature below 0 C. Outdoor dry-bulb temperature = -13.30\n   **   ~~~   **  ... Occurrence info = RUN PERIOD 1, 01/01 09:02 - 09:05\n   **   ~~~   ** ... Operation at low ambient temperatures may require special performance curves.\n   ** Warning ** CalcDoe2DXCoil: Coil:Cooling:DX:SingleSpeed \"COIL COOLING DX SINGLE SPEED 3 35KBTU/HR 14.0SEER\" - Full load outlet air dry-bulb temperature < 2C. This indicates the possibility of coil frost/freeze. Outlet temperature = -2.51 C.\n   **   ~~~   **  ...Occurrence info = RUN PERIOD 1, 03/09 12:45 - 13:00\n   **   ~~~   ** ... Possible reasons for low outlet air dry-bulb temperatures are: This DX coil\n   **   ~~~   **    1) may have a low inlet air dry-bulb temperature. Inlet air temperature = 13.184 C.\n   **   ~~~   **    2) may have a low air flow rate per watt of cooling capacity. Check inputs.\n   **   ~~~   **    3) is used as part of a HX assisted cooling coil which uses a high sensible effectiveness. Check inputs.\n   ** Warning ** CalcDoe2DXCoil: Coil:Cooling:DX:SingleSpeed \"COIL COOLING DX SINGLE SPEED 8 35KBTU/HR 14.0SEER\" - Full load outlet air dry-bulb temperature < 2C. This indicates the possibility of coil frost/freeze. Outlet temperature = -2.55 C.\n   **   ~~~   **  ...Occurrence info = RUN PERIOD 1, 03/09 12:45 - 13:00\n   **   ~~~   ** ... Possible reasons for low outlet air dry-bulb temperatures are: This DX coil\n   **   ~~~   **    1) may have a low inlet air dry-bulb temperature. Inlet air temperature = 13.157 C.\n   **   ~~~   **    2) may have a low air flow rate per watt of cooling capacity. Check inputs.\n   **   ~~~   **    3) is used as part of a HX assisted cooling coil which uses a high sensible effectiveness. Check inputs.\n   ** Warning ** CalcDoe2DXCoil: Coil:Cooling:DX:SingleSpeed \"COIL COOLING DX SINGLE SPEED 7 35KBTU/HR 14.0SEER\" - Full load outlet air dry-bulb temperature < 2C. This indicates the possibility of coil frost/freeze. Outlet temperature = -2.55 C.\n   **   ~~~   **  ...Occurrence info = RUN PERIOD 1, 03/09 12:45 - 13:00\n   **   ~~~   ** ... Possible reasons for low outlet air dry-bulb temperatures are: This DX coil\n   **   ~~~   **    1) may have a low inlet air dry-bulb temperature. Inlet air temperature = 13.157 C.\n   **   ~~~   **    2) may have a low air flow rate per watt of cooling capacity. Check inputs.\n   **   ~~~   **    3) is used as part of a HX assisted cooling coil which uses a high sensible effectiveness. Check inputs.\n   ** Warning ** CalcDoe2DXCoil: Coil:Cooling:DX:SingleSpeed \"COIL COOLING DX SINGLE SPEED 2 35KBTU/HR 14.0SEER\" - Full load outlet air dry-bulb temperature < 2C. This indicates the possibility of coil frost/freeze. Outlet temperature = -2.74 C.\n   **   ~~~   **  ...Occurrence info = RUN PERIOD 1, 03/09 13:00 - 13:15\n   **   ~~~   ** ... Possible reasons for low outlet air dry-bulb temperatures are: This DX coil\n   **   ~~~   **    1) may have a low inlet air dry-bulb temperature. Inlet air temperature = 13.023 C.\n   **   ~~~   **    2) may have a low air flow rate per watt of cooling capacity. Check inputs.\n   **   ~~~   **    3) is used as part of a HX assisted cooling coil which uses a high sensible effectiveness. Check inputs.\n   ** Warning ** CalcDoe2DXCoil: Coil:Cooling:DX:SingleSpeed \"COIL COOLING DX SINGLE SPEED 6 35KBTU/HR 14.0SEER\" - Full load outlet air dry-bulb temperature < 2C. This indicates the possibility of coil frost/freeze. Outlet temperature = -2.75 C.\n   **   ~~~   **  ...Occurrence info = RUN PERIOD 1, 03/09 13:00 - 13:15\n   **   ~~~   ** ... Possible reasons for low outlet air dry-bulb temperatures are: This DX coil\n   **   ~~~   **    1) may have a low inlet air dry-bulb temperature. Inlet air temperature = 13.020 C.\n   **   ~~~   **    2) may have a low air flow rate per watt of cooling capacity. Check inputs.\n   **   ~~~   **    3) is used as part of a HX assisted cooling coil which uses a high sensible effectiveness. Check inputs.\n   ** Warning ** CalcDoe2DXCoil: Coil:Cooling:DX:SingleSpeed \"COIL COOLING DX SINGLE SPEED 5 35KBTU/HR 14.0SEER\" - Full load outlet air dry-bulb temperature < 2C. This indicates the possibility of coil frost/freeze. Outlet temperature = -2.75 C.\n   **   ~~~   **  ...Occurrence info = RUN PERIOD 1, 03/09 13:00 - 13:15\n   **   ~~~   ** ... Possible reasons for low outlet air dry-bulb temperatures are: This DX coil\n   **   ~~~   **    1) may have a low inlet air dry-bulb temperature. Inlet air temperature = 13.020 C.\n   **   ~~~   **    2) may have a low air flow rate per watt of cooling capacity. Check inputs.\n   **   ~~~   **    3) is used as part of a HX assisted cooling coil which uses a high sensible effectiveness. Check inputs.\n   ** Warning ** CalcDoe2DXCoil: Coil:Cooling:DX:SingleSpeed \"COIL COOLING DX SINGLE SPEED 1 68KBTU/HR 9.7EER\" - Full load outlet air dry-bulb temperature < 2C. This indicates the possibility of coil frost/freeze. Outlet temperature = 0.13 C.\n   **   ~~~   **  ...Occurrence info = RUN PERIOD 1, 03/11 11:08 - 11:15\n   **   ~~~   ** ... Possible reasons for low outlet air dry-bulb temperatures are: This DX coil\n   **   ~~~   **    1) may have a low inlet air dry-bulb temperature. Inlet air temperature = 15.987 C.\n   **   ~~~   **    2) may have a low air flow rate per watt of cooling capacity. Check inputs.\n   **   ~~~   **    3) is used as part of a HX assisted cooling coil which uses a high sensible effectiveness. Check inputs.\n   ** Warning ** CalcDoe2DXCoil: Coil:Cooling:DX:SingleSpeed \"COIL COOLING DX SINGLE SPEED 4 35KBTU/HR 14.0SEER\" - Full load outlet air dry-bulb temperature < 2C. This indicates the possibility of coil frost/freeze. Outlet temperature = 0.37 C.\n   **   ~~~   **  ...Occurrence info = RUN PERIOD 1, 03/11 11:08 - 11:15\n   **   ~~~   ** ... Possible reasons for low outlet air dry-bulb temperatures are: This DX coil\n   **   ~~~   **    1) may have a low inlet air dry-bulb temperature. Inlet air temperature = 16.103 C.\n   **   ~~~   **    2) may have a low air flow rate per watt of cooling capacity. Check inputs.\n   **   ~~~   **    3) is used as part of a HX assisted cooling coil which uses a high sensible effectiveness. Check inputs.\n   ** Warning ** CalcDoe2DXCoil: Coil:Cooling:DX:SingleSpeed \"COIL COOLING DX SINGLE SPEED 9 36KBTU/HR 14.0SEER\" - Full load outlet air dry-bulb temperature < 2C. This indicates the possibility of coil frost/freeze. Outlet temperature = 0.58 C.\n   **   ~~~   **  ...Occurrence info = RUN PERIOD 1, 03/11 11:23 - 11:30\n   **   ~~~   ** ... Possible reasons for low outlet air dry-bulb temperatures are: This DX coil\n   **   ~~~   **    1) may have a low inlet air dry-bulb temperature. Inlet air temperature = 16.293 C.\n   **   ~~~   **    2) may have a low air flow rate per watt of cooling capacity. Check inputs.\n   **   ~~~   **    3) is used as part of a HX assisted cooling coil which uses a high sensible effectiveness. Check inputs.\n   ** Warning ** CalcDoe2DXCoil: Coil:Cooling:DX:SingleSpeed \"COIL COOLING DX SINGLE SPEED 10 69KBTU/HR 9.7EER\" - Full load outlet air dry-bulb temperature < 2C. This indicates the possibility of coil frost/freeze. Outlet temperature = 0.50 C.\n   **   ~~~   **  ...Occurrence info = RUN PERIOD 1, 04/29 10:30 - 10:45\n   **   ~~~   ** ... Possible reasons for low outlet air dry-bulb temperatures are: This DX coil\n   **   ~~~   **    1) may have a low inlet air dry-bulb temperature. Inlet air temperature = 16.275 C.\n   **   ~~~   **    2) may have a low air flow rate per watt of cooling capacity. Check inputs.\n   **   ~~~   **    3) is used as part of a HX assisted cooling coil which uses a high sensible effectiveness. Check inputs.\n   ************* Simulation Error Summary *************\n   ************* There are 9 unused schedules in input.\n   ************* There are 9 unused week schedules in input.\n   ************* There are 32 unused day schedules in input.\n   ************* Use Output:Diagnostics,DisplayUnusedSchedules; to see them.\n   *************\n   ************* ===== Recurring Error Summary =====\n   ************* The following recurring error messages occurred.\n   *************\n   *************  ** Warning ** CalcDoe2DXCoil: Coil:Cooling:DX:SingleSpeed=\"COIL COOLING DX SINGLE SPEED 1 68KBTU/HR 9.7EER\" - Low condenser dry-bulb temperature error continues...\n   *************  **   ~~~   **   This error occurred 191 total times;\n   *************  **   ~~~   **   during Warmup 0 times;\n   *************  **   ~~~   **   during Sizing 0 times.\n   *************  **   ~~~   **   Max=-0.125 [C]  Min=-28.75 [C]\n   *************\n   *************  ** Warning ** CalcDoe2DXCoil: Coil:Cooling:DX:SingleSpeed=\"COIL COOLING DX SINGLE SPEED 3 35KBTU/HR 14.0SEER\" - Low condenser dry-bulb temperature error continues...\n   *************  **   ~~~   **   This error occurred 214 total times;\n   *************  **   ~~~   **   during Warmup 0 times;\n   *************  **   ~~~   **   during Sizing 0 times.\n   *************  **   ~~~   **   Max=-0.125 [C]  Min=-33.475 [C]\n   *************\n   *************  ** Warning ** CalcDoe2DXCoil: Coil:Cooling:DX:SingleSpeed=\"COIL COOLING DX SINGLE SPEED 2 35KBTU/HR 14.0SEER\" - Low condenser dry-bulb temperature error continues...\n   *************  **   ~~~   **   This error occurred 199 total times;\n   *************  **   ~~~   **   during Warmup 0 times;\n   *************  **   ~~~   **   during Sizing 0 times.\n   *************  **   ~~~   **   Max=-0.125 [C]  Min=-31.575 [C]\n   *************\n   *************  ** Warning ** CalcDoe2DXCoil: Coil:Cooling:DX:SingleSpeed=\"COIL COOLING DX SINGLE SPEED 6 35KBTU/HR 14.0SEER\" - Low condenser dry-bulb temperature error continues...\n   *************  **   ~~~   **   This error occurred 197 total times;\n   *************  **   ~~~   **   during Warmup 0 times;\n   *************  **   ~~~   **   during Sizing 0 times.\n   *************  **   ~~~   **   Max=-0.125 [C]  Min=-31.575 [C]\n   *************\n   *************  ** Warning ** CalcDoe2DXCoil: Coil:Cooling:DX:SingleSpeed=\"COIL COOLING DX SINGLE SPEED 8 35KBTU/HR 14.0SEER\" - Low condenser dry-bulb temperature error continues...\n   *************  **   ~~~   **   This error occurred 215 total times;\n   *************  **   ~~~   **   during Warmup 0 times;\n   *************  **   ~~~   **   during Sizing 0 times.\n   *************  **   ~~~   **   Max=-0.125 [C]  Min=-33.475 [C]\n   *************\n   *************  ** Warning ** CalcDoe2DXCoil: Coil:Cooling:DX:SingleSpeed=\"COIL COOLING DX SINGLE SPEED 7 35KBTU/HR 14.0SEER\" - Low condenser dry-bulb temperature error continues...\n   *************  **   ~~~   **   This error occurred 215 total times;\n   *************  **   ~~~   **   during Warmup 0 times;\n   *************  **   ~~~   **   during Sizing 0 times.\n   *************  **   ~~~   **   Max=-0.125 [C]  Min=-33.475 [C]\n   *************\n   *************  ** Warning ** CalcDoe2DXCoil: Coil:Cooling:DX:SingleSpeed=\"COIL COOLING DX SINGLE SPEED 5 35KBTU/HR 14.0SEER\" - Low condenser dry-bulb temperature error continues...\n   *************  **   ~~~   **   This error occurred 197 total times;\n   *************  **   ~~~   **   during Warmup 0 times;\n   *************  **   ~~~   **   during Sizing 0 times.\n   *************  **   ~~~   **   Max=-0.125 [C]  Min=-31.575 [C]\n   *************\n   *************  ** Warning ** CalcDoe2DXCoil: Coil:Cooling:DX:SingleSpeed=\"COIL COOLING DX SINGLE SPEED 4 35KBTU/HR 14.0SEER\" - Low condenser dry-bulb temperature error continues...\n   *************  **   ~~~   **   This error occurred 197 total times;\n   *************  **   ~~~   **   during Warmup 0 times;\n   *************  **   ~~~   **   during Sizing 0 times.\n   *************  **   ~~~   **   Max=-0.125 [C]  Min=-31.575 [C]\n   *************\n   *************  ** Warning ** CalcDoe2DXCoil: Coil:Cooling:DX:SingleSpeed=\"COIL COOLING DX SINGLE SPEED 9 36KBTU/HR 14.0SEER\" - Low condenser dry-bulb temperature error continues...\n   *************  **   ~~~   **   This error occurred 185 total times;\n   *************  **   ~~~   **   during Warmup 0 times;\n   *************  **   ~~~   **   during Sizing 0 times.\n   *************  **   ~~~   **   Max=-0.125 [C]  Min=-31.575 [C]\n   *************\n   *************  ** Warning ** CalcDoe2DXCoil: Coil:Cooling:DX:SingleSpeed=\"COIL COOLING DX SINGLE SPEED 3 35KBTU/HR 14.0SEER\" - Full load outlet temperature indicates a possibility of frost/freeze error continues. Outlet air temperature statistics follow:\n   *************  **   ~~~   **   This error occurred 214 total times;\n   *************  **   ~~~   **   during Warmup 0 times;\n   *************  **   ~~~   **   during Sizing 0 times.\n   *************  **   ~~~   **   Max=1.997642  Min=-2.511229\n   *************\n   *************  ** Warning ** CalcDoe2DXCoil: Coil:Cooling:DX:SingleSpeed=\"COIL COOLING DX SINGLE SPEED 8 35KBTU/HR 14.0SEER\" - Full load outlet temperature indicates a possibility of frost/freeze error continues. Outlet air temperature statistics follow:\n   *************  **   ~~~   **   This error occurred 225 total times;\n   *************  **   ~~~   **   during Warmup 0 times;\n   *************  **   ~~~   **   during Sizing 0 times.\n   *************  **   ~~~   **   Max=1.983416  Min=-2.550019\n   *************\n   *************  ** Warning ** CalcDoe2DXCoil: Coil:Cooling:DX:SingleSpeed=\"COIL COOLING DX SINGLE SPEED 7 35KBTU/HR 14.0SEER\" - Full load outlet temperature indicates a possibility of frost/freeze error continues. Outlet air temperature statistics follow:\n   *************  **   ~~~   **   This error occurred 225 total times;\n   *************  **   ~~~   **   during Warmup 0 times;\n   *************  **   ~~~   **   during Sizing 0 times.\n   *************  **   ~~~   **   Max=1.983433  Min=-2.549522\n   *************\n   *************  ** Warning ** CalcDoe2DXCoil: Coil:Cooling:DX:SingleSpeed=\"COIL COOLING DX SINGLE SPEED 2 35KBTU/HR 14.0SEER\" - Full load outlet temperature indicates a possibility of frost/freeze error continues. Outlet air temperature statistics follow:\n   *************  **   ~~~   **   This error occurred 226 total times;\n   *************  **   ~~~   **   during Warmup 0 times;\n   *************  **   ~~~   **   during Sizing 0 times.\n   *************  **   ~~~   **   Max=1.996985  Min=-2.744565\n   *************\n   *************  ** Warning ** CalcDoe2DXCoil: Coil:Cooling:DX:SingleSpeed=\"COIL COOLING DX SINGLE SPEED 6 35KBTU/HR 14.0SEER\" - Full load outlet temperature indicates a possibility of frost/freeze error continues. Outlet air temperature statistics follow:\n   *************  **   ~~~   **   This error occurred 227 total times;\n   *************  **   ~~~   **   during Warmup 0 times;\n   *************  **   ~~~   **   during Sizing 0 times.\n   *************  **   ~~~   **   Max=1.993623  Min=-2.748969\n   *************\n   *************  ** Warning ** CalcDoe2DXCoil: Coil:Cooling:DX:SingleSpeed=\"COIL COOLING DX SINGLE SPEED 5 35KBTU/HR 14.0SEER\" - Full load outlet temperature indicates a possibility of frost/freeze error continues. Outlet air temperature statistics follow:\n   *************  **   ~~~   **   This error occurred 225 total times;\n   *************  **   ~~~   **   during Warmup 0 times;\n   *************  **   ~~~   **   during Sizing 0 times.\n   *************  **   ~~~   **   Max=1.995286  Min=-2.747914\n   *************\n   *************  ** Warning ** CalcDoe2DXCoil: Coil:Cooling:DX:SingleSpeed=\"COIL COOLING DX SINGLE SPEED 1 68KBTU/HR 9.7EER\" - Full load outlet temperature indicates a possibility of frost/freeze error continues. Outlet air temperature statistics follow:\n   *************  **   ~~~   **   This error occurred 293 total times;\n   *************  **   ~~~   **   during Warmup 0 times;\n   *************  **   ~~~   **   during Sizing 0 times.\n   *************  **   ~~~   **   Max=1.994424  Min=-3.76358\n   *************\n   *************  ** Warning ** CalcDoe2DXCoil: Coil:Cooling:DX:SingleSpeed=\"COIL COOLING DX SINGLE SPEED 4 35KBTU/HR 14.0SEER\" - Full load outlet temperature indicates a possibility of frost/freeze error continues. Outlet air temperature statistics follow:\n   *************  **   ~~~   **   This error occurred 213 total times;\n   *************  **   ~~~   **   during Warmup 0 times;\n   *************  **   ~~~   **   during Sizing 0 times.\n   *************  **   ~~~   **   Max=1.997206  Min=-2.526112\n   *************\n   *************  ** Warning ** CalcDoe2DXCoil: Coil:Cooling:DX:SingleSpeed=\"COIL COOLING DX SINGLE SPEED 9 36KBTU/HR 14.0SEER\" - Full load outlet temperature indicates a possibility of frost/freeze error continues. Outlet air temperature statistics follow:\n   *************  **   ~~~   **   This error occurred 143 total times;\n   *************  **   ~~~   **   during Warmup 0 times;\n   *************  **   ~~~   **   during Sizing 0 times.\n   *************  **   ~~~   **   Max=1.99472  Min=-1.795121\n   *************\n   *************  ** Warning ** CalcDoe2DXCoil: Coil:Cooling:DX:SingleSpeed=\"COIL COOLING DX SINGLE SPEED 10 69KBTU/HR 9.7EER\" - Full load outlet temperature indicates a possibility of frost/freeze error continues. Outlet air temperature statistics follow:\n   *************  **   ~~~   **   This error occurred 26 total times;\n   *************  **   ~~~   **   during Warmup 0 times;\n   *************  **   ~~~   **   during Sizing 0 times.\n   *************  **   ~~~   **   Max=1.994447  Min=0.498844\n   *************\n   *************\n   ************* ===== Final Error Summary =====\n   ************* The following error categories occurred.  Consider correcting or noting.\n   ************* Nominally Unused Constructions\n   ************* ..The nominally unused constructions warning is provided to alert you to potential conditions that can cause\n   ************* ..extra time during simulation. Each construction is calculated by the algorithm indicated in the HeatBalanceAlgorithm\n   ************* ..object. You may remove the constructions indicated (when you use the DisplayExtraWarnings option).\n   *************\n   ************* EnergyPlus Warmup Error Summary. During Warmup: 0 Warning; 0 Severe Errors.\n   ************* EnergyPlus Sizing Error Summary. During Sizing: 87 Warning; 0 Severe Errors.\n   ************* EnergyPlus Completed Successfully-- 3941 Warning; 0 Severe Errors; Elapsed Time=00hr 00min 51.76sec\n",
   "file_format_version" : "0.0.1",
   "file_paths" : [ "../weather", "../seeds", "../seed" ],
   "hash" : "B8061300",
   "measure_paths" : [ "../measures" ],
   "name" : "LHS Autogenerated 538",
   "osa_id" : "4fef0e0f-5396-4c55-a6e1-2cd6803db3ab",
   "osd_id" : "1a045668-898c-49b9-a352-ce9070fb6f49",
   "run_directory" : "./run",
   "seed_file" : "seed.osm",
   "started_at" : "20170710T185707Z",
   "steps" : [
      {
         "arguments" : {
            "__SKIP__" : false,
            "building_type" : "RetailStripmall",
            "climate_zone" : "NECB HDD Method",
            "epw_file" : "CAN_PQ_Roberval.717280_CWEC.epw",
            "template" : "NECB 2011"
         },
         "measure_dir_name" : "create_prototype_building",
         "name" : "create_prototype_building",
         "result" : {
            "completed_at" : "20170710T185813Z",
            "measure_class_name" : "CreatePrototypeBuilding",
            "measure_display_name" : "Create Prototype Building",
            "measure_name" : "create_prototype_building",
            "measure_taxonomy" : "Whole Building.Space Types",
            "measure_type" : "ModelMeasure",
            "measure_uid" : "ae90fsd7-a651-467a-bc8d-29d310b0f937",
            "measure_version_id" : "c6ec5c18-5595-459f-a082-09a19c8c869c",
            "measure_version_modified" : "20170519T182315Z",
            "measure_xml_checksum" : "057E8D9D",
            "started_at" : "20170710T185709Z",
            "stderr" : "",
            "stdout" : "[OpenStudio.Measure] <0> OSArgumentVector is deprecated, use OpenStudio::Measure::OSArgumentVector instead.\n[openstudio.EpwFile] <0> Successive data points (1977-Jan-31 to 1961-Feb-01, ending on line 753) are greater than 1 day apart in EPW file '/usr/local/bundle/bundler/gems/openstudio-standards-f448df66933d/openstudio-standards/data/weather/CAN_PQ_Roberval.717280_CWEC.epw'. Data will be treated as typical (TMY)\n[openstudio.setFileExtension] <0> Path p, '/usr/local/bundle/bundler/gems/openstudio-standards-f448df66933d/openstudio-standards/data/weather/CAN_PQ_Roberval.717280_CWEC.ddy', has an unexpected file extension. Was expecting 'idf'.\n[openstudio.model.YearDescription] <1> 'UseWeatherFile' is not yet a supported option for YearDescription\n[openstudio.model.YearDescription] <1> 'UseWeatherFile' is not yet a supported option for YearDescription\n[openstudio.setFileExtension] <0> Path p, '/usr/local/bundle/bundler/gems/openstudio-standards-f448df66933d/openstudio-standards/data/weather/CAN_PQ_Roberval.717280_CWEC.ddy', has an unexpected file extension. Was expecting 'idf'.\n[openstudio.model.YearDescription] <1> 'UseWeatherFile' is not yet a supported option for YearDescription\n[openstudio.model.YearDescription] <1> 'UseWeatherFile' is not yet a supported option for YearDescription\n[openstudio.EpwFile] <0> Successive data points (1977-Jan-31 to 1961-Feb-01, ending on line 753) are greater than 1 day apart in EPW file '/usr/local/bundle/bundler/gems/openstudio-standards-f448df66933d/openstudio-standards/data/weather/CAN_PQ_Roberval.717280_CWEC.epw'. Data will be treated as typical (TMY)\n[openstudio.weather.Model] <0> Could not find ground temperatures; will use generic temperatures, which will skew results.\n[openstudio.setFileExtension] <0> Path p, '/usr/local/bundle/bundler/gems/openstudio-standards-f448df66933d/openstudio-standards/data/weather/CAN_PQ_Roberval.717280_CWEC.ddy', has an unexpected file extension. Was expecting 'idf'.\n[openstudio.model.YearDescription] <1> 'UseWeatherFile' is not yet a supported option for YearDescription\n[openstudio.model.YearDescription] <1> 'UseWeatherFile' is not yet a supported option for YearDescription\n[openstudio.EpwFile] <0> Successive data points (1977-Jan-31 to 1961-Feb-01, ending on line 753) are greater than 1 day apart in EPW file '/usr/local/bundle/bundler/gems/openstudio-standards-f448df66933d/openstudio-standards/data/weather/CAN_PQ_Roberval.717280_CWEC.epw'. Data will be treated as typical (TMY)\n[openstudio.setFileExtension] <0> Path p, '/usr/local/bundle/bundler/gems/openstudio-standards-f448df66933d/openstudio-standards/data/weather/CAN_PQ_Roberval.717280_CWEC.ddy', has an unexpected file extension. Was expecting 'idf'.\n[openstudio.model.YearDescription] <1> 'UseWeatherFile' is not yet a supported option for YearDescription\n[openstudio.model.YearDescription] <1> 'UseWeatherFile' is not yet a supported option for YearDescription\n[openstudio.setFileExtension] <0> Path p, '/usr/local/bundle/bundler/gems/openstudio-standards-f448df66933d/openstudio-standards/data/weather/CAN_PQ_Roberval.717280_CWEC.ddy', has an unexpected file extension. Was expecting 'idf'.\n[openstudio.model.YearDescription] <1> 'UseWeatherFile' is not yet a supported option for YearDescription\n[openstudio.model.YearDescription] <1> 'UseWeatherFile' is not yet a supported option for YearDescription\n[openstudio.EpwFile] <0> Successive data points (1977-Jan-31 to 1961-Feb-01, ending on line 753) are greater than 1 day apart in EPW file '/usr/local/bundle/bundler/gems/openstudio-standards-f448df66933d/openstudio-standards/data/weather/CAN_PQ_Roberval.717280_CWEC.epw'. Data will be treated as typical (TMY)\n[openstudio.setFileExtension] <0> Path p, '/usr/local/bundle/bundler/gems/openstudio-standards-f448df66933d/openstudio-standards/data/weather/CAN_PQ_Roberval.717280_CWEC.ddy', has an unexpected file extension. Was expecting 'idf'.\n[openstudio.model.YearDescription] <1> 'UseWeatherFile' is not yet a supported option for YearDescription\n[openstudio.model.YearDescription] <1> 'UseWeatherFile' is not yet a supported option for YearDescription\n[openstudio.setFileExtension] <0> Path p, '/usr/local/bundle/bundler/gems/openstudio-standards-f448df66933d/openstudio-standards/data/weather/CAN_PQ_Roberval.717280_CWEC.ddy', has an unexpected file extension. Was expecting 'idf'.\n[openstudio.model.YearDescription] <1> 'UseWeatherFile' is not yet a supported option for YearDescription\n[openstudio.model.YearDescription] <1> 'UseWeatherFile' is not yet a supported option for YearDescription\n[utilities.idf.WorkspaceObject] <0> Object of type 'Schedule:Constant' and named 'Always Off Discrete', points to an object named OnOff 1 from field 1, but that object cannot be located.\n[utilities.idf.WorkspaceObject] <0> Object of type 'Schedule:Constant' and named 'Always On Continuous', points to an object named Fractional 1 from field 1, but that object cannot be located.\n[utilities.idf.WorkspaceObject] <0> Object of type 'Schedule:Constant' and named 'Always Off Discrete', points to an object named OnOff 1 from field 1, but that object cannot be located.\n[utilities.idf.WorkspaceObject] <0> Object of type 'Schedule:Constant' and named 'Always On Continuous', points to an object named Fractional 1 from field 1, but that object cannot be located.\n[openstudio.standards.Fan] <0> For Fan Constant Volume 1, there is no greater nominal HP.  Use the efficiency of the largest motor category.\n[openstudio.standards.Fan] <0> For Fan Constant Volume 10, there is no greater nominal HP.  Use the efficiency of the largest motor category.\n[openstudio.standards.Fan] <0> For Fan Constant Volume 2, there is no greater nominal HP.  Use the efficiency of the largest motor category.\n[openstudio.standards.Fan] <0> For Fan Constant Volume 3, there is no greater nominal HP.  Use the efficiency of the largest motor category.\n[openstudio.standards.Fan] <0> For Fan Constant Volume 4, there is no greater nominal HP.  Use the efficiency of the largest motor category.\n[openstudio.standards.Fan] <0> For Fan Constant Volume 5, there is no greater nominal HP.  Use the efficiency of the largest motor category.\n[openstudio.standards.Fan] <0> For Fan Constant Volume 6, there is no greater nominal HP.  Use the efficiency of the largest motor category.\n[openstudio.standards.Fan] <0> For Fan Constant Volume 7, there is no greater nominal HP.  Use the efficiency of the largest motor category.\n[openstudio.standards.Fan] <0> For Fan Constant Volume 8, there is no greater nominal HP.  Use the efficiency of the largest motor category.\n[openstudio.standards.Fan] <0> For Fan Constant Volume 9, there is no greater nominal HP.  Use the efficiency of the largest motor category.\n[openstudio.EpwFile] <0> Successive data points (1977-Jan-31 to 1961-Feb-01, ending on line 753) are greater than 1 day apart in EPW file '/usr/local/bundle/bundler/gems/openstudio-standards-f448df66933d/openstudio-standards/data/weather/CAN_PQ_Roberval.717280_CWEC.epw'. Data will be treated as typical (TMY)\n[openstudio.setFileExtension] <0> Path p, '/usr/local/bundle/bundler/gems/openstudio-standards-f448df66933d/openstudio-standards/data/weather/CAN_PQ_Roberval.717280_CWEC.ddy', has an unexpected file extension. Was expecting 'idf'.\n[openstudio.model.YearDescription] <1> 'UseWeatherFile' is not yet a supported option for YearDescription\n[openstudio.model.YearDescription] <1> 'UseWeatherFile' is not yet a supported option for YearDescription\n[openstudio.setFileExtension] <0> Path p, '/usr/local/bundle/bundler/gems/openstudio-standards-f448df66933d/openstudio-standards/data/weather/CAN_PQ_Roberval.717280_CWEC.ddy', has an unexpected file extension. Was expecting 'idf'.\n[openstudio.model.YearDescription] <1> 'UseWeatherFile' is not yet a supported option for YearDescription\n[openstudio.model.YearDescription] <1> 'UseWeatherFile' is not yet a supported option for YearDescription\n[openstudio.EpwFile] <0> Successive data points (1977-Jan-31 to 1961-Feb-01, ending on line 753) are greater than 1 day apart in EPW file '/usr/local/bundle/bundler/gems/openstudio-standards-f448df66933d/openstudio-standards/data/weather/CAN_PQ_Roberval.717280_CWEC.epw'. Data will be treated as typical (TMY)\n[openstudio.setFileExtension] <0> Path p, '/usr/local/bundle/bundler/gems/openstudio-standards-f448df66933d/openstudio-standards/data/weather/CAN_PQ_Roberval.717280_CWEC.ddy', has an unexpected file extension. Was expecting 'idf'.\n[openstudio.model.YearDescription] <1> 'UseWeatherFile' is not yet a supported option for YearDescription\n[openstudio.model.YearDescription] <1> 'UseWeatherFile' is not yet a supported option for YearDescription\n[openstudio.setFileExtension] <0> Path p, '/usr/local/bundle/bundler/gems/openstudio-standards-f448df66933d/openstudio-standards/data/weather/CAN_PQ_Roberval.717280_CWEC.ddy', has an unexpected file extension. Was expecting 'idf'.\n[openstudio.model.YearDescription] <1> 'UseWeatherFile' is not yet a supported option for YearDescription\n[openstudio.model.YearDescription] <1> 'UseWeatherFile' is not yet a supported option for YearDescription\n[openstudio.EpwFile] <0> Successive data points (1977-Jan-31 to 1961-Feb-01, ending on line 753) are greater than 1 day apart in EPW file '/usr/local/bundle/bundler/gems/openstudio-standards-f448df66933d/openstudio-standards/data/weather/CAN_PQ_Roberval.717280_CWEC.epw'. Data will be treated as typical (TMY)\n[openstudio.setFileExtension] <0> Path p, '/usr/local/bundle/bundler/gems/openstudio-standards-f448df66933d/openstudio-standards/data/weather/CAN_PQ_Roberval.717280_CWEC.ddy', has an unexpected file extension. Was expecting 'idf'.\n[openstudio.model.YearDescription] <1> 'UseWeatherFile' is not yet a supported option for YearDescription\n[openstudio.model.YearDescription] <1> 'UseWeatherFile' is not yet a supported option for YearDescription\n[openstudio.setFileExtension] <0> Path p, '/usr/local/bundle/bundler/gems/openstudio-standards-f448df66933d/openstudio-standards/data/weather/CAN_PQ_Roberval.717280_CWEC.ddy', has an unexpected file extension. Was expecting 'idf'.\n[openstudio.model.YearDescription] <1> 'UseWeatherFile' is not yet a supported option for YearDescription\n[openstudio.model.YearDescription] <1> 'UseWeatherFile' is not yet a supported option for YearDescription\n[openstudio.EpwFile] <0> Successive data points (1977-Jan-31 to 1961-Feb-01, ending on line 753) are greater than 1 day apart in EPW file '/usr/local/bundle/bundler/gems/openstudio-standards-f448df66933d/openstudio-standards/data/weather/CAN_PQ_Roberval.717280_CWEC.epw'. Data will be treated as typical (TMY)\n[openstudio.setFileExtension] <0> Path p, '/usr/local/bundle/bundler/gems/openstudio-standards-f448df66933d/openstudio-standards/data/weather/CAN_PQ_Roberval.717280_CWEC.ddy', has an unexpected file extension. Was expecting 'idf'.\n[openstudio.model.YearDescription] <1> 'UseWeatherFile' is not yet a supported option for YearDescription\n[openstudio.model.YearDescription] <1> 'UseWeatherFile' is not yet a supported option for YearDescription\n[openstudio.setFileExtension] <0> Path p, '/usr/local/bundle/bundler/gems/openstudio-standards-f448df66933d/openstudio-standards/data/weather/CAN_PQ_Roberval.717280_CWEC.ddy', has an unexpected file extension. Was expecting 'idf'.\n[openstudio.model.YearDescription] <1> 'UseWeatherFile' is not yet a supported option for YearDescription\n[openstudio.model.YearDescription] <1> 'UseWeatherFile' is not yet a supported option for YearDescription\n[openstudio.EpwFile] <0> Successive data points (1977-Jan-31 to 1961-Feb-01, ending on line 753) are greater than 1 day apart in EPW file '/usr/local/bundle/bundler/gems/openstudio-standards-f448df66933d/openstudio-standards/data/weather/CAN_PQ_Roberval.717280_CWEC.epw'. Data will be treated as typical (TMY)\n[openstudio.setFileExtension] <0> Path p, '/usr/local/bundle/bundler/gems/openstudio-standards-f448df66933d/openstudio-standards/data/weather/CAN_PQ_Roberval.717280_CWEC.ddy', has an unexpected file extension. Was expecting 'idf'.\n[openstudio.model.YearDescription] <1> 'UseWeatherFile' is not yet a supported option for YearDescription\n[openstudio.model.YearDescription] <1> 'UseWeatherFile' is not yet a supported option for YearDescription\n[openstudio.setFileExtension] <0> Path p, '/usr/local/bundle/bundler/gems/openstudio-standards-f448df66933d/openstudio-standards/data/weather/CAN_PQ_Roberval.717280_CWEC.ddy', has an unexpected file extension. Was expecting 'idf'.\n[openstudio.model.YearDescription] <1> 'UseWeatherFile' is not yet a supported option for YearDescription\n[openstudio.model.YearDescription] <1> 'UseWeatherFile' is not yet a supported option for YearDescription\n[openstudio.EpwFile] <0> Successive data points (1977-Jan-31 to 1961-Feb-01, ending on line 753) are greater than 1 day apart in EPW file '/usr/local/bundle/bundler/gems/openstudio-standards-f448df66933d/openstudio-standards/data/weather/CAN_PQ_Roberval.717280_CWEC.epw'. Data will be treated as typical (TMY)\n[openstudio.setFileExtension] <0> Path p, '/usr/local/bundle/bundler/gems/openstudio-standards-f448df66933d/openstudio-standards/data/weather/CAN_PQ_Roberval.717280_CWEC.ddy', has an unexpected file extension. Was expecting 'idf'.\n[openstudio.model.YearDescription] <1> 'UseWeatherFile' is not yet a supported option for YearDescription\n[openstudio.model.YearDescription] <1> 'UseWeatherFile' is not yet a supported option for YearDescription\n[openstudio.setFileExtension] <0> Path p, '/usr/local/bundle/bundler/gems/openstudio-standards-f448df66933d/openstudio-standards/data/weather/CAN_PQ_Roberval.717280_CWEC.ddy', has an unexpected file extension. Was expecting 'idf'.\n[openstudio.model.YearDescription] <1> 'UseWeatherFile' is not yet a supported option for YearDescription\n[openstudio.model.YearDescription] <1> 'UseWeatherFile' is not yet a supported option for YearDescription\n[openstudio.EpwFile] <0> Successive data points (1977-Jan-31 to 1961-Feb-01, ending on line 753) are greater than 1 day apart in EPW file '/usr/local/bundle/bundler/gems/openstudio-standards-f448df66933d/openstudio-standards/data/weather/CAN_PQ_Roberval.717280_CWEC.epw'. Data will be treated as typical (TMY)\n[openstudio.setFileExtension] <0> Path p, '/usr/local/bundle/bundler/gems/openstudio-standards-f448df66933d/openstudio-standards/data/weather/CAN_PQ_Roberval.717280_CWEC.ddy', has an unexpected file extension. Was expecting 'idf'.\n[openstudio.model.YearDescription] <1> 'UseWeatherFile' is not yet a supported option for YearDescription\n[openstudio.model.YearDescription] <1> 'UseWeatherFile' is not yet a supported option for YearDescription\n[openstudio.setFileExtension] <0> Path p, '/usr/local/bundle/bundler/gems/openstudio-standards-f448df66933d/openstudio-standards/data/weather/CAN_PQ_Roberval.717280_CWEC.ddy', has an unexpected file extension. Was expecting 'idf'.\n[openstudio.model.YearDescription] <1> 'UseWeatherFile' is not yet a supported option for YearDescription\n[openstudio.model.YearDescription] <1> 'UseWeatherFile' is not yet a supported option for YearDescription\n[openstudio.EpwFile] <0> Successive data points (1977-Jan-31 to 1961-Feb-01, ending on line 753) are greater than 1 day apart in EPW file '/usr/local/bundle/bundler/gems/openstudio-standards-f448df66933d/openstudio-standards/data/weather/CAN_PQ_Roberval.717280_CWEC.epw'. Data will be treated as typical (TMY)\n[openstudio.setFileExtension] <0> Path p, '/usr/local/bundle/bundler/gems/openstudio-standards-f448df66933d/openstudio-standards/data/weather/CAN_PQ_Roberval.717280_CWEC.ddy', has an unexpected file extension. Was expecting 'idf'.\n[openstudio.model.YearDescription] <1> 'UseWeatherFile' is not yet a supported option for YearDescription\n[openstudio.model.YearDescription] <1> 'UseWeatherFile' is not yet a supported option for YearDescription\n[openstudio.setFileExtension] <0> Path p, '/usr/local/bundle/bundler/gems/openstudio-standards-f448df66933d/openstudio-standards/data/weather/CAN_PQ_Roberval.717280_CWEC.ddy', has an unexpected file extension. Was expecting 'idf'.\n[openstudio.model.YearDescription] <1> 'UseWeatherFile' is not yet a supported option for YearDescription\n[openstudio.model.YearDescription] <1> 'UseWeatherFile' is not yet a supported option for YearDescription\n[openstudio.EpwFile] <0> Successive data points (1977-Jan-31 to 1961-Feb-01, ending on line 753) are greater than 1 day apart in EPW file '/usr/local/bundle/bundler/gems/openstudio-standards-f448df66933d/openstudio-standards/data/weather/CAN_PQ_Roberval.717280_CWEC.epw'. Data will be treated as typical (TMY)\n[openstudio.setFileExtension] <0> Path p, '/usr/local/bundle/bundler/gems/openstudio-standards-f448df66933d/openstudio-standards/data/weather/CAN_PQ_Roberval.717280_CWEC.ddy', has an unexpected file extension. Was expecting 'idf'.\n[openstudio.model.YearDescription] <1> 'UseWeatherFile' is not yet a supported option for YearDescription\n[openstudio.model.YearDescription] <1> 'UseWeatherFile' is not yet a supported option for YearDescription\n[openstudio.setFileExtension] <0> Path p, '/usr/local/bundle/bundler/gems/openstudio-standards-f448df66933d/openstudio-standards/data/weather/CAN_PQ_Roberval.717280_CWEC.ddy', has an unexpected file extension. Was expecting 'idf'.\n[openstudio.model.YearDescription] <1> 'UseWeatherFile' is not yet a supported option for YearDescription\n[openstudio.model.YearDescription] <1> 'UseWeatherFile' is not yet a supported option for YearDescription\n[openstudio.EpwFile] <0> Successive data points (1977-Jan-31 to 1961-Feb-01, ending on line 753) are greater than 1 day apart in EPW file '/usr/local/bundle/bundler/gems/openstudio-standards-f448df66933d/openstudio-standards/data/weather/CAN_PQ_Roberval.717280_CWEC.epw'. Data will be treated as typical (TMY)\n[openstudio.setFileExtension] <0> Path p, '/usr/local/bundle/bundler/gems/openstudio-standards-f448df66933d/openstudio-standards/data/weather/CAN_PQ_Roberval.717280_CWEC.ddy', has an unexpected file extension. Was expecting 'idf'.\n[openstudio.model.YearDescription] <1> 'UseWeatherFile' is not yet a supported option for YearDescription\n[openstudio.model.YearDescription] <1> 'UseWeatherFile' is not yet a supported option for YearDescription\n[openstudio.setFileExtension] <0> Path p, '/usr/local/bundle/bundler/gems/openstudio-standards-f448df66933d/openstudio-standards/data/weather/CAN_PQ_Roberval.717280_CWEC.ddy', has an unexpected file extension. Was expecting 'idf'.\n[openstudio.model.YearDescription] <1> 'UseWeatherFile' is not yet a supported option for YearDescription\n[openstudio.model.YearDescription] <1> 'UseWeatherFile' is not yet a supported option for YearDescription\n[openstudio.standards.Fan] <0> For Fan Constant Volume 1, there is no greater nominal HP.  Use the efficiency of the largest motor category.\n[openstudio.standards.Fan] <0> For Fan Constant Volume 10, there is no greater nominal HP.  Use the efficiency of the largest motor category.\n[openstudio.standards.Fan] <0> For Fan Constant Volume 2, there is no greater nominal HP.  Use the efficiency of the largest motor category.\n[openstudio.standards.Fan] <0> For Fan Constant Volume 3, there is no greater nominal HP.  Use the efficiency of the largest motor category.\n[openstudio.standards.Fan] <0> For Fan Constant Volume 4, there is no greater nominal HP.  Use the efficiency of the largest motor category.\n[openstudio.standards.Fan] <0> For Fan Constant Volume 5, there is no greater nominal HP.  Use the efficiency of the largest motor category.\n[openstudio.standards.Fan] <0> For Fan Constant Volume 6, there is no greater nominal HP.  Use the efficiency of the largest motor category.\n[openstudio.standards.Fan] <0> For Fan Constant Volume 7, there is no greater nominal HP.  Use the efficiency of the largest motor category.\n[openstudio.standards.Fan] <0> For Fan Constant Volume 8, there is no greater nominal HP.  Use the efficiency of the largest motor category.\n[openstudio.standards.Fan] <0> For Fan Constant Volume 9, there is no greater nominal HP.  Use the efficiency of the largest motor category.\n",
            "step_errors" : [],
            "step_files" : [],
            "step_info" : [
               "Started adding geometry",
               "Finished adding geometry",
               "Started adding weather file for climate zone: NECB HDD Method.",
               "Template =",
               "Setting LGstore1 to Space Function.Retail - sales",
               "Setting LGstore2 to Space Function.Retail - sales",
               "Setting SMstore1 to Space Function.Retail - sales",
               "Setting SMstore2 to Space Function.Retail - sales",
               "Setting SMstore3 to Space Function.Retail - sales",
               "Setting SMstore4 to Space Function.Retail - sales",
               "Setting SMstore5 to Space Function.Retail - sales",
               "Setting SMstore6 to Space Function.Retail - sales",
               "Setting SMstore7 to Space Function.Retail - sales",
               "Setting SMstore8 to Space Function.Retail - sales",
               "Started applying space types (loads)",
               "Space Function Retail - sales had no people, one has been created.",
               "Space Function Retail - sales set occupancy to 3.1 people/1000 ft^2.",
               "Space Function Retail - sales had no lights, one has been created.",
               "Space Function Retail - sales set LPD to 1.681531029 W/ft^2.",
               "Space Function Retail - sales had no electric equipment, one has been created.",
               "Space Function Retail - sales set electric EPD to 0.232255667 W/ft^2.",
               "Space Function Retail - sales had no ventilation specification, one has been created.",
               "Space Function Retail - sales set ventilation per area to 0.233 cfm/ft^2.",
               "Space Function Retail - sales had no infiltration objects, one has been created.",
               "Space Function Retail - sales set infiltration to 0.0 per ft^2 exterior surface area.",
               "Space Function Retail - sales set occupancy schedule to NECB-C-Occupancy.",
               "Space Function Retail - sales set occupant activity schedule to NECB-Activity.",
               "Space Function Retail - sales set lighting schedule to NECB-C-Lighting.",
               "Space Function Retail - sales set electric equipment schedule to NECB-C-Electric-Equipment.",
               "Space Function Retail - sales set infiltration schedule to Always On.",
               "Space Function Retail - sales set heating setpoint schedule to NECB-C-Thermostat Setpoint-Heating.",
               "Space Function Retail - sales set cooling setpoint schedule to NECB-C-Thermostat Setpoint-Cooling.",
               "Finished applying space types (loads)",
               "Started applying constructions",
               "Adding construction set: NECB 2011-NECB HDD Method-StripMall--is_residentialNo",
               "Adding construction Typical Insulated Exterior Mass Floor R-15.63.",
               "Adding construction Typical Insulated Exterior Mass Wall R-12.5.",
               "Adding construction Typical Insulated Metal Building Roof R-20.41.",
               "Adding construction Typical Interior Floor.",
               "Adding construction Typical Interior Wall.",
               "Adding construction Typical Interior Ceiling.",
               "Adding construction Typical Insulated Carpeted 6in Slab Floor.",
               "Adding construction U 0.55 SHGC 0.31 Dbl Ref-D Tint 6mm/6mm Air.",
               "Adding construction Typical Insulated Metal Door R-1.43.",
               "Adding construction U 0.35 SHGC 0.35 Dbl LoE (e2-.1) Tint 6mm/13mm Air.",
               "Adding construction Typical Overhead Door R-2.0.",
               "Adding construction U 0.48 SHGC 0.40 Dbl Ref-D Clr 6mm/13mm.",
               "Adding construction Typical Interior Window.",
               "Adding construction Typical Interior Door.",
               "Adding construction Typical Interior Partition.",
               "Finished applying constructions",
               "WWR NonRes = 0%; window = 0 ft2, wall = 0 ft2.",
               "WWR Res = 0%; window = 0 ft2, wall = 0 ft2.",
               "WWR Semiheated = 0%; window = 0 ft2, wall = 0 ft2.",
               "The skylight to roof ratios (SRRs) are: NonRes: 0%, Res: 0%.",
               "Started creating thermal zones",
               "Finished creating thermal zones",
               "Running simulation /mnt/openstudio/analysis_4fef0e0f-5396-4c55-a6e1-2cd6803db3ab/data_point_1a045668-898c-49b9-a352-ce9070fb6f49/run/000_create_prototype_building/output/RetailStripmall-NECB 2011-NECB HDD Method-CAN_PQ_Roberval.717280_CWEC.epw/SR0.",
               "Finished run.",
               "Started Adding HVAC",
               "Finished adding HVAC",
               "Started Adding Service Water Heating",
               "Adding service water loop.",
               "Adding water heater.",
               "Template =",
               "Finished adding Service Water Heating",
               "Set sizing factors to 1.3 for heating and 1.3 for cooling.",
               "Running simulation /mnt/openstudio/analysis_4fef0e0f-5396-4c55-a6e1-2cd6803db3ab/data_point_1a045668-898c-49b9-a352-ce9070fb6f49/run/000_create_prototype_building/output/RetailStripmall-NECB 2011-NECB HDD Method-CAN_PQ_Roberval.717280_CWEC.epw/SR1.",
               "Finished run.",
               "Started applying multizone vav OA sizing.",
               "Finished applying multizone vav OA sizing.",
               "Started applying prototype HVAC assumptions.",
               "For Fan Constant Volume 1: allowed_hp = 1.5HP; motor eff = 61.5%; total fan eff = 40% based on 2197 cfm.",
               "For Fan Constant Volume 10: allowed_hp = 1.53HP; motor eff = 61.5%; total fan eff = 40% based on 2241 cfm.",
               "For Fan Constant Volume 2: allowed_hp = 1.01HP; motor eff = 61.5%; total fan eff = 40% based on 1134 cfm.",
               "For Fan Constant Volume 3: allowed_hp = 1.01HP; motor eff = 61.5%; total fan eff = 40% based on 1157 cfm.",
               "For Fan Constant Volume 4: allowed_hp = 1.01HP; motor eff = 61.5%; total fan eff = 40% based on 1136 cfm.",
               "For Fan Constant Volume 5: allowed_hp = 1.01HP; motor eff = 61.5%; total fan eff = 40% based on 1134 cfm.",
               "For Fan Constant Volume 6: allowed_hp = 1.01HP; motor eff = 61.5%; total fan eff = 40% based on 1134 cfm.",
               "For Fan Constant Volume 7: allowed_hp = 1.01HP; motor eff = 61.5%; total fan eff = 40% based on 1154 cfm.",
               "For Fan Constant Volume 8: allowed_hp = 1.01HP; motor eff = 61.5%; total fan eff = 40% based on 1153 cfm.",
               "For Fan Constant Volume 9: allowed_hp = 1.01HP; motor eff = 61.5%; total fan eff = 40% based on 1174 cfm.",
               "Sp-SMstore4 Sys-3 Flr-1 Sch-C HPlcmt-north ZN NECB System 3 PSZ does not require an economizer because the total cooling capacity of 35104 Btu/hr is less than the minimum capacity of 68243 Btu/hr.",
               "Sp-SMstore3 Sys-3 Flr-1 Sch-C HPlcmt-north ZN NECB System 3 PSZ does not require an economizer because the total cooling capacity of 34641 Btu/hr is less than the minimum capacity of 68243 Btu/hr.",
               "Sp-SMstore1 Sys-3 Flr-1 Sch-C HPlcmt-north ZN NECB System 3 PSZ does not require an economizer because the total cooling capacity of 35189 Btu/hr is less than the minimum capacity of 68243 Btu/hr.",
               "Sp-SMstore5 Sys-3 Flr-1 Sch-C HPlcmt-north ZN NECB System 3 PSZ does not require an economizer because the total cooling capacity of 35105 Btu/hr is less than the minimum capacity of 68243 Btu/hr.",
               "Sp-SMstore8 Sys-3 Flr-1 Sch-C HPlcmt-east ZN NECB System 3 PSZ does not require an economizer because the total cooling capacity of 35811 Btu/hr is less than the minimum capacity of 68243 Btu/hr.",
               "Sp-LGstore1 Sys-3 Flr-1 Sch-C HPlcmt-west ZN NECB System 3 PSZ requires an economizer because the total cooling capacity of 68896 Btu/hr exceeds the minimum capacity of 68243 Btu/hr.",
               "Sp-SMstore2 Sys-3 Flr-1 Sch-C HPlcmt-north ZN NECB System 3 PSZ does not require an economizer because the total cooling capacity of 34651 Btu/hr is less than the minimum capacity of 68243 Btu/hr.",
               "Sp-SMstore7 Sys-3 Flr-1 Sch-C HPlcmt-north ZN NECB System 3 PSZ does not require an economizer because the total cooling capacity of 34692 Btu/hr is less than the minimum capacity of 68243 Btu/hr.",
               "Sp-LGstore2 Sys-3 Flr-1 Sch-C HPlcmt-north ZN NECB System 3 PSZ does not require an economizer because the total cooling capacity of 67642 Btu/hr is less than the minimum capacity of 68243 Btu/hr.",
               "Sp-SMstore6 Sys-3 Flr-1 Sch-C HPlcmt-north ZN NECB System 3 PSZ does not require an economizer because the total cooling capacity of 34647 Btu/hr is less than the minimum capacity of 68243 Btu/hr.",
               "Finished applying prototype HVAC assumptions.",
               "Started applying HVAC efficiency standards.",
               "For Sp-LGstore1 Sys-3 Flr-1 Sch-C HPlcmt-west ZN NECB System 3 PSZ, ERV not required based on 0% OA flow, design supply air flow of 2241cfm, and climate zone NECB HDD Method.",
               "For Sp-LGstore1 Sys-3 Flr-1 Sch-C HPlcmt-west ZN NECB System 3 PSZ, ERV not required based on exhaust heat content.",
               "For NECB 2011 NECB HDD Method:  Sp-LGstore1 Sys-3 Flr-1 Sch-C HPlcmt-west ZN NECB System 3 PSZ: DCV is not required for any system.",
               "For Sp-LGstore1 Sys-3 Flr-1 Sch-C HPlcmt-west ZN NECB System 3 PSZ: Annual occupied hours = 4168 hr/yr, assuming a 0.15 occupancy threshold.  This schedule will be used as the HVAC operation schedule.",
               "For Sp-LGstore1 Sys-3 Flr-1 Sch-C HPlcmt-west ZN NECB System 3 PSZ: Because the system has an economizer, it requires a motorized OA damper.",
               "For Sp-LGstore1 Sys-3 Flr-1 Sch-C HPlcmt-west ZN NECB System 3 PSZ: Setting motorized OA damper schedule to Sp-LGstore1 Sys-3 Flr-1 Sch-C HPlcmt-west ZN NECB System 3 PSZ Occ Sch.",
               "For Sp-LGstore2 Sys-3 Flr-1 Sch-C HPlcmt-north ZN NECB System 3 PSZ, ERV not required based on 0% OA flow, design supply air flow of 2197cfm, and climate zone NECB HDD Method.",
               "For Sp-LGstore2 Sys-3 Flr-1 Sch-C HPlcmt-north ZN NECB System 3 PSZ, ERV not required based on exhaust heat content.",
               "For NECB 2011 NECB HDD Method:  Sp-LGstore2 Sys-3 Flr-1 Sch-C HPlcmt-north ZN NECB System 3 PSZ: DCV is not required for any system.",
               "For Sp-LGstore2 Sys-3 Flr-1 Sch-C HPlcmt-north ZN NECB System 3 PSZ: Annual occupied hours = 4168 hr/yr, assuming a 0.15 occupancy threshold.  This schedule will be used as the HVAC operation schedule.",
               "For Sp-LGstore2 Sys-3 Flr-1 Sch-C HPlcmt-north ZN NECB System 3 PSZ: Setting motorized OA damper schedule to Sp-LGstore2 Sys-3 Flr-1 Sch-C HPlcmt-north ZN NECB System 3 PSZ Occ Sch.",
               "For Sp-SMstore1 Sys-3 Flr-1 Sch-C HPlcmt-north ZN NECB System 3 PSZ, ERV not required based on 0% OA flow, design supply air flow of 1157cfm, and climate zone NECB HDD Method.",
               "For Sp-SMstore1 Sys-3 Flr-1 Sch-C HPlcmt-north ZN NECB System 3 PSZ, ERV not required based on exhaust heat content.",
               "For NECB 2011 NECB HDD Method:  Sp-SMstore1 Sys-3 Flr-1 Sch-C HPlcmt-north ZN NECB System 3 PSZ: DCV is not required for any system.",
               "For Sp-SMstore1 Sys-3 Flr-1 Sch-C HPlcmt-north ZN NECB System 3 PSZ: Annual occupied hours = 4168 hr/yr, assuming a 0.15 occupancy threshold.  This schedule will be used as the HVAC operation schedule.",
               "For Sp-SMstore1 Sys-3 Flr-1 Sch-C HPlcmt-north ZN NECB System 3 PSZ: Setting motorized OA damper schedule to Sp-SMstore1 Sys-3 Flr-1 Sch-C HPlcmt-north ZN NECB System 3 PSZ Occ Sch.",
               "For Sp-SMstore2 Sys-3 Flr-1 Sch-C HPlcmt-north ZN NECB System 3 PSZ, ERV not required based on 0% OA flow, design supply air flow of 1134cfm, and climate zone NECB HDD Method.",
               "For Sp-SMstore2 Sys-3 Flr-1 Sch-C HPlcmt-north ZN NECB System 3 PSZ, ERV not required based on exhaust heat content.",
               "For NECB 2011 NECB HDD Method:  Sp-SMstore2 Sys-3 Flr-1 Sch-C HPlcmt-north ZN NECB System 3 PSZ: DCV is not required for any system.",
               "For Sp-SMstore2 Sys-3 Flr-1 Sch-C HPlcmt-north ZN NECB System 3 PSZ: Annual occupied hours = 4168 hr/yr, assuming a 0.15 occupancy threshold.  This schedule will be used as the HVAC operation schedule.",
               "For Sp-SMstore2 Sys-3 Flr-1 Sch-C HPlcmt-north ZN NECB System 3 PSZ: Setting motorized OA damper schedule to Sp-SMstore2 Sys-3 Flr-1 Sch-C HPlcmt-north ZN NECB System 3 PSZ Occ Sch.",
               "For Sp-SMstore3 Sys-3 Flr-1 Sch-C HPlcmt-north ZN NECB System 3 PSZ, ERV not required based on 0% OA flow, design supply air flow of 1134cfm, and climate zone NECB HDD Method.",
               "For Sp-SMstore3 Sys-3 Flr-1 Sch-C HPlcmt-north ZN NECB System 3 PSZ, ERV not required based on exhaust heat content.",
               "For NECB 2011 NECB HDD Method:  Sp-SMstore3 Sys-3 Flr-1 Sch-C HPlcmt-north ZN NECB System 3 PSZ: DCV is not required for any system.",
[...]
l9gqnMZ6pbzyHVn1bNXiJVoACbk3YBJyZ8Ak5L6ASci2CiYh2yqYhGyrYBKyrYJJyLYKJlFiq3Aa8nKL05BtFU5DtlU4DdlW4TRkW4XTkG0VTkO2VTgN2VbhNGRbhat/W5jnJbYKp7GFQl5iq3Aa65XyyleR1LNVi3eVACTk3oBJyJ0Bk5D7AiYh2yqYhGyrYBKyrYJJyLYKJiHbKphEia3CacjLLU5DtlU4DdlW4TRkW4XTkG0VTkO2VTgN2VbhNGRbhdOQbRWu/m1hnpfYKpzGFgp5ia3CaaxXyit3fK9nqxZbwgMk5N6AScidAZOQ+wImIdsqmIRsq2ASsq2CSci2CiYh2yqYRImtwmnIyy1OQ7ZVOA3ZVuE0ZFuF05BtFU5DtlU4DdlW4TRkW4XTkG0Vrv5tYZ6X2CqcxhYKeYmtwmmsV8orN9atZ6sWO+8CJOTegEnInQGTkPsCJiHbKpiEbKtgErKtgknItgomIdsqmESJrcJpyMstTkO2VTgN2VbhNGRbhdOQbRVOQ7ZVOA3ZVuE0ZFuF05BtFa7+bWGel9gqnMYWCnmJrcJprFfKK/cvrGerFhscAiTk3oBJyJ0Bk5D7AiYh2yqYhGyrYBKyrYJJyLYKJiHbKphE6WZrKA15ucVplG1khdIo2+MKpVG2/RVKo2zPN5RG2XZwKI2yneJQGmWbyKE0yvaXQ9W/Lczz0l3pUBpbKOQltgqnUV3KP9fZ4XW5dbM6VZG+W20gW+wb20hvx81iB9jKrWJX+z+nOnsRzyI/bfQ7TeW6/abqmb91+/W2m73PMR62tfb9gZfpcZzMn98H6WL/5If7r7HJdJ7gPPF18mFmtjOufaHhmD/meKu9dJboBYbZkXnZ7hve4JthhhlmmGGGGWaYYYYZZphhhhlmmGGGGWaYYYYZZphhhhlmmGGGGWaYYYYZZphhhhlmmGGGGWaYYYYZZphhhhlmmGGGGWaY4b9UeN6Ob3WSBL5+65kHa9125/98XtU8Gps+fjT2QieBTpeP1zrN1QPE0zDO2mEQ6cpHZNMfPadb/WRt2i5ePT+NQy8L4iiHctJMT1tXehQn2qn35PMbPdaR//iGFucaB52m6pknlzvmQWbzhxPqUWbAKlKv0rYvxzo7izLTPrnEaBYNC9LGrvqzIsWKUD9c/anyWW5zBCPVyCZB2k6LXqknZI5vLmrn7XfmDSeN/wLbZlvhm0fHc/Zl3stpnAYm4cv8dJ27WR0mzQ+okvjODmmFFUS+NvOh5TYtr14d1+teOAp0aMZbY9mmi3kyTuLZVPvq55/V35bn79uXEy9dPv9uJtjut9H5D6N5g7S98fiV0WiHOhpnE/VMddU/lfM8DB118vgTaRgMdaPl7n7qfN6tnG/f3UmcqMZ1fiudX9R1LrMcqktdc+7v+Ypj30HmMMN4me/T9ef2Fz1Xp6eni8ZbL2ORddnt17a3ujquEu19Wefir5bX2H7etNfy7k7NsDaDYTlSio0c2pdemgbjSPsDs0VE+qloyc/rNeWqo6ezdNJYty/yLj1Z9Of6MykMT+rcZdt8cl2VNEviL7qezuKz6yrFU28YZPN6UssPr31XhcRKat0sq4Xk8bKyzvSwXnzMsZrOjxce1VKubTab6Vaf9WuzqKq1Pv+1ylOYY29Pvf/9o/r3+e8f1MX5h4+/vftVvTn/9beBen324axeglf5qq3vPWPRVBarNE4yFc1u8nEwVMWWJqny0mFuXoJoXCPjqu1Nnm8qs9dUV/UXl0RnsyRSUy9J9asw9rKGZ5b83bwrvzl3VZyr1ZjVFu0b2eUtVCX+utmdXh78ZzHdi8ne2PH1yJuFmZomcb6G6Z2m2vnp6GgwODvb2fDGM8QhDnGIQxziEIc4xCEOcYjz18RR6ewm/yew8rU5qXxvbogS7ZOGNKQhDWlIQxrSkIY0pCENacpp7or/mvU/NFfhTBOHOMQhDnGIQxziEIc4xCEOcdbBeXhvoGveG3gxk94b2HOLX9ieP9/fPz4mKUlJSlKSkpSkJCUpSUlKUpKSlKRPg7RbkHqZRNopSHu9bvfogKQkJSlJSUpSkpKUpCQlKUlJSlKSPg3SniF9lQQCafe4IHXdw8Nej6QkJSlJSUpSkpKUpCQlKUlJSlKSPg3SfUP6cTKTSI8K0uP86L8gKUlJSlKSkpSkJCUpSUlKUpKSlKRPg7RvSP+lfYn0sCB9+XIwODwkKUlJSlKSkpSkJCUpSUlKUpKSlKRPg/Sg+GZipiXSg4J0MDg4IClJSUpSkpKUpCQlKUlJSlKSkpSkT4X00JC+jaWdBbv9gvToqNvt90lKUpKSlKQkJSlJSUpSkpKUpCQl6dZIVyh+4t01KpPdt7MgC/XFxJvqdqbvs8bO63iWpNUY8++vfBnc6CgN4ijUaZGhIsXennru+8pTRSZ1F2QTlcY3Wvm9iivT23Hbm0515Dcco+3sVlywOtpeliUN595pqoOO5UXz/KJu/YvSbB7qBV7Li4aTOMmvd0I9sqBd5hjFUda608F4kpkcV3Ho18+x6JuLaevibZrFid5XF/O01VOvwqTlqovhpDVQr9+Hw5usFcVJ3gV/vFPvzgYvzMcyfaN66v3FH+p8ODSf3dkt69Rne+kwCabZP8TPPNvzg9sfh8Vr5GR5LhX4p87QjPhB3kheEOnkst93VNFyp44fpNPQm58EUZiHWldhPPzyiyPz5UkXt6Cy+TS/3jTe3rV36y3Oll5pjlsvMYNTnSo/uJmGuh3pu4vbccP56XvGptrvdIo/KiebSet7mZfn/fSnE3pXOnROHF+PvFmYqWkSj4JQO81F5PLeOXHbnaZz64Uzvfz70KxJ+TX5MjMYnJ05X5u18nRBeXqgPPugPH1QngNQnkNQniNQnmNQHreDSoQa0S5qSLuoMe2iBrWLGtUuali7qHHtoga2ixrZXdTI7sLWatTI7qJGdtdqZKt0dnPz6CXVtSpaon2LNGIb2aURW8gujdg+dmnEeW+XRpz1dmnEOW+XRpzxdmnE+W6XRi5klnlA41guY5Z5QCNZLmKWeUBjWS5hlnlAo1kuYJZ5QONZLl+WeVDrMmg8y7XLMk/98XwXRJl92boyp+rnEZvHMo/YPJZ5xOaxzCNOd8s84nS3zCNOd8s84nS3zCNOd8s8cv2yTYQa0XIFs02EGtNyDbNNhBrVchWzTYQa13Ids02EGtlyJbNNBFurUSNbLma2ieqP7IdfLSrfKiyVuc6jf+gtXjsMkOhuXqK3eYn9zUv0Ny9xsHmJw81LHG1e4njzEo8q+6Y0tjC/S76YxWnI32zhNOQvvXAa8je9OA35S2Cchvz9ME5D/uoYpyF/q4yrf1uY591t1PEtFPLuFip5d71SXvnyxnq2avF2R4CE3BswCbkzYBJyX8AkZFsFk5BtFUxCtlUwCdlWwSRkWwWTKPnlGqch//SH05BtFU5DtlU4DdlW4TRkW4XTkG0VTkO2VTgN2VbhNGRbhat/W5jnJT/x4zS2UMhLbBVOY71SXvmOrHq2avESLYCE3BswCbkzYBJyX8AkZFsFk5BtFUxCtlUwCdlWwSRkWwWTKLFVOA15ucVpyLYKpyHbKpyGbKtwGrKtwmnItgqnIdsqnIZsq3Aasq3C1b8tzPMSW4XT2EIhL7FVOI31Snnlq0jq2arFu0oAEnJvwCTkzoBJyH0Bk5BtFUxCtlUwCdlWwSRkWwWTkG0VTKLEVuE05OUWpyHbKpyGbKtwGrKtwmnItgqnIdsqnIZsq3Aasq3Caci2Clf/tjDPS2wVTmMLhbzEVuE01ivllTu+17NViy3hARJyb8Ak5M6ASch9AZOQbRVMQrZVMAnZVsEkZFsFk5BtFUyixFbhNOTlFqch2yqchmyrcBqyrcJpyLYKpyHbKpyGbKtwGrKtwmnItgpX/7Ywz0tsFU5jC4W8xFbhNNYr5ZUb69azVYuddwEScm/AJOTOgEnIfQGTkG0VTEK2VTAJ2VbBJGRbBZOQbRVMosRW4TTk5RanIdsqnIZsq3Aasq3Caci2Cqch2yqchmyrcBqyrcJpyLYKV/+2MM9LbBVOYwuFvMRW4TTWK+WV+xfWs1WLDQ4BEnJvwCTkzoBJyH0Bk5BtFUxCtlUwCdlWwSRkWwWTkG0VTKJ0szWUhrzc4jTKNrJCaZTtcYXSKNv+CqVRtucbSqNsOziURtlOcSiNsk3kUBpl+8uh6t8W5nnprnQojS0U8hJbhdOoLuWf6+zwuty6WZ2qSN+tNpAt9o1tpLfjZrEDbOVWsav9n1OdvYhnkZ82+p2mct1+U/XM37r9etvN3ucYD9ta+/7Ay/Q4TubP74N0sX/yw/3X2GQ6T3Ce+Dr5MDPbGde+0HDMH3O81V46S/QCw+zIvGz3DW/wzTDDDDPMMMMMM8wwwwwzzDDDDDPMMMMMM8wwwwwzzDDDDDPMMMMMM8wwwwwzzDDDDDPMMMMMM8wwwwwzzDDDDDPMMMMMM8zwXyo8b8e3OkkCX7/1zIO1brvzfz6vah6NTR8/Gnuhk0Cny8drnebqAeJpGGftMIh05SOy6Y+e061+sjZtF6+en8ahlwVxlEM5aaanrSs9ihPt1Hvy+Y0e68h/fEOLc42DTlP1zJPLHfMgs/nDCfUoM2AVqVdp25djnZ1FmWmfXGI0i4YFaWNX/VmRYkWoH67+VPkstzmCkWpkkyBtp0Wv1BMyxzcXtfP2O/OGk8Z/gW2zrfDNo+M5+zLv5TROA5PwZX66zt2sDpPmB1RJfGeHtMIKIl+b+dBym5ZXr47rdS8cBTo0462xbNPFPBkn8WyqffXzz+pvy/P37cuJly6ffzcTbPfb6PyH0bxB2t54/MpotEMdjbOJeqa66p/KeR6Gjjp5/Ik0DIa60XJ3P3U+71bOt+/uJE5U4zq/lc4v6jqXWQ7Vpa459/d8xbHvIHOYYbzM9+n6c/uLnqvT09NF462Xsci67PZr21tdHVeJ9r6sc/FXy2tsP2/aa3l3p2ZYm8GwHCnFRg7tSy9Ng3Gk/YHZIiL9VLTk5/WactXR01k6aazbF3mXniz6c/2ZFIYnde6ybT65rkqaJfEXXU9n8dl1leKpNwyyeT2p5YfXvqtCYiW1bpbVQvJ4WVlnelgvPuZYTefHC49qKdc2m810q8/6tVlU1Vqf/1rlKcyxt6fe//5R/fv89w/q4vzDx9/e/arenP/620C9PvtwVi/Bq3zV1veesWgqi1UaJ5mKZjf5OBiqYkuTVHnpMDcvQTSukXHV9ibPN5XZa6qr+otLorNZEqmpl6T6VRh7WcMzS/5u3pXfnLsqztVqzGqL9o3s8haqEn/d7E4vD/6zmO7FZG/s+HrkzcJMTZM4X8P0TlPt/HR0NBicne1seOMZ4hCHOMQhDnGIQxziEIc4xPlr4qh0dpP/E1j52pxUvjc3RIn2SUMa0pCGNKQhDWlIQxrSkIY05TR3xX/N+h+aq3CmiUMc4hCHOMQhDnGIQxziEIc46+A8vDfQNe8NvJhJ7w3sucUvbM+f7+8fH5OUpCQlKUlJSlKSkpSkJCUpSUlK0qdB2i1IvUwi7RSkvV63e3RAUpKSlKQkJSlJSUpSkpKUpCQlKUmfBmnPkL5KAoG0e1yQuu7hYa9HUpKSlKQkJSlJSUpSkpKUpCQlKUmfBum+If04mUmkRwXpcX70X5CUpCQlKUlJSlKSkpSkJCUpSUlK0qdB2jek/9K+RHpYkL58ORgcHpKUpCQlKUlJSlKSkpSkJCUpSUlK0qdBelB8MzHTEulBQToYHByQlKQkJSlJSUpSkpKUpCQlKUlJStKnQnpoSN/G0s6C3X5BenTU7fb7JCUpSUlKUpKSlKQkJSlJSUpSkpJ0a6QrFD/x7hqVye7bWZCF+mLiTXU70/dZY+d1PEvSaoz591e+DG50lAZxFOq0yFCRYm9PPfd95akik7oLsolK4xut/F7FlentuO1NpzryG47RdnYrLlgdbS/LkoZz7zTVQcfyonl+Ubf+RWk2D/UCr+VFw0mc5Nc7oR5Z0C5zjOIoa93pYDzJTI6rOPTr51j0zcW0dfE2zeJE99XFPG311KswabnqYjhpDdTr9+HwJmtFcZJ3wR/v1LuzwQvzsUzfqJ56f/GHOh8OzWd3dss69dleOkyCafYP8TPP9vzg9sdh8Ro5WZ5LBf6pMzQjfpA3khdEOrnsHziqaLlTxw/SaejNT4IozEOtqzAefvnFkfnypItbUNl8ml9vGm/v2rv1FmdLrzTHrZeYwalOlR/cTEPdjvTdxe244fz0PWNT7Xc6xR+Vk82k9b3My/N++tMJvSsdOieOr0feLMzUNIlHQaid5iJyee+cuO1O07n1wple/n1o1qT8mnyZGQzOzpyvzVp5uqA8PVCefVCePijPASjPISjPESjPMSiP20ElQo1oFzWkXdSYdlGD2kWNahc1rF3UuHZRA9tFjewuamR3YWs1amR3USO7azWyVTq7uXn0kupaFS3RvkUasY3s0ogtZJdGbB+7NOK8t0sjznq7NOKct0sjzni7NOJ8t0sjFzLLPKBxLJcxyzygkSwXMcs8oLEslzDLPKDRLBcwyzyg8SyXL8s8qHUZNJ7l2mWZp/54vguizL5sXZlT9fOIzWOZR2weyzxi81jmEae7ZR5xulvmEae7ZR5xulvmEae7ZR65ftkmQo1ouYLZJkKNabmG2SZCjWq5itkmQo1ruY7ZJkKNbLmS2SaCrdWokS0XM9tE9Uf2w68WlW8Vlspc59E/9BavHQZIdDcv0du8xP7mJfqblzjYvMTh5iWONi9xvHmJR5V9UxpbmN8lX8ziNORvtnAa8pdeOA35m16chvwlME5D/n4YpyF/dYzTkL9VxtW/Lczz7jbq+BYKeXcLlby7XimvfHljPVu1eLsjQELuDZiE3BkwCbkvYBKyrYJJyLYKJiHbKpiEbKtgErKtgkmU/HKN05B/+sNpyLYKpyHbKpyGbKtwGrKtwmnItgqnIdsqnIZsq3Aasq3C1b8tzPOSn/hxGlso5CW2CqexXimvfEdWPVu1eIkWQELuDZiE3BkwCbkvYBKyrYJJyLYKJiHbKpiEbKtgErKtgkmU2Cqchrzc4jRkW4XTkG0VTkO2VTgN2VbhNGRbhdOQbRVOQ7ZVOA3ZVuHq3xbmeYmtwmlsoZCX2CqcxnqlvPJVJPVs1eJdJQAJuTdgEnJnwCTkvoBJyLYKJiHbKpiEbKtgErKtgknItgomUWKrcBrycovTkG0VTkO2VTgN2VbhNGRbhdOQbRVOQ7ZVOA3ZVuE0ZFuFq39bmOcltgqnsYVCXmKrcBrrlfLKHd/r2arFlvAACbk3YBJyZ8Ak5L6ASci2CiYh2yqYhGyrYBKyrYJJyLYKJlFiq3Aa8nKL05BtFU5DtlU4DdlW4TRkW4XTkG0VTkO2VTgN2VbhNGRbhat/W5jnJbYKp7GFQl5iq3Aa65Xyyo1169mqxc67AAm5N2AScmfAJOS+gEnItgomIdsqmIRsq2ASsq2CSci2CiZRYqtwGvJyi9OQbRVOQ7ZVOA3ZVuE0ZFuF05BtFU5DtlU4DdlW4TRkW4Wrf1uY5yW2CqexhUJeYqtwGuuV8sr9C+vZqsUGhwAJuTdgEnJnwCTkvoBJyLYKJiHbKpiEbKtgErKtgknItgomUbrZGkpDXm5xGmUbWaE0yva4QmmUbX+F0ijb8w2lUbYdHEqjbKc4lEbZJnIojbL95VD1bwvzvHRXOpTGFgp5ia3CaVSX8s91dnhdbt2sTlWk71YbyBb7xjbS23Gz2AG2cqvY1f7Pqc5exLPITxv9TlO5br+peuZv3X697Wbvc4yHba19f+Blehwn8+f3QbrYP/nh/mtsMp0nOE98nXyYme2Ma19oOOaPOd5qL50leoFhdmRetvuGN/hmmGGGGWaYYYYZZphhhhlmmGGGGWaYYYYZZphhhhlmmGGGGWaYYYYZZphhhhlmmGGGGWaYYYYZZphhhhlmmGGGGWaYYYYZZvgvFZ6341udJIGv33rmwVq33fk/n1c1j8amjx+NvdBJoNPl47VOc/UA8TSMs3YYRLryEdn0R8/pVj9Zm7aLV89P49DLgjjKoZw009PWlR7FiXbqPfn8Ro915D++ocW5xkGnqXrmyeWOeZDZ/OGEepQZsIrUq7Tty7HOzqLMtE8uMZpFw4K0sav+rEixItQPV3+qfJbbHMFINbJJkLbTolfqCZnjm4vaefudecNJ47/AttlW+ObR8Zx9mfdyGqeBSfgyP13nblaHSfMDqiS+s0NaYQWRr818aLlNy6tXx/W6F44CHZrx1li26WKejJN4NtW++vln9bfl+fv25cRLl8+/mwm2+210/sNo3iBtbzx+ZTTaoY7G2UQ9U131T+U8D0NHnTz+RBoGQ91oubufOp93K+fbd3cSJ6pxnd9K5xd1ncssh+pS15z7e77i2HeQOcwwXub7dP25/UXP1enp6aLx1stYZF12+7Xtra6Oq0R7X9a5+KvlNbafN+21vLtTM6zNYFiOlGIjh/all6bBONL+wGwRkX4qWvLzek256ujpLJ001u2LvEtPFv25/kwKw5M6d9k2n1xXJc2S+Iuup7P47LpK8dQbBtm8ntTyw2vfVSGxklo3y2ohebysrDM9rBcfc6ym8+OFR7WUa5vNZrrVZ/3aLKpqrc9/rfIU5tjbU+9//6j+ff77B3Vx/uHjb+9+VW/Of/1toF6ffTirl+BVvmrre89YNJXFKo2TTEWzm3wcDFWxpUmqvHSYm5cgGtfIuGp7k+ebyuw11VX9xSXR2SyJ1NRLUv0qjL2s4Zklfzfvym/OXRXnajVmtUX7RnZ5C1WJv252p5cH/1lM92KyN3Z8PfJmYaamSZyvYXqnqXZ+OjoaDM7Odja88QxxiEMc4hCHOMQhDnGIQxzi/DVxVDq7yf8JrHxtTirfmxuiRPukIQ1pSEMa0pCGNKQhDWlIQ5pymrviv2b9D81VONPEIQ5xiEMc4hCHOMQhDnGIQ5x1cB7eG+ia9wZezKT3Bvbc4he258/394+PSUpSkpKUpCQlKUlJSlKSkpSkJCXp0yDtFqReJpF2CtJer9s9OiApSUlKUpKSlKQkJSlJSUpSkpKUpE+DtGdIXyWBQNo9Lkhd9/Cw1yMpSUlKUpKSlKQkJSlJSUpSkpKUpE+DdN+QfpzMJNKjgvQ4P/ovSEpSkpKUpCQlKUlJSlKSkpSkJCXp0yDtG9J/aV8iPSxIX74cDA4PSUpSkpKUpCQlKUlJSlKSkpSkJCXp0yA9KL6ZmGmJ9KAgHQwODkhKUpKSlKQkJSlJSUpSkpKUpCQl6VMhPTSkb2NpZ8FuvyA9Oup2+32SkpSkJCUpSUlKUpKSlKQkJSlJSbo10hWKn3h3jcpk9+0syEJ9MfGmup3p+6yx8zqeJWk1xvz7K18GNzpKgzgKdVpkqEixt6ee+77yVJFJ3QXZRKXxjVZ+r+LK9Hbc9qZTHfkNx2g7uxUXrI62l2VJw7l3muqgY3nRPL+oW/+iNJuHeoHX8qLhJE7y651QjyxolzlGcZS17nQwnmQmx1Uc+vVzLPrmYtq6eJtmcaIP1MU8bfXUqzBpuepiOGkN1Ov34fAma0VxknfBH+/Uu7PBC/OxTN+onnp/8Yc6Hw7NZ3d2yzr12V46TIJp9g/xM8/2/OD2x2HxGjlZnksF/qkzNCN+kDeSF0Q6uewfOqpouVPHD9Jp6M1PgijMQ62rMB5++cWR+fKki1tQ2XyaX28ab+/au/UWZ0uvNMetl5jBqU6VH9xMQ92O9N3F7bjh/PQ9Y1PtdzrFH5WTzaT1vczL83760wm9Kx06J46vR94szNQ0iUdBqJ3mInJ575y47U7TufXCmV7+fWjWpPyafJkZDM7OnK/NWnm6oDw9UJ59UJ4+KM8BKM8hKM8RKM8xKI/bQSVCjWgXNaRd1Jh2UYPaRY1qFzWsXdS4dlED20WN7C5qZHdhazVqZHdRI7trNbJVOru5efSS6loVLdG+RRqxjezSiC1kl0ZsH7s04ry3SyPOers04py3SyPOeLs04ny3SyMXMss8oHEslzHLPKCRLBcxyzygsSyXMMs8oNEsFzDLPKDxLJcvyzyodRk0nuXaZZmn/ni+C6LMvmxdmVP184jNY5lHbB7LPGLzWOYRp7tlHnG6W+YRp7tlHnG6W+YRp7tlHrl+2SZCjWi5gtkmQo1puYbZJkKNarmK2SZCjWu5jtkmQo1suZLZJoKt1aiRLRcz20T1R/bDrxaVbxWWylzn0T/0Fq8dBkh0Ny/R27zE/uYl+puXONi8xOHmJY42L3G8eYlHlX1TGluY3yVfzOI05G+2cBryl144DfmbXpyG/CUwTkP+fhinIX91jNOQv1XG1b8tzPPuNur4Fgp5dwuVvLteKa98eWM9W7V4uyNAQu4NmITcGTAJuS9gErKtgknItgomIdsqmIRsq2ASsq2CSZT8co3TkH/6w2nItgqnIdsqnIZsq3Aasq3Caci2Cqch2yqchmyrcBqyrcLVvy3M85Kf+HEaWyjkJbYKp7FeKa98R1Y9W7V4iRZAQu4NmITcGTAJuS9gErKtgknItgomIdsqmIRsq2ASsq2CSZTYKpyGvNziNGRbhdOQbRVOQ7ZVOA3ZVuE0ZFuF05BtFU5DtlU4DdlW4erfFuZ5ia3CaWyhkJfYKpzGeqW88lUk9WzV4l0lAAm5N2AScmfAJOS+gEnItgomIdsqmIRsq2ASsq2CSci2CiZRYqtwGvJyi9OQbRVOQ7ZVOA3ZVuE0ZFuF05BtFU5DtlU4DdlW4TRkW4Wrf1uY5yW2CqexhUJeYqtwGuuV8sod3+vZqsWW8AAJuTdgEnJnwCTkvoBJyLYKJiHbKpiEbKtgErKtgknItgomUWKrcBrycovTkG0VTkO2VTgN2VbhNGRbhdOQbRVOQ7ZVOA3ZVuE0ZFuFq39bmOcltgqnsYVCXmKrcBrrlfLKjXXr2arFzrsACbk3YBJyZ8Ak5L6ASci2CiYh2yqYhGyrYBKyrYJJyLYKJlFiq3Aa8nKL05BtFU5DtlU4DdlW4TRkW4XTkG0VTkO2VTgN2VbhNGRbhat/W5jnJbYKp7GFQl5iq3Aa65Xyyv0L69mqxQaHAAm5N2AScmfAJOS+gEnItgomIdsqmIRsq2ASsq2CSci2CiZRutkaSkNebnEaZRtZoTTK9rhCaZRtf4XSKNvzDaVRth0cSqNspziURtkmciiNsv3lUPVvC/O8dFc6lMYWCnmJrcJpVJfyz3V2eF1u3axOVaTvVhvIFvvGNtLbcbPYAbZyq9jV/s+pzl7Es8hPG/1OU7luv6l65m/dfr3tZu9zjIdtrX1/4GV6HCfz5/dButg/+eH+a2wynSc4T3ydfJiZ7YxrX2g45o853movnSV6gWF2ZF62+4Y3+GaYYYYZZphhhhlmmGGGGWaYYYYZZphhhhlmmGGGGWaYYYYZZphhhhlmmGGGGWaYYYYZZphhhhlmmGGGGWaYYYYZZphhhhlm+C8VnrfjW50kga/feubBWrfd+T+fVzWPxqaPH4290Emg0+XjtU5z9QDxNIyzdhhEuvIR2fRHz+lWP1mbtotXz0/j0MuCOMqhnDTT09aVHsWJduo9+fxGj3XkP76hxbnGQaepeubJ5Y55kNn84YR6lBmwitSrtO3Lsc7Oosy0Ty4xmkXDgrSxq/6sSLEi1A9Xf6p8ltscwUg1skmQttOiV+oJmeObi9p5+515w0njv8C22Vb45tHxnH2Z93Iap4FJ+DI/XeduVodJ8wOqJL6zQ1phBZGvzXxouU3Lq1fH9boXjgIdmvHWWLbpYp6Mk3g21b76+Wf1t+X5+/blxEuXz7+bCbb7bXT+w2jeIG1vPH5lNNqhjsbZRD1TXfVP5TwPQ0edPP5EGgZD3Wi5u586n3cr59t3dxInqnGd30rnF3WdyyyH6lLXnPt7vuLYd5A5zDBe5vt0/bn9Rc/V6enpovHWy1hkXXb7te2tro6rRHtf1rn4q+U1tp837bW8u1MzrM1gWI6UYiOH9qWXpsE40v7AbBGRfipa8vN6Tbnq6OksnTTW7Yu8S08W/bn+TArDkzp32TafXFclzZL4i66ns/jsukrx1BsG2bye1PLDa99VIbGSWjfLaiF5vKysMz2sFx9zrKbz44VHtZRrm81mutVn/dosqmqtz3+t8hTm2NtT73//qP59/vsHdXH+4eNv735Vb85//W2gXp99OKuX4FW+aut7z1g0lcUqjZNMRbObfBwMVbGlSaq8dJiblyAa18i4anuT55vK7DXVVf3FJdHZLInU1EtS/SqMvazhmSV/N+/Kb85dFedqNWa1RftGdnkLVYm/bnanlwf/WUz3YrI3dnw98mZhpqZJnK9heqepdn46OhoMzs52NrzxDHGIQxziEIc4xCEOcYhDHOL8NXFUOrvJ/wmsfG1OKt+bG6JE+6QhDWlIQxrSkIY0pCENaUhDmnKau+K/Zv0PzVU408QhDnGIQxziEIc4xCEOcYhDnHVwHt4b6Jr3Bl7MpPcG9tziF7bnz/f3j49JSlKSkpSkJCUpSUlKUpKSlKQkJenTIO0WpF4mkXYK0l6v2z06IClJSUpSkpKUpCQlKUlJSlKSkpSkT4O0Z0hfJYFA2j0uSF338LDXIylJSUpSkpKUpCQlKUlJSlKSkpSkT4N035B+nMwk0qOC9Dg/+i9ISlKSkpSkJCUpSUlKUpKSlKQkJenTIO0b0n9pXyI9LEhfvhwMDg9JSlKSkpSkJCUpSUlKUpKSlKQkJenTID0ovpmYaYn0oCAdDA4OSEpSkpKUpCQlKUlJSlKSkpSkJCXpUyE9NKRvY2lnwW6/ID066nb7fZKSlKQkJSlJSUpSkpKUpCQlKUlJujXSFYqfeHeNymT37SzIQn0x8aa6nen7rLHzOp4laTXG/PsrXwY3OkqDOAp1WmSoSLG3p577vvJUkUndBdlEpfGNVn6v4sr0dtz2plMd+Q3HaDu7FResjraXZUnDuXea6qBjedE8v6hb/6I0m4d6gdfyouEkTvLrnVCPLGiXOUZxlLXudDCeZCbHVRz69XMs+uZi2rp4m2Zxog/VxTxt9dSrMGm56mI4aQ3U6/fh8CZrRXGSd8Ef79S7s8EL87FM36ieen/xhzofDs1nd3bLOvXZXjpMgmn2D/Ezz/b84PbHYfEaOVmeSwX+qTM0I36QN5IXRDq57B85qmi5U8cP0mnozU+CKMxDraswHn75xZH58qSLW1DZfJpfbxpv79q79RZnS680x62XmMGpTpUf3ExD3Y703cXtuOH89D1jU+13OsUflZPNpPW9zMvzfvrTCb0rHTonjq9H3izM1DSJR0GoneYicnnvnLjtTtO59cKZXv59aNak/Jp8mRkMzs6cr81aebqgPD1Qnn1Qnj4ozwEozyEozxEozzEoj9tBJUKNaBc1pF3UmHZRg9pFjWoXNaxd1Lh2UQPbRY3sLmpkd2FrNWpkd1Eju2s1slU6u7l59JLqWhUt0b5FGrGN7NKILWSXRmwfuzTivLdLI856uzTinLdLI854uzTifLdLIxcyyzygcSyXMcs8oJEsFzHLPKCxLJcwyzyg0SwXMMs8oPEsly/LPKh1GTSe5dplmaf+eL4Losy+bF2ZU/XziM1jmUdsHss8YvNY5hGnu2Uecbpb5hGnu2Uecbpb5hGnu2UeuX7ZJkKNaLmC2SZCjWm5htkmQo1quYrZJkKNa7mO2SZCjWy5ktkmgq3VqJEtFzPbRPVH9sOvFpVvFZbKXOfRP/QWrx0GSHQ3L9HbvMT+5iX6m5c42LzE4eYljjYvcbx5iUeVfVMaW5jfJV/M4jTkb7ZwGvKXXjgN+ZtenIb8JTBOQ/5+GKchf3WM05C/VcbVvy3M8+426vgWCnl3C5W8u14pr3x5Yz1btXi7I0BC7g2YhNwZMAm5L2ASsq2CSci2CiYh2yqYhGyrYBKyrYJJlPxyjdOQf/rDaci2Cqch2yqchmyrcBqyrcJpyLYKpyHbKpyGbKtwGrKtwtW/Lczzkp/4cRpbKOQltgqnsV4pr3xHVj1btXiJFkBC7g2YhNwZMAm5L2ASsq2CSci2CiYh2yqYhGyrYBKyrYJJlNgqnIa83OI0ZFuF05BtFU5DtlU4DdlW4TRkW4XTkG0VTkO2VTgN2Vbh6t8W5nmJrcJpbKGQl9gqnMZ6pbzyVST1bNXiXSUACbk3YBJyZ8Ak5L6ASci2CiYh2yqYhGyrYBKyrYJJyLYKJlFiq3Aa8nKL05BtFU5DtlU4DdlW4TRkW4XTkG0VTkO2VTgN2VbhNGRbhat/W5jnJbYKp7GFQl5iq3Aa65Xyyh3f69mqxZbwAAm5N2AScmfAJOS+gEnItgomIdsqmIRsq2ASsq2CSci2CiZRYqtwGvJyi9OQbRVOQ7ZVOA3ZVuE0ZFuF05BtFU5DtlU4DdlW4TRkW4Wrf1uY5yW2CqexhUJeYqtwGuuV8sqNdevZqsXOuwAJuTdgEnJnwCTkvoBJyLYKJiHbKpiEbKtgErKtgknItgomUWKrcBrycovTkG0VTkO2VTgN2VbhNGRbhdOQbRVOQ7ZVOA3ZVuE0ZFuFq39bmOcltgqnsYVCXmKrcBrrlfLK/Qvr2arFBocACbk3YBJyZ8Ak5L6ASci2CiYh2yqYhGyrYBKyrYJJyLYKJlG62RpKQ15ucRplG1mhNMr2uEJplG1/hdIo2/MNpVG2HRxKo2ynOJRG2SZyKI2y/eVQ9W8L87x0VzqUxhYKeYmtwmlUl/LPdXZ4XW7drE5VpO9WG8gW+8Y20ttxs9gBtnKr2NX+z6nOXsSzyE8b/U5TuW6/qXrmb91+ve1m73OMh22tfX/gZXocJ/Pn90G62D/54f5rbDKdJzhPfJ18mJntjGtfaDjmjzneai+dJXqBYXZkXrb7hjf4ZphhhhlmmGGGGWaYYYYZZphhhhlmmGGGGWaYYYYZZphhhhlmmGGGGWaYYYYZZphhhhlmmGGGGWaYYYYZZphhhhlmmGGGGWb4LxWet+NbnSSBr9965sFat935P59XNY/Gpo8fjb3QSaDT5eO1TnP1APE0jLN2GES68hHZ9EfP6VY/WZu2i1fPT+PQy4I4yqGcNNPT1pUexYl26j35/EaPdeQ/vqHFucZBp6l65snljnmQ2fzhhHqUGbCK1Ku07cuxzs6izLRPLjGaRcOCtLGr/qxIsSLUD1d/qnyW2xzBSDWySZC206JX6gmZ45uL2nn7nXnDSeO/wLbZVvjm0fGcfZn3chqngUn4Mj9d525Wh0nzA6okvrNDWmEFka/NfGi5TcurV8f1uheOAh2a8dZYtulinoyTeDbVvvr55/+0d/4/beNuHP/981f4ctLR6trQtLR82Xon1pVt0jYmynS6Qwi5jWkDaVLFDlCd+N8vTlOuHWS182Ub93n7B2Cx/fbL9vPYHg5PyU/J8zvzYkJ58vfv0sGqq7nzJ3OjATHpeHwk2zBd5o3FhLwkTfI7MQ5d1yAH6yW464xYpW5Vzxrn1Y3+9qgnfkAqV1FXGi/IVdRMYqpJu/LZr9GKoz9BMkkzTvTOrs7NazYn3W53MXjZFGPVZNqvdLu6TMOA0essle816+iWl+OV9K4rzVoaQ2IpcSAH84Jy7ow9ZvdkiAh+Fo/kebahXE70LOSTSta5iKb0YDGf2T3JdQ9UemnKkllb4SLwr5laO4uyWVvyZ3TkiLlaU0nhzL2Km1g2lVVluZCsLytZ3EN78ZFp6c7rCw+pE0tXTcfd1Fnva/GuqlT+ftOZQqbtbfLp8yn58/jzCRkcn5y++/iGvD9+865H3vZP+moCR9Gqze6oPKIR4RPuB4J44TSygxGJQ5pwQvkoOrw43lhBcTn2UmdlZ6Y1MlRfXAImwsAjMxpwduT6VFSoXPKr0VSuPBvGz5QGc/MRbaXZpAubhO/LjfTycP6M3T129sqWzS5p6AoyC/xoDWNbNbL1895er9fvb5UceAY4wAEOcIADHOAABzjAAQ5w/ps4hIfT6L/AxGbyIbHpXBIFzAYNaEADGtCABjSgAQ1oQAMa0Hyd5jZ+NesLmqEbMuAABzjAAQ5wgAMc4AAHOMABThach88NtOTnBg7CtM8NbFnxDdvh4c7O/j5IQQpSkIIUpCAFKUhBClKQghSkIH0epM2YlIo00kZM2mo1m3sdkIIUpCAFKUhBClKQghSkIAUpSEH6PEhbkvQocFJIm/sxqWXt7rZaIAUpSEEKUpCCFKQgBSlIQQpSkIL0eZDuSNLTSZhGuheT7kep/QqkIAUpSEEKUpCCFKQgBSlIQQpSkD4P0rYk/YPZaaS7Menr173e7i5IQQpSkIIUpCAFKUhBClKQghSkIH0epJ34NxMhSyPtxKS9XqcDUpCCFKQgBSlIQQpSkIIUpCAFKUifC+muJP3gp0UWbLZj0r29ZrPdBilIQQpSkIIUpCAFKUhBClKQghSk34x0iWIH9LayUezOFI5w2WBCZ8wU7E5Utt76YcA3Y8wf13ztTJnHHd9zGY8VNkhsb5ND2yaUxErk1hETwv0pI3ZrQ01+MzbpbMY8u2LIto3qhgrLZFIhgopxZ9RIp6FZaR5VaqpX4mLusgVenXqjiR9E9Q2XXWrQJhqXvifqt8wZT4TUGPqura6xmJvBrD74wIUfsD0ymPN6ixy5Qd0ig9Gk3iNvP7mjqagzygX56yP52O+9kqUEm5IW+TT4ixyPRrLoVvVrc/pym48CZyZ+Sy3zctt2bp7OTq2TLhZpEcfuGiNp8L1ojKjjseCivW+QeOC6hu3wmUvnB47nRln1oeuPrl8Y6XyR6KILRMxnUX05dttX9IYunn61pkw3NJC2SbrEdqYzl5keux3cjCvGz48Za2Sn0Yi/bPQ1KWtTQSPds78Nlw6ZaxwYNrukoSvILPAvHZcZtUXOxZ1xYJmNmnFD3ZAZB519c38l7e3XjJFcoCKFaM3p9fp9476mpNosRbVViupOKartUlQ7pajulqK6V4rqfimqVqMc2XK8yyrHvaxy/Msqx8GscjzMKsfFrHJ8zCrHyaxyvKxZjpc1S9rDyvGyZjle1szhZYSH0+naZ35nOCEEzNYQVRxbPVHFkdUTVRxXPVHFtUtPVHHl0hNVXLf0RBVXLT1RxTVLT1T1YKCpWopPqR4LNFVL8SrVQ4Gmail+pXok0FQtxbNUDwSaqqX4lupxQFO1nP2qFN9SPQtoqmb1rVvHE3mPAUNZQF1VcVg1VRWHVVNVcVg1VRWXLE1VxSVLU1VxydJUVVyyNFUVlyxNVdXzgK5sOd6leiLQlS3Hv1TPBLqy5XiY6qlAV7YcH1M9F+jKluNlqicDXdmS9rByvEz1cKArq+Vl5yoXDslFIukSj90u7zPia4wKvxnX4guJjTcXy9tIzsQrP/RsXmk3asSy2jXSkj8122q3H3cRxsMlq233qGBjP5gf3jl8cZv3MBQKV56RwHFgs+AklJdryhUlx3yd4wOjPAzYAkPeDyZTkPcSN75HWm9qwAKH8QQ3aimZkJnrC1Nebm1skj/V782k3Iztbua7VDi+F0EZXLBZfcgu/YAZapb0no2ZZ693aPGs0omsoCUtQV6GWfJLcke68fp4KWtejJnoe0KOT9TEZeiNYtJKlfytcEkqCdlD7bONviGTc0kqYuLwyK5lPbWGZFqpZEbj16ejSeVfYF21JX5yN5joXsx87kjB19Fjld4sk5R5girwb/WQlliOZzPpuHWrpll7ma6yVrx0mCvtrZKM6cJPxoEfzphNfvmF/JQ8vzMvJpQn64l0sOpq7vzJ3GhATDoeH8k2TJd5YzEhL0mT/E6MQ9c1yMF6Ce46I1apW9Wzxnl1o7896okfkMpV1JXGC3IVNZOYatKufPZrl1j6EySTNONE7+zq3Lxm0fLW7S4GL5tirJpM+5VuV5dpGDB6naXyvWYd3fJyvJLedaVZS2NILCXeGM2LxQtAzI5fAeJn8UieZxvK5UTPQj6pZJ2LaEoPFvOZ3ZNc90Cll6YsmbUVLgL/mqm1syibtSV/RkeOmKs1lRTO3Ku4iWVTWVWWC8n6spLFPbQXH5mW7ry+8JA6sXTVdNxNnfW+Fu+qSuXvN50pZNreJp8+n5I/jz+fkMHxyem7j2/I++M373rkbf+kryZwFK3a7I7KIxoRPuF+dJD2wmlkByMSHxE5oXwUHV4cb6yguBx7qbOyM9MaGaovLgETYeCRGQ04O3J9KipULvnVaCpXng3jZ0qDufmIttJs0oVNwvff4UXNLy5gk7cx5YXqd3lvFDjAAQ5wgAMc4AAHOMABDnCePc7jF1wkUcBs0IAGNKABDWhAAxrQgAY0oAHN12kevRIoaeQrfsABDnCAAxzgAAc4wAEOcIADnO8YHvGUTWcsoCIMGKkcVREg8YcKkPgHlRb3lsXfDqdDh3mCyCmTcQ+ZHUbjXye7jaNnEQKx0/jxQyBGjN8qBGL8h6dZQzAVpNMqSGenIJ12QTqdgnR2C9LZK0hnvyCdtdgCuYSKsmirKJO2irJpqyijtoqyaqsos7aKsmurKMO2irLsZlGW3SxsrS7KsptFWXZTy7LVQ/atSWUP0pdDJnWEsgfiyyGT6vfZg+3lkEn1+ewB9XLIpPp7jqB5eXQKsuP0bSxHKLw8OgWZcvoeliPAXR6dgqw5fQPLEbYuzzpYkD2n7145gtHl0SnIntO3ruwh5tZkcgSVy6OTOjw5Asfl0Ul19xzB4fLopLp7jgBweXRS3T1PkLdcQkVZdPoOlid0Wy6hoow6fRPLE5Atl1BRdp2+j+UJs5ZrZSzKstO3sjzB03IJFWXZ6bsZQqI9i5BoyEY2spGNbGQjG9nIRjaykY1sZCMb2cj+kbLnpn/DgsCx2Qcqf1FlmQ2ExF/pCULiPySExNdKCImPkPgaCSHxv0wIif9lQkh8zYSQ+AiJ/2RCSHzgAAc4wAEOcIADHOAABzjAAc5zCCgJGtCABjSgAQ1oQAMa0IAGNM+H5v8mkCVwgAMc4AAHOMABDnCAAxzgZG/vO4TEf+1Mmccd33MZ5wiI/2MFxPeDa9K/vHRGDvNG84cw+N82AH5S+ouc1X8vf158f1BPfnj4NvTtufw+EVP3t//9A9ZTv5I="
               },
               {
                  "name" : "annual_peak_electric_demand",
                  "units" : "kW",
                  "value" : 250.41056
               },
               {
                  "name" : "first_year_capital_cost",
                  "units" : "$",
                  "value" : 0
               },
               {
                  "name" : "annual_utility_cost",
                  "units" : "$",
                  "value" : 0
               },
               {
                  "name" : "total_lifecycle_cost",
                  "units" : "$",
                  "value" : 0
               }
            ],
            "step_warnings" : [ "A table in Annual Overview section returned false and was skipped." ]
         }
      }
   ],
   "updated_at" : "20170710T185942Z",
   "weather_file" : "USA_CO_Denver.Intl.AP.725650_TMY3.epw"
}
