{
   "completed_at" : "20170710T182611Z",
   "completed_status" : "Success",
   "created_at" : "2017-07-10 18:24:12 +0000",
   "current_step" : 5,
   "description" : "",
   "eplusout_err" : "Program Version,EnergyPlus, Version 8.7.0-78a111df4a, YMD=2017.07.10 18:25,IDD_Version 8.7.0\n   ************* IDF Context for following error/warning message:\n   ************* Note -- lines truncated at 300 characters, if necessary...\n   *************      5 Building,\n   ************* indicated Name=NECB 2011-Warehouse-NECB HDD Method-CAN_PQ_Sherbrooke.716100_CWEC.epw created: 2017-07-10 18:24:22 +0000\n   ************* Only last 1 lines before error line shown.....\n   *************      6   NECB 2011-Warehouse-NECB HDD Method-CAN_PQ_Sherbrooke.716100_CWEC.epw created: 2017-07-10 18:24:22 +0000, !- Name\n   ** Warning ** IP: IDF line~6 Alpha Argument length exceeds maximum, will be truncated=  NECB 2011-Warehouse-NECB HDD Method-CAN_PQ_Sherbrooke.716100_CWEC.epw created: 2017-07-10 18:24:22 +000\n   **   ~~~   ** Will be processed as Alpha=NECB 2011-WAREHOUSE-NECB HDD METHOD-CAN_PQ_SHERBROOKE.716100_CWEC.EPW CREATED: 2017-07-10 18:24:22 +0000\n   ************* Beginning Zone Sizing Calculations\n   ** Warning ** ProcessScheduleInput: Schedule:Day:Interval=\"ECONOMIZER MAX OA FRACTION 100 PCT DEFAULT\", Blank Schedule Type Limits Name input -- will not be validated.\n   ** Warning ** ProcessScheduleInput: Schedule:Day:Interval=\"SCHEDULE DAY 1\", Blank Schedule Type Limits Name input -- will not be validated.\n   ** Warning ** ProcessScheduleInput: Schedule:Day:Interval=\"SCHEDULE DAY 10\", Blank Schedule Type Limits Name input -- will not be validated.\n   ** Warning ** ProcessScheduleInput: Schedule:Day:Interval=\"SCHEDULE DAY 11\", Blank Schedule Type Limits Name input -- will not be validated.\n   ** Warning ** ProcessScheduleInput: Schedule:Day:Interval=\"SCHEDULE DAY 12\", Blank Schedule Type Limits Name input -- will not be validated.\n   ** Warning ** ProcessScheduleInput: Schedule:Day:Interval=\"SCHEDULE DAY 13\", Blank Schedule Type Limits Name input -- will not be validated.\n   ** Warning ** ProcessScheduleInput: Schedule:Day:Interval=\"SCHEDULE DAY 14\", Blank Schedule Type Limits Name input -- will not be validated.\n   ** Warning ** ProcessScheduleInput: Schedule:Day:Interval=\"SCHEDULE DAY 15\", Blank Schedule Type Limits Name input -- will not be validated.\n   ** Warning ** ProcessScheduleInput: Schedule:Day:Interval=\"SCHEDULE DAY 16\", Blank Schedule Type Limits Name input -- will not be validated.\n   ** Warning ** ProcessScheduleInput: Schedule:Day:Interval=\"SCHEDULE DAY 17\", Blank Schedule Type Limits Name input -- will not be validated.\n   ** Warning ** ProcessScheduleInput: Schedule:Day:Interval=\"SCHEDULE DAY 18\", Blank Schedule Type Limits Name input -- will not be validated.\n   ** Warning ** ProcessScheduleInput: Schedule:Day:Interval=\"SCHEDULE DAY 19\", Blank Schedule Type Limits Name input -- will not be validated.\n   ** Warning ** ProcessScheduleInput: Schedule:Day:Interval=\"SCHEDULE DAY 2\", Blank Schedule Type Limits Name input -- will not be validated.\n   ** Warning ** ProcessScheduleInput: Schedule:Day:Interval=\"SCHEDULE DAY 5\", Blank Schedule Type Limits Name input -- will not be validated.\n   ** Warning ** ProcessScheduleInput: Schedule:Day:Interval=\"SCHEDULE DAY 6\", Blank Schedule Type Limits Name input -- will not be validated.\n   ** Warning ** ProcessScheduleInput: Schedule:Day:Interval=\"SCHEDULE DAY 7\", Blank Schedule Type Limits Name input -- will not be validated.\n   ** Warning ** ProcessScheduleInput: Schedule:Day:Interval=\"SCHEDULE DAY 8\", Blank Schedule Type Limits Name input -- will not be validated.\n   ** Warning ** ProcessScheduleInput: Schedule:Day:Interval=\"SCHEDULE DAY 9\", Blank Schedule Type Limits Name input -- will not be validated.\n   ** Warning ** ProcessScheduleInput: Schedule:Year=\"ECONOMIZER MAX OA FRACTION 100 PCT\", Blank Schedule Type Limits Name input -- will not be validated.\n   ** Warning ** ProcessScheduleInput: Schedule:Year=\"SCHEDULE RULESET 10\", Blank Schedule Type Limits Name input -- will not be validated.\n   ** Warning ** ProcessScheduleInput: Schedule:Year=\"SCHEDULE RULESET 11\", Blank Schedule Type Limits Name input -- will not be validated.\n   ** Warning ** ProcessScheduleInput: Schedule:Year=\"SCHEDULE RULESET 3\", Blank Schedule Type Limits Name input -- will not be validated.\n   ** Warning ** ProcessScheduleInput: Schedule:Year=\"SCHEDULE RULESET 4\", Blank Schedule Type Limits Name input -- will not be validated.\n   ** Warning ** ProcessScheduleInput: Schedule:Year=\"SCHEDULE RULESET 5\", Blank Schedule Type Limits Name input -- will not be validated.\n   ** Warning ** ProcessScheduleInput: Schedule:Year=\"SCHEDULE RULESET 6\", Blank Schedule Type Limits Name input -- will not be validated.\n   ** Warning ** ProcessScheduleInput: Schedule:Year=\"SCHEDULE RULESET 7\", Blank Schedule Type Limits Name input -- will not be validated.\n   ** Warning ** ProcessScheduleInput: Schedule:Year=\"SCHEDULE RULESET 8\", Blank Schedule Type Limits Name input -- will not be validated.\n   ** Warning ** ProcessScheduleInput: Schedule:Year=\"SCHEDULE RULESET 9\", Blank Schedule Type Limits Name input -- will not be validated.\n   ** Warning ** ProcessScheduleInput: Schedule:Constant=\"ALWAYS OFF DISCRETE\", Blank Schedule Type Limits Name input -- will not be validated.\n   ** Warning ** ProcessScheduleInput: Schedule:Constant=\"ALWAYS ON CONTINUOUS\", Blank Schedule Type Limits Name input -- will not be validated.\n   ** Warning ** CheckUsedConstructions: There are 22 nominally unused constructions in input.\n   **   ~~~   ** For explicit details on each unused construction, use Output:Diagnostics,DisplayExtraWarnings;\n   ************* Beginning System Sizing Calculations\n   ************* Beginning Plant Sizing Calculations\n   ** Warning ** GetDXCoils: Coil:Cooling:DX:SingleSpeed=\"COIL COOLING DX SINGLE SPEED 1 31KBTU/HR 14.0SEER\", invalid\n   **   ~~~   ** ...Part Load Fraction Correlation Curve Name = DXCOOL-NECB2011-REF-COOLPLFFPLR has out of range value.\n   **   ~~~   ** ...Curve maximum must be <= 1.0, curve max at PLR = 0.99 is 1.015\n   **   ~~~   ** ...Setting curve maximum to 1.0 and simulation continues.\n   ** Warning ** GetDXCoils: Coil:Cooling:DX:SingleSpeed=\"COIL COOLING DX SINGLE SPEED 3 149KBTU/HR 9.7EER\", invalid\n   **   ~~~   ** ...Part Load Fraction Correlation Curve Name = DXCOOL-NECB2011-REF-COOLPLFFPLR 2 has out of range value.\n   **   ~~~   ** ...Curve maximum must be <= 1.0, curve max at PLR = 0.99 is 1.015\n   **   ~~~   ** ...Setting curve maximum to 1.0 and simulation continues.\n   ** Warning ** GetDXCoils: Coil:Cooling:DX:SingleSpeed=\"COIL COOLING DX SINGLE SPEED 2 371KBTU/HR 8.39EER\", invalid\n   **   ~~~   ** ...Part Load Fraction Correlation Curve Name = DXCOOL-NECB2011-REF-COOLPLFFPLR 1 has out of range value.\n   **   ~~~   ** ...Curve maximum must be <= 1.0, curve max at PLR = 0.99 is 1.015\n   **   ~~~   ** ...Setting curve maximum to 1.0 and simulation continues.\n   ** Warning ** The Standard Ratings is calculated for Coil:Cooling:DX:SingleSpeed = COIL COOLING DX SINGLE SPEED 1 31KBTU/HR 14.0SEER but not at the AHRI test condition due to curve out of bound.\n   **   ~~~   **  Review the Standard Ratings calculations in the Engineering Reference for this coil type. Also, use Output:Diagnostics, DisplayExtraWarnings for further guidance.\n   ** Warning ** The Standard Ratings is calculated for Coil:Cooling:DX:SingleSpeed = COIL COOLING DX SINGLE SPEED 3 149KBTU/HR 9.7EER but not at the AHRI test condition due to curve out of bound.\n   **   ~~~   **  Review the Standard Ratings calculations in the Engineering Reference for this coil type. Also, use Output:Diagnostics, DisplayExtraWarnings for further guidance.\n   ** Warning ** The Standard Ratings is calculated for Coil:Cooling:DX:SingleSpeed = COIL COOLING DX SINGLE SPEED 2 371KBTU/HR 8.39EER but not at the AHRI test condition due to curve out of bound.\n   **   ~~~   **  Review the Standard Ratings calculations in the Engineering Reference for this coil type. Also, use Output:Diagnostics, DisplayExtraWarnings for further guidance.\n   ** Warning ** Check input. Pump nominal power or motor efficiency is set to 0, for pump=SERVICE WATER LOOP PUMP\n   ** Warning ** Output:Meter: invalid Name=\"GAS:FACILITY\" - not found.\n   ** Warning ** Output:Meter: invalid Name=\"DISTRICTCOOLING:FACILITY\" - not found.\n   ** Warning ** Output:Meter: invalid Name=\"DISTRICTHEATING:FACILITY\" - not found.\n   ** Warning ** Output:Meter:MeterFileOnly: invalid Name=\"GAS:FACILITY\" - not found.\n   ** Warning ** Output:Meter:MeterFileOnly requested for \"Electricity:Facility\" (TimeStep), already on \"Output:Meter\". Will report to both eplusout.eso and eplusout.mtr\n   ************* Testing Individual Branch Integrity\n   ************* All Branches passed integrity testing\n   ************* Testing Individual Supply Air Path Integrity\n   ************* All Supply Air Paths passed integrity testing\n   ************* Testing Individual Return Air Path Integrity\n   ************* All Return Air Paths passed integrity testing\n   ************* No node connection errors were found.\n   ************* Beginning Simulation\n   ** Warning ** CalcDoe2DXCoil: Coil:Cooling:DX:SingleSpeed \"COIL COOLING DX SINGLE SPEED 1 31KBTU/HR 14.0SEER\" - Air-cooled condenser inlet dry-bulb temperature below 0 C. Outdoor dry-bulb temperature = -8.58\n   **   ~~~   **  ... Occurrence info = RUN PERIOD 1, 01/02 06:03 - 06:05\n   **   ~~~   ** ... Operation at low ambient temperatures may require special performance curves.\n   ** Warning ** CalcDoe2DXCoil: Coil:Cooling:DX:SingleSpeed \"COIL COOLING DX SINGLE SPEED 1 31KBTU/HR 14.0SEER\" - Full load outlet air dry-bulb temperature < 2C. This indicates the possibility of coil frost/freeze. Outlet temperature = 1.41 C.\n   **   ~~~   **  ...Occurrence info = RUN PERIOD 1, 02/24 14:15 - 14:30\n   **   ~~~   ** ... Possible reasons for low outlet air dry-bulb temperatures are: This DX coil\n   **   ~~~   **    1) may have a low inlet air dry-bulb temperature. Inlet air temperature = 16.120 C.\n   **   ~~~   **    2) may have a low air flow rate per watt of cooling capacity. Check inputs.\n   **   ~~~   **    3) is used as part of a HX assisted cooling coil which uses a high sensible effectiveness. Check inputs.\n   ** Warning ** CalcDoe2DXCoil: Coil:Cooling:DX:SingleSpeed \"COIL COOLING DX SINGLE SPEED 3 149KBTU/HR 9.7EER\" - Full load outlet air dry-bulb temperature < 2C. This indicates the possibility of coil frost/freeze. Outlet temperature = 1.69 C.\n   **   ~~~   **  ...Occurrence info = RUN PERIOD 1, 04/18 12:45 - 13:00\n   **   ~~~   ** ... Possible reasons for low outlet air dry-bulb temperatures are: This DX coil\n   **   ~~~   **    1) may have a low inlet air dry-bulb temperature. Inlet air temperature = 16.100 C.\n   **   ~~~   **    2) may have a low air flow rate per watt of cooling capacity. Check inputs.\n   **   ~~~   **    3) is used as part of a HX assisted cooling coil which uses a high sensible effectiveness. Check inputs.\n   ** Warning ** CalcDoe2DXCoil: Coil:Cooling:DX:SingleSpeed \"COIL COOLING DX SINGLE SPEED 2 371KBTU/HR 8.39EER\" - Full load outlet air dry-bulb temperature < 2C. This indicates the possibility of coil frost/freeze. Outlet temperature = 1.86 C.\n   **   ~~~   **  ...Occurrence info = RUN PERIOD 1, 04/19 10:30 - 10:45\n   **   ~~~   ** ... Possible reasons for low outlet air dry-bulb temperatures are: This DX coil\n   **   ~~~   **    1) may have a low inlet air dry-bulb temperature. Inlet air temperature = 16.775 C.\n   **   ~~~   **    2) may have a low air flow rate per watt of cooling capacity. Check inputs.\n   **   ~~~   **    3) is used as part of a HX assisted cooling coil which uses a high sensible effectiveness. Check inputs.\n   ** Warning ** Plant Loop: MAIN SERVICE WATER LOOP Demand Side is storing excess heat the majority of the time.\n   ** Warning ** Plant Loop: MAIN SERVICE WATER LOOP Supply Side is storing excess heat the majority of the time.\n   ************* Simulation Error Summary *************\n   ************* There are 9 unused schedules in input.\n   ************* There are 9 unused week schedules in input.\n   ************* There are 18 unused day schedules in input.\n   ************* Use Output:Diagnostics,DisplayUnusedSchedules; to see them.\n   *************\n   ************* ===== Recurring Error Summary =====\n   ************* The following recurring error messages occurred.\n   *************\n   *************  ** Warning ** Plant loop exceeding upper temperature limit, PlantLoop=\"MAIN SERVICE WATER LOOP\"\n   *************  **   ~~~   **   This error occurred 22512 total times;\n   *************  **   ~~~   **   during Warmup 1027 times;\n   *************  **   ~~~   **   during Sizing 0 times.\n   *************  **   ~~~   **   Max=82.222222\n   *************\n   *************  ** Warning ** CalcDoe2DXCoil: Coil:Cooling:DX:SingleSpeed=\"COIL COOLING DX SINGLE SPEED 1 31KBTU/HR 14.0SEER\" - Low condenser dry-bulb temperature error continues...\n   *************  **   ~~~   **   This error occurred 307 total times;\n   *************  **   ~~~   **   during Warmup 0 times;\n   *************  **   ~~~   **   during Sizing 0 times.\n   *************  **   ~~~   **   Max=-5.551115E-017 [C]  Min=-30.75 [C]\n   *************\n   *************  ** Warning ** CalcDoe2DXCoil: Coil:Cooling:DX:SingleSpeed=\"COIL COOLING DX SINGLE SPEED 1 31KBTU/HR 14.0SEER\" - Full load outlet temperature indicates a possibility of frost/freeze error continues. Outlet air temperature statistics follow:\n   *************  **   ~~~   **   This error occurred 6 total times;\n   *************  **   ~~~   **   during Warmup 0 times;\n   *************  **   ~~~   **   during Sizing 0 times.\n   *************  **   ~~~   **   Max=1.925036  Min=1.412269\n   *************\n   *************  ** Warning ** CalcDoe2DXCoil: Coil:Cooling:DX:SingleSpeed=\"COIL COOLING DX SINGLE SPEED 3 149KBTU/HR 9.7EER\" - Full load outlet temperature indicates a possibility of frost/freeze error continues. Outlet air temperature statistics follow:\n   *************  **   ~~~   **   This error occurred 4 total times;\n   *************  **   ~~~   **   during Warmup 0 times;\n   *************  **   ~~~   **   during Sizing 0 times.\n   *************  **   ~~~   **   Max=1.979653  Min=1.68575\n   *************\n   *************  ** Warning ** CalcDoe2DXCoil: Coil:Cooling:DX:SingleSpeed=\"COIL COOLING DX SINGLE SPEED 2 371KBTU/HR 8.39EER\" - Full load outlet temperature indicates a possibility of frost/freeze error continues. Outlet air temperature statistics follow:\n   *************  **   ~~~   **   This error occurred 2 total times;\n   *************  **   ~~~   **   during Warmup 0 times;\n   *************  **   ~~~   **   during Sizing 0 times.\n   *************  **   ~~~   **   Max=1.881066  Min=1.860501\n   *************\n   *************\n   ************* ===== Final Error Summary =====\n   ************* The following error categories occurred.  Consider correcting or noting.\n   ************* Nominally Unused Constructions\n   ************* ..The nominally unused constructions warning is provided to alert you to potential conditions that can cause\n   ************* ..extra time during simulation. Each construction is calculated by the algorithm indicated in the HeatBalanceAlgorithm\n   ************* ..object. You may remove the constructions indicated (when you use the DisplayExtraWarnings option).\n   *************\n   ************* EnergyPlus Warmup Error Summary. During Warmup: 0 Warning; 0 Severe Errors.\n   ************* EnergyPlus Sizing Error Summary. During Sizing: 31 Warning; 0 Severe Errors.\n   ************* EnergyPlus Completed Successfully-- 22877 Warning; 0 Severe Errors; Elapsed Time=00hr 00min 30.58sec\n",
   "file_format_version" : "0.0.1",
   "file_paths" : [ "../weather", "../seeds", "../seed" ],
   "hash" : "601BC856",
   "measure_paths" : [ "../measures" ],
   "name" : "LHS Autogenerated 88",
   "osa_id" : "4fef0e0f-5396-4c55-a6e1-2cd6803db3ab",
   "osd_id" : "20fa71e6-bde2-4862-93da-c0d9e4625b98",
   "run_directory" : "./run",
   "seed_file" : "seed.osm",
   "started_at" : "20170710T182420Z",
   "steps" : [
      {
         "arguments" : {
            "__SKIP__" : false,
            "building_type" : "Warehouse",
            "climate_zone" : "NECB HDD Method",
            "epw_file" : "CAN_PQ_Sherbrooke.716100_CWEC.epw",
            "template" : "NECB 2011"
         },
         "measure_dir_name" : "create_prototype_building",
         "name" : "create_prototype_building",
         "result" : {
            "completed_at" : "20170710T182512Z",
            "measure_class_name" : "CreatePrototypeBuilding",
            "measure_display_name" : "Create Prototype Building",
            "measure_name" : "create_prototype_building",
            "measure_taxonomy" : "Whole Building.Space Types",
            "measure_type" : "ModelMeasure",
            "measure_uid" : "ae90fsd7-a651-467a-bc8d-29d310b0f937",
            "measure_version_id" : "c6ec5c18-5595-459f-a082-09a19c8c869c",
            "measure_version_modified" : "20170519T182315Z",
            "measure_xml_checksum" : "057E8D9D",
            "started_at" : "20170710T182422Z",
            "stderr" : "",
            "stdout" : "[OpenStudio.Measure] <0> OSArgumentVector is deprecated, use OpenStudio::Measure::OSArgumentVector instead.\n[openstudio.EpwFile] <0> Successive data points (1986-Jan-31 to 1970-Feb-01, ending on line 753) are greater than 1 day apart in EPW file '/usr/local/bundle/bundler/gems/openstudio-standards-f448df66933d/openstudio-standards/data/weather/CAN_PQ_Sherbrooke.716100_CWEC.epw'. Data will be treated as typical (TMY)\n[openstudio.setFileExtension] <0> Path p, '/usr/local/bundle/bundler/gems/openstudio-standards-f448df66933d/openstudio-standards/data/weather/CAN_PQ_Sherbrooke.716100_CWEC.ddy', has an unexpected file extension. Was expecting 'idf'.\n[openstudio.model.YearDescription] <1> 'UseWeatherFile' is not yet a supported option for YearDescription\n[openstudio.model.YearDescription] <1> 'UseWeatherFile' is not yet a supported option for YearDescription\n[openstudio.setFileExtension] <0> Path p, '/usr/local/bundle/bundler/gems/openstudio-standards-f448df66933d/openstudio-standards/data/weather/CAN_PQ_Sherbrooke.716100_CWEC.ddy', has an unexpected file extension. Was expecting 'idf'.\n[openstudio.model.YearDescription] <1> 'UseWeatherFile' is not yet a supported option for YearDescription\n[openstudio.model.YearDescription] <1> 'UseWeatherFile' is not yet a supported option for YearDescription\n[openstudio.EpwFile] <0> Successive data points (1986-Jan-31 to 1970-Feb-01, ending on line 753) are greater than 1 day apart in EPW file '/usr/local/bundle/bundler/gems/openstudio-standards-f448df66933d/openstudio-standards/data/weather/CAN_PQ_Sherbrooke.716100_CWEC.epw'. Data will be treated as typical (TMY)\n[openstudio.weather.Model] <0> Could not find ground temperatures; will use generic temperatures, which will skew results.\n[openstudio.setFileExtension] <0> Path p, '/usr/local/bundle/bundler/gems/openstudio-standards-f448df66933d/openstudio-standards/data/weather/CAN_PQ_Sherbrooke.716100_CWEC.ddy', has an unexpected file extension. Was expecting 'idf'.\n[openstudio.model.YearDescription] <1> 'UseWeatherFile' is not yet a supported option for YearDescription\n[openstudio.model.YearDescription] <1> 'UseWeatherFile' is not yet a supported option for YearDescription\n[openstudio.EpwFile] <0> Successive data points (1986-Jan-31 to 1970-Feb-01, ending on line 753) are greater than 1 day apart in EPW file '/usr/local/bundle/bundler/gems/openstudio-standards-f448df66933d/openstudio-standards/data/weather/CAN_PQ_Sherbrooke.716100_CWEC.epw'. Data will be treated as typical (TMY)\n[openstudio.setFileExtension] <0> Path p, '/usr/local/bundle/bundler/gems/openstudio-standards-f448df66933d/openstudio-standards/data/weather/CAN_PQ_Sherbrooke.716100_CWEC.ddy', has an unexpected file extension. Was expecting 'idf'.\n[openstudio.model.YearDescription] <1> 'UseWeatherFile' is not yet a supported option for YearDescription\n[openstudio.model.YearDescription] <1> 'UseWeatherFile' is not yet a supported option for YearDescription\n[openstudio.setFileExtension] <0> Path p, '/usr/local/bundle/bundler/gems/openstudio-standards-f448df66933d/openstudio-standards/data/weather/CAN_PQ_Sherbrooke.716100_CWEC.ddy', has an unexpected file extension. Was expecting 'idf'.\n[openstudio.model.YearDescription] <1> 'UseWeatherFile' is not yet a supported option for YearDescription\n[openstudio.model.YearDescription] <1> 'UseWeatherFile' is not yet a supported option for YearDescription\n[openstudio.EpwFile] <0> Successive data points (1986-Jan-31 to 1970-Feb-01, ending on line 753) are greater than 1 day apart in EPW file '/usr/local/bundle/bundler/gems/openstudio-standards-f448df66933d/openstudio-standards/data/weather/CAN_PQ_Sherbrooke.716100_CWEC.epw'. Data will be treated as typical (TMY)\n[openstudio.setFileExtension] <0> Path p, '/usr/local/bundle/bundler/gems/openstudio-standards-f448df66933d/openstudio-standards/data/weather/CAN_PQ_Sherbrooke.716100_CWEC.ddy', has an unexpected file extension. Was expecting 'idf'.\n[openstudio.model.YearDescription] <1> 'UseWeatherFile' is not yet a supported option for YearDescription\n[openstudio.model.YearDescription] <1> 'UseWeatherFile' is not yet a supported option for YearDescription\n[openstudio.setFileExtension] <0> Path p, '/usr/local/bundle/bundler/gems/openstudio-standards-f448df66933d/openstudio-standards/data/weather/CAN_PQ_Sherbrooke.716100_CWEC.ddy', has an unexpected file extension. Was expecting 'idf'.\n[openstudio.model.YearDescription] <1> 'UseWeatherFile' is not yet a supported option for YearDescription\n[openstudio.model.YearDescription] <1> 'UseWeatherFile' is not yet a supported option for YearDescription\n[utilities.idf.WorkspaceObject] <0> Object of type 'Schedule:Constant' and named 'Always Off Discrete', points to an object named OnOff 1 from field 1, but that object cannot be located.\n[utilities.idf.WorkspaceObject] <0> Object of type 'Schedule:Constant' and named 'Always On Continuous', points to an object named Fractional 1 from field 1, but that object cannot be located.\n[utilities.idf.WorkspaceObject] <0> Object of type 'Schedule:Constant' and named 'Always Off Discrete', points to an object named OnOff 1 from field 1, but that object cannot be located.\n[utilities.idf.WorkspaceObject] <0> Object of type 'Schedule:Constant' and named 'Always On Continuous', points to an object named Fractional 1 from field 1, but that object cannot be located.\n[openstudio.standards.Fan] <0> For Fan Constant Volume 1, there is no greater nominal HP.  Use the efficiency of the largest motor category.\n[openstudio.standards.Fan] <0> For Fan Constant Volume 2, there is no greater nominal HP.  Use the efficiency of the largest motor category.\n[openstudio.standards.Fan] <0> For Fan Constant Volume 3, there is no greater nominal HP.  Use the efficiency of the largest motor category.\n[openstudio.EpwFile] <0> Successive data points (1986-Jan-31 to 1970-Feb-01, ending on line 753) are greater than 1 day apart in EPW file '/usr/local/bundle/bundler/gems/openstudio-standards-f448df66933d/openstudio-standards/data/weather/CAN_PQ_Sherbrooke.716100_CWEC.epw'. Data will be treated as typical (TMY)\n[openstudio.setFileExtension] <0> Path p, '/usr/local/bundle/bundler/gems/openstudio-standards-f448df66933d/openstudio-standards/data/weather/CAN_PQ_Sherbrooke.716100_CWEC.ddy', has an unexpected file extension. Was expecting 'idf'.\n[openstudio.model.YearDescription] <1> 'UseWeatherFile' is not yet a supported option for YearDescription\n[openstudio.model.YearDescription] <1> 'UseWeatherFile' is not yet a supported option for YearDescription\n[openstudio.setFileExtension] <0> Path p, '/usr/local/bundle/bundler/gems/openstudio-standards-f448df66933d/openstudio-standards/data/weather/CAN_PQ_Sherbrooke.716100_CWEC.ddy', has an unexpected file extension. Was expecting 'idf'.\n[openstudio.model.YearDescription] <1> 'UseWeatherFile' is not yet a supported option for YearDescription\n[openstudio.model.YearDescription] <1> 'UseWeatherFile' is not yet a supported option for YearDescription\n[openstudio.EpwFile] <0> Successive data points (1986-Jan-31 to 1970-Feb-01, ending on line 753) are greater than 1 day apart in EPW file '/usr/local/bundle/bundler/gems/openstudio-standards-f448df66933d/openstudio-standards/data/weather/CAN_PQ_Sherbrooke.716100_CWEC.epw'. Data will be treated as typical (TMY)\n[openstudio.setFileExtension] <0> Path p, '/usr/local/bundle/bundler/gems/openstudio-standards-f448df66933d/openstudio-standards/data/weather/CAN_PQ_Sherbrooke.716100_CWEC.ddy', has an unexpected file extension. Was expecting 'idf'.\n[openstudio.model.YearDescription] <1> 'UseWeatherFile' is not yet a supported option for YearDescription\n[openstudio.model.YearDescription] <1> 'UseWeatherFile' is not yet a supported option for YearDescription\n[openstudio.setFileExtension] <0> Path p, '/usr/local/bundle/bundler/gems/openstudio-standards-f448df66933d/openstudio-standards/data/weather/CAN_PQ_Sherbrooke.716100_CWEC.ddy', has an unexpected file extension. Was expecting 'idf'.\n[openstudio.model.YearDescription] <1> 'UseWeatherFile' is not yet a supported option for YearDescription\n[openstudio.model.YearDescription] <1> 'UseWeatherFile' is not yet a supported option for YearDescription\n[openstudio.EpwFile] <0> Successive data points (1986-Jan-31 to 1970-Feb-01, ending on line 753) are greater than 1 day apart in EPW file '/usr/local/bundle/bundler/gems/openstudio-standards-f448df66933d/openstudio-standards/data/weather/CAN_PQ_Sherbrooke.716100_CWEC.epw'. Data will be treated as typical (TMY)\n[openstudio.setFileExtension] <0> Path p, '/usr/local/bundle/bundler/gems/openstudio-standards-f448df66933d/openstudio-standards/data/weather/CAN_PQ_Sherbrooke.716100_CWEC.ddy', has an unexpected file extension. Was expecting 'idf'.\n[openstudio.model.YearDescription] <1> 'UseWeatherFile' is not yet a supported option for YearDescription\n[openstudio.model.YearDescription] <1> 'UseWeatherFile' is not yet a supported option for YearDescription\n[openstudio.setFileExtension] <0> Path p, '/usr/local/bundle/bundler/gems/openstudio-standards-f448df66933d/openstudio-standards/data/weather/CAN_PQ_Sherbrooke.716100_CWEC.ddy', has an unexpected file extension. Was expecting 'idf'.\n[openstudio.model.YearDescription] <1> 'UseWeatherFile' is not yet a supported option for YearDescription\n[openstudio.model.YearDescription] <1> 'UseWeatherFile' is not yet a supported option for YearDescription\n[openstudio.standards.Fan] <0> For Fan Constant Volume 1, there is no greater nominal HP.  Use the efficiency of the largest motor category.\n[openstudio.standards.Fan] <0> For Fan Constant Volume 2, there is no greater nominal HP.  Use the efficiency of the largest motor category.\n[openstudio.standards.Fan] <0> For Fan Constant Volume 3, there is no greater nominal HP.  Use the efficiency of the largest motor category.\n",
            "step_errors" : [],
            "step_files" : [],
            "step_info" : [
               "Started adding geometry",
               "Finished adding geometry",
               "Started adding weather file for climate zone: NECB HDD Method.",
               "Template =",
               "Setting Zone3 Bulk Storage to Space Function.Warehouse - med/blk",
               "Setting Zone2 Fine Storage to Space Function.Warehouse - fine",
               "Setting Zone1 Office to Space Function.Office - enclosed",
               "Started applying space types (loads)",
               "Space Function Office - enclosed had no people, one has been created.",
               "Space Function Office - enclosed set occupancy to 4.65 people/1000 ft^2.",
               "Space Function Office - enclosed had no lights, one has been created.",
               "Space Function Office - enclosed set LPD to 1.105536975 W/ft^2.",
               "Space Function Office - enclosed had no electric equipment, one has been created.",
               "Space Function Office - enclosed set electric EPD to 0.696767001 W/ft^2.",
               "Space Function Office - enclosed had no ventilation specification, one has been created.",
               "Space Function Office - enclosed set ventilation per area to 0.085 cfm/ft^2.",
               "Space Function Office - enclosed had no infiltration objects, one has been created.",
               "Space Function Office - enclosed set infiltration to 0.0 per ft^2 exterior surface area.",
               "Space Function Office - enclosed set occupancy schedule to NECB-A-Occupancy.",
               "Space Function Office - enclosed set occupant activity schedule to NECB-Activity.",
               "Space Function Office - enclosed set lighting schedule to NECB-A-Lighting.",
               "Space Function Office - enclosed set electric equipment schedule to NECB-A-Electric-Equipment.",
               "Space Function Office - enclosed set infiltration schedule to Always On.",
               "Space Function Office - enclosed set heating setpoint schedule to NECB-A-Thermostat Setpoint-Heating.",
               "Space Function Office - enclosed set cooling setpoint schedule to NECB-A-Thermostat Setpoint-Cooling.",
               "Space Function Warehouse - fine had no people, one has been created.",
               "Space Function Warehouse - fine set occupancy to 1.86 people/1000 ft^2.",
               "Space Function Warehouse - fine had no lights, one has been created.",
               "Space Function Warehouse - fine set LPD to 0.947603122 W/ft^2.",
               "Space Function Warehouse - fine had no electric equipment, one has been created.",
               "Space Function Warehouse - fine set electric EPD to 0.092902267 W/ft^2.",
               "Space Function Warehouse - fine had no ventilation specification, one has been created.",
               "Space Function Warehouse - fine set ventilation per area to 0.06 cfm/ft^2.",
               "Space Function Warehouse - fine had no infiltration objects, one has been created.",
               "Space Function Warehouse - fine set infiltration to 0.0 per ft^2 exterior surface area.",
               "Space Function Warehouse - fine set occupancy schedule to NECB-A-Occupancy.",
               "Space Function Warehouse - fine set occupant activity schedule to NECB-Activity.",
               "Space Function Warehouse - fine set lighting schedule to NECB-A-Lighting.",
               "Space Function Warehouse - fine set electric equipment schedule to NECB-A-Electric-Equipment.",
               "Space Function Warehouse - fine set infiltration schedule to Always On.",
               "Space Function Warehouse - fine set heating setpoint schedule to NECB-A-Thermostat Setpoint-Heating.",
               "Space Function Warehouse - fine set cooling setpoint schedule to NECB-A-Thermostat Setpoint-Cooling.",
               "Space Function Warehouse - med/blk had no people, one has been created.",
               "Space Function Warehouse - med/blk set occupancy to 0.93 people/1000 ft^2.",
               "Space Function Warehouse - med/blk had no lights, one has been created.",
               "Space Function Warehouse - med/blk set LPD to 0.594574508 W/ft^2.",
               "Space Function Warehouse - med/blk had no electric equipment, one has been created.",
               "Space Function Warehouse - med/blk set electric EPD to 0.092902267 W/ft^2.",
               "Space Function Warehouse - med/blk had no ventilation specification, one has been created.",
               "Space Function Warehouse - med/blk set ventilation per area to 0.06 cfm/ft^2.",
               "Space Function Warehouse - med/blk had no infiltration objects, one has been created.",
               "Space Function Warehouse - med/blk set infiltration to 0.0 per ft^2 exterior surface area.",
               "Space Function Warehouse - med/blk set occupancy schedule to NECB-A-Occupancy.",
               "Space Function Warehouse - med/blk set occupant activity schedule to NECB-Activity.",
               "Space Function Warehouse - med/blk set lighting schedule to NECB-A-Lighting.",
               "Space Function Warehouse - med/blk set electric equipment schedule to NECB-A-Electric-Equipment.",
               "Space Function Warehouse - med/blk set infiltration schedule to Always On.",
               "Space Function Warehouse - med/blk set heating setpoint schedule to NECB-A-Thermostat Setpoint-Heating.",
               "Space Function Warehouse - med/blk set cooling setpoint schedule to NECB-A-Thermostat Setpoint-Cooling.",
               "Finished applying space types (loads)",
               "Started applying constructions",
               "Adding construction set: NECB 2011-NECB HDD Method-Warehouse--is_residentialNo",
               "Adding construction Typical Insulated Exterior Mass Floor R-15.63.",
               "Adding construction Typical Insulated Exterior Mass Wall R-12.5.",
               "Adding construction Typical Insulated Metal Building Roof R-20.41.",
               "Adding construction Typical Interior Floor.",
               "Adding construction Typical Interior Wall.",
               "Adding construction Typical Interior Ceiling.",
               "Adding construction Typical Insulated Carpeted 6in Slab Floor.",
               "Adding construction U 0.55 SHGC 0.31 Dbl Ref-D Tint 6mm/6mm Air.",
               "Adding construction Typical Insulated Metal Door R-1.43.",
               "Adding construction U 0.35 SHGC 0.35 Dbl LoE (e2-.1) Tint 6mm/13mm Air.",
               "Adding construction Typical Overhead Door R-2.0.",
               "Adding construction U 0.48 SHGC 0.40 Dbl Ref-D Clr 6mm/13mm.",
               "Adding construction Typical Interior Window.",
               "Adding construction Typical Interior Door.",
               "Adding construction Typical Interior Partition.",
               "Finished applying constructions",
               "WWR NonRes = 0%; window = 0 ft2, wall = 0 ft2.",
               "WWR Res = 0%; window = 0 ft2, wall = 0 ft2.",
               "WWR Semiheated = 0%; window = 0 ft2, wall = 0 ft2.",
               "The skylight to roof ratios (SRRs) are: NonRes: 2%, Res: 0%.",
               "Started creating thermal zones",
               "Finished creating thermal zones",
               "Running simulation /mnt/openstudio/analysis_4fef0e0f-5396-4c55-a6e1-2cd6803db3ab/data_point_20fa71e6-bde2-4862-93da-c0d9e4625b98/run/000_create_prototype_building/output/Warehouse-NECB 2011-NECB HDD Method-CAN_PQ_Sherbrooke.716100_CWEC.epw/SR0.",
               "Finished run.",
               "Started Adding HVAC",
               "Finished adding HVAC",
               "Started Adding Service Water Heating",
               "Adding service water loop.",
               "Adding water heater.",
               "Template =",
               "Finished adding Service Water Heating",
               "Set sizing factors to 1.3 for heating and 1.3 for cooling.",
               "Running simulation /mnt/openstudio/analysis_4fef0e0f-5396-4c55-a6e1-2cd6803db3ab/data_point_20fa71e6-bde2-4862-93da-c0d9e4625b98/run/000_create_prototype_building/output/Warehouse-NECB 2011-NECB HDD Method-CAN_PQ_Sherbrooke.716100_CWEC.epw/SR1.",
               "Finished run.",
               "Started applying multizone vav OA sizing.",
               "Finished applying multizone vav OA sizing.",
               "Started applying prototype HVAC assumptions.",
               "For Fan Constant Volume 1: allowed_hp = 1.01HP; motor eff = 61.5%; total fan eff = 40% based on 1093 cfm.",
               "For Fan Constant Volume 2: allowed_hp = 8.66HP; motor eff = 61.5%; total fan eff = 40% based on 12660 cfm.",
               "For Fan Constant Volume 3: allowed_hp = 3.69HP; motor eff = 61.5%; total fan eff = 40% based on 5393 cfm.",
               "Sp-Zone3 Bulk Storage Sys-4 Flr-1 Sch-A HPlcmt-east ZN NECB System 4 PSZ requires an economizer because the total cooling capacity of 371050 Btu/hr exceeds the minimum capacity of 68243 Btu/hr.",
               "Sp-Zone1 Office Sys-3 Flr-1 Sch-A HPlcmt-south ZN NECB System 3 PSZ does not require an economizer because the total cooling capacity of 30835 Btu/hr is less than the minimum capacity of 68243 Btu/hr.",
               "Sp-Zone2 Fine Storage Sys-4 Flr-1 Sch-A HPlcmt-south ZN NECB System 4 PSZ requires an economizer because the total cooling capacity of 149140 Btu/hr exceeds the minimum capacity of 68243 Btu/hr.",
               "Finished applying prototype HVAC assumptions.",
               "Started applying HVAC efficiency standards.",
               "For Sp-Zone1 Office Sys-3 Flr-1 Sch-A HPlcmt-south ZN NECB System 3 PSZ, ERV not required based on 0% OA flow, design supply air flow of 1093cfm, and climate zone NECB HDD Method.",
               "For Sp-Zone1 Office Sys-3 Flr-1 Sch-A HPlcmt-south ZN NECB System 3 PSZ, ERV not required based on exhaust heat content.",
               "For NECB 2011 NECB HDD Method:  Sp-Zone1 Office Sys-3 Flr-1 Sch-A HPlcmt-south ZN NECB System 3 PSZ: DCV is not required for any system.",
               "For Sp-Zone1 Office Sys-3 Flr-1 Sch-A HPlcmt-south ZN NECB System 3 PSZ: Annual occupied hours = 2860 hr/yr, assuming a 0.15 occupancy threshold.  This schedule will be used as the HVAC operation schedule.",
               "For Sp-Zone1 Office Sys-3 Flr-1 Sch-A HPlcmt-south ZN NECB System 3 PSZ: Setting motorized OA damper schedule to Sp-Zone1 Office Sys-3 Flr-1 Sch-A HPlcmt-south ZN NECB System 3 PSZ Occ Sch.",
               "For Sp-Zone2 Fine Storage Sys-4 Flr-1 Sch-A HPlcmt-south ZN NECB System 4 PSZ, ERV not required based on 0% OA flow, design supply air flow of 5393cfm, and climate zone NECB HDD Method.",
               "For Sp-Zone2 Fine Storage Sys-4 Flr-1 Sch-A HPlcmt-south ZN NECB System 4 PSZ, ERV not required based on exhaust heat content.",
               "For NECB 2011 NECB HDD Method:  Sp-Zone2 Fine Storage Sys-4 Flr-1 Sch-A HPlcmt-south ZN NECB System 4 PSZ: DCV is not required for any system.",
               "For Sp-Zone2 Fine Storage Sys-4 Flr-1 Sch-A HPlcmt-south ZN NECB System 4 PSZ: Annual occupied hours = 2860 hr/yr, assuming a 0.15 occupancy threshold.  This schedule will be used as the HVAC operation schedule.",
               "For Sp-Zone2 Fine Storage Sys-4 Flr-1 Sch-A HPlcmt-south ZN NECB System 4 PSZ: Because the system has an economizer, it requires a motorized OA damper.",
               "For Sp-Zone2 Fine Storage Sys-4 Flr-1 Sch-A HPlcmt-south ZN NECB System 4 PSZ: Setting motorized OA damper schedule to Sp-Zone2 Fine Storage Sys-4 Flr-1 Sch-A HPlcmt-south ZN NECB System 4 PSZ Occ Sch.",
               "For Sp-Zone3 Bulk Storage Sys-4 Flr-1 Sch-A HPlcmt-east ZN NECB System 4 PSZ, ERV not required based on 0% OA flow, design supply air flow of 12660cfm, and climate zone NECB HDD Method.",
               "For Sp-Zone3 Bulk Storage Sys-4 Flr-1 Sch-A HPlcmt-east ZN NECB System 4 PSZ, ERV not required based on exhaust heat content.",
               "For NECB 2011 NECB HDD Method:  Sp-Zone3 Bulk Storage Sys-4 Flr-1 Sch-A HPlcmt-east ZN NECB System 4 PSZ: DCV is not required for any system.",
               "For Sp-Zone3 Bulk Storage Sys-4 Flr-1 Sch-A HPlcmt-east ZN NECB System 4 PSZ: Annual occupied hours = 2860 hr/yr, assuming a 0.15 occupancy threshold.  This schedule will be used as the HVAC operation schedule.",
               "For Sp-Zone3 Bulk Storage Sys-4 Flr-1 Sch-A HPlcmt-east ZN NECB System 4 PSZ: Because the system has an economizer, it requires a motorized OA damper.",
               "For Sp-Zone3 Bulk Storage Sys-4 Flr-1 Sch-A HPlcmt-east ZN NECB System 4 PSZ: Setting motorized OA damper schedule to Sp-Zone3 Bulk Storage Sys-4 Flr-1 Sch-A HPlcmt-east ZN NECB System 4 PSZ Occ Sch.",
               "For Fan Constant Volume 1: motor nameplate = 0.6810835506105282HP, motor eff = 61.5%.",
               "For Fan Constant Volume 2: motor nameplate = 8HP, motor eff = 61.5%.",
               "For Fan Constant Volume 3: motor nameplate = 3HP, motor eff = 61.5%.",
               "For Service Water Loop Pump: brake hp = 0.0HP, motor nameplate = 0.1HP, motor eff = 70.0%.",
               "For NECB 2011: Coil Cooling DX Single Speed 1: AirCooled Electric Resistance or None Single Package Capacity = 31kBtu/hr; SEER = 14.0",
               "For NECB 2011: Coil Cooling DX Single Speed 2: AirCooled Electric Resistance or None Single Package Capacity = 371kBtu/hr; EER = 8.39",
               "For NECB 2011: Coil Cooling DX Single Speed 3: AirCooled Electric Resistance or None Single Package Capacity = 149kBtu/hr; EER = 9.7",
               "For NECB 2011: 40.0gal Electricity Water Heater - 40kBtu/hr 1.0 Therm Eff; thermal efficiency = 1.0, skin-loss UA = 3Btu/hr",
               "Finished applying HVAC efficiency standards.",
               "Started adding daylighting controls.",
               "Finished adding daylighting controls.",
               "Total Time = 50sec."
            ],
            "step_result" : "Success",
            "step_values" : [
               {
                  "name" : "building_type",
                  "value" : "Warehouse"
               },
               {
                  "name" : "template",
                  "value" : "NECB 2011"
               },
               {
                  "name" : "climate_zone",
                  "value" : "NECB HDD Method"
               },
               {
                  "name" : "epw_file",
                  "value" : "CAN_PQ_Sherbrooke.716100_CWEC.epw"
               }
            ],
            "step_warnings" : [
               "[openstudio.EpwFile] Successive data points (1986-Jan-31 to 1970-Feb-01, ending on line 753) are greater than 1 day apart in EPW file '/usr/local/bundle/bundler/gems/openstudio-standards-f448df66933d/openstudio-standards/data/weather/CAN_PQ_Sherbrooke.716100_CWEC.epw'. Data will be treated as typical (TMY)",
               "[openstudio.EpwFile] Successive data points (1986-Jan-31 to 1970-Feb-01, ending on line 753) are greater than 1 day apart in EPW file '/usr/local/bundle/bundler/gems/openstudio-standards-f448df66933d/openstudio-standards/data/weather/CAN_PQ_Sherbrooke.716100_CWEC.epw'. Data will be treated as typical (TMY)",
               "[openstudio.weather.Model] Could not find ground temperatures; will use generic temperatures, which will skew results.",
               "[openstudio.EpwFile] Successive data points (1986-Jan-31 to 1970-Feb-01, ending on line 753) are greater than 1 day apart in EPW file '/usr/local/bundle/bundler/gems/openstudio-standards-f448df66933d/openstudio-standards/data/weather/CAN_PQ_Sherbrooke.716100_CWEC.epw'. Data will be treated as typical (TMY)",
               "[openstudio.EpwFile] Successive data points (1986-Jan-31 to 1970-Feb-01, ending on line 753) are greater than 1 day apart in EPW file '/usr/local/bundle/bundler/gems/openstudio-standards-f448df66933d/openstudio-standards/data/weather/CAN_PQ_Sherbrooke.716100_CWEC.epw'. Data will be treated as typical (TMY)",
               "[openstudio.standards.Fan] For Fan Constant Volume 1, there is no greater nominal HP.  Use the efficiency of the largest motor category.",
               "[openstudio.standards.Fan] For Fan Constant Volume 2, there is no greater nominal HP.  Use the efficiency of the largest motor category.",
               "[openstudio.standards.Fan] For Fan Constant Volume 3, there is no greater nominal HP.  Use the efficiency of the largest motor category.",
               "[openstudio.EpwFile] Successive data points (1986-Jan-31 to 1970-Feb-01, ending on line 753) are greater than 1 day apart in EPW file '/usr/local/bundle/bundler/gems/openstudio-standards-f448df66933d/openstudio-standards/data/weather/CAN_PQ_Sherbrooke.716100_CWEC.epw'. Data will be treated as typical (TMY)",
               "[openstudio.EpwFile] Successive data points (1986-Jan-31 to 1970-Feb-01, ending on line 753) are greater than 1 day apart in EPW file '/usr/local/bundle/bundler/gems/openstudio-standards-f448df66933d/openstudio-standards/data/weather/CAN_PQ_Sherbrooke.716100_CWEC.epw'. Data will be treated as typical (TMY)",
               "[openstudio.EpwFile] Successive data points (1986-Jan-31 to 1970-Feb-01, ending on line 753) are greater than 1 day apart in EPW file '/usr/local/bundle/bundler/gems/openstudio-standards-f448df66933d/openstudio-standards/data/weather/CAN_PQ_Sherbrooke.716100_CWEC.epw'. Data will be treated as typical (TMY)",
               "[openstudio.standards.Fan] For Fan Constant Volume 1, there is no greater nominal HP.  Use the efficiency of the largest motor category.",
               "[openstudio.standards.Fan] For Fan Constant Volume 2, there is no greater nominal HP.  Use the efficiency of the largest motor category.",
               "[openstudio.standards.Fan] For Fan Constant Volume 3, there is no greater nominal HP.  Use the efficiency of the largest motor category."
            ]
         }
      },
      {
         "arguments" : {
            "__SKIP__" : false
         },
         "measure_dir_name" : "view_model",
         "name" : "view_model",
         "result" : {
            "completed_at" : "20170710T182512Z",
            "measure_class_name" : "ViewModel",
            "measure_display_name" : "ViewModel",
            "measure_name" : "view_model",
            "measure_taxonomy" : "Reporting.QAQC",
            "measure_type" : "ModelMeasure",
            "measure_uid" : "f4669f10-fda5-489d-8e1c-7ca3c2d40378",
            "measure_version_id" : "f4975c5f-7c25-42a2-927b-02d99b4427ef",
            "measure_version_modified" : "20170526T150340Z",
            "measure_xml_checksum" : "1E1F8B97",
            "started_at" : "20170710T182512Z",
            "stderr" : "",
            "stdout" : "[OpenStudio.Measure] <0> OSArgumentVector is deprecated, use OpenStudio::Measure::OSArgumentVector instead.\n",
            "step_errors" : [],
            "step_files" : [
               "/mnt/openstudio/analysis_4fef0e0f-5396-4c55-a6e1-2cd6803db3ab/data_point_20fa71e6-bde2-4862-93da-c0d9e4625b98/run/001_view_model/report.html",
               "/mnt/openstudio/analysis_4fef0e0f-5396-4c55-a6e1-2cd6803db3ab/data_point_20fa71e6-bde2-4862-93da-c0d9e4625b98/run/001_view_model/report.json"
            ],
            "step_final_condition" : "Report written to <a href='file:////mnt/openstudio/analysis_4fef0e0f-5396-4c55-a6e1-2cd6803db3ab/data_point_20fa71e6-bde2-4862-93da-c0d9e4625b98/run/001_view_model/report.html'>report.html</a>.",
            "step_info" : [ "No changes made to the model." ],
            "step_result" : "NA",
            "step_values" : [
               {
                  "name" : "view_model_html_zip",
[...]
xe78dMqS6IYzb1ixZ3I76buzmXihiCXcra2KHVZb303TePkKmd2B5k7ihS+O+k5JuhDvXRF4PTccT6PYenzZiabGVRSmvTvuT6ap0LiMAk9dY3l1fjs9edU77n2c8vgmSlI3ZWc8nUV+JvyWu6kfTl5slV2vl9vJOPZn6b+k33m57fm3Xx+W7iMXy7SY7x1ZYxHOJ9nxu37I4wt7z2L5STmyPD+ZBe7i0A/F+3B6l0E0/vyTJefLRJeHwNLFLNtfnJfta/fWXX5auqfY8pf03E7Y0epdPCG/O7uddKwfnjN22Y54tU32o3ImPXmhy/lfb4n6opWf7D2q9jB/B9hYLD/ijU/Lbn9r75sqUXLIlIZkSjtkSiMypV0ypT0ypX0ypQMypbWXbxpK0UW5TRfmNl2c23SBbtNFuk0X6jZdrNt0wW7TRbtDF+0O4ZpOF+0OXbQ7mtH+vPGSYgaMuachVHKu9IRKzpSeUMl50hMqWRP0hEpWBD2hkvVAT6hkNdATKlkL9ITKEp+mEllsl6U9TSWy6C5LeppKZPFdlvI0lcgivCzhaSqRxXhZutNUolu/yWK8LNdpKunE+LPGF4ppTvTG0FAqOU2aSiWnSVOp5DRpKpUsBZpKJUuBplLJUqCpVLIUaCqVLAWaSmX5TleKLsrLMp6uFF2cl+U8XSm6SC/LerpSdLFelvd0peiivSzz6UoRrul00V6W/HSlKqMdL6PHy+gLIYXd8DL6ZxteRq+ChZfR42X0dTa8jF5seBk9Xkafb3gZffk38TL6agGx4WX0m/HORuAABzjAAQ5wgAMc4AAHOMDZeJzv7FWOoAENaEADGtCABjSgAQ1oQLM5NN/XOxuBAxzgAAc4wAEOcIADHOAA57vC+YbN2Y7HqX/rp4t3/JYHrPMftGf7HtuzFRdpMzqx7W9AJ7b91jqxDfqDEUkjNiOhIZXQDpXQiEpol0poj0pon0rogEpo7bl8MyWy2LbJgtsmi26bLLxtsvi2yQLcJotwmyzEbbIYd8hi3KFbv8li3CGLcUcvxtU7rq1r1W+4ZqIjP0v1262Z6MhXgfrN1kx05CtA/VZrJjry2W/QaM1IiCqiS9KbQZc1IyGqoC7JbQYt1oyEqOK6JLEZ9FczWhmpIrskqxk0VzMSoorskpRWv7Pauo5BYzUjIfkpMmirZiQkn/wGTdWMhOST36ClmpGQfPKbNFQzUyKL7ZLMZtJNzUyJLLxLkptJKzUzJbIIL8lvJn3UzNZKshgvSXEmTdTMlMhivCTLoYMaOqihg9ozQnRQExs6qKGDGjqolWzooIYOalpHhQ5qa/4a30cHtacbOqg9bg3csPWdNRoADnCAAxzgAAc4wAEOcIADnI3H+c76D4AGNKABDWhAAxrQgAY0oAHN5tD8bfoeAAc4wAEOcIADHOAABzjAAU59v2/QQQ0N076rhmln4yn35tlZFo9DJTxl9mAz2qYdbEDbtIPW2qbt5g+F1m1xQyU0pBLaoRIaUQntUgntUQntUwkdUAmtPX1vpkQW2zZZcNtk0W2ThbdNFt82WYDbZBFuk4W4TRbjDlmMO3TrN1mMO2Qx7ujFuHrbtHWt+m3TTHTkZ6l+2zQTHfkqUL9tmomOfAWo3zbNREc++w3aphkJUUV0SXozaJtmJEQV1CW5zaBtmpEQVVyXJDaDtmlGKyNVZJdkNYO2aUZCVJFdktLqt01b1zFom2YkJD9FBm3TjITkk9+gbZqRkHzyG7RNMxKST36TtmlmSmSxXZLZTNqmmSmRhXdJcjNpm2amRBbhJfnNpG2a2VpJFuMlKc6kbZqZElmMl2Q5tE1D2zS0TXtGiLZpYkPbNLRNQ9u0kg1t09A2Teuo0DZtzV/j+2ib9nRD27THrYG7tL6z7gLAAQ5wgAMc4AAHOMABDnCAs/E431nTAdCABjSgAQ1oQAMa0IAGNKDZHJq/TbMD4AAHOMABDnCAAxzgAAc4wKnvh7ZpxYa2aY9t0+yNaJvmDL7/tmkZY1tt0wZ9h6RrmonOkEhnh0hnRKSzS6SzR6SzT6RzQKSz9tC9kRBVRNtUIW1TxbRNFdQ2VVTbVGFtU8W1TRXYNlVkO1SR7ZCt1VSR7VBFtqMV2ert0dak6ndHM5CRnqH6vdEMZKTzvn5nNAMZ6Zyv3xfNQEY63w26opnoEMWxPI0ZtEQz0SEKZXkOM+iHZqJDFM3yBGbQDM1kHSSKZ3n2MuiEZqJDFM/y1FW/DdqajEEXNBMd6ekx6IFmoiOd7gYd0Ex0pNPdoP+ZiY50upt0PzMSoopoeQYzaX1mJEQV1PIkZtL3zEiIKq7lecyk6ZnRykgV2fJUZtLxzEiIKrLl2QztztDuDO3OnhGi3ZnY0O4M7c7Q7qxkQ7sztDvTOiq0O1vz1/g+2p093dDu7HFr4O6q76wrAHCAAxzgAAc4wAEOcIADHOBsPM531iwANKABDWhAAxrQgAY0oAENaDaH5m/TpAA4wAEOcIADHOAABzjAAQ5w6vuh3Vmxod3Zqt3ZcDO6ndkb0O3MbrHb2WBE1O7MQGhIJbRDJTSiEtqlEtqjEtqnEjqgEvriaXsTJbLYtsmC2yaLbpssvG2y+LbJAtwmi3CbLMRtshh3yGLcoVu/yWLcIYtxRy/GdbqgPdUyaYNWX0d+lkwaodXXka8CJq3Q6uvIVwCTZmj1deSz36gdmoEQVUSXpDejjmgGQlRBXZLbjJqiGQhRxXVJYjPqi2awMlJFdklWM2qNZiBEFdklKc2kO9pTHaP2aAZC8lNk1CDNQEg++Y1apBkIySe/UZM0AyH55Ddrk2aiRBbbJZnNrFOaiRJZeJckN7NmaSZKZBFekt/M+qWZrJVkMV6S4sxappkokcV4SZZD1zR0TUPXtGeE6JomNnRNQ9c0dE0r2dA1DV3TtI4KXdPW/DW+j65pTzd0TXvcGrhJ6ztrLgAc4AAHOMABDnCAAxzgAAc4G4/znfUcAA1oQAMa0IAGNKABDWhAA5rNofnb9DoADnCAAxzgAAc4wAEOcIADnPp+6JpWbOiatuqatrMZXdOcDeia5rTWNW03fya0bocbKqEhldAOldCISmiXSmiPSmifSuiASmjt4XszJbLYtsmC2yaLbpssvG2y+LbJAtwmi3CbLMRtshh3yGLcoVu/yWLcIYtxRy/G1bumrWvV75pmoiM/S/W7ppnoyFeB+l3TTHTkK0D9rmkmOvLZb9A1zUiIKqJL0ptB1zQjIaqgLsltBl3TjISo4roksRl0TTNaGakiuySrGXRNMxKiiuySlFa/a9q6jkHXNCMh+Sky6JpmJCSf/AZd04yE5JPfoGuakZB88pt0TTNTIovtksxm0jXNTIksvEuSm0nXNDMlsggvyW8mXdPM1kqyGC9JcSZd08yUyGK8JMuhaxq6pqFr2jNCdE0TG7qmoWsauqaVbOiahq5pWkeFrmlr/hrfR9e0pxu6pj1uDdyk9Z01FwAOcIADHOAABzjAAQ5wgAOcjcf5znoOgAY0oAENaEADGtCABjSgAc3m0Pxteh0ABzjAAQ5wgAMc4AAHOMABTn0/dE0rNnRNW3VNG21G17ThBnRNG7bWNW3Qd0iappnoDIl0doh0RkQ6u0Q6e0Q6+0Q6B0Q6a8/cGwlRRbRNFdI2VUzbVEFtU0W1TRXWNlVc21SBbVNFtkMV2Q7ZWk0V2Q5VZDtaka3eHW1Nqn5zNAMZ6Rmq3xrNQEY67+s3RjOQkc75+m3RDGSk892gKZqJDlEcy9OYQUc0Ex2iUJbnMIN2aCY6RNEsT2AGvdBM1kGieJZnL4NGaCY6RPEsT131u6CtyRg0QTPRkZ4egxZoJjrS6W7QAM1ERzrdDdqfmehIp7tJ8zMjIaqIlmcwk85nRkJUQS1PYiZtz4yEqOJansdMep4ZrYxUkS1PZSYNz4yEqCJbns3Q7QzdztDt7Bkhup2JDd3O0O0M3c5KNnQ7Q7czraNCt7M1f43vo9vZ0w3dzh63Bm6u+s6aAgAHOMABDnCAAxzgAAc4wAHOxuN8Z70CQAMa0IAGNKABDWhAAxrQgGZzaP42PQqAAxzgAAc4wAEOcIADHOAAp74fup0VG7qdrbqd7W5Gt7OdDeh2ttNit7PBiKjdmYHQkEpoh0poRCW0SyW0RyW0TyV0QCX0xdP2JkpksW2TBbdNFt02WXjbZPFtkwW4TRbhNlmI22Qx7pDFuEO3fpPFuEMW445ejOt0QXuqZdIGrb6O/CyZNEKrryNfBUxaodXXka8AJs3Q6uvIZ79ROzQDIaqILklvRh3RDISogroktxk1RTMQoorrksRm1BfNYGWkiuySrGbUGs1AiCqyS1KaSXe0pzpG7dEMhOSnyKhBmoGQfPIbtUgzEJJPfqMmaQZC8slv1ibNRIkstksym1mnNBMlsvAuSW5mzdJMlMgivCS/mfVLM1kryWK8JMWZtUwzUSKL8ZIsh65p6JqGrmnPCNE1TWzomoauaeiaVrKhaxq6pmkdFbqmrflrfB9d055u6Jr2uDVwk9Z31lwAOMABDnCAAxzgAAc4wAEOcDYe5zvrOQAa0IAGNKABDWhAAxrQgAY0m0Pzt+l1ABzgAAc4wAEOcIADHOAABzj1/dA1rdjQNW3VNW1vM7qmjTaga9qota5pu/kzoXU73FAJDamEdqiERlRCu1RCe1RC+1RCB1RCaw/fmymRxbZNFtw2WXTbZOFtk8W3TRbgNlmE22QhbpPFuEMW4w7d+k0W4w5ZjDt6Ma7eNW1dq37XNBMd+Vmq3zXNREe+CtTvmmaiI18B6ndNM9GRz36DrmlGQlQRXZLeDLqmGQlRBXVJbjPommYkRBXXJYnNoGua0cpIFdklWc2ga5qREFVkl6S0+l3T1nUMuqYZCclPkUHXNCMh+eQ36JpmJCSf/AZd04yE5JPfpGuamRJZbJdkNpOuaWZKZOFdktxMuqaZKZFFeEl+M+maZrZWksV4SYoz6ZpmpkQW4yVZDl3T0DUNXdOeEaJrmtjQNQ1d09A1rWRD1zR0TdM6KnRNW/PX+D66pj3d0DXtcWvgJq3vrLkAcIADHOAABzjAAQ5wgAMc4Gw8znfWcwA0oAENaEADGtCABjSgAQ1oNofmb9PrADjAAQ5wgAMc4AAHOMABDnDq+6FrWrGha9qqa9r+ZnRN292Armm7rXVNG/QdkqZpJjpDIp0dIp0Rkc4ukc4ekc4+kc4Bkc7aM/dGQlQRbVOFtE0V0zZVUNtUUW1ThbVNFdc2VWDbVJHtUEW2Q7ZWU0W2QxXZjlZkq3dHW5Oq3xzNQEZ6huq3RjOQkc77+o3RDGSkc75+WzQDGel8N2iKZqJDFMfyNGbQEc1EhyiU5TnMoB2aiQ5RNMsTmEEvNJN1kCie5dnLoBGaiQ5RPMtTV/0uaGsyBk3QTHSkp8egBZqJjnS6GzRAM9GRTneD9mcmOtLpbtL8zEiIKqLlGcyk85mREFVQy5OYSdszIyGquJbnMZOeZ0YrI1Vky1OZScMzIyGqyJZnM3Q7Q7czdDt7RohuZ2JDtzN0O0O3s5IN3c7Q7UzrqNDtbM1f4/vodvZ0Q7ezx62Bm6u+s6YAwAEOcIADHOAABzjAAQ5wgLPxON9ZrwDQgAY0oAENaEADGtCABjSg2Ryav02PAuAABzjAAQ5wgAMc4AAHOMCp74duZ8WGbmerbmcHm9HtbG8Dup3ttdbtzN4Z9AdPNnuHpPkZoeywGdmdZmRHzcjuNiO714zsfjOyB83Irj3rT6nb0DyzG5podkMzzW5oqtkNzTW7oclmNzTb7Iamm93QfHMamm9OU3mtofnmNDTfHJP5pt5Vrky5fpM5OlXVs1u/BR2dqupKVr9BHZ2q6ipWv30dnarqCmbQ3I5QtpnZpVwuGHTCI5RtZoIp1woGbfMIZZuZY8qFgkGPPcKs0MwsU64SDBryEco2M8uUS4T63fvKVA2a+RHKqp5ag1Z/hLKqC5hBI0BCWdUFzKBNIKGs6gJm0kSQUreheaZcKZh0HKTUbWiqKRcLJu0JKXUbmm3K9YJJL0PKPNHQfFMuGUwaH1LqNjTflKsGdElEl0R0SXxGiC6JYkOXRHRJRJfEkg1dEtElUeuo0CVxzV/j++iS+HRDl8THrYGbMr+zZiLAAQ5wgAMc4AAHOMABDnCAs/E431mPEdCABjSgAQ1oQAMa0IAGNKDZHJq/TW8T4AAHOMABDnCAAxzgAAc4wKnv9w26JH7kNzMeu+k85qzzZgtNE7+vpok8vvXHnP3HFZH3LopmTFwwcZ/zzuDNZjRQ3N+ABor77TVQFP+u26mJSGdIpLNDpDMi0tkl0tkj0tkn0jkg0llvMGAiRBXRNlVI21QxbVMFtU0V1TZVWNtUcW1TBbZNFdkOVWQ7ZGs1VWQ7VJHtaEW2RmO/p1IGnfzqy0jPkEGvvvoy0nlv0I2vvox0zhv026svI53vJh31DHSI4liexkya5BnoEIWyPIeZ9L0z0CGKZnkCM2llZ7AOEsWzPHuZdKcz0CGKZ3nqMmg491TGpMOcgY709Jj0kDPQkU53ky5xBjrS6W7SB85ARzrdjTq9mQhRRbQ8gxk1bzMRogpqeRIz6sdmIkQV1/I8ZtRizWRlpIpseSoz6ppmIkQV2fJs9kzo99iPYj9dMJv1WOdsHm6JllS7vf/nhr2B3cv//ZqPe0NbluYGa/+hd3y8s3NwQGDhNG8xbN5ip3mLUfMWu81b7DVvsd+8xUHzFmuZvSmPFua33cIEt1uY4XYLU9xuYY7bLUxyu4VZbrcwze0W5rnTwjx32sjjLcxzp4V57tSb507u4aYyj4FaWTUcOs7+LoGF/GqQWcgvBpmF/FqQWciXXDIL+YpLZiFfcMks5OstmYV8uSWzKCmr6DxamN8lZRWdRwszvKSsovNoYY6XlFV0Hi3M8pKyis6jhXleUlbRebSRx1uY5yVlFZ1HvXk+FB5vYl/i4RyolVW2vbc3HBJYyK8GmYX8YpBZyK8FmYV8ySWzkK+4ZBbyBZfMQr7eklnI740isyi5IZDOQ35HFZ2H/GYrOg/5fVh0HvJbtOg85Pcl0nnIb1mk85DfzUjnIb/Rkc6jhXleUlbRebSRx1tI5CVlFZ1HvVS+Izw+Tucyj321suog20avCCzkV4PMQn4xyCzk14LMQl5WkVnIyyoyC3lZRWYhL6vILOTLLZlFSVlF5yEvq+g85GUVnYe8rKLzkJdVdB7ysorOQ15W0XnIyyo6D3lZRefRwjwvKavoPNrI4y0k8pKyis6jXiofCY//cE/msadWVr1+fXKyt0dgIb8aZBbyi0FmIb8WZBbysorMQl5WkVnIyyoyC3lZRWYhX27JLErKKjoPeVlF5yEvq+g85GUVnYe8rKLzkJdVdB7ysorOQ15W0XnIyyo6jxbmeUlZRefRRh5vIZGXlFV0HvVS+W5eus25zGNXraw6OdndJbGQXw0yC/nFILOQXwsyC3lZRWYhL6vILORlFZmFvKwis5Avt2QWJWUVnYe8rKLzkJdVdB7ysorOQ15W0XnIyyo6D3lZRechL6voPORlFZ1HC/O8pKyi82gjj7eQyEvKKjqPeql8T3j8Gslui3dGamXV/r7jjEYEFvKrQWYhvxhkFvJrQWYhL6vILORlFZmFvKwis5CXVWQWZX2niCxKm61ReZR1q6LyKGtkReVR1uOKyqOs/RWVR1nPNyqPsnZwVB5lneKoPMqayFF5tDDPS8oqOo828ngLibykrKLzqE7ln1Q6vBY9mdkRC/ndqoFs3je2k9xOunkH2MpWsavGzglPX0Xz0Es6o0GX2faoy4biX85Ird3sfYbx2JTa807clE+ieHF87yfLtsiPx6/QPToTeB97PP4wF12KlXcUHIt1jl+5m8xjvsQQjZaL895we24MYxjDGMYwhjGMYQxjGMMYxjCGMYxhDGMYwxjGMIYxjGEMYxjDGMYwhjGMYQxjGMMYxjCGMYxhDGMYwxjGMIYxjGEMYxjDGMYwhjGMYQz/nxpe9KNbHse+x391xYO1dn9g+LyqeDQ2WX809ozHPk+Kx2ut7uoB4lkQpf3AD3nlI7LJ157TrX6yNunnr56fRYGb+lGYQVlJyme9S34VxdxSe/L5HZ/w0Fs/oOVnnd1Blw3Fk8sD8SCz+GEF/CoVYBXSK9n+xYSnp2Eqzk9mcTUPxzlpZ4v9WSGxIuSPe59XPsstNv+KddKpn/ST/KqoGYntyU797PyduuNp5y9gXbUVvnh0PGMvdC9mUeILwdfZxypHs9qEzFeo4uhOD2mF5YceF/OhZ3c1915t13V3vPJ5IOKtU5zT5TyZxNF8xj3244/sH8Xn9/2LqZsUz7+LCbb1dHTx1dHshPTdyeSN8OgHPJykU/aSOezfzDoOAosdrn8jCfwx7/TsrfPBp63K+fbsSKKYda6zQxn8xK4zmyJUC1/x2T+zFUf/AolNhHGhd379qf+ZL9jR0dHy5NVTzFWLy36te6ir7TLm7uc6Oz9o7qP7fXG+iqM7EmEtgqGIlLyRQ//CTRJ/EnLvRLSISM7zM/mp3qlcXejZPJl26l6L7JIeLq9n/ZkUBIcqR9kX36zrkqRx9Jmr+Sy/W9cpmrljP12oWRVfrn1UucXKqq7KaiFZX1bqTA/txUdsq+m8vvCwHrN11XSmmzrrQzfPqkrff6iqKcS2vc1+/+Mj++/7Pz6ws/cfPv7y28/s3fuffzlhb08/nKoJvMlWbX7vihKNpRFLojhl4fwmi4Mxy1uaJMxNxlnx4ocTBcXVuRc6TzKz22WX6otLzNN5HLKZGyf8TRC5accVS/5WdimffHaZf6Z0MqtLtCe2xSFUCT802+nlsf7Mp3s+2TsvPH7lzoOUzeIoW8P4iy578cP+/snJ6emLhhvPAAc4wAEOcIADHOAABzjAAc7/TRyWzG+y/wRmHhcfMs9dCKKYe6ABDWhAAxrQgAY0oAENaEADmnKau/zWrC9oLoM5Bw5wgAMc4AAHOMABDnCAAxzg1MF5fG+gLd4beDaXvTdwaOd/YTs+3tk5OAApSEEKUpCCFKQgBSlIQQpSkIIUpJtB6uSkbiojHeSkw6Hj7O+CFKQgBSlIQQpSkIIUpCAFKUhBCtLNIB0K0jexLyF1DnJS297bGw5BClKQghSkIAUpSEEKUpCCFKQgBelmkO4I0o/TuYx0Pyc9yLbRK5CCFKQgBSlIQQpSkIIUpCAFKUhBuhmkI0H6H+7JSPdy0tevT0729kAKUpCCFKQgBSlIQQpSkIIUpCAF6WaQ7ua/mZhzGeluTnpysrsLUpCCFKQgBSlIQQpSkIIUpCAFKUg3hXRPkP4ayToLOqOcdH/fcUYjkIIUpCAFKUhBClKQghSkIAUpSEHaGukKxYvdu06l2H0/9dOAn03dGe+n/D7tvHgbzeOkGmPxfM/X/g0PEz8KA57kChUS29vs2POYy3IlduenU5ZEN5x5w4o9k9tJ353NeOh1LOFtbVXssNr6bprGHeve6rLdgeZOi2wnR32nJF0EfInXc8PxNIqz/a2AX2nQFhpXUZj27rg/maZC4zIKPHWN5bU5m/X+F4XcZu+vrvwxZ2eLpDdkb4K4Z7Oz8bR3zN7+Hoxv0l4SzbPL8L/f2G+nJ6/E11J+w4bs97P/sffjsfjui62yC/tyOxnH/iz9l/Q7L7c9//brw9J95GKZFvO9I2ssov4kO1GuH/L4wjmwWH72jizPT2aBuzj0wyAb6l0G0fjzT5acLxNdHgJLF7Nsf3ECt6/dW3f5aemeYrt1YxGg7Ih5/s0s4P2Q353dTjrWD88Zu2xnMMh/VE44Ieu5qZvpnv9pBe4lD6xDy+NX7jxI2SyOrvyAW93lyMW9dWj3B13r1g3mvPj3WKxL2T7ZUnNycnpqPXSVdBwinSGRzg6RzohIZ5dIZ49IZ59I54BIxx5QCVFFtE0V0jZVTNtUQW1TRbVNFdY2VVzbVIFtU0W2QxXZDtlaTRXZDlVkO1qRzZL5zc3ai6qVMlrMPQ0Z6TnSk5GeIT0Z6fnRk5HOez0Z6azXk5HOeT0Z6YzXk5HOdz0ZeSLT1CGKY3ka09QhimR5EtPUIYpleQrT1CGKZnkC09Qhimd5+tLUoVqXieJZnrs0ddTj+c4PU/20dSk+UteRnh5NHenp0dSRnh5NHel019SRTndNHel019SRTndNHel019SR5y9dIaqIlmcwXSGqmJbnMF0hqqiWZzFdIaq4lucxXSGqyJZnMl0hsrWaKrLlyUxXSD2yH/9yUflmYVmaG6z9h97y1cMEFk7zFsPmLXaatxg1b7HbvMVe8xb7zVscNG+xltmb8mhhftstTHC7hRlutzDF7RbmuN3CJLdbmOV2C9PcbmGeOy3Mc6eNPN7CPHdamOdOvXle+QJHtbJq+YZHAgv51SCzkF8MMgv5tSCzkC+5ZBbyFZfMQr7gklnI11syC/lyS2ZRUlbRebQwv0vKKjqPFmZ4SVlF59HCHC8pq+g8WpjlJWUVnUcL87ykrKLzaCOPtzDPS8oqOo9687zyPVlqZdXyRVoEFvKrQWYhvxhkFvJrQWYhX3LJLOQrLpmFfMEls5Cvt2QW8nujyCxKbgik85DfUUXnIb/Zis5Dfh8WnYf8Fi06D/l9iXQe8lsW6TzkdzPSechvdKTzaGGel5RVdB5t5PEWEnlJWUXnUS+VV76ORK2sWr6vhMBCfjXILOQXg8xCfi3ILORlFZmFvKwis5CXVWQW8rKKzEK+3JJZlJRVdB7ysorOQ15W0XnIyyo6D3lZRechL6voPORlFZ2HvKyi85CXVXQeLczzkrKKzqONPN5CIi8pq+g86qXyyq7vamXVsi08gYX8apBZyC8GmYX8WpBZyMsqMgt5WUVmIS+ryCzkZRWZhXy5JbMoKavoPORlFZ2HvKyi85CXVXQe8rKKzkNeVtF5yMsqOg95WUXnIS+r6DxamOclZRWdRxt5vIVEXlJW0XnUS+WVzXXVyqpl910CC/nVILOQXwwyC/m1ILOQl1VkFvKyisxCXlaRWcjLKjIL+XJLZlFSVtF5yMsqOg95WUXnIS+r6DzkZRWdh7ysovOQl1V0HvKyis5DXlbRebQwz0vKKjqPNvJ4C4m8pKyi86iXyit7GKqVVcsmhwQW8qtBZiG/GGQW8mtBZiEvq8gs5GUVmYW8rCKzkJdVZBZlfaeILEqbrVF5lHWrovIoa2RF5VHW44rKo6z9FZVHWc83Ko+ydnBUHmWd4qg8yprIUXm0MM9Lyio6jzbyeAuJvKSsovOoTuWfVDq8Fu2b2REL+d2qgWzeN7aT3E66eQfYylaxqx7QCU9fRfPQSzqjQZfZ9qjLhuJfzkit3ex9hvHY2trzTtyUT6J4cXzvJ8seyo/Hr9BoOhN4H3s8/jAXLY2VdxQci3WOX7mbzGO+xBBdmYvz3nCTbwxjGMMYxjCGMYxhDGMYwxjGMIYxjGEMYxjDGMYwhjGMYQxjGMMYxjCGMYxhDGMYwxjGMIYxjGEMYxjDGMYwhjGMYQxjGMMYxjCGMYxhDP+fGl70o1sex77Hf3XFg7V2f2D4vKp4NDZZfzT2jMc+T4rHa63u6gHiWRCl/cAPeeUjssnXntOtfrI26eevnp9FgZv6UZhBWUnKZ71LfhXF3FJ78vkdn/DQWz+g5Wed3UGXDcWTywPxILP4YQX8KhVgFdIr2f7FhKenYSrOT2ZxNQ/HOWlni/1ZIbEi5I97n1c+yy02/4p10qmf9JP8qqgZie3JTv3s/J2642nnL2BdtRW+eHQ8Yy90L2ZR4gvB19nHKkez2oTMV6ji6E4PaYXlhx4X86FndzX3Xm3XdXe88nkg4q1TnNPlPJnE0XzGPfbjj+wfxef3/YupmxTPv4sJtvV0dPHV0eyE9N3J5I3w6Ac8nKRT9pI57N/MOg4Cix2ufyMJ/DHv9Oyt88Gnrcr59uxIoph1rrNDGfzErjObIlQLX/HZP7MVR/8CiU2EcaF3fv2p/5kv2NHR0fLk1VPMVYvLfq17qKvtMubu5zo7P2juo/t9cb6KozsSYS2CoYiUvJFD/8JNEn8Scu9EtIhIzvMz+aneqVxd6Nk8mXbqXovskh4ur2f9mRQEhypH2RffrOuSpHH0mav5LL9b1ymauWM/XahZFV+ufVS5xcqqrspqIVlfVupMD+3FR2yr6by+8LAes3XVdKabOutDN8+qSt9/qKopxLa9zX7/4yP77/s/PrCz9x8+/vLbz+zd+59/OWFvTz+cqgm8yVZtfu+KEo2lEUuiOGXh/CaLgzHLW5okzE3GWfHihxMFxdW5FzpPMrPbZZfqi0vM03kcspkbJ/xNELlpxxVL/lZ2KZ98dpl/pnQyq0u0J7bFIVQJPzTb6eWx/synez7ZOy88fuXOg5TN4ihbw/iLLnvxw/7+ycnp6YuGG88ABzjAAQ5wgAMc4AAHOMABzv9NHJbMb7L/BGYeFx8yz10Ioph7oAENaEADGtCABjSgAQ1oQAOacpq7/NasL2gugzkHDnCAAxzgAAc4wAEOcIADHODUwXl8b6At3ht4Npe9N3Bo539hOz7e2Tk4AClIQQpSkIIUpCAFKUhBClKQghSkm0Hq5KRuKiMd5KTDoePs74IUpCAFKUhBClKQghSkIAUpSEEK0s0gHQrSN7EvIXUOclLb3tsbDkEKUpCCFKQgBSlIQQpSkIIUpCAF6WaQ7gjSj9O5jHQ/Jz3IttErkIIUpCAFKUhBClKQghSkIAUpSEG6GaQjQfof7slI93LS169PTvb2QApSkIIUpCAFKUhBClKQghSkIAXpZpDu5r+ZmHMZ6W5OenKyuwtSkIIUpCAFKUhBClKQghSkIAUpSDeFdE+Q/hrJOgs6o5x0f99xRiOQghSkIAUpSEEKUpCCFKQgBSlIQdoa6QrFi927TqXYfT/104CfTd0Z76f8Pu28eBvN46QaY/F8z9f+DQ8TPwoDnuQKFRLb2+zY85jLciV256dTlkQ3nHnDij2T20nfnc146HUs4W1tVeyw2vpumsYd697qst2B5k6LbCdHfackXQR8iddzw/E0irP9rYBfadAWGldRmPbuuD+ZpkLjMgo8dY3ltTmb9f4Xhdxhb/yQs7M0it1J9r+LpLfD3gRxz2Zn42nvmL39PRjfpL0kmmcX43+/sd9OT16Jr6X8hu2w38/+x96Px+K7L7bKLu/L7WQc+7P0X9LvvNz2/NuvD0v3kYtlWsz3jqyxiP2T7HS52WHGF8OBxfJzeGR5fjIL3MWhHwbZUO8yiMaff7LkfJno8hBYuphl+4vTuH3t3rrLT0v3FNutG4swZUfM829mAe+H/O7sdtKxfnjO2GU7g0H+o3LaCVnPTd1M9/xPK3AveWAdWh6/cudBymZxdOUH3OouRy7urUO7P+hat24w58W/x2J1yvbJFpyTk9NT66GrpOMQ6QyJdHaIdEZEOrtEOntEOvtEOgdEOvaASogqom2qkLapYtqmCmqbKqptqrC2qeLapgpsmyqyHarIdsjWaqrIdqgi29GKbJbMb27WXletlNFi7mnISM+Rnoz0DOnJSM+Pnox03uvJSGe9nox0zuvJSGe8nox0vuvJyBOZpg5RHMvTmKYOUSTLk5imDlEsy1OYpg5RNMsTmKYOUTzL05emDtW6TBTP8tylqaMez3d+mOqnrUvxkbqO9PRo6khPj6aO9PRo6kinu6aOdLpr6kinu6aOdLpr6kinu6aOPH/pClFFtDyD6QpRxbQ8h+kKUUW1PIvpClHFtTyP6QpRRbY8k+kKka3VVJEtT2a6QuqR/fj3i8r3C8vS3GDtP/SWLyAmsHCatxg2b7HTvMWoeYvd5i32mrfYb97ioHmLtczelEcL89tuYYLbLcxwu4Upbrcwx+0WJrndwiy3W5jmdgvz3Glhnjtt5PEW5rnTwjx36s3zytc4qpVVy/c8EljIrwaZhfxikFnIrwWZhXzJJbOQr7hkFvIFl8xCvt6SWciXWzKLkrKKzqOF+V1SVtF5tDDDS8oqOo8W5nhJWUXn0cIsLymr6DxamOclZRWdRxt5vIV5XlJW0XnUm+eVb8tSK6uWr9MisJBfDTIL+cUgs5BfCzIL+ZJLZiFfccks5AsumYV8vSWzkN8bRWZRckMgnYf8jio6D/nNVnQe8vuw6Dzkt2jRecjvS6TzkN+ySOchv5uRzkN+oyOdRwvzvKSsovNoI4+3kMhLyio6j3qpvPKlJGpl1fKtJQQW8qtBZiG/GGQW8mtBZiEvq8gs5GUVmYW8rCKzkJdVZBby5ZbMoqSsovOQl1V0HvKyis5DXlbRecjLKjoPeVlF5yEvq+g85GUVnYe8rKLzaGGel5RVdB5t5PEWEnlJWUXnUS+VV/Z+Vyurls3hCSzkV4PMQn4xyCzk14LMQl5WkVnIyyoyC3lZRWYhL6vILOTLLZlFSVlF5yEvq+g85GUVnYe8rKLzkJdVdB7ysorOQ15W0XnIyyo6D3lZRefRwjwvKavoPNrI4y0k8pKyis6jXiqvbLGrVlYte/ASWMivBpmF/GKQWcivBZmFvKwis5CXVWQW8rKKzEJeVpFZyJdbMouSsorOQ15W0XnIyyo6D3lZRechL6voPORlFZ2HvKyi85CXVXQe8rKKzqOFeV5SVtF5tJHHW0jkJWUVnUe9VF7ZyVCtrFq2OiSwkF8NMgv5xSCzkF8LMgt5WUVmIS+ryCzkZRWZhbysIrMo6ztFZFHabI3Ko6xbFZVHWSMrKo+yHldUHmXtr6g8ynq+UXmUtYOj8ijrFEflUdZEjsqjhXleUlbRebSRx1tI5CVlFZ1HdSr/pNLhtWjizI5YyO9WDWTzvrGd5HbSzTvAVraKXXWCTnj6KpqHXtIZDbrMtkddNhT/ckZq7WbvM4zHBteed+KmfBLFi+N7P1l2Un48foV205nA+9jj8Ye5aGysvKPgWKxz/MrdZB7zJYbozVyc94ZbfWMYwxjGMIYxjGEMYxjDGMYwhjGMYQxjGMMYxjCGMYxhDGMYwxjGMIYxjGEMYxjDGMYwhjGMYQxjGMMYxjCGMYxhDGMYwxjGMIYxjGEMY/j/1PCiH93yOPY9/qsrHqy1+wPD51XFo7HJ+qOxZzz2eVI8Xmt1Vw8Qz4Io7Qd+yCsfkU2+9pxu9ZO1ST9/9fwsCtzUj8IMykpSPutd8qso5pbak8/v+ISH3voBLT/r7A66bCieXB6IB5nFDyvgV6kAq5BeyfYvJjw9DVNxfjKLq3k4zkk7W+zPCokVIX/c+7zyWW6x+Vesk079pJ/kV0XNSGxPdupn5+/UHU87fwHrqq3wxaPjGXuhezGLEl8Ivs4+Vjma1SZkvkIVR3d6SCssP/S4mA89u6u592q7rrvjlc8DEW+d4pwu58kkjuYz7rEff2T/KD6/719M3aR4/l1MsK2no4uvjmYnpO9OJm+ERz/g4SSdspfMYf9m1nEQWOxw/RtJ4I95p2dvnQ8+bVXOt2dHEsWsc50dyuAndp3ZFKFa+IrP/pmtOPoXSGwijAu98+tP/c98wY6OjpYnr55irlpc9mvdQ11tlzF3P9fZ+UFzH93vi/NVHN2RCGsRDEWk5I0c+hdukviTkHsnokVEcp6fyU/1TuXqQs/mybRT91pkl/RweT3rz6QgOFQ5yr74Zl2XJI2jz1zNZ/nduk7RzB376ULNqvhy7aPKLVZWdVVWC8n6slJnemgvPmJbTef1hYf1mK2rpjPd1FkfunlWVfr+Q1VNIbbtbfb7Hx/Zf9//8YGdvf/w8Zfffmbv3v/8ywl7e/rhVE3gTbZq83tXlGgsjVgSxSkL5zdZHIxZ3tIkYW4yzooXP5woKK7OvdB5kpndLrtUX1xins7jkM3cOOFvgshNO65Y8reyS/nks8v8M6WTWV2iPbEtDqFK+KHZTi+P9Wc+3fPJ3nnh8St3HqRsFkfZGsZfdNmLH/b3T05OT1803HgGOMABDnCAAxzgAAc4wAEOcP5v4rBkfpP9JzDzuPiQee5CEMXcAw1oQAMa0IAGNKABDWhAAxrQlNPc5bdmfUFzGcw5cIADHOAABzjAAQ5wgAMc4ACnDs7jewNt8d7As7nsvYFDO/8L2/Hxzs7BAUhBClKQghSkIAUpSEEKUpCCFKQg3QxSJyd1UxnpICcdDh1nfxekIAUpSEEKUpCCFKQgBSlIQQpSkG4G6VCQvol9CalzkJPa9t7ecAhSkIIUpCAFKUhBClKQghSkIAUpSDeDdEeQfpzOZaT7OelBto1egRSkIAUpSEEKUpCCFKQgBSlIQQrSzSAdCdL/cE9GupeTvn59crK3B1KQghSkIAUpSEEKUpCCFKQgBSlIN4N0N//NxJzLSHdz0pOT3V2QghSkIAUpSEEKUpCCFKQgBSlIQboppHuC9NdI1lnQGeWk+/uOMxqBFKQgBSlIQQpSkIIUpCAFKUhBCtLWSFcoXuzedSrF7vupnwb8bOrOeD/l92nnxdtoHifVGIvne772b3iY+FEY8CRXqJDY3mbHnsdcliuxOz+dsiS64cwbVuyZ3E767mzGQ69jCW9rq2KH1dZ30zTuWPdWl+0ONHdaZDs56jsl6SLgS7yeG46nUZztbwX8SoO20LiKwrR3x/3JNBUal1HgqWssr83ZrPe/KORD9moefGZnaRS7E87OFklvh70J4p7NzsbT3jF7+3swvkl73E1S9r/f2G+nJ6/Et1J+w3bY72f/Y+/HY/HVF1tlV/fldjKO/Vn6L+l3Xm57/u3Xh6X7yMUyLeZ7R9ZYhP5JdrZcP+TxxdC2WH4KjyzPT2aBuzj0wyAb6l0G0fjzT5acLxNdHgJLF7Nsf3EWt6/dW3f5aemeYrt1YxGl7Ih5/s0s4P2Q353dTjrWD88Zu2xnMMh/VM46Ieu5qZvpnv9pBe4lD6xDy+NX7jxI2SyOrvyAW93lyMW9dWj3B13r1g3m3DrcPegfPNn2D7rWWCxVmUK2+pycnJ5aD10lVacR1WEjqjuNqI4aUd1tRHWvEdX9RlQPGlG1B83INjO77Gaml93M/LKbmWB2MzPMbmaK2c3MMbuZSWY3M8ucZmaZ01AOa2aWOc3MMsdglrFkfnOz9vbvGhVCzD0NUcVzqyeqeGb1RBXPq56o4tqlJ6q4cumJKq5beqKKq5aeqOKapSeqWhhoqjYyp1TLAk3VRmaValGgqdrIvFItCTRVG5lZqgWBpmojc0u1HNBUbSZfNTK3VGsBTdW6c+vOD1PTMuBSfEFdVfG0aqoqnlZNVcXTqqmquGRpqiouWZqqikuWpqrikqWpqrhkaaqq1gO6ss3MLtWKQFe2mfmlWhPoyjYzw1SrAl3ZZuaYal2gK9vMLFOtDHRlG8phzcwy1eJAV1Zrln1S+YND8SdFdsRCfrf6e0b+Z4xOcjvp5n+QqPzLxervkglPX0Xz0Es6o0GX2faoy4biX85I7a8f9xnG459bPe/ETfkkihfH936y/Lve46lQ+ONnJvA+9nj8YS7+zKa8o+BYrHP8yt1kHvMlhvhLYXEJTP+cm/8dad3qjMc+TwrczKm4ILMgSvvij1uVlsnXjruaNOnncTeLAjf1ozCDspKUz3qX/CqKuaUWSe/4hIfe+gEtP+vsZlEwFJEg/hhmix/FX0sr/5C8ku1fTHh6Gqbi/GQWV/NwnJN2ttifCn8uFYT8ce/zyrkhNv+KddKpn2RxLfZTMxLbk5362fk7dcfTzl/Aumor/OJvg4XuxSxKfCH4OvtY5WhWm5D5ClUc3ekhrbD80ONi4vbsrubeq+267o5XPg9EvHWKc7qcJ5M4ms+4x378kf2j+Py+fzF1k2I9ERNs6+no4quj2Qnpu5PJG+HRD3g4SafsJXPYv5l1HAQWO1z/RhL4Y97p2Vvng09blfPt2ZFEMetcZ4cy+IldZzZFqBa+4rN/HjFb/wKJTYRxoXd+/an/mWfL29HR8uTVU8xVi8t+rXuoq+0y5u7nOjs/aO6j+31xvoqjOxJhLYKhiJQ8MfYvlrcCcS+/GSg5z8/kp3qncnWhZ/Nk2ql7LbJLeri8nvVnUhAcqhxlX3yzrkuSxtFnruaz/G5dp2jmjv10oWZVfLn2UeUWK6u6KquFZH1ZqTM9tBcfsa2m8/rCw3rM1lXTmW7qrA/dPKsqff+hqqYQ2/Y2+/2Pj+y/7//4wM7ef/j4y28/s3fvf/7lhL09/XCqJvAmW7X5vStKNJZGLImyQjqc32RxMGZ5iZgwNxlnxYsfThQUV+de6DzJzG6XXaovLjFP53HIZm6c8DdB5KYdVyz5W9mlfPLZZf6Z0smsLtGe2BaHUCX88A1u2fziD7DFfZniD6rf5A5S4AAHOMABDnCAAxzgAAc4wNl4nOc3uAiimHugAQ1oQAMa0IAGNKABDWhAA5pymme3BAoacYsfcIADHOAABzjAAQ5wgAMc4ADnGzZK/MhvZjx203nMWefNFlolfletEv/jioh7y/P/Ob659HmYMnHJRN9D7s2z899je4M3m9EC0dmAFohOay0Q8wdP67ZgItIZEunsEOmMiHR2iXT2iHT2iXQOiHTWegsYCVFFtE0V0jZVTNtUQW1TRbVNFdY2VVzbVIFtU0W2QxXZDtlaTRXZDlVkO1qRrd6yb02qfpM+AxnpGarfiM9ARjrv6zfbM5CRzvn6DfUMZKTz3aBpnokOURzL05hBKzwTHaJQlucwgwZ3JjpE0SxPYAZt60zWQaJ4lmcvg2Z0JjpE8SxPXfVbzK3JGDSVM9GRnh6DxnEmOtLpbtAczkRHOt0NGsCZ6Einu0mTNyMhqoiWZzCT1m1GQlRBLU9iJg3ZjISo4lqex0zarBmtjFSRLU9lJs3TjISoIluezdASbSNaomEYwxjGMIYxjGEMYxjDGMYwhjGMYQxj+HsaXvSjWx7Hvsd/dcUvquz+AC3xnxwJWuI/bmiJr7WhJT5a4mtsaIn/5YaW+F9uaImvuaElPlrif3VDS3zgAAc4wAEOcIADHOAABzjAAc4mNJQEDWhAAxrQgAY0oAENaEADms2h+ds0sgQOcIADHOAABzjAAQ5wgAOc+n7foCX+a/+Gh4kfhQFPEjTE/74a4kfxZ3Z6deWPfR6OF49t8NttgF98+4uRp/9/9e/l/z6qF/94/J/LyFuI/52mN8G//r//H14ifO4="
               },
               {
                  "name" : "annual_peak_electric_demand",
                  "units" : "kW",
                  "value" : 293.19662
               },
               {
                  "name" : "first_year_capital_cost",
                  "units" : "$",
                  "value" : 0
               },
               {
                  "name" : "annual_utility_cost",
                  "units" : "$",
                  "value" : 0
               },
               {
                  "name" : "total_lifecycle_cost",
                  "units" : "$",
                  "value" : 0
               }
            ],
            "step_warnings" : [ "A table in Annual Overview section returned false and was skipped." ]
         }
      }
   ],
   "updated_at" : "20170710T182611Z",
   "weather_file" : "USA_CO_Denver.Intl.AP.725650_TMY3.epw"
}
