{
   "completed_at" : "20170710T191847Z",
   "completed_status" : "Success",
   "created_at" : "2017-07-10 19:05:12 +0000",
   "current_step" : 5,
   "description" : "",
   "eplusout_err" : "Program Version,EnergyPlus, Version 8.7.0-78a111df4a, YMD=2017.07.10 19:09,IDD_Version 8.7.0\n   ************* IDF Context for following error/warning message:\n   ************* Note -- lines truncated at 300 characters, if necessary...\n   *************      5 Building,\n   ************* indicated Name=NECB 2011-SmallHotel-NECB HDD Method-CAN_MB_Winnipeg.718520_CWEC.epw created: 2017-07-10 19:05:21 +0000\n   ************* Only last 1 lines before error line shown.....\n   *************      6   NECB 2011-SmallHotel-NECB HDD Method-CAN_MB_Winnipeg.718520_CWEC.epw created: 2017-07-10 19:05:21 +0000, !- Name\n   ** Warning ** IP: IDF line~6 Alpha Argument length exceeds maximum, will be truncated=  NECB 2011-SmallHotel-NECB HDD Method-CAN_MB_Winnipeg.718520_CWEC.epw created: 2017-07-10 19:05:21 +000\n   **   ~~~   ** Will be processed as Alpha=NECB 2011-SMALLHOTEL-NECB HDD METHOD-CAN_MB_WINNIPEG.718520_CWEC.EPW CREATED: 2017-07-10 19:05:21 +0000\n   ************* Beginning Zone Sizing Calculations\n   ** Warning ** ProcessScheduleInput: Schedule:Day:Interval=\"ECONOMIZER MAX OA FRACTION 100 PCT DEFAULT\", Blank Schedule Type Limits Name input -- will not be validated.\n   ** Warning ** ProcessScheduleInput: Schedule:Day:Interval=\"SCHEDULE DAY 1\", Blank Schedule Type Limits Name input -- will not be validated.\n   ** Warning ** ProcessScheduleInput: Schedule:Day:Interval=\"SCHEDULE DAY 10\", Blank Schedule Type Limits Name input -- will not be validated.\n   ** Warning ** ProcessScheduleInput: Schedule:Day:Interval=\"SCHEDULE DAY 100\", Blank Schedule Type Limits Name input -- will not be validated.\n   ** Warning ** ProcessScheduleInput: Schedule:Day:Interval=\"SCHEDULE DAY 101\", Blank Schedule Type Limits Name input -- will not be validated.\n   ** Warning ** ProcessScheduleInput: Schedule:Day:Interval=\"SCHEDULE DAY 102\", Blank Schedule Type Limits Name input -- will not be validated.\n   ** Warning ** ProcessScheduleInput: Schedule:Day:Interval=\"SCHEDULE DAY 103\", Blank Schedule Type Limits Name input -- will not be validated.\n   ** Warning ** ProcessScheduleInput: Schedule:Day:Interval=\"SCHEDULE DAY 104\", Blank Schedule Type Limits Name input -- will not be validated.\n   ** Warning ** ProcessScheduleInput: Schedule:Day:Interval=\"SCHEDULE DAY 105\", Blank Schedule Type Limits Name input -- will not be validated.\n   ** Warning ** ProcessScheduleInput: Schedule:Day:Interval=\"SCHEDULE DAY 106\", Blank Schedule Type Limits Name input -- will not be validated.\n   ** Warning ** ProcessScheduleInput: Schedule:Day:Interval=\"SCHEDULE DAY 107\", Blank Schedule Type Limits Name input -- will not be validated.\n   ** Warning ** ProcessScheduleInput: Schedule:Day:Interval=\"SCHEDULE DAY 108\", Blank Schedule Type Limits Name input -- will not be validated.\n   ** Warning ** ProcessScheduleInput: Schedule:Day:Interval=\"SCHEDULE DAY 109\", Blank Schedule Type Limits Name input -- will not be validated.\n   ** Warning ** ProcessScheduleInput: Schedule:Day:Interval=\"SCHEDULE DAY 11\", Blank Schedule Type Limits Name input -- will not be validated.\n   ** Warning ** ProcessScheduleInput: Schedule:Day:Interval=\"SCHEDULE DAY 110\", Blank Schedule Type Limits Name input -- will not be validated.\n   ** Warning ** ProcessScheduleInput: Schedule:Day:Interval=\"SCHEDULE DAY 111\", Blank Schedule Type Limits Name input -- will not be validated.\n   ** Warning ** ProcessScheduleInput: Schedule:Day:Interval=\"SCHEDULE DAY 112\", Blank Schedule Type Limits Name input -- will not be validated.\n   ** Warning ** ProcessScheduleInput: Schedule:Day:Interval=\"SCHEDULE DAY 113\", Blank Schedule Type Limits Name input -- will not be validated.\n   ** Warning ** ProcessScheduleInput: Schedule:Day:Interval=\"SCHEDULE DAY 114\", Blank Schedule Type Limits Name input -- will not be validated.\n   ** Warning ** ProcessScheduleInput: Schedule:Day:Interval=\"SCHEDULE DAY 115\", Blank Schedule Type Limits Name input -- will not be validated.\n   ** Warning ** ProcessScheduleInput: Schedule:Day:Interval=\"SCHEDULE DAY 116\", Blank Schedule Type Limits Name input -- will not be validated.\n   ** Warning ** ProcessScheduleInput: Schedule:Day:Interval=\"SCHEDULE DAY 117\", Blank Schedule Type Limits Name input -- will not be validated.\n   ** Warning ** ProcessScheduleInput: Schedule:Day:Interval=\"SCHEDULE DAY 118\", Blank Schedule Type Limits Name input -- will not be validated.\n   ** Warning ** ProcessScheduleInput: Schedule:Day:Interval=\"SCHEDULE DAY 119\", Blank Schedule Type Limits Name input -- will not be validated.\n   ** Warning ** ProcessScheduleInput: Schedule:Day:Interval=\"SCHEDULE DAY 12\", Blank Schedule Type Limits Name input -- will not be validated.\n   ** Warning ** ProcessScheduleInput: Schedule:Day:Interval=\"SCHEDULE DAY 120\", Blank Schedule Type Limits Name input -- will not be validated.\n   ** Warning ** ProcessScheduleInput: Schedule:Day:Interval=\"SCHEDULE DAY 121\", Blank Schedule Type Limits Name input -- will not be validated.\n   ** Warning ** ProcessScheduleInput: Schedule:Day:Interval=\"SCHEDULE DAY 122\", Blank Schedule Type Limits Name input -- will not be validated.\n   ** Warning ** ProcessScheduleInput: Schedule:Day:Interval=\"SCHEDULE DAY 123\", Blank Schedule Type Limits Name input -- will not be validated.\n   ** Warning ** ProcessScheduleInput: Schedule:Day:Interval=\"SCHEDULE DAY 124\", Blank Schedule Type Limits Name input -- will not be validated.\n   ** Warning ** ProcessScheduleInput: Schedule:Day:Interval=\"SCHEDULE DAY 125\", Blank Schedule Type Limits Name input -- will not be validated.\n   ** Warning ** ProcessScheduleInput: Schedule:Day:Interval=\"SCHEDULE DAY 126\", Blank Schedule Type Limits Name input -- will not be validated.\n   ** Warning ** ProcessScheduleInput: Schedule:Day:Interval=\"SCHEDULE DAY 127\", Blank Schedule Type Limits Name input -- will not be validated.\n   ** Warning ** ProcessScheduleInput: Schedule:Day:Interval=\"SCHEDULE DAY 128\", Blank Schedule Type Limits Name input -- will not be validated.\n   ** Warning ** ProcessScheduleInput: Schedule:Day:Interval=\"SCHEDULE DAY 129\", Blank Schedule Type Limits Name input -- will not be validated.\n   ** Warning ** ProcessScheduleInput: Schedule:Day:Interval=\"SCHEDULE DAY 13\", Blank Schedule Type Limits Name input -- will not be validated.\n   ** Warning ** ProcessScheduleInput: Schedule:Day:Interval=\"SCHEDULE DAY 130\", Blank Schedule Type Limits Name input -- will not be validated.\n   ** Warning ** ProcessScheduleInput: Schedule:Day:Interval=\"SCHEDULE DAY 131\", Blank Schedule Type Limits Name input -- will not be validated.\n   ** Warning ** ProcessScheduleInput: Schedule:Day:Interval=\"SCHEDULE DAY 132\", Blank Schedule Type Limits Name input -- will not be validated.\n   ** Warning ** ProcessScheduleInput: Schedule:Day:Interval=\"SCHEDULE DAY 133\", Blank Schedule Type Limits Name input -- will not be validated.\n   ** Warning ** ProcessScheduleInput: Schedule:Day:Interval=\"SCHEDULE DAY 134\", Blank Schedule Type Limits Name input -- will not be validated.\n   ** Warning ** ProcessScheduleInput: Schedule:Day:Interval=\"SCHEDULE DAY 135\", Blank Schedule Type Limits Name input -- will not be validated.\n   ** Warning ** ProcessScheduleInput: Schedule:Day:Interval=\"SCHEDULE DAY 136\", Blank Schedule Type Limits Name input -- will not be validated.\n   ** Warning ** ProcessScheduleInput: Schedule:Day:Interval=\"SCHEDULE DAY 137\", Blank Schedule Type Limits Name input -- will not be validated.\n   ** Warning ** ProcessScheduleInput: Schedule:Day:Interval=\"SCHEDULE DAY 138\", Blank Schedule Type Limits Name input -- will not be validated.\n   ** Warning ** ProcessScheduleInput: Schedule:Day:Interval=\"SCHEDULE DAY 139\", Blank Schedule Type Limits Name input -- will not be validated.\n   ** Warning ** ProcessScheduleInput: Schedule:Day:Interval=\"SCHEDULE DAY 14\", Blank Schedule Type Limits Name input -- will not be validated.\n   ** Warning ** ProcessScheduleInput: Schedule:Day:Interval=\"SCHEDULE DAY 140\", Blank Schedule Type Limits Name input -- will not be validated.\n   ** Warning ** ProcessScheduleInput: Schedule:Day:Interval=\"SCHEDULE DAY 141\", Blank Schedule Type Limits Name input -- will not be validated.\n   ** Warning ** ProcessScheduleInput: Schedule:Day:Interval=\"SCHEDULE DAY 142\", Blank Schedule Type Limits Name input -- will not be validated.\n   ** Warning ** ProcessScheduleInput: Schedule:Day:Interval=\"SCHEDULE DAY 143\", Blank Schedule Type Limits Name input -- will not be validated.\n   ** Warning ** ProcessScheduleInput: Schedule:Day:Interval=\"SCHEDULE DAY 144\", Blank Schedule Type Limits Name input -- will not be validated.\n   ** Warning ** ProcessScheduleInput: Schedule:Day:Interval=\"SCHEDULE DAY 145\", Blank Schedule Type Limits Name input -- will not be validated.\n   ** Warning ** ProcessScheduleInput: Schedule:Day:Interval=\"SCHEDULE DAY 146\", Blank Schedule Type Limits Name input -- will not be validated.\n   ** Warning ** ProcessScheduleInput: Schedule:Day:Interval=\"SCHEDULE DAY 147\", Blank Schedule Type Limits Name input -- will not be validated.\n   ** Warning ** ProcessScheduleInput: Schedule:Day:Interval=\"SCHEDULE DAY 148\", Blank Schedule Type Limits Name input -- will not be validated.\n   ** Warning ** ProcessScheduleInput: Schedule:Day:Interval=\"SCHEDULE DAY 149\", Blank Schedule Type Limits Name input -- will not be validated.\n   ** Warning ** ProcessScheduleInput: Schedule:Day:Interval=\"SCHEDULE DAY 15\", Blank Schedule Type Limits Name input -- will not be validated.\n   ** Warning ** ProcessScheduleInput: Schedule:Day:Interval=\"SCHEDULE DAY 150\", Blank Schedule Type Limits Name input -- will not be validated.\n   ** Warning ** ProcessScheduleInput: Schedule:Day:Interval=\"SCHEDULE DAY 151\", Blank Schedule Type Limits Name input -- will not be validated.\n   ** Warning ** ProcessScheduleInput: Schedule:Day:Interval=\"SCHEDULE DAY 152\", Blank Schedule Type Limits Name input -- will not be validated.\n   ** Warning ** ProcessScheduleInput: Schedule:Day:Interval=\"SCHEDULE DAY 153\", Blank Schedule Type Limits Name input -- will not be validated.\n   ** Warning ** ProcessScheduleInput: Schedule:Day:Interval=\"SCHEDULE DAY 154\", Blank Schedule Type Limits Name input -- will not be validated.\n   ** Warning ** ProcessScheduleInput: Schedule:Day:Interval=\"SCHEDULE DAY 155\", Blank Schedule Type Limits Name input -- will not be validated.\n   ** Warning ** ProcessScheduleInput: Schedule:Day:Interval=\"SCHEDULE DAY 16\", Blank Schedule Type Limits Name input -- will not be validated.\n   ** Warning ** ProcessScheduleInput: Schedule:Day:Interval=\"SCHEDULE DAY 17\", Blank Schedule Type Limits Name input -- will not be validated.\n   ** Warning ** ProcessScheduleInput: Schedule:Day:Interval=\"SCHEDULE DAY 18\", Blank Schedule Type Limits Name input -- will not be validated.\n   ** Warning ** ProcessScheduleInput: Schedule:Day:Interval=\"SCHEDULE DAY 19\", Blank Schedule Type Limits Name input -- will not be validated.\n   ** Warning ** ProcessScheduleInput: Schedule:Day:Interval=\"SCHEDULE DAY 2\", Blank Schedule Type Limits Name input -- will not be validated.\n   ** Warning ** ProcessScheduleInput: Schedule:Day:Interval=\"SCHEDULE DAY 20\", Blank Schedule Type Limits Name input -- will not be validated.\n   ** Warning ** ProcessScheduleInput: Schedule:Day:Interval=\"SCHEDULE DAY 21\", Blank Schedule Type Limits Name input -- will not be validated.\n   ** Warning ** ProcessScheduleInput: Schedule:Day:Interval=\"SCHEDULE DAY 22\", Blank Schedule Type Limits Name input -- will not be validated.\n   ** Warning ** ProcessScheduleInput: Schedule:Day:Interval=\"SCHEDULE DAY 23\", Blank Schedule Type Limits Name input -- will not be validated.\n   ** Warning ** ProcessScheduleInput: Schedule:Day:Interval=\"SCHEDULE DAY 24\", Blank Schedule Type Limits Name input -- will not be validated.\n   ** Warning ** ProcessScheduleInput: Schedule:Day:Interval=\"SCHEDULE DAY 25\", Blank Schedule Type Limits Name input -- will not be validated.\n   ** Warning ** ProcessScheduleInput: Schedule:Day:Interval=\"SCHEDULE DAY 26\", Blank Schedule Type Limits Name input -- will not be validated.\n   ** Warning ** ProcessScheduleInput: Schedule:Day:Interval=\"SCHEDULE DAY 27\", Blank Schedule Type Limits Name input -- will not be validated.\n   ** Warning ** ProcessScheduleInput: Schedule:Day:Interval=\"SCHEDULE DAY 28\", Blank Schedule Type Limits Name input -- will not be validated.\n   ** Warning ** ProcessScheduleInput: Schedule:Day:Interval=\"SCHEDULE DAY 29\", Blank Schedule Type Limits Name input -- will not be validated.\n   ** Warning ** ProcessScheduleInput: Schedule:Day:Interval=\"SCHEDULE DAY 30\", Blank Schedule Type Limits Name input -- will not be validated.\n   ** Warning ** ProcessScheduleInput: Schedule:Day:Interval=\"SCHEDULE DAY 31\", Blank Schedule Type Limits Name input -- will not be validated.\n   ** Warning ** ProcessScheduleInput: Schedule:Day:Interval=\"SCHEDULE DAY 32\", Blank Schedule Type Limits Name input -- will not be validated.\n   ** Warning ** ProcessScheduleInput: Schedule:Day:Interval=\"SCHEDULE DAY 33\", Blank Schedule Type Limits Name input -- will not be validated.\n   ** Warning ** ProcessScheduleInput: Schedule:Day:Interval=\"SCHEDULE DAY 34\", Blank Schedule Type Limits Name input -- will not be validated.\n   ** Warning ** ProcessScheduleInput: Schedule:Day:Interval=\"SCHEDULE DAY 35\", Blank Schedule Type Limits Name input -- will not be validated.\n   ** Warning ** ProcessScheduleInput: Schedule:Day:Interval=\"SCHEDULE DAY 36\", Blank Schedule Type Limits Name input -- will not be validated.\n   ** Warning ** ProcessScheduleInput: Schedule:Day:Interval=\"SCHEDULE DAY 37\", Blank Schedule Type Limits Name input -- will not be validated.\n   ** Warning ** ProcessScheduleInput: Schedule:Day:Interval=\"SCHEDULE DAY 38\", Blank Schedule Type Limits Name input -- will not be validated.\n   ** Warning ** ProcessScheduleInput: Schedule:Day:Interval=\"SCHEDULE DAY 39\", Blank Schedule Type Limits Name input -- will not be validated.\n   ** Warning ** ProcessScheduleInput: Schedule:Day:Interval=\"SCHEDULE DAY 40\", Blank Schedule Type Limits Name input -- will not be validated.\n   ** Warning ** ProcessScheduleInput: Schedule:Day:Interval=\"SCHEDULE DAY 41\", Blank Schedule Type Limits Name input -- will not be validated.\n   ** Warning ** ProcessScheduleInput: Schedule:Day:Interval=\"SCHEDULE DAY 42\", Blank Schedule Type Limits Name input -- will not be validated.\n   ** Warning ** ProcessScheduleInput: Schedule:Day:Interval=\"SCHEDULE DAY 43\", Blank Schedule Type Limits Name input -- will not be validated.\n   ** Warning ** ProcessScheduleInput: Schedule:Day:Interval=\"SCHEDULE DAY 44\", Blank Schedule Type Limits Name input -- will not be validated.\n   ** Warning ** ProcessScheduleInput: Schedule:Day:Interval=\"SCHEDULE DAY 45\", Blank Schedule Type Limits Name input -- will not be validated.\n   ** Warning ** ProcessScheduleInput: Schedule:Day:Interval=\"SCHEDULE DAY 46\", Blank Schedule Type Limits Name input -- will not be validated.\n   ** Warning ** ProcessScheduleInput: Schedule:Day:Interval=\"SCHEDULE DAY 47\", Blank Schedule Type Limits Name input -- will not be validated.\n   ** Warning ** ProcessScheduleInput: Schedule:Day:Interval=\"SCHEDULE DAY 48\", Blank Schedule Type Limits Name input -- will not be validated.\n   ** Warning ** ProcessScheduleInput: Schedule:Day:Interval=\"SCHEDULE DAY 49\", Blank Schedule Type Limits Name input -- will not be validated.\n   ** Warning ** ProcessScheduleInput: Schedule:Day:Interval=\"SCHEDULE DAY 50\", Blank Schedule Type Limits Name input -- will not be validated.\n   ** Warning ** ProcessScheduleInput: Schedule:Day:Interval=\"SCHEDULE DAY 51\", Blank Schedule Type Limits Name input -- will not be validated.\n   ** Warning ** ProcessScheduleInput: Schedule:Day:Interval=\"SCHEDULE DAY 52\", Blank Schedule Type Limits Name input -- will not be validated.\n   ** Warning ** ProcessScheduleInput: Schedule:Day:Interval=\"SCHEDULE DAY 53\", Blank Schedule Type Limits Name input -- will not be validated.\n   ** Warning ** ProcessScheduleInput: Schedule:Day:Interval=\"SCHEDULE DAY 54\", Blank Schedule Type Limits Name input -- will not be validated.\n   ** Warning ** ProcessScheduleInput: Schedule:Day:Interval=\"SCHEDULE DAY 55\", Blank Schedule Type Limits Name input -- will not be validated.\n   ** Warning ** ProcessScheduleInput: Schedule:Day:Interval=\"SCHEDULE DAY 56\", Blank Schedule Type Limits Name input -- will not be validated.\n   ** Warning ** ProcessScheduleInput: Schedule:Day:Interval=\"SCHEDULE DAY 57\", Blank Schedule Type Limits Name input -- will not be validated.\n   ** Warning ** ProcessScheduleInput: Schedule:Day:Interval=\"SCHEDULE DAY 58\", Blank Schedule Type Limits Name input -- will not be validated.\n   ** Warning ** ProcessScheduleInput: Schedule:Day:Interval=\"SCHEDULE DAY 59\", Blank Schedule Type Limits Name input -- will not be validated.\n   ** Warning ** ProcessScheduleInput: Schedule:Day:Interval=\"SCHEDULE DAY 60\", Blank Schedule Type Limits Name input -- will not be validated.\n   ** Warning ** ProcessScheduleInput: Schedule:Day:Interval=\"SCHEDULE DAY 61\", Blank Schedule Type Limits Name input -- will not be validated.\n   ** Warning ** ProcessScheduleInput: Schedule:Day:Interval=\"SCHEDULE DAY 62\", Blank Schedule Type Limits Name input -- will not be validated.\n   ** Warning ** ProcessScheduleInput: Schedule:Day:Interval=\"SCHEDULE DAY 63\", Blank Schedule Type Limits Name input -- will not be validated.\n   ** Warning ** ProcessScheduleInput: Schedule:Day:Interval=\"SCHEDULE DAY 64\", Blank Schedule Type Limits Name input -- will not be validated.\n   ** Warning ** ProcessScheduleInput: Schedule:Day:Interval=\"SCHEDULE DAY 65\", Blank Schedule Type Limits Name input -- will not be validated.\n   ** Warning ** ProcessScheduleInput: Schedule:Day:Interval=\"SCHEDULE DAY 66\", Blank Schedule Type Limits Name input -- will not be validated.\n   ** Warning ** ProcessScheduleInput: Schedule:Day:Interval=\"SCHEDULE DAY 67\", Blank Schedule Type Limits Name input -- will not be validated.\n   ** Warning ** ProcessScheduleInput: Schedule:Day:Interval=\"SCHEDULE DAY 68\", Blank Schedule Type Limits Name input -- will not be validated.\n   ** Warning ** ProcessScheduleInput: Schedule:Day:Interval=\"SCHEDULE DAY 69\", Blank Schedule Type Limits Name input -- will not be validated.\n   ** Warning ** ProcessScheduleInput: Schedule:Day:Interval=\"SCHEDULE DAY 70\", Blank Schedule Type Limits Name input -- will not be validated.\n   ** Warning ** ProcessScheduleInput: Schedule:Day:Interval=\"SCHEDULE DAY 71\", Blank Schedule Type Limits Name input -- will not be validated.\n   ** Warning ** ProcessScheduleInput: Schedule:Day:Interval=\"SCHEDULE DAY 72\", Blank Schedule Type Limits Name input -- will not be validated.\n   ** Warning ** ProcessScheduleInput: Schedule:Day:Interval=\"SCHEDULE DAY 73\", Blank Schedule Type Limits Name input -- will not be validated.\n   ** Warning ** ProcessScheduleInput: Schedule:Day:Interval=\"SCHEDULE DAY 74\", Blank Schedule Type Limits Name input -- will not be validated.\n   ** Warning ** ProcessScheduleInput: Schedule:Day:Interval=\"SCHEDULE DAY 75\", Blank Schedule Type Limits Name input -- will not be validated.\n   ** Warning ** ProcessScheduleInput: Schedule:Day:Interval=\"SCHEDULE DAY 76\", Blank Schedule Type Limits Name input -- will not be validated.\n   ** Warning ** ProcessScheduleInput: Schedule:Day:Interval=\"SCHEDULE DAY 77\", Blank Schedule Type Limits Name input -- will not be validated.\n   ** Warning ** ProcessScheduleInput: Schedule:Day:Interval=\"SCHEDULE DAY 78\", Blank Schedule Type Limits Name input -- will not be validated.\n   ** Warning ** ProcessScheduleInput: Schedule:Day:Interval=\"SCHEDULE DAY 79\", Blank Schedule Type Limits Name input -- will not be validated.\n   ** Warning ** ProcessScheduleInput: Schedule:Day:Interval=\"SCHEDULE DAY 8\", Blank Schedule Type Limits Name input -- will not be validated.\n   ** Warning ** ProcessScheduleInput: Schedule:Day:Interval=\"SCHEDULE DAY 80\", Blank Schedule Type Limits Name input -- will not be validated.\n   ** Warning ** ProcessScheduleInput: Schedule:Day:Interval=\"SCHEDULE DAY 81\", Blank Schedule Type Limits Name input -- will not be validated.\n   ** Warning ** ProcessScheduleInput: Schedule:Day:Interval=\"SCHEDULE DAY 82\", Blank Schedule Type Limits Name input -- will not be validated.\n   ** Warning ** ProcessScheduleInput: Schedule:Day:Interval=\"SCHEDULE DAY 83\", Blank Schedule Type Limits Name input -- will not be validated.\n   ** Warning ** ProcessScheduleInput: Schedule:Day:Interval=\"SCHEDULE DAY 84\", Blank Schedule Type Limits Name input -- will not be validated.\n   ** Warning ** ProcessScheduleInput: Schedule:Day:Interval=\"SCHEDULE DAY 85\", Blank Schedule Type Limits Name input -- will not be validated.\n   ** Warning ** ProcessScheduleInput: Schedule:Day:Interval=\"SCHEDULE DAY 86\", Blank Schedule Type Limits Name input -- will not be validated.\n   ** Warning ** ProcessScheduleInput: Schedule:Day:Interval=\"SCHEDULE DAY 87\", Blank Schedule Type Limits Name input -- will not be validated.\n   ** Warning ** ProcessScheduleInput: Schedule:Day:Interval=\"SCHEDULE DAY 88\", Blank Schedule Type Limits Name input -- will not be validated.\n   ** Warning ** ProcessScheduleInput: Schedule:Day:Interval=\"SCHEDULE DAY 89\", Blank Schedule Type Limits Name input -- will not be validated.\n   ** Warning ** ProcessScheduleInput: Schedule:Day:Interval=\"SCHEDULE DAY 9\", Blank Schedule Type Limits Name input -- will not be validated.\n   ** Warning ** ProcessScheduleInput: Schedule:Day:Interval=\"SCHEDULE DAY 90\", Blank Schedule Type Limits Name input -- will not be validated.\n   ** Warning ** ProcessScheduleInput: Schedule:Day:Interval=\"SCHEDULE DAY 91\", Blank Schedule Type Limits Name input -- will not be validated.\n   ** Warning ** ProcessScheduleInput: Schedule:Day:Interval=\"SCHEDULE DAY 92\", Blank Schedule Type Limits Name input -- will not be validated.\n   ** Warning ** ProcessScheduleInput: Schedule:Day:Interval=\"SCHEDULE DAY 93\", Blank Schedule Type Limits Name input -- will not be validated.\n   ** Warning ** ProcessScheduleInput: Schedule:Day:Interval=\"SCHEDULE DAY 94\", Blank Schedule Type Limits Name input -- will not be validated.\n   ** Warning ** ProcessScheduleInput: Schedule:Day:Interval=\"SCHEDULE DAY 95\", Blank Schedule Type Limits Name input -- will not be validated.\n   ** Warning ** ProcessScheduleInput: Schedule:Day:Interval=\"SCHEDULE DAY 96\", Blank Schedule Type Limits Name input -- will not be validated.\n   ** Warning ** ProcessScheduleInput: Schedule:Day:Interval=\"SCHEDULE DAY 97\", Blank Schedule Type Limits Name input -- will not be validated.\n   ** Warning ** ProcessScheduleInput: Schedule:Day:Interval=\"SCHEDULE DAY 98\", Blank Schedule Type Limits Name input -- will not be validated.\n   ** Warning ** ProcessScheduleInput: Schedule:Day:Interval=\"SCHEDULE DAY 99\", Blank Schedule Type Limits Name input -- will not be validated.\n   ** Warning ** ProcessScheduleInput: Schedule:Year=\"ECONOMIZER MAX OA FRACTION 100 PCT\", Blank Schedule Type Limits Name input -- will not be validated.\n   ** Warning ** ProcessScheduleInput: Schedule:Year=\"SCHEDULE RULESET 10\", Blank Schedule Type Limits Name input -- will not be validated.\n   ** Warning ** ProcessScheduleInput: Schedule:Year=\"SCHEDULE RULESET 100\", Blank Schedule Type Limits Name input -- will not be validated.\n   ** Warning ** ProcessScheduleInput: Schedule:Year=\"SCHEDULE RULESET 101\", Blank Schedule Type Limits Name input -- will not be validated.\n   ** Warning ** ProcessScheduleInput: Schedule:Year=\"SCHEDULE RULESET 102\", Blank Schedule Type Limits Name input -- will not be validated.\n   ** Warning ** ProcessScheduleInput: Schedule:Year=\"SCHEDULE RULESET 103\", Blank Schedule Type Limits Name input -- will not be validated.\n   ** Warning ** ProcessScheduleInput: Schedule:Year=\"SCHEDULE RULESET 104\", Blank Schedule Type Limits Name input -- will not be validated.\n   ** Warning ** ProcessScheduleInput: Schedule:Year=\"SCHEDULE RULESET 105\", Blank Schedule Type Limits Name input -- will not be validated.\n   ** Warning ** ProcessScheduleInput: Schedule:Year=\"SCHEDULE RULESET 106\", Blank Schedule Type Limits Name input -- will not be validated.\n   ** Warning ** ProcessScheduleInput: Schedule:Year=\"SCHEDULE RULESET 107\", Blank Schedule Type Limits Name input -- will not be validated.\n   ** Warning ** ProcessScheduleInput: Schedule:Year=\"SCHEDULE RULESET 108\", Blank Schedule Type Limits Name input -- will not be validated.\n   ** Warning ** ProcessScheduleInput: Schedule:Year=\"SCHEDULE RULESET 109\", Blank Schedule Type Limits Name input -- will not be validated.\n   ** Warning ** ProcessScheduleInput: Schedule:Year=\"SCHEDULE RULESET 11\", Blank Schedule Type Limits Name input -- will not be validated.\n   ** Warning ** ProcessScheduleInput: Schedule:Year=\"SCHEDULE RULESET 110\", Blank Schedule Type Limits Name input -- will not be validated.\n   ** Warning ** ProcessScheduleInput: Schedule:Year=\"SCHEDULE RULESET 111\", Blank Schedule Type Limits Name input -- will not be validated.\n   ** Warning ** ProcessScheduleInput: Schedule:Year=\"SCHEDULE RULESET 112\", Blank Schedule Type Limits Name input -- will not be validated.\n   ** Warning ** ProcessScheduleInput: Schedule:Year=\"SCHEDULE RULESET 113\", Blank Schedule Type Limits Name input -- will not be validated.\n   ** Warning ** ProcessScheduleInput: Schedule:Year=\"SCHEDULE RULESET 114\", Blank Schedule Type Limits Name input -- will not be validated.\n   ** Warning ** ProcessScheduleInput: Schedule:Year=\"SCHEDULE RULESET 115\", Blank Schedule Type Limits Name input -- will not be validated.\n   ** Warning ** ProcessScheduleInput: Schedule:Year=\"SCHEDULE RULESET 116\", Blank Schedule Type Limits Name input -- will not be validated.\n   ** Warning ** ProcessScheduleInput: Schedule:Year=\"SCHEDULE RULESET 117\", Blank Schedule Type Limits Name input -- will not be validated.\n   ** Warning ** ProcessScheduleInput: Schedule:Year=\"SCHEDULE RULESET 118\", Blank Schedule Type Limits Name input -- will not be validated.\n   ** Warning ** ProcessScheduleInput: Schedule:Year=\"SCHEDULE RULESET 119\", Blank Schedule Type Limits Name input -- will not be validated.\n   ** Warning ** ProcessScheduleInput: Schedule:Year=\"SCHEDULE RULESET 12\", Blank Schedule Type Limits Name input -- will not be validated.\n   ** Warning ** ProcessScheduleInput: Schedule:Year=\"SCHEDULE RULESET 120\", Blank Schedule Type Limits Name input -- will not be validated.\n   ** Warning ** ProcessScheduleInput: Schedule:Year=\"SCHEDULE RULESET 121\", Blank Schedule Type Limits Name input -- will not be validated.\n   ** Warning ** ProcessScheduleInput: Schedule:Year=\"SCHEDULE RULESET 122\", Blank Schedule Type Limits Name input -- will not be validated.\n   ** Warning ** ProcessScheduleInput: Schedule:Year=\"SCHEDULE RULESET 123\", Blank Schedule Type Limits Name input -- will not be validated.\n   ** Warning ** ProcessScheduleInput: Schedule:Year=\"SCHEDULE RULESET 124\", Blank Schedule Type Limits Name input -- will not be validated.\n   ** Warning ** ProcessScheduleInput: Schedule:Year=\"SCHEDULE RULESET 125\", Blank Schedule Type Limits Name input -- will not be validated.\n   ** Warning ** ProcessScheduleInput: Schedule:Year=\"SCHEDULE RULESET 126\", Blank Schedule Type Limits Name input -- will not be validated.\n   ** Warning ** ProcessScheduleInput: Schedule:Year=\"SCHEDULE RULESET 127\", Blank Schedule Type Limits Name input -- will not be validated.\n   ** Warning ** ProcessScheduleInput: Schedule:Year=\"SCHEDULE RULESET 128\", Blank Schedule Type Limits Name input -- will not be validated.\n   ** Warning ** ProcessScheduleInput: Schedule:Year=\"SCHEDULE RULESET 129\", Blank Schedule Type Limits Name input -- will not be validated.\n   ** Warning ** ProcessScheduleInput: Schedule:Year=\"SCHEDULE RULESET 13\", Blank Schedule Type Limits Name input -- will not be validated.\n   ** Warning ** ProcessScheduleInput: Schedule:Year=\"SCHEDULE RULESET 130\", Blank Schedule Type Limits Name input -- will not be validated.\n   ** Warning ** ProcessScheduleInput: Schedule:Year=\"SCHEDULE RULESET 131\", Blank Schedule Type Limits Name input -- will not be validated.\n   ** Warning ** ProcessScheduleInput: Schedule:Year=\"SCHEDULE RULESET 132\", Blank Schedule Type Limits Name input -- will not be validated.\n   ** Warning ** ProcessScheduleInput: Schedule:Year=\"SCHEDULE RULESET 133\", Blank Schedule Type Limits Name input -- will not be validated.\n   ** Warning ** ProcessScheduleInput: Schedule:Year=\"SCHEDULE RULESET 134\", Blank Schedule Type Limits Name input -- will not be validated.\n   ** Warning ** ProcessScheduleInput: Schedule:Year=\"SCHEDULE RULESET 135\", Blank Schedule Type Limits Name input -- will not be validated.\n   ** Warning ** ProcessScheduleInput: Schedule:Year=\"SCHEDULE RULESET 136\", Blank Schedule Type Limits Name input -- will not be validated.\n   ** Warning ** ProcessScheduleInput: Schedule:Year=\"SCHEDULE RULESET 137\", Blank Schedule Type Limits Name input -- will not be validated.\n   ** Warning ** ProcessScheduleInput: Schedule:Year=\"SCHEDULE RULESET 138\", Blank Schedule Type Limits Name input -- will not be validated.\n   ** Warning ** ProcessScheduleInput: Schedule:Year=\"SCHEDULE RULESET 139\", Blank Schedule Type Limits Name input -- will not be validated.\n   ** Warning ** ProcessScheduleInput: Schedule:Year=\"SCHEDULE RULESET 14\", Blank Schedule Type Limits Name input -- will not be validated.\n   ** Warning ** ProcessScheduleInput: Schedule:Year=\"SCHEDULE RULESET 140\", Blank Schedule Type Limits Name input -- will not be validated.\n   ** Warning ** ProcessScheduleInput: Schedule:Year=\"SCHEDULE RULESET 141\", Blank Schedule Type Limits Name input -- will not be validated.\n   ** Warning ** ProcessScheduleInput: Schedule:Year=\"SCHEDULE RULESET 142\", Blank Schedule Type Limits Name input -- will not be validated.\n   ** Warning ** ProcessScheduleInput: Schedule:Year=\"SCHEDULE RULESET 143\", Blank Schedule Type Limits Name input -- will not be validated.\n   ** Warning ** ProcessScheduleInput: Schedule:Year=\"SCHEDULE RULESET 144\", Blank Schedule Type Limits Name input -- will not be validated.\n   ** Warning ** ProcessScheduleInput: Schedule:Year=\"SCHEDULE RULESET 145\", Blank Schedule Type Limits Name input -- will not be validated.\n   ** Warning ** ProcessScheduleInput: Schedule:Year=\"SCHEDULE RULESET 146\", Blank Schedule Type Limits Name input -- will not be validated.\n   ** Warning ** ProcessScheduleInput: Schedule:Year=\"SCHEDULE RULESET 15\", Blank Schedule Type Limits Name input -- will not be validated.\n   ** Warning ** ProcessScheduleInput: Schedule:Year=\"SCHEDULE RULESET 16\", Blank Schedule Type Limits Name input -- will not be validated.\n   ** Warning ** ProcessScheduleInput: Schedule:Year=\"SCHEDULE RULESET 17\", Blank Schedule Type Limits Name input -- will not be validated.\n   ** Warning ** ProcessScheduleInput: Schedule:Year=\"SCHEDULE RULESET 18\", Blank Schedule Type Limits Name input -- will not be validated.\n   ** Warning ** ProcessScheduleInput: Schedule:Year=\"SCHEDULE RULESET 19\", Blank Schedule Type Limits Name input -- will not be validated.\n   ** Warning ** ProcessScheduleInput: Schedule:Year=\"SCHEDULE RULESET 20\", Blank Schedule Type Limits Name input -- will not be validated.\n   ** Warning ** ProcessScheduleInput: Schedule:Year=\"SCHEDULE RULESET 21\", Blank Schedule Type Limits Name input -- will not be validated.\n   ** Warning ** ProcessScheduleInput: Schedule:Year=\"SCHEDULE RULESET 22\", Blank Schedule Type Limits Name input -- will not be validated.\n   ** Warning ** ProcessScheduleInput: Schedule:Year=\"SCHEDULE RULESET 23\", Blank Schedule Type Limits Name input -- will not be validated.\n   ** Warning ** ProcessScheduleInput: Schedule:Year=\"SCHEDULE RULESET 24\", Blank Schedule Type Limits Name input -- will not be validated.\n   ** Warning ** ProcessScheduleInput: Schedule:Year=\"SCHEDULE RULESET 25\", Blank Schedule Type Limits Name input -- will not be validated.\n   ** Warning ** ProcessScheduleInput: Schedule:Year=\"SCHEDULE RULESET 26\", Blank Schedule Type Limits Name input -- will not be validated.\n   ** Warning ** ProcessScheduleInput: Schedule:Year=\"SCHEDULE RULESET 27\", Blank Schedule Type Limits Name input -- will not be validated.\n   ** Warning ** ProcessScheduleInput: Schedule:Year=\"SCHEDULE RULESET 28\", Blank Schedule Type Limits Name input -- will not be validated.\n   ** Warning ** ProcessScheduleInput: Schedule:Year=\"SCHEDULE RULESET 29\", Blank Schedule Type Limits Name input -- will not be validated.\n   ** Warning ** ProcessScheduleInput: Schedule:Year=\"SCHEDULE RULESET 3\", Blank Schedule Type Limits Name input -- will not be validated.\n   ** Warning ** ProcessScheduleInput: Schedule:Year=\"SCHEDULE RULESET 30\", Blank Schedule Type Limits Name input -- will not be validated.\n   ** Warning ** ProcessScheduleInput: Schedule:Year=\"SCHEDULE RULESET 31\", Blank Schedule Type Limits Name input -- will not be validated.\n   ** Warning ** ProcessScheduleInput: Schedule:Year=\"SCHEDULE RULESET 32\", Blank Schedule Type Limits Name input -- will not be validated.\n   ** Warning ** ProcessScheduleInput: Schedule:Year=\"SCHEDULE RULESET 33\", Blank Schedule Type Limits Name input -- will not be validated.\n   ** Warning ** ProcessScheduleInput: Schedule:Year=\"SCHEDULE RULESET 34\", Blank Schedule Type Limits Name input -- will not be validated.\n   ** Warning ** ProcessScheduleInput: Schedule:Year=\"SCHEDULE RULESET 35\", Blank Schedule Type Limits Name input -- will not be validated.\n   ** Warning ** ProcessScheduleInput: Schedule:Year=\"SCHEDULE RULESET 36\", Blank Schedule Type Limits Name input -- will not be validated.\n   ** Warning ** ProcessScheduleInput: Schedule:Year=\"SCHEDULE RULESET 37\", Blank Schedule Type Limits Name input -- will not be validated.\n   ** Warning ** ProcessScheduleInput: Schedule:Year=\"SCHEDULE RULESET 38\", Blank Schedule Type Limits Name input -- will not be validated.\n   ** Warning ** ProcessScheduleInput: Schedule:Year=\"SCHEDULE RULESET 39\", Blank Schedule Type Limits Name input -- will not be validated.\n   ** Warning ** ProcessScheduleInput: Schedule:Year=\"SCHEDULE RULESET 4\", Blank Schedule Type Limits Name input -- will not be validated.\n   ** Warning ** ProcessScheduleInput: Schedule:Year=\"SCHEDULE RULESET 40\", Blank Schedule Type Limits Name input -- will not be validated.\n   ** Warning ** ProcessScheduleInput: Schedule:Year=\"SCHEDULE RULESET 41\", Blank Schedule Type Limits Name input -- will not be validated.\n   ** Warning ** ProcessScheduleInput: Schedule:Year=\"SCHEDULE RULESET 42\", Blank Schedule Type Limits Name input -- will not be validated.\n   ** Warning ** ProcessScheduleInput: Schedule:Year=\"SCHEDULE RULESET 43\", Blank Schedule Type Limits Name input -- will not be validated.\n   ** Warning ** ProcessScheduleInput: Schedule:Year=\"SCHEDULE RULESET 44\", Blank Schedule Type Limits Name input -- will not be validated.\n   ** Warning ** ProcessScheduleInput: Schedule:Year=\"SCHEDULE RULESET 45\", Blank Schedule Type Limits Name input -- will not be validated.\n   ** Warning ** ProcessScheduleInput: Schedule:Year=\"SCHEDULE RULESET 46\", Blank Schedule Type Limits Name input -- will not be validated.\n   ** Warning ** ProcessScheduleInput: Schedule:Year=\"SCHEDULE RULESET 47\", Blank Schedule Type Limits Name input -- will not be validated.\n   ** Warning ** ProcessScheduleInput: Schedule:Year=\"SCHEDULE RULESET 48\", Blank Schedule Type Limits Name input -- will not be validated.\n   ** Warning ** ProcessScheduleInput: Schedule:Year=\"SCHEDULE RULESET 49\", Blank Schedule Type Limits Name input -- will not be validated.\n   ** Warning ** ProcessScheduleInput: Schedule:Year=\"SCHEDULE RULESET 5\", Blank Schedule Type Limits Name input -- will not be validated.\n   ** Warning ** ProcessScheduleInput: Schedule:Year=\"SCHEDULE RULESET 50\", Blank Schedule Type Limits Name input -- will not be validated.\n   ** Warning ** ProcessScheduleInput: Schedule:Year=\"SCHEDULE RULESET 51\", Blank Schedule Type Limits Name input -- will not be validated.\n   ** Warning ** ProcessScheduleInput: Schedule:Year=\"SCHEDULE RULESET 52\", Blank Schedule Type Limits Name input -- will not be validated.\n   ** Warning ** ProcessScheduleInput: Schedule:Year=\"SCHEDULE RULESET 53\", Blank Schedule Type Limits Name input -- will not be validated.\n   ** Warning ** ProcessScheduleInput: Schedule:Year=\"SCHEDULE RULESET 54\", Blank Schedule Type Limits Name input -- will not be validated.\n   ** Warning ** ProcessScheduleInput: Schedule:Year=\"SCHEDULE RULESET 55\", Blank Schedule Type Limits Name input -- will not be validated.\n   ** Warning ** ProcessScheduleInput: Schedule:Year=\"SCHEDULE RULESET 56\", Blank Schedule Type Limits Name input -- will not be validated.\n   ** Warning ** ProcessScheduleInput: Schedule:Year=\"SCHEDULE RULESET 57\", Blank Schedule Type Limits Name input -- will not be validated.\n   ** Warning ** ProcessScheduleInput: Schedule:Year=\"SCHEDULE RULESET 58\", Blank Schedule Type Limits Name input -- will not be validated.\n   ** Warning ** ProcessScheduleInput: Schedule:Year=\"SCHEDULE RULESET 59\", Blank Schedule Type Limits Name input -- will not be validated.\n   ** Warning ** ProcessScheduleInput: Schedule:Year=\"SCHEDULE RULESET 6\", Blank Schedule Type Limits Name input -- will not be validated.\n   ** Warning ** ProcessScheduleInput: Schedule:Year=\"SCHEDULE RULESET 60\", Blank Schedule Type Limits Name input -- will not be validated.\n   ** Warning ** ProcessScheduleInput: Schedule:Year=\"SCHEDULE RULESET 61\", Blank Schedule Type Limits Name input -- will not be validated.\n   ** Warning ** ProcessScheduleInput: Schedule:Year=\"SCHEDULE RULESET 62\", Blank Schedule Type Limits Name input -- will not be validated.\n   ** Warning ** ProcessScheduleInput: Schedule:Year=\"SCHEDULE RULESET 63\", Blank Schedule Type Limits Name input -- will not be validated.\n   ** Warning ** ProcessScheduleInput: Schedule:Year=\"SCHEDULE RULESET 64\", Blank Schedule Type Limits Name input -- will not be validated.\n   ** Warning ** ProcessScheduleInput: Schedule:Year=\"SCHEDULE RULESET 65\", Blank Schedule Type Limits Name input -- will not be validated.\n   ** Warning ** ProcessScheduleInput: Schedule:Year=\"SCHEDULE RULESET 66\", Blank Schedule Type Limits Name input -- will not be validated.\n   ** Warning ** ProcessScheduleInput: Schedule:Year=\"SCHEDULE RULESET 67\", Blank Schedule Type Limits Name input -- will not be validated.\n   ** Warning ** ProcessScheduleInput: Schedule:Year=\"SCHEDULE RULESET 68\", Blank Schedule Type Limits Name input -- will not be validated.\n   ** Warning ** ProcessScheduleInput: Schedule:Year=\"SCHEDULE RULESET 69\", Blank Schedule Type Limits Name input -- will not be validated.\n   ** Warning ** ProcessScheduleInput: Schedule:Year=\"SCHEDULE RULESET 7\", Blank Schedule Type Limits Name input -- will not be validated.\n   ** Warning ** ProcessScheduleInput: Schedule:Year=\"SCHEDULE RULESET 70\", Blank Schedule Type Limits Name input -- will not be validated.\n   ** Warning ** ProcessScheduleInput: Schedule:Year=\"SCHEDULE RULESET 71\", Blank Schedule Type Limits Name input -- will not be validated.\n   ** Warning ** ProcessScheduleInput: Schedule:Year=\"SCHEDULE RULESET 72\", Blank Schedule Type Limits Name input -- will not be validated.\n   ** Warning ** ProcessScheduleInput: Schedule:Year=\"SCHEDULE RULESET 73\", Blank Schedule Type Limits Name input -- will not be validated.\n   ** Warning ** ProcessScheduleInput: Schedule:Year=\"SCHEDULE RULESET 74\", Blank Schedule Type Limits Name input -- will not be validated.\n   ** Warning ** ProcessScheduleInput: Schedule:Year=\"SCHEDULE RULESET 75\", Blank Schedule Type Limits Name input -- will not be validated.\n   ** Warning ** ProcessScheduleInput: Schedule:Year=\"SCHEDULE RULESET 76\", Blank Schedule Type Limits Name input -- will not be validated.\n   ** Warning ** ProcessScheduleInput: Schedule:Year=\"SCHEDULE RULESET 77\", Blank Schedule Type Limits Name input -- will not be validated.\n   ** Warning ** ProcessScheduleInput: Schedule:Year=\"SCHEDULE RULESET 78\", Blank Schedule Type Limits Name input -- will not be validated.\n   ** Warning ** ProcessScheduleInput: Schedule:Year=\"SCHEDULE RULESET 79\", Blank Schedule Type Limits Name input -- will not be validated.\n   ** Warning ** ProcessScheduleInput: Schedule:Year=\"SCHEDULE RULESET 8\", Blank Schedule Type Limits Name input -- will not be validated.\n   ** Warning ** ProcessScheduleInput: Schedule:Year=\"SCHEDULE RULESET 80\", Blank Schedule Type Limits Name input -- will not be validated.\n   ** Warning ** ProcessScheduleInput: Schedule:Year=\"SCHEDULE RULESET 81\", Blank Schedule Type Limits Name input -- will not be validated.\n   ** Warning ** ProcessScheduleInput: Schedule:Year=\"SCHEDULE RULESET 82\", Blank Schedule Type Limits Name input -- will not be validated.\n   ** Warning ** ProcessScheduleInput: Schedule:Year=\"SCHEDULE RULESET 83\", Blank Schedule Type Limits Name input -- will not be validated.\n   ** Warning ** ProcessScheduleInput: Schedule:Year=\"SCHEDULE RULESET 84\", Blank Schedule Type Limits Name input -- will not be validated.\n   ** Warning ** ProcessScheduleInput: Schedule:Year=\"SCHEDULE RULESET 85\", Blank Schedule Type Limits Name input -- will not be validated.\n   ** Warning ** ProcessScheduleInput: Schedule:Year=\"SCHEDULE RULESET 86\", Blank Schedule Type Limits Name input -- will not be validated.\n   ** Warning ** ProcessScheduleInput: Schedule:Year=\"SCHEDULE RULESET 87\", Blank Schedule Type Limits Name input -- will not be validated.\n   ** Warning ** ProcessScheduleInput: Schedule:Year=\"SCHEDULE RULESET 88\", Blank Schedule Type Limits Name input -- will not be validated.\n   ** Warning ** ProcessScheduleInput: Schedule:Year=\"SCHEDULE RULESET 89\", Blank Schedule Type Limits Name input -- will not be validated.\n   ** Warning ** ProcessScheduleInput: Schedule:Year=\"SCHEDULE RULESET 9\", Blank Schedule Type Limits Name input -- will not be validated.\n   ** Warning ** ProcessScheduleInput: Schedule:Year=\"SCHEDULE RULESET 90\", Blank Schedule Type Limits Name input -- will not be validated.\n   ** Warning ** ProcessScheduleInput: Schedule:Year=\"SCHEDULE RULESET 91\", Blank Schedule Type Limits Name input -- will not be validated.\n   ** Warning ** ProcessScheduleInput: Schedule:Year=\"SCHEDULE RULESET 92\", Blank Schedule Type Limits Name input -- will not be validated.\n   ** Warning ** ProcessScheduleInput: Schedule:Year=\"SCHEDULE RULESET 93\", Blank Schedule Type Limits Name input -- will not be validated.\n   ** Warning ** ProcessScheduleInput: Schedule:Year=\"SCHEDULE RULESET 94\", Blank Schedule Type Limits Name input -- will not be validated.\n   ** Warning ** ProcessScheduleInput: Schedule:Year=\"SCHEDULE RULESET 95\", Blank Schedule Type Limits Name input -- will not be validated.\n   ** Warning ** ProcessScheduleInput: Schedule:Year=\"SCHEDULE RULESET 96\", Blank Schedule Type Limits Name input -- will not be validated.\n   ** Warning ** ProcessScheduleInput: Schedule:Year=\"SCHEDULE RULESET 97\", Blank Schedule Type Limits Name input -- will not be validated.\n   ** Warning ** ProcessScheduleInput: Schedule:Year=\"SCHEDULE RULESET 98\", Blank Schedule Type Limits Name input -- will not be validated.\n   ** Warning ** ProcessScheduleInput: Schedule:Year=\"SCHEDULE RULESET 99\", Blank Schedule Type Limits Name input -- will not be validated.\n   ** Warning ** ProcessScheduleInput: Schedule:Constant=\"ALWAYS OFF DISCRETE\", Blank Schedule Type Limits Name input -- will not be validated.\n   ** Warning ** ProcessScheduleInput: Schedule:Constant=\"ALWAYS ON CONTINUOUS\", Blank Schedule Type Limits Name input -- will not be validated.\n   ** Warning ** CheckUsedConstructions: There are 24 nominally unused constructions in input.\n   **   ~~~   ** For explicit details on each unused construction, use Output:Diagnostics,DisplayExtraWarnings;\n   ** Warning ** GetInternalHeatGains: People Combination of ZoneList and Object Name generate a name too long.\n   **   ~~~   ** Object Name=\"SPACE FUNCTION ELECTRICAL/MECHANICAL-SCH-F PEOPLE\".\n   **   ~~~   ** ZoneList/Zone Name=\"SP-MECHANICALROOMFLR1 SYS-1 FLR-2 SCH-F HPLCMT-SOUTH ZN\".\n   **   ~~~   ** Item length=[104] > Maximum Length=[100]. You may need to shorten the names.\n   **   ~~~   ** Shortening the Object Name by [5] characters will assure uniqueness for this ZoneList.\n   **   ~~~   ** name that will be used (may be needed in reporting)=\"SP-MECHANICALROOMFLR1 SYS-1 FLR-2 SCH-F HPLCMT-SOUTH ZN SPACE FUNCTION ELECTRICAL/MECHANICAL-SCH-F PEOPLE\".\n   ** Warning ** GetInternalHeatGains: People Combination of ZoneList and Object Name generate a name too long.\n   **   ~~~   ** Object Name=\"SPACE FUNCTION ELECTRICAL/MECHANICAL-SCH-F PEOPLE\".\n   **   ~~~   ** ZoneList/Zone Name=\"SP-MEETINGROOMFLR1 SYS-3 FLR-2 SCH-F HPLCMT-SOUTH ZN\".\n   **   ~~~   ** Item length=[101] > Maximum Length=[100]. You may need to shorten the names.\n   **   ~~~   ** Shortening the Object Name by [5] characters will assure uniqueness for this ZoneList.\n   **   ~~~   ** name that will be used (may be needed in reporting)=\"SP-MEETINGROOMFLR1 SYS-3 FLR-2 SCH-F HPLCMT-SOUTH ZN SPACE FUNCTION ELECTRICAL/MECHANICAL-SCH-F PEOPLE\".\n   ** Warning ** GetInternalHeatGains: Lights Combination of ZoneList and Object Name generate a name too long.\n   **   ~~~   ** Object Name=\"SPACE FUNCTION ELECTRICAL/MECHANICAL-SCH-F LIGHTS\".\n   **   ~~~   ** ZoneList/Zone Name=\"SP-MECHANICALROOMFLR1 SYS-1 FLR-2 SCH-F HPLCMT-SOUTH ZN\".\n   **   ~~~   ** Item length=[104] > Maximum Length=[100]. You may need to shorten the names.\n   **   ~~~   ** Shortening the Object Name by [5] characters will assure uniqueness for this ZoneList.\n   **   ~~~   ** name that will be used (may be needed in reporting)=\"SP-MECHANICALROOMFLR1 SYS-1 FLR-2 SCH-F HPLCMT-SOUTH ZN SPACE FUNCTION ELECTRICAL/MECHANICAL-SCH-F LIGHTS\".\n   ** Warning ** GetInternalHeatGains: Lights Combination of ZoneList and Object Name generate a name too long.\n   **   ~~~   ** Object Name=\"SPACE FUNCTION ELECTRICAL/MECHANICAL-SCH-F LIGHTS\".\n   **   ~~~   ** ZoneList/Zone Name=\"SP-MEETINGROOMFLR1 SYS-3 FLR-2 SCH-F HPLCMT-SOUTH ZN\".\n   **   ~~~   ** Item length=[101] > Maximum Length=[100]. You may need to shorten the names.\n   **   ~~~   ** Shortening the Object Name by [5] characters will assure uniqueness for this ZoneList.\n   **   ~~~   ** name that will be used (may be needed in reporting)=\"SP-MEETINGROOMFLR1 SYS-3 FLR-2 SCH-F HPLCMT-SOUTH ZN SPACE FUNCTION ELECTRICAL/MECHANICAL-SCH-F LIGHTS\".\n   ** Warning ** GetInternalHeatGains: ElectricEquipment Combination of ZoneList and Object Name generate a name too long.\n   **   ~~~   ** Object Name=\"SPACE FUNCTION ELECTRICAL/MECHANICAL-SCH-F ELEC EQUIP\".\n   **   ~~~   ** ZoneList/Zone Name=\"SP-MECHANICALROOMFLR1 SYS-1 FLR-2 SCH-F HPLCMT-SOUTH ZN\".\n   **   ~~~   ** Item length=[108] > Maximum Length=[100]. You may need to shorten the names.\n   **   ~~~   ** Shortening the Object Name by [9] characters will assure uniqueness for this ZoneList.\n   **   ~~~   ** name that will be used (may be needed in reporting)=\"SP-MECHANICALROOMFLR1 SYS-1 FLR-2 SCH-F HPLCMT-SOUTH ZN SPACE FUNCTION ELECTRICAL/MECHANICAL-SCH-F ELEC EQUIP\".\n   ** Warning ** GetInternalHeatGains: ElectricEquipment Combination of ZoneList and Object Name generate a name too long.\n   **   ~~~   ** Object Name=\"SPACE FUNCTION ELECTRICAL/MECHANICAL-SCH-F ELEC EQUIP\".\n   **   ~~~   ** ZoneList/Zone Name=\"SP-MEETINGROOMFLR1 SYS-3 FLR-2 SCH-F HPLCMT-SOUTH ZN\".\n   **   ~~~   ** Item length=[105] > Maximum Length=[100]. You may need to shorten the names.\n   **   ~~~   ** Shortening the Object Name by [9] characters will assure uniqueness for this ZoneList.\n   **   ~~~   ** name that will be used (may be needed in reporting)=\"SP-MEETINGROOMFLR1 SYS-3 FLR-2 SCH-F HPLCMT-SOUTH ZN SPACE FUNCTION ELECTRICAL/MECHANICAL-SCH-F ELEC EQUIP\".\n   ** Warning ** GetInternalHeatGains: ElectricEquipment Combination of ZoneList and Object Name generate a name too long.\n   **   ~~~   ** Object Name=\"SPACE FUNCTION STORAGE AREA - OCCSENS ELEC EQUIP\".\n   **   ~~~   ** ZoneList/Zone Name=\"SP-FRONTSTORAGEFLR1 SYS-4 FLR-2 SCH-E HPLCMT-NORTH ZN\".\n   **   ~~~   ** Item length=[101] > Maximum Length=[100]. You may need to shorten the names.\n   **   ~~~   ** Shortening the Object Name by [2] characters will assure uniqueness for this ZoneList.\n   **   ~~~   ** name that will be used (may be needed in reporting)=\"SP-FRONTSTORAGEFLR1 SYS-4 FLR-2 SCH-E HPLCMT-NORTH ZN SPACE FUNCTION STORAGE AREA - OCCSENS ELEC EQUIP\".\n   ** Warning ** GetInternalHeatGains: ElectricEquipment Combination of ZoneList and Object Name generate a name too long.\n   **   ~~~   ** Object Name=\"SPACE FUNCTION STORAGE AREA - OCCSENS ELEC EQUIP\".\n   **   ~~~   ** ZoneList/Zone Name=\"SP-FRONTSTORAGEFLR2 SYS-4 FLR-1 SCH-E HPLCMT-NORTH ZN\".\n   **   ~~~   ** Item length=[101] > Maximum Length=[100]. You may need to shorten the names.\n   **   ~~~   ** Shortening the Object Name by [2] characters will assure uniqueness for this ZoneList.\n   **   ~~~   ** name that will be used (may be needed in reporting)=\"SP-FRONTSTORAGEFLR2 SYS-4 FLR-1 SCH-E HPLCMT-NORTH ZN SPACE FUNCTION STORAGE AREA - OCCSENS ELEC EQUIP\".\n   ** Warning ** GetInternalHeatGains: ElectricEquipment Combination of ZoneList and Object Name generate a name too long.\n   **   ~~~   ** Object Name=\"SPACE FUNCTION STORAGE AREA - OCCSENS ELEC EQUIP\".\n   **   ~~~   ** ZoneList/Zone Name=\"SP-FRONTSTORAGEFLR3 SYS-4 FLR-4 SCH-E HPLCMT-NORTH ZN\".\n   **   ~~~   ** Item length=[101] > Maximum Length=[100]. You may need to shorten the names.\n   **   ~~~   ** Shortening the Object Name by [2] characters will assure uniqueness for this ZoneList.\n   **   ~~~   ** name that will be used (may be needed in reporting)=\"SP-FRONTSTORAGEFLR3 SYS-4 FLR-4 SCH-E HPLCMT-NORTH ZN SPACE FUNCTION STORAGE AREA - OCCSENS ELEC EQUIP\".\n   ** Warning ** GetInternalHeatGains: ElectricEquipment Combination of ZoneList and Object Name generate a name too long.\n   **   ~~~   ** Object Name=\"SPACE FUNCTION STORAGE AREA - OCCSENS ELEC EQUIP\".\n   **   ~~~   ** ZoneList/Zone Name=\"SP-FRONTSTORAGEFLR4 SYS-4 FLR-3 SCH-E HPLCMT-NORTH ZN\".\n   **   ~~~   ** Item length=[101] > Maximum Length=[100]. You may need to shorten the names.\n   **   ~~~   ** Shortening the Object Name by [2] characters will assure uniqueness for this ZoneList.\n   **   ~~~   ** name that will be used (may be needed in reporting)=\"SP-FRONTSTORAGEFLR4 SYS-4 FLR-3 SCH-E HPLCMT-NORTH ZN SPACE FUNCTION STORAGE AREA - OCCSENS ELEC EQUIP\".\n   ************* Beginning System Sizing Calculations\n   ** Warning ** GetDXCoils: Coil:Cooling:DX:SingleSpeed=\"COIL COOLING DX SINGLE SPEED 7 5KBTU/HR 11.0EER\", invalid\n   **   ~~~   ** ...Part Load Fraction Correlation Curve Name = DXCOOL-NECB2011-REF-COOLPLFFPLR 63 has out of range value.\n   **   ~~~   ** ...Curve maximum must be <= 1.0, curve max at PLR = 0.99 is 1.015\n   **   ~~~   ** ...Setting curve maximum to 1.0 and simulation continues.\n   ** Warning ** GetDXCoils: Coil:Cooling:DX:SingleSpeed=\"COIL COOLING DX SINGLE SPEED 38 6KBTU/HR 11.0EER\", invalid\n   **   ~~~   ** ...Part Load Fraction Correlation Curve Name = DXCOOL-NECB2011-REF-COOLPLFFPLR 31 has out of range value.\n   **   ~~~   ** ...Curve maximum must be <= 1.0, curve max at PLR = 0.99 is 1.015\n   **   ~~~   ** ...Setting curve maximum to 1.0 and simulation continues.\n   ** Warning ** GetDXCoils: Coil:Cooling:DX:SingleSpeed=\"COIL COOLING DX SINGLE SPEED 26 16KBTU/HR 9.3EER\", invalid\n   **   ~~~   ** ...Part Load Fraction Correlation Curve Name = DXCOOL-NECB2011-REF-COOLPLFFPLR 18 has out of range value.\n   **   ~~~   ** ...Curve maximum must be <= 1.0, curve max at PLR = 0.99 is 1.015\n   **   ~~~   ** ...Setting curve maximum to 1.0 and simulation continues.\n   ** Warning ** GetDXCoils: Coil:Cooling:DX:SingleSpeed=\"COIL COOLING DX SINGLE SPEED 17 2KBTU/HR 11.0EER\", invalid\n   **   ~~~   ** ...Part Load Fraction Correlation Curve Name = DXCOOL-NECB2011-REF-COOLPLFFPLR 8 has out of range value.\n   **   ~~~   ** ...Curve maximum must be <= 1.0, curve max at PLR = 0.99 is 1.015\n   **   ~~~   ** ...Setting curve maximum to 1.0 and simulation continues.\n   ** Warning ** GetDXCoils: Coil:Cooling:DX:SingleSpeed=\"COIL COOLING DX SINGLE SPEED 18 2KBTU/HR 11.0EER\", invalid\n   **   ~~~   ** ...Part Load Fraction Correlation Curve Name = DXCOOL-NECB2011-REF-COOLPLFFPLR 9 has out of range value.\n   **   ~~~   ** ...Curve maximum must be <= 1.0, curve max at PLR = 0.99 is 1.015\n   **   ~~~   ** ...Setting curve maximum to 1.0 and simulation continues.\n   ** Warning ** GetDXCoils: Coil:Cooling:DX:SingleSpeed=\"COIL COOLING DX SINGLE SPEED 19 2KBTU/HR 11.0EER\", invalid\n   **   ~~~   ** ...Part Load Fraction Correlation Curve Name = DXCOOL-NECB2011-REF-COOLPLFFPLR 10 has out of range value.\n   **   ~~~   ** ...Curve maximum must be <= 1.0, curve max at PLR = 0.99 is 1.015\n   **   ~~~   ** ...Setting curve maximum to 1.0 and simulation continues.\n   ** Warning ** GetDXCoils: Coil:Cooling:DX:SingleSpeed=\"COIL COOLING DX SINGLE SPEED 14 3KBTU/HR 11.0EER\", invalid\n   **   ~~~   ** ...Part Load Fraction Correlation Curve Name = DXCOOL-NECB2011-REF-COOLPLFFPLR 5 has out of range value.\n   **   ~~~   ** ...Curve maximum must be <= 1.0, curve max at PLR = 0.99 is 1.015\n   **   ~~~   ** ...Setting curve maximum to 1.0 and simulation continues.\n   ** Warning ** GetDXCoils: Coil:Cooling:DX:SingleSpeed=\"COIL COOLING DX SINGLE SPEED 15 2KBTU/HR 11.0EER\", invalid\n   **   ~~~   ** ...Part Load Fraction Correlation Curve Name = DXCOOL-NECB2011-REF-COOLPLFFPLR 6 has out of range value.\n   **   ~~~   ** ...Curve maximum must be <= 1.0, curve max at PLR = 0.99 is 1.015\n   **   ~~~   ** ...Setting curve maximum to 1.0 and simulation continues.\n   ** Warning ** GetDXCoils: Coil:Cooling:DX:SingleSpeed=\"COIL COOLING DX SINGLE SPEED 9 3KBTU/HR 11.0EER\", invalid\n   **   ~~~   ** ...Part Load Fraction Correlation Curve Name = DXCOOL-NECB2011-REF-COOLPLFFPLR 65 has out of range value.\n   **   ~~~   ** ...Curve maximum must be <= 1.0, curve max at PLR = 0.99 is 1.015\n   **   ~~~   ** ...Setting curve maximum to 1.0 and simulation continues.\n   ** Warning ** GetDXCoils: Coil:Cooling:DX:SingleSpeed=\"COIL COOLING DX SINGLE SPEED 11 7KBTU/HR 10.9EER\", invalid\n   **   ~~~   ** ...Part Load Fraction Correlation Curve Name = DXCOOL-NECB2011-REF-COOLPLFFPLR 2 has out of range value.\n   **   ~~~   ** ...Curve maximum must be <= 1.0, curve max at PLR = 0.99 is 1.015\n   **   ~~~   ** ...Setting curve maximum to 1.0 and simulation continues.\n   ** Warning ** GetDXCoils: Coil:Cooling:DX:SingleSpeed=\"COIL COOLING DX SINGLE SPEED 13 5KBTU/HR 11.0EER\", invalid\n   **   ~~~   ** ...Part Load Fraction Correlation Curve Name = DXCOOL-NECB2011-REF-COOLPLFFPLR 4 has out of range value.\n   **   ~~~   ** ...Curve maximum must be <= 1.0, curve max at PLR = 0.99 is 1.015\n   **   ~~~   ** ...Setting curve maximum to 1.0 and simulation continues.\n   ** Warning ** GetDXCoils: Coil:Cooling:DX:SingleSpeed=\"COIL COOLING DX SINGLE SPEED 12 6KBTU/HR 11.0EER\", invalid\n   **   ~~~   ** ...Part Load Fraction Correlation Curve Name = DXCOOL-NECB2011-REF-COOLPLFFPLR 3 has out of range value.\n   **   ~~~   ** ...Curve maximum must be <= 1.0, curve max at PLR = 0.99 is 1.015\n   **   ~~~   ** ...Setting curve maximum to 1.0 and simulation continues.\n   ** Warning ** GetDXCoils: Coil:Cooling:DX:SingleSpeed=\"COIL COOLING DX SINGLE SPEED 10 2KBTU/HR 11.0EER\", invalid\n   **   ~~~   ** ...Part Load Fraction Correlation Curve Name = DXCOOL-NECB2011-REF-COOLPLFFPLR 1 has out of range value.\n   **   ~~~   ** ...Curve maximum must be <= 1.0, curve max at PLR = 0.99 is 1.015\n   **   ~~~   ** ...Setting curve maximum to 1.0 and simulation continues.\n   ** Warning ** GetDXCoils: Coil:Cooling:DX:SingleSpeed=\"COIL COOLING DX SINGLE SPEED 5 2KBTU/HR 11.0EER\", invalid\n   **   ~~~   ** ...Part Load Fraction Correlation Curve Name = DXCOOL-NECB2011-REF-COOLPLFFPLR 44 has out of range value.\n   **   ~~~   ** ...Curve maximum must be <= 1.0, curve max at PLR = 0.99 is 1.015\n   **   ~~~   ** ...Setting curve maximum to 1.0 and simulation continues.\n   ** Warning ** GetDXCoils: Coil:Cooling:DX:SingleSpeed=\"COIL COOLING DX SINGLE SPEED 6 7KBTU/HR 11.0EER\", invalid\n   **   ~~~   ** ...Part Load Fraction Correlation Curve Name = DXCOOL-NECB2011-REF-COOLPLFFPLR 55 has out of range value.\n   **   ~~~   ** ...Curve maximum must be <= 1.0, curve max at PLR = 0.99 is 1.015\n   **   ~~~   ** ...Setting curve maximum to 1.0 and simulation continues.\n   ** Warning ** GetDXCoils: Coil:Cooling:DX:SingleSpeed=\"COIL COOLING DX SINGLE SPEED 3 2KBTU/HR 11.0EER\", invalid\n   **   ~~~   ** ...Part Load Fraction Correlation Curve Name = DXCOOL-NECB2011-REF-COOLPLFFPLR 22 has out of range value.\n   **   ~~~   ** ...Curve maximum must be <= 1.0, curve max at PLR = 0.99 is 1.015\n   **   ~~~   ** ...Setting curve maximum to 1.0 and simulation continues.\n   ** Warning ** GetDXCoils: Coil:Cooling:DX:SingleSpeed=\"COIL COOLING DX SINGLE SPEED 2 8KBTU/HR 10.9EER\", invalid\n   **   ~~~   ** ...Part Load Fraction Correlation Curve Name = DXCOOL-NECB2011-REF-COOLPLFFPLR 11 has out of range value.\n   **   ~~~   ** ...Curve maximum must be <= 1.0, curve max at PLR = 0.99 is 1.015\n   **   ~~~   ** ...Setting curve maximum to 1.0 and simulation continues.\n   ** Warning ** GetDXCoils: Coil:Cooling:DX:SingleSpeed=\"COIL COOLING DX SINGLE SPEED 4 2KBTU/HR 11.0EER\", invalid\n   **   ~~~   ** ...Part Load Fraction Correlation Curve Name = DXCOOL-NECB2011-REF-COOLPLFFPLR 33 has out of range value.\n   **   ~~~   ** ...Curve maximum must be <= 1.0, curve max at PLR = 0.99 is 1.015\n   **   ~~~   ** ...Setting curve maximum to 1.0 and simulation continues.\n   ** Warning ** GetDXCoils: Coil:Cooling:DX:SingleSpeed=\"COIL COOLING DX SINGLE SPEED 40 3KBTU/HR 11.0EER\", invalid\n   **   ~~~   ** ...Part Load Fraction Correlation Curve Name = DXCOOL-NECB2011-REF-COOLPLFFPLR 34 has out of range value.\n   **   ~~~   ** ...Curve maximum must be <= 1.0, curve max at PLR = 0.99 is 1.015\n   **   ~~~   ** ...Setting curve maximum to 1.0 and simulation continues.\n   ** Warning ** GetDXCoils: Coil:Cooling:DX:SingleSpeed=\"COIL COOLING DX SINGLE SPEED 41 7KBTU/HR 11.0EER\", invalid\n   **   ~~~   ** ...Part Load Fraction Correlation Curve Name = DXCOOL-NECB2011-REF-COOLPLFFPLR 35 has out of range value.\n   **   ~~~   ** ...Curve maximum must be <= 1.0, curve max at PLR = 0.99 is 1.015\n   **   ~~~   ** ...Setting curve maximum to 1.0 and simulation continues.\n   ** Warning ** GetDXCoils: Coil:Cooling:DX:SingleSpeed=\"COIL COOLING DX SINGLE SPEED 43 6KBTU/HR 11.0EER\", invalid\n   **   ~~~   ** ...Part Load Fraction Correlation Curve Name = DXCOOL-NECB2011-REF-COOLPLFFPLR 37 has out of range value.\n   **   ~~~   ** ...Curve maximum must be <= 1.0, curve max at PLR = 0.99 is 1.015\n   **   ~~~   ** ...Setting curve maximum to 1.0 and simulation continues.\n   ** Warning ** GetDXCoils: Coil:Cooling:DX:SingleSpeed=\"COIL COOLING DX SINGLE SPEED 44 7KBTU/HR 11.0EER\", invalid\n   **   ~~~   ** ...Part Load Fraction Correlation Curve Name = DXCOOL-NECB2011-REF-COOLPLFFPLR 38 has out of range value.\n   **   ~~~   ** ...Curve maximum must be <= 1.0, curve max at PLR = 0.99 is 1.015\n   **   ~~~   ** ...Setting curve maximum to 1.0 and simulation continues.\n   ** Warning ** GetDXCoils: Coil:Cooling:DX:SingleSpeed=\"COIL COOLING DX SINGLE SPEED 42 2KBTU/HR 11.0EER\", invalid\n   **   ~~~   ** ...Part Load Fraction Correlation Curve Name = DXCOOL-NECB2011-REF-COOLPLFFPLR 36 has out of range value.\n   **   ~~~   ** ...Curve maximum must be <= 1.0, curve max at PLR = 0.99 is 1.015\n   **   ~~~   ** ...Setting curve maximum to 1.0 and simulation continues.\n   ** Warning ** GetDXCoils: Coil:Cooling:DX:SingleSpeed=\"COIL COOLING DX SINGLE SPEED 35 2KBTU/HR 11.0EER\", invalid\n   **   ~~~   ** ...Part Load Fraction Correlation Curve Name = DXCOOL-NECB2011-REF-COOLPLFFPLR 28 has out of range value.\n   **   ~~~   ** ...Curve maximum must be <= 1.0, curve max at PLR = 0.99 is 1.015\n   **   ~~~   ** ...Setting curve maximum to 1.0 and simulation continues.\n   ** Warning ** GetDXCoils: Coil:Cooling:DX:SingleSpeed=\"COIL COOLING DX SINGLE SPEED 37 8KBTU/HR 10.9EER\", invalid\n   **   ~~~   ** ...Part Load Fraction Correlation Curve Name = DXCOOL-NECB2011-REF-COOLPLFFPLR 30 has out of range value.\n   **   ~~~   ** ...Curve maximum must be <= 1.0, curve max at PLR = 0.99 is 1.015\n   **   ~~~   ** ...Setting curve maximum to 1.0 and simulation continues.\n   ** Warning ** GetDXCoils: Coil:Cooling:DX:SingleSpeed=\"COIL COOLING DX SINGLE SPEED 36 2KBTU/HR 11.0EER\", invalid\n   **   ~~~   ** ...Part Load Fraction Correlation Curve Name = DXCOOL-NECB2011-REF-COOLPLFFPLR 29 has out of range value.\n   **   ~~~   ** ...Curve maximum must be <= 1.0, curve max at PLR = 0.99 is 1.015\n   **   ~~~   ** ...Setting curve maximum to 1.0 and simulation continues.\n   ** Warning ** GetDXCoils: Coil:Cooling:DX:SingleSpeed=\"COIL COOLING DX SINGLE SPEED 34 8KBTU/HR 10.9EER\", invalid\n   **   ~~~   ** ...Part Load Fraction Correlation Curve Name = DXCOOL-NECB2011-REF-COOLPLFFPLR 27 has out of range value.\n   **   ~~~   ** ...Curve maximum must be <= 1.0, curve max at PLR = 0.99 is 1.015\n   **   ~~~   ** ...Setting curve maximum to 1.0 and simulation continues.\n   ** Warning ** GetDXCoils: Coil:Cooling:DX:SingleSpeed=\"COIL COOLING DX SINGLE SPEED 33 2KBTU/HR 11.0EER\", invalid\n   **   ~~~   ** ...Part Load Fraction Correlation Curve Name = DXCOOL-NECB2011-REF-COOLPLFFPLR 26 has out of range value.\n   **   ~~~   ** ...Curve maximum must be <= 1.0, curve max at PLR = 0.99 is 1.015\n   **   ~~~   ** ...Setting curve maximum to 1.0 and simulation continues.\n   ** Warning ** GetDXCoils: Coil:Cooling:DX:SingleSpeed=\"COIL COOLING DX SINGLE SPEED 28 6KBTU/HR 11.0EER\", invalid\n   **   ~~~   ** ...Part Load Fraction Correlation Curve Name = DXCOOL-NECB2011-REF-COOLPLFFPLR 20 has out of range value.\n   **   ~~~   ** ...Curve maximum must be <= 1.0, curve max at PLR = 0.99 is 1.015\n   **   ~~~   ** ...Setting curve maximum to 1.0 and simulation continues.\n   ** Warning ** GetDXCoils: Coil:Cooling:DX:SingleSpeed=\"COIL COOLING DX SINGLE SPEED 29 17KBTU/HR 9.3EER\", invalid\n   **   ~~~   ** ...Part Load Fraction Correlation Curve Name = DXCOOL-NECB2011-REF-COOLPLFFPLR 21 has out of range value.\n   **   ~~~   ** ...Curve maximum must be <= 1.0, curve max at PLR = 0.99 is 1.015\n   **   ~~~   ** ...Setting curve maximum to 1.0 and simulation continues.\n   ** Warning ** GetDXCoils: Coil:Cooling:DX:SingleSpeed=\"COIL COOLING DX SINGLE SPEED 32 14KBTU/HR 9.5EER\", invalid\n   **   ~~~   ** ...Part Load Fraction Correlation Curve Name = DXCOOL-NECB2011-REF-COOLPLFFPLR 25 has out of range value.\n   **   ~~~   ** ...Curve maximum must be <= 1.0, curve max at PLR = 0.99 is 1.015\n   **   ~~~   ** ...Setting curve maximum to 1.0 and simulation continues.\n   ** Warning ** GetDXCoils: Coil:Cooling:DX:SingleSpeed=\"COIL COOLING DX SINGLE SPEED 31 17KBTU/HR 9.3EER\", invalid\n   **   ~~~   ** ...Part Load Fraction Correlation Curve Name = DXCOOL-NECB2011-REF-COOLPLFFPLR 24 has out of range value.\n   **   ~~~   ** ...Curve maximum must be <= 1.0, curve max at PLR = 0.99 is 1.015\n   **   ~~~   ** ...Setting curve maximum to 1.0 and simulation continues.\n   ** Warning ** GetDXCoils: Coil:Cooling:DX:SingleSpeed=\"COIL COOLING DX SINGLE SPEED 30 5KBTU/HR 11.0EER\", invalid\n   **   ~~~   ** ...Part Load Fraction Correlation Curve Name = DXCOOL-NECB2011-REF-COOLPLFFPLR 23 has out of range value.\n   **   ~~~   ** ...Curve maximum must be <= 1.0, curve max at PLR = 0.99 is 1.015\n   **   ~~~   ** ...Setting curve maximum to 1.0 and simulation continues.\n   ** Warning ** GetDXCoils: Coil:Cooling:DX:SingleSpeed=\"COIL COOLING DX SINGLE SPEED 25 4KBTU/HR 11.0EER\", invalid\n   **   ~~~   ** ...Part Load Fraction Correlation Curve Name = DXCOOL-NECB2011-REF-COOLPLFFPLR 17 has out of range value.\n   **   ~~~   ** ...Curve maximum must be <= 1.0, curve max at PLR = 0.99 is 1.015\n   **   ~~~   ** ...Setting curve maximum to 1.0 and simulation continues.\n   ** Warning ** GetDXCoils: Coil:Cooling:DX:SingleSpeed=\"COIL COOLING DX SINGLE SPEED 23 15KBTU/HR 9.3EER\", invalid\n   **   ~~~   ** ...Part Load Fraction Correlation Curve Name = DXCOOL-NECB2011-REF-COOLPLFFPLR 15 has out of range value.\n   **   ~~~   ** ...Curve maximum must be <= 1.0, curve max at PLR = 0.99 is 1.015\n   **   ~~~   ** ...Setting curve maximum to 1.0 and simulation continues.\n   ** Warning ** GetDXCoils: Coil:Cooling:DX:SingleSpeed=\"COIL COOLING DX SINGLE SPEED 22 4KBTU/HR 11.0EER\", invalid\n   **   ~~~   ** ...Part Load Fraction Correlation Curve Name = DXCOOL-NECB2011-REF-COOLPLFFPLR 14 has out of range value.\n   **   ~~~   ** ...Curve maximum must be <= 1.0, curve max at PLR = 0.99 is 1.015\n   **   ~~~   ** ...Setting curve maximum to 1.0 and simulation continues.\n   ** Warning ** GetDXCoils: Coil:Cooling:DX:SingleSpeed=\"COIL COOLING DX SINGLE SPEED 21 15KBTU/HR 9.3EER\", invalid\n   **   ~~~   ** ...Part Load Fraction Correlation Curve Name = DXCOOL-NECB2011-REF-COOLPLFFPLR 13 has out of range value.\n   **   ~~~   ** ...Curve maximum must be <= 1.0, curve max at PLR = 0.99 is 1.015\n   **   ~~~   ** ...Setting curve maximum to 1.0 and simulation continues.\n   ** Warning ** GetDXCoils: Coil:Cooling:DX:SingleSpeed=\"COIL COOLING DX SINGLE SPEED 24 4KBTU/HR 11.0EER\", invalid\n   **   ~~~   ** ...Part Load Fraction Correlation Curve Name = DXCOOL-NECB2011-REF-COOLPLFFPLR 16 has out of range value.\n   **   ~~~   ** ...Curve maximum must be <= 1.0, curve max at PLR = 0.99 is 1.015\n   **   ~~~   ** ...Setting curve maximum to 1.0 and simulation continues.\n   ** Warning ** GetDXCoils: Coil:Cooling:DX:SingleSpeed=\"COIL COOLING DX SINGLE SPEED 20 1KBTU/HR 11.0EER\", invalid\n   **   ~~~   ** ...Part Load Fraction Correlation Curve Name = DXCOOL-NECB2011-REF-COOLPLFFPLR 12 has out of range value.\n   **   ~~~   ** ...Curve maximum must be <= 1.0, curve max at PLR = 0.99 is 1.015\n   **   ~~~   ** ...Setting curve maximum to 1.0 and simulation continues.\n   ** Warning ** GetDXCoils: Coil:Cooling:DX:SingleSpeed=\"COIL COOLING DX SINGLE SPEED 16 3KBTU/HR 11.0EER\", invalid\n   **   ~~~   ** ...Part Load Fraction Correlation Curve Name = DXCOOL-NECB2011-REF-COOLPLFFPLR 7 has out of range value.\n   **   ~~~   ** ...Curve maximum must be <= 1.0, curve max at PLR = 0.99 is 1.015\n   **   ~~~   ** ...Setting curve maximum to 1.0 and simulation continues.\n   ** Warning ** GetDXCoils: Coil:Cooling:DX:SingleSpeed=\"COIL COOLING DX SINGLE SPEED 8 2KBTU/HR 11.0EER\", invalid\n   **   ~~~   ** ...Part Load Fraction Correlation Curve Name = DXCOOL-NECB2011-REF-COOLPLFFPLR 64 has out of range value.\n   **   ~~~   ** ...Curve maximum must be <= 1.0, curve max at PLR = 0.99 is 1.015\n   **   ~~~   ** ...Setting curve maximum to 1.0 and simulation continues.\n   ** Warning ** GetDXCoils: Coil:Cooling:DX:SingleSpeed=\"COIL COOLING DX SINGLE SPEED 39 3KBTU/HR 11.0EER\", invalid\n   **   ~~~   ** ...Part Load Fraction Correlation Curve Name = DXCOOL-NECB2011-REF-COOLPLFFPLR 32 has out of range value.\n   **   ~~~   ** ...Curve maximum must be <= 1.0, curve max at PLR = 0.99 is 1.015\n   **   ~~~   ** ...Setting curve maximum to 1.0 and simulation continues.\n   ** Warning ** GetDXCoils: Coil:Cooling:DX:SingleSpeed=\"COIL COOLING DX SINGLE SPEED 27 4KBTU/HR 11.0EER\", invalid\n   **   ~~~   ** ...Part Load Fraction Correlation Curve Name = DXCOOL-NECB2011-REF-COOLPLFFPLR 19 has out of range value.\n   **   ~~~   ** ...Curve maximum must be <= 1.0, curve max at PLR = 0.99 is 1.015\n   **   ~~~   ** ...Setting curve maximum to 1.0 and simulation continues.\n   ** Warning ** GetDXCoils: Coil:Cooling:DX:SingleSpeed=\"COIL COOLING DX SINGLE SPEED 1 125KBTU/HR 9.7EER\", invalid\n   **   ~~~   ** ...Part Load Fraction Correlation Curve Name = DXCOOL-NECB2011-REF-COOLPLFFPLR has out of range value.\n   **   ~~~   ** ...Curve maximum must be <= 1.0, curve max at PLR = 0.99 is 1.015\n   **   ~~~   ** ...Setting curve maximum to 1.0 and simulation continues.\n   ** Warning ** GetDXCoils: Coil:Cooling:DX:SingleSpeed=\"COIL COOLING DX SINGLE SPEED 46 10KBTU/HR 14.0SEER\", invalid\n   **   ~~~   ** ...Part Load Fraction Correlation Curve Name = DXCOOL-NECB2011-REF-COOLPLFFPLR 40 has out of range value.\n   **   ~~~   ** ...Curve maximum must be <= 1.0, curve max at PLR = 0.99 is 1.015\n   **   ~~~   ** ...Setting curve maximum to 1.0 and simulation continues.\n   ** Warning ** GetDXCoils: Coil:Cooling:DX:SingleSpeed=\"COIL COOLING DX SINGLE SPEED 50 5KBTU/HR 14.0SEER\", invalid\n   **   ~~~   ** ...Part Load Fraction Correlation Curve Name = DXCOOL-NECB2011-REF-COOLPLFFPLR 45 has out of range value.\n   **   ~~~   ** ...Curve maximum must be <= 1.0, curve max at PLR = 0.99 is 1.015\n   **   ~~~   ** ...Setting curve maximum to 1.0 and simulation continues.\n   ** Warning ** GetDXCoils: Coil:Cooling:DX:SingleSpeed=\"COIL COOLING DX SINGLE SPEED 45 5KBTU/HR 14.0SEER\", invalid\n   **   ~~~   ** ...Part Load Fraction Correlation Curve Name = DXCOOL-NECB2011-REF-COOLPLFFPLR 39 has out of range value.\n   **   ~~~   ** ...Curve maximum must be <= 1.0, curve max at PLR = 0.99 is 1.015\n   **   ~~~   ** ...Setting curve maximum to 1.0 and simulation continues.\n   ** Warning ** GetDXCoils: Coil:Cooling:DX:SingleSpeed=\"COIL COOLING DX SINGLE SPEED 53 5KBTU/HR 14.0SEER\", invalid\n   **   ~~~   ** ...Part Load Fraction Correlation Curve Name = DXCOOL-NECB2011-REF-COOLPLFFPLR 48 has out of range value.\n   **   ~~~   ** ...Curve maximum must be <= 1.0, curve max at PLR = 0.99 is 1.015\n   **   ~~~   ** ...Setting curve maximum to 1.0 and simulation continues.\n   ** Warning ** GetDXCoils: Coil:Cooling:DX:SingleSpeed=\"COIL COOLING DX SINGLE SPEED 52 5KBTU/HR 14.0SEER\", invalid\n   **   ~~~   ** ...Part Load Fraction Correlation Curve Name = DXCOOL-NECB2011-REF-COOLPLFFPLR 47 has out of range value.\n   **   ~~~   ** ...Curve maximum must be <= 1.0, curve max at PLR = 0.99 is 1.015\n   **   ~~~   ** ...Setting curve maximum to 1.0 and simulation continues.\n   ** Warning ** GetDXCoils: Coil:Cooling:DX:SingleSpeed=\"COIL COOLING DX SINGLE SPEED 49 4KBTU/HR 14.0SEER\", invalid\n   **   ~~~   ** ...Part Load Fraction Correlation Curve Name = DXCOOL-NECB2011-REF-COOLPLFFPLR 43 has out of range value.\n   **   ~~~   ** ...Curve maximum must be <= 1.0, curve max at PLR = 0.99 is 1.015\n   **   ~~~   ** ...Setting curve maximum to 1.0 and simulation continues.\n   ** Warning ** GetDXCoils: Coil:Cooling:DX:SingleSpeed=\"COIL COOLING DX SINGLE SPEED 51 21KBTU/HR 14.0SEER\", invalid\n   **   ~~~   ** ...Part Load Fraction Correlation Curve Name = DXCOOL-NECB2011-REF-COOLPLFFPLR 46 has out of range value.\n   **   ~~~   ** ...Curve maximum must be <= 1.0, curve max at PLR = 0.99 is 1.015\n   **   ~~~   ** ...Setting curve maximum to 1.0 and simulation continues.\n   ** Warning ** GetDXCoils: Coil:Cooling:DX:SingleSpeed=\"COIL COOLING DX SINGLE SPEED 57 3KBTU/HR 14.0SEER\", invalid\n   **   ~~~   ** ...Part Load Fraction Correlation Curve Name = DXCOOL-NECB2011-REF-COOLPLFFPLR 52 has out of range value.\n   **   ~~~   ** ...Curve maximum must be <= 1.0, curve max at PLR = 0.99 is 1.015\n   **   ~~~   ** ...Setting curve maximum to 1.0 and simulation continues.\n   ** Warning ** GetDXCoils: Coil:Cooling:DX:SingleSpeed=\"COIL COOLING DX SINGLE SPEED 54 3KBTU/HR 14.0SEER\", invalid\n   **   ~~~   ** ...Part Load Fraction Correlation Curve Name = DXCOOL-NECB2011-REF-COOLPLFFPLR 49 has out of range value.\n   **   ~~~   ** ...Curve maximum must be <= 1.0, curve max at PLR = 0.99 is 1.015\n   **   ~~~   ** ...Setting curve maximum to 1.0 and simulation continues.\n   ** Warning ** GetDXCoils: Coil:Cooling:DX:SingleSpeed=\"COIL COOLING DX SINGLE SPEED 64 3KBTU/HR 14.0SEER\", invalid\n   **   ~~~   ** ...Part Load Fraction Correlation Curve Name = DXCOOL-NECB2011-REF-COOLPLFFPLR 60 has out of range value.\n   **   ~~~   ** ...Curve maximum must be <= 1.0, curve max at PLR = 0.99 is 1.015\n   **   ~~~   ** ...Setting curve maximum to 1.0 and simulation continues.\n   ** Warning ** GetDXCoils: Coil:Cooling:DX:SingleSpeed=\"COIL COOLING DX SINGLE SPEED 61 5KBTU/HR 14.0SEER\", invalid\n   **   ~~~   ** ...Part Load Fraction Correlation Curve Name = DXCOOL-NECB2011-REF-COOLPLFFPLR 57 has out of range value.\n   **   ~~~   ** ...Curve maximum must be <= 1.0, curve max at PLR = 0.99 is 1.015\n   **   ~~~   ** ...Setting curve maximum to 1.0 and simulation continues.\n   ** Warning ** GetDXCoils: Coil:Cooling:DX:SingleSpeed=\"COIL COOLING DX SINGLE SPEED 58 1KBTU/HR 14.0SEER\", invalid\n   **   ~~~   ** ...Part Load Fraction Correlation Curve Name = DXCOOL-NECB2011-REF-COOLPLFFPLR 53 has out of range value.\n   **   ~~~   ** ...Curve maximum must be <= 1.0, curve max at PLR = 0.99 is 1.015\n   **   ~~~   ** ...Setting curve maximum to 1.0 and simulation continues.\n   ** Warning ** GetDXCoils: Coil:Cooling:DX:SingleSpeed=\"COIL COOLING DX SINGLE SPEED 55 1KBTU/HR 14.0SEER\", invalid\n   **   ~~~   ** ...Part Load Fraction Correlation Curve Name = DXCOOL-NECB2011-REF-COOLPLFFPLR 50 has out of range value.\n   **   ~~~   ** ...Curve maximum must be <= 1.0, curve max at PLR = 0.99 is 1.015\n   **   ~~~   ** ...Setting curve maximum to 1.0 and simulation continues.\n   ** Warning ** GetDXCoils: Coil:Cooling:DX:SingleSpeed=\"COIL COOLING DX SINGLE SPEED 65 1KBTU/HR 14.0SEER\", invalid\n   **   ~~~   ** ...Part Load Fraction Correlation Curve Name = DXCOOL-NECB2011-REF-COOLPLFFPLR 61 has out of range value.\n   **   ~~~   ** ...Curve maximum must be <= 1.0, curve max at PLR = 0.99 is 1.015\n   **   ~~~   ** ...Setting curve maximum to 1.0 and simulation continues.\n   ** Warning ** GetDXCoils: Coil:Cooling:DX:SingleSpeed=\"COIL COOLING DX SINGLE SPEED 62 2KBTU/HR 14.0SEER\", invalid\n   **   ~~~   ** ...Part Load Fraction Correlation Curve Name = DXCOOL-NECB2011-REF-COOLPLFFPLR 58 has out of range value.\n   **   ~~~   ** ...Curve maximum must be <= 1.0, curve max at PLR = 0.99 is 1.015\n   **   ~~~   ** ...Setting curve maximum to 1.0 and simulation continues.\n   ** Warning ** GetDXCoils: Coil:Cooling:DX:SingleSpeed=\"COIL COOLING DX SINGLE SPEED 59 7KBTU/HR 14.0SEER\", invalid\n   **   ~~~   ** ...Part Load Fraction Correlation Curve Name = DXCOOL-NECB2011-REF-COOLPLFFPLR 54 has out of range value.\n   **   ~~~   ** ...Curve maximum must be <= 1.0, curve max at PLR = 0.99 is 1.015\n   **   ~~~   ** ...Setting curve maximum to 1.0 and simulation continues.\n   ** Warning ** GetDXCoils: Coil:Cooling:DX:SingleSpeed=\"COIL COOLING DX SINGLE SPEED 48 4KBTU/HR 14.0SEER\", invalid\n   **   ~~~   ** ...Part Load Fraction Correlation Curve Name = DXCOOL-NECB2011-REF-COOLPLFFPLR 42 has out of range value.\n   **   ~~~   ** ...Curve maximum must be <= 1.0, curve max at PLR = 0.99 is 1.015\n   **   ~~~   ** ...Setting curve maximum to 1.0 and simulation continues.\n   ** Warning ** GetDXCoils: Coil:Cooling:DX:SingleSpeed=\"COIL COOLING DX SINGLE SPEED 60 4KBTU/HR 14.0SEER\", invalid\n   **   ~~~   ** ...Part Load Fraction Correlation Curve Name = DXCOOL-NECB2011-REF-COOLPLFFPLR 56 has out of range value.\n   **   ~~~   ** ...Curve maximum must be <= 1.0, curve max at PLR = 0.99 is 1.015\n   **   ~~~   ** ...Setting curve maximum to 1.0 and simulation continues.\n   ** Warning ** GetDXCoils: Coil:Cooling:DX:SingleSpeed=\"COIL COOLING DX SINGLE SPEED 56 3KBTU/HR 14.0SEER\", invalid\n   **   ~~~   ** ...Part Load Fraction Correlation Curve Name = DXCOOL-NECB2011-REF-COOLPLFFPLR 51 has out of range value.\n   **   ~~~   ** ...Curve maximum must be <= 1.0, curve max at PLR = 0.99 is 1.015\n   **   ~~~   ** ...Setting curve maximum to 1.0 and simulation continues.\n   ** Warning ** GetDXCoils: Coil:Cooling:DX:SingleSpeed=\"COIL COOLING DX SINGLE SPEED 66 4KBTU/HR 14.0SEER\", invalid\n   **   ~~~   ** ...Part Load Fraction Correlation Curve Name = DXCOOL-NECB2011-REF-COOLPLFFPLR 62 has out of range value.\n   **   ~~~   ** ...Curve maximum must be <= 1.0, curve max at PLR = 0.99 is 1.015\n   **   ~~~   ** ...Setting curve maximum to 1.0 and simulation continues.\n   ** Warning ** GetDXCoils: Coil:Cooling:DX:SingleSpeed=\"COIL COOLING DX SINGLE SPEED 63 5KBTU/HR 14.0SEER\", invalid\n   **   ~~~   ** ...Part Load Fraction Correlation Curve Name = DXCOOL-NECB2011-REF-COOLPLFFPLR 59 has out of range value.\n   **   ~~~   ** ...Curve maximum must be <= 1.0, curve max at PLR = 0.99 is 1.015\n   **   ~~~   ** ...Setting curve maximum to 1.0 and simulation continues.\n   ** Warning ** GetDXCoils: Coil:Cooling:DX:SingleSpeed=\"COIL COOLING DX SINGLE SPEED 47 2KBTU/HR 14.0SEER\", invalid\n   **   ~~~   ** ...Part Load Fraction Correlation Curve Name = DXCOOL-NECB2011-REF-COOLPLFFPLR 41 has out of range value.\n   **   ~~~   ** ...Curve maximum must be <= 1.0, curve max at PLR = 0.99 is 1.015\n   **   ~~~   ** ...Setting curve maximum to 1.0 and simulation continues.\n   ** Warning ** Since Zone Minimum Air Flow Input Method = CONSTANT, input for Fixed Minimum Air Flow Rate will be ignored.\n   **   ~~~   ** Occurs in AirTerminal:SingleDuct:VAV:Reheat = AIR TERMINAL SINGLE DUCT VAV REHEAT 1\n   ** Warning ** Since Zone Minimum Air Flow Input Method = CONSTANT, input for Fixed Minimum Air Flow Rate will be ignored.\n   **   ~~~   ** Occurs in AirTerminal:SingleDuct:VAV:Reheat = AIR TERMINAL SINGLE DUCT VAV REHEAT 2\n   ************* Beginning Plant Sizing Calculations\n   ** Warning ** The Standard Ratings is calculated for Coil:Cooling:DX:SingleSpeed = COIL COOLING DX SINGLE SPEED 7 5KBTU/HR 11.0EER but not at the AHRI test condition due to curve out of bound.\n   **   ~~~   **  Review the Standard Ratings calculations in the Engineering Reference for this coil type. Also, use Output:Diagnostics, DisplayExtraWarnings for further guidance.\n   ** Warning ** The Standard Ratings is calculated for Coil:Cooling:DX:SingleSpeed = COIL COOLING DX SINGLE SPEED 38 6KBTU/HR 11.0EER but not at the AHRI test condition due to curve out of bound.\n   **   ~~~   **  Review the Standard Ratings calculations in the Engineering Reference for this coil type. Also, use Output:Diagnostics, DisplayExtraWarnings for further guidance.\n   ** Warning ** The Standard Ratings is calculated for Coil:Cooling:DX:SingleSpeed = COIL COOLING DX SINGLE SPEED 26 16KBTU/HR 9.3EER but not at the AHRI test condition due to curve out of bound.\n   **   ~~~   **  Review the Standard Ratings calculations in the Engineering Reference for this coil type. Also, use Output:Diagnostics, DisplayExtraWarnings for further guidance.\n   ** Warning ** The Standard Ratings is calc
[...]
Ve7DcmC+NJMUaPthvTJlG7spYxwcrjlnTSFKs44MtpzhNcZritC+EitM+R3Ga4jTFaYNRnKY4bdW3Upy2eP6KzytOex7FaY95wf9pbcwvII444ogjjjjiiCOOOOKIs3ucjWkHpJFGGmmkkUYaaaSRRhpp9kPzNroDccQRRxxxxBFHHHHEEUec+ecpTruP4rSHOO28E3HaYQ/itMOPidPOv38WOiu5SQUdUkHHVNApFXROBV1SQddU0C0VtPj9PUuKdbvFyt1i7W6xerdYv1us4C3W8BareIt1vMc63nP3d6zjPdbxvq7j3xenLbPmxWkkp35L8+I0klPfAvPiNJJT3wDz4jSSU59+IE5DQalGD9YbEKehoFSpB7sNiNNQUKrXg8UGxGnoZkw1e7DVgDgNBaWaPVhp8+K0ZQ4Qp6Gg+hUBcRoKqg8/EKehoPrwA3EaCqoPPxGnsaRYtwebjYjTWFKs3oPlRsRpLCnW8MF+I+I0dlfGOj5YcUScxpJiHR9sOcVpitMUp30hVJz2OYrTFKcpThuM4jTFaau+leK0xfNXfF5x2vMoTnvMC/5Pa2N+AXHEEUccccQRRxxxxBFHnN3jbEw7II000kgjjTTSSCONNNJIsx+at9EdiCOOOOKII4444ogjjjjizD9Pcdp9FKc9xGmXnYjTjnsQpx1/TJz28atHvGkk5xDKOYZyTqGc8/+1d4a/jVz31f7+/hWsCiRadFfWHYqU5MYtnLWdpEjqwnYaFIZhcFezu7JlSSAp24vA//ur4VIsufLvambOGYZTPfdD7O5Q5z4cnXvvdCU+NuUcm3JOTDmnppyNj91LQa5GJ1elk6vTyVXq5Gp1ctU6uXqdXMVOrmYXrmYXtr3a1ezC1eyiUbPrC9I2otr70YSY8A61t6MJMeG6b+9GE2LCNd/ejCbEhOtd8KIpOaYex8eYIEVTckxVjs8wwYim5JjaHB9ggg5N2QdNfY5PL8GFpuSY+hwfXe1FaBsxggdNyQlvj2BBU3LC5S440JSccLkLBjQlJ1zuiv9MCnI1Oj7BFPmZFOQqdXyIKeYzKcjV6/gcU7Rn0s7oanZ8lCnOMynI1ez4NEN4hvAM4dk9QoRn1UB4hvAM4VlmIDxDeNboXSE825i/wesRnq0PhGer0cHvV+2YFwAccMABBxxwwAEHHHDAAaf3ODumC4AGGmiggQYaaKCBBhpooOkPzaPRFIADDjjggAMOOOCAAw444LSfD+HZciA8WwnPTnoiPBv1QXg22qLw7HBkMp4JQUNX0JEraOQKGruCjl1BJ66gU1fQex+4V5Js3U62cidbu5Ot3snW72QreLI1PNkqnmwdL2wdL3z7t63jha3jRbOONxGhrWcpJrT2OfFdUlxo7XPiXUCxobXPiXcAxYfWPide/ZIRTQhyNTpzvElSNCHIVerM2SZ50YQgV68zB5ukRhN2RlezM6eaZEcTglzNzhxpiiBtPUcypAlB8S2SHGlCULz4JUuaEBQvfsmTJgTFi18zpSlJtm5nTjZNlqYk2eqdOdw0X5qSZGt45nzTlGnKXmnreOaI06xpSpKt45lTDnEa4jTEafcIEadVA3Ea4jTEaZmBOA1xWqN3hThtY/4Gr0ectj4Qp61GB7+ntWN+AXDAAQcccMABBxxwwAEHnN7j7Jh2ABpooIEGGmiggQYaaKCBpj80j0Z3AA444IADDjjggAMOOOCA034+xGnLgThtJU477Yk4bdwHcdp4a+K08eJjoW0lN66goSvoyBU0cgWNXUHHrqATV9CpK2jj8/dakq3byVbuZGt3stU72fqdbAVPtoYnW8WTreOFreOFb/+2dbywdbxo1vH64rTNrPbiNCUnvkvtxWlKTrwLtBenKTnxDtBenKbkxKtfEKdJQa5GZ443QZwmBblKnTnbBHGaFOTqdeZgE8Rp0s7oanbmVBPEaVKQq9mZI629OG0zRxCnSUHxLRLEaVJQvPgFcZoUFC9+QZwmBcWLXxGnaUm2bmdONkWcpiXZ6p053BRxmpZka3jmfFPEadpeaet45ohTxGlakq3jmVMOcRriNMRp9wgRp1UDcRriNMRpmYE4DXFao3eFOG1j/gavR5y2PhCnrUYHv6e1Y34BcMABBxxwwAEHHHDAAQec3uPsmHYAGmiggQYaaKCBBhpooIGmPzSPRncADjjggAMOOOCAAw444IDTfj7EacuBOO1OnHbSE2/acR+8acd409oF4U17OAhvWq0kvGl40/Cm4U3Dm4Y3DW8a3jS8ab+6M+JNezgIb9qDQXjT8KbhTcObZkvCm1YvCW9aDIM3DW/a+wNv2h0+3rT3B960OgNvWrPX403Dm9boXeFN25i/wevxpq0PvGmr0cGvae2YXgAccMABBxxwwAEHHHDAAaf3ODtmHYAGGmiggQYaaKCBBhpooOkPzaOxHYADDjjggAMOOOCAAw444LSfD2/acuBNW3nTDnsiTjvpgzjtZGvitMODwuJNU3KGppwjU87IlDM25Rybck5MOaemnI2P3UtBrkYnV6WTq9PJVerkanVy1Tq5ep1cxU6uZheuZhe2vdrV7MLV7KJRs+sL0jai2vvRhJjwDrW3owkx4bpv70YTYsI1396MJsSE613woik5ph7Hx5ggRVNyTFWOzzDBiKbkmNocH2CCDk3ZB019jk8vwYWm5Jj6HB9d7UVoGzGCB03JCW+PYEFTcsLlLjjQlJxwuQsGNCUnXO6K/0wKcjU6PsEU+ZkU5Cp1fIgp5jMpyNXr+BxTtGfSzuhqdnyUKc4zKcjV7Pg0Q3iG8Azh2T1ChGfVQHiG8AzhWWYgPEN41uhdITzbmL/B6xGerQ+EZ6vRwe9X7ZgXABxwwAEHHHDAAQcccMABp/c4O6YLgAYaaKCBBhpooIEGGmig6Q/No9EUgAMOOOCAAw444IADDjjgtJ8P4dlyIDxbCc9ST4Rnp30Qnp1uUXh2ODIZz4SgoSvoyBU0cgWNXUHHrqATV9CpK+i9D9wrSbZuJ1u5k63dyVbvZOt3shU82RqebBVPto4Xto4Xvv3b1vHC1vGiWcebiNDWsxQTWvuc+C4pLrT2OfEuoNjQ2ufEO4DiQ2ufE69+yYgmBLkanTneJCmaEOQqdeZsk7xoQpCr15mDTVKjCTujq9mZU02yowlBrmZnjjRFkLaeIxnShKD4FkmONCEoXvySJU0Iihe/5EkTguLFr5nSlCRbtzMnmyZLU5Js9c4cbpovTUmyNTxzvmnKNGWvtHU8c8Rp1jQlydbxzCmHOA1xGuK0e4SI06qBOA1xGuK0zECchjit0btCnLYxf4PXI05bH4jTVqOD39PaMb8AOOCAAw444IADDjjggANO73F2TDsADTTQQAMNNNBAAw000EDTH5pHozsABxxwwAEHHHDAAQcccMBpPx/itOVAnLYSpxX9EKedHPZAnHYLuS1x2njxsdC2khtX0NAVdOQKGrmCxq6gY1fQiSvo1BW08fl7LcnW7WQrd7K1O9nqnWz9TraCJ1vDk63iydbxwtbxwrd/2zpe2DpeNOt4fXHaZlZ7cZqSE9+l9uI0JSfeBdqL05SceAdoL05TcuLVL4jTpCBXozPHmyBOk4Jcpc6cbYI4TQpy9TpzsAniNGlndDU7c6oJ4jQpyNXszJHWXpy2mSOI06Sg+BYJ4jQpKF78gjhNCooXvyBOk4Lixa+I07QkW7czJ5siTtOSbPXOHG6KOE1LsjU8c74p4jRtr7R1PHPEKeI0LcnW8cwphzgNcRritHuEiNOqgTgNcRritMxAnIY4rdG7Qpy2MX+D1yNOWx+I01ajg9/T2jG/ADjggAMOOOCAAw444IADTu9xdkw7AA000EADDTTQQAMNNNBA0x+aR6M7AAcccMABBxxwwAEHHHDAaT8f4rTlQJy2EqcNeyJOS30Qp6WtidMODwqLN03JGZpyjkw5I1PO2JRzbMo5MeWcmnI2PnYvBbkanVyVTq5OJ1epk6vVyVXr5Op1chU7uZpduJpd2PZqV7MLV7OLRs2uL0jbiGrvRxNiwjvU3o4mxITrvr0bTYgJ13x7M5oQE653wYum5Jh6HB9jghRNyTFVOT7DBCOakmNqc3yACTo0ZR809Tk+vQQXmpJj6nN8dLUXoW3ECB40JSe8PYIFTckJl7vgQFNywuUuGNCUnHC5K/4zKcjV6PgEU+RnUpCr1PEhppjPpCBXr+NzTNGeSTujq9nxUaY4z6QgV7Pj0wzhGcIzhGf3CBGeVQPhGcIzhGeZgfAM4Vmjd4XwbGP+Bq9HeLY+EJ6tRge/X7VjXgBwwAEHHHDAAQcccMABB5ze4+yYLgAaaKCBBhpooIEGGmiggaY/NI9GUwAOOOCAAw444IADDjjggNN+PoRny4HwbCU8O+qJ8Kzog/Cs2KLw7HBkMp4JQUNX0JEraOQKGruCjl1BJ66gU1fQex+4V5Js3U62cidbu5Ot3snW72QreLI1PNkqnmwdL2wdL3z7t63jha3jRbOONxGhrWcpJrT2OfFdUlxo7XPiXUCxobXPiXcAxYfWPide/ZIRTQhyNTpzvElSNCHIVerM2SZ50YQgV68zB5ukRhN2RlezM6eaZEcTglzNzhxpiiBtPUcypAlB8S2SHGlCULz4JUuaEBQvfsmTJgTFi18zpSlJtm5nTjZNlqYk2eqdOdw0X5qSZGt45nzTlGnKXmnreOaI06xpSpKt45lTDnEa4jTEafcIEadVA3Ea4jTEaZmBOA1xWqN3hThtY/4Gr0ectj4Qp61GB7+ntWN+AXDAAQcccMABBxxwwAEHnN7j7Jh2ABpooIEGGmiggQYaaKCBpj80j0Z3AA444IADDjjggAMOOOCA034+xGnLgThtJU4b9UScNuyDOG24NXHaePGx0LaSG1fQ0BV05AoauYLGrqBjV9CJK+jUFbTx+XstydbtZCt3srU72eqdbP1OtoInW8OTreLJ1vHC1vHCt3/bOl7YOl4063h9cdpmVntxmpIT36X24jQlJ94F2ovTlJx4B2gvTlNy4tUviNOkIFejM8ebIE6TglylzpxtgjhNCnL1OnOwCeI0aWd0NTtzqgniNCnI1ezMkdZenLaZI4jTpKD4FgniNCkoXvyCOE0Kihe/IE6TguLFr4jTtCRbtzMnmyJO05Js9c4cboo4TUuyNTxzviniNG2vtHU8c8Qp4jQtydbxzCmHOA1xGuK0e4SI06qBOA1xGuK0zECchjit0btCnLYxf4PXI05bH4jTVqOD39PaMb8AOOCAAw444IADDjjggANO73F2TDsADTTQQAMNNNBAAw000EDTH5pHozsABxxwwAEHHHDAAQcccMBpPx/itOVAnLYSp417Ik476oM47Whr4rTDg8LiTVNyhqacI1POyJQzNuUcm3JOTDmnppyNj91LQa5GJ1elk6vTyVXq5Gp1ctU6uXqdXMVOrmYXrmYXtr3a1ezC1eyiUbPrC9I2otr70YSY8A61t6MJMeG6b+9GE2LCNd/ejCbEhOtd8KIpOaYex8eYIEVTckxVjs8wwYim5JjaHB9ggg5N2QdNfY5PL8GFpuSY+hwfXe1FaBsxggdNyQlvj2BBU3LC5S440JSccLkLBjQlJ1zuiv9MCnI1Oj7BFPmZFOQqdXyIKeYzKcjV6/gcU7Rn0s7oanZ8lCnOMynI1ez4NEN4hvAM4dk9QoRn1UB4hvAM4VlmIDxDeNboXSE825i/wesRnq0PhGer0cHvV+2YFwAccMABBxxwwAEHHHDAAaf3ODumC4AGGmiggQYaaKCBBhpooOkPzaPRFIADDjjggAMOOOCAAw444LSfD+HZciA8WwnPjnsiPBv1QXg22qLw7HBkMp4JQUNX0JEraOQKGruCjl1BJ66gU1fQex+4V5Js3U62cidbu5Ot3snW72QreLI1PNkqnmwdL2wdL3z7t63jha3jRbOONxGhrWcpJrT2OfFdUlxo7XPiXUCxobXPiXcAxYfWPide/ZIRTQhyNTpzvElSNCHIVerM2SZ50YQgV68zB5ukRhN2RlezM6eaZEcTglzNzhxpiiBtPUcypAlB8S2SHGlCULz4JUuaEBQvfsmTJgTFi18zpSlJtm5nTjZNlqYk2eqdOdw0X5qSZGt45nzTlGnKXmnreOaI06xpSpKt45lTDnEa4jTEafcIEadVA3Ea4jTEaZmBOA1xWqN3hThtY/4Gr0ectj4Qp61GB7+ntWN+AXDAAQcccMABBxxwwAEHnN7j7Jh2ABpooIEGGmiggQYaaKCBpj80j0Z3AA444IADDjjggAMOOOCA034+xGnLgThtJU476Yk4bdwHcdp4a+K08eJjoW0lN66goSvoyBU0cgWNXUHHrqATV9CpK2jj8/dakq3byVbuZGt3stU72fqdbAVPtoYnW8WTreOFreOFb/+2dbywdbxo1vH64rTNrPbiNCUnvkvtxWlKTrwLtBenKTnxDtBenKbkxKtfEKdJQa5GZ443QZwmBblKnTnbBHGaFOTqdeZgE8Rp0s7oanbmVBPEaVKQq9mZI629OG0zRxCnSUHxLRLEaVJQvPgFcZoUFC9+QZwmBcWLXxGnaUm2bmdONkWcpiXZ6p053BRxmpZka3jmfFPEadpeaet45ohTxGlakq3jmVMOcRriNMRp9wgRp1UDcRriNMRpmYE4DXFao3eFOG1j/gavR5y2PhCnrUYHv6e1Y34BcMABBxxwwAEHHHDAAQec3uPsmHYAGmiggQYaaKCBBhpooIGmPzSPRncADjjggAMOOOCAAw444IDTfj7EacuBOG0lTjvtiTjtuA/itOOtidMODwqLN03JGZpyjkw5I1PO2JRzbMo5MeWcmnI2PnYvBbkanVyVTq5OJ1epk6vVyVXr5Op1chU7uZpduJpd2PZqV7MLV7OLRs2uL0jbiGrvRxNiwjvU3o4mxITrvr0bTYgJ13x7M5oQE653wYum5Jh6HB9jghRNyTFVOT7DBCOakmNqc3yACTo0ZR809Tk+vQQXmpJj6nN8dLUXoW3ECB40JSe8PYIFTckJl7vgQFNywuUuGNCUnHC5K/4zKcjV6PgEU+RnUpCr1PEhppjPpCBXr+NzTNGeSTujq9nxUaY4z6QgV7Pj0wzhGcIzhGf3CBGeVQPhGcIzhGeZgfAM4Vmjd4XwbGP+Bq9HeLY+EJ6tRge/X7VjXgBwwAEHHHDAAQcccMABB5ze4+yYLgAaaKCBBhpooIEGGmiggaY/NI9GUwAOOOCAAw444IADDjjggNN+PoRny4Hw7E541hff2UkffGcn+M7wnT38MXt8Z/jO8J3hO6sThO8M3xm+M3xn+M7wneE7w3fW6ODCd4bvrFYQvrOHg/CdPRyE7+zhIHxnEQy+M3xn7w98Z3f4+M7eH/jO6gx8Z81ej+8M31mjd4XvbGP+Bq/Hd7Y+8J2tRge/XrVjWgBwwAEHHHDAAQcccMABB5ze4+yYLQAaaKCBBhpooIEGGmiggaY/NI/GUgAOOOCAAw444IADDjjggNN+Pnxny4HvbOU7O+yJ8Oy0D8Kz0y0Kzw5HJuOZEDR0BR25gkauoLEr6NgVdOIKOnUFvfeBeyXJ1u1kK3eytTvZ6p1s/U62gidbw5Ot4snW8cLW8cK3f9s6Xtg6XjTreBMR2nqWYkJrnxPfJcWF1j4n3gUUG1r7nHgHUHxo7XPi1S8Z0YQgV6Mzx5skRROCXKXOnG2SF00IcvU6c7BJajRhZ3Q1O3OqSXY0IcjV7MyRpgjS1nMkQ5oQFN8iyZEmBMWLX7KkCUHx4pc8aUJQvPg1U5qSZOt25mTTZGlKkq3emcNN86UpSbaGZ843TZmm7JW2jmeOOM2apiTZOp455RCnIU5DnHaPEHFaNRCnIU5DnJYZiNMQpzV6V4jTNuZv8HrEaesDcdpqdPB7WjvmFwAHHHDAAQcccMABBxxwwOk9zo5pB6CBBhpooIEGGmiggQYaaPpD82h0B+CAAw444IADDjjggAMOOO3nQ5y2HIjTVuK01A9x2ulhD8Rpt5DbEqeNFx8LbSu5cQUNXUFHrqCRK2jsCjp2BZ24gk5dQRufv9eSbN1OtnInW7uTrd7J1u9kK3iyNTzZKp5sHS9sHS98+7et44Wt40WzjtcXp21mtRenKTnxXWovTlNy4l2gvThNyYl3gPbiNCUnXv2COE0KcjU6c7wJ4jQpyFXqzNkmiNOkIFevMwebIE6TdkZXszOnmiBOk4Jczc4cae3FaZs5gjhNCopvkSBOk4LixS+I06SgePEL4jQpKF78ijhNS7J1O3OyKeI0LclW78zhpojTtCRbwzPnmyJO0/ZKW8czR5wiTtOSbB3PnHKI0xCnIU67R4g4rRqI0xCnIU7LDMRpiNMavSvEaRvzN3g94rT1gThtNTr4Pa0d8wuAAw444IADDjjggAMOOOD0HmfHtAPQQAMNNNBAAw000EADDTT9oXk0ugNwwAEHHHDAAQcccMABB5z28yFOWw7EaStxWtETcVrqgzgtbU2cdnhQWLxpSs7QlHNkyhmZcsamnGNTzokp59SUs/GxeynI1ejkqnRydTq5Sp1crU6uWidXr5Or2MnV7MLV7MK2V7uaXbiaXTRqdn1B2kZUez+aEBPeofZ2NCEmXPft3WhCTLjm25vRhJhwvQteNCXH1OP4GBOkaEqOqcrxGSYY0ZQcU5vjA0zQoSn7oKnP8ekluNCUHFOf46OrvQhtI0bwoCk54e0RLGhKTrjcBQeakhMud8GApuSEy13xn0lBrkbHJ5giP5OCXKWODzHFfCYFuXodn2OK9kzaGV3Njo8yxXkmBbmaHZ9mCM8QniE8u0eI8KwaCM8QniE8ywyEZwjPGr0rhGcb8zd4PcKz9YHwbDU6+P2qHfMCgAMOOOCAAw444IADDjjg9B5nx3QB0EADDTTQQAMNNNBAAw00/aF5NJoCcMABBxxwwAEHHHDAAQec9vMhPFsOhGcr4dmwJ8Kzog/Cs2KLwrPDkcl4JgQNXUFHrqCRK2jsCjp2BZ24gk5dQe994F5JsnU72cqdbO1OtnonW7+TreDJ1vBkq3iydbywdbzw7d+2jhe2jhfNOt5EhLaepZjQ2ufEd0lxobXPiXcBxYbWPifeARQfWvucePVLRjQhyNXozPEmSdGEIFepM2eb5EUTgly9zhxskhpN2Bldzc6capIdTQhyNTtzpCmCtPUcyZAmBMW3SHKkCUHx4pcsaUJQvPglT5oQFC9+zZSmJNm6nTnZNFmakmSrd+Zw03xpSpKt4ZnzTVOmKXulreOZI06zpilJto5nTjnEaYjTEKfdI0ScVg3EaYjTEKdlBuI0xGmN3hXitI35G7wecdr6QJy2Gh38ntaO+QXAAQcccMABBxxwwAEHHHB6j7Nj2gFooIEGGmiggQYaaKCBBpr+0Dwa3QE44IADDjjggAMOOOCAA077+RCnLQfitJU47agn4rRhH8Rpw62J08aLj4W2ldy4goauoCNX0MgVNHYFHbuCTlxBp66gjc/fa0m2bidbuZOt3clW72Trd7IVPNkanmwVT7aOF7aOF77929bxwtbxolnH64vTNrPai9OUnPgutRenKTnxLtBenKbkxDtAe3GakhOvfkGcJgW5Gp053gRxmhTkKnXmbBPEaVKQq9eZg00Qp0k7o6vZmVNNEKdJQa5mZ4609uK0zRxBnCYFxbdIEKdJQfHiF8RpUlC8+AVxmhQUL35FnKYl2bqdOdkUcZqWZKt35nBTxGlakq3hmfNNEadpe6Wt45kjThGnaUm2jmdOOcRpiNMQp90jRJxWDcRpiNMQp2UG4jTEaY3eFeK0jfkbvB5x2vpAnLYaHfye1o75BcABBxxwwAEHHHDAAQcccHqPs2PaAWiggQYaaKCBBhpooIEGmv7QPBrdATjggAMOOOCAAw444IADTvv5EKctB+K0lTht1BNx2lEfxGlHWxOnHR4UFm+akjM05RyZckamnLEp59iUc2LKOTXlbHzsXgpyNTq5Kp1cnU6uUidXq5Or1snV6+QqdnI1u3A1u7Dt1a5mF65mF42aXV+QthHV3o8mxIR3qL0dTYgJ1317N5oQE6759mY0ISZc74IXTckx9Tg+xgQpmpJjqnJ8hglGNCXH1Ob4ABN0aMo+aOpzfHoJLjQlx9Tn+OhqL0LbiBE8aEpOeHsEC5qSEy53wYGm5ITLXTCgKTnhclf8Z1KQq9HxCabIz6QgV6njQ0wxn0lBrl7H55iiPZN2Rlez46NMcZ5JQa5mx6cZwjOEZwjP7hEiPKsGwjOEZwjPMgPhGcKzRu8K4dnG/A1ej/BsfSA8W40Ofr9qx7wA4IADDjjggAMOOOCAAw44vcfZMV0ANNBAAw000EADDTTQQANNf2gejaYAHHDAAQcccMABBxxwwAGn/XwIz5YD4dlKeDbuifBs1Afh2WiLwrPDkcl4JgQNXUFHrqCRK2jsCjp2BZ24gk5dQe994F5JsnU72cqdbO1OtnonW7+TreDJ1vBkq3iydbywdbzw7d+2jhe2jhfNOt5EhLaepZjQ2ufEd0lxobXPiXcBxYbWPifeARQfWvucePVLRjQhyNXozPEmSdGEIFepM2eb5EUTgly9zhxskhpN2Bldzc6capIdTQhyNTtzpCmCtPUcyZAmBMW3SHKkCUHx4pcsaUJQvPglT5oQFC9+zZSmJNm6nTnZNFmakmSrd+Zw03xpSpKt4ZnzTVOmKXulreOZI06zpilJto5nTjnEaYjTEKfdI0ScVg3EaYjTEKdlBuI0xGmN3hXitI35G7wecdr6QJy2Gh38ntaO+QXAAQcccMABBxxwwAEHHHB6j7Nj2gFooIEGGmiggQYaaKCBBpr+0Dwa3QE44IADDjjggAMOOOCAA077+RCnLQfitJU47bgn4rRxH8Rp462J08aLj4W2ldy4goauoCNX0MgVNHYFHbuCTlxBp66gjc/fa0m2bidbuZOt3clW72Trd7IVPNkanmwVT7aOF7aOF77929bxwtbxolnH64vTNrPai9OUnPgutRenKTnxLtBenKbkxDtAe3GakhOvfkGcJgW5Gp053gRxmhTkKnXmbBPEaVKQq9eZg00Qp0k7o6vZmVNNEKdJQa5mZ4609uK0zRxBnCYFxbdIEKdJQfHiF8RpUlC8+AVxmhQUL35FnKYl2bqdOdkUcZqWZKt35nBTxGlakq3hmfNNEadpe6Wt45kjThGnaUm2jmdOOcRpiNMQp90jRJxWDcRpiNMQp2UG4jTEaY3eFeK0jfkbvB5x2vpAnLYaHfye1o75BcABBxxwwAEHHHDAAQcccHqPs2PaAWiggQYaaKCBBhpooIEGmv7QPBrdATjggAMOOOCAAw444IADTvv5EKctB+K0lTjtpCfitOM+iNOOtyZOOzwoLN40JWdoyjky5YxMOWNTzrEp58SUc2rK2fjYvRTkanRyVTq5Op1cpU6uVidXrZOr18lV7ORqduFqdmHbq13NLlzNLho1u74gbSOqvR9NiAnvUHs7mhATrvv2bjQhJlzz7c1oQky43gUvmpJj6nF8jAlSNCXHVOX4DBOMaEqOqc3xASbo0JR90NTn+PQSXGhKjqnP8dHVXoS2ESN40JSc8PYIFjQlJ1zuggNNyQmXu2BAU3LC5a74z6QgV6PjE0yRn0lBrlLHh5hiPpOCXL2OzzFFeybtjK5mx0eZ4jyTglzNjk8zhGcIzxCe3SNEeFYNhGcIzxCeZQbCM4Rnjd4VwrON+Ru8HuHZ+kB4thod/H7VjnkBwAEHHHDAAQcccMABBxxweo+zY7oAaKCBBhpooIEGGmiggQaa/tA8Gk0BOOCAAw444IADDjjggANO+/kQni0HwrOV8Oy0J8Kzkz4Iz062JjxLR4cHh2sjHVn8Z8bYYTexR93EjrqJHXcTe9xN7Ek3safdxG583N+Z29E6Sx0ttNTRSksdLbXU0VpLHS221NFqSx0tt9TReis6Wm9FV+daR+ut6Gi9Fcp6qy+WyyW398z5Uuve3fYWOl9q3Z2svaPOl1p3F2tvsPOl1t3BBL+dMbab1VX7cUGQ4Rlju1lgtZ8VBHOeMbabNVb7QUHQ7BlPhW5WWe2nBMHJZ4ztZpXVfkRoL/DLpQo+P2Ns3Vsr2P6MsXU3MMEFaIytu4EJpkBjbN0NTPEIOnM7Wme1nxQU6aAzt6OlVvthQTEUOnM7Wm21nxcUnaHznOhovdV+ZFDch87cjtZb7acGRImIEhEl3iNElFgNRImIEhElZgaiRESJjd4VosSN+Ru8HlHi+kCUuBod/F7mjvlEwAEHHHDAAQcccMABBxxweo+zY5oRaKCBBhpooIEGGmiggQaa/tA8Gr0JOOCAAw444IADDjjggANO+/n+AaLEr8ofrsvpZH4zLQf7nz3Bm7hb3sRy+uP5y3Lwt0nVvD9fXV0Pqm9Y9XvOR4ef9USheNoHheLp1hSKo9HB8HRtDEcWhaIxdthN7FE3saNuYsfdxB53E3vSTexpN7EbpgNnbkfrLHW00FJHKy11tNRSR2stdbTYUkerLXW03FJH663oaL0VXZ1rHa23oqP1Vijrrb5CMZfcXqHoS617d9srFH2pdXey9gpFX2rdXay9QtGXWncHExSKxthuVlftxwVBoWiM7WaB1X5WEBSKxthu1ljtBwVBoWg8FbpZZbWfEgSFojG2m1VW+xGhvUIxlyooFI2xdW+toFA0xtbdwASFojG27gYmKBSNsXU3MEWh6MztaJ3VflJQFIrO3I6WWu2HBUWh6MztaLXVfl5QFIrOc6Kj9Vb7kUFRKDpzO1pvtZ8aUCiiUESheI8QhWI1UCiiUEShmBkoFFEoNnpXKBQ35m/wehSK6wOF4mp08BubO2YaAQcccMABBxxwwAEHHHDA6T3OjglIoIEGGmiggQYaaKCBBhpo+kPzaMQn4IADDjjggAMOOOCAAw447edDofjr4/EqFG+ury/eDj4+ny7Uib1wJhaHh7vvTKwgt+VMXPx7WzmTKWdoyjky5YxMOWNTzrEp58SUc2rK2XAKSEGuRidXpZOr08lV6uRqdXLVOrl6nVzFTq5mF65mF7a92tXswtXsolGz67v8NqLay/uEmPAOtdfzCTHhum8v4BNiwjXfXrEnxITrXZDoKTmmHsfHmODFU3JMVY7PMEF1p+SY2hwfYIK9TtkHTX2OTy9BSKfkmPocH13tHXMbMYJUTskJb4+gjVNywuUuiOGUnHC5C+o3JSdc7orcTQpyNTo+wRRfmxTkKnV8iCkKNinI1ev4HFOsatLO6Gp2fJQpojQpyNXs+DS7F/Rf0/Or6fn87SANng32v7y5fFJZqMbP/mNy+ewwPVv8+yfly2fDFB1zhxv/j97HHx8dnZ4apii6n2LY/RRH3U8x6n6KcfdTHHc/xUn3U5x2P8XGyd7VHFtY35m/mPXNEf/Nlm+O+C+9fHPEf9Prm2MLizxtYZWnLSzzzN8q+86/+C+cfXPEfxftm2ML67zYwkletDvKi8Uck3k0x2G9H+MOh0VxMjZMET9W2aaIvxm2KeLvhW2K+LHKNkW849qmiDdc2xTxfmubIn6ssk2ReazyzRE/VvnmiLdb3xzxY5VvjvixyjdH/Fjlm2MLizzzWOWbYwvLPPNY5Tv/4scq3xzbOMe3sM4zvxjgm6PdOh9Wc3w2PQ/mKE7r/W1VSsfHw6FhivixyjZF/FhlmyJ+rLJNET9W2aaId1zbFPGGa5si3m9tU8TbrW2KzC8E+uaIt1vfHPF265sj3m59c8TbrW+O+LHKN0f8K4u+OeLfZvTNEf+io2+OLazzzGOVb44trPPMY5Vvji2s88xjVW6Oo2qOr97cRHOc1Husqv6LS6PfG6aIH6tsU8SPVbYp4scq2xTxY5VtivixyjZF/FhlmyJ+rLJNEW+3tikyj1W+OeLt1jdHvN365oi3W98c8XbrmyN+rPLNET9W+eaIH6t8c8SPVb45trDOM49Vvjm2sM4zj1W+ObawzjOPVbk5RtUcfyvPojmO6z1WffLJ8+fHx4Yp4scq2xTxY5VtivixyjZF/FhlmyJ+rLJNET9W2aaIH6tsU8TbrW2KzGOVb454u/XNEW+3vjni7dY3R7zd+uaIH6t8c8SPVb454scq3xzxY5Vvji2s88xjlW+OLazzzGOVb44trPPMY1VujvHi0e2mjOYY13usev58PLZMET9W2aaIH6tsU8SPVbYp4scq2xTxY5VtivixyjZF/FhlmyLebm1TZB6rfHPE261vjni79c0Rb7e+OeLt1jdH/FjlmyN+rPLNET9W+eaIH6t8c2xhnWceq3xzbGGdZx6rfHNsYZ1nHqtycxxXc/zlKvq1+GJU77Hq5KQoRiPDFPFjlW2K+LHKNkX8WGWbIn6ssk0RP1bZpogfq2xTxI9Vtily3inTFFnZmmuOeLv1zZETWbnmyDmuXHPk9FeuOXLON9ccOR2ca46cKc41R04i55pjC+s8q55zzbGFdZ4V1rnm2MI6z2ru3s3xTR3D61LDPPhocFn+dGeQXYhj92c/vn66MMA+qIq9cznPyvnvr24uz2b7o8Ong5RGTwfD6t+KUT3d7M+3GCsP9dnZ88m8fH01ffvxz+ezdybk1fuvIYy+Dfh8elZOv7ipxMS1v7DieLvJ8ZdyMruZlu8wKrfy8r53bOTmMpe5zGUuc5nLXOYyl7nMZS5zmctc5jKXucxlLnOZy1zmMpe5zGUuc5nLXOYyl7nMZS5zmctc5jKXucxlLnOZy1zmMpe5zGUuc5nLXOby/6nLbw+ufiyn0/Oz8i+T6oO16eBQ/Lxq9dHY2eZHY78sp+flbPnx2r2ndx8gvr64mh9cnF+WD35EdvZrn9N9+JO1s4PFf3r++upiMj+/uryF2pvNy+tnL8pXV9Nyr94nn/9cvi4vzzbf0Ls/2x8fPh0Mq08uH1YfZK7+Z++ifDWvwB6Ivos9+PZ1Of/0cl7dn9spXt1cvlyQ7j8Z/P2BiDvCcvXVXz/4We5qnL8a7M/fnM8OZovvSr2JqrH2RQe39+/Tycs3+/8L3DTtDr/66Pgt+zL32+ur2XkV+MntH9d5N3ejivkVqunVT82Q7rDOL8/Kaj08S08bfvXd+K7tF746Ly+qvu0v7+m7dfJ6enVzXZ4NfvObwT8t//zng2/fTGbLz79XC+zJ+tW3v3r19oYcTF6//qya4+CivHw9fzP43aAY/Ptg7+OLi73Bh5uvmF2cvyz3n6UnXx9+8+TB9XbvnVxNB/vf3b6Vw38dfHc7zbKqy3mrP/uX2x2n+TeoGlWNl3lff/fNwffl28FHH3307ua1S1ykLr/t3zV9q3fjxbScfN/mi39p+DVNX1/dr+W7+6iqdVWGZVMWIoeDbyez2fnry/LseaWImH29uJPftLuVd9/o65vZm/2234vbb+mH776f7VfSxcWHdd7lQfXKtrPM5tOr78t687x7bduZrq4nL8/nb+tNtXxx63e1mOJuqrYpdxvJ5rbSZnk03nyqcbecNzeewbNBaprWZLnVZ/3l6eJUrfX6Xx56pqjGBx8M/uuvXw3+5/O/fjH48vMvvvrTf/5h8OfP//Cn54M/fvrFp/UCPrvdtcufJ9Uj2mB+NZhdTeeDy5sfbnvwcrBQmswGk9nL24eX88vXNRLv7n2Vs3YyT54OXtTfXKbl/GZ6ObieTGflZxdXk/n+pNryn9x+K9f+7MXiz2rdzIcf0damXb6Fh4J/6db0snr+XCz3xWLf/+1Z+WpyczEfXE+vbvew8rdPB7/955OT588//fS3HYtnwAEHHHDAAQcccMABBxxw/m/iDGY3P9z+v8CDs7L6w8HZ5G1FNC3PoIEGGmiggQYaaKCBBhpooMnT/LT41az3aF5c3JTggAMOOOCAAw444IADDjjgtMFZ/XcDU/XfDfzyJvrvBg7T4idsH398dHR6CimkkEIKKaSQQgoppJBCCimkkPaDtFiQTuYR6eGCdDgsipMxpJBCCimkkEIKKaSQQgoppJBC2g/SYUX62fQ8IC1OF6QpHR8Ph5BCCimkkEIKKaSQQgoppJBCCmk/SI8q0q/e3ESkJwvS09sx+j2kkEIKKaSQQgoppJBCCimkkELaD9JRRfq38iwiPV6QfvLJ8+fHx5BCCimkkEIKKaSQQgoppJBCCmk/SMeLv5m4KSPS8YL0+fPxGFJIIYUUUkghhRRSSCGFFFJIIe0L6XFF+peryCxYjBakJydFMRpBCimkkEIKKaSQQgoppJBCCimkWyO9QzmbTn7afzDs54P5+fyi/PLN5Lo8mJc/z/d/+8erm+nsYYy397/yk/MfysvZ+dXlRTlbJDwQ8cEHg4/PzgaTwSJp8NP5/M1gdvVDOTgbPvCVsx9fH0yur8vLs/29au69Jw98wd04mMzn0/29n/eeDsaHDb/o7e0XFfW/aDZ/e1G+w3s2uXz55mp6+/V7F+WrBrTLjFdXl/NnP5Xnr9/Mq4wXVxdn9TPefW/+++P/fneDvyjflJP54POXLwdfvnzz2ye5b9LvPpi9nJ5fz/8tfM3vPjg7//HXL4dfE4fdZg3Ozz7ae1k1+Pntm56cX5bTb4vDtDdY3IqP9s7OZ9cXk7cfnl9e3F579uLi6uX3/7oXA96mvnsPg/nb69uvr+7GB99Nfpy8+9PsV1bjx8m0atvgo8HZ+Q/XF+XBZfnTlz++3t/751+BfDo4Ojxc/M+Dy6fKPZvMJ7fBX/9972LyorzY+3DvrHw1ubmYD66nV6/OL8q9p++ufPvz3ofp4PDp3o+Ti5ty78Px6cHp2jg5fbr3stpzbhNut5Hnzz/9dO+Xp7VSi05Sh52kHnWSOuokddxJ6nEnqSedpJ52kpoOu4ntZnWlbpZX6mZ9pW4WWOpmhaVulljqZo2lbhZZ6maVFd2ssqKjM6ybVVZ0s8oKYZUNZjc//LDxn/Fu8YQwLc8ahNa8t81Ca97ZZqE172uz0Jp7V7PQmjtXs9Ca+1az0Jq7VrPQmntWs9C6DwYNUztZU3UfCxqmdrKq6j4UNEztZF3VfSRomNrJyqr7QNAwtZO1VfdxoGFqN+dVJ2ur7rNAw9S2a+un88u5+hjwonpB/dSat7Vhas3b2jC15m1tmFpzy2qYWnPLaphac8tqmFpzy2qYWnPLapha93mgaWw3q6vuE0HT2G7WV91ngqax3aywuk8FTWO7WWN1nwuaxnazyuo+GTSN7egM62aV1X04aBrbaJV9U+cHDsufDQ4+GlyWP939QGPxc4z92Y+vny5+IPHgTy7ufsA4K+e/v7q5PJvtjw6fDlIaPR0Mq38rRvV++vHzLcbq56ZnZ88n8/L11fTtxz+fz979gG51K2r8FPM24PPpWTn94qb6eVntL6w43m5y/KWczG6m5TuM6kd+y2+B+nPZxQ+SNqf6spyel7Ml7u1My2/I9cXV/KD66daDU85+7X0/TDo7WPTu+upiMj+/uryF2pvNy+tnL8pXV9Nyr16T/ly+Li/PNt/Quz/bH9+2YFg1ofphWKr+Z/ljzwd/InwXe/Dt63L+6eW8uj+3U7y6uXy5IN1/Mvh7jZ97VoTl6qu/fnBtVOP81WB//uZ8dtvr6uvqTVSNtS86uL1/n05evtn/X+CmaXf4y58NLnO/vb6anVeBn9z+cZ13czeqmF+hml791AzpDuv88qysFu6z9LThV9+N79p+4avz8qLq2/7ynr5bJ6+nVzfX5dngN78Z/NPyz38++PbNZLbcT6oF9mT96ttfvXp7Qw4mr19/Vs1xcFFevp6/GfxuUAz+fbD38cXF3uDDzVfMLs5flvvP0pOvD7958uB6u/dOrqaD/e9u38rhvw6+u51mWdXlvNWf/ctHg9T8G1SNqsbLvK+/++bg+/J2e/voo3c3r13iInX5bf+u6Vu9Gy+m5eT7Nl/8S8Ovafr66n4t391HVa2rMiybsjgYD7599zs95dnit3pmXy/u5DftbuXdN/r6ZvZmv+334vZb+uG772f7lXRx8WGdd3lQvbLtLLP59Or7st48717bdqar68nL8/nbelMtX9z6XS2muJuqbcrdRrK5rbRZHo03n2rcLefNjWfwbJCapjVZbvVZf3m6OFVrvf6Xh54pqvHBB4P/+utXg//5/K9fDL78/Iuv/vSffxj8+fM//On54I+ffvFpvYDPbnft8udJ9Yg2mF8NZle3D9KXNz/c9uDlYPGIOBtMZi9vH17OL1/XSLy791XO2sk8eTp4UX9zmZbzm+nl4HoynZWfXVxN5vuTast/cvutXPuzF4s/q3UzH35EW5t2+RYeCv7lH/C7l+/9AHb5C5bVD1T/Ib8KCg444IADDjjggAMOOOCA03uc+7/gUhFNyzNooIEGGmiggQYaaKCBBhpo8jT3fiWwoql+xQ8ccMABBxxwwAEHHHDAAQecf6Dx8Kvyh+tyOpnfTMvB/mdPcB7ulPPwb5OqcX8sF//4+IcX5+XlfFB9yyrzYXl2c3v/nw2ODz/riQSx6IMEsdiaBHHx0dO2EiZTztCUc2TKGZlyxqacY1POiSnn1JSzYReQglyNTq5KJ1enk6vUydXq5Kp1cvU6uYqdXM0uXM0ubHu1q9mFq9lFo2bXl/ZtRLXX9Akx4R1qr+ITYsJ13163J8SEa769Uk+ICde7oM1Tckw9jo8xQYan5JiqHJ9hguJOyTG1OT7ABHGdsg+a+hyfXoKOTskx9Tk+utpL5jZiBK2ckhPeHkEdp+SEy13Qwyk54XIXFHBKTrjcFc2bFORqdHyCKfI2KchV6vgQU5RsUpCr1/E5pojWpJ3R1ez4KFP0aVKQq9nxaYYUrRdSNC5zmctc5jKXucxlLnOZy1zmMpe5zGUu79LltwdXP5bT6flZ+ZdJ9RdV6eAQKf7aO0GKvxpI8RsNpPhI8RsMpPjvD6T47w+k+A0HUnyk+L86kOKDAw444IADDjjggAMOOOCA0welJDTQQAMNNNBAAw000EADTX9oHo3KEhxwwAEHHHDAAQcccMABp/18/wAp/ifnP5SXs/Ory4tyNkOJv1tK/Kvp94NPX706f3leXr58uxLhb1eBv3z1e1fW/++7f3/3z1X68l9W/3hxdfa2+ueb+Q8X//b//j9A4jWq"
               },
               {
                  "name" : "annual_peak_electric_demand",
                  "units" : "kW",
                  "value" : 355.21080999999998
               },
               {
                  "name" : "first_year_capital_cost",
                  "units" : "$",
                  "value" : 0
               },
               {
                  "name" : "annual_utility_cost",
                  "units" : "$",
                  "value" : 58670.459999999999
               },
               {
                  "name" : "total_lifecycle_cost",
                  "units" : "$",
                  "value" : 982285
               }
            ],
            "step_warnings" : [ "A table in Annual Overview section returned false and was skipped." ]
         }
      }
   ],
   "updated_at" : "20170710T191847Z",
   "weather_file" : "USA_CO_Denver.Intl.AP.725650_TMY3.epw"
}
