{
   "completed_at" : "20170710T192603Z",
   "completed_status" : "Success",
   "created_at" : "2017-07-10 19:21:10 +0000",
   "current_step" : 5,
   "description" : "",
   "eplusout_err" : "Program Version,EnergyPlus, Version 8.7.0-78a111df4a, YMD=2017.07.10 19:22,IDD_Version 8.7.0\n   ************* IDF Context for following error/warning message:\n   ************* Note -- lines truncated at 300 characters, if necessary...\n   *************      5 Building,\n   ************* indicated Name=NECB 2011-MidriseApartment-NECB HDD Method-CAN_PQ_Schefferville.718280_CWEC.epw created: 2017-07-10 19:21:16 +0000\n   ************* Only last 1 lines before error line shown.....\n   *************      6   NECB 2011-MidriseApartment-NECB HDD Method-CAN_PQ_Schefferville.718280_CWEC.epw created: 2017-07-10 19:21:16 +0000, !- Name\n   ** Warning ** IP: IDF line~6 Alpha Argument length exceeds maximum, will be truncated=  NECB 2011-MidriseApartment-NECB HDD Method-CAN_PQ_Schefferville.718280_CWEC.epw created: 2017-07-10 19:21:16 +000\n   **   ~~~   ** Will be processed as Alpha=NECB 2011-MIDRISEAPARTMENT-NECB HDD METHOD-CAN_PQ_SCHEFFERVILLE.718280_CWEC.EPW CREATED: 2017-07-10 19:21:16 +0000\n   ************* Beginning Zone Sizing Calculations\n   ** Warning ** ProcessScheduleInput: Schedule:Day:Interval=\"ECONOMIZER MAX OA FRACTION 100 PCT DEFAULT\", Blank Schedule Type Limits Name input -- will not be validated.\n   ** Warning ** ProcessScheduleInput: Schedule:Day:Interval=\"SCHEDULE DAY 1\", Blank Schedule Type Limits Name input -- will not be validated.\n   ** Warning ** ProcessScheduleInput: Schedule:Day:Interval=\"SCHEDULE DAY 10\", Blank Schedule Type Limits Name input -- will not be validated.\n   ** Warning ** ProcessScheduleInput: Schedule:Day:Interval=\"SCHEDULE DAY 11\", Blank Schedule Type Limits Name input -- will not be validated.\n   ** Warning ** ProcessScheduleInput: Schedule:Day:Interval=\"SCHEDULE DAY 12\", Blank Schedule Type Limits Name input -- will not be validated.\n   ** Warning ** ProcessScheduleInput: Schedule:Day:Interval=\"SCHEDULE DAY 13\", Blank Schedule Type Limits Name input -- will not be validated.\n   ** Warning ** ProcessScheduleInput: Schedule:Day:Interval=\"SCHEDULE DAY 14\", Blank Schedule Type Limits Name input -- will not be validated.\n   ** Warning ** ProcessScheduleInput: Schedule:Day:Interval=\"SCHEDULE DAY 15\", Blank Schedule Type Limits Name input -- will not be validated.\n   ** Warning ** ProcessScheduleInput: Schedule:Day:Interval=\"SCHEDULE DAY 16\", Blank Schedule Type Limits Name input -- will not be validated.\n   ** Warning ** ProcessScheduleInput: Schedule:Day:Interval=\"SCHEDULE DAY 17\", Blank Schedule Type Limits Name input -- will not be validated.\n   ** Warning ** ProcessScheduleInput: Schedule:Day:Interval=\"SCHEDULE DAY 18\", Blank Schedule Type Limits Name input -- will not be validated.\n   ** Warning ** ProcessScheduleInput: Schedule:Day:Interval=\"SCHEDULE DAY 19\", Blank Schedule Type Limits Name input -- will not be validated.\n   ** Warning ** ProcessScheduleInput: Schedule:Day:Interval=\"SCHEDULE DAY 2\", Blank Schedule Type Limits Name input -- will not be validated.\n   ** Warning ** ProcessScheduleInput: Schedule:Day:Interval=\"SCHEDULE DAY 20\", Blank Schedule Type Limits Name input -- will not be validated.\n   ** Warning ** ProcessScheduleInput: Schedule:Day:Interval=\"SCHEDULE DAY 21\", Blank Schedule Type Limits Name input -- will not be validated.\n   ** Warning ** ProcessScheduleInput: Schedule:Day:Interval=\"SCHEDULE DAY 22\", Blank Schedule Type Limits Name input -- will not be validated.\n   ** Warning ** ProcessScheduleInput: Schedule:Day:Interval=\"SCHEDULE DAY 23\", Blank Schedule Type Limits Name input -- will not be validated.\n   ** Warning ** ProcessScheduleInput: Schedule:Day:Interval=\"SCHEDULE DAY 24\", Blank Schedule Type Limits Name input -- will not be validated.\n   ** Warning ** ProcessScheduleInput: Schedule:Day:Interval=\"SCHEDULE DAY 25\", Blank Schedule Type Limits Name input -- will not be validated.\n   ** Warning ** ProcessScheduleInput: Schedule:Day:Interval=\"SCHEDULE DAY 26\", Blank Schedule Type Limits Name input -- will not be validated.\n   ** Warning ** ProcessScheduleInput: Schedule:Day:Interval=\"SCHEDULE DAY 27\", Blank Schedule Type Limits Name input -- will not be validated.\n   ** Warning ** ProcessScheduleInput: Schedule:Day:Interval=\"SCHEDULE DAY 28\", Blank Schedule Type Limits Name input -- will not be validated.\n   ** Warning ** ProcessScheduleInput: Schedule:Day:Interval=\"SCHEDULE DAY 29\", Blank Schedule Type Limits Name input -- will not be validated.\n   ** Warning ** ProcessScheduleInput: Schedule:Day:Interval=\"SCHEDULE DAY 30\", Blank Schedule Type Limits Name input -- will not be validated.\n   ** Warning ** ProcessScheduleInput: Schedule:Day:Interval=\"SCHEDULE DAY 31\", Blank Schedule Type Limits Name input -- will not be validated.\n   ** Warning ** ProcessScheduleInput: Schedule:Day:Interval=\"SCHEDULE DAY 32\", Blank Schedule Type Limits Name input -- will not be validated.\n   ** Warning ** ProcessScheduleInput: Schedule:Day:Interval=\"SCHEDULE DAY 33\", Blank Schedule Type Limits Name input -- will not be validated.\n   ** Warning ** ProcessScheduleInput: Schedule:Day:Interval=\"SCHEDULE DAY 34\", Blank Schedule Type Limits Name input -- will not be validated.\n   ** Warning ** ProcessScheduleInput: Schedule:Day:Interval=\"SCHEDULE DAY 35\", Blank Schedule Type Limits Name input -- will not be validated.\n   ** Warning ** ProcessScheduleInput: Schedule:Day:Interval=\"SCHEDULE DAY 36\", Blank Schedule Type Limits Name input -- will not be validated.\n   ** Warning ** ProcessScheduleInput: Schedule:Day:Interval=\"SCHEDULE DAY 37\", Blank Schedule Type Limits Name input -- will not be validated.\n   ** Warning ** ProcessScheduleInput: Schedule:Day:Interval=\"SCHEDULE DAY 38\", Blank Schedule Type Limits Name input -- will not be validated.\n   ** Warning ** ProcessScheduleInput: Schedule:Day:Interval=\"SCHEDULE DAY 39\", Blank Schedule Type Limits Name input -- will not be validated.\n   ** Warning ** ProcessScheduleInput: Schedule:Day:Interval=\"SCHEDULE DAY 40\", Blank Schedule Type Limits Name input -- will not be validated.\n   ** Warning ** ProcessScheduleInput: Schedule:Day:Interval=\"SCHEDULE DAY 41\", Blank Schedule Type Limits Name input -- will not be validated.\n   ** Warning ** ProcessScheduleInput: Schedule:Day:Interval=\"SCHEDULE DAY 42\", Blank Schedule Type Limits Name input -- will not be validated.\n   ** Warning ** ProcessScheduleInput: Schedule:Day:Interval=\"SCHEDULE DAY 43\", Blank Schedule Type Limits Name input -- will not be validated.\n   ** Warning ** ProcessScheduleInput: Schedule:Day:Interval=\"SCHEDULE DAY 44\", Blank Schedule Type Limits Name input -- will not be validated.\n   ** Warning ** ProcessScheduleInput: Schedule:Day:Interval=\"SCHEDULE DAY 45\", Blank Schedule Type Limits Name input -- will not be validated.\n   ** Warning ** ProcessScheduleInput: Schedule:Day:Interval=\"SCHEDULE DAY 46\", Blank Schedule Type Limits Name input -- will not be validated.\n   ** Warning ** ProcessScheduleInput: Schedule:Day:Interval=\"SCHEDULE DAY 47\", Blank Schedule Type Limits Name input -- will not be validated.\n   ** Warning ** ProcessScheduleInput: Schedule:Day:Interval=\"SCHEDULE DAY 48\", Blank Schedule Type Limits Name input -- will not be validated.\n   ** Warning ** ProcessScheduleInput: Schedule:Day:Interval=\"SCHEDULE DAY 49\", Blank Schedule Type Limits Name input -- will not be validated.\n   ** Warning ** ProcessScheduleInput: Schedule:Day:Interval=\"SCHEDULE DAY 50\", Blank Schedule Type Limits Name input -- will not be validated.\n   ** Warning ** ProcessScheduleInput: Schedule:Day:Interval=\"SCHEDULE DAY 51\", Blank Schedule Type Limits Name input -- will not be validated.\n   ** Warning ** ProcessScheduleInput: Schedule:Day:Interval=\"SCHEDULE DAY 52\", Blank Schedule Type Limits Name input -- will not be validated.\n   ** Warning ** ProcessScheduleInput: Schedule:Day:Interval=\"SCHEDULE DAY 53\", Blank Schedule Type Limits Name input -- will not be validated.\n   ** Warning ** ProcessScheduleInput: Schedule:Day:Interval=\"SCHEDULE DAY 54\", Blank Schedule Type Limits Name input -- will not be validated.\n   ** Warning ** ProcessScheduleInput: Schedule:Day:Interval=\"SCHEDULE DAY 55\", Blank Schedule Type Limits Name input -- will not be validated.\n   ** Warning ** ProcessScheduleInput: Schedule:Day:Interval=\"SCHEDULE DAY 56\", Blank Schedule Type Limits Name input -- will not be validated.\n   ** Warning ** ProcessScheduleInput: Schedule:Day:Interval=\"SCHEDULE DAY 57\", Blank Schedule Type Limits Name input -- will not be validated.\n   ** Warning ** ProcessScheduleInput: Schedule:Day:Interval=\"SCHEDULE DAY 58\", Blank Schedule Type Limits Name input -- will not be validated.\n   ** Warning ** ProcessScheduleInput: Schedule:Day:Interval=\"SCHEDULE DAY 59\", Blank Schedule Type Limits Name input -- will not be validated.\n   ** Warning ** ProcessScheduleInput: Schedule:Day:Interval=\"SCHEDULE DAY 6\", Blank Schedule Type Limits Name input -- will not be validated.\n   ** Warning ** ProcessScheduleInput: Schedule:Day:Interval=\"SCHEDULE DAY 60\", Blank Schedule Type Limits Name input -- will not be validated.\n   ** Warning ** ProcessScheduleInput: Schedule:Day:Interval=\"SCHEDULE DAY 61\", Blank Schedule Type Limits Name input -- will not be validated.\n   ** Warning ** ProcessScheduleInput: Schedule:Day:Interval=\"SCHEDULE DAY 62\", Blank Schedule Type Limits Name input -- will not be validated.\n   ** Warning ** ProcessScheduleInput: Schedule:Day:Interval=\"SCHEDULE DAY 63\", Blank Schedule Type Limits Name input -- will not be validated.\n   ** Warning ** ProcessScheduleInput: Schedule:Day:Interval=\"SCHEDULE DAY 64\", Blank Schedule Type Limits Name input -- will not be validated.\n   ** Warning ** ProcessScheduleInput: Schedule:Day:Interval=\"SCHEDULE DAY 65\", Blank Schedule Type Limits Name input -- will not be validated.\n   ** Warning ** ProcessScheduleInput: Schedule:Day:Interval=\"SCHEDULE DAY 66\", Blank Schedule Type Limits Name input -- will not be validated.\n   ** Warning ** ProcessScheduleInput: Schedule:Day:Interval=\"SCHEDULE DAY 67\", Blank Schedule Type Limits Name input -- will not be validated.\n   ** Warning ** ProcessScheduleInput: Schedule:Day:Interval=\"SCHEDULE DAY 68\", Blank Schedule Type Limits Name input -- will not be validated.\n   ** Warning ** ProcessScheduleInput: Schedule:Day:Interval=\"SCHEDULE DAY 69\", Blank Schedule Type Limits Name input -- will not be validated.\n   ** Warning ** ProcessScheduleInput: Schedule:Day:Interval=\"SCHEDULE DAY 7\", Blank Schedule Type Limits Name input -- will not be validated.\n   ** Warning ** ProcessScheduleInput: Schedule:Day:Interval=\"SCHEDULE DAY 70\", Blank Schedule Type Limits Name input -- will not be validated.\n   ** Warning ** ProcessScheduleInput: Schedule:Day:Interval=\"SCHEDULE DAY 71\", Blank Schedule Type Limits Name input -- will not be validated.\n   ** Warning ** ProcessScheduleInput: Schedule:Day:Interval=\"SCHEDULE DAY 72\", Blank Schedule Type Limits Name input -- will not be validated.\n   ** Warning ** ProcessScheduleInput: Schedule:Day:Interval=\"SCHEDULE DAY 73\", Blank Schedule Type Limits Name input -- will not be validated.\n   ** Warning ** ProcessScheduleInput: Schedule:Day:Interval=\"SCHEDULE DAY 74\", Blank Schedule Type Limits Name input -- will not be validated.\n   ** Warning ** ProcessScheduleInput: Schedule:Day:Interval=\"SCHEDULE DAY 75\", Blank Schedule Type Limits Name input -- will not be validated.\n   ** Warning ** ProcessScheduleInput: Schedule:Day:Interval=\"SCHEDULE DAY 76\", Blank Schedule Type Limits Name input -- will not be validated.\n   ** Warning ** ProcessScheduleInput: Schedule:Day:Interval=\"SCHEDULE DAY 77\", Blank Schedule Type Limits Name input -- will not be validated.\n   ** Warning ** ProcessScheduleInput: Schedule:Day:Interval=\"SCHEDULE DAY 78\", Blank Schedule Type Limits Name input -- will not be validated.\n   ** Warning ** ProcessScheduleInput: Schedule:Day:Interval=\"SCHEDULE DAY 79\", Blank Schedule Type Limits Name input -- will not be validated.\n   ** Warning ** ProcessScheduleInput: Schedule:Day:Interval=\"SCHEDULE DAY 8\", Blank Schedule Type Limits Name input -- will not be validated.\n   ** Warning ** ProcessScheduleInput: Schedule:Day:Interval=\"SCHEDULE DAY 9\", Blank Schedule Type Limits Name input -- will not be validated.\n   ** Warning ** ProcessScheduleInput: Schedule:Year=\"ECONOMIZER MAX OA FRACTION 100 PCT\", Blank Schedule Type Limits Name input -- will not be validated.\n   ** Warning ** ProcessScheduleInput: Schedule:Year=\"SCHEDULE RULESET 10\", Blank Schedule Type Limits Name input -- will not be validated.\n   ** Warning ** ProcessScheduleInput: Schedule:Year=\"SCHEDULE RULESET 11\", Blank Schedule Type Limits Name input -- will not be validated.\n   ** Warning ** ProcessScheduleInput: Schedule:Year=\"SCHEDULE RULESET 12\", Blank Schedule Type Limits Name input -- will not be validated.\n   ** Warning ** ProcessScheduleInput: Schedule:Year=\"SCHEDULE RULESET 13\", Blank Schedule Type Limits Name input -- will not be validated.\n   ** Warning ** ProcessScheduleInput: Schedule:Year=\"SCHEDULE RULESET 14\", Blank Schedule Type Limits Name input -- will not be validated.\n   ** Warning ** ProcessScheduleInput: Schedule:Year=\"SCHEDULE RULESET 15\", Blank Schedule Type Limits Name input -- will not be validated.\n   ** Warning ** ProcessScheduleInput: Schedule:Year=\"SCHEDULE RULESET 16\", Blank Schedule Type Limits Name input -- will not be validated.\n   ** Warning ** ProcessScheduleInput: Schedule:Year=\"SCHEDULE RULESET 17\", Blank Schedule Type Limits Name input -- will not be validated.\n   ** Warning ** ProcessScheduleInput: Schedule:Year=\"SCHEDULE RULESET 18\", Blank Schedule Type Limits Name input -- will not be validated.\n   ** Warning ** ProcessScheduleInput: Schedule:Year=\"SCHEDULE RULESET 19\", Blank Schedule Type Limits Name input -- will not be validated.\n   ** Warning ** ProcessScheduleInput: Schedule:Year=\"SCHEDULE RULESET 20\", Blank Schedule Type Limits Name input -- will not be validated.\n   ** Warning ** ProcessScheduleInput: Schedule:Year=\"SCHEDULE RULESET 21\", Blank Schedule Type Limits Name input -- will not be validated.\n   ** Warning ** ProcessScheduleInput: Schedule:Year=\"SCHEDULE RULESET 22\", Blank Schedule Type Limits Name input -- will not be validated.\n   ** Warning ** ProcessScheduleInput: Schedule:Year=\"SCHEDULE RULESET 23\", Blank Schedule Type Limits Name input -- will not be validated.\n   ** Warning ** ProcessScheduleInput: Schedule:Year=\"SCHEDULE RULESET 24\", Blank Schedule Type Limits Name input -- will not be validated.\n   ** Warning ** ProcessScheduleInput: Schedule:Year=\"SCHEDULE RULESET 25\", Blank Schedule Type Limits Name input -- will not be validated.\n   ** Warning ** ProcessScheduleInput: Schedule:Year=\"SCHEDULE RULESET 26\", Blank Schedule Type Limits Name input -- will not be validated.\n   ** Warning ** ProcessScheduleInput: Schedule:Year=\"SCHEDULE RULESET 27\", Blank Schedule Type Limits Name input -- will not be validated.\n   ** Warning ** ProcessScheduleInput: Schedule:Year=\"SCHEDULE RULESET 28\", Blank Schedule Type Limits Name input -- will not be validated.\n   ** Warning ** ProcessScheduleInput: Schedule:Year=\"SCHEDULE RULESET 29\", Blank Schedule Type Limits Name input -- will not be validated.\n   ** Warning ** ProcessScheduleInput: Schedule:Year=\"SCHEDULE RULESET 3\", Blank Schedule Type Limits Name input -- will not be validated.\n   ** Warning ** ProcessScheduleInput: Schedule:Year=\"SCHEDULE RULESET 30\", Blank Schedule Type Limits Name input -- will not be validated.\n   ** Warning ** ProcessScheduleInput: Schedule:Year=\"SCHEDULE RULESET 31\", Blank Schedule Type Limits Name input -- will not be validated.\n   ** Warning ** ProcessScheduleInput: Schedule:Year=\"SCHEDULE RULESET 32\", Blank Schedule Type Limits Name input -- will not be validated.\n   ** Warning ** ProcessScheduleInput: Schedule:Year=\"SCHEDULE RULESET 33\", Blank Schedule Type Limits Name input -- will not be validated.\n   ** Warning ** ProcessScheduleInput: Schedule:Year=\"SCHEDULE RULESET 34\", Blank Schedule Type Limits Name input -- will not be validated.\n   ** Warning ** ProcessScheduleInput: Schedule:Year=\"SCHEDULE RULESET 35\", Blank Schedule Type Limits Name input -- will not be validated.\n   ** Warning ** ProcessScheduleInput: Schedule:Year=\"SCHEDULE RULESET 36\", Blank Schedule Type Limits Name input -- will not be validated.\n   ** Warning ** ProcessScheduleInput: Schedule:Year=\"SCHEDULE RULESET 37\", Blank Schedule Type Limits Name input -- will not be validated.\n   ** Warning ** ProcessScheduleInput: Schedule:Year=\"SCHEDULE RULESET 38\", Blank Schedule Type Limits Name input -- will not be validated.\n   ** Warning ** ProcessScheduleInput: Schedule:Year=\"SCHEDULE RULESET 39\", Blank Schedule Type Limits Name input -- will not be validated.\n   ** Warning ** ProcessScheduleInput: Schedule:Year=\"SCHEDULE RULESET 4\", Blank Schedule Type Limits Name input -- will not be validated.\n   ** Warning ** ProcessScheduleInput: Schedule:Year=\"SCHEDULE RULESET 40\", Blank Schedule Type Limits Name input -- will not be validated.\n   ** Warning ** ProcessScheduleInput: Schedule:Year=\"SCHEDULE RULESET 41\", Blank Schedule Type Limits Name input -- will not be validated.\n   ** Warning ** ProcessScheduleInput: Schedule:Year=\"SCHEDULE RULESET 42\", Blank Schedule Type Limits Name input -- will not be validated.\n   ** Warning ** ProcessScheduleInput: Schedule:Year=\"SCHEDULE RULESET 43\", Blank Schedule Type Limits Name input -- will not be validated.\n   ** Warning ** ProcessScheduleInput: Schedule:Year=\"SCHEDULE RULESET 44\", Blank Schedule Type Limits Name input -- will not be validated.\n   ** Warning ** ProcessScheduleInput: Schedule:Year=\"SCHEDULE RULESET 45\", Blank Schedule Type Limits Name input -- will not be validated.\n   ** Warning ** ProcessScheduleInput: Schedule:Year=\"SCHEDULE RULESET 46\", Blank Schedule Type Limits Name input -- will not be validated.\n   ** Warning ** ProcessScheduleInput: Schedule:Year=\"SCHEDULE RULESET 47\", Blank Schedule Type Limits Name input -- will not be validated.\n   ** Warning ** ProcessScheduleInput: Schedule:Year=\"SCHEDULE RULESET 48\", Blank Schedule Type Limits Name input -- will not be validated.\n   ** Warning ** ProcessScheduleInput: Schedule:Year=\"SCHEDULE RULESET 49\", Blank Schedule Type Limits Name input -- will not be validated.\n   ** Warning ** ProcessScheduleInput: Schedule:Year=\"SCHEDULE RULESET 5\", Blank Schedule Type Limits Name input -- will not be validated.\n   ** Warning ** ProcessScheduleInput: Schedule:Year=\"SCHEDULE RULESET 50\", Blank Schedule Type Limits Name input -- will not be validated.\n   ** Warning ** ProcessScheduleInput: Schedule:Year=\"SCHEDULE RULESET 51\", Blank Schedule Type Limits Name input -- will not be validated.\n   ** Warning ** ProcessScheduleInput: Schedule:Year=\"SCHEDULE RULESET 52\", Blank Schedule Type Limits Name input -- will not be validated.\n   ** Warning ** ProcessScheduleInput: Schedule:Year=\"SCHEDULE RULESET 53\", Blank Schedule Type Limits Name input -- will not be validated.\n   ** Warning ** ProcessScheduleInput: Schedule:Year=\"SCHEDULE RULESET 54\", Blank Schedule Type Limits Name input -- will not be validated.\n   ** Warning ** ProcessScheduleInput: Schedule:Year=\"SCHEDULE RULESET 55\", Blank Schedule Type Limits Name input -- will not be validated.\n   ** Warning ** ProcessScheduleInput: Schedule:Year=\"SCHEDULE RULESET 56\", Blank Schedule Type Limits Name input -- will not be validated.\n   ** Warning ** ProcessScheduleInput: Schedule:Year=\"SCHEDULE RULESET 57\", Blank Schedule Type Limits Name input -- will not be validated.\n   ** Warning ** ProcessScheduleInput: Schedule:Year=\"SCHEDULE RULESET 58\", Blank Schedule Type Limits Name input -- will not be validated.\n   ** Warning ** ProcessScheduleInput: Schedule:Year=\"SCHEDULE RULESET 59\", Blank Schedule Type Limits Name input -- will not be validated.\n   ** Warning ** ProcessScheduleInput: Schedule:Year=\"SCHEDULE RULESET 6\", Blank Schedule Type Limits Name input -- will not be validated.\n   ** Warning ** ProcessScheduleInput: Schedule:Year=\"SCHEDULE RULESET 60\", Blank Schedule Type Limits Name input -- will not be validated.\n   ** Warning ** ProcessScheduleInput: Schedule:Year=\"SCHEDULE RULESET 61\", Blank Schedule Type Limits Name input -- will not be validated.\n   ** Warning ** ProcessScheduleInput: Schedule:Year=\"SCHEDULE RULESET 62\", Blank Schedule Type Limits Name input -- will not be validated.\n   ** Warning ** ProcessScheduleInput: Schedule:Year=\"SCHEDULE RULESET 63\", Blank Schedule Type Limits Name input -- will not be validated.\n   ** Warning ** ProcessScheduleInput: Schedule:Year=\"SCHEDULE RULESET 64\", Blank Schedule Type Limits Name input -- will not be validated.\n   ** Warning ** ProcessScheduleInput: Schedule:Year=\"SCHEDULE RULESET 65\", Blank Schedule Type Limits Name input -- will not be validated.\n   ** Warning ** ProcessScheduleInput: Schedule:Year=\"SCHEDULE RULESET 66\", Blank Schedule Type Limits Name input -- will not be validated.\n   ** Warning ** ProcessScheduleInput: Schedule:Year=\"SCHEDULE RULESET 67\", Blank Schedule Type Limits Name input -- will not be validated.\n   ** Warning ** ProcessScheduleInput: Schedule:Year=\"SCHEDULE RULESET 68\", Blank Schedule Type Limits Name input -- will not be validated.\n   ** Warning ** ProcessScheduleInput: Schedule:Year=\"SCHEDULE RULESET 69\", Blank Schedule Type Limits Name input -- will not be validated.\n   ** Warning ** ProcessScheduleInput: Schedule:Year=\"SCHEDULE RULESET 7\", Blank Schedule Type Limits Name input -- will not be validated.\n   ** Warning ** ProcessScheduleInput: Schedule:Year=\"SCHEDULE RULESET 70\", Blank Schedule Type Limits Name input -- will not be validated.\n   ** Warning ** ProcessScheduleInput: Schedule:Year=\"SCHEDULE RULESET 71\", Blank Schedule Type Limits Name input -- will not be validated.\n   ** Warning ** ProcessScheduleInput: Schedule:Year=\"SCHEDULE RULESET 72\", Blank Schedule Type Limits Name input -- will not be validated.\n   ** Warning ** ProcessScheduleInput: Schedule:Year=\"SCHEDULE RULESET 73\", Blank Schedule Type Limits Name input -- will not be validated.\n   ** Warning ** ProcessScheduleInput: Schedule:Year=\"SCHEDULE RULESET 74\", Blank Schedule Type Limits Name input -- will not be validated.\n   ** Warning ** ProcessScheduleInput: Schedule:Year=\"SCHEDULE RULESET 8\", Blank Schedule Type Limits Name input -- will not be validated.\n   ** Warning ** ProcessScheduleInput: Schedule:Year=\"SCHEDULE RULESET 9\", Blank Schedule Type Limits Name input -- will not be validated.\n   ** Warning ** ProcessScheduleInput: Schedule:Constant=\"ALWAYS OFF DISCRETE\", Blank Schedule Type Limits Name input -- will not be validated.\n   ** Warning ** ProcessScheduleInput: Schedule:Constant=\"ALWAYS ON CONTINUOUS\", Blank Schedule Type Limits Name input -- will not be validated.\n   ** Warning ** CheckUsedConstructions: There are 26 nominally unused constructions in input.\n   **   ~~~   ** For explicit details on each unused construction, use Output:Diagnostics,DisplayExtraWarnings;\n   ************* Beginning System Sizing Calculations\n   ** Warning ** GetDXCoils: Coil:Cooling:DX:SingleSpeed=\"COIL COOLING DX SINGLE SPEED 24 7KBTU/HR 10.9EER\", invalid\n   **   ~~~   ** ...Part Load Fraction Correlation Curve Name = DXCOOL-NECB2011-REF-COOLPLFFPLR 16 has out of range value.\n   **   ~~~   ** ...Curve maximum must be <= 1.0, curve max at PLR = 0.99 is 1.015\n   **   ~~~   ** ...Setting curve maximum to 1.0 and simulation continues.\n   ** Warning ** GetDXCoils: Coil:Cooling:DX:SingleSpeed=\"COIL COOLING DX SINGLE SPEED 22 5KBTU/HR 11.0EER\", invalid\n   **   ~~~   ** ...Part Load Fraction Correlation Curve Name = DXCOOL-NECB2011-REF-COOLPLFFPLR 14 has out of range value.\n   **   ~~~   ** ...Curve maximum must be <= 1.0, curve max at PLR = 0.99 is 1.015\n   **   ~~~   ** ...Setting curve maximum to 1.0 and simulation continues.\n   ** Warning ** GetDXCoils: Coil:Cooling:DX:SingleSpeed=\"COIL COOLING DX SINGLE SPEED 21 5KBTU/HR 11.0EER\", invalid\n   **   ~~~   ** ...Part Load Fraction Correlation Curve Name = DXCOOL-NECB2011-REF-COOLPLFFPLR 13 has out of range value.\n   **   ~~~   ** ...Curve maximum must be <= 1.0, curve max at PLR = 0.99 is 1.015\n   **   ~~~   ** ...Setting curve maximum to 1.0 and simulation continues.\n   ** Warning ** GetDXCoils: Coil:Cooling:DX:SingleSpeed=\"COIL COOLING DX SINGLE SPEED 23 10KBTU/HR 10.3EER\", invalid\n   **   ~~~   ** ...Part Load Fraction Correlation Curve Name = DXCOOL-NECB2011-REF-COOLPLFFPLR 15 has out of range value.\n   **   ~~~   ** ...Curve maximum must be <= 1.0, curve max at PLR = 0.99 is 1.015\n   **   ~~~   ** ...Setting curve maximum to 1.0 and simulation continues.\n   ** Warning ** GetDXCoils: Coil:Cooling:DX:SingleSpeed=\"COIL COOLING DX SINGLE SPEED 20 9KBTU/HR 10.5EER\", invalid\n   **   ~~~   ** ...Part Load Fraction Correlation Curve Name = DXCOOL-NECB2011-REF-COOLPLFFPLR 12 has out of range value.\n   **   ~~~   ** ...Curve maximum must be <= 1.0, curve max at PLR = 0.99 is 1.015\n   **   ~~~   ** ...Setting curve maximum to 1.0 and simulation continues.\n   ** Warning ** GetDXCoils: Coil:Cooling:DX:SingleSpeed=\"COIL COOLING DX SINGLE SPEED 25 10KBTU/HR 10.4EER\", invalid\n   **   ~~~   ** ...Part Load Fraction Correlation Curve Name = DXCOOL-NECB2011-REF-COOLPLFFPLR 17 has out of range value.\n   **   ~~~   ** ...Curve maximum must be <= 1.0, curve max at PLR = 0.99 is 1.015\n   **   ~~~   ** ...Setting curve maximum to 1.0 and simulation continues.\n   ** Warning ** GetDXCoils: Coil:Cooling:DX:SingleSpeed=\"COIL COOLING DX SINGLE SPEED 26 10KBTU/HR 10.4EER\", invalid\n   **   ~~~   ** ...Part Load Fraction Correlation Curve Name = DXCOOL-NECB2011-REF-COOLPLFFPLR 18 has out of range value.\n   **   ~~~   ** ...Curve maximum must be <= 1.0, curve max at PLR = 0.99 is 1.015\n   **   ~~~   ** ...Setting curve maximum to 1.0 and simulation continues.\n   ** Warning ** GetDXCoils: Coil:Cooling:DX:SingleSpeed=\"COIL COOLING DX SINGLE SPEED 27 11KBTU/HR 10.1EER\", invalid\n   **   ~~~   ** ...Part Load Fraction Correlation Curve Name = DXCOOL-NECB2011-REF-COOLPLFFPLR 19 has out of range value.\n   **   ~~~   ** ...Curve maximum must be <= 1.0, curve max at PLR = 0.99 is 1.015\n   **   ~~~   ** ...Setting curve maximum to 1.0 and simulation continues.\n   ** Warning ** GetDXCoils: Coil:Cooling:DX:SingleSpeed=\"COIL COOLING DX SINGLE SPEED 6 7KBTU/HR 11.0EER\", invalid\n   **   ~~~   ** ...Part Load Fraction Correlation Curve Name = DXCOOL-NECB2011-REF-COOLPLFFPLR 24 has out of range value.\n   **   ~~~   ** ...Curve maximum must be <= 1.0, curve max at PLR = 0.99 is 1.015\n   **   ~~~   ** ...Setting curve maximum to 1.0 and simulation continues.\n   ** Warning ** GetDXCoils: Coil:Cooling:DX:SingleSpeed=\"COIL COOLING DX SINGLE SPEED 4 5KBTU/HR 11.0EER\", invalid\n   **   ~~~   ** ...Part Load Fraction Correlation Curve Name = DXCOOL-NECB2011-REF-COOLPLFFPLR 22 has out of range value.\n   **   ~~~   ** ...Curve maximum must be <= 1.0, curve max at PLR = 0.99 is 1.015\n   **   ~~~   ** ...Setting curve maximum to 1.0 and simulation continues.\n   ** Warning ** GetDXCoils: Coil:Cooling:DX:SingleSpeed=\"COIL COOLING DX SINGLE SPEED 3 5KBTU/HR 11.0EER\", invalid\n   **   ~~~   ** ...Part Load Fraction Correlation Curve Name = DXCOOL-NECB2011-REF-COOLPLFFPLR 21 has out of range value.\n   **   ~~~   ** ...Curve maximum must be <= 1.0, curve max at PLR = 0.99 is 1.015\n   **   ~~~   ** ...Setting curve maximum to 1.0 and simulation continues.\n   ** Warning ** GetDXCoils: Coil:Cooling:DX:SingleSpeed=\"COIL COOLING DX SINGLE SPEED 2 10KBTU/HR 10.3EER\", invalid\n   **   ~~~   ** ...Part Load Fraction Correlation Curve Name = DXCOOL-NECB2011-REF-COOLPLFFPLR 11 has out of range value.\n   **   ~~~   ** ...Curve maximum must be <= 1.0, curve max at PLR = 0.99 is 1.015\n   **   ~~~   ** ...Setting curve maximum to 1.0 and simulation continues.\n   ** Warning ** GetDXCoils: Coil:Cooling:DX:SingleSpeed=\"COIL COOLING DX SINGLE SPEED 5 10KBTU/HR 10.4EER\", invalid\n   **   ~~~   ** ...Part Load Fraction Correlation Curve Name = DXCOOL-NECB2011-REF-COOLPLFFPLR 23 has out of range value.\n   **   ~~~   ** ...Curve maximum must be <= 1.0, curve max at PLR = 0.99 is 1.015\n   **   ~~~   ** ...Setting curve maximum to 1.0 and simulation continues.\n   ** Warning ** GetDXCoils: Coil:Cooling:DX:SingleSpeed=\"COIL COOLING DX SINGLE SPEED 7 10KBTU/HR 10.4EER\", invalid\n   **   ~~~   ** ...Part Load Fraction Correlation Curve Name = DXCOOL-NECB2011-REF-COOLPLFFPLR 25 has out of range value.\n   **   ~~~   ** ...Curve maximum must be <= 1.0, curve max at PLR = 0.99 is 1.015\n   **   ~~~   ** ...Setting curve maximum to 1.0 and simulation continues.\n   ** Warning ** GetDXCoils: Coil:Cooling:DX:SingleSpeed=\"COIL COOLING DX SINGLE SPEED 9 10KBTU/HR 10.4EER\", invalid\n   **   ~~~   ** ...Part Load Fraction Correlation Curve Name = DXCOOL-NECB2011-REF-COOLPLFFPLR 27 has out of range value.\n   **   ~~~   ** ...Curve maximum must be <= 1.0, curve max at PLR = 0.99 is 1.015\n   **   ~~~   ** ...Setting curve maximum to 1.0 and simulation continues.\n   ** Warning ** GetDXCoils: Coil:Cooling:DX:SingleSpeed=\"COIL COOLING DX SINGLE SPEED 8 12KBTU/HR 10.0EER\", invalid\n   **   ~~~   ** ...Part Load Fraction Correlation Curve Name = DXCOOL-NECB2011-REF-COOLPLFFPLR 26 has out of range value.\n   **   ~~~   ** ...Curve maximum must be <= 1.0, curve max at PLR = 0.99 is 1.015\n   **   ~~~   ** ...Setting curve maximum to 1.0 and simulation continues.\n   ** Warning ** GetDXCoils: Coil:Cooling:DX:SingleSpeed=\"COIL COOLING DX SINGLE SPEED 10 12KBTU/HR 9.9EER\", invalid\n   **   ~~~   ** ...Part Load Fraction Correlation Curve Name = DXCOOL-NECB2011-REF-COOLPLFFPLR 1 has out of range value.\n   **   ~~~   ** ...Curve maximum must be <= 1.0, curve max at PLR = 0.99 is 1.015\n   **   ~~~   ** ...Setting curve maximum to 1.0 and simulation continues.\n   ** Warning ** GetDXCoils: Coil:Cooling:DX:SingleSpeed=\"COIL COOLING DX SINGLE SPEED 15 11KBTU/HR 10.2EER\", invalid\n   **   ~~~   ** ...Part Load Fraction Correlation Curve Name = DXCOOL-NECB2011-REF-COOLPLFFPLR 6 has out of range value.\n   **   ~~~   ** ...Curve maximum must be <= 1.0, curve max at PLR = 0.99 is 1.015\n   **   ~~~   ** ...Setting curve maximum to 1.0 and simulation continues.\n   ** Warning ** GetDXCoils: Coil:Cooling:DX:SingleSpeed=\"COIL COOLING DX SINGLE SPEED 12 9KBTU/HR 10.6EER\", invalid\n   **   ~~~   ** ...Part Load Fraction Correlation Curve Name = DXCOOL-NECB2011-REF-COOLPLFFPLR 3 has out of range value.\n   **   ~~~   ** ...Curve maximum must be <= 1.0, curve max at PLR = 0.99 is 1.015\n   **   ~~~   ** ...Setting curve maximum to 1.0 and simulation continues.\n   ** Warning ** GetDXCoils: Coil:Cooling:DX:SingleSpeed=\"COIL COOLING DX SINGLE SPEED 13 9KBTU/HR 10.6EER\", invalid\n   **   ~~~   ** ...Part Load Fraction Correlation Curve Name = DXCOOL-NECB2011-REF-COOLPLFFPLR 4 has out of range value.\n   **   ~~~   ** ...Curve maximum must be <= 1.0, curve max at PLR = 0.99 is 1.015\n   **   ~~~   ** ...Setting curve maximum to 1.0 and simulation continues.\n   ** Warning ** GetDXCoils: Coil:Cooling:DX:SingleSpeed=\"COIL COOLING DX SINGLE SPEED 14 11KBTU/HR 10.2EER\", invalid\n   **   ~~~   ** ...Part Load Fraction Correlation Curve Name = DXCOOL-NECB2011-REF-COOLPLFFPLR 5 has out of range value.\n   **   ~~~   ** ...Curve maximum must be <= 1.0, curve max at PLR = 0.99 is 1.015\n   **   ~~~   ** ...Setting curve maximum to 1.0 and simulation continues.\n   ** Warning ** GetDXCoils: Coil:Cooling:DX:SingleSpeed=\"COIL COOLING DX SINGLE SPEED 11 11KBTU/HR 10.2EER\", invalid\n   **   ~~~   ** ...Part Load Fraction Correlation Curve Name = DXCOOL-NECB2011-REF-COOLPLFFPLR 2 has out of range value.\n   **   ~~~   ** ...Curve maximum must be <= 1.0, curve max at PLR = 0.99 is 1.015\n   **   ~~~   ** ...Setting curve maximum to 1.0 and simulation continues.\n   ** Warning ** GetDXCoils: Coil:Cooling:DX:SingleSpeed=\"COIL COOLING DX SINGLE SPEED 16 12KBTU/HR 9.9EER\", invalid\n   **   ~~~   ** ...Part Load Fraction Correlation Curve Name = DXCOOL-NECB2011-REF-COOLPLFFPLR 7 has out of range value.\n   **   ~~~   ** ...Curve maximum must be <= 1.0, curve max at PLR = 0.99 is 1.015\n   **   ~~~   ** ...Setting curve maximum to 1.0 and simulation continues.\n   ** Warning ** GetDXCoils: Coil:Cooling:DX:SingleSpeed=\"COIL COOLING DX SINGLE SPEED 19 12KBTU/HR 9.9EER\", invalid\n   **   ~~~   ** ...Part Load Fraction Correlation Curve Name = DXCOOL-NECB2011-REF-COOLPLFFPLR 10 has out of range value.\n   **   ~~~   ** ...Curve maximum must be <= 1.0, curve max at PLR = 0.99 is 1.015\n   **   ~~~   ** ...Setting curve maximum to 1.0 and simulation continues.\n   ** Warning ** GetDXCoils: Coil:Cooling:DX:SingleSpeed=\"COIL COOLING DX SINGLE SPEED 18 14KBTU/HR 9.6EER\", invalid\n   **   ~~~   ** ...Part Load Fraction Correlation Curve Name = DXCOOL-NECB2011-REF-COOLPLFFPLR 9 has out of range value.\n   **   ~~~   ** ...Curve maximum must be <= 1.0, curve max at PLR = 0.99 is 1.015\n   **   ~~~   ** ...Setting curve maximum to 1.0 and simulation continues.\n   ** Warning ** GetDXCoils: Coil:Cooling:DX:SingleSpeed=\"COIL COOLING DX SINGLE SPEED 17 14KBTU/HR 9.6EER\", invalid\n   **   ~~~   ** ...Part Load Fraction Correlation Curve Name = DXCOOL-NECB2011-REF-COOLPLFFPLR 8 has out of range value.\n   **   ~~~   ** ...Curve maximum must be <= 1.0, curve max at PLR = 0.99 is 1.015\n   **   ~~~   ** ...Setting curve maximum to 1.0 and simulation continues.\n   ** Warning ** GetDXCoils: Coil:Cooling:DX:SingleSpeed=\"COIL COOLING DX SINGLE SPEED 1 59KBTU/HR 14.0SEER\", invalid\n   **   ~~~   ** ...Part Load Fraction Correlation Curve Name = DXCOOL-NECB2011-REF-COOLPLFFPLR has out of range value.\n   **   ~~~   ** ...Curve maximum must be <= 1.0, curve max at PLR = 0.99 is 1.015\n   **   ~~~   ** ...Setting curve maximum to 1.0 and simulation continues.\n   ** Warning ** GetDXCoils: Coil:Cooling:DX:SingleSpeed=\"COIL COOLING DX SINGLE SPEED 28 18KBTU/HR 14.0SEER\", invalid\n   **   ~~~   ** ...Part Load Fraction Correlation Curve Name = DXCOOL-NECB2011-REF-COOLPLFFPLR 20 has out of range value.\n   **   ~~~   ** ...Curve maximum must be <= 1.0, curve max at PLR = 0.99 is 1.015\n   **   ~~~   ** ...Setting curve maximum to 1.0 and simulation continues.\n   ************* Beginning Plant Sizing Calculations\n   ** Warning ** The Standard Ratings is calculated for Coil:Cooling:DX:SingleSpeed = COIL COOLING DX SINGLE SPEED 24 7KBTU/HR 10.9EER but not at the AHRI test condition due to curve out of bound.\n   **   ~~~   **  Review the Standard Ratings calculations in the Engineering Reference for this coil type. Also, use Output:Diagnostics, DisplayExtraWarnings for further guidance.\n   ** Warning ** The Standard Ratings is calculated for Coil:Cooling:DX:SingleSpeed = COIL COOLING DX SINGLE SPEED 22 5KBTU/HR 11.0EER but not at the AHRI test condition due to curve out of bound.\n   **   ~~~   **  Review the Standard Ratings calculations in the Engineering Reference for this coil type. Also, use Output:Diagnostics, DisplayExtraWarnings for further guidance.\n   ** Warning ** The Standard Ratings is calculated for Coil:Cooling:DX:SingleSpeed = COIL COOLING DX SINGLE SPEED 21 5KBTU/HR 11.0EER but not at the AHRI test condition due to curve out of bound.\n   **   ~~~   **  Review the Standard Ratings calculations in the Engineering Reference for this coil type. Also, use Output:Diagnostics, DisplayExtraWarnings for further guidance.\n   ** Warning ** The Standard Ratings is calculated for Coil:Cooling:DX:SingleSpeed = COIL COOLING DX SINGLE SPEED 23 10KBTU/HR 10.3EER but not at the AHRI test condition due to curve out of bound.\n   **   ~~~   **  Review the Standard Ratings calculations in the Engineering Reference for this coil type. Also, use Output:Diagnostics, DisplayExtraWarnings for further guidance.\n   ** Warning ** The Standard Ratings is calculated for Coil:Cooling:DX:SingleSpeed = COIL COOLING DX SINGLE SPEED 20 9KBTU/HR 10.5EER but not at the AHRI test condition due to curve out of bound.\n   **   ~~~   **  Review the Standard Ratings calculations in the Engineering Reference for this coil type. Also, use Output:Diagnostics, DisplayExtraWarnings for further guidance.\n   ** Warning ** The Standard Ratings is calculated for Coil:Cooling:DX:SingleSpeed = COIL COOLING DX SINGLE SPEED 25 10KBTU/HR 10.4EER but not at the AHRI test condition due to curve out of bound.\n   **   ~~~   **  Review the Standard Ratings calculations in the Engineering Reference for this coil type. Also, use Output:Diagnostics, DisplayExtraWarnings for further guidance.\n   ** Warning ** The Standard Ratings is calculated for Coil:Cooling:DX:SingleSpeed = COIL COOLING DX SINGLE SPEED 26 10KBTU/HR 10.4EER but not at the AHRI test condition due to curve out of bound.\n   **   ~~~   **  Review the Standard Ratings calculations in the Engineering Reference for this coil type. Also, use Output:Diagnostics, DisplayExtraWarnings for further guidance.\n   ** Warning ** The Standard Ratings is calculated for Coil:Cooling:DX:SingleSpeed = COIL COOLING DX SINGLE SPEED 27 11KBTU/HR 10.1EER but not at the AHRI test condition due to curve out of bound.\n   **   ~~~   **  Review the Standard Ratings calculations in the Engineering Reference for this coil type. Also, use Output:Diagnostics, DisplayExtraWarnings for further guidance.\n   ** Warning ** The Standard Ratings is calculated for Coil:Cooling:DX:SingleSpeed = COIL COOLING DX SINGLE SPEED 6 7KBTU/HR 11.0EER but not at the AHRI test condition due to curve out of bound.\n   **   ~~~   **  Review the Standard Ratings calculations in the Engineering Reference for this coil type. Also, use Output:Diagnostics, DisplayExtraWarnings for further guidance.\n   ** Warning ** The Standard Ratings is calculated for Coil:Cooling:DX:SingleSpeed = COIL COOLING DX SINGLE SPEED 4 5KBTU/HR 11.0EER but not at the AHRI test condition due to curve out of bound.\n   **   ~~~   **  Review the Standard Ratings calculations in the Engineering Reference for this coil type. Also, use Output:Diagnostics, DisplayExtraWarnings for further guidance.\n   ** Warning ** The Standard Ratings is calculated for Coil:Cooling:DX:SingleSpeed = COIL COOLING DX SINGLE SPEED 3 5KBTU/HR 11.0EER but not at the AHRI test condition due to curve out of bound.\n   **   ~~~   **  Review the Standard Ratings calculations in the Engineering Reference for this coil type. Also, use Output:Diagnostics, DisplayExtraWarnings for further guidance.\n   ** Warning ** The Standard Ratings is calculated for Coil:Cooling:DX:SingleSpeed = COIL COOLING DX SINGLE SPEED 2 10KBTU/HR 10.3EER but not at the AHRI test condition due to curve out of bound.\n   **   ~~~   **  Review the Standard Ratings calculations in the Engineering Reference for this coil type. Also, use Output:Diagnostics, DisplayExtraWarnings for further guidance.\n   ** Warning ** The Standard Ratings is calculated for Coil:Cooling:DX:SingleSpeed = COIL COOLING DX SINGLE SPEED 5 10KBTU/HR 10.4EER but not at the AHRI test condition due to curve out of bound.\n   **   ~~~   **  Review the Standard Ratings calculations in the Engineering Reference for this coil type. Also, use Output:Diagnostics, DisplayExtraWarnings for further guidance.\n   ** Warning ** The Standard Ratings is calculated for Coil:Cooling:DX:SingleSpeed = COIL COOLING DX SINGLE SPEED 7 10KBTU/HR 10.4EER but not at the AHRI test condition due to curve out of bound.\n   **   ~~~   **  Review the Standard Ratings calculations in the Engineering Reference for this coil type. Also, use Output:Diagnostics, DisplayExtraWarnings for further guidance.\n   ** Warning ** The Standard Ratings is calculated for Coil:Cooling:DX:SingleSpeed = COIL COOLING DX SINGLE SPEED 9 10KBTU/HR 10.4EER but not at the AHRI test condition due to curve out of bound.\n   **   ~~~   **  Review the Standard Ratings calculations in the Engineering Reference for this coil type. Also, use Output:Diagnostics, DisplayExtraWarnings for further guidance.\n   ** Warning ** The Standard Ratings is calculated for Coil:Cooling:DX:SingleSpeed = COIL COOLING DX SINGLE SPEED 8 12KBTU/HR 10.0EER but not at the AHRI test condition due to curve out of bound.\n   **   ~~~   **  Review the Standard Ratings calculations in the Engineering Reference for this coil type. Also, use Output:Diagnostics, DisplayExtraWarnings for further guidance.\n   ** Warning ** The Standard Ratings is calculated for Coil:Cooling:DX:SingleSpeed = COIL COOLING DX SINGLE SPEED 10 12KBTU/HR 9.9EER but not at the AHRI test condition due to curve out of bound.\n   **   ~~~   **  Review the Standard Ratings calculations in the Engineering Reference for this coil type. Also, use Output:Diagnostics, DisplayExtraWarnings for further guidance.\n   ** Warning ** The Standard Ratings is calculated for Coil:Cooling:DX:SingleSpeed = COIL COOLING DX SINGLE SPEED 15 11KBTU/HR 10.2EER but not at the AHRI test condition due to curve out of bound.\n   **   ~~~   **  Review the Standard Ratings calculations in the Engineering Reference for this coil type. Also, use Output:Diagnostics, DisplayExtraWarnings for further guidance.\n   ** Warning ** The Standard Ratings is calculated for Coil:Cooling:DX:SingleSpeed = COIL COOLING DX SINGLE SPEED 12 9KBTU/HR 10.6EER but not at the AHRI test condition due to curve out of bound.\n   **   ~~~   **  Review the Standard Ratings calculations in the Engineering Reference for this coil type. Also, use Output:Diagnostics, DisplayExtraWarnings for further guidance.\n   ** Warning ** The Standard Ratings is calculated for Coil:Cooling:DX:SingleSpeed = COIL COOLING DX SINGLE SPEED 13 9KBTU/HR 10.6EER but not at the AHRI test condition due to curve out of bound.\n   **   ~~~   **  Review the Standard Ratings calculations in the Engineering Reference for this coil type. Also, use Output:Diagnostics, DisplayExtraWarnings for further guidance.\n   ** Warning ** The Standard Ratings is calculated for Coil:Cooling:DX:SingleSpeed = COIL COOLING DX SINGLE SPEED 14 11KBTU/HR 10.2EER but not at the AHRI test condition due to curve out of bound.\n   **   ~~~   **  Review the Standard Ratings calculations in the Engineering Reference for this coil type. Also, use Output:Diagnostics, DisplayExtraWarnings for further guidance.\n   ** Warning ** The Standard Ratings is calculated for Coil:Cooling:DX:SingleSpeed = COIL COOLING DX SINGLE SPEED 11 11KBTU/HR 10.2EER but not at the AHRI test condition due to curve out of bound.\n   **   ~~~   **  Review the Standard Ratings calculations in the Engineering Reference for this coil type. Also, use Output:Diagnostics, DisplayExtraWarnings for further guidance.\n   ** Warning ** The Standard Ratings is calculated for Coil:Cooling:DX:SingleSpeed = COIL COOLING DX SINGLE SPEED 16 12KBTU/HR 9.9EER but not at the AHRI test condition due to curve out of bound.\n   **   ~~~   **  Review the Standard Ratings calculations in the Engineering Reference for this coil type. Also, use Output:Diagnostics, DisplayExtraWarnings for further guidance.\n   ** Warning ** The Standard Ratings is calculated for Coil:Cooling:DX:SingleSpeed = COIL COOLING DX SINGLE SPEED 19 12KBTU/HR 9.9EER but not at the AHRI test condition due to curve out of bound.\n   **   ~~~   **  Review the Standard Ratings calculations in the Engineering Reference for this coil type. Also, use Output:Diagnostics, DisplayExtraWarnings for further guidance.\n   ** Warning ** The Standard Ratings is calculated for Coil:Cooling:DX:SingleSpeed = COIL COOLING DX SINGLE SPEED 18 14KBTU/HR 9.6EER but not at the AHRI test condition due to curve out of bound.\n   **   ~~~   **  Review the Standard Ratings calculations in the Engineering Reference for this coil type. Also, use Output:Diagnostics, DisplayExtraWarnings for further guidance.\n   ** Warning ** The Standard Ratings is calculated for Coil:Cooling:DX:SingleSpeed = COIL COOLING DX SINGLE SPEED 17 14KBTU/HR 9.6EER but not at the AHRI test condition due to curve out of bound.\n   **   ~~~   **  Review the Standard Ratings calculations in the Engineering Reference for this coil type. Also, use Output:Diagnostics, DisplayExtraWarnings for further guidance.\n   ** Warning ** The Standard Ratings is calculated for Coil:Cooling:DX:SingleSpeed = COIL COOLING DX SINGLE SPEED 1 59KBTU/HR 14.0SEER but not at the AHRI test condition due to curve out of bound.\n   **   ~~~   **  Review the Standard Ratings calculations in the Engineering Reference for this coil type. Also, use Output:Diagnostics, DisplayExtraWarnings for further guidance.\n   ** Warning ** The Standard Ratings is calculated for Coil:Cooling:DX:SingleSpeed = COIL COOLING DX SINGLE SPEED 28 18KBTU/HR 14.0SEER but not at the AHRI test condition due to curve out of bound.\n   **   ~~~   **  Review the Standard Ratings calculations in the Engineering Reference for this coil type. Also, use Output:Diagnostics, DisplayExtraWarnings for further guidance.\n   ** Warning ** Output:Meter: invalid Name=\"GAS:FACILITY\" - not found.\n   ** Warning ** Output:Meter: invalid Name=\"DISTRICTCOOLING:FACILITY\" - not found.\n   ** Warning ** Output:Meter: invalid Name=\"DISTRICTHEATING:FACILITY\" - not found.\n   ** Warning ** Output:Meter:MeterFileOnly: invalid Name=\"GAS:FACILITY\" - not found.\n   ** Warning ** Output:Meter:MeterFileOnly: invalid Name=\"GAS:FACILITY\" - not found.\n   ** Warning ** Output:Meter:MeterFileOnly requested for \"Electricity:Facility\" (TimeStep), already on \"Output:Meter\". Will report to both eplusout.eso and eplusout.mtr\n   ************* Testing Individual Branch Integrity\n   ************* All Branches passed integrity testing\n   ************* Testing Individual Supply Air Path Integrity\n   ************* All Supply Air Paths passed integrity testing\n   ************* Testing Individual Return Air Path Integrity\n   ************* All Return Air Paths passed integrity testing\n   ************* No node connection errors were found.\n   ************* Beginning Simulation\n   ** Warning ** GetInputEconomicsTariff: UtilityCost:Tariff=\"NONEGAS\" missing meter\n   **   ~~~   ** Meter referenced is not present due to a lack of equipment that uses that energy source/meter:\"GAS:FACILITY\".\n   ** Warning ** CalcDoe2DXCoil: Coil:Cooling:DX:SingleSpeed \"COIL COOLING DX SINGLE SPEED 25 10KBTU/HR 10.4EER\" - Air-cooled condenser inlet dry-bulb temperature below 0 C. Outdoor dry-bulb temperature = -20.73\n   **   ~~~   **  ... Occurrence info = RUN PERIOD 1, 01/03 10:10 - 10:15\n   **   ~~~   ** ... Operation at low ambient temperatures may require special performance curves.\n   ** Warning ** CalcDoe2DXCoil: Coil:Cooling:DX:SingleSpeed \"COIL COOLING DX SINGLE SPEED 26 10KBTU/HR 10.4EER\" - Air-cooled condenser inlet dry-bulb temperature below 0 C. Outdoor dry-bulb temperature = -20.73\n   **   ~~~   **  ... Occurrence info = RUN PERIOD 1, 01/03 10:10 - 10:15\n   **   ~~~   ** ... Operation at low ambient temperatures may require special performance curves.\n   ** Warning ** CalcDoe2DXCoil: Coil:Cooling:DX:SingleSpeed \"COIL COOLING DX SINGLE SPEED 27 11KBTU/HR 10.1EER\" - Air-cooled condenser inlet dry-bulb temperature below 0 C. Outdoor dry-bulb temperature = -20.98\n   **   ~~~   **  ... Occurrence info = RUN PERIOD 1, 01/03 10:38 - 10:45\n   **   ~~~   ** ... Operation at low ambient temperatures may require special performance curves.\n   ** Warning ** CalcDoe2DXCoil: Coil:Cooling:DX:SingleSpeed \"COIL COOLING DX SINGLE SPEED 7 10KBTU/HR 10.4EER\" - Air-cooled condenser inlet dry-bulb temperature below 0 C. Outdoor dry-bulb temperature = -21.10\n   **   ~~~   **  ... Occurrence info = RUN PERIOD 1, 01/03 10:53 - 11:00\n   **   ~~~   ** ... Operation at low ambient temperatures may require special performance curves.\n   ** Warning ** CalcDoe2DXCoil: Coil:Cooling:DX:SingleSpeed \"COIL COOLING DX SINGLE SPEED 9 10KBTU/HR 10.4EER\" - Air-cooled condenser inlet dry-bulb temperature below 0 C. Outdoor dry-bulb temperature = -21.10\n   **   ~~~   **  ... Occurrence info = RUN PERIOD 1, 01/03 10:53 - 11:00\n   **   ~~~   ** ... Operation at low ambient temperatures may require special performance curves.\n   ** Warning ** CalcDoe2DXCoil: Coil:Cooling:DX:SingleSpeed \"COIL COOLING DX SINGLE SPEED 8 12KBTU/HR 10.0EER\" - Air-cooled condenser inlet dry-bulb temperature below 0 C. Outdoor dry-bulb temperature = -21.10\n   **   ~~~   **  ... Occurrence info = RUN PERIOD 1, 01/03 11:23 - 11:30\n   **   ~~~   ** ... Operation at low ambient temperatures may require special performance curves.\n   ** Warning ** CalcDoe2DXCoil: Coil:Cooling:DX:SingleSpeed \"COIL COOLING DX SINGLE SPEED 10 12KBTU/HR 9.9EER\" - Air-cooled condenser inlet dry-bulb temperature below 0 C. Outdoor dry-bulb temperature = -21.10\n   **   ~~~   **  ... Occurrence info = RUN PERIOD 1, 01/03 11:45 - 12:00\n   **   ~~~   ** ... Operation at low ambient temperatures may require special performance curves.\n   ** Warning ** CalcDoe2DXCoil: Coil:Cooling:DX:SingleSpeed \"COIL COOLING DX SINGLE SPEED 25 10KBTU/HR 10.4EER\" - Full load outlet air dry-bulb temperature < 2C. This indicates the possibility of coil frost/freeze. Outlet temperature = 1.96 C.\n   **   ~~~   **  ...Occurrence info = RUN PERIOD 1, 01/04 11:08 - 11:15\n   **   ~~~   ** ... Possible reasons for low outlet air dry-bulb temperatures are: This DX coil\n   **   ~~~   **    1) may have a low inlet air dry-bulb temperature. Inlet air temperature = 15.362 C.\n   **   ~~~   **    2) may have a low air flow rate per watt of cooling capacity. Check inputs.\n   **   ~~~   **    3) is used as part of a HX assisted cooling coil which uses a high sensible effectiveness. Check inputs.\n   ** Warning ** CalcDoe2DXCoil: Coil:Cooling:DX:SingleSpeed \"COIL COOLING DX SINGLE SPEED 16 12KBTU/HR 9.9EER\" - Air-cooled condenser inlet dry-bulb temperature below 0 C. Outdoor dry-bulb temperature = -21.70\n   **   ~~~   **  ... Occurrence info = RUN PERIOD 1, 01/12 10:55 - 11:00\n   **   ~~~   ** ... Operation at low ambient temperatures may require special performance curves.\n   ** Warning ** CalcDoe2DXCoil: Coil:Cooling:DX:SingleSpeed \"COIL COOLING DX SINGLE SPEED 19 12KBTU/HR 9.9EER\" - Air-cooled condenser inlet dry-bulb temperature below 0 C. Outdoor dry-bulb temperature = -21.70\n   **   ~~~   **  ... Occurrence info = RUN PERIOD 1, 01/12 10:55 - 11:00\n   **   ~~~   ** ... Operation at low ambient temperatures may require special performance curves.\n   ** Warning ** CalcDoe2DXCoil: Coil:Cooling:DX:SingleSpeed \"COIL COOLING DX SINGLE SPEED 18 14KBTU/HR 9.6EER\" - Air-cooled condenser inlet dry-bulb temperature below 0 C. Outdoor dry-bulb temperature = -21.70\n   **   ~~~   **  ... Occurrence info = RUN PERIOD 1, 01/12 10:55 - 11:00\n   **   ~~~   ** ... Operation at low ambient temperatures may require special performance curves.\n   ** Warning ** CalcDoe2DXCoil: Coil:Cooling:DX:SingleSpeed \"COIL COOLING DX SINGLE SPEED 17 14KBTU/HR 9.6EER\" - Air-cooled condenser inlet dry-bulb temperature below 0 C. Outdoor dry-bulb temperature = -21.43\n   **   ~~~   **  ... Occurrence info = RUN PERIOD 1, 01/12 11:05 - 11:10\n   **   ~~~   ** ... Operation at low ambient temperatures may require special performance curves.\n   ** Warning ** CalcDoe2DXCoil: Coil:Cooling:DX:SingleSpeed \"COIL COOLING DX SINGLE SPEED 26 10KBTU/HR 10.4EER\" - Full load outlet air dry-bulb temperature < 2C. This indicates the possibility of coil frost/freeze. Outlet temperature = 1.75 C.\n   **   ~~~   **  ...Occurrence info = RUN PERIOD 1, 01/16 10:23 - 10:30\n   **   ~~~   ** ... Possible reasons for low outlet air dry-bulb temperatures are: This DX coil\n   **   ~~~   **    1) may have a low inlet air dry-bulb temperature. Inlet air temperature = 15.145 C.\n   **   ~~~   **    2) may have a low air flow rate per watt of cooling capacity. Check inputs.\n   **   ~~~   **    3) is used as part of a HX assisted cooling coil which uses a high sensible effectiveness. Check inputs.\n   ** Warning ** CalcDoe2DXCoil: Coil:Cooling:DX:SingleSpeed \"COIL COOLING DX SINGLE SPEED 7 10KBTU/HR 10.4EER\" - Full load outlet air dry-bulb temperature < 2C. This indicates the possibility of coil frost/freeze. Outlet temperature = 1.68 C.\n   **   ~~~   **  ...Occurrence info = RUN PERIOD 1, 01/16 11:00 - 11:08\n   **   ~~~   ** ... Possible reasons for low outlet air dry-bulb temperatures are: This DX coil\n   **   ~~~   **    1) may have a low inlet air dry-bulb temperature. Inlet air temperature = 15.083 C.\n   **   ~~~   **    2) may have a low air flow rate per watt of cooling capacity. Check inputs.\n   **   ~~~   **    3) is used as part of a HX assisted cooling coil which uses a high sensible effectiveness. Check inputs.\n   ** Warning ** CalcDoe2DXCoil: Coil:Cooling:DX:SingleSpeed \"COIL COOLING DX SINGLE SPEED 9 10KBTU/HR 10.4EER\" - Full load outlet air dry-bulb temperature < 2C. This indicates the possibility of coil frost/freeze. Outlet temperature = 1.81 C.\n   **   ~~~   **  ...Occurrence info = RUN PERIOD 1, 01/16 11:00 - 11:08\n   **   ~~~   ** ... Possible reasons for low outlet air dry-bulb temperatures are: This DX coil\n   **   ~~~   **    1) may have a low inlet air dry-bulb temperature. Inlet air temperature = 15.215 C.\n   **   ~~~   **    2) may have a low air flow rate per watt of cooling capacity. Check inputs.\n   **   ~~~   **    3) is used as part of a HX assisted cooling coil which uses a high sensible effectiveness. Check inputs.\n   ** Warning ** CalcDoe2DXCoil: Coil:Cooling:DX:SingleSpeed \"COIL COOLING DX SINGLE SPEED 27 11KBTU/HR 10.1EER\" - Full load outlet air dry-bulb temperature < 2C. This indicates the possibility of coil frost/freeze. Outlet temperature = 1.81 C.\n   **   ~~~   **  ...Occurrence info = RUN PERIOD 1, 01/27 10:00 - 10:05\n   **   ~~~   ** ... Possible reasons for low outlet air dry-bulb temperatures are: This DX coil\n   **   ~~~   **    1) may have a low inlet air dry-bulb temperature. Inlet air temperature = 15.213 C.\n   **   ~~~   **    2) may have a low air flow rate per watt of cooling capacity. Check inputs.\n   **   ~~~   **    3) is used as part of a HX assisted cooling coil which uses a high sensible effectiveness. Check inputs.\n   ** Warning ** CalcDoe2DXCoil: Coil:Cooling:DX:SingleSpeed \"COIL COOLING DX SINGLE SPEED 24 7KBTU/HR 10.9EER\" - Air-cooled condenser inlet dry-bulb temperature below 0 C. Outdoor dry-bulb temperature = -12.15\n   **   ~~~   **  ... Occurrence info = RUN PERIOD 1, 02/11 14:15 - 14:22\n   **   ~~~   ** ... Operation at low ambient temperatures may require special performance curves.\n   ** Warning ** CalcDoe2DXCoil: Coil:Cooling:DX:SingleSpeed \"COIL COOLING DX SINGLE SPEED 6 7KBTU/HR 11.0EER\" - Air-cooled condenser inlet dry-bulb temperature below 0 C. Outdoor dry-bulb temperature = -12.60\n   **   ~~~   **  ... Occurrence info = RUN PERIOD 1, 02/11 15:00 - 15:15\n   **   ~~~   ** ... Operation at low ambient temperatures may require special performance curves.\n   ** Warning ** CalcDoe2DXCoil: Coil:Cooling:DX:SingleSpeed \"COIL COOLING DX SINGLE SPEED 20 9KBTU/HR 10.5EER\" - Air-cooled condenser inlet dry-bulb temperature below 0 C. Outdoor dry-bulb temperature = -13.20\n   **   ~~~   **  ... Occurrence info = RUN PERIOD 1, 02/11 15:15 - 15:30\n   **   ~~~   ** ... Operation at low ambient temperatures may require special performance curves.\n   ** Warning ** CalcDoe2DXCoil: Coil:Cooling:DX:SingleSpeed \"COIL COOLING DX SINGLE SPEED 6 7KBTU/HR 11.0EER\" - Full load outlet air dry-bulb temperature < 2C. This indicates the possibility of coil frost/freeze. Outlet temperature = 1.93 C.\n   **   ~~~   **  ...Occurrence info = RUN PERIOD 1, 02/21 16:00 - 16:08\n   **   ~~~   ** ... Possible reasons for low outlet air dry-bulb temperatures are: This DX coil\n   **   ~~~   **    1) may have a low inlet air dry-bulb temperature. Inlet air temperature = 15.376 C.\n   **   ~~~   **    2) may have a low air flow rate per watt of cooling capacity. Check inputs.\n   **   ~~~   **    3) is used as part of a HX assisted cooling coil which uses a high sensible effectiveness. Check inputs.\n   ** Warning ** CalcDoe2DXCoil: Coil:Cooling:DX:SingleSpeed \"COIL COOLING DX SINGLE SPEED 8 12KBTU/HR 10.0EER\" - Full load outlet air dry-bulb temperature < 2C. This indicates the possibility of coil frost/freeze. Outlet temperature = 1.80 C.\n   **   ~~~   **  ...Occurrence info = RUN PERIOD 1, 02/25 09:00 - 09:05\n   **   ~~~   ** ... Possible reasons for low outlet air dry-bulb temperatures are: This DX coil\n   **   ~~~   **    1) may have a low inlet air dry-bulb temperature. Inlet air temperature = 15.229 C.\n   **   ~~~   **    2) may have a low air flow rate per watt of cooling capacity. Check inputs.\n   **   ~~~   **    3) is used as part of a HX assisted cooling coil which uses a high sensible effectiveness. Check inputs.\n   ** Warning ** CalcDoe2DXCoil: Coil:Cooling:DX:SingleSpeed \"COIL COOLING DX SINGLE SPEED 24 7KBTU/HR 10.9EER\" - Full load outlet air dry-bulb temperature < 2C. This indicates the possibility of coil frost/freeze. Outlet temperature = 1.92 C.\n   **   ~~~   **  ...Occurrence info = RUN PERIOD 1, 02/25 13:30 - 13:45\n   **   ~~~   ** ... Possible reasons for low outlet air dry-bulb temperatures are: This DX coil\n   **   ~~~   **    1) may have a low inlet air dry-bulb temperature. Inlet air temperature = 15.362 C.\n   **   ~~~   **    2) may have a low air flow rate per watt of cooling capacity. Check inputs.\n   **   ~~~   **    3) is used as part of a HX assisted cooling coil which uses a high sensible effectiveness. Check inputs.\n   ** Warning ** CalcDoe2DXCoil: Coil:Cooling:DX:SingleSpeed \"COIL COOLING DX SINGLE SPEED 20 9KBTU/HR 10.5EER\" - Full load outlet air dry-bulb temperature < 2C. This indicates the possibility of coil frost/freeze. Outlet temperature = 1.96 C.\n   **   ~~~   **  ...Occurrence info = RUN PERIOD 1, 02/25 15:15 - 15:30\n   **   ~~~   ** ... Possible reasons for low outlet air dry-bulb temperatures are: This DX coil\n   **   ~~~   **    1) may have a low inlet air dry-bulb temperature. Inlet air temperature = 15.365 C.\n   **   ~~~   **    2) may have a low air flow rate per watt of cooling capacity. Check inputs.\n   **   ~~~   **    3) is used as part of a HX assisted cooling coil which uses a high sensible effectiveness. Check inputs.\n   ** Warning ** CalcDoe2DXCoil: Coil:Cooling:DX:SingleSpeed \"COIL COOLING DX SINGLE SPEED 5 10KBTU/HR 10.4EER\" - Air-cooled condenser inlet dry-bulb temperature below 0 C. Outdoor dry-bulb temperature = -16.05\n   **   ~~~   **  ... Occurrence info = RUN PERIOD 1, 03/04 15:30 - 15:38\n   **   ~~~   ** ... Operation at low ambient temperatures may require special performance curves.\n   ** Warning ** CalcDoe2DXCoil: Coil:Cooling:DX:SingleSpeed \"COIL COOLING DX SINGLE SPEED 11 11KBTU/HR 10.2EER\" - Air-cooled condenser inlet dry-bulb temperature below 0 C. Outdoor dry-bulb temperature = -16.05\n   **   ~~~   **  ... Occurrence info = RUN PERIOD 1, 03/04 15:38 - 15:45\n   **   ~~~   ** ... Operation at low ambient temperatures may require special performance curves.\n   ** Warning ** CalcDoe2DXCoil: Coil:Cooling:DX:SingleSpeed \"COIL COOLING DX SINGLE SPEED 23 10KBTU/HR 10.3EER\" - Air-cooled condenser inlet dry-bulb temperature below 0 C. Outdoor dry-bulb temperature = -3.95\n   **   ~~~   **  ... Occurrence info = RUN PERIOD 1, 03/19 11:38 - 11:45\n   **   ~~~   ** ... Operation at low ambient temperatures may require special performance curves.\n   ** Warning ** CalcDoe2DXCoil: Coil:Cooling:DX:SingleSpeed \"COIL COOLING DX SINGLE SPEED 15 11KBTU/HR 10.2EER\" - Air-cooled condenser inlet dry-bulb temperature below 0 C. Outdoor dry-bulb temperature = -3.25\n   **   ~~~   **  ... Occurrence info = RUN PERIOD 1, 03/19 12:00 - 12:15\n   **   ~~~   ** ... Operation at low ambient temperatures may require special performance curves.\n   ** Warning ** CalcDoe2DXCoil: Coil:Cooling:DX:SingleSpeed \"COIL COOLING DX SINGLE SPEED 28 18KBTU/HR 14.0SEER\" - Air-cooled condenser inlet dry-bulb temperature below 0 C. Outdoor dry-bulb temperature = -2.55\n   **   ~~~   **  ... Occurrence info = RUN PERIOD 1, 03/19 12:30 - 12:45\n   **   ~~~   ** ... Operation at low ambient temperatures may require special performance curves.\n   ** Warning ** CalcDoe2DXCoil: Coil:Cooling:DX:SingleSpeed \"COIL COOLING DX SINGLE SPEED 28 18KBTU/HR 14.0SEER\" - Full load outlet air dry-bulb temperature < 2C. This indicates the possibility of coil frost/freeze. Outlet temperature = -1.37 C.\n   **   ~~~   **  ...Occurrence info = RUN PERIOD 1, 03/19 12:30 - 12:45\n   **   ~~~   ** ... Possible reasons for low outlet air dry-bulb temperatures are: This DX coil\n   **   ~~~   **    1) may have a low inlet air dry-bulb temperature. Inlet air temperature = 12.045 C.\n   **   ~~~   **    2) may have a low air flow rate per watt of cooling capacity. Check inputs.\n   **   ~~~   **    3) is used as part of a HX assisted cooling coil which uses a high sensible effectiveness. Check inputs.\n   ** Warning ** CalcDoe2DXCoil: Coil:Cooling:DX:SingleSpeed \"COIL COOLING DX SINGLE SPEED 2 10KBTU/HR 10.3EER\" - Air-cooled condenser inlet dry-bulb temperature below 0 C. Outdoor dry-bulb temperature = -1.65\n   **   ~~~   **  ... Occurrence info = RUN PERIOD 1, 03/19 13:15 - 13:30\n   **   ~~~   ** ... Operation at low ambient temperatures may require special performance curves.\n   ** Warning ** CalcDoe2DXCoil: Coil:Cooling:DX:SingleSpeed \"COIL COOLING DX SINGLE SPEED 4 5KBTU/HR 11.0EER\" - Air-cooled condenser inlet dry-bulb temperature below 0 C. Outdoor dry-bulb temperature = -7.35\n   **   ~~~   **  ... Occurrence info = RUN PERIOD 1, 03/19 19:09 - 19:11\n   **   ~~~   ** ... Operation at low ambient temperatures may require special performance curves.\n   ** Warning ** CalcDoe2DXCoil: Coil:Cooling:DX:SingleSpeed \"COIL COOLING DX SINGLE SPEED 4 5KBTU/HR 11.0EER\" - Full load outlet air dry-bulb temperature < 2C. This indicates the possibility of coil frost/freeze. Outlet temperature = 0.12 C.\n   **   ~~~   **  ...Occurrence info = RUN PERIOD 1, 03/19 19:09 - 19:11\n   **   ~~~   ** ... Possible reasons for low outlet air dry-bulb temperatures are: This DX coil\n   **   ~~~   **    1) may have a low inlet air dry-bulb temperature. Inlet air temperature = 13.501 C.\n   **   ~~~   **    2) may have a low air flow rate per watt of cooling capacity. Check inputs.\n   **   ~~~   **    3) is used as part of a HX assisted cooling coil which uses a high sensible effectiveness. Check inputs.\n   ** Warning ** CalcDoe2DXCoil: Coil:Cooling:DX:SingleSpeed \"COIL COOLING DX SINGLE SPEED 3 5KBTU/HR 11.0EER\" - Air-cooled condenser inlet dry-bulb temperature below 0 C. Outdoor dry-bulb temperature = -8.05\n   **   ~~~   **  ... Occurrence info = RUN PERIOD 1, 03/19 19:35 - 19:40\n   **   ~~~   ** ... Operation at low ambient temperatures may require special performance curves.\n   ** Warning ** CalcDoe2DXCoil: Coil:Cooling:DX:SingleSpeed \"COIL COOLING DX SINGLE SPEED 3 5KBTU/HR 11.0EER\" - Full load outlet air dry-bulb temperature < 2C. This indicates the possibility of coil frost/freeze. Outlet temperature = -0.16 C.\n   **   ~~~   **  ...Occurrence info = RUN PERIOD 1, 03/19 19:35 - 19:40\n   **   ~~~   ** ... Possible reasons for low outlet air dry-bulb temperatures are: This DX coil\n   **   ~~~   **    1) may have a low inlet air dry-bulb temperature. Inlet air temperature = 13.220 C.\n   **   ~~~   **    2) may have a low air flow rate per watt of cooling capacity. Check inputs.\n   **   ~~~   **    3) is used as part of a HX assisted cooling coil which uses a high sensible effectiveness. Check inputs.\n   ** Warning ** CalcDoe2DXCoil: Coil:Cooling:DX:SingleSpeed \"COIL COOLING DX SINGLE SPEED 22 5KBTU/HR 11.0EER\" - Air-cooled condenser inlet dry-bulb temperature below 0 C. Outdoor dry-bulb temperature = -9.70\n   **   ~~~   **  ... Occurrence info = RUN PERIOD 1, 03/19 20:45 - 21:00\n   **   ~~~   ** ... Operation at low ambient temperatures may require special performance curves.\n   ** Warning ** CalcDoe2DXCoil: Coil:Cooling:DX:SingleSpeed \"COIL COOLING DX SINGLE SPEED 22 5KBTU/HR 11.0EER\" - Full load outlet air dry-bulb temperature < 2C. This indicates the possibility of coil frost/freeze. Outlet temperature = -1.92 C.\n   **   ~~~   **  ...Occurrence info = RUN PERIOD 1, 03/19 20:45 - 21:00\n   **   ~~~   ** ... Possible reasons for low outlet air dry-bulb temperatures are: This DX coil\n   **   ~~~   **    1) may have a low inlet air dry-bulb temperature. Inlet air temperature = 11.471 C.\n   **   ~~~   **    2) may have a low air flow rate per watt of cooling capacity. Check inputs.\n   **   ~~~   **    3) is used as part of a HX assisted cooling coil which uses a high sensible effectiveness. Check inputs.\n   ** Warning ** CalcDoe2DXCoil: Coil:Cooling:DX:SingleSpeed \"COIL COOLING DX SINGLE SPEED 14 11KBTU/HR 10.2EER\" - Air-cooled condenser inlet dry-bulb temperature below 0 C. Outdoor dry-bulb temperature = -7.45\n   **   ~~~   **  ... Occurrence info = RUN PERIOD 1, 03/20 09:15 - 09:30\n   **   ~~~   ** ... Operation at low ambient temperatures may require special performance curves.\n   ** Warning ** CalcDoe2DXCoil: Coil:Cooling:DX:SingleSpeed \"COIL COOLING DX SINGLE SPEED 21 5KBTU/HR 11.0EER\" - Full load outlet air dry-bulb temperature < 2C. This indicates the possibility of coil frost/freeze. Outlet temperature = 1.99 C.\n   **   ~~~   **  ...Occurrence info = RUN PERIOD 1, 03/20 14:45 - 15:00\n   **   ~~~   ** ... Possible reasons for low outlet air dry-bulb temperatures are: This DX coil\n   **   ~~~   **    1) may have a low inlet air dry-bulb temperature. Inlet air temperature = 15.383 C.\n   **   ~~~   **    2) may have a low air flow rate per watt of cooling capacity. Check inputs.\n   **   ~~~   **    3) is used as part of a HX assisted cooling coil which uses a high sensible effectiveness. Check inputs.\n   ** Warning ** CalcDoe2DXCoil: Coil:Cooling:DX:SingleSpeed \"COIL COOLING DX SINGLE SPEED 21 5KBTU/HR 11.0EER\" - Air-cooled condenser inlet dry-bulb temperature below 0 C. Outdoor dry-bulb temperature = -0.23\n   **   ~~~   **  ... Occurrence info = RUN PERIOD 1, 03/20 15:30 - 15:45\n   **   ~~~   ** ... Operation at low ambient temperatures may require special performance curves.\n   ** Warning ** CalcDoe2DXCoil: Coil:Cooling:DX:SingleSpeed \"COIL COOLING DX SINGLE SPEED 12 9KBTU/HR 10.6EER\" - Air-cooled condenser inlet dry-bulb temperature below 0 C. Outdoor dry-bulb temperature = -0.23\n   **   ~~~   **  ... Occurrence info = RUN PERIOD 1, 03/20 15:30 - 15:45\n   **   ~~~   ** ... Operation at low ambient temperatures may require special performance curves.\n   ** Warning ** CalcDoe2DXCoil: Coil:Cooling:DX:SingleSpeed \"COIL COOLING DX SINGLE SPEED 13 9KBTU/HR 10.6EER\" - Air-cooled condenser inlet dry-bulb temperature below 0 C. Outdoor dry-bulb temperature = -0.23\n   **   ~~~   **  ... Occurrence info = RUN PERIOD 1, 03/20 15:30 - 15:45\n   **   ~~~   ** ... Operation at low ambient temperatures may require special performance curves.\n   ************* Simulation Error Summary *************\n   ************* There are 9 unused schedules in input.\n   ************* There are 9 unused week schedules in input.\n   ************* There are 17 unused day schedules in input.\n   ************* Use Output:Diagnostics,DisplayUnusedSchedules; to see them.\n   *************\n   ************* ===== Recurring Error Summary =====\n   ************* The following recurring error messages occurred.\n   *************\n   *************  ** Warning ** CalcDoe2DXCoil: Coil:Cooling:DX:SingleSpeed=\"COIL COOLING DX SINGLE SPEED 25 10KBTU/HR 10.4EER\" - Low condenser dry-bulb temperature error continues...\n   *************  **   ~~~   **   This error occurred 4422 total times;\n   *************  **   ~~~   **   during Warmup 0 times;\n   *************  **   ~~~   **   during Sizing 0 times.\n   *************  **   ~~~   **   Max=-2.775558E-017 [C]  Min=-33.7 [C]\n   *************\n   *************  ** Warning ** CalcDoe2DXCoil: Coil:Cooling:DX:SingleSpeed=\"COIL COOLING DX SINGLE SPEED 26 10KBTU/HR 10.4EER\" - Low condenser dry-bulb temperature error continues...\n   *************  **   ~~~   **   This error occurred 4142 total times;\n   *************  **   ~~~   **   during Warmup 0 times;\n   *************  **   ~~~   **   during Sizing 0 times.\n   *************  **   ~~~   **   Max=-2.500000E-002 [C]  Min=-33.7 [C]\n   *************\n   *************  ** Warning ** CalcDoe2DXCoil: Coil:Cooling:DX:SingleSpeed=\"COIL COOLING DX SINGLE SPEED 27 11KBTU/HR 10.1EER\" - Low condenser dry-bulb temperature error continues...\n   *************  **   ~~~   **   This error occurred 3384 total times;\n   *************  **   ~~~   **   during Warmup 0 times;\n   *************  **   ~~~   **   during Sizing 0 times.\n   *************  **   ~~~   **   Max=-2.500000E-002 [C]  Min=-33.025 [C]\n   *************\n   *************  ** Warning ** CalcDoe2DXCoil: Coil:Cooling:DX:SingleSpeed=\"COIL COOLING DX SINGLE SPEED 7 10KBTU/HR 10.4EER\" - Low condenser dry-bulb temperature error continues...\n   *************  **   ~~~   **   This error occurred 5576 total times;\n   *************  **   ~~~   **   during Warmup 0 times;\n   *************  **   ~~~   **   during Sizing 0 times.\n   *************  **   ~~~   **   Max=-2.775558E-017 [C]  Min=-37.7 [C]\n   *************\n   *************  ** Warning ** CalcDoe2DXCoil: Coil:Cooling:DX:SingleSpeed=\"COIL COOLING DX SINGLE SPEED 9 10KBTU/HR 10.4EER\" - Low condenser dry-bulb temperature error continues...\n   *************  **   ~~~   **   This error occurred 5592 total times;\n   *************  **   ~~~   **   during Warmup 0 times;\n   *************  **   ~~~   **   during Sizing 0 times.\n   *************  **   ~~~   **   Max=-2.775558E-017 [C]  Min=-37.7 [C]\n   *************\n   *************  ** Warning ** CalcDoe2DXCoil: Coil:Cooling:DX:SingleSpeed=\"COIL COOLING DX SINGLE SPEED 8 12KBTU/HR 10.0EER\" - Low condenser dry-bulb temperature error continues...\n   *************  **   ~~~   **   This error occurred 4088 total times;\n   *************  **   ~~~   **   during Warmup 0 times;\n   *************  **   ~~~   **   during Sizing 0 times.\n   *************  **   ~~~   **   Max=-2.775558E-017 [C]  Min=-33. [C]\n   *************\n   *************  ** Warning ** CalcDoe2DXCoil: Coil:Cooling:DX:SingleSpeed=\"COIL COOLING DX SINGLE SPEED 10 12KBTU/HR 9.9EER\" - Low condenser dry-bulb temperature error continues...\n   *************  **   ~~~   **   This error occurred 3738 total times;\n   *************  **   ~~~   **   during Warmup 0 times;\n   *************  **   ~~~   **   during Sizing 0 times.\n   *************  **   ~~~   **   Max=-2.500000E-002 [C]  Min=-31.95 [C]\n   *************\n   *************  ** Warning ** CalcDoe2DXCoil: Coil:Cooling:DX:SingleSpeed=\"COIL COOLING DX SINGLE SPEED 25 10KBTU/HR 10.4EER\" - Full load outlet temperature indicates a possibility of frost/freeze error continues. Outlet air temperature statistics follow:\n   *************  **   ~~~   **   This error occurred 775 total times;\n   *************  **   ~~~   **   during Warmup 0 times;\n   *************  **   ~~~   **   during Sizing 0 times.\n   *************  **   ~~~   **   Max=1.998872  Min=-6.431808E-002\n   *************\n   *************  ** Warning ** CalcDoe2DXCoil: Coil:Cooling:DX:SingleSpeed=\"COIL COOLING DX SINGLE SPEED 16 12KBTU/HR 9.9EER\" - Low condenser dry-bulb temperature error continues...\n   *************  **   ~~~   **   This error occurred 1543 total times;\n   *************  **   ~~~   **   during Warmup 0 times;\n   *************  **   ~~~   **   during Sizing 0 times.\n   *************  **   ~~~   **   Max=-2.500000E-002 [C]  Min=-31.4 [C]\n   *************\n   *************  ** Warning ** CalcDoe2DXCoil: Coil:Cooling:DX:SingleSpeed=\"COIL COOLING DX SINGLE SPEED 19 12KBTU/HR 9.9EER\" - Low condenser dry-bulb temperature error continues...\n   *************  **   ~~~   **   This error occurred 1562 total times;\n   *************  **   ~~~   **   during Warmup 0 times;\n   *************  **   ~~~   **   during Sizing 0 times.\n   *************  **   ~~~   **   Max=-2.500000E-002 [C]  Min=-31.65 [C]\n   *************\n   *************  ** Warning ** CalcDoe2DXCoil: Coil:Cooling:DX:SingleSpeed=\"COIL COOLING DX SINGLE SPEED 18 14KBTU/HR 9.6EER\" - Low condenser dry-bulb temperature error continues...\n   *************  **   ~~~   **   This error occurred 1769 total times;\n   *************  **   ~~~   **   during Warmup 0 times;\n   *************  **   ~~~   **   during Sizing 0 times.\n   *************  **   ~~~   **   Max=-2.500000E-002 [C]  Min=-32.525 [C]\n   *************\n   *************  ** Warning ** CalcDoe2DXCoil: Coil:Cooling:DX:SingleSpeed=\"COIL COOLING DX SINGLE SPEED 17 14KBTU/HR 9.6EER\" - Low condenser dry-bulb temperature error continues...\n   *************  **   ~~~   **   This error occurred 1546 total times;\n   *************  **   ~~~   **   during Warmup 0 times;\n   *************  **   ~~~   **   during Sizing 0 times.\n   *************  **   ~~~   **   Max=-2.500000E-002 [C]  Min=-30.9 [C]\n   *************\n   *************  ** Warning ** CalcDoe2DXCoil: Coil:Cooling:DX:SingleSpeed=\"COIL COOLING DX SINGLE SPEED 26 10KBTU/HR 10.4EER\" - Full load outlet temperature indicates a possibility of frost/freeze error continues. Outlet air temperature statistics follow:\n   *************  **   ~~~   **   This error occurred 593 total times;\n   *************  **   ~~~   **   during Warmup 0 times;\n   *************  **   ~~~   **   during Sizing 0 times.\n   *************  **   ~~~   **   Max=1.999627  Min=0.348193\n   *************\n   *************  ** Warning ** CalcDoe2DXCoil: Coil:Cooling:DX:SingleSpeed=\"COIL COOLING DX SINGLE SPEED 7 10KBTU/HR 10.4EER\" - Full load outlet temperature indicates a possibility of frost/freeze error continues. Outlet air temperature statistics follow:\n   *************  **   ~~~   **   This error occurred 670 total times;\n   *************  **   ~~~   **   during Warmup 0 times;\n   *************  **   ~~~   **   during Sizing 0 times.\n   *************  **   ~~~   **   Max=1.999926  Min=-0.21\n   *************\n   *************  ** Warning ** CalcDoe2DXCoil: Coil:Cooling:DX:SingleSpeed=\"COIL COOLING DX SINGLE SPEED 9 10KBTU/HR 10.4EER\" - Full load outlet temperature indicates a possibility of frost/freeze error continues. Outlet air temperature statistics follow:\n   *************  **   ~~~   **   This error occurred 550 total times;\n   *************  **   ~~~   **   during Warmup 0 times;\n   *************  **   ~~~   **   during Sizing 0 times.\n   *************  **   ~~~   **   Max=1.996109  Min=-8.612900E-002\n   *************\n   *************  ** Warning ** CalcDoe2DXCoil: Coil:Cooling:DX:SingleSpeed=\"COIL COOLING DX SINGLE SPEED 27 11KBTU/HR 10.1EER\" - Full load outlet temperature indicates a possibility of frost/freeze error continues. Outlet air temperature statistics follow:\n   *************  **   ~~~   **   This error occurred 6 total times;\n   *************  **   ~~~   **   during Warmup 0 times;\n   *************  **   ~~~   **   during Sizing 0 times.\n   *************  **   ~~~   **   Max=1.94277  Min=1.651039\n   *************\n   *************  ** Warning ** CalcDoe2DXCoil: Coil:Cooling:DX:SingleSpeed=\"COIL COOLING DX SINGLE SPEED 24 7KBTU/HR 10.9EER\" - Low condenser dry-bulb temperature error continues...\n   *************  **   ~~~   **   This error occurred 1243 total times;\n   *************  **   ~~~   **   during Warmup 0 times;\n   *************  **   ~~~   **   during Sizing 0 times.\n   *************  **   ~~~   **   Max=-2.500000E-002 [C]  Min=-30.05 [C]\n   *************\n   *************  ** Warning ** CalcDoe2DXCoil: Coil:Cooling:DX:SingleSpeed=\"COIL COOLING DX SINGLE SPEED 6 7KBTU/HR 11.0EER\" - Low condenser dry-bulb temperature error continues...\n   *************  **   ~~~   **   This error occurred 2359 total times;\n   *************  **   ~~~   **   during Warmup 0 times;\n   *************  **   ~~~   **   during Sizing 0 times.\n   *************  **   ~~~   **   Max=-2.775558E-017 [C]  Min=-29.425 [C]\n   *************\n   *************  ** Warning ** CalcDoe2DXCoil: Coil:Cooling:DX:SingleSpeed=\"COIL COOLING DX SINGLE SPEED 20 9KBTU/HR 10.5EER\" - Low condenser dry-bulb temperature error continues...\n   *************  **   ~~~   **   This error occurred 610 total times;\n   *************  **   ~~~   **   during Warmup 0 times;\n   *************  **   ~~~   **   during Sizing 0 times.\n   *************  **   ~~~   **   Max=-5.000000E-002 [C]  Min=-23.15 [C]\n   *************\n   *************  ** Warning ** CalcDoe2DXCoil: Coil:Cooling:DX:SingleSpeed=\"COIL COOLING DX SINGLE SPEED 6 7KBTU/HR 11.0EER\" - Full load outlet temperature indicates a possibility of frost/freeze error continues. Outlet air temperature statistics follow:\n   *************  **   ~~~   **   This error occurred 149 total times;\n   *************  **   ~~~   **   during Warmup 0 times;\n   *************  **   ~~~   **   during Sizing 0 times.\n   *************  **   ~~~   **   Max=1.992955  Min=-0.551676\n   *************\n   *************  ** Warning ** CalcDoe2DXCoil: Coil:Cooling:DX:SingleSpeed=\"COIL COOLING DX SINGLE SPEED 8 12KBTU/HR 10.0EER\" - Full load outlet temperature indicates a possibility of frost/freeze error continues. Outlet air temperature statistics follow:\n   *************  **   ~~~   **   This error occurred 1 total times;\n   *************  **   ~~~   **   during Warmup 0 times;\n   *************  **   ~~~   **   during Sizing 0 times.\n   *************  **   ~~~   **   Max=1.800857  Min=1.800857\n   *************\n   *************  ** Warning ** CalcDoe2DXCoil: Coil:Cooling:DX:SingleSpeed=\"COIL COOLING DX SINGLE SPEED 24 7KBTU/HR 10.9EER\" - Full load outlet temperature indicates a possibility of frost/freeze error continues. Outlet air temperature statistics follow:\n   *************  **   ~~~   **   This error occurred 26 total times;\n   *************  **   ~~~   **   during Warmup 0 times;\n   *************  **   ~~~   **   during Sizing 0 times.\n   *************  **   ~~~   **   Max=1.970722  Min=0.517645\n   *************\n   *************  ** Warning ** CalcDoe2DXCoil: Coil:Cooling:DX:SingleSpeed=\"COIL COOLING DX SINGLE SPEED 20 9KBTU/HR 10.5EER\" - Full load outlet temperature indicates a possibility of frost/freeze error continues. Outlet air temperature statistics follow:\n   *************  **   ~~~   **   This error occurred 4 total times;\n   *************  **   ~~~   **   during Warmup 0 times;\n   *************  **   ~~~   **   during Sizing 0 times.\n   *************  **   ~~~   **   Max=1.998506  Min=1.863895\n   *************\n   *************  ** Warning ** CalcDoe2DXCoil: Coil:Cooling:DX:SingleSpeed=\"COIL COOLING DX SINGLE SPEED 5 10KBTU/HR 10.4EER\" - Low condenser dry-bulb temperature error continues...\n   *************  **   ~~~   **   This error occurred 913 total times;\n   *************  **   ~~~   **   during Warmup 0 times;\n   *************  **   ~~~   **   during Sizing 0 times.\n   *************  **  
[...]
TgvLDL2jTpKD88AvaNCkoP/yKNk1LsnW7stkUbZqWZKt3Zbkp2jQtydbwyn5TtGnaXWnreGXFKdo0LcnW8cqWQ5uGNg1t2hMh2rTboE1Dm4Y2rTJo09CmNb0rtGmz5ze8Hm3a46BNm2aFb2ltzC4ADjjggAMOOOCAAw444IAzPM7GpAPQQAMNNNBAAw000EADDTTj0LyN7AAccMABBxxwwAEHHHDAAaf/eWjT7oM2bdKmxRjatP0A2rT9y7Rpu49isaYpOXtTzsGUczTlnEw5Z1POxZRzNeXMfnQvBbkaHa5Kh6vT4Sp1uFodrlqHq9fhKna4ml1czS62u9rV7OJqdmlq9nI92iyq344mxKSfUL8bTYhJz32/GU2ISc98vxdNiEnPu2BFU3JMPc7XmKBEU3JMVc53mOBDU3JMbc4XmCBDU+5BU5/z7SWY0JQcU5/z1dWvQZvFCBY0JSf9eAQHmpKTHnfBgKbkpMdd8J8pOelxV+xnUpCr0fkGU9RnUpCr1PkSU7xnUpCr1/keU6Rn0s3oana+yhTjmRTkana+zdCdoTtDd/ZEiO7sNujO0J2hO6sMujN0Z03vCt3Z7PkNr0d39jjozqZZ4dtVG7MCgAMOOOCAAw444IADDjjgDI+zMVkANNBAAw000EADDTTQQAPNODRvIykABxxwwAEHHHDAAQcccMDpfx66s/ugO5t0Z2UM3dlhAN3Z4YW6s93R5DsTgvauoIMr6OgKOrmCzq6giyvo6gr69HN7JcnW7bCVO2ztDlu9w9bvsBU8bA0PW8XD1vFi63jx3d+2jhdbx0tbx1s0aI9ZigetPyf/lBQTWn9OfgsoLrT+nPwGUGxo/Tn56Zd8aEKQq9GV9SYp0YQgV6kru02yoglBrl5XFpskRhNuRlezK1tNcqMJQa5mV1aaokd7zJH8aEJQ/hFJhjQhKD/8kiNNCMoPv2RJE4Lyw6950pQkW7crm01TpSlJtnpXlptmS1OSbA2v7DdNmKbclbaOV1ac5kxTkmwdr2w5tGlo09CmPRGiTbsN2jS0aWjTKoM2DW1a07tCmzZ7fsPr0aY9Dtq0aVb4ltbG7ALggAMOOOCAAw444IADDjjD42xMOgANNNBAAw000EADDTTQQDMOzdvIDsABBxxwwAEHHHDAAQcccPqfhzbtPmjTJm3afgxt2nEAbdrxZdq009cfhfYqblxBe1fQwRV0dAWdXEFnV9DFFXR1Bc1+fa8l2bodtnKHrd1hq3fY+h22goet4WGreNg6XmwdL77729bxYut4aev4cm3aPKtfm6bk5J9SvzZNyclvgX5tmpKT3wD92jQlJz/9gjZNCnI1urLeBG2aFOQqdWW3Cdo0KcjV68piE7Rp0s3oanZlqwnaNCnI1ezKSuvXps1zBG2aFJR/RII2TQrKD7+gTZOC8sMvaNOkoPzwK9o0LcnW7cpmU7RpWpKt3pXlpmjTtCRbwyv7TdGmaXelreOVFado07QkW8crWw5tGto0tGlPhGjTboM2DW0a2rTKoE1Dm9b0rtCmzZ7f8Hq0aY+DNm2aFb6ltTG7ADjggAMOOOCAAw444IADzvA4G5MOQAMNNNBAAw000EADDTTQjEPzNrIDcMABBxxwwAEHHHDAAQec/uehTbsP2rRJm3YYQ5t2GkCbdnqZNm33USzWNCVnb8o5mHKOppyTKedsyrmYcq6mnNmP7qUgV6PDVelwdTpcpQ5Xq8NV63D1OlzFDlezi6vZxXZXu5pdXM0uTc1erkebRfXb0YSY9BPqd6MJMem57zejCTHpme/3ogkx6XkXrGhKjqnH+RoTlGhKjqnK+Q4TfGhKjqnN+QITZGjKPWjqc769BBOakmPqc766+jVosxjBgqbkpB+P4EBTctLjLhjQlJz0uAv+MyUnPe6K/UwKcjU632CK+kwKcpU6X2KK90wKcvU632OK9Ey6GV3NzleZYjyTglzNzrcZujN0Z+jOngjRnd0G3Rm6M3RnlUF3hu6s6V2hO5s9v+H16M4eB93ZNCt8u2pjVgBwwAEHHHDAAQcccMABB5zhcTYmC4AGGmiggQYaaKCBBhpooBmH5m0kBeCAAw444IADDjjggAMOOP3PQ3d2H3Rnk+7sOIbu7DyA7uz8Qt3Z7mjynQlBe1fQwRV0dAWdXEFnV9DFFXR1BX36ub2SZOt22ModtnaHrd5h63fYCh62hoet4mHreLF1vPjub1vHi63jpa3jLRq0xyzFg9afk39KigmtPye/BRQXWn9OfgMoNrT+nPz0Sz40IcjV6Mp6k5RoQpCr1JXdJlnRhCBXryuLTRKjCTejq9mVrSa50YQgV7MrK03Roz3mSH40ISj/iCRDmhCUH37JkSYE5YdfsqQJQfnh1zxpSpKt25XNpqnSlCRbvSvLTbOlKUm2hlf2myZMU+5KW8crK05zpilJto5XthzaNLRpaNOeCNGm3QZtGto0tGmVQZuGNq3pXaFNmz2/4fVo0x4Hbdo0K3xLa2N2AXDAAQcccMABBxxwwAEHnOFxNiYdgAYaaKCBBhpooIEGGmigGYfmbWQH4IADDjjggAMOOOCAAw44/c9Dm3YftGmTNu00hjbtMoA27fIybdrp649CexU3rqC9K+jgCjq6gk6uoLMr6OIKurqCZr++15Js3Q5bucPW7rDVO2z9DlvBw9bwsFU8bB0vto4X3/1t63ixdby0dXy5Nm2e1a9NU3LyT6lfm6bk5LdAvzZNyclvgH5tmpKTn35BmyYFuRpdWW+CNk0KcpW6stsEbZoU5Op1ZbEJ2jTpZnQ1u7LVBG2aFORqdmWl9WvT5jmCNk0Kyj8iQZsmBeWHX9CmSUH54Re0aVJQfvgVbZqWZOt2ZbMp2jQtyVbvynJTtGlakq3hlf2maNO0u9LW8cqKU7RpWpKt45UthzYNbRratCdCtGm3QZuGNg1tWmXQpqFNa3pXaNNmz294Pdq0x0GbNs0K39LamF0AHHDAAQcccMABBxxwwAFneJyNSQeggQYaaKCBBhpooIEGGmjGoXkb2QE44IADDjjggAMOOOCAA07/89Cm3Qdt2qRNO4+hTbsOoE27vkybtvsoFmuakrM35RxMOUdTzsmUczblXEw5V1PO7Ef3UpCr0eGqdLg6Ha5Sh6vV4ap1uHodrmKHq9nF1exiu6tdzS6uZpemZi/Xo82i+u1oQkz6CfW70YSY9Nz3m9GEmPTM93vRhJj0vAtWNCXH1ON8jQlKNCXHVOV8hwk+NCXH1OZ8gQkyNOUeNPU5316CCU3JMfU5X139GrRZjGBBU3LSj0dwoCk56XEXDGhKTnrcBf+ZkpMed8V+JgW5Gp1vMEV9JgW5Sp0vMcV7JgW5ep3vMUV6Jt2Mrmbnq0wxnklBrmbn2wzdGbozdGdPhOjOboPuDN0ZurPKoDtDd9b0rtCdzZ7f8Hp0Z4+D7myaFb5dtTErADjggAMOOOCAAw444IADzvA4G5MFQAMNNNBAAw000EADDTTQjEPzNpICcMABBxxwwAEHHHDAAQec/uehO7sPurNJd3YZQnd23m1fd/YL4+t0Z7ujyXcmBO1dQQdX0NEVdHIFnV1BF1fQ1RX06ef2SpKt22Erd9jaHbZ6h63fYSt42BoetoqHrePF1vHiu79tHS+2jpe2jrdo0B6zFA9af07+KSkmtP6c/BZQXGj9OfkNoNjQ+nPy0y/50IQgV6Mr601SoglBrlJXdptkRROCXL2uLDZJjCbcjK5mV7aa5EYTglzNrqw0RY/2mCP50YSg/COSDGlCUH74JUeaEJQffsmSJgTlh1/zpClJtm5XNpumSlOSbPWuLDfNlqYk2Rpe2W+aME25K20dr6w4zZmmJNk6XtlyaNPQpqFNeyJEm3YbtGlo09CmVQZtGtq0pneFNm32/IbXo017HLRp06zwLa2N2QXAAQcccMABBxxwwAEHHHCGx9mYdAAaaKCBBhpooIEGGmiggWYcmreRHYADDjjggAMOOOCAAw444PQ/D23afdCmTdq06xjatBhAmxYv06advv4otFdx4wrau4IOrqCjK+jkCjq7gi6uoKsraPbrey3J1u2wlTts7Q5bvcPW77AVPGwND1vFw9bxYut48d3fto4XW8dLW8eXa9PmWf3aNCUn/5T6tWlKTn4L9GvTlJz8BujXpik5+ekXtGlSkKvRlfUmaNOkIFepK7tN0KZJQa5eVxaboE2TbkZXsytbTdCmSUGuZldWWr82bZ4jaNOkoPwjErRpUlB++AVtmhSUH35BmyYF5Ydf0aZpSbZuVzabok3Tkmz1riw3RZumJdkaXtlvijZNuyttHa+sOEWbpiXZOl7ZcmjT0KahTXsiRJt2G7RpaNPQplUGbRratKZ3hTZt9vyG16NNexy0adOs8C2tjdkFwAEHHHDAAQcccMABBxxwhsfZmHQAGmiggQYaaKCBBhpooIFmHJq3kR2AAw444IADDjjggAMOOOD0Pw9t2n3Qpn3Tph3HsKaVAaxpBWtaXxDWtO8HYU1blIQ1DWsa1jSsaVjTsKZhTcOahjXtV29GrGnfD8Ka9t0grGlY07CmYU2zJWFNW5aENS2HwZqGNe3zYE37ho817fNgTVsyWNPaXo81DWta07vCmjZ7fsPrsaY9Dta0aVb4ktbG5ALggAMOOOCAAw444IADDjjD42zMOQANNNBAAw000EADDTTQQDMOzdu4DsABBxxwwAEHHHDAAQcccPqfhzXtPljTJmvabgxt2n4Abdr+Zdq03UexWNOUnL0p52DKOZpyTqacsynnYsq5mnJmP7qXglyNDlelw9XpcJU6XK0OV63D1etwFTtczS6uZhfbXe1qdnE1uzQ1e7kebRbVb0cTYtJPqN+NJsSk577fjCbEpGe+34smxKTnXbCiKTmmHudrTFCiKTmmKuc7TPChKTmmNucLTJChKfegqc/59hJMaEqOqc/56urXoM1iBAuakpN+PIIDTclJj7tgQFNy0uMu+M+UnPS4K/YzKcjV6HyDKeozKchV6nyJKd4zKcjV63yPKdIz6WZ0NTtfZYrxTApyNTvfZujO0J2hO3siRHd2G3Rn6M7QnVUG3Rm6s6Z3he5s9vyG16M7exx0Z9Os8O2qjVkBwAEHHHDAAQcccMABBxxwhsfZmCwAGmiggQYaaKCBBhpooIFmHJq3kRSAAw444IADDjjggAMOOOD0Pw/d2X3QnU26sxhDd3YYQHd2eKHubHc0+c6EoL0r6OAKOrqCTq6gsyvo4gq6uoI+/dxeSbJ1O2zlDlu7w1bvsPU7bAUPW8PDVvGwdbzYOl5897et48XW8dLW8RYN2mOW4kHrz8k/JcWE1p+T3wKKC60/J78BFBtaf05++iUfmhDkanRlvUlKNCHIVerKbpOsaEKQq9eVxSaJ0YSb0dXsylaT3GhCkKvZlZWm6NEecyQ/mhCUf0SSIU0Iyg+/5EgTgvLDL1nShKD88GueNCXJ1u3KZtNUaUqSrd6V5abZ0pQkW8Mr+00Tpil3pa3jlRWnOdOUJFvHK1sObRraNLRpT4Ro026DNg1tGtq0yqBNQ5vW9K7Qps2e3/B6tGmPgzZtmhW+pbUxuwA44IADDjjggAMOOOCAA87wOBuTDkADDTTQQAMNNNBAAw000IxD8zayA3DAAQcccMABBxxwwAEHnP7noU27D9q0SZtWxtCmHQfQph1fpk07ff1RaK/ixhW0dwUdXEFHV9DJFXR2BV1cQVdX0OzX91qSrdthK3fY2h22eoet32EreNgaHraKh63jxdbx4ru/bR0vto6Xto4v16bNs/q1aUpO/in1a9OUnPwW6NemKTn5DdCvTVNy8tMvaNOkIFejK+tN0KZJQa5SV3aboE2Tgly9riw2QZsm3YyuZle2mqBNk4Jcza6stH5t2jxH0KZJQflHJGjTpKD88AvaNCkoP/yCNk0Kyg+/ok3Tkmzdrmw2RZumJdnqXVluijZNS7I1vLLfFG2adlfaOl5ZcYo2TUuydbyy5dCmoU1Dm/ZEiDbtNmjT0KahTasM2jS0aU3vCm3a7PkNr0eb9jho06ZZ4VtaG7MLgAMOOOCAAw444IADDjjgDI+zMekANNBAAw000EADDTTQQAPNODRvIzsABxxwwAEHHHDAAQcccMDpfx7atPugTZu0afsxtGmnAbRpp5dp03YfxWJNU3L2ppyDKedoyjmZcs6mnIsp52rKmf3oXgpyNTpclQ5Xp8NV6nC1Oly1Dlevw1XscDW7uJpdbHe1q9nF1ezS1OzlerRZVL8dTYhJP6F+N5oQk577fjOaEJOe+X4vmhCTnnfBiqbkmHqcrzFBiabkmKqc7zDBh6bkmNqcLzBBhqbcg6Y+59tLMKEpOaY+56urX4M2ixEsaEpO+vEIDjQlJz3uggFNyUmPu+A/U3LS467Yz6QgV6PzDaaoz6QgV6nzJaZ4z6QgV6/zPaZIz6Sb0dXsfJUpxjMpyNXsfJuhO0N3hu7siRDd2W3QnaE7Q3dWGXRn6M6a3hW6s9nzG16P7uxx0J1Ns8K3qzZmBQAHHHDAAQcccMABBxxwwBkeZ2OyAGiggQYaaKCBBhpooIEGmnFo3kZSAA444IADDjjggAMOOOCA0/88dGf3QXc26c4OY+jOzgPozs4v1J3tjibfmRC0dwUdXEFHV9DJFXR2BV1cQVdX0Kef2ytJtm6Hrdxha3fY6h22foet4GFreNgqHraOF1vHi+/+tnW82Dpe2jreokF7zFI8aP05+aekmND6c/JbQHGh9efkN4BiQ+vPyU+/5EMTglyNrqw3SYkmBLlKXdltkhVNCHL1urLYJDGacDO6ml3ZapIbTQhyNbuy0hQ92mOO5EcTgvKPSDKkCUH54ZccaUJQfvglS5oQlB9+zZOmJNm6XdlsmipNSbLVu7LcNFuakmRreGW/acI05a60dbyy4jRnmpJk63hly6FNQ5uGNu2JEG3abdCmoU1Dm1YZtGlo05reFdq02fMbXo827XHQpk2zwre0NmYXAAcccMABBxxwwAEHHHDAGR5nY9IBaKCBBhpooIEGGmiggQaacWjeRnYADjjggAMOOOCAAw444IDT/zy0afdBmzZp045jaNMuA2jTLi/Tpp2+/ii0V3HjCtq7gg6uoKMr6OQKOruCLq6gqyto9ut7LcnW7bCVO2ztDlu9w9bvsBU8bA0PW8XD1vFi63jx3d+2jhdbx0tbx5dr0+ZZ/do0JSf/lPq1aUpOfgv0a9OUnPwG6NemKTn56Re0aVKQq9GV9SZo06QgV6kru03QpklBrl5XFpugTZNuRlezK1tN0KZJQa5mV1ZavzZtniNo06Sg/CMStGlSUH74BW2aFJQffkGbJgXlh1/RpmlJtm5XNpuiTdOSbPWuLDdFm6Yl2Rpe2W+KNk27K20dr6w4RZumJdk6XtlyaNPQpqFNeyJEm3YbtGlo09CmVQZtGtq0pneFNm32/IbXo017HLRp06zwLa2N2QXAAQcccMABBxxwwAEHHHCGx9mYdAAaaKCBBhpooIEGGmiggWYcmreRHYADDjjggAMOOOCAAw444PQ/D23afdCmTdq00xjatOsA2rTry7Rpu49isaYpOXtTzsGUczTlnEw5Z1POxZRzNeXMfnQvBbkaHa5Kh6vT4Sp1uFodrlqHq9fhKna4ml1czS62u9rV7OJqdmlq9nI92iyq344mxKSfUL8bTYhJz32/GU2ISc98vxdNiEnPu2BFU3JMPc7XmKBEU3JMVc53mOBDU3JMbc4XmCBDU+5BU5/z7SWY0JQcU5/z1dWvQZvFCBY0JSf9eAQHmpKTHnfBgKbkpMdd8J8pOelxV+xnUpCr0fkGU9RnUpCr1PkSU7xnUpCr1/keU6Rn0s3oana+yhTjmRTkana+zdCdoTtDd/ZEiO7sNujO0J2hO6sMujN0Z03vCt3Z7PkNr0d39jjozqZZ4dtVG7MCgAMOOOCAAw444IADDjjgDI+zMVkANNBAAw000EADDTTQQAPNODRvIykABxxwwAEHHHDAAQcccMDpfx66s/ugO5t0Z+chdGeX3fZ1Z78wvk53tjuafGdC0N4VdHAFHV1BJ1fQ2RV0cQVdXUGffm6vJNm6HbZyh63dYat32PodtoKHreFhq3jYOl5sHS+++9vW8WLreGnreIsG7TFL8aD15+SfkmJC68/JbwHFhdafk98Aig2tPyc//ZIPTQhyNbqy3iQlmhDkKnVlt0lWNCHI1evKYpPEaMLN6Gp2ZatJbjQhyNXsykpT9GiPOZIfTQjKPyLJkCYE5YdfcqQJQfnhlyxpQlB++DVPmpJk63Zls2mqNCXJVu/KctNsaUqSreGV/aYJ05S70tbxyorTnGlKkq3jlS2HNg1tGtq0J0K0abdBm4Y2DW1aZdCmoU1reldo02bPb3g92rTHQZs2zQrf0tqYXQAccMABBxxwwAEHHHDAAWd4nI1JB6CBBhpooIEGGmiggQYaaMaheRvZATjggAMOOOCAAw444IADTv/z0KbdB23apE27jKFNiwG0afEybdrp649CexU3rqC9K+jgCjq6gk6uoLMr6OIKurqCZr++15Js3Q5bucPW7rDVO2z9DlvBw9bwsFU8bB0vto4X3/1t63ixdby0dXy5Nm2e1a9NU3LyT6lfm6bk5LdAvzZNyclvgH5tmpKTn35BmyYFuRpdWW+CNk0KcpW6stsEbZoU5Op1ZbEJ2jTpZnQ1u7LVBG2aFORqdmWl9WvT5jmCNk0Kyj8iQZsmBeWHX9CmSUH54Re0aVJQfvgVbZqWZOt2ZbMp2jQtyVbvynJTtGlakq3hlf2maNO0u9LW8cqKU7RpWpKt45UthzYNbRratCdCtGm3QZuGNg1tWmXQpqFNa3pXaNNmz294Pdq0x0GbNs0K39LamF0AHHDAAQcccMABBxxwwAFneJyNSQeggQYaaKCBBhpooIEGGmjGoXkb2QE44IADDjjggAMOOOCAA07/89Cm3Qdt2qRNu46hTSsDaNPKy7Rpu49isaYpOXtTzsGUczTlnEw5Z1POxZRzNeXMfnQvBbkaHa5Kh6vT4Sp1uFodrlqHq9fhKna4ml1czS62u9rV7OJqdmlq9nI92iyq344mxKSfUL8bTYhJz32/GU2ISc98vxdNiEnPu2BFU3JMPc7XmKBEU3JMVc53mOBDU3JMbc4XmCBDU+5BU5/z7SWY0JQcU5/z1dWvQZvFCBY0JSf9eAQHmpKTHnfBgKbkpMdd8J8pOelxV+xnUpCr0fkGU9RnUpCr1PkSU7xnUpCr1/keU6Rn0s3oana+yhTjmRTkana+zdCdoTtDd/ZEiO7sNujO0J2hO6sMujN0Z03vCt3Z7PkNr0d39jjozqZZ4dtVG7MCgAMOOOCAAw444IADDjjgDI+zMVkANNBAAw000EADDTTQQAPNODRvIykABxxwwAEHHHDAAQcccMDpfx66s/ugO/umOzuNYTvbD2A722M7w3b2/R/ZYzvDdobtDNvZkiBsZ9jOsJ1hO8N2hu0M2xm2s6bFhe0M29miIGxn3w/Cdvb9IGxn3w/CdpbBYDvDdvZ5sJ19w8d29nmwnS0ZbGdtr8d2hu2s6V1hO5s9v+H12M4eB9vZNCt8uWpjUgBwwAEHHHDAAQcccMABB5zhcTbmCoAGGmiggQYaaKCBBhpooBmH5m0cBeCAAw444IADDjjggAMOOP3Pw3Z2H2xnk+1sN4bu7DCA7uzwQt3Z7mjynQlBe1fQwRV0dAWdXEFnV9DFFXR1BX36ub2SZOt22ModtnaHrd5h63fYCh62hoet4mHreLF1vPjub1vHi63jpa3jLRq0xyzFg9afk39KigmtPye/BRQXWn9OfgMoNrT+nPz0Sz40IcjV6Mp6k5RoQpCr1JXdJlnRhCBXryuLTRKjCTejq9mVrSa50YQgV7MrK03Roz3mSH40ISj/iCRDmhCUH37JkSYE5YdfsqQJQfnh1zxpSpKt25XNpqnSlCRbvSvLTbOlKUm2hlf2myZMU+5KW8crK05zpilJto5XthzaNLRpaNOeCNGm3QZtGto0tGmVQZuGNq3pXaFNmz2/4fVo0x4Hbdo0K3xLa2N2AXDAAQcccMABBxxwwAEHnOFxNiYdgAYaaKCBBhpooIEGGmigGYfmbWQH4IADDjjggAMOOOCAAw44/c9Dm3YftGmTNi3G0KYdB9CmHV+mTTt9/VFor+LGFbR3BR1cQUdX0MkVdHYFXVxBV1fQ7Nf3WpKt22Erd9jaHbZ6h63fYSt42BoetoqHrePF1vHiu79tHS+2jpe2ji/Xps2z+rVpSk7+KfVr05Sc/Bbo16YpOfkN0K9NU3Ly0y9o06QgV6Mr603QpklBrlJXdpugTZOCXL2uLDZBmybdjK5mV7aaoE2TglzNrqy0fm3aPEfQpklB+UckaNOkoPzwC9o0KSg//II2TQrKD7+iTdOSbN2ubDZFm6Yl2epdWW6KNk1LsjW8st8UbZp2V9o6XllxijZNS7J1vLLl0KahTUOb9kSINu02aNPQpqFNqwzaNLRpTe8Kbdrs+Q2vR5v2OGjTplnhW1obswuAAw444IADDjjggAMOOOAMj7Mx6QA00EADDTTQQAMNNNBAA804NG8jOwAHHHDAAQcccMABBxxwwOl/Htq0+6BNm7RpZQxt2mkAbdrpZdq03UexWNOUnL0p52DKOZpyTqacsynnYsq5mnJmP7qXglyNDlelw9XpcJU6XK0OV63D1etwFTtczS6uZhfbXe1qdnE1uzQ1e7kebRbVb0cTYtJPqN+NJsSk577fjCbEpGe+34smxKTnXbCiKTmmHudrTFCiKTmmKuc7TPChKTmmNucLTJChKfegqc/59hJMaEqOqc/56urXoM1iBAuakpN+PIIDTclJj7tgQFNy0uMu+M+UnPS4K/YzKcjV6HyDKeozKchV6nyJKd4zKcjV63yPKdIz6WZ0NTtfZYrxTApyNTvfZujO0J2hO3siRHd2G3Rn6M7QnVUG3Rm6s6Z3he5s9vyG16M7exx0Z9Os8O2qjVkBwAEHHHDAAQcccMABBxxwhsfZmCwAGmiggQYaaKCBBhpooIFmHJq3kRSAAw444IADDjjggAMOOOD0Pw/d2X3QnU26s/0YurPzALqz8wt1Z7ujyXcmBO1dQQdX0NEVdHIFnV1BF1fQ1RX06ef2SpKt22Erd9jaHbZ6h63fYSt42BoetoqHrePF1vHiu79tHS+2jpe2jrdo0B6zFA9af07+KSkmtP6c/BZQXGj9OfkNoNjQ+nPy0y/50IQgV6Mr601SoglBrlJXdptkRROCXL2uLDZJjCbcjK5mV7aa5EYTglzNrqw0RY/2mCP50YSg/COSDGlCUH74JUeaEJQffsmSJgTlh1/zpClJtm5XNpumSlOSbPWuLDfNlqYk2Rpe2W+aME25K20dr6w4zZmmJNk6XtlyaNPQpqFNeyJEm3YbtGlo09CmVQZtGtq0pneFNm32/IbXo017HLRp06zwLa2N2QXAAQcccMABBxxwwAEHHHCGx9mYdAAaaKCBBhpooIEGGmiggWYcmreRHYADDjjggAMOOOCAAw444PQ/D23afdCmTdq0wxjatMsA2rTLy7Rpp68/Cu1V3LiC9q6ggyvo6Ao6uYLOrqCLK+jqCpr9+l5LsnU7bOUOW7vDVu+w9TtsBQ9bw8NW8bB1vNg6Xnz3t63jxdbx0tbx5dq0eVa/Nk3JyT+lfm2akpPfAv3aNCUnvwH6tWlKTn76BW2aFORqdGW9Cdo0KchV6spuE7RpUpCr15XFJmjTpJvR1ezKVhO0aVKQq9mVldavTZvnCNo0KSj/iARtmhSUH35BmyYF5Ydf0KZJQfnhV7RpWpKt25XNpmjTtCRbvSvLTdGmaUm2hlf2m6JN0+5KW8crK07RpmlJto5XthzaNLRpaNOeCNGm3QZtGto0tGmVQZuGNq3pXaFNmz2/4fVo0x4Hbdo0K3xLa2N2AXDAAQcccMABBxxwwAEHnOFxNiYdgAYaaKCBBhpooIEGGmigGYfmbWQH4IADDjjggAMOOOCAAw44/c9Dm3YftGmTNu04hjbtOoA27foybdruo1isaUrO3pRzMOUcTTknU87ZlHMx5VxNObMf3UtBrkaHq9Lh6nS4Sh2uVoer1uHqdbiKHa5mF1ezi+2udjW7uJpdmpq9XI82i+q3owkx6SfU70YTYtJz329GE2LSM9/vRRNi0vMuWNGUHFOP8zUmKNGUHFOV8x0m+NCUHFOb8wUmyNCUe9DU53x7CSY0JcfU53x19WvQZjGCBU3JST8ewYGm5KTHXTCgKTnpcRf8Z0pOetwV+5kU5Gp0vsEU9ZkU5Cp1vsQU75kU5Op1vscU6Zl0M7qana8yxXgmBbmanW8zdGfoztCdPRGiO7sNujN0Z+jOKoPuDN1Z07tCdzZ7fsPr0Z09DrqzaVb4dtXGrADggAMOOOCAAw444IADDjjD42xMFgANNNBAAw000EADDTTQQDMOzdtICsABBxxwwAEHHHDAAQcccPqfh+7sPujOJt3ZaQjd2XW3fd3ZL4yv053tjibfmRC0dwUdXEFHV9DJFXR2BV1cQVdX0Kef2ytJtm6Hrdxha3fY6h22foet4GFreNgqHraOF1vHi+/+tnW82Dpe2jreokF7zFI8aP05+aekmND6c/JbQHGh9efkN4BiQ+vPyU+/5EMTglyNrqw3SYkmBLlKXdltkhVNCHL1urLYJDGacDO6ml3ZapIbTQhyNbuy0hQ92mOO5EcTgvKPSDKkCUH54ZccaUJQfvglS5oQlB9+zZOmJNm6XdlsmipNSbLVu7LcNFuakmRreGW/acI05a60dbyy4jRnmpJk63hly6FNQ5uGNu2JEG3abdCmoU1Dm1YZtGlo05reFdq02fMbXo827XHQpk2zwre0NmYXAAcccMABBxxwwAEHHHDAGR5nY9IBaKCBBhpooIEGGmiggQaacWjeRnYADjjggAMOOOCAAw444IDT/zy0afdBmzZp085jaNNiAG1avEybdvr6o9BexY0raO8KOriCjq6gkyvo7Aq6uIKurqDZr++1JFu3w1busLU7bPUOW7/DVvCwNTxsFQ9bx4ut48V3f9s6XmwdL20dX65Nm2f1a9OUnPxT6temKTn5LdCvTVNy8hugX5um5OSnX9CmSUGuRlfWm6BNk4Jcpa7sNkGbJgW5el1ZbII2TboZXc2ubDVBmyYFuZpdWWn92rR5jqBNk4Lyj0jQpklB+eEXtGlSUH74BW2aFJQffkWbpiXZul3ZbIo2TUuy1buy3BRtmpZka3hlvynaNO2utHW8suIUbZqWZOt4ZcuhTUObhjbtiRBt2m3QpqFNQ5tWGbRpaNOa3hXatNnzG16PNu1x0KZNs8K3tDZmFwAHHHDAAQcccMABBxxwwBkeZ2PSAWiggQYaaKCBBhpooIEGmnFo3kZ2AA444IADDjjggAMOOOCA0/88tGn3QZs2adMuY2jTygDatPIybdruo1isaUrO3pRzMOUcTTknU87ZlHMx5VxNObMf3UtBrkaHq9Lh6nS4Sh2uVoer1uHqdbiKHa5mF1ezi+2udjW7uJpdmpq9XI82i+q3owkx6SfU70YTYtJz329GE2LSM9/vRRNi0vMuWNGUHFOP8zUmKNGUHFOV8x0m+NCUHFOb8wUmyNCUe9DU53x7CSY0JcfU53x19WvQZjGCBU3JST8ewYGm5KTHXTCgKTnpcRf8Z0pOetwV+5kU5Gp0vsEU9ZkU5Cp1vsQU75kU5Op1vscU6Zl0M7qana8yxXgmBbmanW8zdGfoztCdPRGiO7sNujN0Z+jOKoPuDN1Z07tCdzZ7fsPr0Z09DrqzaVb4dtXGrADggAMOOOCAAw444IADDjjD42xMFgANNNBAAw000EADDTTQQDMOzdtICsABBxxwwAEHHHDAAQcccPqfh+7sPujOJt3ZdQzd2X4A3dn+hbqz3dHkOxOC9q6ggyvo6Ao6uYLOrqCLK+jqCvr0c3slydbtsJU7bO0OW73D1u+wFTxsDQ9bxcPW8WLrePHd37aOF1vHS1vHWzRoj1mKB60/J/+UFBNaf05+CygutP6c/AZQbGj9Ofnpl3xoQpCr0ZX1JinRhCBXqSu7TbKiCUGuXlcWmyRGE25GV7MrW01yowlBrmZXVpqiR3vMkfxoQlD+EUmGNCEoP/ySI00Iyg+/ZEkTgvLDr3nSlCRbtyubTVOlKUm2eleWm2ZLU5JsDa/sN02YptyVto5XVpzmTFOSbB2vbDm0aWjT0KY9EaJNuw3aNLRpaNMqgzYNbVrTu0KbNnt+w+vRpj0O2rRpVviW1sbsAuCAAw444IADDjjggAMOOMPjbEw6AA000EADDTTQQAMNNNBAMw7N28gOwAEHHHDAAQcccMABBxxw+p+HNu0+aNO+adPOY1jTDgNY0w5Y0/qCsKZ9Pwhr2qIkrGlY07CmYU3DmoY1DWsa1jSsab96M2JN+34Q1rTvBmFNw5qGNQ1rGta0RUlY02qDNe3XZ8n/Po01rR6NNe0bPta0z4M1bclgTWt7PdY0rGlN7wpr2uz5Da/HmvY4WNOmWeFLWhuTC4ADDjjggAMOOOCAAw444AyPszHnADTQQAMNNNBAAw000EADzTg0b+M6AAcccMABBxxwwAEHHHDA6X8e1rT7YE2brGm7MbRpxwG0aceXadNOX38U2qu4cQXtXUEHV9DRFXRyBZ1dQRdX0NUVNPv1vZZk63bYyh22doet3mHrd9gKHraGh63iYet4sXW8+O5vW8eLreOlrePLtWnzrH5tmpKTf0r92jQlJ78F+rVpSk5+A/Rr05Sc/PQL2jQpyNXoynoTtGlSkKvUld0maNOkIFevK4tN0KZJN6Or2ZWtJmjTpCBXsysrrV+bNs8RtGlSUP4RCdo0KSg//II2TQrKD7+gTZOC8sOvaNO0JFu3K5tN0aZpSbZ6V5abok3TkmwNr+w3RZum3ZW2jldWnKJN05JsHa9sObRpaNPQpj0Rok27Ddo0tGlo0yqDNg1tWtO7Qps2e37D69GmPQ7atGlW+JbWxuwC4IADDjjggAMOOOCAAw44w+NsTDoADTTQQAMNNNBAAw000EAzDs3byA7AAQcccMABBxxwwAEHHHD6n4c27T5o0yZtWoyhTTsNoE07vUybtvsoFmuakrM35RxMOUdTzsmUczblXEw5V1PO7Ef3UpCr0eGqdLg6Ha5Sh6vV4ap1uHodrmKHq9nF1exiu6tdzS6uZpemZi/Xo82i+u1oQkz6CfW70YSY9Nz3m9GEmPTM93vRhJj0vAtWNCXH1ON8jQlKNCXHVOV8hwk+NCXH1OZ8gQkyNOUeNPU5316CCU3JMfU5X139GrRZjGBBU3LSj0dwoCk56XEXDGhKTnrcBf+ZkpMed8V+JgW5Gp1vMEV9JgW5Sp0vMcV7JgW5ep3vMUV6Jt2Mrmbnq0wxnklBrmbn2wzdGbozdGdPhOjOboPuDN0ZurPKoDtDd9b0rtCdzZ7f8Hp0Z4+D7myaFb5dtTErADjggAMOOOCAAw444IADzvA4G5MFQAMNNNBAAw000EADDTTQjEPzNpICcMABBxxwwAEHHHDAAQec/uehO7sPurNJd1bG0J2dB9CdnV+oO9sdTb4zIWjvCjq4go6uoJMr6OwKuriCrq6gTz+3V5Js3Q5bucPW7rDVO2z9DlvBw9bwsFU8bB0vto4X3/1t63ixdby0dbxFg/aYpXjQ+nPyT0kxofXn5LeA4kLrz8lvAMWG1p+Tn37JhyYEuRpdWW+SEk0IcpW6stskK5oQ5Op1ZbFJYjThZnQ1u7LVJDeaEORqdmWlKXq0xxzJjyYE5R+RZEgTgvLDLznShKD88EuWNCEoP/yaJ01JsnW7stk0VZqSZKt3ZblptjQlydbwyn7ThGnKXWnreGXFac40JcnW8cqWQ5uGNg1t2hMh2rTboE1Dm4Y2rTJo09CmNb0rtGmz5ze8Hm3a46BNm2aFb2ltzC4ADjjggAMOOOCAAw444IAzPM7GpAPQQAMNNNBAAw000EADDTTj0LyN7AAccMABBxxwwAEHHHDAAaf/eWjT7oM2bdKm7cfQpl0G0KZdXqZNO339UWiv4sYVtHcFHVxBR1fQyRV0dgVdXEFXV9Ds1/dakq3bYSt32NodtnqHrd9hK3jYGh62ioet48XW8eK7v20dL7aOl7aOL9emzbP6tWlKTv4p9WvTlJz8FujXpik5+Q3Qr01TcvLTL2jTpCBXoyvrTdCmSUGuUld2m6BNk4Jcva4sNkGbJt2MrmZXtpqgTZOCXM2urLR+bdo8R9CmSUH5RyRo06Sg/PAL2jQpKD/8gjZNCsoPv6JN05Js3a5sNkWbpiXZ6l1Zboo2TUuyNbyy3xRtmnZX2jpeWXGKNk1LsnW8suXQpqFNQ5v2RIg27TZo09CmoU2rDNo0tGlN7wpt2uz5Da9Hm/Y4aNOmWeFbWhuzC4ADDjjggAMOOOCAAw444AyPszHpADTQQAMNNNBAAw000EADzTg0byM7AAcccMABBxxwwAEHHHDA6X8e2rT7oE2btGmHMbRp1wG0aVe0aX1BaNO+H4Q2bVES2jS0aWjT0KahTUObhjYNbRratF+9GdGmfT8Ibdp3g9CmoU1Dm4Y2zZaENm1ZEtq0HAZtGtq0z4M27Rs+2rTPgzZtyaBNa3s92jS0aU3vCm3a7PkNr0eb9jho06ZZ4VtaG7MLgAMOOOCAAw444IADDjjgDI+zMekANNBAAw000EADDTTQQAPNODRvIzsABxxwwAEHHHDAAQcccMDpfx7atPugTfumTbsMYU2L3W772rQb5Ku8abuPYtGmKTl7U87BlHM05ZxMOWdTzsWUczXlzH51LwW5Gh2uSoer0+EqdbhaHa5ah6vX4Sp2uJpdXM0utrva1ezianZpavZyP9osql+PJsSkn1C/HE2ISc99vxpNiEnPfL8YTYhJz7ugRVNyTD3O15jgRFNyTFXOd5ggRFNyTG3OF5hgQ1PuQVOf8+0lqNCUHFOf89XV70GbxQgaNCUn/XgECZqSkx53QYGm5KTHXRCgKTnpcVf0Z1KQq9H5BlPcZ1KQq9T5ElPEZ1KQq9f5HlOsZ9LN6Gp2vsoU5ZkU5Gp2vs3wneE7w3f2RIjv7Db4zvCd4TurDL4zfGdN7wrf2ez5Da/Hd/Y4+M6mWeHrVRvTAoADDjjggAMOOOCAAw444AyPszFbADTQQAMNNNBAAw000EADzTg0b2MpAAcccMABBxxwwAEHHHDA6X8evrP74Dv75ju7DuI7ixF8Z/Ey31kcdh+7h4mDRX9mjN2vE3tYJ/a4TuxpndjzOrGXdWKv68TOfu3vzF3pnMVKBy1WOmmx0lGLlc5arHTYYqXTFisdt1jpvJWVzltZa6+tdN7KSuetKOdtuVeultyvmfOlLv10+yV0vtSlN1m/os6XuvQW6xfY+VKX3mCC3s4Yu87pWvznguDCM8auc8AW/60giPOMseucscV/KAiWPeNWWOeULf4rQVDyGWPXOWWL/0To9/fVUgWdnzF26UcryP6MsUsvMEEFaIxdeoEJokBj7NILTNEIOnNXOmeL/1JQnIPO3JWO2uI/FhRBoTN3pdO2+O8FxWbo3BMrnbfFfzIo6kNn7krnbfFfDXgS8STiSXwixJN4GzyJeBLxJFYGTyKexKZ3hSdx9vyG1+NJfBw8idOs8LXMjelEwAEHHHDAAQcccMABBxxwhsfZmGUEGmiggQYaaKCBBhpooIFmHJq3sZuAAw444IADDjjggAMOOOD0P++/wZP4T1/+8B9ffv7Nn//z5y8//M+//V9oE7elTfzy83/9+NsvP/zzb27N+/uffvqPH27/D7t9z/mw+9tBFIplBIVieZlC8XT9uD7M5WoxKPpS96ukHlZJPa6Selol9bxK6mWV1OsqqTPBgTF2ndMV6xyvWOd8xToHLNY5YbHOEYt1zlisc8hinVNW1jllZaUdts4pK+ucsiKcsuWqxEpwvynRFrrwk+33JNpCF95d/ZZEW+jCe6vfkWgLXXhnCYZEX+oqZ2rpnwWCHtGXusqxWvo3geBG9KWucrKW/kEgiBF9O2CVs7X0rwHBiuhLXeVsLf1ToF+JWAkVjIi+1IUfq+BD9KUuvLIEG6IvdeGVJbgQfakLryzFhGiMXed0Lf2LQNEgGmPXOWBL/yhQHIjG2HXO2NK/CxQBonErrHPKlv5poNgPjbHrnLKlfx2gPkR9iPrwiRD14W1QH6I+RH1YGdSHqA+b3hXqw9nzG16P+vBxUB9Os8I3LTdmCAEHHHDAAQcccMABBxxwwBkeZ2PiEGiggQYaaKCBBhpooIEGmnFo3kZYAg444IADDjjggAMOOOCA0/881Ie/Pm+rPvyr8vDvvnz9j//zh3/58csf//xX+eE//vZfv/zuP3/5/P/3D+dhJIj7ESSI+5dJEL/+9LRXwmTK2ZtyDqacoynnZMo5m3IuppyrKWdmF5CCXI0OV6XD1elwlTpcrQ5XrcPV63AVO1zNLq5mF9td7Wp2cTW7NDV7ubRvFtWv6RNi0k+oX8UnxKTnvl+3J8SkZ75fqSfEpOdd0OYpOaYe52tMkOEpOaYq5ztMUNwpOaY25wtMENcp96Cpz/n2EnR0So6pz/nq6pfMzWIErZySk348gjpOyUmPu6CHU3LS4y4o4JSc9LgrmjcpyNXofIMp8jYpyFXqfIkpSjYpyNXrfI8pojXpZnQ1O19lij5NCnI1O99mSNGGkKLxz/wz/8w/88/8M//MP/PP/DP/zD/zz/wz/8w/889b+ue/fPz0X19+/vnH3335h9/c/oeq+NghxX94J0jxp0GK3zRI8ZHiNwxS/M+DFP/zIMVvHKT4SPF/dZDigwMOOOCAAw444IADDjjggDOCUhIaaKCBBhpooIEGGmiggWYcmrdRWYIDDjjggAMOOOCAAw444PQ/779Biv9/f/zDlz/+6cef/vjvX/70J5T421Li//Tzv/3w/37/+x9/++OXP/72L5MI/7UK/PurP/3L4//97b//9T+n9Pt/mf7jX3763V9u//mvf/7Dv//N//j/JF553Q=="
               },
               {
                  "name" : "annual_peak_electric_demand",
                  "units" : "kW",
                  "value" : 233.84200000000001
               },
               {
                  "name" : "first_year_capital_cost",
                  "units" : "$",
                  "value" : 0
               },
               {
                  "name" : "annual_utility_cost",
                  "units" : "$",
                  "value" : 66789.479999999996
               },
               {
                  "name" : "total_lifecycle_cost",
                  "units" : "$",
                  "value" : 1118217.0700000001
               }
            ],
            "step_warnings" : [ "A table in Annual Overview section returned false and was skipped." ]
         }
      }
   ],
   "updated_at" : "20170710T192603Z",
   "weather_file" : "USA_CO_Denver.Intl.AP.725650_TMY3.epw"
}
