{
   "completed_at" : "20170710T182532Z",
   "completed_status" : "Success",
   "created_at" : "2017-07-10 18:23:37 +0000",
   "current_step" : 5,
   "description" : "",
   "eplusout_err" : "Program Version,EnergyPlus, Version 8.7.0-78a111df4a, YMD=2017.07.10 18:24,IDD_Version 8.7.0\n   ************* IDF Context for following error/warning message:\n   ************* Note -- lines truncated at 300 characters, if necessary...\n   *************      5 Building,\n   ************* indicated Name=NECB 2011-SmallOffice-NECB HDD Method-CAN_AB_Calgary.718770_CWEC.epw created: 2017-07-10 18:23:47 +0000\n   ************* Only last 1 lines before error line shown.....\n   *************      6   NECB 2011-SmallOffice-NECB HDD Method-CAN_AB_Calgary.718770_CWEC.epw created: 2017-07-10 18:23:47 +0000, !- Name\n   ** Warning ** IP: IDF line~6 Alpha Argument length exceeds maximum, will be truncated=  NECB 2011-SmallOffice-NECB HDD Method-CAN_AB_Calgary.718770_CWEC.epw created: 2017-07-10 18:23:47 +000\n   **   ~~~   ** Will be processed as Alpha=NECB 2011-SMALLOFFICE-NECB HDD METHOD-CAN_AB_CALGARY.718770_CWEC.EPW CREATED: 2017-07-10 18:23:47 +0000\n   ************* Beginning Zone Sizing Calculations\n   ** Warning ** ProcessScheduleInput: Schedule:Day:Interval=\"ECONOMIZER MAX OA FRACTION 100 PCT DEFAULT\", Blank Schedule Type Limits Name input -- will not be validated.\n   ** Warning ** ProcessScheduleInput: Schedule:Day:Interval=\"SCHEDULE DAY 1\", Blank Schedule Type Limits Name input -- will not be validated.\n   ** Warning ** ProcessScheduleInput: Schedule:Day:Interval=\"SCHEDULE DAY 10\", Blank Schedule Type Limits Name input -- will not be validated.\n   ** Warning ** ProcessScheduleInput: Schedule:Day:Interval=\"SCHEDULE DAY 11\", Blank Schedule Type Limits Name input -- will not be validated.\n   ** Warning ** ProcessScheduleInput: Schedule:Day:Interval=\"SCHEDULE DAY 12\", Blank Schedule Type Limits Name input -- will not be validated.\n   ** Warning ** ProcessScheduleInput: Schedule:Day:Interval=\"SCHEDULE DAY 13\", Blank Schedule Type Limits Name input -- will not be validated.\n   ** Warning ** ProcessScheduleInput: Schedule:Day:Interval=\"SCHEDULE DAY 14\", Blank Schedule Type Limits Name input -- will not be validated.\n   ** Warning ** ProcessScheduleInput: Schedule:Day:Interval=\"SCHEDULE DAY 15\", Blank Schedule Type Limits Name input -- will not be validated.\n   ** Warning ** ProcessScheduleInput: Schedule:Day:Interval=\"SCHEDULE DAY 16\", Blank Schedule Type Limits Name input -- will not be validated.\n   ** Warning ** ProcessScheduleInput: Schedule:Day:Interval=\"SCHEDULE DAY 17\", Blank Schedule Type Limits Name input -- will not be validated.\n   ** Warning ** ProcessScheduleInput: Schedule:Day:Interval=\"SCHEDULE DAY 18\", Blank Schedule Type Limits Name input -- will not be validated.\n   ** Warning ** ProcessScheduleInput: Schedule:Day:Interval=\"SCHEDULE DAY 19\", Blank Schedule Type Limits Name input -- will not be validated.\n   ** Warning ** ProcessScheduleInput: Schedule:Day:Interval=\"SCHEDULE DAY 2\", Blank Schedule Type Limits Name input -- will not be validated.\n   ** Warning ** ProcessScheduleInput: Schedule:Day:Interval=\"SCHEDULE DAY 20\", Blank Schedule Type Limits Name input -- will not be validated.\n   ** Warning ** ProcessScheduleInput: Schedule:Day:Interval=\"SCHEDULE DAY 21\", Blank Schedule Type Limits Name input -- will not be validated.\n   ** Warning ** ProcessScheduleInput: Schedule:Day:Interval=\"SCHEDULE DAY 22\", Blank Schedule Type Limits Name input -- will not be validated.\n   ** Warning ** ProcessScheduleInput: Schedule:Day:Interval=\"SCHEDULE DAY 23\", Blank Schedule Type Limits Name input -- will not be validated.\n   ** Warning ** ProcessScheduleInput: Schedule:Day:Interval=\"SCHEDULE DAY 5\", Blank Schedule Type Limits Name input -- will not be validated.\n   ** Warning ** ProcessScheduleInput: Schedule:Day:Interval=\"SCHEDULE DAY 6\", Blank Schedule Type Limits Name input -- will not be validated.\n   ** Warning ** ProcessScheduleInput: Schedule:Day:Interval=\"SCHEDULE DAY 7\", Blank Schedule Type Limits Name input -- will not be validated.\n   ** Warning ** ProcessScheduleInput: Schedule:Day:Interval=\"SCHEDULE DAY 8\", Blank Schedule Type Limits Name input -- will not be validated.\n   ** Warning ** ProcessScheduleInput: Schedule:Day:Interval=\"SCHEDULE DAY 9\", Blank Schedule Type Limits Name input -- will not be validated.\n   ** Warning ** ProcessScheduleInput: Schedule:Year=\"ECONOMIZER MAX OA FRACTION 100 PCT\", Blank Schedule Type Limits Name input -- will not be validated.\n   ** Warning ** ProcessScheduleInput: Schedule:Year=\"SCHEDULE RULESET 10\", Blank Schedule Type Limits Name input -- will not be validated.\n   ** Warning ** ProcessScheduleInput: Schedule:Year=\"SCHEDULE RULESET 11\", Blank Schedule Type Limits Name input -- will not be validated.\n   ** Warning ** ProcessScheduleInput: Schedule:Year=\"SCHEDULE RULESET 12\", Blank Schedule Type Limits Name input -- will not be validated.\n   ** Warning ** ProcessScheduleInput: Schedule:Year=\"SCHEDULE RULESET 13\", Blank Schedule Type Limits Name input -- will not be validated.\n   ** Warning ** ProcessScheduleInput: Schedule:Year=\"SCHEDULE RULESET 14\", Blank Schedule Type Limits Name input -- will not be validated.\n   ** Warning ** ProcessScheduleInput: Schedule:Year=\"SCHEDULE RULESET 15\", Blank Schedule Type Limits Name input -- will not be validated.\n   ** Warning ** ProcessScheduleInput: Schedule:Year=\"SCHEDULE RULESET 16\", Blank Schedule Type Limits Name input -- will not be validated.\n   ** Warning ** ProcessScheduleInput: Schedule:Year=\"SCHEDULE RULESET 17\", Blank Schedule Type Limits Name input -- will not be validated.\n   ** Warning ** ProcessScheduleInput: Schedule:Year=\"SCHEDULE RULESET 3\", Blank Schedule Type Limits Name input -- will not be validated.\n   ** Warning ** ProcessScheduleInput: Schedule:Year=\"SCHEDULE RULESET 4\", Blank Schedule Type Limits Name input -- will not be validated.\n   ** Warning ** ProcessScheduleInput: Schedule:Year=\"SCHEDULE RULESET 5\", Blank Schedule Type Limits Name input -- will not be validated.\n   ** Warning ** ProcessScheduleInput: Schedule:Year=\"SCHEDULE RULESET 6\", Blank Schedule Type Limits Name input -- will not be validated.\n   ** Warning ** ProcessScheduleInput: Schedule:Year=\"SCHEDULE RULESET 7\", Blank Schedule Type Limits Name input -- will not be validated.\n   ** Warning ** ProcessScheduleInput: Schedule:Year=\"SCHEDULE RULESET 8\", Blank Schedule Type Limits Name input -- will not be validated.\n   ** Warning ** ProcessScheduleInput: Schedule:Year=\"SCHEDULE RULESET 9\", Blank Schedule Type Limits Name input -- will not be validated.\n   ** Warning ** ProcessScheduleInput: Schedule:Constant=\"ALWAYS OFF DISCRETE\", Blank Schedule Type Limits Name input -- will not be validated.\n   ** Warning ** ProcessScheduleInput: Schedule:Constant=\"ALWAYS ON CONTINUOUS\", Blank Schedule Type Limits Name input -- will not be validated.\n   ** Warning ** CheckUsedConstructions: There are 22 nominally unused constructions in input.\n   **   ~~~   ** For explicit details on each unused construction, use Output:Diagnostics,DisplayExtraWarnings;\n   ************* Beginning System Sizing Calculations\n   ************* Beginning Plant Sizing Calculations\n   ** Warning ** GetDXCoils: Coil:Cooling:DX:SingleSpeed=\"COIL COOLING DX SINGLE SPEED 5 17KBTU/HR 14.0SEER\", invalid\n   **   ~~~   ** ...Part Load Fraction Correlation Curve Name = DXCOOL-NECB2011-REF-COOLPLFFPLR 4 has out of range value.\n   **   ~~~   ** ...Curve maximum must be <= 1.0, curve max at PLR = 0.99 is 1.015\n   **   ~~~   ** ...Setting curve maximum to 1.0 and simulation continues.\n   ** Warning ** GetDXCoils: Coil:Cooling:DX:SingleSpeed=\"COIL COOLING DX SINGLE SPEED 4 21KBTU/HR 14.0SEER\", invalid\n   **   ~~~   ** ...Part Load Fraction Correlation Curve Name = DXCOOL-NECB2011-REF-COOLPLFFPLR 3 has out of range value.\n   **   ~~~   ** ...Curve maximum must be <= 1.0, curve max at PLR = 0.99 is 1.015\n   **   ~~~   ** ...Setting curve maximum to 1.0 and simulation continues.\n   ** Warning ** GetDXCoils: Coil:Cooling:DX:SingleSpeed=\"COIL COOLING DX SINGLE SPEED 2 19KBTU/HR 14.0SEER\", invalid\n   **   ~~~   ** ...Part Load Fraction Correlation Curve Name = DXCOOL-NECB2011-REF-COOLPLFFPLR 1 has out of range value.\n   **   ~~~   ** ...Curve maximum must be <= 1.0, curve max at PLR = 0.99 is 1.015\n   **   ~~~   ** ...Setting curve maximum to 1.0 and simulation continues.\n   ** Warning ** GetDXCoils: Coil:Cooling:DX:SingleSpeed=\"COIL COOLING DX SINGLE SPEED 1 15KBTU/HR 14.0SEER\", invalid\n   **   ~~~   ** ...Part Load Fraction Correlation Curve Name = DXCOOL-NECB2011-REF-COOLPLFFPLR has out of range value.\n   **   ~~~   ** ...Curve maximum must be <= 1.0, curve max at PLR = 0.99 is 1.015\n   **   ~~~   ** ...Setting curve maximum to 1.0 and simulation continues.\n   ** Warning ** GetDXCoils: Coil:Cooling:DX:SingleSpeed=\"COIL COOLING DX SINGLE SPEED 3 21KBTU/HR 14.0SEER\", invalid\n   **   ~~~   ** ...Part Load Fraction Correlation Curve Name = DXCOOL-NECB2011-REF-COOLPLFFPLR 2 has out of range value.\n   **   ~~~   ** ...Curve maximum must be <= 1.0, curve max at PLR = 0.99 is 1.015\n   **   ~~~   ** ...Setting curve maximum to 1.0 and simulation continues.\n   ** Warning ** The Standard Ratings is calculated for Coil:Cooling:DX:SingleSpeed = COIL COOLING DX SINGLE SPEED 5 17KBTU/HR 14.0SEER but not at the AHRI test condition due to curve out of bound.\n   **   ~~~   **  Review the Standard Ratings calculations in the Engineering Reference for this coil type. Also, use Output:Diagnostics, DisplayExtraWarnings for further guidance.\n   ** Warning ** The Standard Ratings is calculated for Coil:Cooling:DX:SingleSpeed = COIL COOLING DX SINGLE SPEED 4 21KBTU/HR 14.0SEER but not at the AHRI test condition due to curve out of bound.\n   **   ~~~   **  Review the Standard Ratings calculations in the Engineering Reference for this coil type. Also, use Output:Diagnostics, DisplayExtraWarnings for further guidance.\n   ** Warning ** The Standard Ratings is calculated for Coil:Cooling:DX:SingleSpeed = COIL COOLING DX SINGLE SPEED 2 19KBTU/HR 14.0SEER but not at the AHRI test condition due to curve out of bound.\n   **   ~~~   **  Review the Standard Ratings calculations in the Engineering Reference for this coil type. Also, use Output:Diagnostics, DisplayExtraWarnings for further guidance.\n   ** Warning ** The Standard Ratings is calculated for Coil:Cooling:DX:SingleSpeed = COIL COOLING DX SINGLE SPEED 1 15KBTU/HR 14.0SEER but not at the AHRI test condition due to curve out of bound.\n   **   ~~~   **  Review the Standard Ratings calculations in the Engineering Reference for this coil type. Also, use Output:Diagnostics, DisplayExtraWarnings for further guidance.\n   ** Warning ** The Standard Ratings is calculated for Coil:Cooling:DX:SingleSpeed = COIL COOLING DX SINGLE SPEED 3 21KBTU/HR 14.0SEER but not at the AHRI test condition due to curve out of bound.\n   **   ~~~   **  Review the Standard Ratings calculations in the Engineering Reference for this coil type. Also, use Output:Diagnostics, DisplayExtraWarnings for further guidance.\n   ** Warning ** Check input. Pump nominal power or motor efficiency is set to 0, for pump=SERVICE WATER LOOP PUMP\n   ** Warning ** Output:Meter: invalid Name=\"DISTRICTCOOLING:FACILITY\" - not found.\n   ** Warning ** Output:Meter: invalid Name=\"DISTRICTHEATING:FACILITY\" - not found.\n   ** Warning ** Output:Meter:MeterFileOnly requested for \"Electricity:Facility\" (TimeStep), already on \"Output:Meter\". Will report to both eplusout.eso and eplusout.mtr\n   ************* Testing Individual Branch Integrity\n   ************* All Branches passed integrity testing\n   ************* Testing Individual Supply Air Path Integrity\n   ************* All Supply Air Paths passed integrity testing\n   ************* Testing Individual Return Air Path Integrity\n   ************* All Return Air Paths passed integrity testing\n   ************* No node connection errors were found.\n   ************* Beginning Simulation\n   ** Warning ** CalcDoe2DXCoil: Coil:Cooling:DX:SingleSpeed \"COIL COOLING DX SINGLE SPEED 5 17KBTU/HR 14.0SEER\" - Air-cooled condenser inlet dry-bulb temperature below 0 C. Outdoor dry-bulb temperature = -10.43\n   **   ~~~   **  ... Occurrence info = RUN PERIOD 1, 01/02 06:03 - 06:05\n   **   ~~~   ** ... Operation at low ambient temperatures may require special performance curves.\n   ** Warning ** CalcDoe2DXCoil: Coil:Cooling:DX:SingleSpeed \"COIL COOLING DX SINGLE SPEED 5 17KBTU/HR 14.0SEER\" - Full load outlet air dry-bulb temperature < 2C. This indicates the possibility of coil frost/freeze. Outlet temperature = -1.26 C.\n   **   ~~~   **  ...Occurrence info = RUN PERIOD 1, 01/02 06:03 - 06:05\n   **   ~~~   ** ... Possible reasons for low outlet air dry-bulb temperatures are: This DX coil\n   **   ~~~   **    1) may have a low inlet air dry-bulb temperature. Inlet air temperature = 13.121 C.\n   **   ~~~   **    2) may have a low air flow rate per watt of cooling capacity. Check inputs.\n   **   ~~~   **    3) is used as part of a HX assisted cooling coil which uses a high sensible effectiveness. Check inputs.\n   ** Warning ** CalcDoe2DXCoil: Coil:Cooling:DX:SingleSpeed \"COIL COOLING DX SINGLE SPEED 4 21KBTU/HR 14.0SEER\" - Air-cooled condenser inlet dry-bulb temperature below 0 C. Outdoor dry-bulb temperature = -10.43\n   **   ~~~   **  ... Occurrence info = RUN PERIOD 1, 01/02 06:03 - 06:05\n   **   ~~~   ** ... Operation at low ambient temperatures may require special performance curves.\n   ** Warning ** CalcDoe2DXCoil: Coil:Cooling:DX:SingleSpeed \"COIL COOLING DX SINGLE SPEED 2 19KBTU/HR 14.0SEER\" - Air-cooled condenser inlet dry-bulb temperature below 0 C. Outdoor dry-bulb temperature = -10.43\n   **   ~~~   **  ... Occurrence info = RUN PERIOD 1, 01/02 06:03 - 06:05\n   **   ~~~   ** ... Operation at low ambient temperatures may require special performance curves.\n   ** Warning ** CalcDoe2DXCoil: Coil:Cooling:DX:SingleSpeed \"COIL COOLING DX SINGLE SPEED 1 15KBTU/HR 14.0SEER\" - Air-cooled condenser inlet dry-bulb temperature below 0 C. Outdoor dry-bulb temperature = -10.43\n   **   ~~~   **  ... Occurrence info = RUN PERIOD 1, 01/02 06:03 - 06:05\n   **   ~~~   ** ... Operation at low ambient temperatures may require special performance curves.\n   ** Warning ** CalcDoe2DXCoil: Coil:Cooling:DX:SingleSpeed \"COIL COOLING DX SINGLE SPEED 1 15KBTU/HR 14.0SEER\" - Full load outlet air dry-bulb temperature < 2C. This indicates the possibility of coil frost/freeze. Outlet temperature = 6.21E-002 C.\n   **   ~~~   **  ...Occurrence info = RUN PERIOD 1, 01/02 06:03 - 06:05\n   **   ~~~   ** ... Possible reasons for low outlet air dry-bulb temperatures are: This DX coil\n   **   ~~~   **    1) may have a low inlet air dry-bulb temperature. Inlet air temperature = 14.441 C.\n   **   ~~~   **    2) may have a low air flow rate per watt of cooling capacity. Check inputs.\n   **   ~~~   **    3) is used as part of a HX assisted cooling coil which uses a high sensible effectiveness. Check inputs.\n   ** Warning ** CalcDoe2DXCoil: Coil:Cooling:DX:SingleSpeed \"COIL COOLING DX SINGLE SPEED 3 21KBTU/HR 14.0SEER\" - Air-cooled condenser inlet dry-bulb temperature below 0 C. Outdoor dry-bulb temperature = -10.43\n   **   ~~~   **  ... Occurrence info = RUN PERIOD 1, 01/02 06:03 - 06:05\n   **   ~~~   ** ... Operation at low ambient temperatures may require special performance curves.\n   ** Warning ** CalcDoe2DXCoil: Coil:Cooling:DX:SingleSpeed \"COIL COOLING DX SINGLE SPEED 2 19KBTU/HR 14.0SEER\" - Full load outlet air dry-bulb temperature < 2C. This indicates the possibility of coil frost/freeze. Outlet temperature = 1.40 C.\n   **   ~~~   **  ...Occurrence info = RUN PERIOD 1, 01/02 21:45 - 21:50\n   **   ~~~   ** ... Possible reasons for low outlet air dry-bulb temperatures are: This DX coil\n   **   ~~~   **    1) may have a low inlet air dry-bulb temperature. Inlet air temperature = 15.747 C.\n   **   ~~~   **    2) may have a low air flow rate per watt of cooling capacity. Check inputs.\n   **   ~~~   **    3) is used as part of a HX assisted cooling coil which uses a high sensible effectiveness. Check inputs.\n   ************* Simulation Error Summary *************\n   ************* There are 9 unused schedules in input.\n   ************* There are 9 unused week schedules in input.\n   ************* There are 16 unused day schedules in input.\n   ************* Use Output:Diagnostics,DisplayUnusedSchedules; to see them.\n   *************\n   ************* ===== Recurring Error Summary =====\n   ************* The following recurring error messages occurred.\n   *************\n   *************  ** Warning ** CalcDoe2DXCoil: Coil:Cooling:DX:SingleSpeed=\"COIL COOLING DX SINGLE SPEED 5 17KBTU/HR 14.0SEER\" - Low condenser dry-bulb temperature error continues...\n   *************  **   ~~~   **   This error occurred 411 total times;\n   *************  **   ~~~   **   during Warmup 0 times;\n   *************  **   ~~~   **   during Sizing 0 times.\n   *************  **   ~~~   **   Max=-0.15 [C]  Min=-20.6 [C]\n   *************\n   *************  ** Warning ** CalcDoe2DXCoil: Coil:Cooling:DX:SingleSpeed=\"COIL COOLING DX SINGLE SPEED 5 17KBTU/HR 14.0SEER\" - Full load outlet temperature indicates a possibility of frost/freeze error continues. Outlet air temperature statistics follow:\n   *************  **   ~~~   **   This error occurred 391 total times;\n   *************  **   ~~~   **   during Warmup 0 times;\n   *************  **   ~~~   **   during Sizing 0 times.\n   *************  **   ~~~   **   Max=1.990036  Min=-2.772855\n   *************\n   *************  ** Warning ** CalcDoe2DXCoil: Coil:Cooling:DX:SingleSpeed=\"COIL COOLING DX SINGLE SPEED 4 21KBTU/HR 14.0SEER\" - Low condenser dry-bulb temperature error continues...\n   *************  **   ~~~   **   This error occurred 681 total times;\n   *************  **   ~~~   **   during Warmup 0 times;\n   *************  **   ~~~   **   during Sizing 0 times.\n   *************  **   ~~~   **   Max=-2.500000E-002 [C]  Min=-30.975 [C]\n   *************\n   *************  ** Warning ** CalcDoe2DXCoil: Coil:Cooling:DX:SingleSpeed=\"COIL COOLING DX SINGLE SPEED 2 19KBTU/HR 14.0SEER\" - Low condenser dry-bulb temperature error continues...\n   *************  **   ~~~   **   This error occurred 672 total times;\n   *************  **   ~~~   **   during Warmup 0 times;\n   *************  **   ~~~   **   during Sizing 0 times.\n   *************  **   ~~~   **   Max=-2.500000E-002 [C]  Min=-25.95 [C]\n   *************\n   *************  ** Warning ** CalcDoe2DXCoil: Coil:Cooling:DX:SingleSpeed=\"COIL COOLING DX SINGLE SPEED 1 15KBTU/HR 14.0SEER\" - Low condenser dry-bulb temperature error continues...\n   *************  **   ~~~   **   This error occurred 410 total times;\n   *************  **   ~~~   **   during Warmup 0 times;\n   *************  **   ~~~   **   during Sizing 0 times.\n   *************  **   ~~~   **   Max=-0.15 [C]  Min=-24. [C]\n   *************\n   *************  ** Warning ** CalcDoe2DXCoil: Coil:Cooling:DX:SingleSpeed=\"COIL COOLING DX SINGLE SPEED 1 15KBTU/HR 14.0SEER\" - Full load outlet temperature indicates a possibility of frost/freeze error continues. Outlet air temperature statistics follow:\n   *************  **   ~~~   **   This error occurred 291 total times;\n   *************  **   ~~~   **   during Warmup 0 times;\n   *************  **   ~~~   **   during Sizing 0 times.\n   *************  **   ~~~   **   Max=1.993833  Min=-2.721121\n   *************\n   *************  ** Warning ** CalcDoe2DXCoil: Coil:Cooling:DX:SingleSpeed=\"COIL COOLING DX SINGLE SPEED 3 21KBTU/HR 14.0SEER\" - Low condenser dry-bulb temperature error continues...\n   *************  **   ~~~   **   This error occurred 419 total times;\n   *************  **   ~~~   **   during Warmup 0 times;\n   *************  **   ~~~   **   during Sizing 0 times.\n   *************  **   ~~~   **   Max=-0.1 [C]  Min=-30.975 [C]\n   *************\n   *************  ** Warning ** CalcDoe2DXCoil: Coil:Cooling:DX:SingleSpeed=\"COIL COOLING DX SINGLE SPEED 2 19KBTU/HR 14.0SEER\" - Full load outlet temperature indicates a possibility of frost/freeze error continues. Outlet air temperature statistics follow:\n   *************  **   ~~~   **   This error occurred 66 total times;\n   *************  **   ~~~   **   during Warmup 0 times;\n   *************  **   ~~~   **   during Sizing 0 times.\n   *************  **   ~~~   **   Max=1.993608  Min=0.267181\n   *************\n   *************\n   ************* ===== Final Error Summary =====\n   ************* The following error categories occurred.  Consider correcting or noting.\n   ************* Nominally Unused Constructions\n   ************* ..The nominally unused constructions warning is provided to alert you to potential conditions that can cause\n   ************* ..extra time during simulation. Each construction is calculated by the algorithm indicated in the HeatBalanceAlgorithm\n   ************* ..object. You may remove the constructions indicated (when you use the DisplayExtraWarnings option).\n   *************\n   ************* EnergyPlus Warmup Error Summary. During Warmup: 0 Warning; 0 Severe Errors.\n   ************* EnergyPlus Sizing Error Summary. During Sizing: 41 Warning; 0 Severe Errors.\n   ************* EnergyPlus Completed Successfully-- 3397 Warning; 0 Severe Errors; Elapsed Time=00hr 00min 29.01sec\n",
   "file_format_version" : "0.0.1",
   "file_paths" : [ "../weather", "../seeds", "../seed" ],
   "hash" : "E93301A2",
   "measure_paths" : [ "../measures" ],
   "name" : "LHS Autogenerated 33",
   "osa_id" : "4fef0e0f-5396-4c55-a6e1-2cd6803db3ab",
   "osd_id" : "281236a0-ed75-4a96-83de-b624ae0cd476",
   "run_directory" : "./run",
   "seed_file" : "seed.osm",
   "started_at" : "20170710T182344Z",
   "steps" : [
      {
         "arguments" : {
            "__SKIP__" : false,
            "building_type" : "SmallOffice",
            "climate_zone" : "NECB HDD Method",
            "epw_file" : "CAN_AB_Calgary.718770_CWEC.epw",
            "template" : "NECB 2011"
         },
         "measure_dir_name" : "create_prototype_building",
         "name" : "create_prototype_building",
         "result" : {
            "completed_at" : "20170710T182433Z",
            "measure_class_name" : "CreatePrototypeBuilding",
            "measure_display_name" : "Create Prototype Building",
            "measure_name" : "create_prototype_building",
            "measure_taxonomy" : "Whole Building.Space Types",
            "measure_type" : "ModelMeasure",
            "measure_uid" : "ae90fsd7-a651-467a-bc8d-29d310b0f937",
            "measure_version_id" : "c6ec5c18-5595-459f-a082-09a19c8c869c",
            "measure_version_modified" : "20170519T182315Z",
            "measure_xml_checksum" : "057E8D9D",
            "started_at" : "20170710T182346Z",
            "stderr" : "",
            "stdout" : "[OpenStudio.Measure] <0> OSArgumentVector is deprecated, use OpenStudio::Measure::OSArgumentVector instead.\n[openstudio.EpwFile] <0> Successive data points (1988-Jan-31 to 1980-Feb-01, ending on line 753) are greater than 1 day apart in EPW file '/usr/local/bundle/bundler/gems/openstudio-standards-f448df66933d/openstudio-standards/data/weather/CAN_AB_Calgary.718770_CWEC.epw'. Data will be treated as typical (TMY)\n[openstudio.setFileExtension] <0> Path p, '/usr/local/bundle/bundler/gems/openstudio-standards-f448df66933d/openstudio-standards/data/weather/CAN_AB_Calgary.718770_CWEC.ddy', has an unexpected file extension. Was expecting 'idf'.\n[openstudio.model.YearDescription] <1> 'UseWeatherFile' is not yet a supported option for YearDescription\n[openstudio.model.YearDescription] <1> 'UseWeatherFile' is not yet a supported option for YearDescription\n[openstudio.setFileExtension] <0> Path p, '/usr/local/bundle/bundler/gems/openstudio-standards-f448df66933d/openstudio-standards/data/weather/CAN_AB_Calgary.718770_CWEC.ddy', has an unexpected file extension. Was expecting 'idf'.\n[openstudio.model.YearDescription] <1> 'UseWeatherFile' is not yet a supported option for YearDescription\n[openstudio.model.YearDescription] <1> 'UseWeatherFile' is not yet a supported option for YearDescription\n[openstudio.EpwFile] <0> Successive data points (1988-Jan-31 to 1980-Feb-01, ending on line 753) are greater than 1 day apart in EPW file '/usr/local/bundle/bundler/gems/openstudio-standards-f448df66933d/openstudio-standards/data/weather/CAN_AB_Calgary.718770_CWEC.epw'. Data will be treated as typical (TMY)\n[openstudio.weather.Model] <0> Could not find ground temperatures; will use generic temperatures, which will skew results.\n[openstudio.setFileExtension] <0> Path p, '/usr/local/bundle/bundler/gems/openstudio-standards-f448df66933d/openstudio-standards/data/weather/CAN_AB_Calgary.718770_CWEC.ddy', has an unexpected file extension. Was expecting 'idf'.\n[openstudio.model.YearDescription] <1> 'UseWeatherFile' is not yet a supported option for YearDescription\n[openstudio.model.YearDescription] <1> 'UseWeatherFile' is not yet a supported option for YearDescription\n[openstudio.EpwFile] <0> Successive data points (1988-Jan-31 to 1980-Feb-01, ending on line 753) are greater than 1 day apart in EPW file '/usr/local/bundle/bundler/gems/openstudio-standards-f448df66933d/openstudio-standards/data/weather/CAN_AB_Calgary.718770_CWEC.epw'. Data will be treated as typical (TMY)\n[openstudio.setFileExtension] <0> Path p, '/usr/local/bundle/bundler/gems/openstudio-standards-f448df66933d/openstudio-standards/data/weather/CAN_AB_Calgary.718770_CWEC.ddy', has an unexpected file extension. Was expecting 'idf'.\n[openstudio.model.YearDescription] <1> 'UseWeatherFile' is not yet a supported option for YearDescription\n[openstudio.model.YearDescription] <1> 'UseWeatherFile' is not yet a supported option for YearDescription\n[openstudio.setFileExtension] <0> Path p, '/usr/local/bundle/bundler/gems/openstudio-standards-f448df66933d/openstudio-standards/data/weather/CAN_AB_Calgary.718770_CWEC.ddy', has an unexpected file extension. Was expecting 'idf'.\n[openstudio.model.YearDescription] <1> 'UseWeatherFile' is not yet a supported option for YearDescription\n[openstudio.model.YearDescription] <1> 'UseWeatherFile' is not yet a supported option for YearDescription\n[openstudio.EpwFile] <0> Successive data points (1988-Jan-31 to 1980-Feb-01, ending on line 753) are greater than 1 day apart in EPW file '/usr/local/bundle/bundler/gems/openstudio-standards-f448df66933d/openstudio-standards/data/weather/CAN_AB_Calgary.718770_CWEC.epw'. Data will be treated as typical (TMY)\n[openstudio.setFileExtension] <0> Path p, '/usr/local/bundle/bundler/gems/openstudio-standards-f448df66933d/openstudio-standards/data/weather/CAN_AB_Calgary.718770_CWEC.ddy', has an unexpected file extension. Was expecting 'idf'.\n[openstudio.model.YearDescription] <1> 'UseWeatherFile' is not yet a supported option for YearDescription\n[openstudio.model.YearDescription] <1> 'UseWeatherFile' is not yet a supported option for YearDescription\n[openstudio.setFileExtension] <0> Path p, '/usr/local/bundle/bundler/gems/openstudio-standards-f448df66933d/openstudio-standards/data/weather/CAN_AB_Calgary.718770_CWEC.ddy', has an unexpected file extension. Was expecting 'idf'.\n[openstudio.model.YearDescription] <1> 'UseWeatherFile' is not yet a supported option for YearDescription\n[openstudio.model.YearDescription] <1> 'UseWeatherFile' is not yet a supported option for YearDescription\n[utilities.idf.WorkspaceObject] <0> Object of type 'Schedule:Constant' and named 'Always Off Discrete', points to an object named OnOff 1 from field 1, but that object cannot be located.\n[utilities.idf.WorkspaceObject] <0> Object of type 'Schedule:Constant' and named 'Always On Continuous', points to an object named Fractional 1 from field 1, but that object cannot be located.\n[utilities.idf.WorkspaceObject] <0> Object of type 'Schedule:Constant' and named 'Always Off Discrete', points to an object named OnOff 1 from field 1, but that object cannot be located.\n[utilities.idf.WorkspaceObject] <0> Object of type 'Schedule:Constant' and named 'Always On Continuous', points to an object named Fractional 1 from field 1, but that object cannot be located.\n[openstudio.standards.Fan] <0> For Fan Constant Volume 1, there is no greater nominal HP.  Use the efficiency of the largest motor category.\n[openstudio.standards.Fan] <0> For Fan Constant Volume 2, there is no greater nominal HP.  Use the efficiency of the largest motor category.\n[openstudio.standards.Fan] <0> For Fan Constant Volume 3, there is no greater nominal HP.  Use the efficiency of the largest motor category.\n[openstudio.standards.Fan] <0> For Fan Constant Volume 4, there is no greater nominal HP.  Use the efficiency of the largest motor category.\n[openstudio.standards.Fan] <0> For Fan Constant Volume 5, there is no greater nominal HP.  Use the efficiency of the largest motor category.\n[openstudio.EpwFile] <0> Successive data points (1988-Jan-31 to 1980-Feb-01, ending on line 753) are greater than 1 day apart in EPW file '/usr/local/bundle/bundler/gems/openstudio-standards-f448df66933d/openstudio-standards/data/weather/CAN_AB_Calgary.718770_CWEC.epw'. Data will be treated as typical (TMY)\n[openstudio.setFileExtension] <0> Path p, '/usr/local/bundle/bundler/gems/openstudio-standards-f448df66933d/openstudio-standards/data/weather/CAN_AB_Calgary.718770_CWEC.ddy', has an unexpected file extension. Was expecting 'idf'.\n[openstudio.model.YearDescription] <1> 'UseWeatherFile' is not yet a supported option for YearDescription\n[openstudio.model.YearDescription] <1> 'UseWeatherFile' is not yet a supported option for YearDescription\n[openstudio.setFileExtension] <0> Path p, '/usr/local/bundle/bundler/gems/openstudio-standards-f448df66933d/openstudio-standards/data/weather/CAN_AB_Calgary.718770_CWEC.ddy', has an unexpected file extension. Was expecting 'idf'.\n[openstudio.model.YearDescription] <1> 'UseWeatherFile' is not yet a supported option for YearDescription\n[openstudio.model.YearDescription] <1> 'UseWeatherFile' is not yet a supported option for YearDescription\n[openstudio.EpwFile] <0> Successive data points (1988-Jan-31 to 1980-Feb-01, ending on line 753) are greater than 1 day apart in EPW file '/usr/local/bundle/bundler/gems/openstudio-standards-f448df66933d/openstudio-standards/data/weather/CAN_AB_Calgary.718770_CWEC.epw'. Data will be treated as typical (TMY)\n[openstudio.setFileExtension] <0> Path p, '/usr/local/bundle/bundler/gems/openstudio-standards-f448df66933d/openstudio-standards/data/weather/CAN_AB_Calgary.718770_CWEC.ddy', has an unexpected file extension. Was expecting 'idf'.\n[openstudio.model.YearDescription] <1> 'UseWeatherFile' is not yet a supported option for YearDescription\n[openstudio.model.YearDescription] <1> 'UseWeatherFile' is not yet a supported option for YearDescription\n[openstudio.setFileExtension] <0> Path p, '/usr/local/bundle/bundler/gems/openstudio-standards-f448df66933d/openstudio-standards/data/weather/CAN_AB_Calgary.718770_CWEC.ddy', has an unexpected file extension. Was expecting 'idf'.\n[openstudio.model.YearDescription] <1> 'UseWeatherFile' is not yet a supported option for YearDescription\n[openstudio.model.YearDescription] <1> 'UseWeatherFile' is not yet a supported option for YearDescription\n[openstudio.EpwFile] <0> Successive data points (1988-Jan-31 to 1980-Feb-01, ending on line 753) are greater than 1 day apart in EPW file '/usr/local/bundle/bundler/gems/openstudio-standards-f448df66933d/openstudio-standards/data/weather/CAN_AB_Calgary.718770_CWEC.epw'. Data will be treated as typical (TMY)\n[openstudio.setFileExtension] <0> Path p, '/usr/local/bundle/bundler/gems/openstudio-standards-f448df66933d/openstudio-standards/data/weather/CAN_AB_Calgary.718770_CWEC.ddy', has an unexpected file extension. Was expecting 'idf'.\n[openstudio.model.YearDescription] <1> 'UseWeatherFile' is not yet a supported option for YearDescription\n[openstudio.model.YearDescription] <1> 'UseWeatherFile' is not yet a supported option for YearDescription\n[openstudio.setFileExtension] <0> Path p, '/usr/local/bundle/bundler/gems/openstudio-standards-f448df66933d/openstudio-standards/data/weather/CAN_AB_Calgary.718770_CWEC.ddy', has an unexpected file extension. Was expecting 'idf'.\n[openstudio.model.YearDescription] <1> 'UseWeatherFile' is not yet a supported option for YearDescription\n[openstudio.model.YearDescription] <1> 'UseWeatherFile' is not yet a supported option for YearDescription\n[openstudio.EpwFile] <0> Successive data points (1988-Jan-31 to 1980-Feb-01, ending on line 753) are greater than 1 day apart in EPW file '/usr/local/bundle/bundler/gems/openstudio-standards-f448df66933d/openstudio-standards/data/weather/CAN_AB_Calgary.718770_CWEC.epw'. Data will be treated as typical (TMY)\n[openstudio.setFileExtension] <0> Path p, '/usr/local/bundle/bundler/gems/openstudio-standards-f448df66933d/openstudio-standards/data/weather/CAN_AB_Calgary.718770_CWEC.ddy', has an unexpected file extension. Was expecting 'idf'.\n[openstudio.model.YearDescription] <1> 'UseWeatherFile' is not yet a supported option for YearDescription\n[openstudio.model.YearDescription] <1> 'UseWeatherFile' is not yet a supported option for YearDescription\n[openstudio.setFileExtension] <0> Path p, '/usr/local/bundle/bundler/gems/openstudio-standards-f448df66933d/openstudio-standards/data/weather/CAN_AB_Calgary.718770_CWEC.ddy', has an unexpected file extension. Was expecting 'idf'.\n[openstudio.model.YearDescription] <1> 'UseWeatherFile' is not yet a supported option for YearDescription\n[openstudio.model.YearDescription] <1> 'UseWeatherFile' is not yet a supported option for YearDescription\n[openstudio.EpwFile] <0> Successive data points (1988-Jan-31 to 1980-Feb-01, ending on line 753) are greater than 1 day apart in EPW file '/usr/local/bundle/bundler/gems/openstudio-standards-f448df66933d/openstudio-standards/data/weather/CAN_AB_Calgary.718770_CWEC.epw'. Data will be treated as typical (TMY)\n[openstudio.setFileExtension] <0> Path p, '/usr/local/bundle/bundler/gems/openstudio-standards-f448df66933d/openstudio-standards/data/weather/CAN_AB_Calgary.718770_CWEC.ddy', has an unexpected file extension. Was expecting 'idf'.\n[openstudio.model.YearDescription] <1> 'UseWeatherFile' is not yet a supported option for YearDescription\n[openstudio.model.YearDescription] <1> 'UseWeatherFile' is not yet a supported option for YearDescription\n[openstudio.setFileExtension] <0> Path p, '/usr/local/bundle/bundler/gems/openstudio-standards-f448df66933d/openstudio-standards/data/weather/CAN_AB_Calgary.718770_CWEC.ddy', has an unexpected file extension. Was expecting 'idf'.\n[openstudio.model.YearDescription] <1> 'UseWeatherFile' is not yet a supported option for YearDescription\n[openstudio.model.YearDescription] <1> 'UseWeatherFile' is not yet a supported option for YearDescription\n[openstudio.standards.Fan] <0> For Fan Constant Volume 1, there is no greater nominal HP.  Use the efficiency of the largest motor category.\n[openstudio.standards.Fan] <0> For Fan Constant Volume 2, there is no greater nominal HP.  Use the efficiency of the largest motor category.\n[openstudio.standards.Fan] <0> For Fan Constant Volume 3, there is no greater nominal HP.  Use the efficiency of the largest motor category.\n[openstudio.standards.Fan] <0> For Fan Constant Volume 4, there is no greater nominal HP.  Use the efficiency of the largest motor category.\n[openstudio.standards.Fan] <0> For Fan Constant Volume 5, there is no greater nominal HP.  Use the efficiency of the largest motor category.\n",
            "step_errors" : [],
            "step_files" : [],
            "step_info" : [
               "Started adding geometry",
               "Finished adding geometry",
               "Started adding weather file for climate zone: NECB HDD Method.",
               "Template =",
               "Setting Attic to Space Function.- undefined -",
               "Setting Core_ZN to Space Function.Office - enclosed",
               "Setting Perimeter_ZN_1 to Space Function.Office - enclosed",
               "Setting Perimeter_ZN_2 to Space Function.Office - enclosed",
               "Setting Perimeter_ZN_3 to Space Function.Office - enclosed",
               "Setting Perimeter_ZN_4 to Space Function.Office - enclosed",
               "Started applying space types (loads)",
               "Space Function - undefined - had no ventilation specification, one has been created.",
               "Space Function - undefined - had no infiltration objects, one has been created.",
               "Space Function - undefined - set infiltration to 0.0 per ft^2 exterior surface area.",
               "Space Function - undefined - set infiltration schedule to Always On.",
               "Space Function Office - enclosed had no people, one has been created.",
               "Space Function Office - enclosed set occupancy to 4.65 people/1000 ft^2.",
               "Space Function Office - enclosed had no lights, one has been created.",
               "Space Function Office - enclosed set LPD to 1.105536975 W/ft^2.",
               "Space Function Office - enclosed had no electric equipment, one has been created.",
               "Space Function Office - enclosed set electric EPD to 0.696767001 W/ft^2.",
               "Space Function Office - enclosed had no ventilation specification, one has been created.",
               "Space Function Office - enclosed set ventilation per area to 0.085 cfm/ft^2.",
               "Space Function Office - enclosed had no infiltration objects, one has been created.",
               "Space Function Office - enclosed set infiltration to 0.0 per ft^2 exterior surface area.",
               "Space Function Office - enclosed set occupancy schedule to NECB-A-Occupancy.",
               "Space Function Office - enclosed set occupant activity schedule to NECB-Activity.",
               "Space Function Office - enclosed set lighting schedule to NECB-A-Lighting.",
               "Space Function Office - enclosed set electric equipment schedule to NECB-A-Electric-Equipment.",
               "Space Function Office - enclosed set infiltration schedule to Always On.",
               "Space Function Office - enclosed set heating setpoint schedule to NECB-A-Thermostat Setpoint-Heating.",
               "Space Function Office - enclosed set cooling setpoint schedule to NECB-A-Thermostat Setpoint-Cooling.",
               "Finished applying space types (loads)",
               "For NECB 2011, no exterior wall area was found, no infiltration will be added.",
               "Started applying constructions",
               "Adding construction set: NECB 2011-NECB HDD Method-Office--is_residentialNo",
               "Adding construction Typical Insulated Exterior Mass Floor R-15.63.",
               "Adding construction Typical Insulated Exterior Mass Wall R-12.5.",
               "Adding construction Typical Insulated Metal Building Roof R-20.41.",
               "Adding construction Typical Interior Floor.",
               "Adding construction Typical Interior Wall.",
               "Adding construction Typical Interior Ceiling.",
               "Adding construction Typical Insulated Carpeted 6in Slab Floor.",
               "Adding construction U 0.55 SHGC 0.31 Dbl Ref-D Tint 6mm/6mm Air.",
               "Adding construction Typical Insulated Metal Door R-1.43.",
               "Adding construction U 0.35 SHGC 0.35 Dbl LoE (e2-.1) Tint 6mm/13mm Air.",
               "Adding construction Typical Overhead Door R-2.0.",
               "Adding construction U 0.48 SHGC 0.40 Dbl Ref-D Clr 6mm/13mm.",
               "Adding construction Typical Interior Window.",
               "Adding construction Typical Interior Door.",
               "Adding construction Typical Interior Partition.",
               "Finished applying constructions",
               "WWR NonRes = 0%; window = 0 ft2, wall = 0 ft2.",
               "WWR Res = 0%; window = 0 ft2, wall = 0 ft2.",
               "WWR Semiheated = 0%; window = 0 ft2, wall = 0 ft2.",
               "The skylight to roof ratios (SRRs) are: NonRes: 0%, Res: 0%.",
               "Started creating thermal zones",
               "Finished creating thermal zones",
               "Running simulation /mnt/openstudio/analysis_4fef0e0f-5396-4c55-a6e1-2cd6803db3ab/data_point_281236a0-ed75-4a96-83de-b624ae0cd476/run/000_create_prototype_building/output/SmallOffice-NECB 2011-NECB HDD Method-CAN_AB_Calgary.718770_CWEC.epw/SR0.",
               "Finished run.",
               "Started Adding HVAC",
               "Finished adding HVAC",
               "Started Adding Service Water Heating",
               "Adding service water loop.",
               "Adding water heater.",
               "Template =",
               "Finished adding Service Water Heating",
               "Set sizing factors to 1.3 for heating and 1.3 for cooling.",
               "Running simulation /mnt/openstudio/analysis_4fef0e0f-5396-4c55-a6e1-2cd6803db3ab/data_point_281236a0-ed75-4a96-83de-b624ae0cd476/run/000_create_prototype_building/output/SmallOffice-NECB 2011-NECB HDD Method-CAN_AB_Calgary.718770_CWEC.epw/SR1.",
               "Finished run.",
               "Started applying multizone vav OA sizing.",
               "Finished applying multizone vav OA sizing.",
               "Started applying prototype HVAC assumptions.",
               "For Fan Constant Volume 1: allowed_hp = 1.01HP; motor eff = 61.5%; total fan eff = 40% based on 577 cfm.",
               "For Fan Constant Volume 2: allowed_hp = 1.01HP; motor eff = 61.5%; total fan eff = 40% based on 716 cfm.",
               "For Fan Constant Volume 3: allowed_hp = 1.01HP; motor eff = 61.5%; total fan eff = 40% based on 787 cfm.",
               "For Fan Constant Volume 4: allowed_hp = 1.01HP; motor eff = 61.5%; total fan eff = 40% based on 791 cfm.",
               "For Fan Constant Volume 5: allowed_hp = 1.01HP; motor eff = 61.5%; total fan eff = 40% based on 629 cfm.",
               "Sp-Perimeter_ZN_3 Sys-3 Flr-1 Sch-A HPlcmt-north ZN NECB System 3 PSZ does not require an economizer because the total cooling capacity of 15385 Btu/hr is less than the minimum capacity of 68243 Btu/hr.",
               "Sp-Perimeter_ZN_2 Sys-3 Flr-1 Sch-A HPlcmt-east ZN NECB System 3 PSZ does not require an economizer because the total cooling capacity of 19093 Btu/hr is less than the minimum capacity of 68243 Btu/hr.",
               "Sp-Core_ZN Sys-3 Flr-1 Sch-A HPlcmt-core ZN NECB System 3 PSZ does not require an economizer because the total cooling capacity of 16771 Btu/hr is less than the minimum capacity of 68243 Btu/hr.",
               "Sp-Perimeter_ZN_1 Sys-3 Flr-1 Sch-A HPlcmt-south ZN NECB System 3 PSZ does not require an economizer because the total cooling capacity of 21080 Btu/hr is less than the minimum capacity of 68243 Btu/hr.",
               "Sp-Perimeter_ZN_4 Sys-3 Flr-1 Sch-A HPlcmt-west ZN NECB System 3 PSZ does not require an economizer because the total cooling capacity of 20980 Btu/hr is less than the minimum capacity of 68243 Btu/hr.",
               "Finished applying prototype HVAC assumptions.",
               "Started applying HVAC efficiency standards.",
               "For Sp-Core_ZN Sys-3 Flr-1 Sch-A HPlcmt-core ZN NECB System 3 PSZ, ERV not required based on 0% OA flow, design supply air flow of 629cfm, and climate zone NECB HDD Method.",
               "For Sp-Core_ZN Sys-3 Flr-1 Sch-A HPlcmt-core ZN NECB System 3 PSZ, ERV not required based on exhaust heat content.",
               "For NECB 2011 NECB HDD Method:  Sp-Core_ZN Sys-3 Flr-1 Sch-A HPlcmt-core ZN NECB System 3 PSZ: DCV is not required for any system.",
               "For Sp-Core_ZN Sys-3 Flr-1 Sch-A HPlcmt-core ZN NECB System 3 PSZ: Unoccupied fan shutoff not required because system fan HP of 0.64 HP is less than the minimum threshold of 0.75 HP.",
               "For Sp-Core_ZN Sys-3 Flr-1 Sch-A HPlcmt-core ZN NECB System 3 PSZ: Setting motorized OA damper schedule to Always On Discrete.",
               "For Sp-Perimeter_ZN_1 Sys-3 Flr-1 Sch-A HPlcmt-south ZN NECB System 3 PSZ, ERV not required based on 0% OA flow, design supply air flow of 791cfm, and climate zone NECB HDD Method.",
               "For Sp-Perimeter_ZN_1 Sys-3 Flr-1 Sch-A HPlcmt-south ZN NECB System 3 PSZ, ERV not required based on exhaust heat content.",
               "For NECB 2011 NECB HDD Method:  Sp-Perimeter_ZN_1 Sys-3 Flr-1 Sch-A HPlcmt-south ZN NECB System 3 PSZ: DCV is not required for any system.",
               "For Sp-Perimeter_ZN_1 Sys-3 Flr-1 Sch-A HPlcmt-south ZN NECB System 3 PSZ: Annual occupied hours = 2860 hr/yr, assuming a 0.15 occupancy threshold.  This schedule will be used as the HVAC operation schedule.",
               "For Sp-Perimeter_ZN_1 Sys-3 Flr-1 Sch-A HPlcmt-south ZN NECB System 3 PSZ: Setting motorized OA damper schedule to Sp-Perimeter_ZN_1 Sys-3 Flr-1 Sch-A HPlcmt-south ZN NECB System 3 PSZ Occ Sch.",
               "For Sp-Perimeter_ZN_2 Sys-3 Flr-1 Sch-A HPlcmt-east ZN NECB System 3 PSZ, ERV not required based on 0% OA flow, design supply air flow of 716cfm, and climate zone NECB HDD Method.",
               "For Sp-Perimeter_ZN_2 Sys-3 Flr-1 Sch-A HPlcmt-east ZN NECB System 3 PSZ, ERV not required based on exhaust heat content.",
               "For NECB 2011 NECB HDD Method:  Sp-Perimeter_ZN_2 Sys-3 Flr-1 Sch-A HPlcmt-east ZN NECB System 3 PSZ: DCV is not required for any system.",
               "For Sp-Perimeter_ZN_2 Sys-3 Flr-1 Sch-A HPlcmt-east ZN NECB System 3 PSZ: Unoccupied fan shutoff not required because system fan HP of 0.73 HP is less than the minimum threshold of 0.75 HP.",
               "For Sp-Perimeter_ZN_2 Sys-3 Flr-1 Sch-A HPlcmt-east ZN NECB System 3 PSZ: Setting motorized OA damper schedule to Always On Discrete.",
               "For Sp-Perimeter_ZN_3 Sys-3 Flr-1 Sch-A HPlcmt-north ZN NECB System 3 PSZ, ERV not required based on 0% OA flow, design supply air flow of 577cfm, and climate zone NECB HDD Method.",
               "For Sp-Perimeter_ZN_3 Sys-3 Flr-1 Sch-A HPlcmt-north ZN NECB System 3 PSZ, ERV not required based on exhaust heat content.",
               "For NECB 2011 NECB HDD Method:  Sp-Perimeter_ZN_3 Sys-3 Flr-1 Sch-A HPlcmt-north ZN NECB System 3 PSZ: DCV is not required for any system.",
               "For Sp-Perimeter_ZN_3 Sys-3 Flr-1 Sch-A HPlcmt-north ZN NECB System 3 PSZ: Unoccupied fan shutoff not required because system fan HP of 0.58 HP is less than the minimum threshold of 0.75 HP.",
               "For Sp-Perimeter_ZN_3 Sys-3 Flr-1 Sch-A HPlcmt-north ZN NECB System 3 PSZ: Setting motorized OA damper schedule to Always On Discrete.",
               "For Sp-Perimeter_ZN_4 Sys-3 Flr-1 Sch-A HPlcmt-west ZN NECB System 3 PSZ, ERV not required based on 0% OA flow, design supply air flow of 787cfm, and climate zone NECB HDD Method.",
               "For Sp-Perimeter_ZN_4 Sys-3 Flr-1 Sch-A HPlcmt-west ZN NECB System 3 PSZ, ERV not required based on exhaust heat content.",
               "For NECB 2011 NECB HDD Method:  Sp-Perimeter_ZN_4 Sys-3 Flr-1 Sch-A HPlcmt-west ZN NECB System 3 PSZ: DCV is not required for any system.",
               "For Sp-Perimeter_ZN_4 Sys-3 Flr-1 Sch-A HPlcmt-west ZN NECB System 3 PSZ: Annual occupied hours = 2860 hr/yr, assuming a 0.15 occupancy threshold.  This schedule will be used as the HVAC operation schedule.",
               "For Sp-Perimeter_ZN_4 Sys-3 Flr-1 Sch-A HPlcmt-west ZN NECB System 3 PSZ: Setting motorized OA damper schedule to Sp-Perimeter_ZN_4 Sys-3 Flr-1 Sch-A HPlcmt-west ZN NECB System 3 PSZ Occ Sch.",
               "For Fan Constant Volume 1: motor nameplate = 0.3595141891173163HP, motor eff = 61.5%.",
               "For Fan Constant Volume 2: motor nameplate = 0.4461474459787245HP, motor eff = 61.5%.",
               "For Fan Constant Volume 3: motor nameplate = 0.49024361805135935HP, motor eff = 61.5%.",
               "For Fan Constant Volume 4: motor nameplate = 0.49257682858505675HP, motor eff = 61.5%.",
               "For Fan Constant Volume 5: motor nameplate = 0.39188761744976547HP, motor eff = 61.5%.",
               "For Service Water Loop Pump: brake hp = 0.0HP, motor nameplate = 0.1HP, motor eff = 70.0%.",
               "For Pump Variable Speed 1: brake hp = 0.11HP, motor nameplate = 1.0HP, motor eff = 85.5%.",
               "For NECB 2011: Coil Cooling DX Single Speed 1: AirCooled All Other Single Package Capacity = 15kBtu/hr; SEER = 14.0",
               "For NECB 2011: Coil Cooling DX Single Speed 2: AirCooled All Other Single Package Capacity = 19kBtu/hr; SEER = 14.0",
               "For NECB 2011: Coil Cooling DX Single Speed 3: AirCooled All Other Single Package Capacity = 21kBtu/hr; SEER = 14.0",
               "For NECB 2011: Coil Cooling DX Single Speed 4: AirCooled All Other Single Package Capacity = 21kBtu/hr; SEER = 14.0",
               "For NECB 2011: Coil Cooling DX Single Speed 5: AirCooled All Other Single Package Capacity = 17kBtu/hr; SEER = 14.0",
               "For NECB 2011: Primary Boiler: Gas Hot Water Capacity = 85kBtu/hr; AFUE = 0.85",
               "For NECB 2011: Secondary Boiler: Gas Hot Water Capacity = 0kBtu/hr; AFUE = 0.85",
               "For NECB 2011: 40.0gal NaturalGas Water Heater - 40kBtu/hr 0.82 Therm Eff; thermal efficiency = 0.82, skin-loss UA = 6Btu/hr",
               "Finished applying HVAC efficiency standards.",
               "Started adding daylighting controls.",
               "For Attic, daylighting control not applicable because no exterior fenestration is present.",
               "For Core_ZN, daylighting control not applicable because no exterior fenestration is present.",
               "Finished adding daylighting controls.",
               "Total Time = 47sec."
            ],
            "step_result" : "Success",
            "step_values" : [
               {
                  "name" : "building_type",
                  "value" : "SmallOffice"
               },
               {
                  "name" : "template",
                  "value" : "NECB 2011"
               },
               {
                  "name" : "climate_zone",
                  "value" : "NECB HDD Method"
               },
               {
                  "name" : "epw_file",
                  "value" : "CAN_AB_Calgary.718770_CWEC.epw"
               }
            ],
            "step_warnings" : [
               "[openstudio.EpwFile] Successive data points (1988-Jan-31 to 1980-Feb-01, ending on line 753) are greater than 1 day apart in EPW file '/usr/local/bundle/bundler/gems/openstudio-standards-f448df66933d/openstudio-standards/data/weather/CAN_AB_Calgary.718770_CWEC.epw'. Data will be treated as typical (TMY)",
               "[openstudio.EpwFile] Successive data points (1988-Jan-31 to 1980-Feb-01, ending on line 753) are greater than 1 day apart in EPW file '/usr/local/bundle/bundler/gems/openstudio-standards-f448df66933d/openstudio-standards/data/weather/CAN_AB_Calgary.718770_CWEC.epw'. Data will be treated as typical (TMY)",
               "[openstudio.weather.Model] Could not find ground temperatures; will use generic temperatures, which will skew results.",
               "[openstudio.EpwFile] Successive data points (1988-Jan-31 to 1980-Feb-01, ending on line 753) are greater than 1 day apart in EPW file '/usr/local/bundle/bundler/gems/openstudio-standards-f448df66933d/openstudio-standards/data/weather/CAN_AB_Calgary.718770_CWEC.epw'. Data will be treated as typical (TMY)",
               "[openstudio.EpwFile] Successive data points (1988-Jan-31 to 1980-Feb-01, ending on line 753) are greater than 1 day apart in EPW file '/usr/local/bundle/bundler/gems/openstudio-standards-f448df66933d/openstudio-standards/data/weather/CAN_AB_Calgary.718770_CWEC.epw'. Data will be treated as typical (TMY)",
               "[openstudio.standards.Fan] For Fan Constant Volume 1, there is no greater nominal HP.  Use the efficiency of the largest motor category.",
               "[openstudio.standards.Fan] For Fan Constant Volume 2, there is no greater nominal HP.  Use the efficiency of the largest motor category.",
               "[openstudio.standards.Fan] For Fan Constant Volume 3, there is no greater nominal HP.  Use the efficiency of the largest motor category.",
               "[openstudio.standards.Fan] For Fan Constant Volume 4, there is no greater nominal HP.  Use the efficiency of the largest motor category.",
               "[openstudio.standards.Fan] For Fan Constant Volume 5, there is no greater nominal HP.  Use the efficiency of the largest motor category.",
               "[openstudio.EpwFile] Successive data points (1988-Jan-31 to 1980-Feb-01, ending on line 753) are greater than 1 day apart in EPW file '/usr/local/bundle/bundler/gems/openstudio-standards-f448df66933d/openstudio-standards/data/weather/CAN_AB_Calgary.718770_CWEC.epw'. Data will be treated as typical (TMY)",
               "[openstudio.EpwFile] Successive data points (1988-Jan-31 to 1980-Feb-01, ending on line 753) are greater than 1 day apart in EPW file '/usr/local/bundle/bundler/gems/openstudio-standards-f448df66933d/openstudio-standards/data/weather/CAN_AB_Calgary.718770_CWEC.epw'. Data will be treated as typical (TMY)",
               "[openstudio.EpwFile] Successive data points (1988-Jan-31 to 1980-Feb-01, ending on line 753) are greater than 1 day apart in EPW file '/usr/local/bundle/bundler/gems/openstudio-standards-f448df66933d/openstudio-standards/data/weather/CAN_AB_Calgary.718770_CWEC.epw'. Data will be treated as typical (TMY)",
               "[openstudio.EpwFile] Successive data points (1988-Jan-31 to 1980-Feb-01, ending on line 753) are greater than 1 day apart in EPW file '/usr/local/bundle/bundler/gems/openstudio-standards-f448df66933d/openstudio-standards/data/weather/CAN_AB_Calgary.718770_CWEC.epw'. Data will be treated as typical (TMY)",
               "[openstudio.EpwFile] Successive data points (1988-Jan-31 to 1980-Feb-01, ending on line 753) are greater than 1 day apart in EPW file '/usr/local/bundle/bundler/gems/openstudio-standards-f448df66933d/openstudio-standards/data/weather/CAN_AB_Calgary.718770_CWEC.epw'. Data will be treated as typical (TMY)",
               "[openstudio.standards.Fan] For Fan Constant Volume 1, there is no greater nominal HP.  Use the efficiency of the largest motor category.",
               "[openstudio.standards.Fan] For Fan Constant Volume 2, there is no greater nominal HP.  Use the efficiency of the largest motor category.",
               "[openstudio.standards.Fan] For Fan Constant Volume 3, there is no greater nominal HP.  Use the efficiency of the largest motor category.",
               "[openstudio.standards.Fan] For Fan Constant Volume 4, there is no greater nominal HP.  Use the efficiency of the largest motor category.",
               "[openstudio.standards.Fan] For Fan Constant Volume 5, there is no greater nominal HP.  Use the efficiency of the largest motor category."
            ]
         }
      },
      {
         "arguments" : {
            "__SKIP__" : false
         },
         "measure_dir_name" : "view_model",
         "name" : "view_model",
         "result" : {
            "completed_at" : "20170710T182434Z",
            "measure_class_name" : "ViewModel",
            "measure_display_name" : "ViewModel",
            "measure_name" : "view_model",
            "measure_taxonomy" : "Reporting.QAQC",
            "measure_type" : "ModelMeasure",
            "measure_uid" : "f4669f10-fda5-489d-8e1c-7ca3c2d40378",
            "measure_version_id" : "f4975c5f-7c25-42a2-927b-02d99b4427ef",
            "measure_version_modified" : "20170526T150340Z",
            "measure_xml_checksum" : "1E1F8B97",
            "started_at" : "20170710T182434Z",
            "stderr" : "",
            "stdout" : "[OpenStudio.Measure] <0> OSArgumentVector is deprecated, use OpenStudio::Measure::OSArgumentVector instead.\n",
            "step_errors" : [],
            "step_files" : [
               "/mnt/openstudio/analysis_4fef0e0f-5396-4c55-a6e1-2cd6803db3ab/data_point_281236a0-ed75-4a96-83de-b624ae0cd476/run/001_view_model/report.html",
               "/mnt/openstudio/analysis_4fef0e0f-5396-4c55-a6e1-2cd6803db3ab/data_point_281236a0-ed75-4a96-83de-b624ae0cd476/run/001_view_model/report.json"
            ],
            "step_final_condition" : "Report written to <a href='file:////mnt/openstudio/analysis_4fef0e0f-5396-4c55-a6e1-2cd6803db3ab/data_point_281236a0-ed75-4a96-83de-b624ae0cd476/run/001_view_model/report.html'>report.html</a>.",
            "step_info" : [ "No changes made to the model." ],
            "step_result" : "NA",
            "step_values" : [
               {
                  "name" : "view_model_html_zip",
[...]
Zycxuh52pDy4hj+ehz2ZuGPGX08CN264Y8reSR7ny2Vn6mVJnFk/RVswumlAE/PURdKq+2ZWeClBlu8wfRTYLdEAHdEAHdEAHdEAHdEAHdEBn4+ncV/0QjEI+BhuwARuwARuwARuwARuwARuwAZt8Nvd0kgQboXsEOqADOqADOqADOqADOqADOqADOmXoqGuApb+wZZpeYAqmYAqmYAqmYAqmYAqmYAqmYAqmYLoZTAvFFFOmmTgimIIpmIIpmIIpmIIpmIIpmIIpmIIpmG4GUy0F1pR1pqgK1mAN1mAN1mAN1mAN1mAN1mAN1mAN1mD9iKyXtMahe90uBLuxYi+e8pMLd8atmN/E7WevgnkYFdO4vX/nB34546Ebz0PO2i+3BEYByM4OOxyPmctSLHbtxRcsCi45G/cK7oyuJpY7m4kDRVrCemur4IZlsdw4DrMjZIZdzZvEgS+O+k1RfCvOXRH0tl1/dBGErbvDTjQxzgM/3r7m3uQiFhhnwXSsjpE9nbfHR79sH25/uODhZRDFbsxOeDwLvAT4FXdjz58828p7Xi92olHozeKfpde82Bl7Vw9XS++RgyVYzBsftEbCnY+S9ruez8NTx2mxtFMOWmMvmk3d2+eeL87D2T6bBqMvP7Xk/BLQrAksvp0l94t+2fnsXrnZp7l3ipIe0nM1YQfLs3h8fn1yNWm3frjPscP64mib5E9hJK0c6PLx71OivpHyk52javfSM8BGYvgRJz5lan9r503lIDlkSD0ypD4Z0oAMaUiGtEuGtEeGtE+GtHb4piEUnZfbdG5u0/m5TefoNp2n23SubtP5uk3n7Dadtzt03u4Qjul03u7Qebuj6e33hZcUM2DIxxpAOX2lB5TTU3pAOf2kB5QzJugB5YwIekA544EeUM5ooAeUMxboAeUlPk0kMt/OS3uaSGTenZf0NJHI/Dsv5WkikXl4XsLTRCLz8bx0p4lEN36T+XhertNE0vHxe8IXimlOaGNoIOV0kyZSTjdpIuV0kyZSzlCgiZQzFGgi5QwFmkg5Q4EmUs5QoImUl+90oei8PC/j6ULR+XleztOFovP0vKynC0Xn63l5TxeKztvzMp8uFOGYTufteclPF6rQ23EYPQ6jXwAp3IbD6O8VHEavQguH0eMw+jIFh9GLgsPocRh9WnAYff6VOIy+GEAUHEa/GWc2gg7ogA7ogA7ogA7ogA7ogA7obDydJ3aUI9iADdiADdiADdiADdiADdiAzeaweVpnNoIO6IAO6IAO6IAO6IAO6IAO6DwpOo8oznY4ir0rL759za/4lLX/DXm2pyjPtnhIm6HE1tsAJbZebUpsXas7IBFiMwLqUQH1qYAGVEBDKqBdKqA9KqB9KqC1fflmSGS+bZM5t03m3TaZe9tk/m2TObhN5uE2mYvbZD7ukPm4Qzd+k/m4Q+bjjp6PqyuurWOVF1wzwZH3Unm5NRMc+ShQXmzNBEc+ApSXWjPBkUe/gdCaERCVR+ekNwOVNSMgKqfOyW0GEmtGQFR+nZPYDPTVjEZGKs/OyWoG4mpGQFSenZPSyiurreMYCKsZAcm7yEBWzQhIHvwGompGQPLgN5BUMwKSB7+JoJoZEplv52Q2EzU1MyQy985JbiZSamZIZB6ek99MdNTMxkoyH89JcSYiamZIZD6ek+WgoAYFNSio3WMIBTVRoKAGBTUoqOUUKKhBQU2rVVBQW7OvcT0U1FYLFNTuSgULtp6Y0ADogA7ogA7ogA7ogA7ogA7ogM7G03li+gNgAzZgAzZgAzZgAzZgAzZgAzabw+a70T0AHdABHdABHdABHdABHdABHdApb+8RFNQgmPakBNNORhd8PE96WWyHinjM7O5myKb1N0A2rV+bbNow3RRaVuKGCqhHBdSnAhpQAQ2pgHapgPaogPapgNZ235shkfm2TebcNpl322TubZP5t03m4DaZh9tkLm6T+bhD5uMO3fhN5uMOmY87ej6uLpu2jlVeNs0ER95L5WXTTHDko0B52TQTHPkIUF42zQRHHv0GsmlGQFQenZPeDGTTjIConDontxnIphkBUfl1TmIzkE0zGhmpPDsnqxnIphkBUXl2TkorL5u2jmMgm2YEJO8iA9k0IyB58BvIphkByYPfQDbNCEge/CayaWZIZL6dk9lMZNPMkMjcOye5mcimmSGReXhOfjORTTMbK8l8PCfFmcimmSGR+XhOloNsGmTTIJt2jyFk00SBbBpk0yCbllMgmwbZNK1WQTZtzb7G9ZBNWy2QTbsrFazSemLqAqADOqADOqADOqADOqADOqADOhtP54mJDoAN2IAN2IAN2IAN2IAN2IAN2GwOm+9G7AB0QAd0QAd0QAd0QAd0QAd0QKe8PcimLQpk0+5k0+zNkE0bbIBs2qA22bSu5ZCoppng9Ihw+kQ4AyKcIRHOLhHOHhHOPhHO2qZ7IyAqj7apXNqm8mmbyqltKq+2qdzapvJrm8qxbSrPdqg82yEbq6k826HybEfLs9Xl0dagyqujGcBIe6i8NpoBjDTuyyujGcBIY768LpoBjDTeDVTRTHCI/Fiexgwk0UxwiFxZnsMM9NBMcIi8WZ7ADMTQTMZBIn+WZy8DJTQTHCJ/lqeu8jJoazAGKmgmONLuMdBAM8GRhruBApoJjjTcDfTPTHCk4W6ifmYEROXR8gxmIn1mBETl1PIkZqJ7ZgRE5dfyPGYiemY0MlJ5tjyVmSieGQFRebY8m0HuDHJnkDu7xxByZ6JA7gxyZ5A7yymQO4PcmVarIHe2Zl/jesidrRbInd2VClZXPTFVANABHdABHdABHdABHdABHdABnY2n88TEAsAGbMAGbMAGbMAGbMAGbMAGbDaHzXcjUgA6oAM6oAM6oAM6oAM6oAM6oFPeHuTOFgVyZ3dyZ85myJ0NN0DubFij3Fl3QKR3ZgDUowLqUwENqICGVEC7VEB7VED7VEDfbLc3QSLzbZvMuW0y77bJ3Nsm82+bzMFtMg+3yVzcJvNxh8zHHbrxm8zHHTIfd/R8XEcGbRXLRAetPI68l0yU0MrjyEcBEy208jjyEcBEDa08jjz6jfTQDICoPDonvRlJohkAUTl1Tm4zUkUzAKLy65zEZiSMZjAyUnl2TlYz0kYzAKLy7JyUZiKPtopjpI9mACTvIiOFNAMgefAbaaQZAMmD30glzQBIHvxmOmkmSGS+nZPZzKTSTJDI3DsnuZmppZkgkXl4Tn4zE0wzGSvJfDwnxZlpppkgkfl4TpaDbBpk0yCbdo8hZNNEgWwaZNMgm5ZTIJsG2TStVkE2bc2+xvWQTVstkE27KxWs0npi6gKgAzqgAzqgAzqgAzqgAzqgAzobT+eJiQ6ADdiADdiADdiADdiADdiADdhsDpvvRuwAdEAHdEAHdEAHdEAHdEAHdECnvD3Ipi0KZNPuZNN6myGbtrsBsmm7tcmmDdNNoWUlbqiAelRAfSqgARXQkApolwpojwponwpobfe9GRKZb9tkzm2TebdN5t42mX/bZA5uk3m4TebiNpmPO2Q+7tCN32Q+7pD5uKPn4+qyaetY5WXTTHDkvVReNs0ERz4KlJdNM8GRjwDlZdNMcOTRbyCbZgRE5dE56c1ANs0IiMqpc3KbgWyaERCVX+ckNgPZNKORkcqzc7KagWyaERCVZ+ektPKyaes4BrJpRkDyLjKQTTMCkge/gWyaEZA8+A1k04yA5MFvIptmhkTm2zmZzUQ2zQyJzL1zkpuJbJoZEpmH5+Q3E9k0s7GSzMdzUpyJbJoZEpmP52Q5yKZBNg2yafcYQjZNFMimQTYNsmk5BbJpkE3TahVk09bsa1wP2bTVAtm0u1LBKq0npi4AOqADOqADOqADOqADOqADOqCz8XSemOgA2IAN2IAN2IAN2IAN2IAN2IDN5rD5bsQOQAd0QAd0QAd0QAd0QAd0QAd0ytuDbNqiQDbtTjatvxmyaXsbIJu2V5tsWtdySFTTTHB6RDh9IpwBEc6QCGeXCGePCGefCGdt070REJVH21QubVP5tE3l1DaVV9tUbm1T+bVN5dg2lWc7VJ7tkI3VVJ7tUHm2o+XZ6vJoa1Dl1dEMYKQ9VF4bzQBGGvflldEMYKQxX14XzQBGGu8GqmgmOER+LE9jBpJoJjhErizPYQZ6aCY4RN4sT2AGYmgm4yCRP8uzl4ESmgkOkT/LU1d5GbQ1GAMVNBMcafcYaKCZ4EjD3UABzQRHGu4G+mcmONJwN1E/MwKi8mh5BjORPjMConJqeRIz0T0zAqLya3keMxE9MxoZqTxbnspMFM+MgKg8W57NIHcGuTPInd1jCLkzUSB3BrkzyJ3lFMidQe5Mq1WQO1uzr3E95M5WC+TO7koFq6uemCoA6IAO6IAO6IAO6IAO6IAO6IDOxtN5YmIBYAM2YAM2YAM2YAM2YAM2YAM2m8PmuxEpAB3QAR3QAR3QAR3QAR3QAR3QKW8PcmeLArmzO7mzwWbIne1vgNzZfo1yZ90Bkd6ZAVCPCqhPBTSgAhpSAe1SAe1RAe1TAX2z3d4Eicy3bTLntsm82yZzb5vMv20yB7fJPNwmc3GbzMcdMh936MZvMh93yHzc0fNxHRm0VSwTHbTyOPJeMlFCK48jHwVMtNDK48hHABM1tPI48ug30kMzAKLy6Jz0ZiSJZgBE5dQ5uc1IFc0AiMqvcxKbkTCawchI5dk5Wc1IG80AiMqzc1KaiTzaKo6RPpoBkLyLjBTSDIDkwW+kkWYAJA9+I5U0AyB58JvppJkgkfl2TmYzk0ozQSJz75zkZqaWZoJE5uE5+c1MMM1krCTz8ZwUZ6aZZoJE5uM5WQ6yaZBNg2zaPYaQTRMFsmmQTYNsWk6BbBpk07RaBdm0Nfsa10M2bbVANu2uVLBK64mpC4AO6IAO6IAO6IAO6IAO6IAO6Gw8nScmOgA2YAM2YAM2YAM2YAM2YAM2YLM5bL4bsQPQAR3QAR3QAR3QAR3QAR3QAZ3y9iCbtiiQTbuTTRtuhGxar/v0ZdMSjnXJpg3TTaFlJW6ogHpUQH0qoAEV0JAKaJcKaI8KaJ8KaG33vRkSmW/bZM5tk3m3TebeNpl/22QObpN5uE3m4jaZjztkPu7Qjd9kPu6Q+bij5+PqsmnrWOVl00xw5L1UXjbNBEc+CpSXTTPBkY8A5WXTTHDk0W8gm2YEROXROenNQDbNCIjKqXNym4FsmhEQlV/nJDYD2TSjkZHKs3OymoFsmhEQlWfnpLTysmnrOAayaUZA8i4ykE0zApIHv4FsmhGQPPgNZNOMgOTBbyKbZoZE5ts5mc1ENs0Micy9c5KbiWyaGRKZh+fkNxPZNLOxkszHc1KciWyaGRKZj+dkOcimQTYNsmn3GEI2TRTIpkE2DbJpOQWyaZBN02oVZNPW7GtcD9m01QLZtLtSwSqtJ6YuADqgAzqgAzqgAzqgAzqgAzqgs/F0npjoANiADdiADdiADdiADdiADdiAzeaw+W7EDkAHdEAHdEAHdEAHdEAHdEAHdMrbg2zaokA27U42bXczZNPsDZBNs2uTTetaDolqmglOjwinT4QzIMIZEuHsEuHsEeHsE+Gsbbo3AqLyaJvKpW0qn7apnNqm8mqbyq1tKr+2qRzbpvJsh8qzHbKxmsqzHSrPdrQ8W10ebQ2qvDqaAYy0h8proxnASOO+vDKaAYw05svrohnASOPdQBXNBIfIj+VpzEASzQSHyJXlOcxAD80Eh8ib5QnMQAzNZBwk8md59jJQQjPBIfJneeoqL4O2BmOggmaCI+0eAw00ExxpuBsooJngSMPdQP/MBEca7ibqZ0ZAVB4tz2Am0mdGQFROLU9iJrpnRkBUfi3PYyaiZ0YjI5Vny1OZieKZERCVZ8uzGeTOIHcGubN7DCF3JgrkziB3BrmznAK5M8idabUKcmdr9jWuh9zZaoHc2V2pYHXVE1MFAB3QAR3QAR3QAR3QAR3QAR3Q2Xg6T0wsAGzABmzABmzABmzABmzABmzAZnPYfDciBaADOqADOqADOqADOqADOqADOuXtQe5sUSB3tpQ7622G2pmzAWpnTo1qZ90BkdyZAVCPCqhPBTSgAhpSAe1SAe1RAe1TAX2z294Eicy3bTLntsm82yZzb5vMv20yB7fJPNwmc3GbzMcdMh936MZvMh93yHzc0fNxHRW0VSwTGbTyOPJeMhFCK48jHwVMpNDK48hHABMxtPI48ug3kkMzAKLy6Jz0ZqSIZgBE5dQ5uc1IFM0AiMqvcxKbkS6awchI5dk5Wc1IGs0AiMqzc1KaiTraKo6RPJoBkLyLjATSDIDkwW8kkWYAJA9+I5E0AyB58JvJpJkgkfl2TmYzU0ozQSJz75zkZiaWZoJE5uE5+c1ML81krCTz8ZwUZyaZZoJE5uM5WQ6qaVBNg2raPYZQTRMFqmlQTYNqWk6BahpU07RaBdW0Nfsa10M1bbVANe2uVLBI64mJC4AO6IAO6IAO6IAO6IAO6IAO6Gw8nSemOQA2YAM2YAM2YAM2YAM2YAM2YLM5bL4brQPQAR3QAR3QAR3QAR3QAR3QAZ3y9qCatihQTVuqpvU3QzWttwGqab3aVNOG6Z7Qsgo3VEA9KqA+FdCACmhIBbRLBbRHBbRPBbS2+d4Micy3bTLntsm82yZzb5vMv20yB7fJPNwmc3GbzMcdMh936MZvMh93yHzc0fNxddW0dazyqmkmOPJeKq+aZoIjHwXKq6aZ4MhHgPKqaSY48ug3UE0zAqLy6Jz0ZqCaZgRE5dQ5uc1ANc0IiMqvcxKbgWqa0chI5dk5Wc1ANc0IiMqzc1JaedW0dRwD1TQjIHkXGaimGQHJg99ANc0ISB78BqppRkDy4DdRTTNDIvPtnMxmoppmhkTm3jnJzUQ1zQyJzMNz8puJaprZWEnm4zkpzkQ1zQyJzMdzshxU06CaBtW0ewyhmiYKVNOgmgbVtJwC1TSopmm1Cqppa/Y1rodq2mqBatpdqWCR1hMTFwAd0AEd0AEd0AEd0AEd0AEd0Nl4Ok9McwBswAZswAZswAZswAZswAZswGZz2Hw3WgegAzqgAzqgAzqgAzqgAzqgAzrl7UE1bVGgmrZUTRtshmpafwNU0/q1qaZ1LYdENM0Ep0eE0yfCGRDhDIlwdolw9ohw9olw1vbcGwFRebRN5dI2lU/bVE5tU3m1TeXWNpVf21SObVN5tkPl2Q7ZWE3l2Q6VZztanq2ujrYGVV4czQBG2kPlpdEMYKRxX14YzQBGGvPlZdEMYKTxbiCKZoJD5MfyNGagiGaCQ+TK8hxmIIdmgkPkzfIEZqCFZjIOEvmzPHsZCKGZ4BD5szx1lVdBW4MxEEEzwZF2j4EEmgmONNwNBNBMcKThbiB/ZoIjDXcT8TMjICqPlmcwE+UzIyAqp5YnMRPZMyMgKr+W5zETzTOjkZHKs+WpzETwzAiIyrPl2QxqZ1A7g9rZPYZQOxMFamdQO4PaWU6B2hnUzrRaBbWzNfsa10PtbLVA7eyuVLC46omJAoAO6IAO6IAO6IAO6IAO6IAO6Gw8nSemFQA2YAM2YAM2YAM2YAM2YAM2YLM5bL4bjQLQAR3QAR3QAR3QAR3QAR3QAZ3y9qB2tihQO1uqnQ03Q+1ssAFqZ4Ma1c66AyK5MwOgHhVQnwpoQAU0pALapQLaowLapwL6Zre9CRKZb9tkzm2TebdN5t42mX/bZA5uk3m4TebiNpmPO2Q+7tCN32Q+7pD5uKPn4zoqaKtYJjJo5XHkvWQihFYeRz4KmEihlceRjwAmYmjlceTRbySHZgBE5dE56c1IEc0AiMqpc3KbkSiaARCVX+ckNiNdNIORkcqzc7KakTSaARCVZ+ekNBN1tFUcI3k0AyB5FxkJpBkAyYPfSCLNAEge/EYiaQZA8uA3k0kzQSLz7ZzMZqaUZoJE5t45yc1MLM0EiczDc/KbmV6ayVhJ5uM5Kc5MMs0EiczHc7IcVNOgmgbVtHsMoZomClTToJoG1bScAtU0qKZptQqqaWv2Na6HatpqgWraXalgkdYTExcAHdABHdABHdABHdABHdABHdDZeDpPTHMAbMAGbMAGbMAGbMAGbMAGbMBmc9h8N1oHoAM6oAM6oAM6oAM6oAM6oAM65e1BNW1RoJq2VE3b3QzVtOEGqKYNa1NNG6Z7Qssq3FAB9aiA+lRAAyqgIRXQLhXQHhXQPhXQ2uZ7MyQy37bJnNsm826bzL1tMv+2yRzcJvNwm8zFbTIfd8h83KEbv8l83CHzcUfPx9VV09axyqummeDIe6m8apoJjnwUKK+aZoIjHwHKq6aZ4Mij30A1zQiIyqNz0puBapoREJVT5+Q2A9U0IyAqv85JbAaqaUYjI5Vn52Q1A9U0IyAqz85JaeVV09ZxDFTTjIDkXWSgmmYEJA9+A9U0IyB58BuophkByYPfRDXNDInMt3Mym4lqmhkSmXvnJDcT1TQzJDIPz8lvJqppZmMlmY/npDgT1TQzJDIfz8lyUE2DahpU0+4xhGqaKFBNg2oaVNNyClTToJqm1Sqopq3Z17geqmmrBappd6WCRVpPTFwAdEAHdEAHdEAHdEAHdEAHdEBn4+k8Mc0BsAEbsAEbsAEbsAEbsAEbsAGbzWHz3WgdgA7ogA7ogA7ogA7ogA7ogA7olLcH1bRFgWraUjVtbzNU03Y3QDVttzbVtK7lkIimmeD0iHD6RDgDIpwhEc4uEc4eEc4+Ec7annsjICqPtqlc2qbyaZvKqW0qr7ap3Nqm8mubyrFtKs92qDzbIRurqTzbofJsR8uz1dXR1qDKi6MZwEh7qLw0mgGMNO7LC6MZwEhjvrwsmgGMNN4NRNFMcIj8WJ7GDBTRTHCIXFmewwzk0ExwiLxZnsAMtNBMxkEif5ZnLwMhNBMcIn+Wp67yKmhrMAYiaCY40u4xkEAzwZGGu4EAmgmONNwN5M9McKThbiJ+ZgRE5dHyDGaifGYEROXU8iRmIntmBETl1/I8ZqJ5ZjQyUnm2PJWZCJ4ZAVF5tjybQe0MamdQO7vHEGpnokDtDGpnUDvLKVA7g9qZVqugdrZmX+N6qJ2tFqid3ZUKFlc9MVEA0AEd0AEd0AEd0AEd0AEd0AGdjafzxLQCwAZswAZswAZswAZswAZswAZsNofNd6NRADqgAzqgAzqgAzqgAzqgAzqgU94e1M4WBWpnS7Wz/c1QO9vbALWzvdrUzux+1+quFLtPIn5GCNurBrZfDeygGthhNbC71cDuVQO7Xw3s2l5/StyK4syuKNDsiiLNrijU7Ipiza4o2OyKos2uKNzsiuLNqSjenKryWkXx5lQUb45JvKmryuUhlxeZo0NV7d3yEnR0qKojWXmBOjpU1VGsvHwdHarqCGYgbkcIW010KU8XDJTwCGGrCTDluYKBbB4hbDUxpjxRMNDYI8wK1USZ8izBQJCPELaaKFOeIpRX78tDNRDzI4RV7VoDqT9CWNUBzEAIkBBWdQAzkAkkhFUdwExEBClxK4oz5ZmCieIgJW5FoaY8WTCRJ6TErSjalOcLJlqGlHmionhTnjKYCB9S4lYUb8qzBqgkQiURKon3GEIlURSoJEIlESqJOQUqiVBJ1GoVVBLX7GtcD5XE1QKVxLtSwaLMJyYmAjqgAzqgAzqgAzqgAzqgAzqgs/F0npjGCNiADdiADdiADdiADdiADdiAzeaw+W60TUAHdEAHdEAHdEAHdEAHdEAHdMrbewSVxA/8csZDN56HnLVfbkE08WmJJvLwyhtx9m9XeN7rIJgx8cDEOud+9+VmCCjub4CA4n59Aori32WVmohwekQ4fSKcARHOkAhnlwhnjwhnnwhnXWDABIjKo20ql7apfNqmcmqbyqttKre2qfzapnJsm8qzHSrPdsjGairPdqg829HybA1hv1UoAyW/8jDSHjLQ6isPI417AzW+8jDSmDfQ2ysPI413E0U9AxwiP5anMRORPAMcIleW5zAT3TsDHCJvlicwEyk7g3GQyJ/l2ctEnc4Ah8if5anLQHBuFcZEYc4AR9o9JhpyBjjScDdRiTPAkYa7iQ6cAY403I2U3kyAqDxansGMxNtMgKicWp7EjPTYTICo/Fqex4wk1kxGRirPlqcyI9U0EyAqz5Zns3tAf4ReEHrxLbPZNmufzP0tIUk13P5v19/u2tvpv3/lo+2eLUtz3bUveoeH/f7+PoEJp3oTvepN9Ks3MajexLB6E7vVm9ir3sR+9SbWMntVNmqIb7uGALdriHC7hhC3a4hxu4Ygt2uIcruGMLdriHOnhjh36sjjNcS5U0OcO+Xi3EltuLHMRldtWtXrOc7ekMCE/GmQmZA/DDIT8mdBZkI+5JKZkI+4ZCbkAy6ZCfl4S2ZCPtySmciZVtHZqCG+c6ZVdDZqiPCcaRWdjRpiPGdaRWejhijPmVbR2aghznOmVXQ26sjjNcR5zrSKzka5OO8JGy9DT2LD2VebVtn27m6vR2BC/jTITMgfBpkJ+bMgMyEfcslMyEdcMhPyAZfMhHy8JTMhXxtFZiJnQSCdDfmKKjob8sVWdDbk67DobMiXaNHZkK9LpLMhX7JIZ0O+mpHOhnyhI52NGuI8Z1pFZ6OOPF5DIs+ZVtHZKJfK+8LGh4u5zMae2rRqPymDXwhMyJ8GmQn5wyAzIX8WZCbk0yoyE/JpFZkJ+bSKzIR8WkVmQj7ckpnImVbR2ZBPq+hsyKdVdDbk0yo6G/JpFZ0N+bSKzoZ8WkVnQz6torMhn1bR2aghznOmVXQ26sjjNSTynGkVnY1yqXwgbPybj2U2dtWmVb/+enS0u0tgQv40yEzIHwaZCfmzIDMhn1aRmZBPq8hMyKdVZCbk0yoyE/LhlsxEzrSKzoZ8WkVnQz6torMhn1bR2ZBPq+hsyKdVdDbk0yo6G/JpFZ0N+bSKzkYNcZ4zraKzUUceryGR50yr6GyUS+XDdOo25zIbQ7Vp1dHRcEhiQv40yEzIHwaZCfmzIDMhn1aRmZBPq8hMyKdVZCbk0yoyE/LhlsxEzrSKzoZ8WkVnQz6torMhn1bR2ZBPq+hsyKdVdDbk0yo6G/JpFZ0N+bSKzkYNcZ4zraKzUUceryGR50yr6GyUS+W7wsabQLYs3hmoTav29hxnMCAwIX8aZCbkD4PMhPxZkJmQT6vITMinVWQm5NMqMhPyaRWZiTzdKSITuWJrVDby1KqobOQJWVHZyNO4orKRJ39FZSNP843KRp4cHJWNPKU4Kht5InJUNmqI85xpFZ2NOvJ4DYk8Z1pFZ6M4lX9SUXhdaDKzA+bz66WAbKob246uJp1UAbZQKnYp7Bzx+Jdg7o+j9qDbYbY96LCe+JczUJObvUlo3IlSj8dHbswnQXh7eONFmSzyXfsV1KMTgHfhmIfv50KlWPlGweN2nccb7kbzkGc0hNDyot8rludGNapRjWpUoxrVqEY1qlGNalSjGtWoRjWqUY1qVKMa1ahGNapRjWpUoxrVqEY1qlGNalSjGtWoRjWqUY1qVKMa1ahGNapRjWpUoxrVqEZ1o6pvreCKh6E35m9csbHWtrqG+1XF1thofWvsCQ89Hi2217Y6yw3Es2kQW1PP54VbZKOH9ukW76yNrPTo+VkwdWMv8BNSrSjms+0zfh6EvKW28/k1n3B/vN6g7LP2sNthPbFzuSs2Mos/rf/f3vn2tm1zbfz98yk4DWgczFYsO//XbEhdpy2wNkXSYliDIpAt2lYiS4YkJzGKfPdblKUsbkOLlI+8Zc+lF2mqI17nJ5KHPK3kY48PYgFWIJ3LmpdDHnf9WPRP4mIw9fspaW2TfSuQyAn5Q+uLws9yi8MdsFo8ciMzSkdFzZE4HjUyk/7r2v1R7W9gXbUcX3x0PGHPdC8nQeQKwdfJaZW7yQ8h8wRVGNzqIeVYru9wEQ8Nq67ZOj+uyjYcuNwT862W9ek8ToZhMJ1wh714wX7Kzt+ZlyM7yj7/LgJs87F19qQ16RDTHg5PhA/T4/4wHrGXrMV+Z8ax5xnscPGKyHP7vNawNi+aXzcL4+2HOwlCVrtKbqX5K7tK3GRTNfMrzv2SrDj6AyQOMY0zvYurr+Y1n7Gjo6N555VTTFWzYb/SvdX86IXcvi7T+F6zje71or+yuzsS01pMhmympIUczEs7ityhz52OKBERXaQ9+bVcV+YDPZlGo1rZsUiG9HA+nuUjyfMOVe7SFFeW9RLFYXDN1fzMry3rKZjYfTeeqbnKLi59V6mL3FVZlXwhWVxWyoSH9uIjjjycFxce1mCWrppOuKmz3tfTXVXp+vuinEIcW1vs4+dP7K/Tz2fs/PTs07sPb9gfp2/eddjb7llXTeAkWbX5nS1SNBYHLArCmPnTcTIP+iwtaRIxO+onyYvrDxUU874XOo92ZrvOeuqLS8jjaeiziR1G/MQL7LhmiyV/MxnKR+d66TmlzixO0R65zW6hSPi+2kovD/lnGu5psNc2HD6wp17MJmGQrGF8o842ft7f73S63Y2KC88ABzjAAQ5wgAMc4AAHOMABzn8Th0XTcfJPYOZwcZI59kwQhdwBDWhAAxrQgAY0oAENaEADGtAsp7lNX836jqbnTTlwgAMc4AAHOMABDnCAAxzgAKcMzsP3BlriewPPp7LvDWxb6RO24+Pt7YMDkIIUpCAFKUhBClKQghSkIAUpSEH6PEhbKakdy0ibKWm73Wrt74IUpCAFKUhBClKQghSkIAUpSEEK0udB2hakJ6ErIW0dpKSWtbfXboMUpCAFKUhBClKQghSkIAUpSEEK0udBui1IP42mMtL9lPQgOXZegRSkIAUpSEEKUpCCFKQgBSlIQQrS50G6I0j/5I6MdC8lff2609nbAylIQQpSkIIUpCAFKUhBClKQghSkz4N0N/2fiSmXke6mpJ3O7i5IQQpSkIIUpCAFKUhBClKQghSkIH0upHuC9H0gqyzY2klJ9/dbrZ0dkIIUpCAFKUhBClKQghSkIAUpSEG6NtIcxQnt21qh2J0Zu7HHz0f2hJsxv4trG2+DaRgVY8x+bPnaHXM/cgPf41GqUCCxtcWOHYfZLFVit248YlEw5sxpF7SMboamPZlw36kZwrexWdAgP0w7jsOacWfU2W5Ts9EsadRSbxTFM4/P8Rq23x8FYdLe8PhAgzbTGAR+3Ljl7nAUC41e4DnqGvOxOZ80PvIwGaCYh5dfPlxa7HwWNdrsxAsbye/9UeOYvf3o9cdxIwqmyUB8+cA+dDuvxGUxH7M2+3j+hZ32++Lajc1lQ/tyK+qH7iT+TXrNyy3HvXnaLG0jF0u0mOscGX0x7ztJV9mun9zkdtNgaf8dGY4bTTx7duj6XmJq9Lygf/2rIedLROe3wOLZJGkvunDryr6x52eXthTHjR2KKcqOmOOOJx43fX57fjOsGT//yFhn281m+qMw5ISsY8d2onvxzfDsHveMQ8PhA3vqxWwSBgPX40Z9brm8Mw4ts1k3bmxvyrPf+2JlStoki02n0+0a93UlnRaRTptIZ5tIZ4dIZ5dIZ49IZ59I54BIx2pSCVHNaItqSltUc9qimtQW1ay2qKa1RTWvLaqJbVHN7BbVzG6RrdVUM7tFNbNbWjObRdPxeOGrqpV2tJA7GjLSPtKTkfaQnoy0f/RkpHGvJyONej0ZaczryUgjXk9GGu96MvKNTFOHaB7LtzFNHaKZLN/ENHWI5rJ8C9PUIZrN8g1MU4doPsu3L00dqnWZaD7L9y5NHfX5fOv6sf621ROn1HWk3aOpI+0eTR1p92jqSMNdU0ca7po60nDX1JGGu6aONNw1deT7l64Q1YyW72C6QlRzWr6H6QpRzWr5LqYrRDWv5fuYrhDVzJbvZLpCZGs11cyWb2a6Quoz++HZReF3C8u2uebCP/TmXz5M4KJVvYt29S62q3exU72L3epd7FXvYr96FwfVu1jY2avysYb4ttYQ4NYaItxaQ4hba4hxaw1Bbq0hyq01hLm1hjhvrSHOW+vYx9cQ5601xHmrXJwXfoWjWlo1/45HAhfy0SBzIR8MMhfysSBzIV9yyVzIV1wyF/IFl8yFfL0lcyFfbslcLEmr6HysIb6XpFV0PtYQ4UvSKjofa4jxJWkVnY81RPmStIrOxxrifElaRedjHfv4GuJ8SVpF56NcnBd+U5ZaWjX/Ki0CF/LRIHMhHwwyF/KxIHMhX3LJXMhXXDIX8gWXzIV8vSVzIX83iszFkhcC6XzI36ii8yF/2YrOh/w9LDof8le06HzI30uk8yF/ZZHOh/xtRjof8hcd6XysIc6XpFV0Ptaxj69hI1+SVtH5KLeVF34hiVpaNf/GEgIX8tEgcyEfDDIX8rEgcyFPq8hcyNMqMhfytIrMhTytInMhX27JXCxJq+h8yNMqOh/ytIrOhzytovMhT6vofMjTKjof8rSKzoc8raLzIU+r6HysIc6XpFV0Ptaxj69hI1+SVtH5KLeVF9Z9V0ur5oXhCVzIR4PMhXwwyFzIx4LMhTytInMhT6vIXMjTKjIX8rSKzIV8uSVzsSStovMhT6vofMjTKjof8rSKzoc8raLzIU+r6HzI0yo6H/K0is6HPK2i87GGOF+SVtH5WMc+voaNfElaReej3FZeWF5XLa2a198lcCEfDTIX8sEgcyEfCzIX8rSKzIU8rSJzIU+ryFzI0yoyF/LllszFkrSKzoc8raLzIU+r6HzI0yo6H/K0is6HPK2i8yFPq+h8yNMqOh/ytIrOxxrifElaRedjHfv4GjbyJWkVnY9yW3lhFUO1tGpe5pDAhXw0yFzIB4PMhXwsyFzI0yoyF/K0isyFPK0icyFPq8hcLKs7ReRiabE1Kh/LqlVR+VhWyIrKx7IaV1Q+lpW/ovKxrOYblY9l5eCofCyrFEflY1kROSofa4jzJWkVnY917ONr2MiXpFV0Poq38q8qFV6zAs7siPn8Ni8gm9aNrUU3w3paAbawVGxeBTri8atg6jtRbadZZ5a1U2dt8VtrR63c7F2C8VDc2nE6dsyHQTg7vnOjeRXlh/tXKDWdCJyGDg/PpqKosXJDwTFb5HjP7Wga8jmGqMuc9XvFZb5hhhlmmGGGGWaYYYYZZphhhhlmmGGGGWaYYYYZZphhhhlmmGGGGWaYYYYZZphhhhlmmGGGGWaYYYYZZphhhhlmmGGGGWaYYf5PmWdmcMPD0HX4e1t8sNYymyt+XlV8NDZa/GjsOQ9dHmUfrzXq+QeIJ14Qm57r88KPyEZPfU63+JO1kZl+9fwk8OzYDfwEyohiPmn0+CAIuaH2yec/+JD7zuINzc/Vdpt11hafXG6KDzKLH4bHB7EAK5DOZc3LIY+7fiz6J3ExmPr9lLS2yb4VSOSE/KH1ReFnucXhDlgtHrmRGaWjouZIHI8amUn/de3+qPY3sK5aji8+Op6wZ7qXkyByheDr5LTK3eSHkHmCKgxu9ZByLNd3uIiHhlXXbJ0fV2UbDlzuiflWy/p0HifDMJhOuMNevGA/ZefvzMuRHWWffxcBtvnYOnvSmnSIaQ+HJ8KH6XF/GI/YS9ZivzPj2PMMdrh4ReS5fV5rWJsXza+bhfH2w50EIatdJbfS/JVdJW6yqZr5Fed+SVYc/QESh5jGmd7F1Vfzms/Y0dHRvPPKKaaq2bBf6d5qfvRCbl+XaXyv2Ub3etFf2d0diWktJkM2U9JCDualHUXu0OdOR5SIiC7SnvxarivzgZ5Mo1Gt7FgkQ3o4H8/ykeR5hyp3aYory3qJ4jC45mp+5teW9RRM7L4bz9RcZReXvqvURe6qrEq+kCwuK2XCQ3vxEUcezosLD2swS1dNJ9zUWe/r6a6qdP19UU4hjq0t9vHzJ/bX6eczdn569undhzfsj9M37zrsbfesqyZwkqza/M4WKRqLAxYFYcz86TiZB32WljSJmB31k+TF9YcKinnfC51HO7NdZz31xSXk8TT02cQOI37iBXZcs8WSv5kM5aNzvfScUmcWp2iP3Ga3UCR8X22ll4f8Mw33NNhrGw4f2FMvZpMwSNYwvlFnGz/v73c63e5GxYVngAMc4AAHOMABDnCAAxzgAOe/icOi6Tj5JzBzuDjJHHsmiELugAY0oAENaEADGtCABjSgAQ1oltPcpq9mfUfT86YcOMABDnCAAxzgAAc4wAEOcIBTBufhewMt8b2B51PZ9wa2rfQJ2/Hx9vbBAUhBClKQghSkIAUpSEEKUpCCFKQgfR6krZTUjmWkzZS03W619ndBClKQghSkIAUpSEEKUpCCFKQgBenzIG0L0pPQlZC2DlJSy9rba7dBClKQghSkIAUpSEEKUpCCFKQgBenzIN0WpJ9GUxnpfkp6kBw7r0AKUpCCFKQgBSlIQQpSkIIUpCAF6fMg3RGkf3JHRrqXkr5+3ens7YEUpCAFKUhBClKQghSkIAUpSEEK0udBupv+z8SUy0h3U9JOZ3cXpCAFKUhBClKQghSkIAUpSEEKUpA+F9I9Qfo+kFUWbO2kpPv7rdbODkhBClKQghSkIAUpSEEKUpCCFKQgXRtpjuKE9m2tUOzOjN3Y4+cje8LNmN/FtY23wTSMijFmP7Z87Y65H7mB7/EoVSiQ2Npix47DbJYqsVs3HrEoGHPmtAtaRjdD055MuO/UDOHb2CxokB+mHcdhzbgz6my3qdloljRqqTeK4pnH53gN2++PgjBpb3h8oEGbaQwCP27ccnc4ioVGL/AcdY352JxPGh95mAxQzMPLLx8ut9n5LGq02YkXNix23h81jtnbj15/LBxFMfvygX3odl6Jq2I+Zm328fwLO+33xaUbm8tG9uVW1A/dSfyb9JqXW45787RZ2kYulmgx1zky+mLad5Kesl0/ucdty2Bp9x0ZjhtNPHt26PpeYmr0vKB//ash50tE57fA4tkkaS96cOvKvrHnZ5e2FMeNHYoZyo6Y444nHjd9fnt+M6wZP//IWGfbzWb6ozDihKxjx3aie/HN8Owe94xDw+EDe+rFbBIGA9fjRn1uubwzDi2zWTdubG/KjcPdA/Pg0bF/UDf6YplKFJKVp9Ppdo37upJqqxLVdiWq25Wo7lSiuluJ6l4lqvuVqB5Uomo1q5GtJrqsasLLqia+rGoCzKomwqxqQsyqJsasaoLMqibKWtVEWauiPayaKGtVE2WtFaKMRdPxeOGbv0tkCCF3NEQV+1ZPVLFn9UQV+1VPVHHt0hNVXLn0RBXXLT1RxVVLT1RxzdITVU0MNFUriSnVtEBTtZKoUk0KNFUriSvVlEBTtZLIUk0INFUriS3VdEBTtZr9qpLYUs0FNFXLxtat68erpgE9cYG6qmK3aqoqdqumqmK3aqoqLlmaqopLlqaq4pKlqaq4ZGmqKi5Zmqqq+YCubDXRpZoR6MpWE1+qOYGubDURppoV6MpWE2OqeYGubDVRppoZ6MpWtIdVE2WqyYGurFaUfVV54JA9TmRHzOe3+fOM9DFGLboZ1tMHEoVPLvJnkhGPXwVT34lqO806s6ydOmuL31o7ak8/7hKMh0etjtOxYz4MwtnxnRvNn+k9dIXCg89E4DR0eHg2FY/YlBsKjtkix3tuR9OQzzHEU8JsCFZ9lJs+R1p0dc5Dl0cZbuIpG5CJF8SmeLhV6DJ66r6LSSMznXeTwLNjN/ATKCOK+aTR44Mg5IbaTPqDD7nvLN7Q/FxtN5kFbTETxMMwS/zInpQWPkTOZc3LIY+7fiz6J3ExmPr9lLS2yb4pPCoVhPyh9UVhbIjDHbBaPHKjZF6LdmqOxPGokZn0X9fuj2p/A+uq5fjZs8FM93ISRK4QfJ2cVrmb/BAyT1CFwa0eUo7l+g4Xgduw6pqt8+OqbMOByz0x32pZn87jZBgG0wl32IsX7Kfs/J15ObKjbD0RAbb52Dp70pp0iGkPhyfCh+lxfxiP2EvWYr8z49jzDHa4eEXkuX1ea1ibF82vm4Xx9sOdBCGrXSW30vyVXSVusqma+RXnfjlilv4AiUNM40zv4uqrec2T5e3oaN555RRT1WzYr3RvNT96IbevyzS+12yje73or+zujsS0FpMhmynpxmhezl8D4k76IlB0kfbk13JdmQ/0ZBqNamXHIhnSw/l4lo8kzztUuUtTXFnWSxSHwTVX8zO/tqynYGL33Xim5iq7uPRdpS5yV2VV8oVkcVkpEx7ai4848nBeXHhYg1m6ajrhps56X093VaXr74tyCnFsbbGPnz+xv04/n7Hz07NP7z68YX+cvnnXYW+7Z101gZNk1eZ3tkjRWBywKEgSaX86TuZBn6UpYsTsqJ8kL64/VFDM+17oPNqZ7TrrqS8uIY+noc8mdhjxEy+w45otlvzNZCgfneul55Q6szhFe+Q2u4Ui4ft/4HXN7x7AZu9kigeq/8jbo8ABDnCAAxzgAAc4wAEOcIDz7HF+fMFFEIXcAQ1oQAMa0IAGNKABDWhAAxrQLKf54ZVAQSNe8QMOcIADHOAABzjAAQ5wgAMc4PyDRRI/8fGEh3Y8DTmrnWyiTOK/qkzin7aYcW95+sfxuOdyP2ZiyETdQ+5Mk/5vsL3myfMogdh6BiUQW2srgZh+8LRsCSYinTaRzjaRzg6Rzi6Rzh6Rzj6RzgGRzkJtgZWEqGa0RTWlLao5bVFNaotqVltU09qimtcW1cS2qGZ2i2pmt8jWaqqZ3aKa2S2tma1esm9BqnyRvhVkpD1UvhDfCjLSuC9fbG8FGWnMly+ot4KMNN5XKJq3ig7RPJZvYyuUwltFh2gqy/ewFQrcraJDNJvlG9gKZetWWQeJ5rN891qhGN0qOkTzWb51lS8xtyCzQlG5VXSk3bNC4bhVdKThvkJxuFV0pOG+QgG4VXSk4b5KkbeVhKhmtHwHW6V020pCVJNavomtUpBtJSGqeS3fx1Yps7bSykg1s+Vb2SrF01YSoprZ8t0MJdGeRUk0mGGGGWaYYYYZZphhhhlmmGGGGWaY/03mmRnc8DB0Hf7eFv9RZZlNlMR/dCcoif9woCS+1oGS+CiJr3GgJP73B0rif3+gJL7mgZL4KIn/5IGS+MABDnCAAxzgAAc4wAEOcIADnOdQUBI0oAENaEADGtCABjSgAQ1ong/N/5tClsABDnCAAxzgAAc4wAEOcIBT3t8/UBL/tTvmfuQGvsejCAXx/10F8YPwmnUHA7fvcr8/eyiDv94C+NnV31ke/z3/ff7ng3r2y8MfvcCZiT9H8dj77f/+BwBFzx0="
               },
               {
                  "name" : "annual_peak_electric_demand",
                  "units" : "kW",
                  "value" : 17.26257
               },
               {
                  "name" : "first_year_capital_cost",
                  "units" : "$",
                  "value" : 0
               },
               {
                  "name" : "annual_utility_cost",
                  "units" : "$",
                  "value" : 5541.8800000000001
               },
               {
                  "name" : "total_lifecycle_cost",
                  "units" : "$",
                  "value" : 93342.360000000001
               }
            ],
            "step_warnings" : []
         }
      }
   ],
   "updated_at" : "20170710T182532Z",
   "weather_file" : "USA_CO_Denver.Intl.AP.725650_TMY3.epw"
}
