{
   "completed_at" : "20170710T194131Z",
   "completed_status" : "Success",
   "created_at" : "2017-07-10 19:05:21 +0000",
   "current_step" : 5,
   "description" : "",
   "eplusout_err" : "Program Version,EnergyPlus, Version 8.7.0-78a111df4a, YMD=2017.07.10 19:18,IDD_Version 8.7.0\n   ************* IDF Context for following error/warning message:\n   ************* Note -- lines truncated at 300 characters, if necessary...\n   *************      5 Building,\n   ************* indicated Name=NECB 2011-Outpatient-NECB HDD Method-CAN_AB_Calgary.718770_CWEC.epw created: 2017-07-10 19:05:38 +0000\n   ************* Only last 1 lines before error line shown.....\n   *************      6   NECB 2011-Outpatient-NECB HDD Method-CAN_AB_Calgary.718770_CWEC.epw created: 2017-07-10 19:05:38 +0000, !- Name\n   ** Warning ** IP: IDF line~6 Alpha Argument length exceeds maximum, will be truncated=  NECB 2011-Outpatient-NECB HDD Method-CAN_AB_Calgary.718770_CWEC.epw created: 2017-07-10 19:05:38 +000\n   **   ~~~   ** Will be processed as Alpha=NECB 2011-OUTPATIENT-NECB HDD METHOD-CAN_AB_CALGARY.718770_CWEC.EPW CREATED: 2017-07-10 19:05:38 +0000\n   ************* IDF Context for following error/warning message:\n   ************* Note -- lines truncated at 300 characters, if necessary...\n   *************  33761 Schedule:Week:Daily,\n   ************* indicated Name=Schedule:Week:Daily {7ef79ac1-1b39-4acb-a30a-6660083fd508}\n   ************* Only last 10 lines before error line shown.....\n   *************  33762   Schedule:Week:Daily {7ef79ac1-1b39-4acb-a30a-6660083fd508}, !- Name\n   *************  33763   Sp-Floor 3 Physical Therapy 1 Sys-3 Flr-2 Sch-C HPlcmt-south ZN NECB System 3 PSZ Occ Sch Sunday, !- Sunday Schedule:Day Name\n   *************  33764   Sp-Floor 3 Physical Therapy 1 Sys-3 Flr-2 Sch-C HPlcmt-south ZN NECB System 3 PSZ Occ Sch Monday, !- Monday Schedule:Day Name\n   *************  33765   Sp-Floor 3 Physical Therapy 1 Sys-3 Flr-2 Sch-C HPlcmt-south ZN NECB System 3 PSZ Occ Sch Tuesday, !- Tuesday Schedule:Day Name\n   *************  33766   Sp-Floor 3 Physical Therapy 1 Sys-3 Flr-2 Sch-C HPlcmt-south ZN NECB System 3 PSZ Occ Sch Wednesday, !- Wednesday Schedule:Day Name\n   *************  33767   Sp-Floor 3 Physical Therapy 1 Sys-3 Flr-2 Sch-C HPlcmt-south ZN NECB System 3 PSZ Occ Sch Thursday, !- Thursday Schedule:Day Name\n   *************  33768   Sp-Floor 3 Physical Therapy 1 Sys-3 Flr-2 Sch-C HPlcmt-south ZN NECB System 3 PSZ Occ Sch Friday, !- Friday Schedule:Day Name\n   *************  33769   Sp-Floor 3 Physical Therapy 1 Sys-3 Flr-2 Sch-C HPlcmt-south ZN NECB System 3 PSZ Occ Sch Saturday, !- Saturday Schedule:Day Name\n   *************  33770   Sp-Floor 3 Physical Therapy 1 Sys-3 Flr-2 Sch-C HPlcmt-south ZN NECB System 3 PSZ Occ Sch Default, !- Holiday Schedule:Day Name\n   *************  33771   Sp-Floor 3 Physical Therapy 1 Sys-3 Flr-2 Sch-C HPlcmt-south ZN NECB System 3 PSZ Occ Sch Summer Design Day, !- SummerDesignDay Schedule:Day Name\n   ** Warning ** IP: IDF line~33771 Alpha Argument length exceeds maximum, will be truncated=  Sp-Floor 3 Physical Therapy 1 Sys-3 Flr-2 Sch-C HPlcmt-south ZN NECB System 3 PSZ Occ Sch Summer Design Da\n   **   ~~~   ** Will be processed as Alpha=SP-FLOOR 3 PHYSICAL THERAPY 1 SYS-3 FLR-2 SCH-C HPLCMT-SOUTH ZN NECB SYSTEM 3 PSZ OCC SCH SUMMER DESIGN DAY\n   ************* IDF Context for following error/warning message:\n   ************* Note -- lines truncated at 300 characters, if necessary...\n   *************  33761 Schedule:Week:Daily,\n   ************* indicated Name=Schedule:Week:Daily {7ef79ac1-1b39-4acb-a30a-6660083fd508}\n   ************* Only last 10 lines before error line shown.....\n   *************  33763   Sp-Floor 3 Physical Therapy 1 Sys-3 Flr-2 Sch-C HPlcmt-south ZN NECB System 3 PSZ Occ Sch Sunday, !- Sunday Schedule:Day Name\n   *************  33764   Sp-Floor 3 Physical Therapy 1 Sys-3 Flr-2 Sch-C HPlcmt-south ZN NECB System 3 PSZ Occ Sch Monday, !- Monday Schedule:Day Name\n   *************  33765   Sp-Floor 3 Physical Therapy 1 Sys-3 Flr-2 Sch-C HPlcmt-south ZN NECB System 3 PSZ Occ Sch Tuesday, !- Tuesday Schedule:Day Name\n   *************  33766   Sp-Floor 3 Physical Therapy 1 Sys-3 Flr-2 Sch-C HPlcmt-south ZN NECB System 3 PSZ Occ Sch Wednesday, !- Wednesday Schedule:Day Name\n   *************  33767   Sp-Floor 3 Physical Therapy 1 Sys-3 Flr-2 Sch-C HPlcmt-south ZN NECB System 3 PSZ Occ Sch Thursday, !- Thursday Schedule:Day Name\n   *************  33768   Sp-Floor 3 Physical Therapy 1 Sys-3 Flr-2 Sch-C HPlcmt-south ZN NECB System 3 PSZ Occ Sch Friday, !- Friday Schedule:Day Name\n   *************  33769   Sp-Floor 3 Physical Therapy 1 Sys-3 Flr-2 Sch-C HPlcmt-south ZN NECB System 3 PSZ Occ Sch Saturday, !- Saturday Schedule:Day Name\n   *************  33770   Sp-Floor 3 Physical Therapy 1 Sys-3 Flr-2 Sch-C HPlcmt-south ZN NECB System 3 PSZ Occ Sch Default, !- Holiday Schedule:Day Name\n   *************  33771   Sp-Floor 3 Physical Therapy 1 Sys-3 Flr-2 Sch-C HPlcmt-south ZN NECB System 3 PSZ Occ Sch Summer Design Day, !- SummerDesignDay Schedule:Day Name\n   *************  33772   Sp-Floor 3 Physical Therapy 1 Sys-3 Flr-2 Sch-C HPlcmt-south ZN NECB System 3 PSZ Occ Sch Winter Design Day, !- WinterDesignDay Schedule:Day Name\n   ** Warning ** IP: IDF line~33772 Alpha Argument length exceeds maximum, will be truncated=  Sp-Floor 3 Physical Therapy 1 Sys-3 Flr-2 Sch-C HPlcmt-south ZN NECB System 3 PSZ Occ Sch Winter Design Da\n   **   ~~~   ** Will be processed as Alpha=SP-FLOOR 3 PHYSICAL THERAPY 1 SYS-3 FLR-2 SCH-C HPLCMT-SOUTH ZN NECB SYSTEM 3 PSZ OCC SCH WINTER DESIGN DAY\n   ************* IDF Context for following error/warning message:\n   ************* Note -- lines truncated at 300 characters, if necessary...\n   *************  33792 Schedule:Day:Interval,\n   ************* indicated Name=Sp-Floor 3 Physical Therapy 1 Sys-3 Flr-2 Sch-C HPlcmt-south ZN NECB System 3 PSZ Occ Sch Summer Design Day\n   ************* Only last 1 lines before error line shown.....\n   *************  33793   Sp-Floor 3 Physical Therapy 1 Sys-3 Flr-2 Sch-C HPlcmt-south ZN NECB System 3 PSZ Occ Sch Summer Design Day, !- Name\n   ** Warning ** IP: IDF line~33793 Alpha Argument length exceeds maximum, will be truncated=  Sp-Floor 3 Physical Therapy 1 Sys-3 Flr-2 Sch-C HPlcmt-south ZN NECB System 3 PSZ Occ Sch Summer Design Da\n   **   ~~~   ** Will be processed as Alpha=SP-FLOOR 3 PHYSICAL THERAPY 1 SYS-3 FLR-2 SCH-C HPLCMT-SOUTH ZN NECB SYSTEM 3 PSZ OCC SCH SUMMER DESIGN DAY\n   ************* IDF Context for following error/warning message:\n   ************* Note -- lines truncated at 300 characters, if necessary...\n   *************  33799 Schedule:Day:Interval,\n   ************* indicated Name=Sp-Floor 3 Physical Therapy 1 Sys-3 Flr-2 Sch-C HPlcmt-south ZN NECB System 3 PSZ Occ Sch Winter Design Day\n   ************* Only last 1 lines before error line shown.....\n   *************  33800   Sp-Floor 3 Physical Therapy 1 Sys-3 Flr-2 Sch-C HPlcmt-south ZN NECB System 3 PSZ Occ Sch Winter Design Day, !- Name\n   ** Warning ** IP: IDF line~33800 Alpha Argument length exceeds maximum, will be truncated=  Sp-Floor 3 Physical Therapy 1 Sys-3 Flr-2 Sch-C HPlcmt-south ZN NECB System 3 PSZ Occ Sch Winter Design Da\n   **   ~~~   ** Will be processed as Alpha=SP-FLOOR 3 PHYSICAL THERAPY 1 SYS-3 FLR-2 SCH-C HPLCMT-SOUTH ZN NECB SYSTEM 3 PSZ OCC SCH WINTER DESIGN DAY\n   ************* IDF Context for following error/warning message:\n   ************* Note -- lines truncated at 300 characters, if necessary...\n   *************  35710 Schedule:Week:Daily,\n   ************* indicated Name=Schedule:Week:Daily {e03361be-9109-47da-87c3-f6d5bb5d7894}\n   ************* Only last 10 lines before error line shown.....\n   *************  35711   Schedule:Week:Daily {e03361be-9109-47da-87c3-f6d5bb5d7894}, !- Name\n   *************  35712   Sp-Floor 3 Undeveloped 1 Sys-4 Flr-2 Sch-E HPlcmt-south ZN NECB System 4 PSZ Occ Sch Sunday, !- Sunday Schedule:Day Name\n   *************  35713   Sp-Floor 3 Undeveloped 1 Sys-4 Flr-2 Sch-E HPlcmt-south ZN NECB System 4 PSZ Occ Sch Monday, !- Monday Schedule:Day Name\n   *************  35714   Sp-Floor 3 Undeveloped 1 Sys-4 Flr-2 Sch-E HPlcmt-south ZN NECB System 4 PSZ Occ Sch Tuesday, !- Tuesday Schedule:Day Name\n   *************  35715   Sp-Floor 3 Undeveloped 1 Sys-4 Flr-2 Sch-E HPlcmt-south ZN NECB System 4 PSZ Occ Sch Wednesday, !- Wednesday Schedule:Day Name\n   *************  35716   Sp-Floor 3 Undeveloped 1 Sys-4 Flr-2 Sch-E HPlcmt-south ZN NECB System 4 PSZ Occ Sch Thursday, !- Thursday Schedule:Day Name\n   *************  35717   Sp-Floor 3 Undeveloped 1 Sys-4 Flr-2 Sch-E HPlcmt-south ZN NECB System 4 PSZ Occ Sch Friday, !- Friday Schedule:Day Name\n   *************  35718   Sp-Floor 3 Undeveloped 1 Sys-4 Flr-2 Sch-E HPlcmt-south ZN NECB System 4 PSZ Occ Sch Saturday, !- Saturday Schedule:Day Name\n   *************  35719   Sp-Floor 3 Undeveloped 1 Sys-4 Flr-2 Sch-E HPlcmt-south ZN NECB System 4 PSZ Occ Sch Default, !- Holiday Schedule:Day Name\n   *************  35720   Sp-Floor 3 Undeveloped 1 Sys-4 Flr-2 Sch-E HPlcmt-south ZN NECB System 4 PSZ Occ Sch Summer Design Day, !- SummerDesignDay Schedule:Day Name\n   ** Warning ** IP: IDF line~35720 Alpha Argument length exceeds maximum, will be truncated=  Sp-Floor 3 Undeveloped 1 Sys-4 Flr-2 Sch-E HPlcmt-south ZN NECB System 4 PSZ Occ Sch Summer Design Da\n   **   ~~~   ** Will be processed as Alpha=SP-FLOOR 3 UNDEVELOPED 1 SYS-4 FLR-2 SCH-E HPLCMT-SOUTH ZN NECB SYSTEM 4 PSZ OCC SCH SUMMER DESIGN DAY\n   ************* IDF Context for following error/warning message:\n   ************* Note -- lines truncated at 300 characters, if necessary...\n   *************  35710 Schedule:Week:Daily,\n   ************* indicated Name=Schedule:Week:Daily {e03361be-9109-47da-87c3-f6d5bb5d7894}\n   ************* Only last 10 lines before error line shown.....\n   *************  35712   Sp-Floor 3 Undeveloped 1 Sys-4 Flr-2 Sch-E HPlcmt-south ZN NECB System 4 PSZ Occ Sch Sunday, !- Sunday Schedule:Day Name\n   *************  35713   Sp-Floor 3 Undeveloped 1 Sys-4 Flr-2 Sch-E HPlcmt-south ZN NECB System 4 PSZ Occ Sch Monday, !- Monday Schedule:Day Name\n   *************  35714   Sp-Floor 3 Undeveloped 1 Sys-4 Flr-2 Sch-E HPlcmt-south ZN NECB System 4 PSZ Occ Sch Tuesday, !- Tuesday Schedule:Day Name\n   *************  35715   Sp-Floor 3 Undeveloped 1 Sys-4 Flr-2 Sch-E HPlcmt-south ZN NECB System 4 PSZ Occ Sch Wednesday, !- Wednesday Schedule:Day Name\n   *************  35716   Sp-Floor 3 Undeveloped 1 Sys-4 Flr-2 Sch-E HPlcmt-south ZN NECB System 4 PSZ Occ Sch Thursday, !- Thursday Schedule:Day Name\n   *************  35717   Sp-Floor 3 Undeveloped 1 Sys-4 Flr-2 Sch-E HPlcmt-south ZN NECB System 4 PSZ Occ Sch Friday, !- Friday Schedule:Day Name\n   *************  35718   Sp-Floor 3 Undeveloped 1 Sys-4 Flr-2 Sch-E HPlcmt-south ZN NECB System 4 PSZ Occ Sch Saturday, !- Saturday Schedule:Day Name\n   *************  35719   Sp-Floor 3 Undeveloped 1 Sys-4 Flr-2 Sch-E HPlcmt-south ZN NECB System 4 PSZ Occ Sch Default, !- Holiday Schedule:Day Name\n   *************  35720   Sp-Floor 3 Undeveloped 1 Sys-4 Flr-2 Sch-E HPlcmt-south ZN NECB System 4 PSZ Occ Sch Summer Design Day, !- SummerDesignDay Schedule:Day Name\n   *************  35721   Sp-Floor 3 Undeveloped 1 Sys-4 Flr-2 Sch-E HPlcmt-south ZN NECB System 4 PSZ Occ Sch Winter Design Day, !- WinterDesignDay Schedule:Day Name\n   ** Warning ** IP: IDF line~35721 Alpha Argument length exceeds maximum, will be truncated=  Sp-Floor 3 Undeveloped 1 Sys-4 Flr-2 Sch-E HPlcmt-south ZN NECB System 4 PSZ Occ Sch Winter Design Da\n   **   ~~~   ** Will be processed as Alpha=SP-FLOOR 3 UNDEVELOPED 1 SYS-4 FLR-2 SCH-E HPLCMT-SOUTH ZN NECB SYSTEM 4 PSZ OCC SCH WINTER DESIGN DAY\n   ************* IDF Context for following error/warning message:\n   ************* Note -- lines truncated at 300 characters, if necessary...\n   *************  35741 Schedule:Day:Interval,\n   ************* indicated Name=Sp-Floor 3 Undeveloped 1 Sys-4 Flr-2 Sch-E HPlcmt-south ZN NECB System 4 PSZ Occ Sch Summer Design Day\n   ************* Only last 1 lines before error line shown.....\n   *************  35742   Sp-Floor 3 Undeveloped 1 Sys-4 Flr-2 Sch-E HPlcmt-south ZN NECB System 4 PSZ Occ Sch Summer Design Day, !- Name\n   ** Warning ** IP: IDF line~35742 Alpha Argument length exceeds maximum, will be truncated=  Sp-Floor 3 Undeveloped 1 Sys-4 Flr-2 Sch-E HPlcmt-south ZN NECB System 4 PSZ Occ Sch Summer Design Da\n   **   ~~~   ** Will be processed as Alpha=SP-FLOOR 3 UNDEVELOPED 1 SYS-4 FLR-2 SCH-E HPLCMT-SOUTH ZN NECB SYSTEM 4 PSZ OCC SCH SUMMER DESIGN DAY\n   ************* IDF Context for following error/warning message:\n   ************* Note -- lines truncated at 300 characters, if necessary...\n   *************  35748 Schedule:Day:Interval,\n   ************* indicated Name=Sp-Floor 3 Undeveloped 1 Sys-4 Flr-2 Sch-E HPlcmt-south ZN NECB System 4 PSZ Occ Sch Winter Design Day\n   ************* Only last 1 lines before error line shown.....\n   *************  35749   Sp-Floor 3 Undeveloped 1 Sys-4 Flr-2 Sch-E HPlcmt-south ZN NECB System 4 PSZ Occ Sch Winter Design Day, !- Name\n   ** Warning ** IP: IDF line~35749 Alpha Argument length exceeds maximum, will be truncated=  Sp-Floor 3 Undeveloped 1 Sys-4 Flr-2 Sch-E HPlcmt-south ZN NECB System 4 PSZ Occ Sch Winter Design Da\n   **   ~~~   ** Will be processed as Alpha=SP-FLOOR 3 UNDEVELOPED 1 SYS-4 FLR-2 SCH-E HPLCMT-SOUTH ZN NECB SYSTEM 4 PSZ OCC SCH WINTER DESIGN DAY\n   ************* IDF Context for following error/warning message:\n   ************* Note -- lines truncated at 300 characters, if necessary...\n   *************  50458 AirLoopHVAC,\n   ************* indicated Name=Sp-Floor 1 Electrical Room Sys-3 Flr-3 Sch-H HPlcmt-east ZN NECB System 3 PSZ\n   ************* Only last 3 lines before error line shown.....\n   *************  50459   Sp-Floor 1 Electrical Room Sys-3 Flr-3 Sch-H HPlcmt-east ZN NECB System 3 PSZ, !- Name\n   *************  50460   ,                                       !- Controller List Name\n   *************  50461   Sp-Floor 1 Electrical Room Sys-3 Flr-3 Sch-H HPlcmt-east ZN NECB System 3 PSZAvailability Manager List, !- Availability Manager List Name\n   ** Warning ** IP: IDF line~50461 Alpha Argument length exceeds maximum, will be truncated=  Sp-Floor 1 Electrical Room Sys-3 Flr-3 Sch-H HPlcmt-east ZN NECB System 3 PSZAvailability Manager Lis\n   **   ~~~   ** Will be processed as Alpha=SP-FLOOR 1 ELECTRICAL ROOM SYS-3 FLR-3 SCH-H HPLCMT-EAST ZN NECB SYSTEM 3 PSZAVAILABILITY MANAGER LIST\n   ************* IDF Context for following error/warning message:\n   ************* Note -- lines truncated at 300 characters, if necessary...\n   *************  50517 AvailabilityManagerAssignmentList,\n   ************* indicated Name=Sp-Floor 1 Electrical Room Sys-3 Flr-3 Sch-H HPlcmt-east ZN NECB System 3 PSZAvailability Manager List\n   ************* Only last 1 lines before error line shown.....\n   *************  50518   Sp-Floor 1 Electrical Room Sys-3 Flr-3 Sch-H HPlcmt-east ZN NECB System 3 PSZAvailability Manager List, !- Name\n   ** Warning ** IP: IDF line~50518 Alpha Argument length exceeds maximum, will be truncated=  Sp-Floor 1 Electrical Room Sys-3 Flr-3 Sch-H HPlcmt-east ZN NECB System 3 PSZAvailability Manager Lis\n   **   ~~~   ** Will be processed as Alpha=SP-FLOOR 1 ELECTRICAL ROOM SYS-3 FLR-3 SCH-H HPLCMT-EAST ZN NECB SYSTEM 3 PSZAVAILABILITY MANAGER LIST\n   ************* IDF Context for following error/warning message:\n   ************* Note -- lines truncated at 300 characters, if necessary...\n   *************  50784 AirLoopHVAC,\n   ************* indicated Name=Sp-Floor 1 Elevator Pump Room Sys-3 Flr-3 Sch-H HPlcmt-north ZN NECB System 3 PSZ\n   ************* Only last 3 lines before error line shown.....\n   *************  50785   Sp-Floor 1 Elevator Pump Room Sys-3 Flr-3 Sch-H HPlcmt-north ZN NECB System 3 PSZ, !- Name\n   *************  50786   ,                                       !- Controller List Name\n   *************  50787   Sp-Floor 1 Elevator Pump Room Sys-3 Flr-3 Sch-H HPlcmt-north ZN NECB System 3 PSZAvailability Manager List, !- Availability Manager List Name\n   ** Warning ** IP: IDF line~50787 Alpha Argument length exceeds maximum, will be truncated=  Sp-Floor 1 Elevator Pump Room Sys-3 Flr-3 Sch-H HPlcmt-north ZN NECB System 3 PSZAvailability Manager Lis\n   **   ~~~   ** Will be processed as Alpha=SP-FLOOR 1 ELEVATOR PUMP ROOM SYS-3 FLR-3 SCH-H HPLCMT-NORTH ZN NECB SYSTEM 3 PSZAVAILABILITY MANAGER LIST\n   ************* IDF Context for following error/warning message:\n   ************* Note -- lines truncated at 300 characters, if necessary...\n   *************  50784 AirLoopHVAC,\n   ************* indicated Name=Sp-Floor 1 Elevator Pump Room Sys-3 Flr-3 Sch-H HPlcmt-north ZN NECB System 3 PSZ\n   ************* Only last 10 lines before error line shown.....\n   *************  50785   Sp-Floor 1 Elevator Pump Room Sys-3 Flr-3 Sch-H HPlcmt-north ZN NECB System 3 PSZ, !- Name\n   *************  50786   ,                                       !- Controller List Name\n   *************  50787   Sp-Floor 1 Elevator Pump Room Sys-3 Flr-3 Sch-H HPlcmt-north ZN NECB System 3 PSZAvailability Manager List, !- Availability Manager List Name\n   *************  50788   AutoSize,                               !- Design Supply Air Flow Rate {m3/s}\n   *************  50789   Sp-Floor 1 Elevator Pump Room Sys-3 Flr-3 Sch-H HPlcmt-north ZN NECB System 3 PSZ Supply Branches, !- Branch List Name\n   *************  50790   ,                                       !- Connector List Name\n   *************  50791   Node 677,                               !- Supply Side Inlet Node Name\n   *************  50792   Node 680,                               !- Demand Side Outlet Node Name\n   *************  50793   Sp-Floor 1 Elevator Pump Room Sys-3 Flr-3 Sch-H HPlcmt-north ZN NECB System 3 PSZ Demand Inlet Nodes, !- Demand Side Inlet Node Names\n   *************  50794   Sp-Floor 1 Elevator Pump Room Sys-3 Flr-3 Sch-H HPlcmt-north ZN NECB System 3 PSZ Supply Outlet Nodes; !- Supply Side Outlet Node Names\n   ** Warning ** IP: IDF line~50794 Alpha Argument length exceeds maximum, will be truncated=  Sp-Floor 1 Elevator Pump Room Sys-3 Flr-3 Sch-H HPlcmt-north ZN NECB System 3 PSZ Supply Outlet Node\n   **   ~~~   ** Will be processed as Alpha=SP-FLOOR 1 ELEVATOR PUMP ROOM SYS-3 FLR-3 SCH-H HPLCMT-NORTH ZN NECB SYSTEM 3 PSZ SUPPLY OUTLET NODES\n   ************* IDF Context for following error/warning message:\n   ************* Note -- lines truncated at 300 characters, if necessary...\n   *************  50796 NodeList,\n   ************* indicated Name=Sp-Floor 1 Elevator Pump Room Sys-3 Flr-3 Sch-H HPlcmt-north ZN NECB System 3 PSZ Supply Outlet Nodes\n   ************* Only last 1 lines before error line shown.....\n   *************  50797   Sp-Floor 1 Elevator Pump Room Sys-3 Flr-3 Sch-H HPlcmt-north ZN NECB System 3 PSZ Supply Outlet Nodes, !- Name\n   ** Warning ** IP: IDF line~50797 Alpha Argument length exceeds maximum, will be truncated=  Sp-Floor 1 Elevator Pump Room Sys-3 Flr-3 Sch-H HPlcmt-north ZN NECB System 3 PSZ Supply Outlet Node\n   **   ~~~   ** Will be processed as Alpha=SP-FLOOR 1 ELEVATOR PUMP ROOM SYS-3 FLR-3 SCH-H HPLCMT-NORTH ZN NECB SYSTEM 3 PSZ SUPPLY OUTLET NODES\n   ************* IDF Context for following error/warning message:\n   ************* Note -- lines truncated at 300 characters, if necessary...\n   *************  50843 AvailabilityManagerAssignmentList,\n   ************* indicated Name=Sp-Floor 1 Elevator Pump Room Sys-3 Flr-3 Sch-H HPlcmt-north ZN NECB System 3 PSZAvailability Manager List\n   ************* Only last 1 lines before error line shown.....\n   *************  50844   Sp-Floor 1 Elevator Pump Room Sys-3 Flr-3 Sch-H HPlcmt-north ZN NECB System 3 PSZAvailability Manager List, !- Name\n   ** Warning ** IP: IDF line~50844 Alpha Argument length exceeds maximum, will be truncated=  Sp-Floor 1 Elevator Pump Room Sys-3 Flr-3 Sch-H HPlcmt-north ZN NECB System 3 PSZAvailability Manager Lis\n   **   ~~~   ** Will be processed as Alpha=SP-FLOOR 1 ELEVATOR PUMP ROOM SYS-3 FLR-3 SCH-H HPLCMT-NORTH ZN NECB SYSTEM 3 PSZAVAILABILITY MANAGER LIST\n   ************* IDF Context for following error/warning message:\n   ************* Note -- lines truncated at 300 characters, if necessary...\n   *************  50843 AvailabilityManagerAssignmentList,\n   ************* indicated Name=Sp-Floor 1 Elevator Pump Room Sys-3 Flr-3 Sch-H HPlcmt-north ZN NECB System 3 PSZAvailability Manager List\n   ************* Only last 3 lines before error line shown.....\n   *************  50844   Sp-Floor 1 Elevator Pump Room Sys-3 Flr-3 Sch-H HPlcmt-north ZN NECB System 3 PSZAvailability Manager List, !- Name\n   *************  50845   AvailabilityManager:Scheduled,          !- Availability Manager Object Type 1\n   *************  50846   Sp-Floor 1 Elevator Pump Room Sys-3 Flr-3 Sch-H HPlcmt-north ZN NECB System 3 PSZ Availability Manager; !- Availability Manager Name 1\n   ** Warning ** IP: IDF line~50846 Alpha Argument length exceeds maximum, will be truncated=  Sp-Floor 1 Elevator Pump Room Sys-3 Flr-3 Sch-H HPlcmt-north ZN NECB System 3 PSZ Availability Manage\n   **   ~~~   ** Will be processed as Alpha=SP-FLOOR 1 ELEVATOR PUMP ROOM SYS-3 FLR-3 SCH-H HPLCMT-NORTH ZN NECB SYSTEM 3 PSZ AVAILABILITY MANAGER\n   ************* IDF Context for following error/warning message:\n   ************* Note -- lines truncated at 300 characters, if necessary...\n   *************  50848 AvailabilityManager:Scheduled,\n   ************* indicated Name=Sp-Floor 1 Elevator Pump Room Sys-3 Flr-3 Sch-H HPlcmt-north ZN NECB System 3 PSZ Availability Manager\n   ************* Only last 1 lines before error line shown.....\n   *************  50849   Sp-Floor 1 Elevator Pump Room Sys-3 Flr-3 Sch-H HPlcmt-north ZN NECB System 3 PSZ Availability Manager, !- Name\n   ** Warning ** IP: IDF line~50849 Alpha Argument length exceeds maximum, will be truncated=  Sp-Floor 1 Elevator Pump Room Sys-3 Flr-3 Sch-H HPlcmt-north ZN NECB System 3 PSZ Availability Manage\n   **   ~~~   ** Will be processed as Alpha=SP-FLOOR 1 ELEVATOR PUMP ROOM SYS-3 FLR-3 SCH-H HPLCMT-NORTH ZN NECB SYSTEM 3 PSZ AVAILABILITY MANAGER\n   ************* IDF Context for following error/warning message:\n   ************* Note -- lines truncated at 300 characters, if necessary...\n   *************  51088 AirLoopHVAC:SupplyPath,\n   ************* indicated Name=Sp-Floor 1 Elevator Pump Room Sys-3 Flr-3 Sch-H HPlcmt-north ZN NECB System 3 PSZ Node 679 Supply Path\n   ************* Only last 1 lines before error line shown.....\n   *************  51089   Sp-Floor 1 Elevator Pump Room Sys-3 Flr-3 Sch-H HPlcmt-north ZN NECB System 3 PSZ Node 679 Supply Path, !- Name\n   ** Warning ** IP: IDF line~51089 Alpha Argument length exceeds maximum, will be truncated=  Sp-Floor 1 Elevator Pump Room Sys-3 Flr-3 Sch-H HPlcmt-north ZN NECB System 3 PSZ Node 679 Supply Pat\n   **   ~~~   ** Will be processed as Alpha=SP-FLOOR 1 ELEVATOR PUMP ROOM SYS-3 FLR-3 SCH-H HPLCMT-NORTH ZN NECB SYSTEM 3 PSZ NODE 679 SUPPLY PATH\n   ************* IDF Context for following error/warning message:\n   ************* Note -- lines truncated at 300 characters, if necessary...\n   *************  52414 AirLoopHVAC,\n   ************* indicated Name=Sp-Floor 1 Locker Room Hall Sys-4 Flr-3 Sch-H HPlcmt-core ZN NECB System 4 PSZ\n   ************* Only last 3 lines before error line shown.....\n   *************  52415   Sp-Floor 1 Locker Room Hall Sys-4 Flr-3 Sch-H HPlcmt-core ZN NECB System 4 PSZ, !- Name\n   *************  52416   ,                                       !- Controller List Name\n   *************  52417   Sp-Floor 1 Locker Room Hall Sys-4 Flr-3 Sch-H HPlcmt-core ZN NECB System 4 PSZAvailability Manager List, !- Availability Manager List Name\n   ** Warning ** IP: IDF line~52417 Alpha Argument length exceeds maximum, will be truncated=  Sp-Floor 1 Locker Room Hall Sys-4 Flr-3 Sch-H HPlcmt-core ZN NECB System 4 PSZAvailability Manager Lis\n   **   ~~~   ** Will be processed as Alpha=SP-FLOOR 1 LOCKER ROOM HALL SYS-4 FLR-3 SCH-H HPLCMT-CORE ZN NECB SYSTEM 4 PSZAVAILABILITY MANAGER LIST\n   ************* IDF Context for following error/warning message:\n   ************* Note -- lines truncated at 300 characters, if necessary...\n   *************  52473 AvailabilityManagerAssignmentList,\n   ************* indicated Name=Sp-Floor 1 Locker Room Hall Sys-4 Flr-3 Sch-H HPlcmt-core ZN NECB System 4 PSZAvailability Manager List\n   ************* Only last 1 lines before error line shown.....\n   *************  52474   Sp-Floor 1 Locker Room Hall Sys-4 Flr-3 Sch-H HPlcmt-core ZN NECB System 4 PSZAvailability Manager List, !- Name\n   ** Warning ** IP: IDF line~52474 Alpha Argument length exceeds maximum, will be truncated=  Sp-Floor 1 Locker Room Hall Sys-4 Flr-3 Sch-H HPlcmt-core ZN NECB System 4 PSZAvailability Manager Lis\n   **   ~~~   ** Will be processed as Alpha=SP-FLOOR 1 LOCKER ROOM HALL SYS-4 FLR-3 SCH-H HPLCMT-CORE ZN NECB SYSTEM 4 PSZAVAILABILITY MANAGER LIST\n   ************* IDF Context for following error/warning message:\n   ************* Note -- lines truncated at 300 characters, if necessary...\n   *************  53384 AirLoopHVAC,\n   ************* indicated Name=Sp-Floor 1 MRI Control Room Sys-3 Flr-3 Sch-H HPlcmt-north ZN NECB System 3 PSZ\n   ************* Only last 3 lines before error line shown.....\n   *************  53385   Sp-Floor 1 MRI Control Room Sys-3 Flr-3 Sch-H HPlcmt-north ZN NECB System 3 PSZ, !- Name\n   *************  53386   ,                                       !- Controller List Name\n   *************  53387   Sp-Floor 1 MRI Control Room Sys-3 Flr-3 Sch-H HPlcmt-north ZN NECB System 3 PSZAvailability Manager List, !- Availability Manager List Name\n   ** Warning ** IP: IDF line~53387 Alpha Argument length exceeds maximum, will be truncated=  Sp-Floor 1 MRI Control Room Sys-3 Flr-3 Sch-H HPlcmt-north ZN NECB System 3 PSZAvailability Manager Lis\n   **   ~~~   ** Will be processed as Alpha=SP-FLOOR 1 MRI CONTROL ROOM SYS-3 FLR-3 SCH-H HPLCMT-NORTH ZN NECB SYSTEM 3 PSZAVAILABILITY MANAGER LIST\n   ************* IDF Context for following error/warning message:\n   ************* Note -- lines truncated at 300 characters, if necessary...\n   *************  53443 AvailabilityManagerAssignmentList,\n   ************* indicated Name=Sp-Floor 1 MRI Control Room Sys-3 Flr-3 Sch-H HPlcmt-north ZN NECB System 3 PSZAvailability Manager List\n   ************* Only last 1 lines before error line shown.....\n   *************  53444   Sp-Floor 1 MRI Control Room Sys-3 Flr-3 Sch-H HPlcmt-north ZN NECB System 3 PSZAvailability Manager List, !- Name\n   ** Warning ** IP: IDF line~53444 Alpha Argument length exceeds maximum, will be truncated=  Sp-Floor 1 MRI Control Room Sys-3 Flr-3 Sch-H HPlcmt-north ZN NECB System 3 PSZAvailability Manager Lis\n   **   ~~~   ** Will be processed as Alpha=SP-FLOOR 1 MRI CONTROL ROOM SYS-3 FLR-3 SCH-H HPLCMT-NORTH ZN NECB SYSTEM 3 PSZAVAILABILITY MANAGER LIST\n   ************* IDF Context for following error/warning message:\n   ************* Note -- lines truncated at 300 characters, if necessary...\n   *************  55662 AirLoopHVAC,\n   ************* indicated Name=Sp-Floor 1 Operating Room 1 Sys-3 Flr-3 Sch-H HPlcmt-east ZN NECB System 3 PSZ\n   ************* Only last 3 lines before error line shown.....\n   *************  55663   Sp-Floor 1 Operating Room 1 Sys-3 Flr-3 Sch-H HPlcmt-east ZN NECB System 3 PSZ, !- Name\n   *************  55664   ,                                       !- Controller List Name\n   *************  55665   Sp-Floor 1 Operating Room 1 Sys-3 Flr-3 Sch-H HPlcmt-east ZN NECB System 3 PSZAvailability Manager List, !- Availability Manager List Name\n   ** Warning ** IP: IDF line~55665 Alpha Argument length exceeds maximum, will be truncated=  Sp-Floor 1 Operating Room 1 Sys-3 Flr-3 Sch-H HPlcmt-east ZN NECB System 3 PSZAvailability Manager Lis\n   **   ~~~   ** Will be processed as Alpha=SP-FLOOR 1 OPERATING ROOM 1 SYS-3 FLR-3 SCH-H HPLCMT-EAST ZN NECB SYSTEM 3 PSZAVAILABILITY MANAGER LIST\n   ************* IDF Context for following error/warning message:\n   ************* Note -- lines truncated at 300 characters, if necessary...\n   *************  55721 AvailabilityManagerAssignmentList,\n   ************* indicated Name=Sp-Floor 1 Operating Room 1 Sys-3 Flr-3 Sch-H HPlcmt-east ZN NECB System 3 PSZAvailability Manager List\n   ************* Only last 1 lines before error line shown.....\n   *************  55722   Sp-Floor 1 Operating Room 1 Sys-3 Flr-3 Sch-H HPlcmt-east ZN NECB System 3 PSZAvailability Manager List, !- Name\n   ** Warning ** IP: IDF line~55722 Alpha Argument length exceeds maximum, will be truncated=  Sp-Floor 1 Operating Room 1 Sys-3 Flr-3 Sch-H HPlcmt-east ZN NECB System 3 PSZAvailability Manager Lis\n   **   ~~~   ** Will be processed as Alpha=SP-FLOOR 1 OPERATING ROOM 1 SYS-3 FLR-3 SCH-H HPLCMT-EAST ZN NECB SYSTEM 3 PSZAVAILABILITY MANAGER LIST\n   ************* IDF Context for following error/warning message:\n   ************* Note -- lines truncated at 300 characters, if necessary...\n   *************  55988 AirLoopHVAC,\n   ************* indicated Name=Sp-Floor 1 Operating Room 2 Sys-3 Flr-3 Sch-H HPlcmt-east ZN NECB System 3 PSZ\n   ************* Only last 3 lines before error line shown.....\n   *************  55989   Sp-Floor 1 Operating Room 2 Sys-3 Flr-3 Sch-H HPlcmt-east ZN NECB System 3 PSZ, !- Name\n   *************  55990   ,                                       !- Controller List Name\n   *************  55991   Sp-Floor 1 Operating Room 2 Sys-3 Flr-3 Sch-H HPlcmt-east ZN NECB System 3 PSZAvailability Manager List, !- Availability Manager List Name\n   ** Warning ** IP: IDF line~55991 Alpha Argument length exceeds maximum, will be truncated=  Sp-Floor 1 Operating Room 2 Sys-3 Flr-3 Sch-H HPlcmt-east ZN NECB System 3 PSZAvailability Manager Lis\n   **   ~~~   ** Will be processed as Alpha=SP-FLOOR 1 OPERATING ROOM 2 SYS-3 FLR-3 SCH-H HPLCMT-EAST ZN NECB SYSTEM 3 PSZAVAILABILITY MANAGER LIST\n   ************* IDF Context for following error/warning message:\n   ************* Note -- lines truncated at 300 characters, if necessary...\n   *************  56047 AvailabilityManagerAssignmentList,\n   ************* indicated Name=Sp-Floor 1 Operating Room 2 Sys-3 Flr-3 Sch-H HPlcmt-east ZN NECB System 3 PSZAvailability Manager List\n   ************* Only last 1 lines before error line shown.....\n   *************  56048   Sp-Floor 1 Operating Room 2 Sys-3 Flr-3 Sch-H HPlcmt-east ZN NECB System 3 PSZAvailability Manager List, !- Name\n   ** Warning ** IP: IDF line~56048 Alpha Argument length exceeds maximum, will be truncated=  Sp-Floor 1 Operating Room 2 Sys-3 Flr-3 Sch-H HPlcmt-east ZN NECB System 3 PSZAvailability Manager Lis\n   **   ~~~   ** Will be processed as Alpha=SP-FLOOR 1 OPERATING ROOM 2 SYS-3 FLR-3 SCH-H HPLCMT-EAST ZN NECB SYSTEM 3 PSZAVAILABILITY MANAGER LIST\n   ************* IDF Context for following error/warning message:\n   ************* Note -- lines truncated at 300 characters, if necessary...\n   *************  56314 AirLoopHVAC,\n   ************* indicated Name=Sp-Floor 1 Operating Room 3 Sys-3 Flr-3 Sch-H HPlcmt-core ZN NECB System 3 PSZ\n   ************* Only last 3 lines before error line shown.....\n   *************  56315   Sp-Floor 1 Operating Room 3 Sys-3 Flr-3 Sch-H HPlcmt-core ZN NECB System 3 PSZ, !- Name\n   *************  56316   ,                                       !- Controller List Name\n   *************  56317   Sp-Floor 1 Operating Room 3 Sys-3 Flr-3 Sch-H HPlcmt-core ZN NECB System 3 PSZAvailability Manager List, !- Availability Manager List Name\n   ** Warning ** IP: IDF line~56317 Alpha Argument length exceeds maximum, will be truncated=  Sp-Floor 1 Operating Room 3 Sys-3 Flr-3 Sch-H HPlcmt-core ZN NECB System 3 PSZAvailability Manager Lis\n   **   ~~~   ** Will be processed as Alpha=SP-FLOOR 1 OPERATING ROOM 3 SYS-3 FLR-3 SCH-H HPLCMT-CORE ZN NECB SYSTEM 3 PSZAVAILABILITY MANAGER LIST\n   ************* IDF Context for following error/warning message:\n   ************* Note -- lines truncated at 300 characters, if necessary...\n   *************  56373 AvailabilityManagerAssignmentList,\n   ************* indicated Name=Sp-Floor 1 Operating Room 3 Sys-3 Flr-3 Sch-H HPlcmt-core ZN NECB System 3 PSZAvailability Manager List\n   ************* Only last 1 lines before error line shown.....\n   *************  56374   Sp-Floor 1 Operating Room 3 Sys-3 Flr-3 Sch-H HPlcmt-core ZN NECB System 3 PSZAvailability Manager List, !- Name\n   ** Warning ** IP: IDF line~56374 Alpha Argument length exceeds maximum, will be truncated=  Sp-Floor 1 Operating Room 3 Sys-3 Flr-3 Sch-H HPlcmt-core ZN NECB System 3 PSZAvailability Manager Lis\n   **   ~~~   ** Will be processed as Alpha=SP-FLOOR 1 OPERATING ROOM 3 SYS-3 FLR-3 SCH-H HPLCMT-CORE ZN NECB SYSTEM 3 PSZAVAILABILITY MANAGER LIST\n   ************* IDF Context for following error/warning message:\n   ************* Note -- lines truncated at 300 characters, if necessary...\n   *************  57944 AirLoopHVAC,\n   ************* indicated Name=Sp-Floor 1 Procedure Room Sys-3 Flr-3 Sch-H HPlcmt-north ZN NECB System 3 PSZ\n   ************* Only last 3 lines before error line shown.....\n   *************  57945   Sp-Floor 1 Procedure Room Sys-3 Flr-3 Sch-H HPlcmt-north ZN NECB System 3 PSZ, !- Name\n   *************  57946   ,                                       !- Controller List Name\n   *************  57947   Sp-Floor 1 Procedure Room Sys-3 Flr-3 Sch-H HPlcmt-north ZN NECB System 3 PSZAvailability Manager List, !- Availability Manager List Name\n   ** Warning ** IP: IDF line~57947 Alpha Argument length exceeds maximum, will be truncated=  Sp-Floor 1 Procedure Room Sys-3 Flr-3 Sch-H HPlcmt-north ZN NECB System 3 PSZAvailability Manager Lis\n   **   ~~~   ** Will be processed as Alpha=SP-FLOOR 1 PROCEDURE ROOM SYS-3 FLR-3 SCH-H HPLCMT-NORTH ZN NECB SYSTEM 3 PSZAVAILABILITY MANAGER LIST\n   ************* IDF Context for following error/warning message:\n   ************* Note -- lines truncated at 300 characters, if necessary...\n   *************  58003 AvailabilityManagerAssignmentList,\n   ************* indicated Name=Sp-Floor 1 Procedure Room Sys-3 Flr-3 Sch-H HPlcmt-north ZN NECB System 3 PSZAvailability Manager List\n   ************* Only last 1 lines before error line shown.....\n   *************  58004   Sp-Floor 1 Procedure Room Sys-3 Flr-3 Sch-H HPlcmt-north ZN NECB System 3 PSZAvailability Manager List, !- Name\n   ** Warning ** IP: IDF line~58004 Alpha Argument length exceeds maximum, will be truncated=  Sp-Floor 1 Procedure Room Sys-3 Flr-3 Sch-H HPlcmt-north ZN NECB System 3 PSZAvailability Manager Lis\n   **   ~~~   ** Will be processed as Alpha=SP-FLOOR 1 PROCEDURE ROOM SYS-3 FLR-3 SCH-H HPLCMT-NORTH ZN NECB SYSTEM 3 PSZAVAILABILITY MANAGER LIST\n   ************* IDF Context for following error/warning message:\n   ************* Note -- lines truncated at 300 characters, if necessary...\n   *************  58596 AirLoopHVAC,\n   ************* indicated Name=Sp-Floor 1 Recovery Room Sys-3 Flr-3 Sch-H HPlcmt-south ZN NECB System 3 PSZ\n   ************* Only last 3 lines before error line shown.....\n   *************  58597   Sp-Floor 1 Recovery Room Sys-3 Flr-3 Sch-H HPlcmt-south ZN NECB System 3 PSZ, !- Name\n   *************  58598   ,                                       !- Controller List Name\n   *************  58599   Sp-Floor 1 Recovery Room Sys-3 Flr-3 Sch-H HPlcmt-south ZN NECB System 3 PSZAvailability Manager List, !- Availability Manager List Name\n   ** Warning ** IP: IDF line~58599 Alpha Argument length exceeds maximum, will be truncated=  Sp-Floor 1 Recovery Room Sys-3 Flr-3 Sch-H HPlcmt-south ZN NECB System 3 PSZAvailability Manager Lis\n   **   ~~~   ** Will be processed as Alpha=SP-FLOOR 1 RECOVERY ROOM SYS-3 FLR-3 SCH-H HPLCMT-SOUTH ZN NECB SYSTEM 3 PSZAVAILABILITY MANAGER LIST\n   ************* IDF Context for following error/warning message:\n   ************* Note -- lines truncated at 300 characters, if necessary...\n   *************  58655 AvailabilityManagerAssignmentList,\n   ************* indicated Name=Sp-Floor 1 Recovery Room Sys-3 Flr-3 Sch-H HPlcmt-south ZN NECB System 3 PSZAvailability Manager List\n   ************* Only last 1 lines before error line shown.....\n   *************  58656   Sp-Floor 1 Recovery Room Sys-3 Flr-3 Sch-H HPlcmt-south ZN NECB System 3 PSZAvailability Manager List, !- Name\n   ** Warning ** IP: IDF line~58656 Alpha Argument length exceeds maximum, will be truncated=  Sp-Floor 1 Recovery Room Sys-3 Flr-3 Sch-H HPlcmt-south ZN NECB System 3 PSZAvailability Manager Lis\n   **   ~~~   ** Will be processed as Alpha=SP-FLOOR 1 RECOVERY ROOM SYS-3 FLR-3 SCH-H HPLCMT-SOUTH ZN NECB SYSTEM 3 PSZAVAILABILITY MANAGER LIST\n   ************* IDF Context for following error/warning message:\n   ************* Note -- lines truncated at 300 characters, if necessary...\n   *************  60874 AirLoopHVAC,\n   ************* indicated Name=Sp-Floor 1 Sterile Storage Sys-4 Flr-3 Sch-E HPlcmt-core ZN NECB System 4 PSZ\n   ************* Only last 3 lines before error line shown.....\n   *************  60875   Sp-Floor 1 Sterile Storage Sys-4 Flr-3 Sch-E HPlcmt-core ZN NECB System 4 PSZ, !- Name\n   *************  60876   ,                                       !- Controller List Name\n   *************  60877   Sp-Floor 1 Sterile Storage Sys-4 Flr-3 Sch-E HPlcmt-core ZN NECB System 4 PSZAvailability Manager List, !- Availability Manager List Name\n   ** Warning ** IP: IDF line~60877 Alpha Argument length exceeds maximum, will be truncated=  Sp-Floor 1 Sterile Storage Sys-4 Flr-3 Sch-E HPlcmt-core ZN NECB System 4 PSZAvailability Manager Lis\n   **   ~~~   ** Will be processed as Alpha=SP-FLOOR 1 STERILE STORAGE SYS-4 FLR-3 SCH-E HPLCMT-CORE ZN NECB SYSTEM 4 PSZAVAILABILITY MANAGER LIST\n   ************* IDF Context for following error/warning message:\n   ************* Note -- lines truncated at 300 characters, if necessary...\n   *************  60933 AvailabilityManagerAssignmentList,\n   ************* indicated Name=Sp-Floor 1 Sterile Storage Sys-4 Flr-3 Sch-E HPlcmt-core ZN NECB System 4 PSZAvailability Manager List\n   ************* Only last 1 lines before error line shown.....\n   *************  60934   Sp-Floor 1 Sterile Storage Sys-4 Flr-3 Sch-E HPlcmt-core ZN NECB System 4 PSZAvailability Manager List, !- Name\n   ** Warning ** IP: IDF line~60934 Alpha Argument length exceeds maximum, will be truncated=  Sp-Floor 1 Sterile Storage Sys-4 Flr-3 Sch-E HPlcmt-core ZN NECB System 4 PSZAvailability Manager Lis\n   **   ~~~   ** Will be processed as Alpha=SP-FLOOR 1 STERILE STORAGE SYS-4 FLR-3 SCH-E HPLCMT-CORE ZN NECB SYSTEM 4 PSZAVAILABILITY MANAGER LIST\n   ************* IDF Context for following error/warning message:\n   ************* Note -- lines truncated at 300 characters, if necessary...\n   *************  62162 AirLoopHVAC,\n   ************* indicated Name=Sp-Floor 1 Utility Janitor Sys-4 Flr-3 Sch-E HPlcmt-core ZN NECB System 4 PSZ\n   ************* Only last 3 lines before error line shown.....\n   *************  62163   Sp-Floor 1 Utility Janitor Sys-4 Flr-3 Sch-E HPlcmt-core ZN NECB System 4 PSZ, !- Name\n   *************  62164   ,                                       !- Controller List Name\n   *************  62165   Sp-Floor 1 Utility Janitor Sys-4 Flr-3 Sch-E HPlcmt-core ZN NECB System 4 PSZAvailability Manager List, !- Availability Manager List Name\n   ** Warning ** IP: IDF line~62165 Alpha Argument length exceeds maximum, will be truncated=  Sp-Floor 1 Utility Janitor Sys-4 Flr-3 Sch-E HPlcmt-core ZN NECB System 4 PSZAvailability Manager Lis\n   **   ~~~   ** Will be processed as Alpha=SP-FLOOR 1 UTILITY JANITOR SYS-4 FLR-3 SCH-E HPLCMT-CORE ZN NECB SYSTEM 4 PSZAVAILABILITY MANAGER LIST\n   ************* IDF Context for following error/warning message:\n   ************* Note -- lines truncated at 300 characters, if necessary...\n   *************  62221 AvailabilityManagerAssignmentList,\n   ************* indicated Name=Sp-Floor 1 Utility Janitor Sys-4 Flr-3 Sch-E HPlcmt-core ZN NECB System 4 PSZAvailability Manager List\n   ************* Only last 1 lines before error line shown.....\n   *************  62222   Sp-Floor 1 Utility Janitor Sys-4 Flr-3 Sch-E HPlcmt-core ZN NECB System 4 PSZAvailability Manager List, !- Name\n   ** Warning ** IP: IDF line~62222 Alpha Argument length exceeds maximum, will be truncated=  Sp-Floor 1 Utility Janitor Sys-4 Flr-3 Sch-E HPlcmt-core ZN NECB System 4 PSZAvailability Manager Lis\n   **   ~~~   ** Will be processed as Alpha=SP-FLOOR 1 UTILITY JANITOR SYS-4 FLR-3 SCH-E HPLCMT-CORE ZN NECB SYSTEM 4 PSZAVAILABILITY MANAGER LIST\n   ************* IDF Context for following error/warning message:\n   ************* Note -- lines truncated at 300 characters, if necessary...\n   *************  63458 AirLoopHVAC,\n   ************* indicated Name=Sp-Floor 2 Conference Toilet Sys-3 Flr-1 Sch-H HPlcmt-core ZN NECB System 3 PSZ\n   ************* Only last 3 lines before error line shown.....\n   *************  63459   Sp-Floor 2 Conference Toilet Sys-3 Flr-1 Sch-H HPlcmt-core ZN NECB System 3 PSZ, !- Name\n   *************  63460   ,                                       !- Controller List Name\n   *************  63461   Sp-Floor 2 Conference Toilet Sys-3 Flr-1 Sch-H HPlcmt-core ZN NECB System 3 PSZAvailability Manager List, !- Availability Manager List Name\n   ** Warning ** IP: IDF line~63461 Alpha Argument length exceeds maximum, will be truncated=  Sp-Floor 2 Conference Toilet Sys-3 Flr-1 Sch-H HPlcmt-core ZN NECB System 3 PSZAvailability Manager Lis\n   **   ~~~   ** Will be processed as Alpha=SP-FLOOR 2 CONFERENCE TOILET SYS-3 FLR-1 SCH-H HPLCMT-CORE ZN NECB SYSTEM 3 PSZAVAILABILITY MANAGER LIST\n   ************* IDF Context for following error/warning message:\n   ************* Note -- lines truncated at 300 characters, if necessary...\n   *************  63517 AvailabilityManagerAssignmentList,\n   ************* indicated Name=Sp-Floor 2 Conference Toilet Sys-3 Flr-1 Sch-H HPlcmt-core ZN NECB System 3 PSZAvailability Manager List\n   ************* Only last 1 lines before error line shown.....\n   *************  63518   Sp-Floor 2 Conference Toilet Sys-3 Flr-1 Sch-H HPlcmt-core ZN NECB System 3 PSZAvailability Manager List, !- Name\n   ** Warning ** IP: IDF line~63518 Alpha Argument length exceeds maximum, will be truncated=  Sp-Floor 2 Conference Toilet Sys-3 Flr-1 Sch-H HPlcmt-core ZN NECB System 3 PSZAvailability Manager Lis\n   **   ~~~   ** Will be processed as Alpha=SP-FLOOR 2 CONFERENCE TOILET SYS-3 FLR-1 SCH-H HPLCMT-CORE ZN NECB SYSTEM 3 PSZAVAILABILITY MANAGER LIST\n   ************* IDF Context for following error/warning message:\n   ************* Note -- lines truncated at 300 characters, if necessary...\n   *************  69322 AirLoopHVAC,\n   ************* indicated Name=Sp-Floor 2 Nurse Station 1 Sys-3 Flr-1 Sch-H HPlcmt-core ZN NECB System 3 PSZ\n   ************* Only last 3 lines before error line shown.....\n   *************  69323   Sp-Floor 2 Nurse Station 1 Sys-3 Flr-1 Sch-H HPlcmt-core ZN NECB System 3 PSZ, !- Name\n   *************  69324   ,                                       !- Controller List Name\n   *************  69325   Sp-Floor 2 Nurse Station 1 Sys-3 Flr-1 Sch-H HPlcmt-core ZN NECB System 3 PSZAvailability Manager List, !- Availability Manager List Name\n   ** Warning ** IP: IDF line~69325 Alpha Argument length exceeds maximum, will be truncated=  Sp-Floor 2 Nurse Station 1 Sys-3 Flr-1 Sch-H HPlcmt-core ZN NECB System 3 PSZAvailability Manager Lis\n   **   ~~~   ** Will be processed as Alpha=SP-FLOOR 2 NURSE STATION 1 SYS-3 FLR-1 SCH-H HPLCMT-CORE ZN NECB SYSTEM 3 PSZAVAILABILITY MANAGER LIST\n   ************* IDF Context for following error/warning message:\n   ************* Note -- lines truncated at 300 characters, if necessary...\n   *************  69381 AvailabilityManagerAssignmentList,\n   ************* indicated Name=Sp-Floor 2 Nurse Station 1 Sys-3 Flr-1 Sch-H HPlcmt-core ZN NECB System 3 PSZAvailability Manager List\n   ************* Only last 1 lines before error line shown.....\n   *************  69382   Sp-Floor 2 Nurse Station 1 Sys-3 Flr-1 Sch-H HPlcmt-core ZN NECB System 3 PSZAvailability Manager List, !- Name\n   ** Warning ** IP: IDF line~69382 Alpha Argument length exceeds maximum, will be truncated=  Sp-Floor 2 Nurse Station 1 Sys-3 Flr-1 Sch-H HPlcmt-core ZN NECB System 3 PSZAvailability Manager Lis\n   **   ~~~   ** Will be processed as Alpha=SP-FLOOR 2 NURSE STATION 1 SYS-3 FLR-1 SCH-H HPLCMT-CORE ZN NECB SYSTEM 3 PSZAVAILABILITY MANAGER LIST\n   ************* IDF Context for following error/warning message:\n   ************* Note -- lines truncated at 300 characters, if necessary...\n   *************  69648 AirLoopHVAC,\n   ************* indicated Name=Sp-Floor 2 Nurse Station 2 Sys-3 Flr-1 Sch-H HPlcmt-core ZN NECB System 3 PSZ\n   ************* Only last 3 lines before error line shown.....\n   *************  69649   Sp-Floor 2 Nurse Station 2 Sys-3 Flr-1 Sch-H HPlcmt-core ZN NECB System 3 PSZ, !- Name\n   *************  69650   ,                                       !- Controller List Name\n   *************  69651   Sp-Floor 2 Nurse Station 2 Sys-3 Flr-1 Sch-H HPlcmt-core ZN NECB System 3 PSZAvailability Manager List, !- Availability Manager List Name\n   ** Warning ** IP: IDF line~69651 Alpha Argument length exceeds maximum, will be truncated=  Sp-Floor 2 Nurse Station 2 Sys-3 Flr-1 Sch-H HPlcmt-core ZN NECB System 3 PSZAvailability Manager Lis\n   **   ~~~   ** Will be processed as Alpha=SP-FLOOR 2 NURSE STATION 2 SYS-3 FLR-1 SCH-H HPLCMT-CORE ZN NECB SYSTEM 3 PSZAVAILABILITY MANAGER LIST\n   ************* IDF Context for following error/warning message:\n   ************* Note -- lines truncated at 300 characters, if necessary...\n   *************  69707 AvailabilityManagerAssignmentList,\n   ************* indicated Name=Sp-Floor 2 Nurse Station 2 Sys-3 Flr-1 Sch-H HPlcmt-core ZN NECB System 3 PSZAvailability Manager List\n   ************* Only last 1 lines before error line shown.....\n   *************  69708   Sp-Floor 2 Nurse Station 2 Sys-3 Flr-1 Sch-H HPlcmt-core ZN NECB System 3 PSZAvailability Manager List, !- Name\n   ** Warning ** IP: IDF line~69708 Alpha Argument length exceeds maximum, will be truncated=  Sp-Floor 2 Nurse Station 2 Sys-3 Flr-1 Sch-H HPlcmt-core ZN NECB System 3 PSZAvailability Manager Lis\n   **   ~~~   ** Will be processed as Alpha=SP-FLOOR 2 NURSE STATION 2 SYS-3 FLR-1 SCH-H HPLCMT-CORE ZN NECB SYSTEM 3 PSZAVAILABILITY MANAGER LIST\n   ************* IDF Context for following error/warning message:\n   ************* Note -- lines truncated at 300 characters, if necessary...\n   *************  69974 AirLoopHVAC,\n   ************* indicated Name=Sp-Floor 2 Reception Hall Sys-3 Flr-1 Sch-H HPlcmt-south ZN NECB System 3 PSZ\n   ************* Only last 3 lines before error line shown.....\n   *************  69975   Sp-Floor 2 Reception Hall Sys-3 Flr-1 Sch-H HPlcmt-south ZN NECB System 3 PSZ, !- Name\n   *************  69976   ,                                       !- Controller List Name\n   *************  69977   Sp-Floor 2 Reception Hall Sys-3 Flr-1 Sch-H HPlcmt-south ZN NECB System 3 PSZAvailability Manager List, !- Availability Manager List Name\n   ** Warning ** IP: IDF line~69977 Alpha Argument length exceeds maximum, will be truncated=  Sp-Floor 2 Reception Hall Sys-3 Flr-1 Sch-H HPlcmt-south ZN NECB System 3 PSZAvailability Manager Lis\n   **   ~~~   ** Will be processed as Alpha=SP-FLOOR 2 RECEPTION HALL SYS-3 FLR-1 SCH-H HPLCMT-SOUTH ZN NECB SYSTEM 3 PSZAVAILABILITY MANAGER LIST\n   ************* IDF Context for following error/warning message:\n   ************* Note -- lines truncated at 300 characters, if necessary...\n   *************  70033 AvailabilityManagerAssignmentList,\n   ************* indicated Name=Sp-Floor 2 Reception Hall Sys-3 Flr-1 Sch-H HPlcmt-south ZN NECB System 3 PSZAvailability Manager List\n   ************* Only last 1 lines before error line shown.....\n   *************  70034   Sp-Floor 2 Reception Hall Sys-3 Flr-1 Sch-H HPlcmt-south ZN NECB System 3 PSZAvailability Manager List, !- Name\n   ** Warning ** IP: IDF line~70034 Alpha Argument length exceeds maximum, will be truncated=  Sp-Floor 2 Reception Hall Sys-3 Flr-1 Sch-H HPlcmt-south ZN NECB System 3 PSZAvailability Manager Lis\n   **   ~~~   ** Will be processed as Alpha=SP-FLOOR 2 RECEPTION HALL SYS-3 FLR-1 SCH-H HPLCMT-SOUTH ZN NECB SYSTEM 3 PSZAVAILABILITY MANAGER LIST\n   ************* IDF Context for following error/warning message:\n   ************* Note -- lines truncated at 300 characters, if necessary...\n   *************  73214 AirLoopHVAC,\n   ************* indicated Name=Sp-Floor 3 Lounge Toilet Sys-3 Flr-2 Sch-H HPlcmt-north ZN NECB System 3 PSZ\n   ************* Only last 3 lines before error line shown.....\n   *************  73215   Sp-Floor 3 Lounge Toilet Sys-3 Flr-2 Sch-H HPlcmt-north ZN NECB System 3 PSZ, !- Name\n   *************  73216   ,                                       !- Controller List Name\n   *************  73217   Sp-Floor 3 Lounge Toilet Sys-3 Flr-2 Sch-H HPlcmt-north ZN NECB System 3 PSZAvailability Manager List, !- Availability Manager List Name\n   ** Warning ** IP: IDF line~73217 Alpha Argument length exceeds maximum, will be truncated=  Sp-Floor 3 Lounge Toilet Sys-3 Flr-2 Sch-H HPlcmt-north ZN NECB System 3 PSZAvailability Manager Lis\n   **   ~~~   ** Will be processed as Alpha=SP-FLOOR 3 LOUNGE TOILET SYS-3 FLR-2 SCH-H HPLCMT-NORTH ZN NECB SYSTEM 3 PSZAVAILABILITY MANAGER LIST\n   ************* IDF Context for following error/warning message:\n   ************* Note -- lines truncated at 300 characters, if necessary...\n   *************  73273 AvailabilityManagerAssignmentList,\n   ************* indicated Name=Sp-Floor 3 Lounge Toilet Sys-3 Flr-2 Sch-H HPlcmt-north ZN NECB System 3 PSZAvailability Manager List\n   ************* Only last 1 lines before error line shown.....\n   *************  73274   Sp-Floor 3 Lounge Toilet Sys-3 Flr-2 Sch-H HPlcmt-north ZN NECB System 3 PSZAvailability Manager List, !- Name\n   ** Warning ** IP: IDF line~73274 Alpha Argument length exceeds maximum, will be truncated=  Sp-Floor 3 Lounge Toilet Sys-3 Flr-2 Sch-H HPlcmt-north ZN NECB System 3 PSZAvailability Manager Lis\n   **   ~~~   ** Will be processed as Alpha=SP-FLOOR 3 LOUNGE TOILET SYS-3 FLR-2 SCH-H HPLCMT-NORTH ZN NECB SYSTEM 3 PSZAVAILABILITY MANAGER LIST\n   ************* IDF Context for following error/warning message:\n   ************* Note -- lines truncated at 300 characters, if necessary...\n   *************  73540 AirLoopHVAC,\n   ************* indicated Name=Sp-Floor 3 Mechanical Hall Sys-3 Flr-2 Sch-H HPlcmt-core ZN NECB System 3 PSZ\n   ************* Only last 3 lines before error line shown.....\n   *************  73541   Sp-Floor 3 Mechanical Hall Sys-3 Flr-2 Sch-H HPlcmt-core ZN NECB System 3 PSZ, !- Name\n   *************  73542   ,                                       !- Controller List Name\n   *************  73543   Sp-Floor 3 Mechanical Hall Sys-3 Flr-2 Sch-H HPlcmt-core ZN NECB System 3 PSZAvailability Manager List, !- Availability Manager List Name\n   ** Warning ** IP: IDF line~73543 Alpha Argument length exceeds maximum, will be truncated=  Sp-Floor 3 Mechanical Hall Sys-3 Flr-2 Sch-H HPlcmt-core ZN NECB System 3 PSZAvailability Manager Lis\n   **   ~~~   ** Will be processed as Alpha=SP-FLOOR 3 MECHANICAL HALL SYS-3 FLR-2 SCH-H HPLCMT-CORE ZN NECB SYSTEM 3 PSZAVAILABILITY MANAGER LIST\n   ************* IDF Context for following error/warning message:\n   ************* Note -- lines truncated at 300 characters, if necessary...\n   *************  73599 AvailabilityManagerAssignmentList,\n   ************* indicated Name=Sp-Floor 3 Mechanical Hall Sys-3 Flr-2 Sch-H HPlcmt-core ZN NECB System 3 PSZAvailability Manager List\n   ************* Only last 1 lines before error line shown.....\n   *************  73600   Sp-Floor 3 Mechanical Hall Sys-3 Flr-2 Sch-H HPlcmt-core ZN NECB System 3 PSZAvailability Manager List, !- Name\n   ** Warning ** IP: IDF line~73600 Alpha Argument length exceeds maximum, will be truncated=  Sp-Floor 3 Mechanical Hall Sys-3 Flr-2 Sch-H HPlcmt-core ZN NECB System 3 PSZAvailability Manager Lis\n   **   ~~~   ** Will be processed as Alpha=SP-FLOOR 3 MECHANICAL HALL SYS-3 FLR-2 SCH-H HPLCMT-CORE ZN NECB SYSTEM 3 PSZAVAILABILITY MANAGER LIST\n   ************* IDF Context for following error/warning message:\n   ************* Note -- lines truncated at 300 characters, if necessary...\n   *************  74514 AirLoopHVAC,\n   ************* indicated Name=Sp-Floor 3 Physical Therapy 1 Sys-3 Flr-2 Sch-C HPlcmt-south ZN NECB System 3 PSZ\n   ************* Only last 3 lines before error line shown.....\n   *************  74515   Sp-Floor 3 Physical Therapy 1 Sys-3 Flr-2 Sch-C HPlcmt-south ZN NECB System 3 PSZ, !- Name\n   *************  74516   ,                                       !- Controller List Name\n   *************  74517   Sp-Floor 3 Physical Therapy 1 Sys-3 Flr-2 Sch-C HPlcmt-south ZN NECB System 3 PSZAvailability Manager List, !- Availability Manager List Name\n   ** Warning ** IP: IDF line~74517 Alpha Argument length exceeds maximum, will be truncated=  Sp-Floor 3 Physical Therapy 1 Sys-3 Flr-2 Sch-C HPlcmt-south ZN NECB System 3 PSZAvailability Manager Lis\n   **   ~~~   ** Will be processed as Alpha=SP-FLOOR 3 PHYSICAL THERAPY 1 SYS-3 FLR-2 SCH-C HPLCMT-SOUTH ZN NECB SYSTEM 3 PSZAVAILABILITY MANAGER LIST\n   ************* IDF Context for following error/warning message:\n   ************* Note -- lines truncated at 300 characters, if necessary...\n   *************  74514 AirLoopHVAC,\n   ************* indicated Name=Sp-Floor 3 Physical Therapy 1 Sys-3 Flr-2 Sch-C HPlcmt-south ZN NECB System 3 PSZ\n   ************* Only last 10 lines before error line shown.....\n   *************  74515   Sp-Floor 3 Physical Therapy 1 Sys-3 Flr-2 Sch-C HPlcmt-south ZN NECB System 3 PSZ, !- Name\n   *************  74516   ,                                       !- Controller List Name\n   *************  74517   Sp-Floor 3 Physical Therapy 1 Sys-3 Flr-2 Sch-C HPlcmt-south ZN NECB System 3 PSZAvailability Manager List, !- Availability Manager List Name\n   *************  74518   AutoSize,                               !- Design Supply Air Flow Rate {m3/s}\n   *************  74519   Sp-Floor 3 Physical Therapy 1 Sys-3 Flr-2 Sch-C HPlcmt-south ZN NECB System 3 PSZ Supply Branches, !- Branch List Name\n   *************  74520   ,                                       !- Connector List Name\n   *************  74521   Node 430,                               !- Supply Side Inlet Node Name\n   *************  74522   Node 433,                               !- Demand Side Outlet Node Name\n   *************  74523   Sp-Floor 3 Physical Therapy 1 Sys-3 Flr-2 Sch-C HPlcmt-south ZN NECB System 3 PSZ Demand Inlet Nodes, !- Demand Side Inlet Node Names\n   *************  74524   Sp-Floor 3 Physical Therapy 1 Sys-3 Flr-2 Sch-C HPlcmt-south ZN NECB System 3 PSZ Supply Outlet Nodes; !- Supply Side Outlet Node Names\n   ** Warning ** IP: IDF line~74524 Alpha Argument length exceeds maximum, will be truncated=  Sp-Floor 3 Physical Therapy 1 Sys-3 Flr-2 Sch-C HPlcmt-south ZN NECB System 3 PSZ Supply Outlet Node\n   **   ~~~   ** Will be processed as Alpha=SP-FLOOR 3 PHYSICAL THERAPY 1 SYS-3 FLR-2 SCH-C HPLCMT-SOUTH ZN NECB SYSTEM 3 PSZ SUPPLY OUTLET NODES\n   ************* IDF Context for following error/warning message:\n   ************* Note -- lines truncated at 300 characters, if necessary...\n   *************  74526 NodeList,\n   ************* indicated Name=Sp-Floor 3 Physical Therapy 1 Sys-3 Flr-2 Sch-C HPlcmt-south ZN NECB System 3 PSZ Supply Outlet Nodes\n   ************* Only last 1 lines before error line shown.....\n   *************  74527   Sp-Floor 3 Physical Therapy 1 Sys-3 Flr-2 Sch-C HPlcmt-south ZN NECB System 3 PSZ Supply Outlet Nodes, !- Name\n   ** Warning ** IP: IDF line~74527 Alpha Argument length exceeds maximum, will be truncated=  Sp-Floor 3 Physical Therapy 1 Sys-3 Flr-2 Sch-C HPlcmt-south ZN NECB System 3 PSZ Supply Outlet Node\n   **   ~~~   ** Will be processed as Alpha=SP-FLOOR 3 PHYSICAL THERAPY 1 SYS-3 FLR-2 SCH-C HPLCMT-SOUTH ZN NECB SYSTEM 3 PSZ SUPPLY OUTLET NODES\n   ************* IDF Context for following error/warning message:\n   ************* Note -- lines truncated at 300 characters, if necessary...\n   *************  74573 AvailabilityManagerAssignmentList,\n   ************* indicated Name=Sp-Floor 3 Physical Therapy 1 Sys-3 Flr-2 Sch-C HPlcmt-south ZN NECB System 3 PSZAvailability Manager List\n   ************* Only last 1 lines before error line shown.....\n   *************  74574   Sp-Floor 3 Physical Therapy 1 Sys-3 Flr-2 Sch-C HPlcmt-south ZN NECB System 3 PSZAvailability Manager List, !- Name\n   ** Warning ** IP: IDF line~74574 Alpha Argument length exceeds maximum, will be truncated=  Sp-Floor 3 Physical Therapy 1 Sys-3 Flr-2 Sch-C HPlcmt-south ZN NECB System 3 PSZAvailability Manager Lis\n   **   ~~~   ** Will be processed as Alpha=SP-FLOOR 3 PHYSICAL THERAPY 1 SYS-3 FLR-2 SCH-C HPLCMT-SOUTH ZN NECB SYSTEM 3 PSZAVAILABILITY MANAGER LIST\n   ************* IDF Context for following error/warning message:\n   ************* Note -- lines truncated at 300 characters, if necessary...\n   *************  74822 AirLoopHVAC:SupplyPath,\n   ************* indicated Name=Sp-Floor 3 Physical Therapy 1 Sys-3 Flr-2 Sch-C HPlcmt-south ZN NECB System 3 PSZ Node 432 Supply Path\n   ************* Only last 1 lines before error line shown.....\n   *************  74823   Sp-Floor 3 Physical Therapy 1 Sys-3 Flr-2 Sch-C HPlcmt-south ZN NECB System 3 PSZ Node 432 Supply Path, !- Name\n   ** Warning ** IP: IDF line~74823 Alpha Argument length exceeds maximum, will be truncated=  Sp-Floor 3 Physical Therapy 1 Sys-3 Flr-2 Sch-C HPlcmt-south ZN NECB System 3 PSZ Node 432 Supply Pat\n   **   ~~~   ** Will be processed as Alpha=SP-FLOOR 3 PHYSICAL THERAPY 1 SYS-3 FLR-2 SCH-C HPLCMT-SOUTH ZN NECB SYSTEM 3 PSZ NODE 432 SUPPLY PATH\n   ************* IDF Context for following error/warning message:\n   ************* Note -- lines truncated at 300 characters, if necessary...\n   *************  74844 AirLoopHVAC,\n   ************* indicated Name=Sp-Floor 3 Physical Therapy 2 Sys-3 Flr-2 Sch-C HPlcmt-core ZN NECB System 3 PSZ\n   ************* Only last 3 lines before error line shown.....\n   *************  74845   Sp-Floor 3 Physical Therapy 2 Sys-3 Flr-2 Sch-C HPlcmt-core ZN NECB System 3 PSZ, !- Name\n   *************  74846   ,                                       !- Controller List Name\n   *************  74847   Sp-Floor 3 Physical Therapy 2 Sys-3 Flr-2 Sch-C HPlcmt-core ZN NECB System 3 PSZAvailability Manager List, !- Availability Manager List Name\n   ** Warning ** IP: IDF line~74847 Alpha Argument length exceeds maximum, will be truncated=  Sp-Floor 3 Physical Therapy 2 Sys-3 Flr-2 Sch-C HPlcmt-core ZN NECB System 3 PSZAvailability Manager Lis\n   **   ~~~   ** Will be processed as Alpha=SP-FLOOR 3 PHYSICAL THERAPY 2 SYS-3 FLR-2 SCH-C HPLCMT-CORE ZN NECB SYSTEM 3 PSZAVAILABILITY MANAGER LIST\n   ************* IDF Context for following error/warning message:\n   ************* Note -- lines truncated at 300 characters, if necessary...\n   *************  74903 AvailabilityManagerAssignmentList,\n   ************* indicated Name=Sp-Floor 3 Physical Therapy 2 Sys-3 Flr-2 Sch-C HPlcmt-core ZN NECB System 3 PSZAvailability Manager List\n   ************* Only last 1 lines before error line shown.....\n   *************  74904   Sp-Floor 3 Physical Therapy 2 Sys-3 Flr-2 Sch-C HPlcmt-core ZN NECB System 3 PSZAvailability Manager List, !- Name\n   ** Warning ** IP: IDF line~74904 Alpha Argument length exceeds maximum, will be truncated=  Sp-Floor 3 Physical Therapy 2 Sys-3 Flr-2 Sch-C HPlcmt-core ZN NECB System 3 PSZAvailability Manager Lis\n   **   ~~~   ** Will be processed as Alpha=SP-FLOOR 3 PHYSICAL THERAPY 2 SYS-3 FLR-2 SCH-C HPLCMT-CORE ZN NECB SYSTEM 3 PSZAVAILABILITY MANAGER LIST\n   ************* IDF Context for following error/warning message:\n   ************* Note -- lines truncated at 300 characters, if necessary...\n   *************  74903 AvailabilityManagerAssignmentList,\n   ************* indicated Name=Sp-Floor 3 Physical Therapy 2 Sys-3 Flr-2 Sch-C HPlcmt-core ZN NECB System 3 PSZAvailability Manager List\n   ************* Only last 3 lines before error line shown.....\n   *************  74904   Sp-Floor 3 Physical Therapy 2 Sys-3 Flr-2 Sch-C HPlcmt-core ZN NECB System 3 PSZAvailability Manager List, !- Name\n   *************  74905   AvailabilityManager:Scheduled,          !- Availability Manager Object Type 1\n   *************  74906   Sp-Floor 3 Physical Therapy 2 Sys-3 Flr-2 Sch-C HPlcmt-core ZN NECB System 3 PSZ Availability Manager; !- Availability Manager Name 1\n   ** Warning ** IP: IDF line~74906 Alpha Argument length exceeds maximum, will be truncated=  Sp-Floor 3 Physical Therapy 2 Sys-3 Flr-2 Sch-C HPlcmt-core ZN NECB System 3 PSZ Availability Manage\n   **   ~~~   ** Will be processed as Alpha=SP-FLOOR 3 PHYSICAL THERAPY 2 SYS-3 FLR-2 SCH-C HPLCMT-CORE ZN NECB SYSTEM 3 PSZ AVAILABILITY MANAGER\n   ************* IDF Context for following error/warning message:\n   ************* Note -- lines truncated at 300 characters, if necessary...\n   *************  74908 AvailabilityManager:Scheduled,\n   ************* indicated Name=Sp-Floor 3 Physical Therapy 2 Sys-3 Flr-2 Sch-C HPlcmt-core ZN NECB System 3 PSZ Availability Manager\n   ************* Only last 1 lines before error line shown.....\n   *************  74909   Sp-Floor 3 Physical Therapy 2 Sys-3 Flr-2 Sch-C HPlcmt-core ZN NECB System 3 PSZ Availability Manager, !- Name\n   ** Warning ** IP: IDF line~74909 Alpha Argument length exceeds maximum, will be truncated=  Sp-Floor 3 Physical Therapy 2 Sys-3 Flr-2 Sch-C HPlcmt-core ZN NECB System 3 PSZ Availability Manage\n   **   ~~~   ** Will be processed as Alpha=SP-FLOOR 3 PHYSICAL THERAPY 2 SYS-3 FLR-2 SCH-C HPLCMT-CORE ZN NECB SYSTEM 3 PSZ AVAILABILITY MANAGER\n   ************* IDF Context for following error/warning message:\n   ************* Note -- lines truncated at 300 characters, if necessary...\n   *************  75148 AirLoopHVAC:SupplyPath,\n   ************* indicated Name=Sp-Floor 3 Physical Therapy 2 Sys-3 Flr-2 Sch-C HPlcmt-core ZN NECB System 3 PSZ Node 445 Supply Path\n   ************* Only last 1 lines before error line shown.....\n   *************  75149   Sp-Floor 3 Physical Therapy 2 Sys-3 Flr-2 Sch-C HPlcmt-core ZN NECB System 3 PSZ Node 445 Supply Path, !- Name\n   ** Warning ** IP: IDF line~75149 Alpha Argument length exceeds maximum, will be truncated=  Sp-Floor 3 Physical Therapy 2 Sys-3 Flr-2 Sch-C HPlcmt-core ZN NECB System 3 PSZ Node 445 Supply Pat\n   **   ~~~   ** Will be processed as Alpha=SP-FLOOR 3 PHYSICAL THERAPY 2 SYS-3 FLR-2 SCH-C HPLCMT-CORE ZN NECB SYSTEM 3 PSZ NODE 445 SUPPLY PATH\n   ************* IDF Context for following error/warning message:\n   ************* Note -- lines truncated at 300 characters, if necessary...\n   *************  76140 AirLoopHVAC,\n   ************* indicated Name=Sp-Floor 3 Undeveloped 1 Sys-4 Flr-2 Sch-E HPlcmt-south ZN NECB System 4 PSZ\n   ************* Only last 3 lines before error line shown.....\n   *************  76141   Sp-Floor 3 Undeveloped 1 Sys-4 Flr-2 Sch-E HPlcmt-south ZN NECB System 4 PSZ, !- Name\n   *************  76142   ,                                       !- Controller List Name\n   *************  76143   Sp-Floor 3 Undeveloped 1 Sys-4 Flr-2 Sch-E HPlcmt-south ZN NECB System 4 PSZAvailability Manager List, !- Availability Manager List Name\n   ** Warning ** IP: IDF line~76143 Alpha Argument length exceeds maximum, will be truncated=  Sp-Floor 3 Undeveloped 1 Sys-4 Flr-2 Sch-E HPlcmt-south ZN NECB System 4 PSZAvailability Manager Lis\n   **   ~~~   ** Will be processed as Alpha=SP-FLOOR 3 UNDEVELOPED 1 SYS-4 FLR-2 SCH-E HPLCMT-SOUTH ZN NECB SYSTEM 4 PSZAVAILABILITY MANAGER LIST\n   ************* IDF Context for following error/warning message:\n   ************* Note -- lines truncated at 300 characters, if necessary...\n   *************  76199 AvailabilityManagerAssignmentList,\n   ************* indicated Name=Sp-Floor 3 Undeveloped 1 Sys-4 Flr-2 Sch-E HPlcmt-south ZN NECB System 4 PSZAvailability Manager List\n   ************* Only last 1 lines before error line shown.....\n   *************  76200   Sp-Floor 3 Undeveloped 1 Sys-4 Flr-2 Sch-E HPlcmt-south ZN NECB System 4 PSZAvailability Manager List, !- Name\n   ** Warning ** IP: IDF line~76200 Alpha Argument length exceeds maximum, will be truncated=  Sp-Floor 3 Undeveloped 1 Sys-4 Flr-2 Sch-E HPlcmt-south ZN NECB System 4 PSZAvailability Manager Lis\n   **   ~~~   ** Will be processed as Alpha=SP-FLOOR 3 UNDEVELOPED 1 SYS-4 FLR-2 SCH-E HPLCMT-SOUTH ZN NECB SYSTEM 4 PSZAVAILABILITY MANAGER LIST\n   ************* IDF Context for following error/warning message:\n   ************* Note -- lines truncated at 300 characters, if necessary...\n   *************  76466 AirLoopHVAC,\n   ************* indicated Name=Sp-Floor 3 Undeveloped 2 Sys-4 Flr-2 Sch-E HPlcmt-south ZN NECB System 4 PSZ\n   ************* Only last 3 lines before error line shown.....\n   *************  76467   Sp-Floor 3 Undeveloped 2 Sys-4 Flr-2 Sch-E HPlcmt-south ZN NECB System 4 PSZ, !- Name\n   *************  76468   ,                                       !- Controller List Name\n   *************  76469   Sp-Floor 3 Undeveloped 2 Sys-4 Flr-2 Sch-E HPlcmt-south ZN NECB System 4 PSZAvailability Manager List, !- Availability Manager List Name\n   ** Warning ** IP: IDF line~76469 Alpha Argument length exceeds maximum, will be truncated=  Sp-Floor 3 Undeveloped 2 Sys-4 Flr-2 Sch-E HPlcmt-south ZN NECB System 4 PSZAvailability Manager Lis\n   **   ~~~   ** Will be processed as Alpha=SP-FLOOR 3 UNDEVELOPED 2 SYS-4 FLR-2 SCH-E HPLCMT-SOUTH ZN NECB SYSTEM 4 PSZAVAILABILITY MANAGER LIST\n   ************* IDF Context for following error/warning message:\n   ************* Note -- lines truncated at 300 characters, if necessary...\n   *************  76525 AvailabilityManagerAssignmentList,\n   ************* indicated Name=Sp-Floor 3 Undeveloped 2 Sys-4 Flr-2 Sch-E HPlcmt-south ZN NECB System 4 PSZAvailability Manager List\n   ************* Only last 1 lines before error line shown.....\n   *************  76526   Sp-Floor 3 Undeveloped 2 Sys-4 Flr-2 Sch-E HPlcmt-south ZN NECB System 4 PSZAvailability Manager List, !- Name\n   ** Warning ** IP: IDF line~76526 Alpha Argument length exceeds maximum, will be truncated=  Sp-Floor 3 Undeveloped 2 Sys-4 Flr-2 Sch-E HPlcmt-south ZN NECB System 4 PSZAvailability Manager Lis\n   **   ~~~   ** Will be processed as Alpha=SP-FLOOR 3 UNDEVELOPED 2 SYS-4 FLR-2 SCH-E HPLCMT-SOUTH ZN NECB SYSTEM 4 PSZAVAILABILITY MANAGER LIST\n   ************* Beginning Zone Sizing Calculations\n   ** Warning ** ProcessScheduleInput: Schedule:Day:Interval=\"ECONOMIZER MAX OA FRACTION 100 PCT DEFAULT\", Blank Schedule Type Limits Name input -- will not be validated.\n   ** Warning ** ProcessScheduleInput: Schedule:Day:Interval=\"SCHEDULE DAY 1\", Blank Schedule Type Limits Name input -- will not be validated.\n   ** Warning ** ProcessScheduleInput: Schedule:Day:Interval=\"SCHEDULE DAY 10\", Blank Schedule Type Limits Name input -- will not be validated.\n   ** Warning ** ProcessScheduleInput: Schedule:Day:Interval=\"SCHEDULE DAY 100\", Blank Schedule Type Limits Name input -- will not be validated.\n   ** Warning ** ProcessScheduleInput: Schedule:Day:Interval=\"SCHEDULE DAY 101\", Blank Schedule Type Limits Name input -- will not be validated.\n   ** Warning ** ProcessScheduleInput: Schedule:Day:Interval=\"SCHEDULE DAY 102\", Blank Schedule Type Limits Name input -- will not be validated.\n   ** Warning ** ProcessScheduleInput: Schedule:Day:Interval=\"SCHEDULE DAY 103\", Blank Schedule Type Limits Name input -- will not be validated.\n   ** Warning ** ProcessScheduleInput: Schedule:Day:Interval=\"SCHEDULE DAY 104\", Blank Schedule Type Limits Name input -- will not be validated.\n   ** Warning ** ProcessScheduleInput: Schedule:Day:Interval=\"SCHEDULE DAY 105\", Blank Schedule Type Limits Name input -- will not be validated.\n   ** Warning ** ProcessScheduleInput: Schedule:Day:Interval=\"SCHEDULE DAY 106\", Blank Schedule Type Limits Name input -- will not be validated.\n   ** Warning ** ProcessScheduleInput: Schedule:Day:Interval=\"SCHEDULE DAY 107\", Blank Schedule Type Limits Name input -- will not be validated.\n   ** Warning ** ProcessScheduleInput: Schedule:Day:Interval=\"SCHEDULE DAY 108\", Blank Schedule Type Limits Name input -- will not be validated.\n   ** Warning ** ProcessScheduleInput: Schedule:Day:Interval=\"SCHEDULE DAY 109\", Blank Schedule Type Limits Name input -- will not be validated.\n   ** Warning ** ProcessScheduleInput: Schedule:Day:Interval=\"SCHEDULE DAY 11\", Blank Schedule Type Limits Name input -- will not be validated.\n   ** Warning ** ProcessScheduleInput: Schedule:Day:Interval=\"SCHEDULE DAY 110\", Blank Schedule Type Limits Name input -- will not be validated.\n   ** Warning ** ProcessScheduleInput: Schedule:Day:Interval=\"SCHEDULE DAY 111\", Blank Schedule Type Limits Name input -- will not be validated.\n   ** Warning ** ProcessScheduleInput: Schedule:Day:Interval=\"SCHEDULE DAY 112\", Blank Schedule Type Limits Name input -- will not be validated.\n   ** Warning ** ProcessScheduleInput: Schedule:Day:Interval=\"SCHEDULE DAY 113\", Blank Schedule Type Limits Name input -- will not be validated.\n   ** Warning ** ProcessScheduleInput: Schedule:Day:Interval=\"SCHEDULE DAY 114\", Blank Schedule Type Limits Name input -- will not be validated.\n   ** Warning ** ProcessScheduleInput: Schedule:Day:Interval=\"SCHEDULE DAY 115\", Blank Schedule Type Limits Name input -- will not be validated.\n   ** Warning ** ProcessScheduleInput: Schedule:Day:Interval=\"SCHEDULE DAY 116\", Blank Schedule Type Limits Name input -- will not be validated.\n   ** Warning ** ProcessScheduleInput: Schedule:Day:Interval=\"SCHEDULE DAY 117\", Blank Schedule Type Limits Name input -- will not be validated.\n   ** Warning ** ProcessScheduleInput: Schedule:Day:Interval=\"SCHEDULE DAY 118\", Blank Schedule Type Limits Name input -- will not be validated.\n   ** Warning ** ProcessScheduleInput: Schedule:Day:Interval=\"SCHEDULE DAY 119\", Blank Schedule Type Limits Name input -- will not be validated.\n   ** Warning ** ProcessScheduleInput: Schedule:Day:Interval=\"SCHEDULE DAY 12\", Blank Schedule Type Limits Name input -- will not be validated.\n   ** Warning ** ProcessScheduleInput: Schedule:Day:Interval=\"SCHEDULE DAY 120\", Blank Schedule Type Limits Name input -- will not be validated.\n   ** Warning ** ProcessScheduleInput: Schedule:Day:Interval=\"SCHEDULE DAY 121\", Blank Schedule Type Limits Name input -- will not be validated.\n   ** Warning ** ProcessScheduleInput: Schedule:Day:Interval=\"SCHEDULE DAY 122\", Blank Schedule Type Limits Name input -- will not be validated.\n   ** Warning ** ProcessScheduleInput: Schedule:Day:Interval=\"SCHEDULE DAY 123\", Blank Schedule Type Limits Name input -- will not be validated.\n   ** Warning ** ProcessScheduleInput: Schedule:Day:Interval=\"SCHEDULE DAY 124\", Blank Schedule Type Limits Name input -- will not be validated.\n   ** Warning ** ProcessScheduleInput: Schedule:Day:Interval=\"SCHEDULE DAY 125\", Blank Schedule Type Limits Name input -- will not be validated.\n   ** Warning ** ProcessScheduleInput: Schedule:Day:Interval=\"SCHEDULE DAY 126\", Blank Schedule Type Limits Name input -- will not be validated.\n   ** Warning ** ProcessScheduleInput: Schedule:Day:Interval=\"SCHEDULE DAY 127\", Blank Schedule Type Limits Name input -- will not be validated.\n   ** Warning ** ProcessScheduleInput: Schedule:Day:Interval=\"SCHEDULE DAY 128\", Blank Schedule Type Limits Name input -- will not be validated.\n   ** Warning ** ProcessScheduleInput: Schedule:Day:Interval=\"SCHEDULE DAY 129\", Blank Schedule Type Limits Name input -- will not be validated.\n   ** Warning ** ProcessScheduleInput: Schedule:Day:Interval=\"SCHEDULE DAY 13\", Blank Schedule Type Limits Name input -- will not be validated.\n   ** Warning ** ProcessScheduleInput: Schedule:Day:Interval=\"SCHEDULE DAY 130\", Blank Schedule Type Limits Name input -- will not be validated.\n   ** Warning ** ProcessScheduleInput: Schedule:Day:Interval=\"SCHEDULE DAY 131\", Blank Schedule Type Limits Name input -- will not be validated.\n   ** Warning ** ProcessScheduleInput: Schedule:Day:Interval=\"SCHEDULE DAY 132\", Blank Schedule Type Limits Name input -- will not be validated.\n   ** Warning ** ProcessScheduleInput: Schedule:Day:Interval=\"SCHEDULE DAY 133\", Blank Schedule Type Limits Name input -- will not be validated.\n   ** Warning ** ProcessScheduleInput: Schedule:Day:Interval=\"SCHEDULE DAY 134\", Blank Schedule Type Limits Name input -- will not be validated.\n   ** Warning ** ProcessScheduleInput: Schedule:Day:Interval=\"SCHEDULE DAY 135\", Blank Schedule Type Limits Name input -- will not be validated.\n   ** Warning ** ProcessScheduleInput: Schedule:Day:Interval=\"SCHEDULE DAY 136\", Blank Schedule Type Limits Name input -- will not be validated.\n   ** Warning ** ProcessScheduleInput: Schedule:Day:Interval=\"SCHEDULE DAY 137\", Blank Schedule Type Limits Name input -- will not be validated.\n   ** Warning ** ProcessScheduleInput: Schedule:Day:Interval=\"SCHEDULE DAY 138\", Blank Schedule Type Limits Name input -- will not be validated.\n   ** Warning ** ProcessScheduleInput: Schedule:Day:Interval=\"SCHEDULE DAY 139\", Blank Schedule Type Limits Name input -- will not be validated.\n   ** Warning ** ProcessScheduleInput: Schedule:Day:Interval=\"SCHEDULE DAY 14\", Blank Schedule Type Limits Name input -- will not be validated.\n   ** Warning ** ProcessScheduleInput: Schedule:Day:Interval=\"SCHEDULE DAY 140\", Blank Schedule Type Limits Name input -- will not be validated.\n   ** Warning ** ProcessScheduleInput: Schedule:Day:Interval=\"SCHEDULE DAY 141\", Blank Schedule Type Limits Name input -- will not be validated.\n   ** Warning ** ProcessScheduleInput: Schedule:Day:Interval=\"SCHEDULE DAY 142\", Blank Schedule Type Limits Name input -- will not be validated.\n   ** Warning ** ProcessScheduleInput: Schedule:Day:Interval=\"SCHEDULE DAY 143\", Blank Schedule Type Limits Name input -- will not be validated.\n   ** Warning ** ProcessScheduleInput: Schedule:Day:Interval=\"SCHEDULE DAY 144\", Blank Schedule Type Limits Name input -- will not be validated.\n   ** Warning ** ProcessScheduleInput: Schedule:Day:Interval=\"SCHEDULE DAY 145\", Blank Schedule Type Limits Name input -- will not be validated.\n   ** Warning ** ProcessScheduleInput: Schedule:Day:Interval=\"SCHEDULE DAY 146\", Blank Schedule Type Limits Name input -- will not be validated.\n   ** Warning ** ProcessScheduleInput: Schedule:Day:Interval=\"SCHEDULE DAY 147\", Blank Schedule Type Limits Name input -- will not be validated.\n   ** Warning ** ProcessScheduleInput: Schedule:Day:Interval=\"SCHEDULE DAY 148\", Blank Schedule Type Limits Name input -- will not be validated.\n   ** Warning ** ProcessScheduleInput: Schedule:Day:Interval=\"SCHEDULE DAY 149\", Blank Schedule Type Limits Name input -- will not be validated.\n   ** Warning ** ProcessScheduleInput: Schedule:Day:Interval=\"SCHEDULE DAY 15\", Blank Schedule Type Limits Name input -- will not be validated.\n   ** Warning ** ProcessScheduleInput: Schedule:Day:Interval=\"SCHEDULE DAY 150\", Blank Schedule Type Limits Name input -- will not be validated.\n   ** Warning ** ProcessScheduleInput: Schedule:Day:Interval=\"SCHEDULE DAY 151\", Blank Schedule Type Limits Name input -- will not be validated.\n   ** Warning ** ProcessScheduleInput: Schedule:Day:Interval=\"SCHEDULE DAY 152\", Blank Schedule Type Limits Name input -- will not be validated.\n   ** Warning ** ProcessScheduleInput: Schedule:Day:Interval=\"SCHEDULE DAY 153\", Blank Schedule Type Limits Name input -- will not be validated.\n   ** Warning ** ProcessScheduleInput: Schedule:Day:Interval=\"SCHEDULE DAY 154\", Blank Schedule Type Limits Name input -- will not be validated.\n   ** Warning ** ProcessScheduleInput: Schedule:Day:Interval=\"SCHEDULE DAY 155\", Blank Schedule Type Limits Name input -- will not be validated.\n   ** Warning ** ProcessScheduleInput: Schedule:Day:Interval=\"SCHEDULE DAY 156\", Blank Schedule Type Limits Name input -- will not be validated.\n   ** Warning ** ProcessScheduleInput: Schedule:Day:Interval=\"SCHEDULE DAY 157\", Blank Schedule Type Limits Name input -- will not be validated.\n   ** Warning ** ProcessScheduleInput: Schedule:Day:Interval=\"SCHEDULE DAY 158\", Blank Schedule Type Limits Name input -- will not be validated.\n   ** Warning ** ProcessScheduleInput: Schedule:Day:Interval=\"SCHEDULE DAY 159\", Blank Schedule Type Limits Name input -- will not be validated.\n   ** Warning ** ProcessScheduleInput: Schedule:Day:Interval=\"SCHEDULE DAY 16\", Blank Schedule Type Limits Name input -- will not be validated.\n   ** Warning ** ProcessScheduleInput: Schedule:Day:Interval=\"SCHEDULE DAY 160\", Blank Schedule Type Limits Name input -- will not be validated.\n   ** Warning ** ProcessScheduleInput: Schedule:Day:Interval=\"SCHEDULE DAY 161\", Blank Schedule Type Limits Name input -- will not be validated.\n   ** Warning ** ProcessScheduleInput: Schedule:Day:Interval=\"SCHEDULE DAY 162\", Blank Schedule Type Limits Name input -- will not be validated.\n   ** Warning ** ProcessScheduleInput: Schedule:Day:Interval=\"SCHEDULE DAY 163\", Blank Schedule Type Limits Name input -- will not be validated.\n   ** Warning ** ProcessScheduleInput: Schedule:Day:Interval=\"SCHEDULE DAY 164\", Blank Schedule Type Limits Name input -- will not be validated.\n   ** Warning ** ProcessScheduleInput: Schedule:Day:Interval=\"SCHEDULE DAY 165\", Blank Schedule Type Limits Name input -- will not be validated.\n   ** Warning ** ProcessScheduleInput: Schedule:Day:Interval=\"SCHEDULE DAY 166\", Blank Schedule Type Limits Name input -- will not be validated.\n   ** Warning ** ProcessScheduleInput: Schedule:Day:Interval=\"SCHEDULE DAY 167\", Blank Schedule Type Limits Name input -- will not be validated.\n   ** Warning ** ProcessScheduleInput: Schedule:Day:Interval=\"SCHEDULE DAY 168\", Blank Schedule Type Limits Name input -- will not be validated.\n   ** Warning ** ProcessScheduleInput: Schedule:Day:Interval=\"SCHEDULE DAY 169\", Blank Schedule Type Limits Name input -- will not be validated.\n   ** Warning ** ProcessScheduleInput: Schedule:Day:Interval=\"SCHEDULE DAY 17\", Blank Schedule Type Limits Name input -- will not be validated.\n   ** Warning ** ProcessScheduleInput: Schedule:Day:Interval=\"SCHEDULE DAY 170\", Blank Schedule Type Limits Name input -- will not be validated.\n   ** Warning ** ProcessScheduleInput: Schedule:Day:Interval=\"SCHEDULE DAY 171\", Blank Schedule Type Limits Name input -- will not be validated.\n   ** Warning ** ProcessScheduleInput: Schedule:Day:Interval=\"SCHEDULE DAY 172\", Blank Schedule Type Limits Name input -- will not be validated.\n   ** Warning ** ProcessScheduleInput: Schedule:Day:Interval=\"SCHEDULE DAY 173\", Blank Schedule Type Limits Name input -- will not be validated.\n   ** Warning ** ProcessScheduleInput: Schedule:Day:Interval=\"SCHEDULE DAY 174\", Blank Schedule Type Limits Name input -- will not be validated.\n   ** Warning ** ProcessScheduleInp
[...]
+/no+vT6bP71m9nl/Oh6/vP14Qd/uLi5WjyO8fbhn/zs9If5+eL04vxsvrhLeCTio496n56c9Ga9u6TeT6fXb3qLix/mvZP+I39y8ePro9nl5fz85PCg3vvgw0f+wP06ml1fXx0e/HzwrDc6bvmH3t7+oWrzP7S4fns2f4f3fHb+8s3F1e2fPzibv2pBu8x4dXF+/fyn+enrN9d1xncXZyebZ7z72Xx9+fyLs4uLq16/99c3bxenL2dnvb+9mV/NLuu/P+Lrt4vn/d4XZ1fPq97XL988f9H7w1/PXv5w/XxxcXP7Q/mvv/T+8vmL39Uvu57/UEd8/V+9L1++rF/7wYe5H/NvP1q8vDq9vP4/4Wt++9HJ6Y+/fjn8M3HYbVbv9OSTg5f1GXhx+7HNTs/nV99W48FB7+7D/OTg5HRxeTZ7+/Hp+dntteffnV28/Oe/H8SAt6nv3kPv+u3l7Z+vP8+Pvp/9OHv3T7N/sl4/zq7qvvY+6Z2c/nB5Nj86n//09Y+vDw/+9Vcgn/UGx8d3/+fRA1jnnsyuZ7fB3/z3wdnsu/nZwccHJ/NXs5uz697l1cWr07P5wbN3V779+eDjdHT87ODH2dnNfPm/X9b3qds/c3vrefHi888Pfnm2UU5lyumbcgamnKEpZ2TKGZtyJqacqSknHbuCXI1OrkonV6eTq9TJ1erkqnVy9Tq5ip1cza5cza5s92pXsytXs6tWze4tbn74ofEXV2800a7mJy1iws+oXUz4CbWLCT+fdjHhuW8XE576djHhmW8XE574djHheW8XEw+yljmmHsdjrGWOqcnxEGuZY+pyPMJa5pjaHA+wljmmPsfjq2WO675s6nM8u1rmbN7nn07Pr9uPre/qf7R5TvjxtMwJP56WOeHH0zInPO4tc8Lj3jInPO4tc8Lj3jInPO4tc+L51TbI1eh4grUNcnU6nmFtg1ytjqdY2yBXr+M51jbI1ex4krUNst2rXc2Oh1nboM2bvfovGY/+TcPRmDtu/D967/4qYsMW1fa36G9/i8H2txhuf4vR9rcYb3+Lyfa3mG5/i8Zk39YeOzjfaQcHPO3ghKcdHPG0gzOednDI0w5OedrBMU87OOfVDs55tYs5voNzXu3gnFdl5/zRv9Bxs8eqd3/jo2GL+Kdh2yL+Ydi2iH8Wti3iW65ti/iOa9sivuHatojvt7Yt4tutbYvMf7n27RH/pz/fHvF/FfTtEf8HQ98eOzjimccq3x47OOSZxyrfHjs45pnHKt/8ix+rfHvsYo7vYJBnHqt8e5Sd80f/3qzNHqve/cVahi3in4Zti/iHYdsi/lnYtohvubYt4juubYv4hmvbIr7f2raIfzfKtkXmscq3R/xY5dsjfqzy7RE/Vvn2iH9Fy7dH/HuJvj3iX1n07RH/NqNvj/gXHX177OCcZx6rfHvsYo7vYJBnHqt8e5SN8kf/epLNHqve/f0lhi3in4Zti/iHYdsi/lnYtogfq2xbxI9Vti3ixyrbFvFjlW2L+HZr2yLzWOXbI36s8u0RP1b59ogfq3x7xI9Vvj3ixyrfHvFjlW+P+LHKt0f8WOXbYwfnPPNY5dtjF3N8B4M881jl26NslD9qgd/sseqdJt6wRfzTsG0R/zBsW8Q/C9sW8WOVbYv4scq2RfxYZdsifqyybRHfbm1bZB6rfHvEj1W+PeLHKt8e8WOVb4/4scq3R/xY5dsjfqzy7RE/Vvn2iB+rfHvs4JxnHqt8e+xiju9gkGceq3x7lI3yR2W7mz1WvbPxGraIfxq2LeIfhm2L+Gdh2yJ+rLJtET9W2baIH6tsW8SPVbYt4tutbYvMY5Vvj/ixyrdH/Fjl2yN+rPLtET9W+faIH6t8e8SPVb494scq3x7xY5Vvjx2c88xjlW+PXczxHQzyzGOVb4+yUf6o03Czx6p30kPDFvFPw7ZF/MOwbRH/LGxbxI9Vti3ixyrbFvFjlW2L+LHKtkXOO2XaIitbc+2Rs1W59siJrFx75BxXrj1y+ivXHjnnm2uPnA7OtUfOFOfaIyeRc+2xg3Oeeazy7bGLOb6DQZ55rPLt8fgo/8cmhtelzrn3Se98/tO9QfZOHHu4+PH1szsD7KOq2Hsn9GJ+/buLm/OTxeHw+FkvpeGzXr/+X9VwM93sz7cYK9X1ycmL2fX89cXV209/Pl28cyqv3v8G4unbgC+vTuZXX93UiuON/2DN8bbJ8ef5bHFzNX+HUVual5/7lqXfXOYyl7nMZS5zmctc5jKXucxlLnOZy1zmMpe5zGUuc5nLXOYyl7nMZS5zmctc5jKXucxlLnOZy1zmMpe5zGUuc5nLXOYyl7nMZS5zmctc/l91+e3RxY/zq6vTk/mfZ/UXa9PRsfh91fqrsYvmV2O/nl+dzhfLr9cePLv/AvHl2cX10dnp+fzRr8gufu17uo9/s3ZxdPdXz19enM2uTy/Ob6EOFtfzy+ffzV9dXM0PNvvm85/mr+fnJ8039O6fHY6On/X69TeXj+svMtf/5+Bs/uq6Bnsk+j726NvX8+vPz6/rz+d2i1c35y/vSA8/7P33IxH3hPPVn/7m0e9y1+v0Ve/w+s3p4mhx91PZbKN6rf2ho9vP7/PZyzeH/wPcNu0ev/7q+C37Mvfby4vFaR342e0/3uTd3K865leori5+aod0j3V6fjKvz8Pz9Kzln75f35f+wVen87O6b4fLz/TdOXl9dXFzOT/p/eY3vX9Z/vOfj759M1ssv/9eH7AP16++/dWrtx/I0ez16y/qPY7O5uevr9/0fturev+3d/Dp2dlB7+PmKxZnpy/nh8/Th98c/+PDR8/bg3dycdU7/P72rRz/e+/7222WVV3uW/+zf7u947T/AdWrrvEy75vv/3H0z/nb3ieffPLuwytLvEtd/ti/b/tW79d3V/PZP0v+8C8t/0zb19ef1/LdfVLXui7Dsil3Ioejb2eLxenr8/nJi1oRsfjm7pP8R9lHef+DvrxZvDks/Vnc/kg/fvfzLD9JZ2cfb/Iuj+pXlu6yuL66+Od8s33evbZ0p4vL2cvT67ebbbV8cfG7utvifqvSlPsbSfO2UnI8Wt986nV/nJs3nt7zXmqb1ua4bc76y7O7qbrR63957JmiXh991Pvr3//W+88v//5V7+svv/rbH//y+96fvvz9H1/0/vD5V59vFvDF7V17/vOsfkTrXV/0FhdX173zmx9ue/Cyd6c0WfRmi5e3Dy+n5683SLz/7Ouctck8e9b7bvOby9X8+ubqvHc5u1rMvzi7mF0fzupb/oe3P8q1f/bd3T/b6MN8/BFtbdvlW3gs+Jftml5Wz593x/3usB9+cDJ/Nbs5u+5dXv1/7Z1tU+PGtra/P7+it1IVTG0jLBmblwx7F/FAklOZkIJJUvtQU5Sw2rYYIbn0ArhS/PdHLctsnKGlbnlJCTm3PkyIl3Xfl6Re3QskL4fZHMa3umzrq4OD0ej0dKvhxjPAAQ5wgAMc4AAHOMABDnCA8/fEYXF6l/0KzFwuXmSusxBEEXdBAxrQgAY0oAENaEADGtCABjTlNA/5o1l/oLnxUw4c4AAHOMABDnCAAxzgAAc4wKmD8/y9gZb43sDLVPa9gX0rv8N2crK3d3gIUpCCFKQgBSlIQQpSkIIUpCAFKUjfBqmdkzqJjLSXk/b7tn0wBClIQQpSkIIUpCAFKUhBClKQghSkb4O0L0jPIk9Cah/mpJa1v9/vgxSkIAUpSEEKUpCCFKQgBSlIQQrSt0G6J0g/zlIZ6UFOephtg29BClKQghSkIAUpSEEKUpCCFKQgBenbIB0I0t+4KyPdz0nfvx+N9vdBClKQghSkIAUpSEEKUpCCFKQgBenbIB3mf5lIuYx0mJOORsMhSEEKUpCCFKQgBSlIQQpSkIIUpCB9K6T7gvRDKOssaA9y0oMD2x4MQApSkIIUpCAFKUhBClKQghSkIAVpa6QrFDdyHjqVYo9m4iU+v5w5c24m/DHpbH0fplFcjbH4cs/33h0PYi8MfB7nChUSu7vsxHWZw3Il9uAlMxaHd5y5/Yo94/up6cznPHA7hvA2tit2WG2mkyRRx3g0umzY09xpke1kq+8UJwufL/F2nGA8C6Nsf8PnEw3aQmMSBsnOA/ems0Ro3IS+q66xvDaX850zPwwj1me/BC6/53445y6z2OUi3tljZ360Y7PL8WznlH3/sz++S3biMM2ux//+xH46HX0r3pbwO7bHfr78X3Y+Hov3bm2XXeF3u/E48ubJv6Tvebfrevevh6X7yMUyLea5x8ZYDP9RdsYcL+DRtb0/MFh+Ho8N14vnvrM48gI/i+3c+OH48zeGHDBTXR4DSxbzbH9xKndvnXtn+WrpnmK7dyIxVNkxc727uc/NgD9c3k87xlevQHbZXq+X/1OZe0LXdRInE7763fCdG+4bR4bLJ07qJ2wehRPP50Z3Gbl+NI4ss9c17h0/5cbRYGD2D19s/UHXGIsZK5PIJqHR6PTUeOoqydrNyPabkd1rRnbQjOywGdn9ZmQPmpE9bEbW6jWk21CeWQ0lmtVQplkNpZrVUK5ZDSWb1VC2WQ2lm9VQvtkN5Zvd1LrWUL7ZDeWbvUm+sTi9u1v7bvA6lUPEXQ1V1fOrp6p6dvVUVc+tnqrqTKanqjqP6amqzmJ6qqpzmJ6q6gymp6pcMGjKNpNdyuWCpmwz+aVcLGjKNpNhyqWCpmwzOaZcKGjKNpNlymWCpmxDa1gzWaZcI2jK1s6yBy9INi4PbsQ71GVVT62mrOqp1ZRVPbWasqoTmKas6gSmKas6gWnKqk5gmrKqE5imrHKdoKvbUJ4pVwq6ug1lmnKtoKvbUK4pVwu6ug1lm3K9oKvbUL4pVwy6uk2taw3lm3LRoKurl2+fVG5cFDco2TEL+MPqxkh+P6QT30+7+Y2Nyjsgq7ucMU++DdPAjTuDXpdZ1qDL+uIne6B2F+Uxw3i+eeu6Iyfh0zBanDx68fIu4fO5ULiVmgmcRy6PLlJx0055R8GxWOf4wJ04jfgSQ9x3LK7BpjeH8xtS61aXPPJ4XOBmTsUFmfthYoq7ZJWW8WvHXU0am/nAm4e+k3hhkEEZccLnOzd8EkbcUBtJP/IpD9z1A1q+1hlmo6AvRoK4qWaJf4p7r5W3pVey5vWUJ6dBIs5PZjFJg3FO2tlmvyvcfBWE/Hnvq8rcEJs3YZ1k5sXZuBb7qRmJ7cVOZnb+Tp3xrPNfYF21FX5xj7HQvZ6HsScE32cvqxzNahMyr1BF4YMe0grLC1wuEnfH6mruvdpu6+448bgvxlunOKfLPJlGYSrupn/9NftH8fqjeT1z4mI+EQm2/TK6eDWanRDTmU7PhIfp82CazNg7ZrN/M+PE9w12tP6O2PfGvLNjbV/1Pm1X5tsXRxJGrHObHUrvG3ab2RRDtfAVr/3zmFn6F0hsYhgXele3n8zPPJvejo+XJ6+eYq5aXPZb3UNdbTcRdz7X2flJcx/d94vzVRzdsRjWYjAUIyVfGM3r5YNF3M0fLYqv8jP5qd6pXF3oeRrPOnWvRXZJj5bXs34m+f6RylGa4p11XeIkCj9zNZ/le+s6hXNn7CULNavizbWPKrdYWdVVWU0k69NKnfTQnnzEtkrn9YmH7TBLV00n3dRZn7r5qqr0/qeqmkJsu7vs518+sv+c/3LBLs8vPv7w03fsx/Pvfhix708vTtUEzrJZmz86okRjScjiMCukg/QuGwdjlpeIMXPicVa8eMFUQXF17oXOi5XZ6bIb9ckl4kkaBWzuRDE/80Mn6Thiyt/OLuWL127y15ROZnWJ9sK2OIQq4ac/4QHQP9yxLZ7yFDdg/5TnUYEDHOAABzjAAQ5wgAMc4ADnzeN8+eSLIIq4CxrQgAY0oAENaEADGtCABjSgKaf54plAQSMe8QMOcIADHOAABzjAAQ5wgAMc4PyJbRc/8rs5j5wkjTjrnG2j8eJfq/FiOp/7C3biRUxcqDfSM3H4FnomDtEzUbu1AXom6suiZyJ6Juq3NkDPxHq66JmInonomYieieiZiJ6Jr8miZyJ6JqJnonaZgJ6J+rLomYieieiZqFsmoGdiPV30TETPRPRMRM/EV25coGfiKxzomYieiQw9E9Ww0DMRPRPrbOiZKDb0TETPxHxDz8Tyd6JnYrWA2NAz8W20FgEOcIADHOAABzjAAQ5wgAOcN4/zF+s4AhrQgAY0oAENaEADGtCABjRvh+b/TKcT4AAHOMABDnCAAxzgAAc4wKnvh56Jr2/ombjsmcisN9I1cf8tdE3cR9dE7eYG6JqoL4uuieiaqN/cAF0T6+miayK6JqJrIromomsiuia+JouuieiaiK6J2mUCuibqy6JrIromomuibpmAron1dNE1EV0T0TURXRNfuXGBromvcKBrIromMnRNVMNC10R0TayzoWui2NA1EV0T8w1dE8vfia6J1QJiQ9fEt9FcBDjAAQ5wgAMc4AAHOMABDnDePM5frOcIaEADGtCABjSgAQ1oQAMa0Lwdmv8zvU6AAxzgAAc4wAEOcIADHOAAp74fuia+vqFrYtE10X4jXRMP3kLXxIPWuibmP9dtz0Sk0yfS2SPSGRDpDIl09ol0Doh0Dol01roKbCRENaItqiFtUY1pi2pQW1Sj2qIa1hbVuLaoBrZFNbJtqpFtk83VVCPbphrZttbIVu/mtyZVv33fBjLSM1S/Qd8GMtK8r9+CbwMZac7Xb7K3gYw03zdoo7eJDtE4li9jG3TG20SHaCjL17ANmt1tokM0muUL2Ab96zaZB4nGs3z12qAl3SY6RONZvnTV7zK3JrNBW7lNdKSnZ4PGcZvoSNN9g9Zwm+hI032D5m+b6EjTfZP2bhsJUY1o+Qq2Sce2jYSoBrV8EdukCdtGQlTjWr6ObdJXbaOZkWpky5eyTVqlbSRENbLlq9kXQj9HXhh5yYJZbId1LtNgW/ShGu78jxPs9Kyd/Of3fLzTt2TLXG/tF72Tk729w0MCC7t5i37zFnvNWwyatxg2b7HfvMVB8xaHzVusrexNebSQ31YLCW61kOFWCylutZDjVgtJbrWQ5VYLaW61kOd2C3lut7GOt5Dndgt5btfLczv3cBKZR0+trOr3bftgSGAhvxpkFvKLQWYhvxZkFvIpl8xCPuOSWcgnXDIL+XxLZiGfbsksSsoqOo8W8rukrKLzaCHDS8oqOo8WcrykrKLzaCHLS8oqOo8W8rykrKLzaGMdbyHPS8oqOo96ed4XHmeRJ/GwD9XKKsva3+/3CSzkV4PMQn4xyCzk14LMQj7lklnIZ1wyC/mES2YhfwKKzEL+bBSZRckDgXQe8ieq6DzkD1vRecifw6LzkD+iRechfy6RzkP+yCKdh/xpRjqPFtK85BlIuvWvhTwveXKSzqOFPC953pLOo95Svic8Ps5SmceBWlklvnNp8C2BhbysIrOQl1VkFvJrQWYhL6vILORlFZmFvKwis5DPt2QW8umWzKKkrKLzkE+3dB7y6ZbOQz7d0nnIyyo6D3lZRechL6voPORlFZ1HC2leUlbRrX8t5HlJWUXn0UKel5RVdB71lvKB8PiNuzKPfbWy6v370Wh/n8BCXlaRWcjLKjIL+bUgs5CXVWQW8rKKzEJeVpFZyOdbMgv5dEtmUVJW0XnIp1s6D/l0S+chn27pPORlFZ2HvKyi85CXVXQe8rKKzqOFNC8pq+jWvxbyvKSsovNoIc9Lyio6j3pL+TAv3VIu8xiqlVWj0XBIYiEvq8gs5GUVmYX8WpBZyMsqMgt5WUVmIS+ryCzk8y2ZhXy6JbMoKavoPOTTLZ2HfLql85BPt3Qe8rKKzkNeVtF5yMsqOg95WUXn0UKal5RVdOtfC3leUlbRebSQ5yVlFZ1HvaV8X3h8CGWPxdsDtbLq4MC2BwMCC3lZRWYhL6vILOTXgsxCXlaRWcjLKjILeVlFZlHWXYrIoqzvFJFFabM1Kg/5dEvnUdbIisqjrMcVlUdZ+ysqj7Keb1QeZe3gqDzKOsVRebSQ5qX95ajWvxbyvLQrHZVHC3le2suOyqN6Kf+k0uG1aMTMjlnAH1YdZPPGsZ34ftrNO8BWtopddXOOefJtmAZu3Bn0usyyBl3WFz/ZA7V2s48ZxnMnatcdOQmfhtHi5NGLl72Qn49foWV0JnAeuTy6SEVrYuUdBcdineMDd+I04ksM0V25OO8N9+RGGGGEEUYYYYQRRhhhhBFGGGGEEUYYYYQRRhhhhBFGGGGEEUYYYYQRRhhhhBFGGGGEEUYYYYQRRhhhhBFGGGGEEUYYYYQRRvhvFV6Y4T2PIs/lHxzxwVrL7G34eVXx0dh4/aOxlzzyeFx8vNborj5APPfDxPS9gFd+RDZ+7XO61Z+sjc38q+fnoe8kXhhkUEac8PnODZ+EETfUPvn8I5/ywF0/oOVrnWGvy/rik8s98UFm8Y/h80kiwCqkV7Lm9ZQnp0Eizk9mMUmDcU7a2Wa/V0isCPnz3leVn+UWmzdhnWTmxWacXxU1I7G92MnMzt+pM551/gusq7bCFx8dz9gL3et5GHtC8H32ssrRrDYh8wpVFD7oIa2wvMDlIh92rK7m3qvttu6OE4/7Yrx1inO6zJNpFKZz7rKvv2b/KF5/NK9nTlx8/l0k2PbL6OLVaHZCTGc6PRMeps+DaTJj75jN/s2ME9832NH6O2LfG/POjrV91fu0XZlvXxxJGLHObXYovW/YbWZTDNXCV7z2z2zG0b9AYhPDuNC7uv1kfuYLdnx8vDx59RRz1eKy3+oe6mq7ibjzuc7OT5r76L5fnK/i6I7FsBaDoRgpeSMH89qJY28acHckWkTEV/mZ/FTvVK4u9DyNZ5261yK7pEfL61k/k3z/SOUoTfHOui5xEoWfuZrP8r11ncK5M/aShZpV8ebaR5VbrKzqqqwmkvVppU56aE8+Ylul8/rEw3aYpaumk27qrE/dfFVVev9TVU0htt1d9vMvH9l/zn+5YJfnFx9/+Ok79uP5dz+M2PenF6dqAmfZrM0fHVGisSRkcRglLEjvsnEwZnlLk5g58TgrXrxgqqC4OvdC58XK7HTZjfrkEvEkjQI2d6KYn/mhk3QcMeVvZ5fyxWs3+WtKJ7O6RHthWxxClfBTs51enuvPPN3zZO9suXzipH7C5lGYzWF8q8u2vjo4GI1OT7cabjwDHOAABzjAAQ5wgAMc4AAHOH9PHBand9mvwMzl4kXmOgtBFHEXNKABDWhAAxrQgAY0oAENaEBTTvOQP5r1B5obP+XAAQ5wgAMc4AAHOMABDnCAA5w6OM/fG2iJ7w28TGXfG9i38jtsJyd7e4eHIAUpSEEKUpCCFKQgBSlIQQpSkIL0bZDaOamTyEh7OWm/b9sHQ5CCFKQgBSlIQQpSkIIUpCAFKUhB+jZI+4L0LPIkpPZhTmpZ+/v9PkhBClKQghSkIAUpSEEKUpCCFKQgfRuke4L04yyVkR7kpIfZNvgWpCAFKUhBClKQghSkIAUpSEEKUpC+DdKBIP2NuzLS/Zz0/fvRaH8fpCAFKUhBClKQghSkIAUpSEEKUpC+DdJh/peJlMtIhznpaDQcghSkIAUpSEEKUpCCFKQgBSlIQQrSt0K6L0g/hLLOgvYgJz04sO3BAKQgBSlIQQpSkIIUpCAFKUhBClKQtka6QnEj56FTKfZoJl7i88uZM+dmwh+Tztb3YRrF1RiLL/d8793xIPbCwOdxrlAhsbvLTlyXOSxXYg9eMmNxeMeZ26/YM76fms58zgO3YwhvY7tih9VmOkkSdYxHo8uGPc2dFtlOtvpOcbLw+RJvxwnGszDK9jd8PtGgLTQmYZDsPHBvOkuExk3ou+oay2vz68mvyxN8wWfcSZjFzsdjdjmebW2XXaZ3u/E48ubJv6Tvebfrevevh6X7yMUyLea5x8ZYjOFRdtiOF/Do2t4/NFh+Mo4N14vnvrM48gI/i+3c+OH48zeGHDBTXR4DSxbzbH9xPnZvnXtn+WrpnmK7dyIx3tgxc727uc/NgD9c3k87xlevQHbZXq+X/1OZQELXdRInE7763fCdG+4bR4bLJ07qJ2wehRPP50Z3Gbl+NI4ss9c17h0/5cXPYzHPZPtkU8dodHpqPHWVdGwinT6Rzh6RzoBIZ0iks0+kc0Ckc0ikY/WohKhGtEU1pC2qMW1RDWqLalRbVMPaohrXFtXAtqhGtk01sm2yuZpqZNtUI9vWGtksTu/u1r54WmlFi7irISM9R3oy0jOkJyM9P3oy0rzXk5FmvZ6MNOf1ZKQZrycjzXc9GflCpqlDNI7ly5imDtFIli9imjpEY1m+hGnqEI1m+QKmqUM0nuXLl6YO1bxMNJ7la5emjvp4fvCCRH/ZuhEvqetIT4+mjvT0aOpIT4+mjjTdNXWk6a6pI013TR1pumvqSNNdU0e+fukKUY1o+QqmK0Q1puVrmK4Q1aiWr2K6QlTjWr6O6QpRjWz5SqYrRDZXU41s+WKmK6Q+sp/vRFR+U7Bsmeut/aK3/CphAgu7eYt+8xZ7zVsMmrcYNm+x37zFQfMWh81brK3sTXm0kN9WCwlutZDhVgspbrWQ41YLSW61kOVWC2lutZDndgt5brexjreQ53YLeW7Xy/PKL2RUK6uW39hIYCG/GmQW8otBZiG/FmQW8imXzEI+45JZyCdcMgv5fEtmIZ9uySxKyio6jxbyu6SsovNoIcNLyio6jxZyvKSsovNoIctLyio6jxbyvKSsovNoYx1vIc9Lyio6j3p5Xvm9V2pl1fKLsQgs5FeDzEJ+Mcgs5NeCzEI+5ZJZyGdcMgv5hEtmIX8CisxC/mwUmUXJA4F0HvInqug85A9b0XnIn8Oi85A/okXnIX8ukc5D/sginYf8aUY6jxbSvOQZSLr1r4U8L3lyks6jhTwved6SzqPeUl759SJqZdXy+0cILORlFZmFvKwis5BfCzILeVlFZiEvq8gs5GUVmYV8viWzkE+3ZBYlZRWdh3y6pfOQT7d0HvLpls5DXlbRecjLKjoPeVlF5yEvq+g8WkjzkrKKbv1rIc9Lyio6jxbyvKSsovOot5RXdnFXK6uWbd4JLORlFZmFvKwis5BfCzILeVlFZiEvq8gs5GUVmYV8viWzkE+3ZBYlZRWdh3y6pfOQT7d0HvLpls5DXlbRecjLKjoPeVlF5yEvq+g8WkjzkrKKbv1rIc9Lyio6jxbyvKSsovOot5RXNstVK6uW3XQJLORlFZmFvKwis5BfCzILeVlFZiEvq8gs5GUVmYV8viWzkE+3ZBYlZRWdh3y6pfOQT7d0HvLpls5DXlbRecjLKjoPeVlF5yEvq+g8WkjzkrKKbv1rIc9Lyio6jxbyvKSsovOot5RX9iRUK6uWTQsJLORlFZmFvKwis5BfCzILeVlFZiEvq8gs5GUVmUVZdykii7K+U0QWpc3WqDzk0y2dR1kjKyqPsh5XVB5l7a+oPMp6vlF5lLWDo/Io6xRH5dFCmpf2l6Na/1rI89KudFQeLeR5aS87Ko/qpfyTSofXoh0zO2YBf1h1kM0bx3bi+2k37wBb2Sp21dM55sm3YRq4cWfQ6zLLGnRZX/xkD9TazT5mGM+tql135CR8GkaLk0cvXvZEfj5+hcbRmcB55PLoIhUtipV3FByLdY4P3InTiC8xRJfl4rw33LQbYYQRRhhhhBFGGGGEEUYYYYQRRhhhhBFGGGGEEUYYYYQRRhhhhBFGGGGEEUYYYYQRRhhhhBFGGGGEEUYYYYQRRhhhhBFGGOG/VXhhhvc8ijyXf3DEB2sts7fh51XFR2Pj9Y/GXvLI43Hx8Vqju/oA8dwPE9P3Al75Edn4tc/pVn+yNjbzr56fh76TeGGQQRlxwuc7N3wSRtxQ++Tzj3zKA3f9gJavdYa9LuuLTy73xAeZxT+GzyeJAKuQXsma11OenAaJOD+ZxSQNxjlpZ5v9XiGxIuTPe19VfpZbbN6EdZKZF5txflXUjMT2YiczO3+nznjW+S+wrtoKX3x0PGMvdK/nYewJwffZyypHs9qEzCtUUfigh7TC8gKXi3zYsbqae6+227o7Tjzui/HWKc7pMk+mUZjOucu+/pr9o3j90byeOXHx+XeRYNsvo4tXo9kJMZ3p9Ex4mD4PpsmMvWM2+zczTnzfYEfr74h9b8w7O9b2Ve/TdmW+fXEkYcQ6t9mh9L5ht5lNMVQLX/HaP7MZR/8CiU0M40Lv6vaT+Zkv2PHx8fLk1VPMVYvLfqt7qKvtJuLO5zo7P2nuo/t+cb6KozsWw1oMhmKk5I0czGsnjr1pwN2RaBERX+Vn8lO9U7m60PM0nnXqXovskh4tr2f9TPL9I5WjNMU767rESRR+5mo+y/fWdQrnzthLFmpWxZtrH1VusbKqq7KaSNanlTrpoT35iG2VzusTD9thlq6aTrqpsz5181VV6f1PVTWF2HZ32c+/fGT/Of/lgl2eX3z84afv2I/n3/0wYt+fXpyqCZxlszZ/dESJxpKQxWGUsCC9y8bBmOUtTWLmxOOsePGCqYLi6twLnRcrs9NlN+qTS8STNArY3IlifuaHTtJxxJS/nV3KF6/d5K8pnczqEu2FbXEIVcJPzXZ6ea4/83TPk72z5fKJk/oJm0dhNofxrS7b+urgYDQ6Pd1quPEMcIADHOAABzjAAQ5wgAMc4Pw9cVic3mW/AjOXixeZ6ywEUcRd0IAGNKABDWhAAxrQgAY0oAFNOc1D/mjWH2hu/JQDBzjAAQ5wgAMc4AAHOMABDnDq4Dx/b6AlvjfwMpV9b2Dfyu+wnZzs7R0eghSkIAUpSEEKUpCCFKQgBSlIQQrSt0Fq56ROIiPt5aT9vm0fDEEKUpCCFKQgBSlIQQpSkIIUpCAF6dsg7QvSs8iTkNqHOall7e/3+yAFKUhBClKQghSkIAUpSEEKUpCC9G2Q7gnSj7NURnqQkx5m2+BbkIIUpCAFKUhBClKQghSkIAUpSEH6NkgHgvQ37spI93PS9+9Ho/19kIIUpCAFKUhBClKQghSkIAUpSEH6NkiH+V8mUi4jHeako9FwCFKQghSkIAUpSEEKUpCCFKQgBSlI3wrpviD9EMo6C9qDnPTgwLYHA5CCFKQgBSlIQQpSkIIUpCAFKUhB2hrpCsWNnIdOpdijmXiJzy9nzpybCX9MOlvfh2kUV2MsvtzzvXfHg9gLA5/HuUKFxO4uO3Fd5rBciT14yYzF4R1nbr9iz/h+ajrzOQ/cjiG8je2KHVab6SRJ1DEejS4b9jR3WmQ72eo7xcnC50u8HScYz8Io29/w+USDttCYhEGy88C96SwRGjeh76prLK/Nrye/Lk/wBZ9xJ2E2Ox+P2eV4trVddpne7cbjyJsn/5K+592u692/HpbuIxfLtJjnHhtjMYZH2WE7XsCja/ugZ7D8ZBwbrhfPfWdx5AV+Ftu58cPx528MOWCmujwGlizm2f7ifOzeOvfO8tXSPcV270RivLFj5np3c5+bAX+4vJ92jK9egeyyvV4v/6cygYSu6yROJnz1u+E7N9w3jgyXT5zUT9g8Cieez43uMnL9aBxZZq9r3Dt+youfx2KeyfbJpo7R6PTUeOoq6dhEOn0inT0inQGRzpBIZ59I54BI55BIx+pRCVGNaItqSFtUY9qiGtQW1ai2qIa1RTWuLaqBbVGNbJtqZNtkczXVyLapRratNbJZnN7drX3xtNKKFnFXQ0Z6jvRkpGdIT0Z6fvRkpHmvJyPNej0Zac7ryUgzXk9Gmu96MvKFTFOHaBzLlzFNHaKRLF/ENHWIxrJ8CdPUIRrN8gVMU4doPMuXL00dqnmZaDzL1y5NHfXx/OAFif6ydSNeUteRnh5NHenp0dSRnh5NHWm6a+pI011TR5rumjrSdNfUkaa7po58/dIVohrR8hVMV4hqTMvXMF0hqlEtX8V0hajGtXwd0xWiGtnylUxXiGyuphrZ8sVMV0h9ZD/fiaj8pmC1vzcuv0qYwEL+2y2Zhfz3XjIL+W/EZBbyvwKRWcj/PkRmIf/LEZmF/G9KZBbyvzaRWZT8iZXOo4X8LvnDLJ1HCxle8udcOo8Wcrzkj8B0Hi1kecmfjuk8Wsjzkj8403m0sY63kOclf8Gm86iX55VfyKhWVi2/sZHAQn41yCzkF4PMQn4tyCzkUy6ZhXzGJbOQT7hkFvL5lsxCPt2SWZSUVXQeLeR3SVlF59FChpeUVXQeLeR4SVlF59FClpeUVXQeLeR5SVlF59HGOt5CnpeUVXQe9fK88nuv1Mqq5RdjEVjIrwaZhfxikFnIrwWZhXzKJbOQz7hkFvIJl8xCPt+SWcinWzKLkrKKzqOF/C4pq+g8WsjwkrKKzqOFHC8pq+g8WsjykrKKzqOFPC8pq+g82ljHW8jzkrKKzqNenld+vYhaWbX8/hECC/nVILOQXwwyC/m1ILOQT7lkFvIZl8xCPuGSWcjnWzIL+XRLZlFSVtF5tJDfJWUVnUcLGV5SVtF5tJDjJWUVnUcLWV5SVtF5tJDnJWUVnUcb63gLeV5SVtF51Mvzyi7uamXVss07gYX8apBZyC8GmYX8WpBZyKdcMgv5jEtmIZ9wySzk8y2ZhXy6JbMoKavoPFrI75Kyis6jhQwvKavoPFrI8ZKyis6jhSwvKavoPFrI85Kyis6jjXW8hTwvKavoPOrleWWzXLWyatlNl8BCfjXILOQXg8xCfi3ILORTLpmFfMYls5BPuGQW8vmWzEI+3ZJZlJRVdB4t5HdJWUXn0UKGl5RVdB4t5HhJWUXn0UKWl5RVdB4t5HlJWUXn0cY63kKel5RVdB718ryyJ6FaWbVsWkhgUdbnhsiirAMOkUVZbxwii7J+UEQWZZ2iiCzKekgRWZR1lyKyKOs7RWRR2myNyqOF/C5t0Ubl0UKGlzZ2o/JoIcdL28FRebSQ5aVN5Kg8Wsjz0tZzVB5trOMt5HlpLzsqj+o8/6TS4bVox8yOWcAfVh1k88axnfh+2s07wFa2il31dI558m2YBm7cGfS6zLIGXdYXP9kDtXazjxnGc6tq1x05CZ+G0eLk0YuXPZGfj1+hcXQmcB65PLpIRYti5R0Fx2Kd4wN34jTiSwzRZbk47w037UYYYYQRRhhhhBFGGGGEEUYYYYQRRhhhhBFGGGGEEUYYYYQRRhhhhBFGGGGEEUYYYYQRRhhhhBFGGGGEEUYYYYQRRhhhhBFG+G8VXpjhPY8iz+UfHPHBWsvsbfh5VfHR2Hj9o7GXPPJ4XHy81uiuPkA898PE9L2AV35ENn7tc7rVn6yNzfyr5+eh7yReGGRQRpzw+c4Nn4QRN9Q++fwjn/LAXT+g5WudYa/L+uKTyz3xQWbxj+HzSSLAKqRXsub1lCenQSLOT2YxSYNxTtrZZr9XSKwI+fPeV5Wf5RabN2GdZObFZpxfFTUjsb3YyczO36kznnX+C6yrtsIXHx3P2Avd63kYe0LwffayytGsNiHzClUUPughrbC8wOUiH3asrubeq+227o4Tj/tivHWKc7rMk2kUpnPusq+/Zv8oXn80r2dOXHz+XSTY9svo4tVodkJMZzo9Ex6mz4NpMmPvmM3+zYwT3zfY0fo7Yt8b886OtX3V+7RdmW9fHEkYsc5tdii9b9htZlMM1cJXvPbPbMbRv0BiE8O40Lu6/WR+5gt2fHy8PHn1FHPV4rLf6h7qaruJuPO5zs5Pmvvovl+cr+LojsWwFoOhGCl5Iwfz2oljbxpwdyRaRMRX+Zn8VO9Uri70PI1nnbrXIrukR8vrWT+TfP9I5ShN8c66LnEShZ+5ms/yvXWdwrkz9pKFmlXx5tpHlVusrOqqrCaS9WmlTnpoTz5iW6Xz+sTDdpilq6aTbuqsT918VVV6/1NVTSG23V328y8f2X/Of7lgl+cXH3/46Tv24/l3P4zY96cXp2oCZ9mszR8dUaKxJGRxGCUsSO+ycTBmeUuTmDnxOCtevGCqoLg690LnxcrsdNmN+uQS8SSNAjZ3opif+aGTdBwx5W9nl/LFazf5a0ons7pEe2FbHEKV8FOznV6e68883fNk72y5fOKkfsLmUZjNYXyry7a+OjgYjU5PtxpuPAMc4AAHOMABDnCAAxzgAAc4f08cFqd32a/AzOXiReY6C0EUcRc0oAENaEADGtCABjSgAQ1oQFNO85A/mvUHmhs/5cABDnCAAxzgAAc4wAEOcIADnDo4z98baInvDbxMZd8b2LfyO2wnJ3t7h4cgBSlIQQpSkIIUpCAFKUhBClKQgvRtkNo5qZPISHs5ab9v2wdDkIIUpCAFKUhBClKQghSkIAUpSEH6Nkj7gvQs8iSk9mFOaln7+/0+SEEKUpCCFKQgBSlIQQpSkIIUpCB9G6R7gvTjLJWRHuSkh9k2+BakIAUpSEEKUpCCFKQgBSlIQQpSkL4N0oEg/Y27MtL9nPT9+9Fofx+kIAUpSEEKUpCCFKQgBSlIQQpSkL4N0mH+l4mUy0iHOeloNByCFKQgBSlIQQpSkIIUpCAFKUhBCtK3QrovSD+Ess6C9iAnPTiw7cEApCAFKUhBClKQghSkIAUpSEEKUpC2RrpCcSPnoVMp9mgmXuLzy5kz52bCH5PO1vdhGsXVGIsv93zv3fEg9sLA53GuUCGxu8tOXJc5LFdiD14yY3F4x5nbr9gzvp+aznzOA7djCG9ju2KH1WY6SRJ1jEejy4Y9zZ0W2U62+k5xsvD5Em/HCcazMMr2N3w+0aAtNCZhkOw8cG86S4TGTei76hrLa/Prya/LE3zBZ9xJ2Pl4zC7Hs63tsov0bjceR948+Zf0Pe92Xe/+9bB0H7lYpsU899gYixE8yg7a8QIeXdsHlsHyU3FsuF48953FkRf4WWznxg/Hn78x5ICZ6vIYWLKYZ/uLs7F769w7y1dL9xTbvROJ0caOmevdzX1uBvzh8n7aMb56BbLL9nq9/J/K9BG6rpM4mfDV74bv3HDfODJcPnFSP2HzKJx4Pje6y8j1o3Fkmb2uce/4KTeOhofm4Yvt4LBrjMWckylk08hodHpqPHWVVO1GVPuNqO41ojpoRHXYiOp+I6oHjageNqJq9ZqRbSa7rGbSy2omv6xmEsxqJsOsZlLMaibHrGaSzGomy+xmssxuaA1rJsvsZrLM3iDLWJze3a19jXeNCiHiroao4rnVE1U8s3qiiudVT1Rx7tITVZy59EQV5y09UcVZS09Ucc7SE1UtDDRVG8kp1bJAU7WRrFItCjRVG8kr1ZJAU7WRzFItCDRVG8kt1XJAU7WZ9aqR3FKtBTRV6+bWgxckm5YBN+IN6qqKp1VTVfG0aqoqnlZNVcUpS1NVccrSVFWcsjRVFacsTVXFKUtTVbUe0JVtJrtUKwJd2WbyS7Um0JVtJsNUqwJd2WZyTLUu0JVtJstUKwNd2YbWsGayTLU40JXVyrJPKjccinuD7JgF/GF1QyO/j9GJ76fd/IZE5Z2L1Q3GmCffhmngxp1Br8ssa9BlffGTPVC7+/GYYTzfN3XdkZPwaRgtTh69eHmD7vlUKNzFzATOI5dHF6m4X6a8o+BYrHN84E6cRnyJIW75FZdg0/uy+Y2kdatLHnk8LnAzp+KCzP0wMcXdrUrL+LXjriaNzXzczUPfSbwwyKCMOOHznRs+CSNuqI2kH/mUB+76AS1f6wyzUdAXI0HcDLPEP8Vtz8o7witZ83rKk9MgEecns5ikwTgn7Wyz3xXuewpC/rz3VWVuiM2bsE4y8+JsXIv91IzE9mInMzt/p8541vkvsK7aCr+4N1joXs/D2BOC77OXVY5mtQmZV6ii8EEPaYXlBS4XibtjdTX3Xm23dXeceNwX461TnNNlnkyjMJ1zl339NftH8fqjeT1z4mI+EQm2/TK6eDWanRDTmU7PhIfp82CazNg7ZrN/M+PE9w12tP6O2PfGvLNjbV/1Pm1X5tsXRxJGrHObHUrvG3ab2RRDtfAVr/3zmFn6F0hsYhgXele3n8zPPJvejo+XJ6+eYq5aXPZb3UNdbTcRdz7X2flJcx/d94vzVRzdsRjWYjAUIyVfGM3r5TM93M2f6omv8jP5qd6pXF3oeRrPOnWvRXZJj5bXs34m+f6RylGa4p11XeIkCj9zNZ/le+s6hXNn7CULNavizbWPKrdYWdVVWU0k69NKnfTQnnzEtkrn9YmH7TBLV00n3dRZn7r5qqr0/qeqmkJsu7vs518+sv+c/3LBLs8vPv7w03fsx/Pvfhix708vTtUEzrJZmz86okRjScjiMCukg/QuGwdjlpeIMXPicVa8eMFUQXF17oXOi5XZ6bIb9ckl4kkaBWzuRDE/80Mn6Thiyt/OLuWL127y15ROZnWJ9sK2OIQq4ac/4dnLP9yALR6wFDdU/5RHQYEDHOAABzjAAQ5wgAMc4ADnzeN8+YCLIIq4CxrQgAY0oAENaEADGtCABjSgKaf54pFAQSMe8QMOcIADHOAABzjAAQ5wgAMc4PyJHQ8/8rs5j5wkjTjrnG2j5+Ffqufhb44Ycd/z/D8ndzceDxImLpnofMjdNDv/O2y/d/ZGmiDab6EJot1aE8T8o6d1mzAR6fSJdPaIdAZEOkMinX0inQMinUMinbXuAhsJUY1oi2pIW1Rj2qIa1BbVqLaohrVFNa4tqoFtUY1sm2pk22RzNdXItqlGtq01stWb9q1J1W/Tt4GM9AzVb8W3gYw07+u329tARprz9VvqbSAjzfcN2uZtokM0juXL2AbN8DbRIRrK8jVsgxZ3m+gQjWb5ArZB47pN5kGi8SxfvTZoR7eJDtF4li9d9ZvMrcls0FZuEx3p6dmgddwmOtJ036A93CY60nTfoAXcJjrSdN+kzdtGQlQjWr6CbdK8bSMhqkEtX8Q2acm2kRDVuJavY5s0WttoZqQa2fKlbJP2aRsJUY1s+WqGpmhvoikawggjjDDCCCOMMMIII4wwwggjjDDCf6XwwgzveRR5Lv/giD9UWWYPTfFfHAma4j9vaIqvtaEpPpria2xoiv/HDU3x/7ihKb7mhqb4aIr/6oam+MABDnCAAxzgAAc4wAEOcIADnLfQUhI0oAENaEADGtCABjSgAQ1o3g7N/5lWlsABDnCAAxzgAAc4wAEOcIBT3+9PaIr/3rvjQeyFgc/jGC3x/1ot8cPoMzudTLyxx4Px4rkRfrst8It3/yHy8v9XPy//+6xe/PD8n5vQXYj/zpI7/1//7/8DJhoGEQ=="
               },
               {
                  "name" : "annual_peak_electric_demand",
                  "units" : "kW",
                  "value" : 133.04617000000002
               },
               {
                  "name" : "first_year_capital_cost",
                  "units" : "$",
                  "value" : 0
               },
               {
                  "name" : "annual_utility_cost",
                  "units" : "$",
                  "value" : 55817.220000000001
               },
               {
                  "name" : "total_lifecycle_cost",
                  "units" : "$",
                  "value" : 944299.12
               }
            ],
            "step_warnings" : []
         }
      }
   ],
   "updated_at" : "20170710T194131Z",
   "weather_file" : "USA_CO_Denver.Intl.AP.725650_TMY3.epw"
}
