{
   "completed_at" : "20170710T194945Z",
   "completed_status" : "Success",
   "created_at" : "2017-07-10 19:24:01 +0000",
   "current_step" : 5,
   "description" : "",
   "eplusout_err" : "Program Version,EnergyPlus, Version 8.7.0-78a111df4a, YMD=2017.07.10 19:35,IDD_Version 8.7.0\n   ************* IDF Context for following error/warning message:\n   ************* Note -- lines truncated at 300 characters, if necessary...\n   *************      5 Building,\n   ************* indicated Name=NECB 2011-Outpatient-NECB HDD Method-CAN_PQ_Ste.Agathe.des.Monts.717200_CWEC.epw created: 2017-07-10 19:24:20 +0000\n   ************* Only last 1 lines before error line shown.....\n   *************      6   NECB 2011-Outpatient-NECB HDD Method-CAN_PQ_Ste.Agathe.des.Monts.717200_CWEC.epw created: 2017-07-10 19:24:20 +0000, !- Name\n   ** Warning ** IP: IDF line~6 Alpha Argument length exceeds maximum, will be truncated=  NECB 2011-Outpatient-NECB HDD Method-CAN_PQ_Ste.Agathe.des.Monts.717200_CWEC.epw created: 2017-07-10 19:24:20 +000\n   **   ~~~   ** Will be processed as Alpha=NECB 2011-OUTPATIENT-NECB HDD METHOD-CAN_PQ_STE.AGATHE.DES.MONTS.717200_CWEC.EPW CREATED: 2017-07-10 19:24:20 +0000\n   ************* IDF Context for following error/warning message:\n   ************* Note -- lines truncated at 300 characters, if necessary...\n   *************  33197 Schedule:Week:Daily,\n   ************* indicated Name=Schedule:Week:Daily {f6903cd8-5e0b-4bbb-ad50-e605a010469b}\n   ************* Only last 10 lines before error line shown.....\n   *************  33198   Schedule:Week:Daily {f6903cd8-5e0b-4bbb-ad50-e605a010469b}, !- Name\n   *************  33199   Sp-Floor 3 Physical Therapy 1 Sys-3 Flr-2 Sch-C HPlcmt-south ZN NECB System 3 PSZ Occ Sch Sunday, !- Sunday Schedule:Day Name\n   *************  33200   Sp-Floor 3 Physical Therapy 1 Sys-3 Flr-2 Sch-C HPlcmt-south ZN NECB System 3 PSZ Occ Sch Monday, !- Monday Schedule:Day Name\n   *************  33201   Sp-Floor 3 Physical Therapy 1 Sys-3 Flr-2 Sch-C HPlcmt-south ZN NECB System 3 PSZ Occ Sch Tuesday, !- Tuesday Schedule:Day Name\n   *************  33202   Sp-Floor 3 Physical Therapy 1 Sys-3 Flr-2 Sch-C HPlcmt-south ZN NECB System 3 PSZ Occ Sch Wednesday, !- Wednesday Schedule:Day Name\n   *************  33203   Sp-Floor 3 Physical Therapy 1 Sys-3 Flr-2 Sch-C HPlcmt-south ZN NECB System 3 PSZ Occ Sch Thursday, !- Thursday Schedule:Day Name\n   *************  33204   Sp-Floor 3 Physical Therapy 1 Sys-3 Flr-2 Sch-C HPlcmt-south ZN NECB System 3 PSZ Occ Sch Friday, !- Friday Schedule:Day Name\n   *************  33205   Sp-Floor 3 Physical Therapy 1 Sys-3 Flr-2 Sch-C HPlcmt-south ZN NECB System 3 PSZ Occ Sch Saturday, !- Saturday Schedule:Day Name\n   *************  33206   Sp-Floor 3 Physical Therapy 1 Sys-3 Flr-2 Sch-C HPlcmt-south ZN NECB System 3 PSZ Occ Sch Default, !- Holiday Schedule:Day Name\n   *************  33207   Sp-Floor 3 Physical Therapy 1 Sys-3 Flr-2 Sch-C HPlcmt-south ZN NECB System 3 PSZ Occ Sch Summer Design Day, !- SummerDesignDay Schedule:Day Name\n   ** Warning ** IP: IDF line~33207 Alpha Argument length exceeds maximum, will be truncated=  Sp-Floor 3 Physical Therapy 1 Sys-3 Flr-2 Sch-C HPlcmt-south ZN NECB System 3 PSZ Occ Sch Summer Design Da\n   **   ~~~   ** Will be processed as Alpha=SP-FLOOR 3 PHYSICAL THERAPY 1 SYS-3 FLR-2 SCH-C HPLCMT-SOUTH ZN NECB SYSTEM 3 PSZ OCC SCH SUMMER DESIGN DAY\n   ************* IDF Context for following error/warning message:\n   ************* Note -- lines truncated at 300 characters, if necessary...\n   *************  33197 Schedule:Week:Daily,\n   ************* indicated Name=Schedule:Week:Daily {f6903cd8-5e0b-4bbb-ad50-e605a010469b}\n   ************* Only last 10 lines before error line shown.....\n   *************  33199   Sp-Floor 3 Physical Therapy 1 Sys-3 Flr-2 Sch-C HPlcmt-south ZN NECB System 3 PSZ Occ Sch Sunday, !- Sunday Schedule:Day Name\n   *************  33200   Sp-Floor 3 Physical Therapy 1 Sys-3 Flr-2 Sch-C HPlcmt-south ZN NECB System 3 PSZ Occ Sch Monday, !- Monday Schedule:Day Name\n   *************  33201   Sp-Floor 3 Physical Therapy 1 Sys-3 Flr-2 Sch-C HPlcmt-south ZN NECB System 3 PSZ Occ Sch Tuesday, !- Tuesday Schedule:Day Name\n   *************  33202   Sp-Floor 3 Physical Therapy 1 Sys-3 Flr-2 Sch-C HPlcmt-south ZN NECB System 3 PSZ Occ Sch Wednesday, !- Wednesday Schedule:Day Name\n   *************  33203   Sp-Floor 3 Physical Therapy 1 Sys-3 Flr-2 Sch-C HPlcmt-south ZN NECB System 3 PSZ Occ Sch Thursday, !- Thursday Schedule:Day Name\n   *************  33204   Sp-Floor 3 Physical Therapy 1 Sys-3 Flr-2 Sch-C HPlcmt-south ZN NECB System 3 PSZ Occ Sch Friday, !- Friday Schedule:Day Name\n   *************  33205   Sp-Floor 3 Physical Therapy 1 Sys-3 Flr-2 Sch-C HPlcmt-south ZN NECB System 3 PSZ Occ Sch Saturday, !- Saturday Schedule:Day Name\n   *************  33206   Sp-Floor 3 Physical Therapy 1 Sys-3 Flr-2 Sch-C HPlcmt-south ZN NECB System 3 PSZ Occ Sch Default, !- Holiday Schedule:Day Name\n   *************  33207   Sp-Floor 3 Physical Therapy 1 Sys-3 Flr-2 Sch-C HPlcmt-south ZN NECB System 3 PSZ Occ Sch Summer Design Day, !- SummerDesignDay Schedule:Day Name\n   *************  33208   Sp-Floor 3 Physical Therapy 1 Sys-3 Flr-2 Sch-C HPlcmt-south ZN NECB System 3 PSZ Occ Sch Winter Design Day, !- WinterDesignDay Schedule:Day Name\n   ** Warning ** IP: IDF line~33208 Alpha Argument length exceeds maximum, will be truncated=  Sp-Floor 3 Physical Therapy 1 Sys-3 Flr-2 Sch-C HPlcmt-south ZN NECB System 3 PSZ Occ Sch Winter Design Da\n   **   ~~~   ** Will be processed as Alpha=SP-FLOOR 3 PHYSICAL THERAPY 1 SYS-3 FLR-2 SCH-C HPLCMT-SOUTH ZN NECB SYSTEM 3 PSZ OCC SCH WINTER DESIGN DAY\n   ************* IDF Context for following error/warning message:\n   ************* Note -- lines truncated at 300 characters, if necessary...\n   *************  33228 Schedule:Day:Interval,\n   ************* indicated Name=Sp-Floor 3 Physical Therapy 1 Sys-3 Flr-2 Sch-C HPlcmt-south ZN NECB System 3 PSZ Occ Sch Summer Design Day\n   ************* Only last 1 lines before error line shown.....\n   *************  33229   Sp-Floor 3 Physical Therapy 1 Sys-3 Flr-2 Sch-C HPlcmt-south ZN NECB System 3 PSZ Occ Sch Summer Design Day, !- Name\n   ** Warning ** IP: IDF line~33229 Alpha Argument length exceeds maximum, will be truncated=  Sp-Floor 3 Physical Therapy 1 Sys-3 Flr-2 Sch-C HPlcmt-south ZN NECB System 3 PSZ Occ Sch Summer Design Da\n   **   ~~~   ** Will be processed as Alpha=SP-FLOOR 3 PHYSICAL THERAPY 1 SYS-3 FLR-2 SCH-C HPLCMT-SOUTH ZN NECB SYSTEM 3 PSZ OCC SCH SUMMER DESIGN DAY\n   ************* IDF Context for following error/warning message:\n   ************* Note -- lines truncated at 300 characters, if necessary...\n   *************  33235 Schedule:Day:Interval,\n   ************* indicated Name=Sp-Floor 3 Physical Therapy 1 Sys-3 Flr-2 Sch-C HPlcmt-south ZN NECB System 3 PSZ Occ Sch Winter Design Day\n   ************* Only last 1 lines before error line shown.....\n   *************  33236   Sp-Floor 3 Physical Therapy 1 Sys-3 Flr-2 Sch-C HPlcmt-south ZN NECB System 3 PSZ Occ Sch Winter Design Day, !- Name\n   ** Warning ** IP: IDF line~33236 Alpha Argument length exceeds maximum, will be truncated=  Sp-Floor 3 Physical Therapy 1 Sys-3 Flr-2 Sch-C HPlcmt-south ZN NECB System 3 PSZ Occ Sch Winter Design Da\n   **   ~~~   ** Will be processed as Alpha=SP-FLOOR 3 PHYSICAL THERAPY 1 SYS-3 FLR-2 SCH-C HPLCMT-SOUTH ZN NECB SYSTEM 3 PSZ OCC SCH WINTER DESIGN DAY\n   ************* IDF Context for following error/warning message:\n   ************* Note -- lines truncated at 300 characters, if necessary...\n   *************  35122 Schedule:Week:Daily,\n   ************* indicated Name=Schedule:Week:Daily {b03c50c0-6f5f-49fc-b0ce-fa6eb935ec3c}\n   ************* Only last 10 lines before error line shown.....\n   *************  35123   Schedule:Week:Daily {b03c50c0-6f5f-49fc-b0ce-fa6eb935ec3c}, !- Name\n   *************  35124   Sp-Floor 3 Undeveloped 1 Sys-4 Flr-2 Sch-E HPlcmt-south ZN NECB System 4 PSZ Occ Sch Sunday, !- Sunday Schedule:Day Name\n   *************  35125   Sp-Floor 3 Undeveloped 1 Sys-4 Flr-2 Sch-E HPlcmt-south ZN NECB System 4 PSZ Occ Sch Monday, !- Monday Schedule:Day Name\n   *************  35126   Sp-Floor 3 Undeveloped 1 Sys-4 Flr-2 Sch-E HPlcmt-south ZN NECB System 4 PSZ Occ Sch Tuesday, !- Tuesday Schedule:Day Name\n   *************  35127   Sp-Floor 3 Undeveloped 1 Sys-4 Flr-2 Sch-E HPlcmt-south ZN NECB System 4 PSZ Occ Sch Wednesday, !- Wednesday Schedule:Day Name\n   *************  35128   Sp-Floor 3 Undeveloped 1 Sys-4 Flr-2 Sch-E HPlcmt-south ZN NECB System 4 PSZ Occ Sch Thursday, !- Thursday Schedule:Day Name\n   *************  35129   Sp-Floor 3 Undeveloped 1 Sys-4 Flr-2 Sch-E HPlcmt-south ZN NECB System 4 PSZ Occ Sch Friday, !- Friday Schedule:Day Name\n   *************  35130   Sp-Floor 3 Undeveloped 1 Sys-4 Flr-2 Sch-E HPlcmt-south ZN NECB System 4 PSZ Occ Sch Saturday, !- Saturday Schedule:Day Name\n   *************  35131   Sp-Floor 3 Undeveloped 1 Sys-4 Flr-2 Sch-E HPlcmt-south ZN NECB System 4 PSZ Occ Sch Default, !- Holiday Schedule:Day Name\n   *************  35132   Sp-Floor 3 Undeveloped 1 Sys-4 Flr-2 Sch-E HPlcmt-south ZN NECB System 4 PSZ Occ Sch Summer Design Day, !- SummerDesignDay Schedule:Day Name\n   ** Warning ** IP: IDF line~35132 Alpha Argument length exceeds maximum, will be truncated=  Sp-Floor 3 Undeveloped 1 Sys-4 Flr-2 Sch-E HPlcmt-south ZN NECB System 4 PSZ Occ Sch Summer Design Da\n   **   ~~~   ** Will be processed as Alpha=SP-FLOOR 3 UNDEVELOPED 1 SYS-4 FLR-2 SCH-E HPLCMT-SOUTH ZN NECB SYSTEM 4 PSZ OCC SCH SUMMER DESIGN DAY\n   ************* IDF Context for following error/warning message:\n   ************* Note -- lines truncated at 300 characters, if necessary...\n   *************  35122 Schedule:Week:Daily,\n   ************* indicated Name=Schedule:Week:Daily {b03c50c0-6f5f-49fc-b0ce-fa6eb935ec3c}\n   ************* Only last 10 lines before error line shown.....\n   *************  35124   Sp-Floor 3 Undeveloped 1 Sys-4 Flr-2 Sch-E HPlcmt-south ZN NECB System 4 PSZ Occ Sch Sunday, !- Sunday Schedule:Day Name\n   *************  35125   Sp-Floor 3 Undeveloped 1 Sys-4 Flr-2 Sch-E HPlcmt-south ZN NECB System 4 PSZ Occ Sch Monday, !- Monday Schedule:Day Name\n   *************  35126   Sp-Floor 3 Undeveloped 1 Sys-4 Flr-2 Sch-E HPlcmt-south ZN NECB System 4 PSZ Occ Sch Tuesday, !- Tuesday Schedule:Day Name\n   *************  35127   Sp-Floor 3 Undeveloped 1 Sys-4 Flr-2 Sch-E HPlcmt-south ZN NECB System 4 PSZ Occ Sch Wednesday, !- Wednesday Schedule:Day Name\n   *************  35128   Sp-Floor 3 Undeveloped 1 Sys-4 Flr-2 Sch-E HPlcmt-south ZN NECB System 4 PSZ Occ Sch Thursday, !- Thursday Schedule:Day Name\n   *************  35129   Sp-Floor 3 Undeveloped 1 Sys-4 Flr-2 Sch-E HPlcmt-south ZN NECB System 4 PSZ Occ Sch Friday, !- Friday Schedule:Day Name\n   *************  35130   Sp-Floor 3 Undeveloped 1 Sys-4 Flr-2 Sch-E HPlcmt-south ZN NECB System 4 PSZ Occ Sch Saturday, !- Saturday Schedule:Day Name\n   *************  35131   Sp-Floor 3 Undeveloped 1 Sys-4 Flr-2 Sch-E HPlcmt-south ZN NECB System 4 PSZ Occ Sch Default, !- Holiday Schedule:Day Name\n   *************  35132   Sp-Floor 3 Undeveloped 1 Sys-4 Flr-2 Sch-E HPlcmt-south ZN NECB System 4 PSZ Occ Sch Summer Design Day, !- SummerDesignDay Schedule:Day Name\n   *************  35133   Sp-Floor 3 Undeveloped 1 Sys-4 Flr-2 Sch-E HPlcmt-south ZN NECB System 4 PSZ Occ Sch Winter Design Day, !- WinterDesignDay Schedule:Day Name\n   ** Warning ** IP: IDF line~35133 Alpha Argument length exceeds maximum, will be truncated=  Sp-Floor 3 Undeveloped 1 Sys-4 Flr-2 Sch-E HPlcmt-south ZN NECB System 4 PSZ Occ Sch Winter Design Da\n   **   ~~~   ** Will be processed as Alpha=SP-FLOOR 3 UNDEVELOPED 1 SYS-4 FLR-2 SCH-E HPLCMT-SOUTH ZN NECB SYSTEM 4 PSZ OCC SCH WINTER DESIGN DAY\n   ************* IDF Context for following error/warning message:\n   ************* Note -- lines truncated at 300 characters, if necessary...\n   *************  35153 Schedule:Day:Interval,\n   ************* indicated Name=Sp-Floor 3 Undeveloped 1 Sys-4 Flr-2 Sch-E HPlcmt-south ZN NECB System 4 PSZ Occ Sch Summer Design Day\n   ************* Only last 1 lines before error line shown.....\n   *************  35154   Sp-Floor 3 Undeveloped 1 Sys-4 Flr-2 Sch-E HPlcmt-south ZN NECB System 4 PSZ Occ Sch Summer Design Day, !- Name\n   ** Warning ** IP: IDF line~35154 Alpha Argument length exceeds maximum, will be truncated=  Sp-Floor 3 Undeveloped 1 Sys-4 Flr-2 Sch-E HPlcmt-south ZN NECB System 4 PSZ Occ Sch Summer Design Da\n   **   ~~~   ** Will be processed as Alpha=SP-FLOOR 3 UNDEVELOPED 1 SYS-4 FLR-2 SCH-E HPLCMT-SOUTH ZN NECB SYSTEM 4 PSZ OCC SCH SUMMER DESIGN DAY\n   ************* IDF Context for following error/warning message:\n   ************* Note -- lines truncated at 300 characters, if necessary...\n   *************  35160 Schedule:Day:Interval,\n   ************* indicated Name=Sp-Floor 3 Undeveloped 1 Sys-4 Flr-2 Sch-E HPlcmt-south ZN NECB System 4 PSZ Occ Sch Winter Design Day\n   ************* Only last 1 lines before error line shown.....\n   *************  35161   Sp-Floor 3 Undeveloped 1 Sys-4 Flr-2 Sch-E HPlcmt-south ZN NECB System 4 PSZ Occ Sch Winter Design Day, !- Name\n   ** Warning ** IP: IDF line~35161 Alpha Argument length exceeds maximum, will be truncated=  Sp-Floor 3 Undeveloped 1 Sys-4 Flr-2 Sch-E HPlcmt-south ZN NECB System 4 PSZ Occ Sch Winter Design Da\n   **   ~~~   ** Will be processed as Alpha=SP-FLOOR 3 UNDEVELOPED 1 SYS-4 FLR-2 SCH-E HPLCMT-SOUTH ZN NECB SYSTEM 4 PSZ OCC SCH WINTER DESIGN DAY\n   ************* IDF Context for following error/warning message:\n   ************* Note -- lines truncated at 300 characters, if necessary...\n   *************  49812 AirLoopHVAC,\n   ************* indicated Name=Sp-Floor 1 Electrical Room Sys-4 Flr-3 Sch-H HPlcmt-east ZN NECB System 4 PSZ\n   ************* Only last 3 lines before error line shown.....\n   *************  49813   Sp-Floor 1 Electrical Room Sys-4 Flr-3 Sch-H HPlcmt-east ZN NECB System 4 PSZ, !- Name\n   *************  49814   ,                                       !- Controller List Name\n   *************  49815   Sp-Floor 1 Electrical Room Sys-4 Flr-3 Sch-H HPlcmt-east ZN NECB System 4 PSZAvailability Manager List, !- Availability Manager List Name\n   ** Warning ** IP: IDF line~49815 Alpha Argument length exceeds maximum, will be truncated=  Sp-Floor 1 Electrical Room Sys-4 Flr-3 Sch-H HPlcmt-east ZN NECB System 4 PSZAvailability Manager Lis\n   **   ~~~   ** Will be processed as Alpha=SP-FLOOR 1 ELECTRICAL ROOM SYS-4 FLR-3 SCH-H HPLCMT-EAST ZN NECB SYSTEM 4 PSZAVAILABILITY MANAGER LIST\n   ************* IDF Context for following error/warning message:\n   ************* Note -- lines truncated at 300 characters, if necessary...\n   *************  49871 AvailabilityManagerAssignmentList,\n   ************* indicated Name=Sp-Floor 1 Electrical Room Sys-4 Flr-3 Sch-H HPlcmt-east ZN NECB System 4 PSZAvailability Manager List\n   ************* Only last 1 lines before error line shown.....\n   *************  49872   Sp-Floor 1 Electrical Room Sys-4 Flr-3 Sch-H HPlcmt-east ZN NECB System 4 PSZAvailability Manager List, !- Name\n   ** Warning ** IP: IDF line~49872 Alpha Argument length exceeds maximum, will be truncated=  Sp-Floor 1 Electrical Room Sys-4 Flr-3 Sch-H HPlcmt-east ZN NECB System 4 PSZAvailability Manager Lis\n   **   ~~~   ** Will be processed as Alpha=SP-FLOOR 1 ELECTRICAL ROOM SYS-4 FLR-3 SCH-H HPLCMT-EAST ZN NECB SYSTEM 4 PSZAVAILABILITY MANAGER LIST\n   ************* IDF Context for following error/warning message:\n   ************* Note -- lines truncated at 300 characters, if necessary...\n   *************  50134 AirLoopHVAC,\n   ************* indicated Name=Sp-Floor 1 Elevator Pump Room Sys-3 Flr-3 Sch-H HPlcmt-north ZN NECB System 3 PSZ\n   ************* Only last 3 lines before error line shown.....\n   *************  50135   Sp-Floor 1 Elevator Pump Room Sys-3 Flr-3 Sch-H HPlcmt-north ZN NECB System 3 PSZ, !- Name\n   *************  50136   ,                                       !- Controller List Name\n   *************  50137   Sp-Floor 1 Elevator Pump Room Sys-3 Flr-3 Sch-H HPlcmt-north ZN NECB System 3 PSZAvailability Manager List, !- Availability Manager List Name\n   ** Warning ** IP: IDF line~50137 Alpha Argument length exceeds maximum, will be truncated=  Sp-Floor 1 Elevator Pump Room Sys-3 Flr-3 Sch-H HPlcmt-north ZN NECB System 3 PSZAvailability Manager Lis\n   **   ~~~   ** Will be processed as Alpha=SP-FLOOR 1 ELEVATOR PUMP ROOM SYS-3 FLR-3 SCH-H HPLCMT-NORTH ZN NECB SYSTEM 3 PSZAVAILABILITY MANAGER LIST\n   ************* IDF Context for following error/warning message:\n   ************* Note -- lines truncated at 300 characters, if necessary...\n   *************  50134 AirLoopHVAC,\n   ************* indicated Name=Sp-Floor 1 Elevator Pump Room Sys-3 Flr-3 Sch-H HPlcmt-north ZN NECB System 3 PSZ\n   ************* Only last 10 lines before error line shown.....\n   *************  50135   Sp-Floor 1 Elevator Pump Room Sys-3 Flr-3 Sch-H HPlcmt-north ZN NECB System 3 PSZ, !- Name\n   *************  50136   ,                                       !- Controller List Name\n   *************  50137   Sp-Floor 1 Elevator Pump Room Sys-3 Flr-3 Sch-H HPlcmt-north ZN NECB System 3 PSZAvailability Manager List, !- Availability Manager List Name\n   *************  50138   AutoSize,                               !- Design Supply Air Flow Rate {m3/s}\n   *************  50139   Sp-Floor 1 Elevator Pump Room Sys-3 Flr-3 Sch-H HPlcmt-north ZN NECB System 3 PSZ Supply Branches, !- Branch List Name\n   *************  50140   ,                                       !- Connector List Name\n   *************  50141   Node 592,                               !- Supply Side Inlet Node Name\n   *************  50142   Node 595,                               !- Demand Side Outlet Node Name\n   *************  50143   Sp-Floor 1 Elevator Pump Room Sys-3 Flr-3 Sch-H HPlcmt-north ZN NECB System 3 PSZ Demand Inlet Nodes, !- Demand Side Inlet Node Names\n   *************  50144   Sp-Floor 1 Elevator Pump Room Sys-3 Flr-3 Sch-H HPlcmt-north ZN NECB System 3 PSZ Supply Outlet Nodes; !- Supply Side Outlet Node Names\n   ** Warning ** IP: IDF line~50144 Alpha Argument length exceeds maximum, will be truncated=  Sp-Floor 1 Elevator Pump Room Sys-3 Flr-3 Sch-H HPlcmt-north ZN NECB System 3 PSZ Supply Outlet Node\n   **   ~~~   ** Will be processed as Alpha=SP-FLOOR 1 ELEVATOR PUMP ROOM SYS-3 FLR-3 SCH-H HPLCMT-NORTH ZN NECB SYSTEM 3 PSZ SUPPLY OUTLET NODES\n   ************* IDF Context for following error/warning message:\n   ************* Note -- lines truncated at 300 characters, if necessary...\n   *************  50146 NodeList,\n   ************* indicated Name=Sp-Floor 1 Elevator Pump Room Sys-3 Flr-3 Sch-H HPlcmt-north ZN NECB System 3 PSZ Supply Outlet Nodes\n   ************* Only last 1 lines before error line shown.....\n   *************  50147   Sp-Floor 1 Elevator Pump Room Sys-3 Flr-3 Sch-H HPlcmt-north ZN NECB System 3 PSZ Supply Outlet Nodes, !- Name\n   ** Warning ** IP: IDF line~50147 Alpha Argument length exceeds maximum, will be truncated=  Sp-Floor 1 Elevator Pump Room Sys-3 Flr-3 Sch-H HPlcmt-north ZN NECB System 3 PSZ Supply Outlet Node\n   **   ~~~   ** Will be processed as Alpha=SP-FLOOR 1 ELEVATOR PUMP ROOM SYS-3 FLR-3 SCH-H HPLCMT-NORTH ZN NECB SYSTEM 3 PSZ SUPPLY OUTLET NODES\n   ************* IDF Context for following error/warning message:\n   ************* Note -- lines truncated at 300 characters, if necessary...\n   *************  50193 AvailabilityManagerAssignmentList,\n   ************* indicated Name=Sp-Floor 1 Elevator Pump Room Sys-3 Flr-3 Sch-H HPlcmt-north ZN NECB System 3 PSZAvailability Manager List\n   ************* Only last 1 lines before error line shown.....\n   *************  50194   Sp-Floor 1 Elevator Pump Room Sys-3 Flr-3 Sch-H HPlcmt-north ZN NECB System 3 PSZAvailability Manager List, !- Name\n   ** Warning ** IP: IDF line~50194 Alpha Argument length exceeds maximum, will be truncated=  Sp-Floor 1 Elevator Pump Room Sys-3 Flr-3 Sch-H HPlcmt-north ZN NECB System 3 PSZAvailability Manager Lis\n   **   ~~~   ** Will be processed as Alpha=SP-FLOOR 1 ELEVATOR PUMP ROOM SYS-3 FLR-3 SCH-H HPLCMT-NORTH ZN NECB SYSTEM 3 PSZAVAILABILITY MANAGER LIST\n   ************* IDF Context for following error/warning message:\n   ************* Note -- lines truncated at 300 characters, if necessary...\n   *************  50193 AvailabilityManagerAssignmentList,\n   ************* indicated Name=Sp-Floor 1 Elevator Pump Room Sys-3 Flr-3 Sch-H HPlcmt-north ZN NECB System 3 PSZAvailability Manager List\n   ************* Only last 3 lines before error line shown.....\n   *************  50194   Sp-Floor 1 Elevator Pump Room Sys-3 Flr-3 Sch-H HPlcmt-north ZN NECB System 3 PSZAvailability Manager List, !- Name\n   *************  50195   AvailabilityManager:Scheduled,          !- Availability Manager Object Type 1\n   *************  50196   Sp-Floor 1 Elevator Pump Room Sys-3 Flr-3 Sch-H HPlcmt-north ZN NECB System 3 PSZ Availability Manager; !- Availability Manager Name 1\n   ** Warning ** IP: IDF line~50196 Alpha Argument length exceeds maximum, will be truncated=  Sp-Floor 1 Elevator Pump Room Sys-3 Flr-3 Sch-H HPlcmt-north ZN NECB System 3 PSZ Availability Manage\n   **   ~~~   ** Will be processed as Alpha=SP-FLOOR 1 ELEVATOR PUMP ROOM SYS-3 FLR-3 SCH-H HPLCMT-NORTH ZN NECB SYSTEM 3 PSZ AVAILABILITY MANAGER\n   ************* IDF Context for following error/warning message:\n   ************* Note -- lines truncated at 300 characters, if necessary...\n   *************  50198 AvailabilityManager:Scheduled,\n   ************* indicated Name=Sp-Floor 1 Elevator Pump Room Sys-3 Flr-3 Sch-H HPlcmt-north ZN NECB System 3 PSZ Availability Manager\n   ************* Only last 1 lines before error line shown.....\n   *************  50199   Sp-Floor 1 Elevator Pump Room Sys-3 Flr-3 Sch-H HPlcmt-north ZN NECB System 3 PSZ Availability Manager, !- Name\n   ** Warning ** IP: IDF line~50199 Alpha Argument length exceeds maximum, will be truncated=  Sp-Floor 1 Elevator Pump Room Sys-3 Flr-3 Sch-H HPlcmt-north ZN NECB System 3 PSZ Availability Manage\n   **   ~~~   ** Will be processed as Alpha=SP-FLOOR 1 ELEVATOR PUMP ROOM SYS-3 FLR-3 SCH-H HPLCMT-NORTH ZN NECB SYSTEM 3 PSZ AVAILABILITY MANAGER\n   ************* IDF Context for following error/warning message:\n   ************* Note -- lines truncated at 300 characters, if necessary...\n   *************  50434 AirLoopHVAC:SupplyPath,\n   ************* indicated Name=Sp-Floor 1 Elevator Pump Room Sys-3 Flr-3 Sch-H HPlcmt-north ZN NECB System 3 PSZ Node 594 Supply Path\n   ************* Only last 1 lines before error line shown.....\n   *************  50435   Sp-Floor 1 Elevator Pump Room Sys-3 Flr-3 Sch-H HPlcmt-north ZN NECB System 3 PSZ Node 594 Supply Path, !- Name\n   ** Warning ** IP: IDF line~50435 Alpha Argument length exceeds maximum, will be truncated=  Sp-Floor 1 Elevator Pump Room Sys-3 Flr-3 Sch-H HPlcmt-north ZN NECB System 3 PSZ Node 594 Supply Pat\n   **   ~~~   ** Will be processed as Alpha=SP-FLOOR 1 ELEVATOR PUMP ROOM SYS-3 FLR-3 SCH-H HPLCMT-NORTH ZN NECB SYSTEM 3 PSZ NODE 594 SUPPLY PATH\n   ************* IDF Context for following error/warning message:\n   ************* Note -- lines truncated at 300 characters, if necessary...\n   *************  51744 AirLoopHVAC,\n   ************* indicated Name=Sp-Floor 1 Locker Room Hall Sys-4 Flr-3 Sch-H HPlcmt-core ZN NECB System 4 PSZ\n   ************* Only last 3 lines before error line shown.....\n   *************  51745   Sp-Floor 1 Locker Room Hall Sys-4 Flr-3 Sch-H HPlcmt-core ZN NECB System 4 PSZ, !- Name\n   *************  51746   ,                                       !- Controller List Name\n   *************  51747   Sp-Floor 1 Locker Room Hall Sys-4 Flr-3 Sch-H HPlcmt-core ZN NECB System 4 PSZAvailability Manager List, !- Availability Manager List Name\n   ** Warning ** IP: IDF line~51747 Alpha Argument length exceeds maximum, will be truncated=  Sp-Floor 1 Locker Room Hall Sys-4 Flr-3 Sch-H HPlcmt-core ZN NECB System 4 PSZAvailability Manager Lis\n   **   ~~~   ** Will be processed as Alpha=SP-FLOOR 1 LOCKER ROOM HALL SYS-4 FLR-3 SCH-H HPLCMT-CORE ZN NECB SYSTEM 4 PSZAVAILABILITY MANAGER LIST\n   ************* IDF Context for following error/warning message:\n   ************* Note -- lines truncated at 300 characters, if necessary...\n   *************  51803 AvailabilityManagerAssignmentList,\n   ************* indicated Name=Sp-Floor 1 Locker Room Hall Sys-4 Flr-3 Sch-H HPlcmt-core ZN NECB System 4 PSZAvailability Manager List\n   ************* Only last 1 lines before error line shown.....\n   *************  51804   Sp-Floor 1 Locker Room Hall Sys-4 Flr-3 Sch-H HPlcmt-core ZN NECB System 4 PSZAvailability Manager List, !- Name\n   ** Warning ** IP: IDF line~51804 Alpha Argument length exceeds maximum, will be truncated=  Sp-Floor 1 Locker Room Hall Sys-4 Flr-3 Sch-H HPlcmt-core ZN NECB System 4 PSZAvailability Manager Lis\n   **   ~~~   ** Will be processed as Alpha=SP-FLOOR 1 LOCKER ROOM HALL SYS-4 FLR-3 SCH-H HPLCMT-CORE ZN NECB SYSTEM 4 PSZAVAILABILITY MANAGER LIST\n   ************* IDF Context for following error/warning message:\n   ************* Note -- lines truncated at 300 characters, if necessary...\n   *************  52710 AirLoopHVAC,\n   ************* indicated Name=Sp-Floor 1 MRI Control Room Sys-3 Flr-3 Sch-H HPlcmt-north ZN NECB System 3 PSZ\n   ************* Only last 3 lines before error line shown.....\n   *************  52711   Sp-Floor 1 MRI Control Room Sys-3 Flr-3 Sch-H HPlcmt-north ZN NECB System 3 PSZ, !- Name\n   *************  52712   ,                                       !- Controller List Name\n   *************  52713   Sp-Floor 1 MRI Control Room Sys-3 Flr-3 Sch-H HPlcmt-north ZN NECB System 3 PSZAvailability Manager List, !- Availability Manager List Name\n   ** Warning ** IP: IDF line~52713 Alpha Argument length exceeds maximum, will be truncated=  Sp-Floor 1 MRI Control Room Sys-3 Flr-3 Sch-H HPlcmt-north ZN NECB System 3 PSZAvailability Manager Lis\n   **   ~~~   ** Will be processed as Alpha=SP-FLOOR 1 MRI CONTROL ROOM SYS-3 FLR-3 SCH-H HPLCMT-NORTH ZN NECB SYSTEM 3 PSZAVAILABILITY MANAGER LIST\n   ************* IDF Context for following error/warning message:\n   ************* Note -- lines truncated at 300 characters, if necessary...\n   *************  52769 AvailabilityManagerAssignmentList,\n   ************* indicated Name=Sp-Floor 1 MRI Control Room Sys-3 Flr-3 Sch-H HPlcmt-north ZN NECB System 3 PSZAvailability Manager List\n   ************* Only last 1 lines before error line shown.....\n   *************  52770   Sp-Floor 1 MRI Control Room Sys-3 Flr-3 Sch-H HPlcmt-north ZN NECB System 3 PSZAvailability Manager List, !- Name\n   ** Warning ** IP: IDF line~52770 Alpha Argument length exceeds maximum, will be truncated=  Sp-Floor 1 MRI Control Room Sys-3 Flr-3 Sch-H HPlcmt-north ZN NECB System 3 PSZAvailability Manager Lis\n   **   ~~~   ** Will be processed as Alpha=SP-FLOOR 1 MRI CONTROL ROOM SYS-3 FLR-3 SCH-H HPLCMT-NORTH ZN NECB SYSTEM 3 PSZAVAILABILITY MANAGER LIST\n   ************* IDF Context for following error/warning message:\n   ************* Note -- lines truncated at 300 characters, if necessary...\n   *************  54964 AirLoopHVAC,\n   ************* indicated Name=Sp-Floor 1 Operating Room 1 Sys-3 Flr-3 Sch-H HPlcmt-east ZN NECB System 3 PSZ\n   ************* Only last 3 lines before error line shown.....\n   *************  54965   Sp-Floor 1 Operating Room 1 Sys-3 Flr-3 Sch-H HPlcmt-east ZN NECB System 3 PSZ, !- Name\n   *************  54966   ,                                       !- Controller List Name\n   *************  54967   Sp-Floor 1 Operating Room 1 Sys-3 Flr-3 Sch-H HPlcmt-east ZN NECB System 3 PSZAvailability Manager List, !- Availability Manager List Name\n   ** Warning ** IP: IDF line~54967 Alpha Argument length exceeds maximum, will be truncated=  Sp-Floor 1 Operating Room 1 Sys-3 Flr-3 Sch-H HPlcmt-east ZN NECB System 3 PSZAvailability Manager Lis\n   **   ~~~   ** Will be processed as Alpha=SP-FLOOR 1 OPERATING ROOM 1 SYS-3 FLR-3 SCH-H HPLCMT-EAST ZN NECB SYSTEM 3 PSZAVAILABILITY MANAGER LIST\n   ************* IDF Context for following error/warning message:\n   ************* Note -- lines truncated at 300 characters, if necessary...\n   *************  55023 AvailabilityManagerAssignmentList,\n   ************* indicated Name=Sp-Floor 1 Operating Room 1 Sys-3 Flr-3 Sch-H HPlcmt-east ZN NECB System 3 PSZAvailability Manager List\n   ************* Only last 1 lines before error line shown.....\n   *************  55024   Sp-Floor 1 Operating Room 1 Sys-3 Flr-3 Sch-H HPlcmt-east ZN NECB System 3 PSZAvailability Manager List, !- Name\n   ** Warning ** IP: IDF line~55024 Alpha Argument length exceeds maximum, will be truncated=  Sp-Floor 1 Operating Room 1 Sys-3 Flr-3 Sch-H HPlcmt-east ZN NECB System 3 PSZAvailability Manager Lis\n   **   ~~~   ** Will be processed as Alpha=SP-FLOOR 1 OPERATING ROOM 1 SYS-3 FLR-3 SCH-H HPLCMT-EAST ZN NECB SYSTEM 3 PSZAVAILABILITY MANAGER LIST\n   ************* IDF Context for following error/warning message:\n   ************* Note -- lines truncated at 300 characters, if necessary...\n   *************  55286 AirLoopHVAC,\n   ************* indicated Name=Sp-Floor 1 Operating Room 2 Sys-3 Flr-3 Sch-H HPlcmt-east ZN NECB System 3 PSZ\n   ************* Only last 3 lines before error line shown.....\n   *************  55287   Sp-Floor 1 Operating Room 2 Sys-3 Flr-3 Sch-H HPlcmt-east ZN NECB System 3 PSZ, !- Name\n   *************  55288   ,                                       !- Controller List Name\n   *************  55289   Sp-Floor 1 Operating Room 2 Sys-3 Flr-3 Sch-H HPlcmt-east ZN NECB System 3 PSZAvailability Manager List, !- Availability Manager List Name\n   ** Warning ** IP: IDF line~55289 Alpha Argument length exceeds maximum, will be truncated=  Sp-Floor 1 Operating Room 2 Sys-3 Flr-3 Sch-H HPlcmt-east ZN NECB System 3 PSZAvailability Manager Lis\n   **   ~~~   ** Will be processed as Alpha=SP-FLOOR 1 OPERATING ROOM 2 SYS-3 FLR-3 SCH-H HPLCMT-EAST ZN NECB SYSTEM 3 PSZAVAILABILITY MANAGER LIST\n   ************* IDF Context for following error/warning message:\n   ************* Note -- lines truncated at 300 characters, if necessary...\n   *************  55345 AvailabilityManagerAssignmentList,\n   ************* indicated Name=Sp-Floor 1 Operating Room 2 Sys-3 Flr-3 Sch-H HPlcmt-east ZN NECB System 3 PSZAvailability Manager List\n   ************* Only last 1 lines before error line shown.....\n   *************  55346   Sp-Floor 1 Operating Room 2 Sys-3 Flr-3 Sch-H HPlcmt-east ZN NECB System 3 PSZAvailability Manager List, !- Name\n   ** Warning ** IP: IDF line~55346 Alpha Argument length exceeds maximum, will be truncated=  Sp-Floor 1 Operating Room 2 Sys-3 Flr-3 Sch-H HPlcmt-east ZN NECB System 3 PSZAvailability Manager Lis\n   **   ~~~   ** Will be processed as Alpha=SP-FLOOR 1 OPERATING ROOM 2 SYS-3 FLR-3 SCH-H HPLCMT-EAST ZN NECB SYSTEM 3 PSZAVAILABILITY MANAGER LIST\n   ************* IDF Context for following error/warning message:\n   ************* Note -- lines truncated at 300 characters, if necessary...\n   *************  55608 AirLoopHVAC,\n   ************* indicated Name=Sp-Floor 1 Operating Room 3 Sys-3 Flr-3 Sch-H HPlcmt-core ZN NECB System 3 PSZ\n   ************* Only last 3 lines before error line shown.....\n   *************  55609   Sp-Floor 1 Operating Room 3 Sys-3 Flr-3 Sch-H HPlcmt-core ZN NECB System 3 PSZ, !- Name\n   *************  55610   ,                                       !- Controller List Name\n   *************  55611   Sp-Floor 1 Operating Room 3 Sys-3 Flr-3 Sch-H HPlcmt-core ZN NECB System 3 PSZAvailability Manager List, !- Availability Manager List Name\n   ** Warning ** IP: IDF line~55611 Alpha Argument length exceeds maximum, will be truncated=  Sp-Floor 1 Operating Room 3 Sys-3 Flr-3 Sch-H HPlcmt-core ZN NECB System 3 PSZAvailability Manager Lis\n   **   ~~~   ** Will be processed as Alpha=SP-FLOOR 1 OPERATING ROOM 3 SYS-3 FLR-3 SCH-H HPLCMT-CORE ZN NECB SYSTEM 3 PSZAVAILABILITY MANAGER LIST\n   ************* IDF Context for following error/warning message:\n   ************* Note -- lines truncated at 300 characters, if necessary...\n   *************  55667 AvailabilityManagerAssignmentList,\n   ************* indicated Name=Sp-Floor 1 Operating Room 3 Sys-3 Flr-3 Sch-H HPlcmt-core ZN NECB System 3 PSZAvailability Manager List\n   ************* Only last 1 lines before error line shown.....\n   *************  55668   Sp-Floor 1 Operating Room 3 Sys-3 Flr-3 Sch-H HPlcmt-core ZN NECB System 3 PSZAvailability Manager List, !- Name\n   ** Warning ** IP: IDF line~55668 Alpha Argument length exceeds maximum, will be truncated=  Sp-Floor 1 Operating Room 3 Sys-3 Flr-3 Sch-H HPlcmt-core ZN NECB System 3 PSZAvailability Manager Lis\n   **   ~~~   ** Will be processed as Alpha=SP-FLOOR 1 OPERATING ROOM 3 SYS-3 FLR-3 SCH-H HPLCMT-CORE ZN NECB SYSTEM 3 PSZAVAILABILITY MANAGER LIST\n   ************* IDF Context for following error/warning message:\n   ************* Note -- lines truncated at 300 characters, if necessary...\n   *************  57218 AirLoopHVAC,\n   ************* indicated Name=Sp-Floor 1 Procedure Room Sys-3 Flr-3 Sch-H HPlcmt-north ZN NECB System 3 PSZ\n   ************* Only last 3 lines before error line shown.....\n   *************  57219   Sp-Floor 1 Procedure Room Sys-3 Flr-3 Sch-H HPlcmt-north ZN NECB System 3 PSZ, !- Name\n   *************  57220   ,                                       !- Controller List Name\n   *************  57221   Sp-Floor 1 Procedure Room Sys-3 Flr-3 Sch-H HPlcmt-north ZN NECB System 3 PSZAvailability Manager List, !- Availability Manager List Name\n   ** Warning ** IP: IDF line~57221 Alpha Argument length exceeds maximum, will be truncated=  Sp-Floor 1 Procedure Room Sys-3 Flr-3 Sch-H HPlcmt-north ZN NECB System 3 PSZAvailability Manager Lis\n   **   ~~~   ** Will be processed as Alpha=SP-FLOOR 1 PROCEDURE ROOM SYS-3 FLR-3 SCH-H HPLCMT-NORTH ZN NECB SYSTEM 3 PSZAVAILABILITY MANAGER LIST\n   ************* IDF Context for following error/warning message:\n   ************* Note -- lines truncated at 300 characters, if necessary...\n   *************  57277 AvailabilityManagerAssignmentList,\n   ************* indicated Name=Sp-Floor 1 Procedure Room Sys-3 Flr-3 Sch-H HPlcmt-north ZN NECB System 3 PSZAvailability Manager List\n   ************* Only last 1 lines before error line shown.....\n   *************  57278   Sp-Floor 1 Procedure Room Sys-3 Flr-3 Sch-H HPlcmt-north ZN NECB System 3 PSZAvailability Manager List, !- Name\n   ** Warning ** IP: IDF line~57278 Alpha Argument length exceeds maximum, will be truncated=  Sp-Floor 1 Procedure Room Sys-3 Flr-3 Sch-H HPlcmt-north ZN NECB System 3 PSZAvailability Manager Lis\n   **   ~~~   ** Will be processed as Alpha=SP-FLOOR 1 PROCEDURE ROOM SYS-3 FLR-3 SCH-H HPLCMT-NORTH ZN NECB SYSTEM 3 PSZAVAILABILITY MANAGER LIST\n   ************* IDF Context for following error/warning message:\n   ************* Note -- lines truncated at 300 characters, if necessary...\n   *************  57862 AirLoopHVAC,\n   ************* indicated Name=Sp-Floor 1 Recovery Room Sys-3 Flr-3 Sch-H HPlcmt-south ZN NECB System 3 PSZ\n   ************* Only last 3 lines before error line shown.....\n   *************  57863   Sp-Floor 1 Recovery Room Sys-3 Flr-3 Sch-H HPlcmt-south ZN NECB System 3 PSZ, !- Name\n   *************  57864   ,                                       !- Controller List Name\n   *************  57865   Sp-Floor 1 Recovery Room Sys-3 Flr-3 Sch-H HPlcmt-south ZN NECB System 3 PSZAvailability Manager List, !- Availability Manager List Name\n   ** Warning ** IP: IDF line~57865 Alpha Argument length exceeds maximum, will be truncated=  Sp-Floor 1 Recovery Room Sys-3 Flr-3 Sch-H HPlcmt-south ZN NECB System 3 PSZAvailability Manager Lis\n   **   ~~~   ** Will be processed as Alpha=SP-FLOOR 1 RECOVERY ROOM SYS-3 FLR-3 SCH-H HPLCMT-SOUTH ZN NECB SYSTEM 3 PSZAVAILABILITY MANAGER LIST\n   ************* IDF Context for following error/warning message:\n   ************* Note -- lines truncated at 300 characters, if necessary...\n   *************  57921 AvailabilityManagerAssignmentList,\n   ************* indicated Name=Sp-Floor 1 Recovery Room Sys-3 Flr-3 Sch-H HPlcmt-south ZN NECB System 3 PSZAvailability Manager List\n   ************* Only last 1 lines before error line shown.....\n   *************  57922   Sp-Floor 1 Recovery Room Sys-3 Flr-3 Sch-H HPlcmt-south ZN NECB System 3 PSZAvailability Manager List, !- Name\n   ** Warning ** IP: IDF line~57922 Alpha Argument length exceeds maximum, will be truncated=  Sp-Floor 1 Recovery Room Sys-3 Flr-3 Sch-H HPlcmt-south ZN NECB System 3 PSZAvailability Manager Lis\n   **   ~~~   ** Will be processed as Alpha=SP-FLOOR 1 RECOVERY ROOM SYS-3 FLR-3 SCH-H HPLCMT-SOUTH ZN NECB SYSTEM 3 PSZAVAILABILITY MANAGER LIST\n   ************* IDF Context for following error/warning message:\n   ************* Note -- lines truncated at 300 characters, if necessary...\n   *************  60116 AirLoopHVAC,\n   ************* indicated Name=Sp-Floor 1 Sterile Storage Sys-4 Flr-3 Sch-E HPlcmt-core ZN NECB System 4 PSZ\n   ************* Only last 3 lines before error line shown.....\n   *************  60117   Sp-Floor 1 Sterile Storage Sys-4 Flr-3 Sch-E HPlcmt-core ZN NECB System 4 PSZ, !- Name\n   *************  60118   ,                                       !- Controller List Name\n   *************  60119   Sp-Floor 1 Sterile Storage Sys-4 Flr-3 Sch-E HPlcmt-core ZN NECB System 4 PSZAvailability Manager List, !- Availability Manager List Name\n   ** Warning ** IP: IDF line~60119 Alpha Argument length exceeds maximum, will be truncated=  Sp-Floor 1 Sterile Storage Sys-4 Flr-3 Sch-E HPlcmt-core ZN NECB System 4 PSZAvailability Manager Lis\n   **   ~~~   ** Will be processed as Alpha=SP-FLOOR 1 STERILE STORAGE SYS-4 FLR-3 SCH-E HPLCMT-CORE ZN NECB SYSTEM 4 PSZAVAILABILITY MANAGER LIST\n   ************* IDF Context for following error/warning message:\n   ************* Note -- lines truncated at 300 characters, if necessary...\n   *************  60175 AvailabilityManagerAssignmentList,\n   ************* indicated Name=Sp-Floor 1 Sterile Storage Sys-4 Flr-3 Sch-E HPlcmt-core ZN NECB System 4 PSZAvailability Manager List\n   ************* Only last 1 lines before error line shown.....\n   *************  60176   Sp-Floor 1 Sterile Storage Sys-4 Flr-3 Sch-E HPlcmt-core ZN NECB System 4 PSZAvailability Manager List, !- Name\n   ** Warning ** IP: IDF line~60176 Alpha Argument length exceeds maximum, will be truncated=  Sp-Floor 1 Sterile Storage Sys-4 Flr-3 Sch-E HPlcmt-core ZN NECB System 4 PSZAvailability Manager Lis\n   **   ~~~   ** Will be processed as Alpha=SP-FLOOR 1 STERILE STORAGE SYS-4 FLR-3 SCH-E HPLCMT-CORE ZN NECB SYSTEM 4 PSZAVAILABILITY MANAGER LIST\n   ************* IDF Context for following error/warning message:\n   ************* Note -- lines truncated at 300 characters, if necessary...\n   *************  61404 AirLoopHVAC,\n   ************* indicated Name=Sp-Floor 1 Utility Janitor Sys-4 Flr-3 Sch-E HPlcmt-core ZN NECB System 4 PSZ\n   ************* Only last 3 lines before error line shown.....\n   *************  61405   Sp-Floor 1 Utility Janitor Sys-4 Flr-3 Sch-E HPlcmt-core ZN NECB System 4 PSZ, !- Name\n   *************  61406   ,                                       !- Controller List Name\n   *************  61407   Sp-Floor 1 Utility Janitor Sys-4 Flr-3 Sch-E HPlcmt-core ZN NECB System 4 PSZAvailability Manager List, !- Availability Manager List Name\n   ** Warning ** IP: IDF line~61407 Alpha Argument length exceeds maximum, will be truncated=  Sp-Floor 1 Utility Janitor Sys-4 Flr-3 Sch-E HPlcmt-core ZN NECB System 4 PSZAvailability Manager Lis\n   **   ~~~   ** Will be processed as Alpha=SP-FLOOR 1 UTILITY JANITOR SYS-4 FLR-3 SCH-E HPLCMT-CORE ZN NECB SYSTEM 4 PSZAVAILABILITY MANAGER LIST\n   ************* IDF Context for following error/warning message:\n   ************* Note -- lines truncated at 300 characters, if necessary...\n   *************  61463 AvailabilityManagerAssignmentList,\n   ************* indicated Name=Sp-Floor 1 Utility Janitor Sys-4 Flr-3 Sch-E HPlcmt-core ZN NECB System 4 PSZAvailability Manager List\n   ************* Only last 1 lines before error line shown.....\n   *************  61464   Sp-Floor 1 Utility Janitor Sys-4 Flr-3 Sch-E HPlcmt-core ZN NECB System 4 PSZAvailability Manager List, !- Name\n   ** Warning ** IP: IDF line~61464 Alpha Argument length exceeds maximum, will be truncated=  Sp-Floor 1 Utility Janitor Sys-4 Flr-3 Sch-E HPlcmt-core ZN NECB System 4 PSZAvailability Manager Lis\n   **   ~~~   ** Will be processed as Alpha=SP-FLOOR 1 UTILITY JANITOR SYS-4 FLR-3 SCH-E HPLCMT-CORE ZN NECB SYSTEM 4 PSZAVAILABILITY MANAGER LIST\n   ************* IDF Context for following error/warning message:\n   ************* Note -- lines truncated at 300 characters, if necessary...\n   *************  62692 AirLoopHVAC,\n   ************* indicated Name=Sp-Floor 2 Conference Toilet Sys-3 Flr-1 Sch-H HPlcmt-core ZN NECB System 3 PSZ\n   ************* Only last 3 lines before error line shown.....\n   *************  62693   Sp-Floor 2 Conference Toilet Sys-3 Flr-1 Sch-H HPlcmt-core ZN NECB System 3 PSZ, !- Name\n   *************  62694   ,                                       !- Controller List Name\n   *************  62695   Sp-Floor 2 Conference Toilet Sys-3 Flr-1 Sch-H HPlcmt-core ZN NECB System 3 PSZAvailability Manager List, !- Availability Manager List Name\n   ** Warning ** IP: IDF line~62695 Alpha Argument length exceeds maximum, will be truncated=  Sp-Floor 2 Conference Toilet Sys-3 Flr-1 Sch-H HPlcmt-core ZN NECB System 3 PSZAvailability Manager Lis\n   **   ~~~   ** Will be processed as Alpha=SP-FLOOR 2 CONFERENCE TOILET SYS-3 FLR-1 SCH-H HPLCMT-CORE ZN NECB SYSTEM 3 PSZAVAILABILITY MANAGER LIST\n   ************* IDF Context for following error/warning message:\n   ************* Note -- lines truncated at 300 characters, if necessary...\n   *************  62751 AvailabilityManagerAssignmentList,\n   ************* indicated Name=Sp-Floor 2 Conference Toilet Sys-3 Flr-1 Sch-H HPlcmt-core ZN NECB System 3 PSZAvailability Manager List\n   ************* Only last 1 lines before error line shown.....\n   *************  62752   Sp-Floor 2 Conference Toilet Sys-3 Flr-1 Sch-H HPlcmt-core ZN NECB System 3 PSZAvailability Manager List, !- Name\n   ** Warning ** IP: IDF line~62752 Alpha Argument length exceeds maximum, will be truncated=  Sp-Floor 2 Conference Toilet Sys-3 Flr-1 Sch-H HPlcmt-core ZN NECB System 3 PSZAvailability Manager Lis\n   **   ~~~   ** Will be processed as Alpha=SP-FLOOR 2 CONFERENCE TOILET SYS-3 FLR-1 SCH-H HPLCMT-CORE ZN NECB SYSTEM 3 PSZAVAILABILITY MANAGER LIST\n   ************* IDF Context for following error/warning message:\n   ************* Note -- lines truncated at 300 characters, if necessary...\n   *************  68488 AirLoopHVAC,\n   ************* indicated Name=Sp-Floor 2 Nurse Station 1 Sys-3 Flr-1 Sch-H HPlcmt-core ZN NECB System 3 PSZ\n   ************* Only last 3 lines before error line shown.....\n   *************  68489   Sp-Floor 2 Nurse Station 1 Sys-3 Flr-1 Sch-H HPlcmt-core ZN NECB System 3 PSZ, !- Name\n   *************  68490   ,                                       !- Controller List Name\n   *************  68491   Sp-Floor 2 Nurse Station 1 Sys-3 Flr-1 Sch-H HPlcmt-core ZN NECB System 3 PSZAvailability Manager List, !- Availability Manager List Name\n   ** Warning ** IP: IDF line~68491 Alpha Argument length exceeds maximum, will be truncated=  Sp-Floor 2 Nurse Station 1 Sys-3 Flr-1 Sch-H HPlcmt-core ZN NECB System 3 PSZAvailability Manager Lis\n   **   ~~~   ** Will be processed as Alpha=SP-FLOOR 2 NURSE STATION 1 SYS-3 FLR-1 SCH-H HPLCMT-CORE ZN NECB SYSTEM 3 PSZAVAILABILITY MANAGER LIST\n   ************* IDF Context for following error/warning message:\n   ************* Note -- lines truncated at 300 characters, if necessary...\n   *************  68547 AvailabilityManagerAssignmentList,\n   ************* indicated Name=Sp-Floor 2 Nurse Station 1 Sys-3 Flr-1 Sch-H HPlcmt-core ZN NECB System 3 PSZAvailability Manager List\n   ************* Only last 1 lines before error line shown.....\n   *************  68548   Sp-Floor 2 Nurse Station 1 Sys-3 Flr-1 Sch-H HPlcmt-core ZN NECB System 3 PSZAvailability Manager List, !- Name\n   ** Warning ** IP: IDF line~68548 Alpha Argument length exceeds maximum, will be truncated=  Sp-Floor 2 Nurse Station 1 Sys-3 Flr-1 Sch-H HPlcmt-core ZN NECB System 3 PSZAvailability Manager Lis\n   **   ~~~   ** Will be processed as Alpha=SP-FLOOR 2 NURSE STATION 1 SYS-3 FLR-1 SCH-H HPLCMT-CORE ZN NECB SYSTEM 3 PSZAVAILABILITY MANAGER LIST\n   ************* IDF Context for following error/warning message:\n   ************* Note -- lines truncated at 300 characters, if necessary...\n   *************  68810 AirLoopHVAC,\n   ************* indicated Name=Sp-Floor 2 Nurse Station 2 Sys-3 Flr-1 Sch-H HPlcmt-core ZN NECB System 3 PSZ\n   ************* Only last 3 lines before error line shown.....\n   *************  68811   Sp-Floor 2 Nurse Station 2 Sys-3 Flr-1 Sch-H HPlcmt-core ZN NECB System 3 PSZ, !- Name\n   *************  68812   ,                                       !- Controller List Name\n   *************  68813   Sp-Floor 2 Nurse Station 2 Sys-3 Flr-1 Sch-H HPlcmt-core ZN NECB System 3 PSZAvailability Manager List, !- Availability Manager List Name\n   ** Warning ** IP: IDF line~68813 Alpha Argument length exceeds maximum, will be truncated=  Sp-Floor 2 Nurse Station 2 Sys-3 Flr-1 Sch-H HPlcmt-core ZN NECB System 3 PSZAvailability Manager Lis\n   **   ~~~   ** Will be processed as Alpha=SP-FLOOR 2 NURSE STATION 2 SYS-3 FLR-1 SCH-H HPLCMT-CORE ZN NECB SYSTEM 3 PSZAVAILABILITY MANAGER LIST\n   ************* IDF Context for following error/warning message:\n   ************* Note -- lines truncated at 300 characters, if necessary...\n   *************  68869 AvailabilityManagerAssignmentList,\n   ************* indicated Name=Sp-Floor 2 Nurse Station 2 Sys-3 Flr-1 Sch-H HPlcmt-core ZN NECB System 3 PSZAvailability Manager List\n   ************* Only last 1 lines before error line shown.....\n   *************  68870   Sp-Floor 2 Nurse Station 2 Sys-3 Flr-1 Sch-H HPlcmt-core ZN NECB System 3 PSZAvailability Manager List, !- Name\n   ** Warning ** IP: IDF line~68870 Alpha Argument length exceeds maximum, will be truncated=  Sp-Floor 2 Nurse Station 2 Sys-3 Flr-1 Sch-H HPlcmt-core ZN NECB System 3 PSZAvailability Manager Lis\n   **   ~~~   ** Will be processed as Alpha=SP-FLOOR 2 NURSE STATION 2 SYS-3 FLR-1 SCH-H HPLCMT-CORE ZN NECB SYSTEM 3 PSZAVAILABILITY MANAGER LIST\n   ************* IDF Context for following error/warning message:\n   ************* Note -- lines truncated at 300 characters, if necessary...\n   *************  69132 AirLoopHVAC,\n   ************* indicated Name=Sp-Floor 2 Reception Hall Sys-3 Flr-1 Sch-H HPlcmt-south ZN NECB System 3 PSZ\n   ************* Only last 3 lines before error line shown.....\n   *************  69133   Sp-Floor 2 Reception Hall Sys-3 Flr-1 Sch-H HPlcmt-south ZN NECB System 3 PSZ, !- Name\n   *************  69134   ,                                       !- Controller List Name\n   *************  69135   Sp-Floor 2 Reception Hall Sys-3 Flr-1 Sch-H HPlcmt-south ZN NECB System 3 PSZAvailability Manager List, !- Availability Manager List Name\n   ** Warning ** IP: IDF line~69135 Alpha Argument length exceeds maximum, will be truncated=  Sp-Floor 2 Reception Hall Sys-3 Flr-1 Sch-H HPlcmt-south ZN NECB System 3 PSZAvailability Manager Lis\n   **   ~~~   ** Will be processed as Alpha=SP-FLOOR 2 RECEPTION HALL SYS-3 FLR-1 SCH-H HPLCMT-SOUTH ZN NECB SYSTEM 3 PSZAVAILABILITY MANAGER LIST\n   ************* IDF Context for following error/warning message:\n   ************* Note -- lines truncated at 300 characters, if necessary...\n   *************  69191 AvailabilityManagerAssignmentList,\n   ************* indicated Name=Sp-Floor 2 Reception Hall Sys-3 Flr-1 Sch-H HPlcmt-south ZN NECB System 3 PSZAvailability Manager List\n   ************* Only last 1 lines before error line shown.....\n   *************  69192   Sp-Floor 2 Reception Hall Sys-3 Flr-1 Sch-H HPlcmt-south ZN NECB System 3 PSZAvailability Manager List, !- Name\n   ** Warning ** IP: IDF line~69192 Alpha Argument length exceeds maximum, will be truncated=  Sp-Floor 2 Reception Hall Sys-3 Flr-1 Sch-H HPlcmt-south ZN NECB System 3 PSZAvailability Manager Lis\n   **   ~~~   ** Will be processed as Alpha=SP-FLOOR 2 RECEPTION HALL SYS-3 FLR-1 SCH-H HPLCMT-SOUTH ZN NECB SYSTEM 3 PSZAVAILABILITY MANAGER LIST\n   ************* IDF Context for following error/warning message:\n   ************* Note -- lines truncated at 300 characters, if necessary...\n   *************  69776 AirLoopHVAC,\n   ************* indicated Name=Sp-Floor 2 Reception Toilet Sys-3 Flr-1 Sch-H HPlcmt-core ZN NECB System 3 PSZ\n   ************* Only last 3 lines before error line shown.....\n   *************  69777   Sp-Floor 2 Reception Toilet Sys-3 Flr-1 Sch-H HPlcmt-core ZN NECB System 3 PSZ, !- Name\n   *************  69778   ,                                       !- Controller List Name\n   *************  69779   Sp-Floor 2 Reception Toilet Sys-3 Flr-1 Sch-H HPlcmt-core ZN NECB System 3 PSZAvailability Manager List, !- Availability Manager List Name\n   ** Warning ** IP: IDF line~69779 Alpha Argument length exceeds maximum, will be truncated=  Sp-Floor 2 Reception Toilet Sys-3 Flr-1 Sch-H HPlcmt-core ZN NECB System 3 PSZAvailability Manager Lis\n   **   ~~~   ** Will be processed as Alpha=SP-FLOOR 2 RECEPTION TOILET SYS-3 FLR-1 SCH-H HPLCMT-CORE ZN NECB SYSTEM 3 PSZAVAILABILITY MANAGER LIST\n   ************* IDF Context for following error/warning message:\n   ************* Note -- lines truncated at 300 characters, if necessary...\n   *************  69835 AvailabilityManagerAssignmentList,\n   ************* indicated Name=Sp-Floor 2 Reception Toilet Sys-3 Flr-1 Sch-H HPlcmt-core ZN NECB System 3 PSZAvailability Manager List\n   ************* Only last 1 lines before error line shown.....\n   *************  69836   Sp-Floor 2 Reception Toilet Sys-3 Flr-1 Sch-H HPlcmt-core ZN NECB System 3 PSZAvailability Manager List, !- Name\n   ** Warning ** IP: IDF line~69836 Alpha Argument length exceeds maximum, will be truncated=  Sp-Floor 2 Reception Toilet Sys-3 Flr-1 Sch-H HPlcmt-core ZN NECB System 3 PSZAvailability Manager Lis\n   **   ~~~   ** Will be processed as Alpha=SP-FLOOR 2 RECEPTION TOILET SYS-3 FLR-1 SCH-H HPLCMT-CORE ZN NECB SYSTEM 3 PSZAVAILABILITY MANAGER LIST\n   ************* IDF Context for following error/warning message:\n   ************* Note -- lines truncated at 300 characters, if necessary...\n   *************  72674 AirLoopHVAC,\n   ************* indicated Name=Sp-Floor 3 Lounge Toilet Sys-3 Flr-2 Sch-H HPlcmt-north ZN NECB System 3 PSZ\n   ************* Only last 3 lines before error line shown.....\n   *************  72675   Sp-Floor 3 Lounge Toilet Sys-3 Flr-2 Sch-H HPlcmt-north ZN NECB System 3 PSZ, !- Name\n   *************  72676   ,                                       !- Controller List Name\n   *************  72677   Sp-Floor 3 Lounge Toilet Sys-3 Flr-2 Sch-H HPlcmt-north ZN NECB System 3 PSZAvailability Manager List, !- Availability Manager List Name\n   ** Warning ** IP: IDF line~72677 Alpha Argument length exceeds maximum, will be truncated=  Sp-Floor 3 Lounge Toilet Sys-3 Flr-2 Sch-H HPlcmt-north ZN NECB System 3 PSZAvailability Manager Lis\n   **   ~~~   ** Will be processed as Alpha=SP-FLOOR 3 LOUNGE TOILET SYS-3 FLR-2 SCH-H HPLCMT-NORTH ZN NECB SYSTEM 3 PSZAVAILABILITY MANAGER LIST\n   ************* IDF Context for following error/warning message:\n   ************* Note -- lines truncated at 300 characters, if necessary...\n   *************  72733 AvailabilityManagerAssignmentList,\n   ************* indicated Name=Sp-Floor 3 Lounge Toilet Sys-3 Flr-2 Sch-H HPlcmt-north ZN NECB System 3 PSZAvailability Manager List\n   ************* Only last 1 lines before error line shown.....\n   *************  72734   Sp-Floor 3 Lounge Toilet Sys-3 Flr-2 Sch-H HPlcmt-north ZN NECB System 3 PSZAvailability Manager List, !- Name\n   ** Warning ** IP: IDF line~72734 Alpha Argument length exceeds maximum, will be truncated=  Sp-Floor 3 Lounge Toilet Sys-3 Flr-2 Sch-H HPlcmt-north ZN NECB System 3 PSZAvailability Manager Lis\n   **   ~~~   ** Will be processed as Alpha=SP-FLOOR 3 LOUNGE TOILET SYS-3 FLR-2 SCH-H HPLCMT-NORTH ZN NECB SYSTEM 3 PSZAVAILABILITY MANAGER LIST\n   ************* IDF Context for following error/warning message:\n   ************* Note -- lines truncated at 300 characters, if necessary...\n   *************  72996 AirLoopHVAC,\n   ************* indicated Name=Sp-Floor 3 Mechanical Hall Sys-3 Flr-2 Sch-H HPlcmt-core ZN NECB System 3 PSZ\n   ************* Only last 3 lines before error line shown.....\n   *************  72997   Sp-Floor 3 Mechanical Hall Sys-3 Flr-2 Sch-H HPlcmt-core ZN NECB System 3 PSZ, !- Name\n   *************  72998   ,                                       !- Controller List Name\n   *************  72999   Sp-Floor 3 Mechanical Hall Sys-3 Flr-2 Sch-H HPlcmt-core ZN NECB System 3 PSZAvailability Manager List, !- Availability Manager List Name\n   ** Warning ** IP: IDF line~72999 Alpha Argument length exceeds maximum, will be truncated=  Sp-Floor 3 Mechanical Hall Sys-3 Flr-2 Sch-H HPlcmt-core ZN NECB System 3 PSZAvailability Manager Lis\n   **   ~~~   ** Will be processed as Alpha=SP-FLOOR 3 MECHANICAL HALL SYS-3 FLR-2 SCH-H HPLCMT-CORE ZN NECB SYSTEM 3 PSZAVAILABILITY MANAGER LIST\n   ************* IDF Context for following error/warning message:\n   ************* Note -- lines truncated at 300 characters, if necessary...\n   *************  73055 AvailabilityManagerAssignmentList,\n   ************* indicated Name=Sp-Floor 3 Mechanical Hall Sys-3 Flr-2 Sch-H HPlcmt-core ZN NECB System 3 PSZAvailability Manager List\n   ************* Only last 1 lines before error line shown.....\n   *************  73056   Sp-Floor 3 Mechanical Hall Sys-3 Flr-2 Sch-H HPlcmt-core ZN NECB System 3 PSZAvailability Manager List, !- Name\n   ** Warning ** IP: IDF line~73056 Alpha Argument length exceeds maximum, will be truncated=  Sp-Floor 3 Mechanical Hall Sys-3 Flr-2 Sch-H HPlcmt-core ZN NECB System 3 PSZAvailability Manager Lis\n   **   ~~~   ** Will be processed as Alpha=SP-FLOOR 3 MECHANICAL HALL SYS-3 FLR-2 SCH-H HPLCMT-CORE ZN NECB SYSTEM 3 PSZAVAILABILITY MANAGER LIST\n   ************* IDF Context for following error/warning message:\n   ************* Note -- lines truncated at 300 characters, if necessary...\n   *************  73962 AirLoopHVAC,\n   ************* indicated Name=Sp-Floor 3 Physical Therapy 1 Sys-3 Flr-2 Sch-C HPlcmt-south ZN NECB System 3 PSZ\n   ************* Only last 3 lines before error line shown.....\n   *************  73963   Sp-Floor 3 Physical Therapy 1 Sys-3 Flr-2 Sch-C HPlcmt-south ZN NECB System 3 PSZ, !- Name\n   *************  73964   ,                                       !- Controller List Name\n   *************  73965   Sp-Floor 3 Physical Therapy 1 Sys-3 Flr-2 Sch-C HPlcmt-south ZN NECB System 3 PSZAvailability Manager List, !- Availability Manager List Name\n   ** Warning ** IP: IDF line~73965 Alpha Argument length exceeds maximum, will be truncated=  Sp-Floor 3 Physical Therapy 1 Sys-3 Flr-2 Sch-C HPlcmt-south ZN NECB System 3 PSZAvailability Manager Lis\n   **   ~~~   ** Will be processed as Alpha=SP-FLOOR 3 PHYSICAL THERAPY 1 SYS-3 FLR-2 SCH-C HPLCMT-SOUTH ZN NECB SYSTEM 3 PSZAVAILABILITY MANAGER LIST\n   ************* IDF Context for following error/warning message:\n   ************* Note -- lines truncated at 300 characters, if necessary...\n   *************  73962 AirLoopHVAC,\n   ************* indicated Name=Sp-Floor 3 Physical Therapy 1 Sys-3 Flr-2 Sch-C HPlcmt-south ZN NECB System 3 PSZ\n   ************* Only last 10 lines before error line shown.....\n   *************  73963   Sp-Floor 3 Physical Therapy 1 Sys-3 Flr-2 Sch-C HPlcmt-south ZN NECB System 3 PSZ, !- Name\n   *************  73964   ,                                       !- Controller List Name\n   *************  73965   Sp-Floor 3 Physical Therapy 1 Sys-3 Flr-2 Sch-C HPlcmt-south ZN NECB System 3 PSZAvailability Manager List, !- Availability Manager List Name\n   *************  73966   AutoSize,                               !- Design Supply Air Flow Rate {m3/s}\n   *************  73967   Sp-Floor 3 Physical Therapy 1 Sys-3 Flr-2 Sch-C HPlcmt-south ZN NECB System 3 PSZ Supply Branches, !- Branch List Name\n   *************  73968   ,                                       !- Connector List Name\n   *************  73969   Node 383,                               !- Supply Side Inlet Node Name\n   *************  73970   Node 386,                               !- Demand Side Outlet Node Name\n   *************  73971   Sp-Floor 3 Physical Therapy 1 Sys-3 Flr-2 Sch-C HPlcmt-south ZN NECB System 3 PSZ Demand Inlet Nodes, !- Demand Side Inlet Node Names\n   *************  73972   Sp-Floor 3 Physical Therapy 1 Sys-3 Flr-2 Sch-C HPlcmt-south ZN NECB System 3 PSZ Supply Outlet Nodes; !- Supply Side Outlet Node Names\n   ** Warning ** IP: IDF line~73972 Alpha Argument length exceeds maximum, will be truncated=  Sp-Floor 3 Physical Therapy 1 Sys-3 Flr-2 Sch-C HPlcmt-south ZN NECB System 3 PSZ Supply Outlet Node\n   **   ~~~   ** Will be processed as Alpha=SP-FLOOR 3 PHYSICAL THERAPY 1 SYS-3 FLR-2 SCH-C HPLCMT-SOUTH ZN NECB SYSTEM 3 PSZ SUPPLY OUTLET NODES\n   ************* IDF Context for following error/warning message:\n   ************* Note -- lines truncated at 300 characters, if necessary...\n   *************  73974 NodeList,\n   ************* indicated Name=Sp-Floor 3 Physical Therapy 1 Sys-3 Flr-2 Sch-C HPlcmt-south ZN NECB System 3 PSZ Supply Outlet Nodes\n   ************* Only last 1 lines before error line shown.....\n   *************  73975   Sp-Floor 3 Physical Therapy 1 Sys-3 Flr-2 Sch-C HPlcmt-south ZN NECB System 3 PSZ Supply Outlet Nodes, !- Name\n   ** Warning ** IP: IDF line~73975 Alpha Argument length exceeds maximum, will be truncated=  Sp-Floor 3 Physical Therapy 1 Sys-3 Flr-2 Sch-C HPlcmt-south ZN NECB System 3 PSZ Supply Outlet Node\n   **   ~~~   ** Will be processed as Alpha=SP-FLOOR 3 PHYSICAL THERAPY 1 SYS-3 FLR-2 SCH-C HPLCMT-SOUTH ZN NECB SYSTEM 3 PSZ SUPPLY OUTLET NODES\n   ************* IDF Context for following error/warning message:\n   ************* Note -- lines truncated at 300 characters, if necessary...\n   *************  74021 AvailabilityManagerAssignmentList,\n   ************* indicated Name=Sp-Floor 3 Physical Therapy 1 Sys-3 Flr-2 Sch-C HPlcmt-south ZN NECB System 3 PSZAvailability Manager List\n   ************* Only last 1 lines before error line shown.....\n   *************  74022   Sp-Floor 3 Physical Therapy 1 Sys-3 Flr-2 Sch-C HPlcmt-south ZN NECB System 3 PSZAvailability Manager List, !- Name\n   ** Warning ** IP: IDF line~74022 Alpha Argument length exceeds maximum, will be truncated=  Sp-Floor 3 Physical Therapy 1 Sys-3 Flr-2 Sch-C HPlcmt-south ZN NECB System 3 PSZAvailability Manager Lis\n   **   ~~~   ** Will be processed as Alpha=SP-FLOOR 3 PHYSICAL THERAPY 1 SYS-3 FLR-2 SCH-C HPLCMT-SOUTH ZN NECB SYSTEM 3 PSZAVAILABILITY MANAGER LIST\n   ************* IDF Context for following error/warning message:\n   ************* Note -- lines truncated at 300 characters, if necessary...\n   *************  74266 AirLoopHVAC:SupplyPath,\n   ************* indicated Name=Sp-Floor 3 Physical Therapy 1 Sys-3 Flr-2 Sch-C HPlcmt-south ZN NECB System 3 PSZ Node 385 Supply Path\n   ************* Only last 1 lines before error line shown.....\n   *************  74267   Sp-Floor 3 Physical Therapy 1 Sys-3 Flr-2 Sch-C HPlcmt-south ZN NECB System 3 PSZ Node 385 Supply Path, !- Name\n   ** Warning ** IP: IDF line~74267 Alpha Argument length exceeds maximum, will be truncated=  Sp-Floor 3 Physical Therapy 1 Sys-3 Flr-2 Sch-C HPlcmt-south ZN NECB System 3 PSZ Node 385 Supply Pat\n   **   ~~~   ** Will be processed as Alpha=SP-FLOOR 3 PHYSICAL THERAPY 1 SYS-3 FLR-2 SCH-C HPLCMT-SOUTH ZN NECB SYSTEM 3 PSZ NODE 385 SUPPLY PATH\n   ************* IDF Context for following error/warning message:\n   ************* Note -- lines truncated at 300 characters, if necessary...\n   *************  74288 AirLoopHVAC,\n   ************* indicated Name=Sp-Floor 3 Physical Therapy 2 Sys-3 Flr-2 Sch-C HPlcmt-core ZN NECB System 3 PSZ\n   ************* Only last 3 lines before error line shown.....\n   *************  74289   Sp-Floor 3 Physical Therapy 2 Sys-3 Flr-2 Sch-C HPlcmt-core ZN NECB System 3 PSZ, !- Name\n   *************  74290   ,                                       !- Controller List Name\n   *************  74291   Sp-Floor 3 Physical Therapy 2 Sys-3 Flr-2 Sch-C HPlcmt-core ZN NECB System 3 PSZAvailability Manager List, !- Availability Manager List Name\n   ** Warning ** IP: IDF line~74291 Alpha Argument length exceeds maximum, will be truncated=  Sp-Floor 3 Physical Therapy 2 Sys-3 Flr-2 Sch-C HPlcmt-core ZN NECB System 3 PSZAvailability Manager Lis\n   **   ~~~   ** Will be processed as Alpha=SP-FLOOR 3 PHYSICAL THERAPY 2 SYS-3 FLR-2 SCH-C HPLCMT-CORE ZN NECB SYSTEM 3 PSZAVAILABILITY MANAGER LIST\n   ************* IDF Context for following error/warning message:\n   ************* Note -- lines truncated at 300 characters, if necessary...\n   *************  74347 AvailabilityManagerAssignmentList,\n   ************* indicated Name=Sp-Floor 3 Physical Therapy 2 Sys-3 Flr-2 Sch-C HPlcmt-core ZN NECB System 3 PSZAvailability Manager List\n   ************* Only last 1 lines before error line shown.....\n   *************  74348   Sp-Floor 3 Physical Therapy 2 Sys-3 Flr-2 Sch-C HPlcmt-core ZN NECB System 3 PSZAvailability Manager List, !- Name\n   ** Warning ** IP: IDF line~74348 Alpha Argument length exceeds maximum, will be truncated=  Sp-Floor 3 Physical Therapy 2 Sys-3 Flr-2 Sch-C HPlcmt-core ZN NECB System 3 PSZAvailability Manager Lis\n   **   ~~~   ** Will be processed as Alpha=SP-FLOOR 3 PHYSICAL THERAPY 2 SYS-3 FLR-2 SCH-C HPLCMT-CORE ZN NECB SYSTEM 3 PSZAVAILABILITY MANAGER LIST\n   ************* IDF Context for following error/warning message:\n   ************* Note -- lines truncated at 300 characters, if necessary...\n   *************  74347 AvailabilityManagerAssignmentList,\n   ************* indicated Name=Sp-Floor 3 Physical Therapy 2 Sys-3 Flr-2 Sch-C HPlcmt-core ZN NECB System 3 PSZAvailability Manager List\n   ************* Only last 3 lines before error line shown.....\n   *************  74348   Sp-Floor 3 Physical Therapy 2 Sys-3 Flr-2 Sch-C HPlcmt-core ZN NECB System 3 PSZAvailability Manager List, !- Name\n   *************  74349   AvailabilityManager:Scheduled,          !- Availability Manager Object Type 1\n   *************  74350   Sp-Floor 3 Physical Therapy 2 Sys-3 Flr-2 Sch-C HPlcmt-core ZN NECB System 3 PSZ Availability Manager; !- Availability Manager Name 1\n   ** Warning ** IP: IDF line~74350 Alpha Argument length exceeds maximum, will be truncated=  Sp-Floor 3 Physical Therapy 2 Sys-3 Flr-2 Sch-C HPlcmt-core ZN NECB System 3 PSZ Availability Manage\n   **   ~~~   ** Will be processed as Alpha=SP-FLOOR 3 PHYSICAL THERAPY 2 SYS-3 FLR-2 SCH-C HPLCMT-CORE ZN NECB SYSTEM 3 PSZ AVAILABILITY MANAGER\n   ************* IDF Context for following error/warning message:\n   ************* Note -- lines truncated at 300 characters, if necessary...\n   *************  74352 AvailabilityManager:Scheduled,\n   ************* indicated Name=Sp-Floor 3 Physical Therapy 2 Sys-3 Flr-2 Sch-C HPlcmt-core ZN NECB System 3 PSZ Availability Manager\n   ************* Only last 1 lines before error line shown.....\n   *************  74353   Sp-Floor 3 Physical Therapy 2 Sys-3 Flr-2 Sch-C HPlcmt-core ZN NECB System 3 PSZ Availability Manager, !- Name\n   ** Warning ** IP: IDF line~74353 Alpha Argument length exceeds maximum, will be truncated=  Sp-Floor 3 Physical Therapy 2 Sys-3 Flr-2 Sch-C HPlcmt-core ZN NECB System 3 PSZ Availability Manage\n   **   ~~~   ** Will be processed as Alpha=SP-FLOOR 3 PHYSICAL THERAPY 2 SYS-3 FLR-2 SCH-C HPLCMT-CORE ZN NECB SYSTEM 3 PSZ AVAILABILITY MANAGER\n   ************* IDF Context for following error/warning message:\n   ************* Note -- lines truncated at 300 characters, if necessary...\n   *************  74588 AirLoopHVAC:SupplyPath,\n   ************* indicated Name=Sp-Floor 3 Physical Therapy 2 Sys-3 Flr-2 Sch-C HPlcmt-core ZN NECB System 3 PSZ Node 396 Supply Path\n   ************* Only last 1 lines before error line shown.....\n   *************  74589   Sp-Floor 3 Physical Therapy 2 Sys-3 Flr-2 Sch-C HPlcmt-core ZN NECB System 3 PSZ Node 396 Supply Path, !- Name\n   ** Warning ** IP: IDF line~74589 Alpha Argument length exceeds maximum, will be truncated=  Sp-Floor 3 Physical Therapy 2 Sys-3 Flr-2 Sch-C HPlcmt-core ZN NECB System 3 PSZ Node 396 Supply Pat\n   **   ~~~   ** Will be processed as Alpha=SP-FLOOR 3 PHYSICAL THERAPY 2 SYS-3 FLR-2 SCH-C HPLCMT-CORE ZN NECB SYSTEM 3 PSZ NODE 396 SUPPLY PATH\n   ************* IDF Context for following error/warning message:\n   ************* Note -- lines truncated at 300 characters, if necessary...\n   *************  75576 AirLoopHVAC,\n   ************* indicated Name=Sp-Floor 3 Undeveloped 1 Sys-4 Flr-2 Sch-E HPlcmt-south ZN NECB System 4 PSZ\n   ************* Only last 3 lines before error line shown.....\n   *************  75577   Sp-Floor 3 Undeveloped 1 Sys-4 Flr-2 Sch-E HPlcmt-south ZN NECB System 4 PSZ, !- Name\n   *************  75578   ,                                       !- Controller List Name\n   *************  75579   Sp-Floor 3 Undeveloped 1 Sys-4 Flr-2 Sch-E HPlcmt-south ZN NECB System 4 PSZAvailability Manager List, !- Availability Manager List Name\n   ** Warning ** IP: IDF line~75579 Alpha Argument length exceeds maximum, will be truncated=  Sp-Floor 3 Undeveloped 1 Sys-4 Flr-2 Sch-E HPlcmt-south ZN NECB System 4 PSZAvailability Manager Lis\n   **   ~~~   ** Will be processed as Alpha=SP-FLOOR 3 UNDEVELOPED 1 SYS-4 FLR-2 SCH-E HPLCMT-SOUTH ZN NECB SYSTEM 4 PSZAVAILABILITY MANAGER LIST\n   ************* IDF Context for following error/warning message:\n   ************* Note -- lines truncated at 300 characters, if necessary...\n   *************  75635 AvailabilityManagerAssignmentList,\n   ************* indicated Name=Sp-Floor 3 Undeveloped 1 Sys-4 Flr-2 Sch-E HPlcmt-south ZN NECB System 4 PSZAvailability Manager List\n   ************* Only last 1 lines before error line shown.....\n   *************  75636   Sp-Floor 3 Undeveloped 1 Sys-4 Flr-2 Sch-E HPlcmt-south ZN NECB System 4 PSZAvailability Manager List, !- Name\n   ** Warning ** IP: IDF line~75636 Alpha Argument length exceeds maximum, will be truncated=  Sp-Floor 3 Undeveloped 1 Sys-4 Flr-2 Sch-E HPlcmt-south ZN NECB System 4 PSZAvailability Manager Lis\n   **   ~~~   ** Will be processed as Alpha=SP-FLOOR 3 UNDEVELOPED 1 SYS-4 FLR-2 SCH-E HPLCMT-SOUTH ZN NECB SYSTEM 4 PSZAVAILABILITY MANAGER LIST\n   ************* IDF Context for following error/warning message:\n   ************* Note -- lines truncated at 300 characters, if necessary...\n   *************  75902 AirLoopHVAC,\n   ************* indicated Name=Sp-Floor 3 Undeveloped 2 Sys-4 Flr-2 Sch-E HPlcmt-south ZN NECB System 4 PSZ\n   ************* Only last 3 lines before error line shown.....\n   *************  75903   Sp-Floor 3 Undeveloped 2 Sys-4 Flr-2 Sch-E HPlcmt-south ZN NECB System 4 PSZ, !- Name\n   *************  75904   ,                                       !- Controller List Name\n   *************  75905   Sp-Floor 3 Undeveloped 2 Sys-4 Flr-2 Sch-E HPlcmt-south ZN NECB System 4 PSZAvailability Manager List, !- Availability Manager List Name\n   ** Warning ** IP: IDF line~75905 Alpha Argument length exceeds maximum, will be truncated=  Sp-Floor 3 Undeveloped 2 Sys-4 Flr-2 Sch-E HPlcmt-south ZN NECB System 4 PSZAvailability Manager Lis\n   **   ~~~   ** Will be processed as Alpha=SP-FLOOR 3 UNDEVELOPED 2 SYS-4 FLR-2 SCH-E HPLCMT-SOUTH ZN NECB SYSTEM 4 PSZAVAILABILITY MANAGER LIST\n   ************* IDF Context for following error/warning message:\n   ************* Note -- lines truncated at 300 characters, if necessary...\n   *************  75961 AvailabilityManagerAssignmentList,\n   ************* indicated Name=Sp-Floor 3 Undeveloped 2 Sys-4 Flr-2 Sch-E HPlcmt-south ZN NECB System 4 PSZAvailability Manager List\n   ************* Only last 1 lines before error line shown.....\n   *************  75962   Sp-Floor 3 Undeveloped 2 Sys-4 Flr-2 Sch-E HPlcmt-south ZN NECB System 4 PSZAvailability Manager List, !- Name\n   ** Warning ** IP: IDF line~75962 Alpha Argument length exceeds maximum, will be truncated=  Sp-Floor 3 Undeveloped 2 Sys-4 Flr-2 Sch-E HPlcmt-south ZN NECB System 4 PSZAvailability Manager Lis\n   **   ~~~   ** Will be processed as Alpha=SP-FLOOR 3 UNDEVELOPED 2 SYS-4 FLR-2 SCH-E HPLCMT-SOUTH ZN NECB SYSTEM 4 PSZAVAILABILITY MANAGER LIST\n   ************* Beginning Zone Sizing Calculations\n   ** Warning ** ProcessScheduleInput: Schedule:Day:Interval=\"ECONOMIZER MAX OA FRACTION 100 PCT DEFAULT\", Blank Schedule Type Limits Name input -- will not be validated.\n   ** Warning ** ProcessScheduleInput: Schedule:Day:Interval=\"SCHEDULE DAY 1\", Blank Schedule Type Limits Name input -- will not be validated.\n   ** Warning ** ProcessScheduleInput: Schedule:Day:Interval=\"SCHEDULE DAY 10\", Blank Schedule Type Limits Name input -- will not be validated.\n   ** Warning ** ProcessScheduleInput: Schedule:Day:Interval=\"SCHEDULE DAY 100\", Blank Schedule Type Limits Name input -- will not be validated.\n   ** Warning ** ProcessScheduleInput: Schedule:Day:Interval=\"SCHEDULE DAY 101\", Blank Schedule Type Limits Name input -- will not be validated.\n   ** Warning ** ProcessScheduleInput: Schedule:Day:Interval=\"SCHEDULE DAY 102\", Blank Schedule Type Limits Name input -- will not be validated.\n   ** Warning ** ProcessScheduleInput: Schedule:Day:Interval=\"SCHEDULE DAY 103\", Blank Schedule Type Limits Name input -- will not be validated.\n   ** Warning ** ProcessScheduleInput: Schedule:Day:Interval=\"SCHEDULE DAY 104\", Blank Schedule Type Limits Name input -- will not be validated.\n   ** Warning ** ProcessScheduleInput: Schedule:Day:Interval=\"SCHEDULE DAY 105\", Blank Schedule Type Limits Name input -- will not be validated.\n   ** Warning ** ProcessScheduleInput: Schedule:Day:Interval=\"SCHEDULE DAY 106\", Blank Schedule Type Limits Name input -- will not be validated.\n   ** Warning ** ProcessScheduleInput: Schedule:Day:Interval=\"SCHEDULE DAY 107\", Blank Schedule Type Limits Name input -- will not be validated.\n   ** Warning ** ProcessScheduleInput: Schedule:Day:Interval=\"SCHEDULE DAY 108\", Blank Schedule Type Limits Name input -- will not be validated.\n   ** Warning ** ProcessScheduleInput: Schedule:Day:Interval=\"SCHEDULE DAY 109\", Blank Schedule Type Limits Name input -- will not be validated.\n   ** Warning ** ProcessScheduleInput: Schedule:Day:Interval=\"SCHEDULE DAY 11\", Blank Schedule Type Limits Name input -- will not be validated.\n   ** Warning ** ProcessScheduleInput: Schedule:Day:Interval=\"SCHEDULE DAY 110\", Blank Schedule Type Limits Name input -- will not be validated.\n   ** Warning ** ProcessScheduleInput: Schedule:Day:Interval=\"SCHEDULE DAY 111\", Blank Schedule Type Limits Name input -- will not be validated.\n   ** Warning ** ProcessScheduleInput: Schedule:Day:Interval=\"SCHEDULE DAY 112\", Blank Schedule Type Limits Name input -- will not be validated.\n   ** Warning ** ProcessScheduleInput: Schedule:Day:Interval=\"SCHEDULE DAY 113\", Blank Schedule Type Limits Name input -- will not be validated.\n   ** Warning ** ProcessScheduleInput: Schedule:Day:Interval=\"SCHEDULE DAY 114\", Blank Schedule Type Limits Name input -- will not be validated.\n   ** Warning ** ProcessScheduleInput: Schedule:Day:Interval=\"SCHEDULE DAY 115\", Blank Schedule Type Limits Name input -- will not be validated.\n   ** Warning ** ProcessScheduleInput: Schedule:Day:Interval=\"SCHEDULE DAY 116\", Blank Schedule Type Limits Name input -- will not be validated.\n   ** Warning ** ProcessScheduleInput: Schedule:Day:Interval=\"SCHEDULE DAY 117\", Blank Schedule Type Limits Name input -- will not be validated.\n   ** Warning ** ProcessScheduleInput: Schedule:Day:Interval=\"SCHEDULE DAY 118\", Blank Schedule Type Limits Name input -- will not be validated.\n   ** Warning ** ProcessScheduleInput: Schedule:Day:Interval=\"SCHEDULE DAY 119\", Blank Schedule Type Limits Name input -- will not be validated.\n   ** Warning ** ProcessScheduleInput: Schedule:Day:Interval=\"SCHEDULE DAY 12\", Blank Schedule Type Limits Name input -- will not be validated.\n   ** Warning ** ProcessScheduleInput: Schedule:Day:Interval=\"SCHEDULE DAY 120\", Blank Schedule Type Limits Name input -- will not be validated.\n   ** Warning ** ProcessScheduleInput: Schedule:Day:Interval=\"SCHEDULE DAY 121\", Blank Schedule Type Limits Name input -- will not be validated.\n   ** Warning ** ProcessScheduleInput: Schedule:Day:Interval=\"SCHEDULE DAY 122\", Blank Schedule Type Limits Name input -- will not be validated.\n   ** Warning ** ProcessScheduleInput: Schedule:Day:Interval=\"SCHEDULE DAY 123\", Blank Schedule Type Limits Name input -- will not be validated.\n   ** Warning ** ProcessScheduleInput: Schedule:Day:Interval=\"SCHEDULE DAY 124\", Blank Schedule Type Limits Name input -- will not be validated.\n   ** Warning ** ProcessScheduleInput: Schedule:Day:Interval=\"SCHEDULE DAY 125\", Blank Schedule Type Limits Name input -- will not be validated.\n   ** Warning ** ProcessScheduleInput: Schedule:Day:Interval=\"SCHEDULE DAY 126\", Blank Schedule Type Limits Name input -- will not be validated.\n   ** Warning ** ProcessScheduleInput: Schedule:Day:Interval=\"SCHEDULE DAY 127\", Blank Schedule Type Limits Name input -- will not be validated.\n   ** Warning ** ProcessScheduleInput: Schedule:Day:Interval=\"SCHEDULE DAY 128\", Blank Schedule Type Limits Name input -- will not be validated.\n   ** Warning ** ProcessScheduleInput: Schedule:Day:Interval=\"SCHEDULE DAY 129\", Blank Schedule Type Limits Name input -- will not be validated.\n   ** Warning ** ProcessScheduleInput: Schedule:Day:Interval=\"SCHEDULE DAY 13\", Blank Schedule Type Limits Name input -- will not be validated.\n   ** Warning ** ProcessScheduleInput: Schedule:Day:Interval=\"SCHEDULE DAY 130\", Blank Schedule Type Limits Name input -- will not be validated.\n   ** Warning ** ProcessScheduleInput: Schedule:Day:Interval=\"SCHEDULE DAY 131\", Blank Schedule Type Limits Name input -- will not be validated.\n   ** Warning ** ProcessScheduleInput: Schedule:Day:Interval=\"SCHEDULE DAY 132\", Blank Schedule Type Limits Name input -- will not be validated.\n   ** Warning ** ProcessScheduleInput: Schedule:Day:Interval=\"SCHEDULE DAY 133\", Blank Schedule Type Limits Name input -- will not be validated.\n   ** Warning ** ProcessScheduleInput: Schedule:Day:Interval=\"SCHEDULE DAY 134\", Blank Schedule Type Limits Name input -- will not be validated.\n   ** Warning ** ProcessScheduleInput: Schedule:Day:Interval=\"SCHEDULE DAY 135\", Blank Schedule Type Limits Name input -- will not be validated.\n   ** Warning ** ProcessScheduleInput: Schedule:Day:Interval=\"SCHEDULE DAY 136\", Blank Schedule Type Limits Name input -- will not be validated.\n   ** Warning ** ProcessScheduleInput: Schedule:Day:Interval=\"SCHEDULE DAY 137\", Blank Schedule Type Limits Name input -- will not be validated.\n   ** Warning ** ProcessScheduleInput: Schedule:Day:Interval=\"SCHEDULE DAY 138\", Blank Schedule Type Limits Name input -- will not be validated.\n   ** Warning ** ProcessScheduleInput: Schedule:Day:Interval=\"SCHEDULE DAY 139\", Blank Schedule Type Limits Name input -- will not be validated.\n   ** Warning ** ProcessScheduleInput: Schedule:Day:Interval=\"SCHEDULE DAY 14\", Blank Schedule Type Limits Name input -- will not be validated.\n   ** Warning ** ProcessScheduleInput: Schedule:Day:Interval=\"SCHEDULE DAY 140\", Blank Schedule Type Limits Name input -- will not be validated.\n   ** Warning ** ProcessScheduleInput: Schedule:Day:Interval=\"SCHEDULE DAY 141\", Blank Schedule Type Limits Name input -- will not be validated.\n   ** Warning ** ProcessScheduleInput: Schedule:Day:Interval=\"SCHEDULE DAY 142\", Blank Schedule Type Limits Name input -- will not be validated.\n   ** Warning ** ProcessScheduleInput: Schedule:Day:Interval=\"SCHEDULE DAY 143\", Blank Schedule Type Limits Name input -- will not be validated.\n   ** Warning ** ProcessScheduleInput: Schedule:Day:Interval=\"SCHEDULE DAY 144\", Blank Schedule Type Limits Name input -- will not be validated.\n   ** Warning ** ProcessScheduleInput: Schedule:Day:Interval=\"SCHEDULE DAY 145\", Blank Schedule Type Limits Name input -- will not be validated.\n   ** Warning ** ProcessScheduleInput: Schedule:Day:Interval=\"SCHEDULE DAY 146\", Blank Schedule Type Limits Name input -- will not be validated.\n   ** Warning ** ProcessScheduleInput: Schedule:Day:Interval=\"SCHEDULE DAY 147\", Blank Schedule Type Limits Name input -- will not be validated.\n   ** Warning ** ProcessScheduleInput: Schedule:Day:Interval=\"SCHEDULE DAY 148\", Blank Schedule Type Limits Name input -- will not be validated.\n   ** Warning ** ProcessScheduleInput: Schedule:Day:Interval=\"SCHEDULE DAY 149\", Blank Schedule Type Limits Name input -- will not be validated.\n   ** Warning ** ProcessScheduleInput: Schedule:Day:Interval=\"SCHEDULE DAY 15\", Blank Schedule Type Limits Name input -- will not be validated.\n   ** Warning ** ProcessScheduleInput: Schedule:Day:Interval=\"SCHEDULE DAY 150\", Blank Schedule Type Limits Name input -- will not be validated.\n   ** Warning ** ProcessScheduleInput: Schedule:Day:Interval=\"SCHEDULE DAY 151\", Blank Schedule Type Limits Name input -- will not be validated.\n   ** Warning ** ProcessScheduleInput: Schedule:Day:Interval=\"SCHEDULE DAY 152\", Blank Schedule Type Limits Name input -- will not be validated.\n   ** Warning ** ProcessScheduleInput: Schedule:Day:Interval=\"SCHEDULE DAY 153\", Blank Schedule Type Limits Name input -- will not be validated.\n   ** Warning ** ProcessScheduleInput: Schedule:Day:Interval=\"SCHEDULE DAY 154\", Blank Schedule Type Limits Name input -- will not be validated.\n   ** Warning ** ProcessScheduleInput: Schedule:Day:Interval=\"SCHEDULE DAY 155\", Blank Schedule Type Limits Name input -- will not be validated.\n   ** Warning ** ProcessScheduleInput: Schedule:Day:Interval=\"SCHEDULE DAY 156\", Blank Schedule Type Limits Name input -- will not be validated.\n   ** Warning ** ProcessScheduleInput: Schedule:Day:Interval=\"SCHEDULE DAY 157\", Blank Schedule Type Limits Name input -- will not be validated.\n   ** Warning ** ProcessScheduleInput: Schedule:Day:Interval=\"SCHEDULE DAY 158\", Blank Schedule Type Limits Name input -- will not be validated.\n   ** Warning ** ProcessScheduleInput: Schedule:Day:Interval=\"SCHEDULE DAY 159\", Blank Schedule Type Limits Name input -- will not be validated.\n   ** Warning ** ProcessScheduleInput: Schedule:Day:Interval=\"SCHEDULE DAY 16\", Blank Schedule Type Limits Name input -- will not be validated.\n   ** Warning ** ProcessScheduleInput: Schedule:Day:Interval=\"SCHEDULE DAY 160\", Blank Schedule Type Limits Name input -- will not be validated.\n   ** Warning ** ProcessScheduleInput: Schedule:Day:Interval=\"SCHEDULE DAY 161\", Blank Schedule Type Limits Name input -- will not be validated.\n   ** Warning ** ProcessScheduleInput: Schedule:Day:Interval=\"SCHEDULE DAY 162\"
[...]
WEN0nz0Y/TeRRvx7i9f+Sz0cdwEo+mk3EYZwpbJB4/9p4Oh17gZUrep1Fy5cXTj6E37Gw5Mr6+bAWzWTgZNhs2dmNvywGr0QqSJGo2bhr7Xq9d8KDb9CA//0FxcjsOF3gHweT8ahqlxzfG4UUB2qXGxXSSHHwKR5dXidU4m46H+TUW9+bV7OD5eDqNvI7329VtPDoPxt7rqzAKZvb3I17dxgcd7/k4OvC9V+dXByfej7+Nzz8mB/F0nt6U//vV+/X05Hv7tiT8aCVe/Z/34vzcvvfRnus2f/c4Po9Gs+Tv4nu+ezwcXX95WjxGFku1vNHwuHFua+AkvWzBaBJG7/x+u+FlF/O4MRzFs3Fw+2Q0GadzB2fj6fmHbxsyYKq6OAcvuZ2lx9vr+fh9cB0sXnUeacd1ENl89Y694ejjbBy2JuGnV9eXzcZfvwC57x2229l/thag1R0GSZAKv/mjMQ7OwnHjSWMYXgTzceLNounFaBw29hcz724aT0yrvd+4DsbzcPnvc7tOpcekS8/Jyelp4/N+Lh0fpNMB6RyCdLognR5Ipw/SGYB0jkA6po0SQmW0QaW0QeW0QSW1QWW1QaW1QeW1QSW2QWW2j8psH7ZWozLbR2W2XyizvXj+8ePGD1fn6mhROCwgI16jYjLiFSomI16fYjJi3ReTEau+mIxY88VkxIovJiPWezEZuZEV1AHlsdzGCuqAMlluYgV1QLkst7CCOqBslhtYQR1QPsvtq6AOal0G5bPcuwrq5M/nT6NJUrxtndmX8uuIl6egjnh5CuqIl6egjljuBXXEci+oI5Z7QR2x3AvqiOVeUEfuX0WFUBktd7CiQqiclntYUSFUVstdrKgQKq/lPlZUCJXZcicrKgRbq1GZLTezokL5M3v9ScbWXxqW2lx743/0Fj9FDAjhVx+iU32Iw+pDdKsP0as+RL/6EIPqQxxVH2Kjs1cVo4b6NjUUuKmhwk0NJW5qqHFTQ5GbGqrc1FDmpoY692uoc7+OPl5Dnfs11Llfrs63/qBjvm3V4hcfASHkuwELId8MWAj5XsBCyEsuLIS84sJCyAsuLIS83sJCyMstLITjk2tcDPmjP1wM+VNBXAz5A0NcjBpK3LGtwsWoocgd2ypcjBrK3LGtwvU/eVuFi1FHH6+hkTu2VbgY5ep86+9m5dtWLX5YCxBCvhuwEPLNgIWQ7wUshLzkwkLIKy4shLzgwkLI6y0shPzdKFgIx7YKF0PeVuFiyNsqXAx5W4WLIX9FCxdD/l4iLob8lUVcDPnbjLgY8hcdcTFqqHPHtgoXo44+XkMjd2yrcDHKtfKtP0+Sb1u1+P0SQAj5bsBCyDcDFkK+F7AQ8rYKFkLeVsFCyNsqWAh5WwULIS+3sBCObRUuhrytwsWQt1W4GPK2ChdD3lbhYsjbKlwMeVuFiyFvq3Ax5G0VLkYNde7YVuFi1NHHa2jkjm0VLka5Vr7VBT7ftmphEw8IId8NWAj5ZsBCyPcCFkLeVsFCyNsqWAh5WwULIW+rYCHk5RYWwrGtwsWQt1W4GPK2ChdD3lbhYsjbKlwMeVuFiyFvq3Ax5G0VLoa8rcLFqKHOHdsqXIw6+ngNjdyxrcLFKNfKt5rt5ttWLdx4ASHkuwELId8MWAj5XsBCyNsqWAh5WwULIW+rYCHkbRUshLzcwkI4tlW4GPK2ChdD3lbhYsjbKlwMeVuFiyFvq3Ax5G0VLoa8rcLFkLdVuBg11LljW4WLUUcfr6GRO7ZVuBjlWvlWT8N826qF6SEghHw3YCHkmwELId8LWAh5WwULIW+rYCHkbRUshLytgoVw+U6BQjjN1lAxXG5VqBguIytUDJfHFSqGy/4KFcPl+YaK4bKDQ8VwOcWhYrhM5FAxaqhzx7YKF6OOPl5DI3dsq3Axtrfyt3kcXpd2zt6xNwk/rRxkM+PYZnx9uZ85wG61il15Qsdh8v10PhnGzW573zOmu+917L/8bj672ZsUY211PRyeBEl4OY1un96M4oWn8vr8cxhPpwIvomEYvZxbi+PcB1qO202OX8IgnkfhAsO6NC+ve8Wm35zmNKc5zWlOc5rTnOY0pznNaU5zmtOc5jSnOc1pTnOa05zmNKc5zWlOc5rTnOY0pznNaU5zmtOc5jSnOc1pTnOa05zmNKc5zWlOc5rTnP6fmr5tTa/DKBoNw18C+2CtabWVz6vaR2PjzUdjX4XRKIyXj9c29lcPEM/G06Q1Hk3CrY/Ixl96Tnf7k7VxK/vp+dl0HCSj6SSFasRJODs4Cy+mUdjI9+Tzz+FlOBluntDitWavve917JPLbfsgs/1PYxxeJBZsi/RKtvXuMkxOJ4m9PmmIi/nkPCNt7nl/bJFYEYbro99sfZbbjtGF10yuRnErzu5KvkB23DmolV6/0+D8qvkf4KJqK3z76HjKvtR9N5vGIyv4LH05z9mshpX5AlU0/VQMaYU1mgxDWw8HZr/g0avxvuyBF6NwbPOtubymizq5jKbzWTj0vvnG+8vy9ZvWu6sgXj7/bgts7+7s7Rdn0wvSCi4vn9sYrXE4uUyuvO883/uH13g6Hje8J5vviMej87B5YPbetN/uba23e2cyjbzm+/RU2t9679Mwy1RdxrWv/S1dcYrfIDtsGi/13rx/2/oQ3nrHx8eLi1dOMVNd3vb3RU91Nc6iMPhQ5uDPBY8p+n57vZZnd2zT2ibDMlMyI4fWuyCOR5eTcHhiLSLiN9mVfFvuUq5u9GweXzXL3ov0lj5Z3M/ylTQeP8lzli37zrJR4iSafgjzxVm8t2yk6Sw4HyW3+UIt31z6rLIQq1BlVVYLyeayUqY8Ci8+dqzKeXPh8Q48U1StSLnlZ/28n3XVXO//vG1PYcfjx95vv7/2/v3i95feqxcvX//06w/ezy9++OnE+/H05Wk+gefpqh3eBHaL5iVTL55GiTeZf0zz4NzLLE1iL4jP083LaHKZQ3F17a3Onc4c7Htn+ReXKEzm0cSbBVEcPh9Pg6QZ2CV/L72Vd147y17LdTG3b9HuhF2ewjbhz9U6vaz3n1m5Z8XefDQML4L5OPFm0TRdw8JH+96jvw4GJyenp48qNp4hDnGIQxziEIc4xCEOcYhDnP9NHC+ef0z/F9gbhvZFbxjcWqIoHJKGNKQhDWlIQxrSkIY0pCENadw0n7KvZv2J5mw8D4lDHOIQhzjEIQ5xiEMc4hCHOGVw1r8baOzvBr6aS78b2DHZJ2xPnx4eHh2RlKQkJSlJSUpSkpKUpCQlKUlJStLdIPUz0iCRSNsZaafj+4MeSUlKUpKSlKQkJSlJSUpSkpKUpCTdDdKOJX0ejQRS/ygjNabf73RISlKSkpSkJCUpSUlKUpKSlKQkJelukB5a0tdXc4l0kJEepaP7PUlJSlKSkpSkJCUpSUlKUpKSlKQk3Q3SriX9VziUSPsZ6bNnJyf9PklJSlKSkpSkJCUpSUlKUpKSlKQk3Q3SXvaXiXkokfYy0pOTXo+kJCUpSUlKUpKSlKQkJSlJSUpSku4Kad+S/jKVnAX9bkY6GPh+t0tSkpKUpCQlKUlJSlKSkpSkJCUpSWsjXaEMo+BTc6vYTSsZJePw1VUwC1tJeJM0H/04nUfxdozb+0c+G30MJ/FoOhmHcaawReLxY+/pcOgFXqbkfRolV148/Rh6w86WI+Pry1Ywm4WTYbNhYzf2thywGq0gSaJm46ax7/XaBQ+6TQ/y8x8UJ7fjcIF3EEzOr6ZRenxjHF4UoF1qXEwnycGncHR5lViNs+l4mF9jcW9ezQ6ej6fTyOt4v0+G4XU4ns7CoWe8V7fxwaH3fBwd+N6r86uDU+/H38bnH5ODeDpP78f//er9enryvX1bEn70Dr3fXv2f9+L83L730Z7rDn/3OD6PRrPk7+J7vns8HF1/eVo8RhZLtbzR8LhxbtP/JL1iwWgSRu/8vml42XU8bgxH8Wwc3D4ZTcbp3MHZeHr+4duGDJiqLs7BS25n6fH2Uj5+H1wHi1edR9pxHUQ2Vb1jbzj6OBuHrUn46dX1ZbPx1y9A7nuH7Xb2n621Z3WHQRKkwm/+aIyDs3DceNIYhhfBfJx4s2h6MRqHjf3FzLubxhPTau83roPxPGw86XZbnaM7o9Pdb5zbFSuVSBehk5PT08bn/VyyfjWynWpkD6uR7VYj26tGtl+N7KAa2aNqZE27It2K6sxUVGimokozFZWaqajWTEXFZiqqNlNRuZmK6s2vqN78qvpaRfXmV1RvvqbevHj+8ePGb4OX2TlE4bCAat7rW0w179Utppr32hZTzbuSFVPNu44VU827ihVTzbuGFVPNu4IVU829YSgoW0115d4uFJStpr5ybxYKylZTYbm3CgVlq6mx3BuFgrLVVFnubUJB2Yp6WDVVlnuPUFC2dJV9Gk0S9fbgzL4jv2zeS1tQNu+lLSib99IWlM27gBWUzbuAFZTNu4AVlM27gBWUzbuAFZTNvU8oqltRneXeKRTVrajScu8ViupWVGu5dwtFdSuqttz7haK6FdVb7h1DUd2q+lpF9ZZ701BUt1i9vc3zwcXyA0rv2JuEn1YfjGSfhzTj68v97IONrZ+ArD7ljMPk++l8Moyb3fa+Z0x33+vYf/ndfJ+i3KQY6w9vh8OTIAkvp9Ht05tRvPiUcH0tcnyUmgq8iIZh9HJuP7TLfaDluN3k+CUM4nkULjDs547Le6D9cDj7QGoz1KswGoXxEjeNtLwhs/E0adlPybaGjL903ttJ41aWeLPpOEhG00kK1YiTcHZwFl5Mo7CRL5N+Di/DyXDzhBavNXtpFnRsJtgP1Yz9z/Kz160fS69kW+8uw+R0ktjrk4a4mE/OM9LmnvdHjg9fLWG4PvrN1tqwY3ThNZOrUZzmtT0uXyA77hzUSq/faXB+1fwPcFG1Ff7yM8al7rvZNB5ZwWfpy3nOZjWszBeooumnYkgrrNFkGNrCPTD7BY9ejfdlD7wYhWObb83lNV3UyWU0ndtP07/5xvvL8vWb1rurIF6uJ7bA9u7O3n5xNr0greDy8rmN0RqHk8vkyvvO871/eI2n43HDe7L5jng8Og+bB2bvTfvt3tZ6u3cm08hrvk9Ppf2t9z4Ns0zVZVz72t+OPVP8Btlh03ip9+b929aHMF3ejo8XF6+cYqa6vO3vi57qapxFYfChzMGfCx5T9P32ei3P7timtU2GZaZkjbH1bvHFonCYfbUofpNdybflLuXqRs/m8VWz7L1Ib+mTxf0sX0nj8ZM8Z9my7ywbJU6i6YcwX5zFe8tGms6C81Fymy/U8s2lzyoLsQpVVmW1kGwuK2XKo/DiY8eqnDcXHu/AM0XVipRbftbP+1lXzfX+z9v2FHY8fuz99vtr798vfn/pvXrx8vVPv/7g/fzih59OvB9PX57mE3iertrhTWC3aF4y9eJpupGezD+meXDuZVvE2Avi83TzMppc5lBcXXurc6czB/veWf7FJQqTeTTxZkEUh8/H0yBpBnbJ30tv5Z3XzrLXcl3M7Vu0O2GXp7BN+PN/4Qugf/rEdvktT/sB7H/l+6jEIQ5xiEMc4hCHOMQhDnGIs/M497/5YomicEga0pCGNKQhDWlIQxrSkIY0pHHT3PtOoKWxX/EjDnGIQxziEIc4xCEOcYhDHOL8F20XX4cfZ2EUJPMo9JrP92i8+LCMF+ez2fjWezqKPHujdsQz0d8Fz0SfnomFrQ3omVhclp6J9Ewsbm1Az8RyuvRMpGciPRPpmUjPRHomfkmWnon0TKRnYuFtAj0Ti8vSM5GeifRMLLpNoGdiOV16JtIzkZ6J9Ez8wgcX9Ez8Agc9E+mZ6NEzMR8WPRPpmVhm0DPRDnom0jMxG/RMdL+TnonbBeygZ+JuWIsQhzjEIQ5xiEMc4hCHOMQhzs7jPDDHEdKQhjSkIQ1pSEMa0pCGNKTZHZqvxumEOMQhDnGIQxziEIc4xCEOccrHo2filwc9ExeeiZ7ZEdfEzi64JnbomljY3ICuicVl6ZpI18Ti5gZ0TSynS9dEuibSNZGuiXRNpGvil2TpmkjXRLomFt4m0DWxuCxdE+maSNfEotsEuiaW06VrIl0T6ZpI18QvfHBB18QvcNA1ka6JHl0T82HRNZGuiWUGXRPtoGsiXROzQddE9zvpmrhdwA66Ju6GuQhxiEMc4hCHOMQhDnGIQxzi7DzOA/McIQ1pSEMa0pCGNKQhDWlIQ5rdoflqvE6IQxziEIc4xCEOcYhDHOIQp3w8uiZ+edA1cema6O+Ia+LhLrgmHtbmmpj9u6w9E0inA9I5BOl0QTo9kE4fpDMA6RyBdDZcBVRCqIw2qJQ2qJw2qKQ2qKw2qLQ2qLw2qMQ2qMz2UZntw9ZqVGb7qMz2C2V2fje/Dany9n0KGfEKlTfoU8iIdV/egk8hI9Z8eZM9hYxY7wobPY0OKI/lNqZwxtPogFJZ7mEKszuNDiib5Qam8K/TrIOgfJa7l8KSTqMDyme5dZV3mduQUdjKaXTEy6MwjtPoiOWusIbT6IjlrjB/0+iI5a6xd1MJoTJa7mAaxzaVECqp5SamMWFTCaHyWu5jGl811cqIymy5lWms0lRCqMyWu9k9od+i0TQaJbee8Q685qv5ZM/6UPUO/l8wOWibg+zfz8Lzg46R2lx743/0nj49PDw6AoTwqw/RqT7EYfUhutWH6FUfol99iEH1IY6qD7HR2auKUUN9mxoK3NRQ4aaGEjc11LipochNDVVuaihzU0Od+zXUuV9HH6+hzv0a6twvV+d+FiNIpBjtfNuqTsf3Bz1ACPluwELINwMWQr4XsBDykgsLIa+4sBDyggsLIa+3sBDycgsL4dhW4WLUUN+ObRUuRg0V7thW4WLUUOOObRUuRg1V7thW4WLUUOeObRUuRh19vIY6d2yrcDHK1XnHxngejYQY/lG+bZUx/X6nAwgh3w1YCPlmwELI9wIWQl5yYSHkFRcWQl5wYSHkb0DBQsjfjYKFcHwhEBdD/kYVLob8ZStcDPl7WLgY8le0cDHk7yXiYshfWcTFkL/NiItRQ5k7vgOJ63811Lnjm5O4GDXUueP7lrgY5Vr5oY3x+mouxRjk21bZ31zqfg8IIW+rYCHkbRUshHwvYCHkbRUshLytgoWQt1WwEPJ6CwshL7ewEI5tFS6GvNziYsjLLS6GvNziYsjbKlwMeVuFiyFvq3Ax5G0VLkYNZe7YVuH6Xw117thW4WLUUOeObRUuRrlW3rUx/hUOpRj9fNuqZ89OTvp9QAh5WwULIW+rYCHkewELIW+rYCHkbRUshLytgoWQ11tYCHm5hYVwbKtwMeTlFhdDXm5xMeTlFhdD3lbhYsjbKlwMeVuFiyFvq3Axaihzx7YK1/9qqHPHtgoXo4Y6d2yrcDHKtfJetnWbh1KMXr5t1clJrwcJIW+rYCHkbRUshHwvYCHkbRUshLytgoWQt1WwEPJ6CwshL7ewEI5tFS6GvNziYsjLLS6GvNziYsjbKlwMeVuFiyFvq3Ax5G0VLkYNZe7YVuH6Xw117thW4WLUUOeObRUuRrlW3rcxfplKX4v3u/m2VYOB73e7gBDytgoWQt5WwULI9wIWQt5WwULI2ypYCHlbBQvhcpcChXD5ToFCOM3WUDHk5RYXw2VkhYrh8rhCxXDZX6FiuDzfUDFcdnCoGC6nOFSMGsrc6S+H6n811LnTlQ4Vo4Y6d3rZoWJsb+Vv8zi8Lo2YvWNvEn5aOchmxrHN+PpyP3OA3WoVu3JzjsPk++l8Moyb3fa+Z0x33+vYf/ndfHazNynG2ol6ODwJkvByGt0+vRnFCy/k9fnnsIxOBV5EwzB6ObfWxLkPtBy3mxy/hEE8j8IFhnVXXl73ij25Oc1pTnOa05zmNKc5zWlOc5rTnOY0pznNaU5zmtOc5jSnOc1pTnOa05zmNKc5zWlOc5rTnOY0pznNaU5zmtOc5jSnOc1pTnOa05zmNKc5/T81fduaXodRNBqGvwT2wVrTaiufV7WPxsabj8a+CqNRGC8fr23srx4gno2nSWs8moRbH5GNv/Sc7vYna+NW9tPzs+k4SEbTSQrViJNwdnAWXkyjsJHvyeefw8twMtw8ocVrzV573+vYJ5fb9kFm+5/GOLxILNgW6ZVs691lmJxOEnt90hAX88l5Rtrc8/7YIrEiDNdHv9n6LLcdowuvmVyN4lac3ZV8gey4c1ArvX6nwflV8z/ARdVW+PbR8ZR9qftuNo1HVvBZ+nKes1kNK/MFqmj6qRjSCms0GYa2Hg7MfsGjV+N92QMvRuHY5ltzeU0XdXIZTeezcOh98433l+XrN613V0G8fP7dFtje3dnbL86mF6QVXF4+tzFa43BymVx533m+9w+v8XQ8bnhPNt8Rj0fnYfPA7L1pv93bWm/3zmQaec336am0v/Xep2GWqbqMa1/7W7riFL9Bdtg0Xuq9ef+29SG89Y6PjxcXr5xiprq87e+LnupqnEVh8KHMwZ8LHlP0/fZ6Lc/u2Ka1TYZlpmRGDq13QRyPLifh8MRaRMRvsiv5ttylXN3o2Ty+apa9F+ktfbK4n+UraTx+kucsW/adZaPESTT9EOaLs3hv2UjTWXA+Sm7zhVq+ufRZZSFWocqqrBaSzWWlTHkUXnzsWJXz5sLjHXimqFqRcsvP+nk/66q53v95257CjsePvd9+f+39+8XvL71XL16+/unXH7yfX/zw04n34+nL03wCz9NVO7wJ7BbNS6ZePI0SbzL/mObBuZdZmsReEJ+nm5fR5DKH4uraW507nTnY987yLy5RmMyjiTcLojh8Pp4GSTOwS/5eeivvvHaWvZbrYm7fot0JuzyFbcKfq3V6We8/s3LPir35aBheBPNx4s2iabqGhY/2vUd/HQxOTk5PH1VsPEMc4hCHOMQhDnGIQxziEIc4/5s4Xjz/mP4vsDcM7YveMLi1RFE4JA1pSEMa0pCGNKQhDWlIQxrSuGk+ZV/N+hPN2XgeEoc4xCEOcYhDHOIQhzjEIQ5xyuCsfzfQ2N8NfDWXfjewY7JP2J4+PTw8OiIpSUlKUpKSlKQkJSlJSUpSkpKUpLtB6mekQSKRtjPSTsf3Bz2SkpSkJCUpSUlKUpKSlKQkJSlJSbobpB1L+jwaCaT+UUZqTL/f6ZCUpCQlKUlJSlKSkpSkJCUpSUlK0t0gPbSkr6/mEukgIz1KR/d7kpKUpCQlKUlJSlKSkpSkJCUpSUm6G6RdS/qvcCiR9jPSZ89OTvp9kpKUpCQlKUlJSlKSkpSkJCUpSUm6G6S97C8T81Ai7WWkJye9HklJSlKSkpSkJCUpSUlKUpKSlKQk3RXSviX9ZSo5C/rdjHQw8P1ul6QkJSlJSUpSkpKUpCQlKUlJSlKS1ka6QhlGwafmVrGbVjJKxuGrq2AWtpLwJmk++nE6j+LtGLf3j3w2+hhO4tF0Mg7jTGGLxOPH3tPh0Au8TMn7NEquvHj6MfSGnS1HxteXrWA2CyfDZsPGbuxtOWA1WkGSRM3GTWPf67ULHnSbHuTnPyhObsfhAu8gmJxfTaP0+MY4vChAu9S4mE6Sg0/h6PIqsRpn0/Ewv8bi3vzz6T8XF/hleBUGiWe8F+fn3qvzq0d7rtv03eP4PBrNkr+L7/nu8XB0/eVp8RhZLNXyRsPjxrnN4ZP0tIPRJIze+f1uw8suxnFjOIpn4+D2yWgyTucOzsbT8w/fNmTAVHVxDl5yO0uPt9fj8fvgOli86jzSjusgsvnmHXvD0cfZOGxNwk+vri+bjb9+AXLfO2y3s/9sLSCrOwySIBV+80djHJyF48aTxjC8CObjxJtF04vROGzsL2be3TSemFZ7v3EdjOfh8t/ndp1Jj0mXjpOT09PG5/1cOj5IpwPSOQTpdEE6PZBOH6QzAOkcgXRMGyWEymiDSmmDymmDSmqDymqDSmuDymuDSmyDymwfldk+bK1GZbaPymy/UGZ78fzjx40fns7V0aJwWEBGvEbFZMQrVExGvD7FZMS6LyYjVn0xGbHmi8mIFV9MRqz3YjJyIyuoA8pjuY0V1AFlstzECuqAclluYQV1QNksN7CCOqB8lttXQR3UugzKZ7l3FdTJn8+fRpOkeNs6sy/l1xEvT0Ed8fIU1BEvT0EdsdwL6ojlXlBHLPeCOmK5F9QRy72gjty/igqhMlruYEWFUDkt97CiQqislrtYUSFUXst9rKgQKrPlTlZUCLZWozJbbmZFhfJn9vqTiK2/FCy1ufbG/+gtfkoYEMKvPkSn+hCH1YfoVh+iV32IfvUhBtWHOKo+xEZnrypGDfVtaihwU0OFmxpK3NRQ46aGIjc1VLmpocxNDXXu11Dnfh19vIY692uoc79cnW/9QcZ826rFLzYCQsh3AxZCvhmwEPK9gIWQl1xYCHnFhYWQF1xYCHm9hYWQl1tYCMe2Chejhvp2bKtwMWqocMe2Chejhhp3bKtwMWqocse2Chejhjp3bKtwMero4zXUuWNbhYtRrs63/u5Vvm3V4oexACHkuwELId8MWAj5XsBCyEsuLIS84sJCyAsuLIT8DShYCPm7UbAQji8E4mLI36jCxZC/bIWLIX8PCxdD/ooWLob8vURcDPkri7gY8rcZcTFqKHPHdyBx/a+GOnd8cxIXo4Y6d3zfEhejXCvf+vMi+bZVi98fAYSQt1WwEPK2ChZCvhewEPK2ChZC3lbBQsjbKlgIeb2FhZCXW1gIx7YKF0NebnEx5OUWF0NebnEx5G0VLoa8rcLFkLdVuBjytgoXo4Yyd2yrcP2vhjp3bKtwMWqoc8e2ChejXCvf6uKeb1u1sHkHhJC3VbAQ8rYKFkK+F7AQ8rYKFkLeVsFCyNsqWAh5vYWFkJdbWAjHtgoXQ15ucTHk5RYXQ15ucTHkbRUuhrytwsWQt1W4GPK2ChejhjJ3bKtw/a+GOndsq3Axaqhzx7YKF6NcK99qlptvW7Vw0wWEkLdVsBDytgoWQr4XsBDytgoWQt5WwULI2ypYCHm9hYWQl1tYCMe2ChdDXm5xMeTlFhdDXm5xMeRtFS6GvK3CxZC3VbgY8rYKF6OGMndsq3D9r4Y6d2yrcDFqqHPHtgoXo1wr3+pJmG9btTAtBISQt1WwEPK2ChZCvhewEPK2ChZC3lbBQsjbKlgIl7sUKITLdwoUwmm2hoohL7e4GC4jK1QMl8cVKobL/goVw+X5horhsoNDxXA5xaFi1FDmTn85VP+roc6drnSoGDXUudPLDhVjeyt/m8fhdWnH7B17k/DTykE2M45txteX+5kD7Far2JWncxwm30/nk2Hc7Lb3PWO6+17H/svv5rObvUkx1lbVw+FJkISX0+j26c0oXngir88/h3F0KvAiGobRy7m1KM59oOW43eT4JQzieRQuMKzL8vK6V2zazWlOc5rTnOY0pznNaU5zmtOc5jSnOc1pTnOa05zmNKc5zWlOc5rTnOY0pznNaU5zmtOc5jSnOc1pTnOa05zmNKc5zWlOc5rTnOY0pznN6f+p6dvW9DqMotEw/CWwD9aaVlv5vKp9NDbefDT2VRiNwnj5eG1jf/UA8Ww8TVrj0STc+ohs/KXndLc/WRu3sp+en03HQTKaTlKoRpyEs4Oz8GIahY18Tz7/HF6Gk+HmCS1ea/ba+17HPrnctg8y2/80xuFFYsG2SK9kW+8uw+R0ktjrk4a4mE/OM9LmnvfHFokVYbg++s3WZ7ntGF14zeRqFLfi7K7kC2THnYNa6fU7Dc6vmv8BLqq2wrePjqfsS913s2k8soLP0pfznM1qWJkvUEXTT8WQVlijyTC09XBg9gsevRrvyx54MQrHNt+ay2u6qJPLaDqfhUPvm2+8vyxfv2m9uwri5fPvtsD27s7efnE2vSCt4PLyuY3RGoeTy+TK+87zvX94jafjccN7svmOeDw6D5sHZu9N++3e1nq7dybTyGu+T0+l/a33Pg2zTNVlXPva39IVp/gNssOm8VLvzfu3rQ/hrXd8fLy4eOUUM9XlbX9f9FRX4ywKgw9lDv5c8Jii77fXa3l2xzatbTIsMyUzcmi9C+J4dDkJhyfWIiJ+k13Jt+Uu5epGz+bxVbPsvUhv6ZPF/SxfSePxkzxn2bLvLBslTqLphzBfnMV7y0aazoLzUXKbL9TyzaXPKguxClVWZbWQbC4rZcqj8OJjx6qcNxce78AzRdWKlFt+1s/7WVfN9f7P2/YUdjx+7P32+2vv3y9+f+m9evHy9U+//uD9/OKHn068H09fnuYTeJ6u2uFNYLdoXjL14mmUeJP5xzQPzr3M0iT2gvg83byMJpc5FFfX3urc6czBvneWf3GJwmQeTbxZEMXh8/E0SJqBXfL30lt557Wz7LVcF3P7Fu1O2OUpbBP+XK3Ty3r/mZV7VuzNR8PwIpiPE28WTdM1LHy07z3662BwcnJ6+qhi4xniEIc4xCEOcYhDHOIQhzjE+d/E8eL5x/R/gb1haF/0hsGtJYrCIWlIQxrSkIY0pCENaUhDGtKQxk3zKftq1p9ozsbzkDjEIQ5xiEMc4hCHOMQhDnGIUwZn/buBxv5u4Ku59LuBHZN9wvb06eHh0RFJSUpSkpKUpCQlKUlJSlKSkpSkJN0NUj8jDRKJtJ2Rdjq+P+iRlKQkJSlJSUpSkpKUpCQlKUlJStLdIO1Y0ufRSCD1jzJSY/r9ToekJCUpSUlKUpKSlKQkJSlJSUpSku4G6aElfX01l0gHGelROrrfk5SkJCUpSUlKUpKSlKQkJSlJSUrS3SDtWtJ/hUOJtJ+RPnt2ctLvk5SkJCUpSUlKUpKSlKQkJSlJSUrS3SDtZX+ZmIcSaS8jPTnp9UhKUpKSlKQkJSlJSUpSkpKUpCQl6a6Q9i3pL1PJWdDvZqSDge93uyQlKUlJSlKSkpSkJCUpSUlKUpKStDbSFcowCj41t4rdtJJRMg5fXQWzsJWEN0nz0Y/TeRRvx7i9f+Sz0cdwEo+mk3EYZwpbJB4/9p4Oh17gZUrep1Fy5cXTj6E37Gw5Mr6+bAWzWTgZNhs2dmNvywGr0QqSJGo2bhr7Xq9d8KDb9CA//0FxcjsOF3gHweT8ahqlxzfG4UUB2qXGxXSSHHwKR5dXidU4m46H+TUW9+afT/+5uMAvw6swSDzfe3F+7r06v3q057pN3z2Oz6PRLPm7+J7vHg9H11+eFo+RxVItbzQ8bpzbHD5JTzsYTcLond/vNbzsYhw3hqN4Ng5un4wm43Tu4Gw8Pf/wbUMGTFUX5+Alt7P0eHs9Hr8ProPFq84j7bgOIptv3rE3HH2cjcPWJPz06vqy2fjrFyD3vcN2O/vP1gKyusMgCVLhN380xsFZOG48aQzDi2A+TrxZNL0YjcPG/mLm3U3jiWm19xvXwXgeLv99bteZ9Jh06Tg5OT1tfN7PpeODdDognUOQThek0wPp9EE6A5DOEUjHtFFCqIw2qJQ2qJw2qKQ2qKw2qLQ2qLw2qMQ2qMz2UZntw9ZqVGb7qMz2C2W2F88/ftz44elcHS0KhwVkxGtUTEa8QsVkxOtTTEas+2IyYtUXkxFrvpiMWPHFZMR6LyYjN7KCOqA8lttYQR1QJstNrKAOKJflFlZQB5TNcgMrqAPKZ7l9FdRBrcugfJZ7V0Gd/Pn8aTRJiretM/tSfh3x8hTUES9PQR3x8hTUEcu9oI5Y7gV1xHIvqCOWe0EdsdwL6sj9q6gQKqPlDlZUCJXTcg8rKoTKarmLFRVC5bXcx4oKoTJb7mRFhWBrNSqz5WZWVCh/Zq8/idj6S8H5/t64+ClhQAj5/25hIeT/74WFkP+PGBZC/isQLIT89yFYCPkvR7AQ8t+UYCHkvzbBQjj+xIqLUUN9O/4wi4tRQ4U7/pyLi1FDjTv+CIyLUUOVO/50jItRQ507/uCMi1FHH6+hzh1/wcbFKFfnW3+QMd+2avGLjYAQ8t2AhZBvBiyEfC9gIeQlFxZCXnFhIeQFFxZCXm9hIeTlFhbCsa3Cxaihvh3bKlyMGircsa3Cxaihxh3bKlyMGqrcsa3Cxaihzh3bKlyMOvp4DXXu2FbhYpSr862/e5VvW7X4YSxACPluwELINwMWQr4XsBDykgsLIa+4sBDyggsLIa+3sBDycgsL4dhW4WLUUN+ObRUuRg0V7thW4WLUUOOObRUuRg1V7thW4WLUUOeObRUuRh19vIY6d2yrcDHK1fnWnxfJt61a/P4IIIR8N2Ah5JsBCyHfC1gIecmFhZBXXFgIecGFhZDXW1gIebmFhXBsq3Axaqhvx7YKF6OGCndsq3Axaqhxx7YKF6OGKndsq3Axaqhzx7YKF6OOPl5DnTu2VbgY5ep8q4t7vm3VwuYdEEK+G7AQ8s2AhZDvBSyEvOTCQsgrLiyEvODCQsjrLSyEvNzCQji2VbgYNdS3Y1uFi1FDhTu2VbgYNdS4Y1uFi1FDlTu2VbgYNdS5Y1uFi1FHH6+hzh3bKlyMcnW+1Sw337Zq4aYLCCHfDVgI+WbAQsj3AhZCXnJhIeQVFxZCXnBhIeT1FhZCXm5hIRzbKlyMGurbsa3Cxaihwh3bKlyMGmrcsa3Cxaihyh3bKlyMGurcsa3Cxaijj9dQ545tFS5GuTrf6kmYb1u1MC0EhHD53IBCuBxwQCFc3jigEC4/KFAIl1MUKITLQwoUwuUuBQrh8p0ChXCaraFi1FDfTos2VIwaKtxp7IaKUUONO+3gUDFqqHKniRwqRg117rSeQ8Woo4/XUOdOLztUjO11/jaPw+vSjtk79ibhp5WDbGYc24yvL/czB9itVrErT+c4TL6fzifDuNlt73vGdPe9jv2X381nN3uTYqytqofDkyAJL6fR7dObUbzwRF6ffw7j6FTgRTQMo5dza1Gc+0DLcbvJ8UsYxPMoXGBYl+Xlda/YtJvTnOY0pznNaU5zmtOc5jSnOc1pTnOa05zmNKc5zWlOc5rTnOY0pznNaU5zmtOc5jSnOc1pTnOa05zmNKc5zWlOc5rTnOY0pznNaU5zmtP/U9O3rel1GEWjYfhLYB+sNa228nlV+2hsvPlo7KswGoXx8vHaxv7qAeLZeJq0xqNJuPUR2fhLz+luf7I2bmU/PT+bjoNkNJ2kUI04CWcHZ+HFNAob+Z58/jm8DCfDzRNavNbstfe9jn1yuW0fZLb/aYzDi8SCbZFeybbeXYbJ6SSx1ycNcTGfnGekzT3vjy0SK8JwffSbrc9y2zG68JrJ1ShuxdldyRfIjjsHtdLrdxqcXzX/A1xUbYVvHx1P2Ze672bTeGQFn6Uv5zmb1bAyX6CKpp+KIa2wRpNhaOvhwOwXPHo13pc98GIUjm2+NZfXdFEnl9F0PguH3jffeH9Zvn7TencVxMvn322B7d2dvf3ibHpBWsHl5XMbozUOJ5fJlfed53v/8BpPx+OG92TzHfF4dB42D8zem/bbva31du9MppHXfJ+eSvtb730aZpmqy7j2tb+lK07xG2SHTeOl3pv3b1sfwlvv+Ph4cfHKKWaqy9v+vuiprsZZFAYfyhz8ueAxRd9vr9fy7I5tWttkWGZKZuTQehfE8ehyEg5PrEVE/Ca7km/LXcrVjZ7N46tm2XuR3tIni/tZvpLG4yd5zrJl31k2SpxE0w9hvjiL95aNNJ0F56PkNl+o5ZtLn1UWYhWqrMpqIdlcVsqUR+HFx45VOW8uPN6BZ4qqFSm3/Kyf97Oumuv9n7ftKex4/Nj77ffX3r9f/P7Se/Xi5euffv3B+/nFDz+deD+evjzNJ/A8XbXDm8Bu0bxk6sXTKPEm849pHpx7maVJ7AXxebp5GU0ucyiurr3VudOZg33vLP/iEoXJPJp4syCKw+fjaZA0A7vk76W38s5rZ9lruS7m9i3anbDLU9gm/Llap5f1/jMr96zYm4+G4UUwHyfeLJqma1j4aN979NfB4OTk9PRRxcYzxCEOcYhDHOIQhzjEIQ5xiPO/iePF84/p/wJ7w9C+6A2DW0sUhUPSkIY0pCENaUhDGtKQhjSkIY2b5lP21aw/0ZyN5yFxiEMc4hCHOMQhDnGIQxziEKcMzvp3A4393cBXc+l3Azsm+4Tt6dPDw6MjkpKUpCQlKUlJSlKSkpSkJCUpSUm6G6R+RhokEmk7I+10fH/QIylJSUpSkpKUpCQlKUlJSlKSkpSku0HasaTPo5FA6h9lpMb0+50OSUlKUpKSlKQkJSlJSUpSkpKUpCTdDdJDS/r6ai6RDjLSo3R0vycpSUlKUpKSlKQkJSlJSUpSkpKUpLtB2rWk/wqHEmk/I3327OSk3ycpSUlKUpKSlKQkJSlJSUpSkpKUpLtB2sv+MjEPJdJeRnpy0uuRlKQkJSlJSUpSkpKUpCQlKUlJStJdIe1b0l+mkrOg381IBwPf73ZJSlKSkpSkJCUpSUlKUpKSlKQkJWltpCuUYRR8am4Vu2klo2QcvroKZmErCW+S5qMfp/Mo3o5xe//IZ6OP4SQeTSfjMM4Utkg8fuw9HQ69wMuUvE+j5MqLpx9Db9jZcmR8fdkKZrNwMmw2bOzG3pYDVqMVJEnUbNw09r1eu+BBt+lBfv6D4uR2HC7wDoLJ+dU0So9vjMOLArRLjYvpJDn4FI4urxKrcTYdD/NrLO7NP5/+c3GBX4ZXYZB4L87PvVfnV4/2XDfpu8fxeTSaJX8X3/Pd4+Ho+svT4jGyWKrljYbHjXObwSfpSQejSRi98/v9hpddiuPGcBTPxsHtk9FknM4dnI2n5x++bciAqeriHLzkdpYeb6/G4/fBdbB41XmkHddBZLPNO/aGo4+zcdiahJ9eXV82G3/9AuS+d9huZ//ZWj5WdxgkQSr85o/GODgLx40njWF4EczHiTeLphejcdjYX8y8u2k8Ma32fuM6GM/DxpPeUevozhgc7TfO7ZqTKqTLyMnJ6Wnj834uVb8S1U4lqoeVqHYrUe1VotqvRHVQiepRJaqmXY1sNdVlqikvU019mWoKzFRTYaaaEjPV1JippshMNVXmV1NlfkU9rJoq86upMl9RZV48//hx42e8S+wQonBYQDTntS0mmvPKFhPNeV2LieZcu4qJ5ly5ionmXLeKieZctYqJ5lyzionm3RgUVK2kpvJuCwqqVlJVeTcFBVUrqau8W4KCqpVUVt4NQUHVSmor73agoGo1/aqS2sq7FyioWra2Po0miXYbcGbfkF8152UtqJrzshZUzXlZC6rmXLIKquZcsgqq5lyyCqrmXLIKquZcsgqq5t0PFJWtprry7giKylZTX3n3BEVlq6mwvLuCorLV1FjefUFR2WqqLO/OoKhsRT2smirLuzkoKluoyt7m+cBh+dmgd+xNwk+rDzSyzzGa8fXlfvaBxNZPLlYfMMZh8v10PhnGzW573zOmu+917L/8br5PP25SjPXnpsPhSZCEl9Po9unNKF58QLe+FDk+xUwFXkTDMHo5t5+X5T7QctxucvwSBvE8ChcY9iO/5S3Qfi6bfZC0GepVGI3CeImbRlrekNl4mrTsp1tbQ8ZfOu/tpHEry7vZdBwko+kkhWrESTg7OAsvplHYyJdJP4eX4WS4eUKL15q9NAs6NhPsh2HG/mf5sefWT4RXsq13l2FyOkns9UlDXMwn5xlpc8/7I8fnnpYwXB/9Zmtt2DG68JrJ1ShO89oely+QHXcOaqXX7zQ4v2r+B7io2gp/+dngUvfdbBqPrOCz9OU8Z7MaVuYLVNH0UzGkFdZoMgxt4R6Y/YJHr8b7sgdejMKxzbfm8pou6uQyms5n4dD75hvvL8vXb1rvroJ4uZ7YAtu7O3v7xdn0grSCy8vnNkZrHE4ukyvvO8/3/uE1no7HDe/J5jvi8eg8bB6YvTftt3tb6+3emUwjr/k+PZX2t977NMwyVZdx7Wt/O/ZM8Rtkh03jpd6b929bH8J0eTs+Xly8coqZ6vK2vy96qqtxFoXBhzIHfy54TNH32+u1PLtjm9Y2GZaZkjXG1rvFd3rCYfatnvhNdiXflruUqxs9m8dXzbL3Ir2lTxb3s3wljcdP8pxly76zbJQ4iaYfwnxxFu8tG2k6C85HyW2+UMs3lz6rLMQqVFmV1UKyuayUKY/Ci48dq3LeXHi8A88UVStSbvlZP+9nXTXX+z9v21PY8fix99vvr71/v/j9pffqxcvXP/36g/fzix9+OvF+PH15mk/gebpqhzeB3aJ5ydSLp+lGejL/mObBuZdtEWMviM/TzctocplDcXXtrc6dzhzse2f5F5coTObRxJsFURw+H0+DpBnYJX8vvZV3XjvLXst1Mbdv0e6EXZ7CNuHP/4XvXv7pA9jlFyztB6r/la+CEoc4xCEOcYhDHOIQhzjEIc7O49z/gsv/b+dcWhKIwjC871e4rEXisYu2CYKSNu2C1l6ONOQlRg389zVmg1pf5Lwf6tBzNmN88fY0vWcOiD0ZURp70EADDTTQQAMNNNBAAw000PxO8+0jgRlN9hE/cMABBxxwwAEHHHDAAQcccPZoPHyMw9eYtqezNFaOWyc4Dw/KefjUzhp3HxeXm2EniaNpJfuTZebD2Jt93P/TSqPWKokEsVkGCWJzZxLExb+eFpUwOeWcOeWcO+VcOOVcOuU0nHKaTjlXTjlrdgEpyKvRwavSwavTwavUwavVwavWwavXwavYwavZda9m192e1V7Nrns1u75Vs/8u7VuLKq7pE2LMO1RcxSfEmPu+uG5PiDH3fHGlnhBj7ndBm6fkOPXYPsYEGZ6S41Rl+wwTFHdKjlOb7QNMENcpz0GnPtunl6CjU3Kc+mwfXcUlc2sxglZOyTFvj6COU3LM7S7o4ZQcc7sLCjglx9zuiuZNCvJqtH2CKfI2Kcir1PYhpijZpCCvXtvnmCJak56MXs22jzJFnyYFeTXbPs2QopVCisaYMWPGjBkzZsyYMWPGjBkzZsz4kMbz6vgtpmnSiw/t7I2qUK0hxV/5TZDi5wsp/lYLKT5S/C0WUvzNhRR/cyHF33IhxUeK/+NCig8OOOCAAw444IADDjjggANOGZSS0EADDTTQQAMNNNBAAw005aH5NypLcMABBxxwwAEHHHDAAQec4j9vD1L822QYR5NkPBrEyQQl/mEp8cfpS+Wu30+6SRx157kIf7cK/OV3b0xWv/56/XnN05cv8ktn3Jtn1+fpcHB99A4ZVK4R"
               },
               {
                  "name" : "annual_peak_electric_demand",
                  "units" : "kW",
                  "value" : 373.94083000000001
               },
               {
                  "name" : "first_year_capital_cost",
                  "units" : "$",
                  "value" : 0
               },
               {
                  "name" : "annual_utility_cost",
                  "units" : "$",
                  "value" : 111299.59
               },
               {
                  "name" : "total_lifecycle_cost",
                  "units" : "$",
                  "value" : 1863423.72
               }
            ],
            "step_warnings" : [ "A table in Annual Overview section returned false and was skipped." ]
         }
      }
   ],
   "updated_at" : "20170710T194945Z",
   "weather_file" : "USA_CO_Denver.Intl.AP.725650_TMY3.epw"
}
