{
   "completed_at" : "20170710T183521Z",
   "completed_status" : "Success",
   "created_at" : "2017-07-10 18:32:18 +0000",
   "current_step" : 5,
   "description" : "",
   "eplusout_err" : "Program Version,EnergyPlus, Version 8.7.0-78a111df4a, YMD=2017.07.10 18:33,IDD_Version 8.7.0\n   ************* IDF Context for following error/warning message:\n   ************* Note -- lines truncated at 300 characters, if necessary...\n   *************      5 Building,\n   ************* indicated Name=NECB 2011-RetailStripmall-NECB HDD Method-CAN_ON_Toronto.716240_CWEC.epw created: 2017-07-10 18:32:24 +0000\n   ************* Only last 1 lines before error line shown.....\n   *************      6   NECB 2011-RetailStripmall-NECB HDD Method-CAN_ON_Toronto.716240_CWEC.epw created: 2017-07-10 18:32:24 +0000, !- Name\n   ** Warning ** IP: IDF line~6 Alpha Argument length exceeds maximum, will be truncated=  NECB 2011-RetailStripmall-NECB HDD Method-CAN_ON_Toronto.716240_CWEC.epw created: 2017-07-10 18:32:24 +000\n   **   ~~~   ** Will be processed as Alpha=NECB 2011-RETAILSTRIPMALL-NECB HDD METHOD-CAN_ON_TORONTO.716240_CWEC.EPW CREATED: 2017-07-10 18:32:24 +0000\n   ************* Beginning Zone Sizing Calculations\n   ** Warning ** ProcessScheduleInput: Schedule:Day:Interval=\"ECONOMIZER MAX OA FRACTION 100 PCT DEFAULT\", Blank Schedule Type Limits Name input -- will not be validated.\n   ** Warning ** ProcessScheduleInput: Schedule:Day:Interval=\"SCHEDULE DAY 1\", Blank Schedule Type Limits Name input -- will not be validated.\n   ** Warning ** ProcessScheduleInput: Schedule:Day:Interval=\"SCHEDULE DAY 10\", Blank Schedule Type Limits Name input -- will not be validated.\n   ** Warning ** ProcessScheduleInput: Schedule:Day:Interval=\"SCHEDULE DAY 11\", Blank Schedule Type Limits Name input -- will not be validated.\n   ** Warning ** ProcessScheduleInput: Schedule:Day:Interval=\"SCHEDULE DAY 12\", Blank Schedule Type Limits Name input -- will not be validated.\n   ** Warning ** ProcessScheduleInput: Schedule:Day:Interval=\"SCHEDULE DAY 13\", Blank Schedule Type Limits Name input -- will not be validated.\n   ** Warning ** ProcessScheduleInput: Schedule:Day:Interval=\"SCHEDULE DAY 14\", Blank Schedule Type Limits Name input -- will not be validated.\n   ** Warning ** ProcessScheduleInput: Schedule:Day:Interval=\"SCHEDULE DAY 15\", Blank Schedule Type Limits Name input -- will not be validated.\n   ** Warning ** ProcessScheduleInput: Schedule:Day:Interval=\"SCHEDULE DAY 16\", Blank Schedule Type Limits Name input -- will not be validated.\n   ** Warning ** ProcessScheduleInput: Schedule:Day:Interval=\"SCHEDULE DAY 17\", Blank Schedule Type Limits Name input -- will not be validated.\n   ** Warning ** ProcessScheduleInput: Schedule:Day:Interval=\"SCHEDULE DAY 18\", Blank Schedule Type Limits Name input -- will not be validated.\n   ** Warning ** ProcessScheduleInput: Schedule:Day:Interval=\"SCHEDULE DAY 19\", Blank Schedule Type Limits Name input -- will not be validated.\n   ** Warning ** ProcessScheduleInput: Schedule:Day:Interval=\"SCHEDULE DAY 2\", Blank Schedule Type Limits Name input -- will not be validated.\n   ** Warning ** ProcessScheduleInput: Schedule:Day:Interval=\"SCHEDULE DAY 20\", Blank Schedule Type Limits Name input -- will not be validated.\n   ** Warning ** ProcessScheduleInput: Schedule:Day:Interval=\"SCHEDULE DAY 21\", Blank Schedule Type Limits Name input -- will not be validated.\n   ** Warning ** ProcessScheduleInput: Schedule:Day:Interval=\"SCHEDULE DAY 22\", Blank Schedule Type Limits Name input -- will not be validated.\n   ** Warning ** ProcessScheduleInput: Schedule:Day:Interval=\"SCHEDULE DAY 23\", Blank Schedule Type Limits Name input -- will not be validated.\n   ** Warning ** ProcessScheduleInput: Schedule:Day:Interval=\"SCHEDULE DAY 24\", Blank Schedule Type Limits Name input -- will not be validated.\n   ** Warning ** ProcessScheduleInput: Schedule:Day:Interval=\"SCHEDULE DAY 25\", Blank Schedule Type Limits Name input -- will not be validated.\n   ** Warning ** ProcessScheduleInput: Schedule:Day:Interval=\"SCHEDULE DAY 26\", Blank Schedule Type Limits Name input -- will not be validated.\n   ** Warning ** ProcessScheduleInput: Schedule:Day:Interval=\"SCHEDULE DAY 27\", Blank Schedule Type Limits Name input -- will not be validated.\n   ** Warning ** ProcessScheduleInput: Schedule:Day:Interval=\"SCHEDULE DAY 28\", Blank Schedule Type Limits Name input -- will not be validated.\n   ** Warning ** ProcessScheduleInput: Schedule:Day:Interval=\"SCHEDULE DAY 29\", Blank Schedule Type Limits Name input -- will not be validated.\n   ** Warning ** ProcessScheduleInput: Schedule:Day:Interval=\"SCHEDULE DAY 30\", Blank Schedule Type Limits Name input -- will not be validated.\n   ** Warning ** ProcessScheduleInput: Schedule:Day:Interval=\"SCHEDULE DAY 31\", Blank Schedule Type Limits Name input -- will not be validated.\n   ** Warning ** ProcessScheduleInput: Schedule:Day:Interval=\"SCHEDULE DAY 32\", Blank Schedule Type Limits Name input -- will not be validated.\n   ** Warning ** ProcessScheduleInput: Schedule:Day:Interval=\"SCHEDULE DAY 33\", Blank Schedule Type Limits Name input -- will not be validated.\n   ** Warning ** ProcessScheduleInput: Schedule:Day:Interval=\"SCHEDULE DAY 34\", Blank Schedule Type Limits Name input -- will not be validated.\n   ** Warning ** ProcessScheduleInput: Schedule:Day:Interval=\"SCHEDULE DAY 35\", Blank Schedule Type Limits Name input -- will not be validated.\n   ** Warning ** ProcessScheduleInput: Schedule:Day:Interval=\"SCHEDULE DAY 36\", Blank Schedule Type Limits Name input -- will not be validated.\n   ** Warning ** ProcessScheduleInput: Schedule:Day:Interval=\"SCHEDULE DAY 37\", Blank Schedule Type Limits Name input -- will not be validated.\n   ** Warning ** ProcessScheduleInput: Schedule:Day:Interval=\"SCHEDULE DAY 38\", Blank Schedule Type Limits Name input -- will not be validated.\n   ** Warning ** ProcessScheduleInput: Schedule:Day:Interval=\"SCHEDULE DAY 39\", Blank Schedule Type Limits Name input -- will not be validated.\n   ** Warning ** ProcessScheduleInput: Schedule:Day:Interval=\"SCHEDULE DAY 40\", Blank Schedule Type Limits Name input -- will not be validated.\n   ** Warning ** ProcessScheduleInput: Schedule:Day:Interval=\"SCHEDULE DAY 41\", Blank Schedule Type Limits Name input -- will not be validated.\n   ** Warning ** ProcessScheduleInput: Schedule:Day:Interval=\"SCHEDULE DAY 42\", Blank Schedule Type Limits Name input -- will not be validated.\n   ** Warning ** ProcessScheduleInput: Schedule:Day:Interval=\"SCHEDULE DAY 43\", Blank Schedule Type Limits Name input -- will not be validated.\n   ** Warning ** ProcessScheduleInput: Schedule:Day:Interval=\"SCHEDULE DAY 44\", Blank Schedule Type Limits Name input -- will not be validated.\n   ** Warning ** ProcessScheduleInput: Schedule:Day:Interval=\"SCHEDULE DAY 45\", Blank Schedule Type Limits Name input -- will not be validated.\n   ** Warning ** ProcessScheduleInput: Schedule:Day:Interval=\"SCHEDULE DAY 46\", Blank Schedule Type Limits Name input -- will not be validated.\n   ** Warning ** ProcessScheduleInput: Schedule:Day:Interval=\"SCHEDULE DAY 47\", Blank Schedule Type Limits Name input -- will not be validated.\n   ** Warning ** ProcessScheduleInput: Schedule:Day:Interval=\"SCHEDULE DAY 48\", Blank Schedule Type Limits Name input -- will not be validated.\n   ** Warning ** ProcessScheduleInput: Schedule:Day:Interval=\"SCHEDULE DAY 49\", Blank Schedule Type Limits Name input -- will not be validated.\n   ** Warning ** ProcessScheduleInput: Schedule:Day:Interval=\"SCHEDULE DAY 5\", Blank Schedule Type Limits Name input -- will not be validated.\n   ** Warning ** ProcessScheduleInput: Schedule:Day:Interval=\"SCHEDULE DAY 50\", Blank Schedule Type Limits Name input -- will not be validated.\n   ** Warning ** ProcessScheduleInput: Schedule:Day:Interval=\"SCHEDULE DAY 51\", Blank Schedule Type Limits Name input -- will not be validated.\n   ** Warning ** ProcessScheduleInput: Schedule:Day:Interval=\"SCHEDULE DAY 52\", Blank Schedule Type Limits Name input -- will not be validated.\n   ** Warning ** ProcessScheduleInput: Schedule:Day:Interval=\"SCHEDULE DAY 53\", Blank Schedule Type Limits Name input -- will not be validated.\n   ** Warning ** ProcessScheduleInput: Schedule:Day:Interval=\"SCHEDULE DAY 54\", Blank Schedule Type Limits Name input -- will not be validated.\n   ** Warning ** ProcessScheduleInput: Schedule:Day:Interval=\"SCHEDULE DAY 6\", Blank Schedule Type Limits Name input -- will not be validated.\n   ** Warning ** ProcessScheduleInput: Schedule:Day:Interval=\"SCHEDULE DAY 7\", Blank Schedule Type Limits Name input -- will not be validated.\n   ** Warning ** ProcessScheduleInput: Schedule:Day:Interval=\"SCHEDULE DAY 8\", Blank Schedule Type Limits Name input -- will not be validated.\n   ** Warning ** ProcessScheduleInput: Schedule:Day:Interval=\"SCHEDULE DAY 9\", Blank Schedule Type Limits Name input -- will not be validated.\n   ** Warning ** ProcessScheduleInput: Schedule:Year=\"ECONOMIZER MAX OA FRACTION 100 PCT\", Blank Schedule Type Limits Name input -- will not be validated.\n   ** Warning ** ProcessScheduleInput: Schedule:Year=\"SCHEDULE RULESET 10\", Blank Schedule Type Limits Name input -- will not be validated.\n   ** Warning ** ProcessScheduleInput: Schedule:Year=\"SCHEDULE RULESET 11\", Blank Schedule Type Limits Name input -- will not be validated.\n   ** Warning ** ProcessScheduleInput: Schedule:Year=\"SCHEDULE RULESET 12\", Blank Schedule Type Limits Name input -- will not be validated.\n   ** Warning ** ProcessScheduleInput: Schedule:Year=\"SCHEDULE RULESET 13\", Blank Schedule Type Limits Name input -- will not be validated.\n   ** Warning ** ProcessScheduleInput: Schedule:Year=\"SCHEDULE RULESET 14\", Blank Schedule Type Limits Name input -- will not be validated.\n   ** Warning ** ProcessScheduleInput: Schedule:Year=\"SCHEDULE RULESET 15\", Blank Schedule Type Limits Name input -- will not be validated.\n   ** Warning ** ProcessScheduleInput: Schedule:Year=\"SCHEDULE RULESET 16\", Blank Schedule Type Limits Name input -- will not be validated.\n   ** Warning ** ProcessScheduleInput: Schedule:Year=\"SCHEDULE RULESET 17\", Blank Schedule Type Limits Name input -- will not be validated.\n   ** Warning ** ProcessScheduleInput: Schedule:Year=\"SCHEDULE RULESET 18\", Blank Schedule Type Limits Name input -- will not be validated.\n   ** Warning ** ProcessScheduleInput: Schedule:Year=\"SCHEDULE RULESET 19\", Blank Schedule Type Limits Name input -- will not be validated.\n   ** Warning ** ProcessScheduleInput: Schedule:Year=\"SCHEDULE RULESET 20\", Blank Schedule Type Limits Name input -- will not be validated.\n   ** Warning ** ProcessScheduleInput: Schedule:Year=\"SCHEDULE RULESET 21\", Blank Schedule Type Limits Name input -- will not be validated.\n   ** Warning ** ProcessScheduleInput: Schedule:Year=\"SCHEDULE RULESET 22\", Blank Schedule Type Limits Name input -- will not be validated.\n   ** Warning ** ProcessScheduleInput: Schedule:Year=\"SCHEDULE RULESET 23\", Blank Schedule Type Limits Name input -- will not be validated.\n   ** Warning ** ProcessScheduleInput: Schedule:Year=\"SCHEDULE RULESET 24\", Blank Schedule Type Limits Name input -- will not be validated.\n   ** Warning ** ProcessScheduleInput: Schedule:Year=\"SCHEDULE RULESET 25\", Blank Schedule Type Limits Name input -- will not be validated.\n   ** Warning ** ProcessScheduleInput: Schedule:Year=\"SCHEDULE RULESET 26\", Blank Schedule Type Limits Name input -- will not be validated.\n   ** Warning ** ProcessScheduleInput: Schedule:Year=\"SCHEDULE RULESET 27\", Blank Schedule Type Limits Name input -- will not be validated.\n   ** Warning ** ProcessScheduleInput: Schedule:Year=\"SCHEDULE RULESET 28\", Blank Schedule Type Limits Name input -- will not be validated.\n   ** Warning ** ProcessScheduleInput: Schedule:Year=\"SCHEDULE RULESET 29\", Blank Schedule Type Limits Name input -- will not be validated.\n   ** Warning ** ProcessScheduleInput: Schedule:Year=\"SCHEDULE RULESET 3\", Blank Schedule Type Limits Name input -- will not be validated.\n   ** Warning ** ProcessScheduleInput: Schedule:Year=\"SCHEDULE RULESET 30\", Blank Schedule Type Limits Name input -- will not be validated.\n   ** Warning ** ProcessScheduleInput: Schedule:Year=\"SCHEDULE RULESET 31\", Blank Schedule Type Limits Name input -- will not be validated.\n   ** Warning ** ProcessScheduleInput: Schedule:Year=\"SCHEDULE RULESET 32\", Blank Schedule Type Limits Name input -- will not be validated.\n   ** Warning ** ProcessScheduleInput: Schedule:Year=\"SCHEDULE RULESET 4\", Blank Schedule Type Limits Name input -- will not be validated.\n   ** Warning ** ProcessScheduleInput: Schedule:Year=\"SCHEDULE RULESET 5\", Blank Schedule Type Limits Name input -- will not be validated.\n   ** Warning ** ProcessScheduleInput: Schedule:Year=\"SCHEDULE RULESET 6\", Blank Schedule Type Limits Name input -- will not be validated.\n   ** Warning ** ProcessScheduleInput: Schedule:Year=\"SCHEDULE RULESET 7\", Blank Schedule Type Limits Name input -- will not be validated.\n   ** Warning ** ProcessScheduleInput: Schedule:Year=\"SCHEDULE RULESET 8\", Blank Schedule Type Limits Name input -- will not be validated.\n   ** Warning ** ProcessScheduleInput: Schedule:Year=\"SCHEDULE RULESET 9\", Blank Schedule Type Limits Name input -- will not be validated.\n   ** Warning ** ProcessScheduleInput: Schedule:Constant=\"ALWAYS OFF DISCRETE\", Blank Schedule Type Limits Name input -- will not be validated.\n   ** Warning ** ProcessScheduleInput: Schedule:Constant=\"ALWAYS ON CONTINUOUS\", Blank Schedule Type Limits Name input -- will not be validated.\n   ** Warning ** CheckUsedConstructions: There are 24 nominally unused constructions in input.\n   **   ~~~   ** For explicit details on each unused construction, use Output:Diagnostics,DisplayExtraWarnings;\n   ************* Beginning System Sizing Calculations\n   ************* Beginning Plant Sizing Calculations\n   ** Warning ** GetDXCoils: Coil:Cooling:DX:SingleSpeed=\"COIL COOLING DX SINGLE SPEED 10 81KBTU/HR 9.7EER\", invalid\n   **   ~~~   ** ...Part Load Fraction Correlation Curve Name = DXCOOL-NECB2011-REF-COOLPLFFPLR 1 has out of range value.\n   **   ~~~   ** ...Curve maximum must be <= 1.0, curve max at PLR = 0.99 is 1.015\n   **   ~~~   ** ...Setting curve maximum to 1.0 and simulation continues.\n   ** Warning ** GetDXCoils: Coil:Cooling:DX:SingleSpeed=\"COIL COOLING DX SINGLE SPEED 1 79KBTU/HR 9.7EER\", invalid\n   **   ~~~   ** ...Part Load Fraction Correlation Curve Name = DXCOOL-NECB2011-REF-COOLPLFFPLR has out of range value.\n   **   ~~~   ** ...Curve maximum must be <= 1.0, curve max at PLR = 0.99 is 1.015\n   **   ~~~   ** ...Setting curve maximum to 1.0 and simulation continues.\n   ** Warning ** GetDXCoils: Coil:Cooling:DX:SingleSpeed=\"COIL COOLING DX SINGLE SPEED 3 41KBTU/HR 14.0SEER\", invalid\n   **   ~~~   ** ...Part Load Fraction Correlation Curve Name = DXCOOL-NECB2011-REF-COOLPLFFPLR 3 has out of range value.\n   **   ~~~   ** ...Curve maximum must be <= 1.0, curve max at PLR = 0.99 is 1.015\n   **   ~~~   ** ...Setting curve maximum to 1.0 and simulation continues.\n   ** Warning ** GetDXCoils: Coil:Cooling:DX:SingleSpeed=\"COIL COOLING DX SINGLE SPEED 2 40KBTU/HR 14.0SEER\", invalid\n   **   ~~~   ** ...Part Load Fraction Correlation Curve Name = DXCOOL-NECB2011-REF-COOLPLFFPLR 2 has out of range value.\n   **   ~~~   ** ...Curve maximum must be <= 1.0, curve max at PLR = 0.99 is 1.015\n   **   ~~~   ** ...Setting curve maximum to 1.0 and simulation continues.\n   ** Warning ** GetDXCoils: Coil:Cooling:DX:SingleSpeed=\"COIL COOLING DX SINGLE SPEED 6 40KBTU/HR 14.0SEER\", invalid\n   **   ~~~   ** ...Part Load Fraction Correlation Curve Name = DXCOOL-NECB2011-REF-COOLPLFFPLR 6 has out of range value.\n   **   ~~~   ** ...Curve maximum must be <= 1.0, curve max at PLR = 0.99 is 1.015\n   **   ~~~   ** ...Setting curve maximum to 1.0 and simulation continues.\n   ** Warning ** GetDXCoils: Coil:Cooling:DX:SingleSpeed=\"COIL COOLING DX SINGLE SPEED 8 41KBTU/HR 14.0SEER\", invalid\n   **   ~~~   ** ...Part Load Fraction Correlation Curve Name = DXCOOL-NECB2011-REF-COOLPLFFPLR 8 has out of range value.\n   **   ~~~   ** ...Curve maximum must be <= 1.0, curve max at PLR = 0.99 is 1.015\n   **   ~~~   ** ...Setting curve maximum to 1.0 and simulation continues.\n   ** Warning ** GetDXCoils: Coil:Cooling:DX:SingleSpeed=\"COIL COOLING DX SINGLE SPEED 7 41KBTU/HR 14.0SEER\", invalid\n   **   ~~~   ** ...Part Load Fraction Correlation Curve Name = DXCOOL-NECB2011-REF-COOLPLFFPLR 7 has out of range value.\n   **   ~~~   ** ...Curve maximum must be <= 1.0, curve max at PLR = 0.99 is 1.015\n   **   ~~~   ** ...Setting curve maximum to 1.0 and simulation continues.\n   ** Warning ** GetDXCoils: Coil:Cooling:DX:SingleSpeed=\"COIL COOLING DX SINGLE SPEED 5 40KBTU/HR 14.0SEER\", invalid\n   **   ~~~   ** ...Part Load Fraction Correlation Curve Name = DXCOOL-NECB2011-REF-COOLPLFFPLR 5 has out of range value.\n   **   ~~~   ** ...Curve maximum must be <= 1.0, curve max at PLR = 0.99 is 1.015\n   **   ~~~   ** ...Setting curve maximum to 1.0 and simulation continues.\n   ** Warning ** GetDXCoils: Coil:Cooling:DX:SingleSpeed=\"COIL COOLING DX SINGLE SPEED 4 40KBTU/HR 14.0SEER\", invalid\n   **   ~~~   ** ...Part Load Fraction Correlation Curve Name = DXCOOL-NECB2011-REF-COOLPLFFPLR 4 has out of range value.\n   **   ~~~   ** ...Curve maximum must be <= 1.0, curve max at PLR = 0.99 is 1.015\n   **   ~~~   ** ...Setting curve maximum to 1.0 and simulation continues.\n   ** Warning ** GetDXCoils: Coil:Cooling:DX:SingleSpeed=\"COIL COOLING DX SINGLE SPEED 9 42KBTU/HR 14.0SEER\", invalid\n   **   ~~~   ** ...Part Load Fraction Correlation Curve Name = DXCOOL-NECB2011-REF-COOLPLFFPLR 9 has out of range value.\n   **   ~~~   ** ...Curve maximum must be <= 1.0, curve max at PLR = 0.99 is 1.015\n   **   ~~~   ** ...Setting curve maximum to 1.0 and simulation continues.\n   ** Warning ** The Standard Ratings is calculated for Coil:Cooling:DX:SingleSpeed = COIL COOLING DX SINGLE SPEED 10 81KBTU/HR 9.7EER but not at the AHRI test condition due to curve out of bound.\n   **   ~~~   **  Review the Standard Ratings calculations in the Engineering Reference for this coil type. Also, use Output:Diagnostics, DisplayExtraWarnings for further guidance.\n   ** Warning ** The Standard Ratings is calculated for Coil:Cooling:DX:SingleSpeed = COIL COOLING DX SINGLE SPEED 1 79KBTU/HR 9.7EER but not at the AHRI test condition due to curve out of bound.\n   **   ~~~   **  Review the Standard Ratings calculations in the Engineering Reference for this coil type. Also, use Output:Diagnostics, DisplayExtraWarnings for further guidance.\n   ** Warning ** The Standard Ratings is calculated for Coil:Cooling:DX:SingleSpeed = COIL COOLING DX SINGLE SPEED 3 41KBTU/HR 14.0SEER but not at the AHRI test condition due to curve out of bound.\n   **   ~~~   **  Review the Standard Ratings calculations in the Engineering Reference for this coil type. Also, use Output:Diagnostics, DisplayExtraWarnings for further guidance.\n   ** Warning ** The Standard Ratings is calculated for Coil:Cooling:DX:SingleSpeed = COIL COOLING DX SINGLE SPEED 2 40KBTU/HR 14.0SEER but not at the AHRI test condition due to curve out of bound.\n   **   ~~~   **  Review the Standard Ratings calculations in the Engineering Reference for this coil type. Also, use Output:Diagnostics, DisplayExtraWarnings for further guidance.\n   ** Warning ** The Standard Ratings is calculated for Coil:Cooling:DX:SingleSpeed = COIL COOLING DX SINGLE SPEED 6 40KBTU/HR 14.0SEER but not at the AHRI test condition due to curve out of bound.\n   **   ~~~   **  Review the Standard Ratings calculations in the Engineering Reference for this coil type. Also, use Output:Diagnostics, DisplayExtraWarnings for further guidance.\n   ** Warning ** The Standard Ratings is calculated for Coil:Cooling:DX:SingleSpeed = COIL COOLING DX SINGLE SPEED 8 41KBTU/HR 14.0SEER but not at the AHRI test condition due to curve out of bound.\n   **   ~~~   **  Review the Standard Ratings calculations in the Engineering Reference for this coil type. Also, use Output:Diagnostics, DisplayExtraWarnings for further guidance.\n   ** Warning ** The Standard Ratings is calculated for Coil:Cooling:DX:SingleSpeed = COIL COOLING DX SINGLE SPEED 7 41KBTU/HR 14.0SEER but not at the AHRI test condition due to curve out of bound.\n   **   ~~~   **  Review the Standard Ratings calculations in the Engineering Reference for this coil type. Also, use Output:Diagnostics, DisplayExtraWarnings for further guidance.\n   ** Warning ** The Standard Ratings is calculated for Coil:Cooling:DX:SingleSpeed = COIL COOLING DX SINGLE SPEED 5 40KBTU/HR 14.0SEER but not at the AHRI test condition due to curve out of bound.\n   **   ~~~   **  Review the Standard Ratings calculations in the Engineering Reference for this coil type. Also, use Output:Diagnostics, DisplayExtraWarnings for further guidance.\n   ** Warning ** The Standard Ratings is calculated for Coil:Cooling:DX:SingleSpeed = COIL COOLING DX SINGLE SPEED 4 40KBTU/HR 14.0SEER but not at the AHRI test condition due to curve out of bound.\n   **   ~~~   **  Review the Standard Ratings calculations in the Engineering Reference for this coil type. Also, use Output:Diagnostics, DisplayExtraWarnings for further guidance.\n   ** Warning ** The Standard Ratings is calculated for Coil:Cooling:DX:SingleSpeed = COIL COOLING DX SINGLE SPEED 9 42KBTU/HR 14.0SEER but not at the AHRI test condition due to curve out of bound.\n   **   ~~~   **  Review the Standard Ratings calculations in the Engineering Reference for this coil type. Also, use Output:Diagnostics, DisplayExtraWarnings for further guidance.\n   ** Warning ** Check input. Pump nominal power or motor efficiency is set to 0, for pump=SERVICE WATER LOOP PUMP\n   ** Warning ** Output:Meter: invalid Name=\"DISTRICTCOOLING:FACILITY\" - not found.\n   ** Warning ** Output:Meter: invalid Name=\"DISTRICTHEATING:FACILITY\" - not found.\n   ** Warning ** Output:Meter:MeterFileOnly requested for \"Electricity:Facility\" (TimeStep), already on \"Output:Meter\". Will report to both eplusout.eso and eplusout.mtr\n   ************* Testing Individual Branch Integrity\n   ************* All Branches passed integrity testing\n   ************* Testing Individual Supply Air Path Integrity\n   ************* All Supply Air Paths passed integrity testing\n   ************* Testing Individual Return Air Path Integrity\n   ************* All Return Air Paths passed integrity testing\n   ************* No node connection errors were found.\n   ************* Beginning Simulation\n   ** Warning ** CalcDoe2DXCoil: Coil:Cooling:DX:SingleSpeed \"COIL COOLING DX SINGLE SPEED 3 41KBTU/HR 14.0SEER\" - Air-cooled condenser inlet dry-bulb temperature below 0 C. Outdoor dry-bulb temperature = -18.30\n   **   ~~~   **  ... Occurrence info = RUN PERIOD 1, 01/01 09:03 - 09:06\n   **   ~~~   ** ... Operation at low ambient temperatures may require special performance curves.\n   ** Warning ** CalcDoe2DXCoil: Coil:Cooling:DX:SingleSpeed \"COIL COOLING DX SINGLE SPEED 3 41KBTU/HR 14.0SEER\" - Full load outlet air dry-bulb temperature < 2C. This indicates the possibility of coil frost/freeze. Outlet temperature = 1.42 C.\n   **   ~~~   **  ...Occurrence info = RUN PERIOD 1, 01/01 09:03 - 09:06\n   **   ~~~   ** ... Possible reasons for low outlet air dry-bulb temperatures are: This DX coil\n   **   ~~~   **    1) may have a low inlet air dry-bulb temperature. Inlet air temperature = 19.638 C.\n   **   ~~~   **    2) may have a low air flow rate per watt of cooling capacity. Check inputs.\n   **   ~~~   **    3) is used as part of a HX assisted cooling coil which uses a high sensible effectiveness. Check inputs.\n   ** Warning ** CalcDoe2DXCoil: Coil:Cooling:DX:SingleSpeed \"COIL COOLING DX SINGLE SPEED 2 40KBTU/HR 14.0SEER\" - Air-cooled condenser inlet dry-bulb temperature below 0 C. Outdoor dry-bulb temperature = -18.30\n   **   ~~~   **  ... Occurrence info = RUN PERIOD 1, 01/01 09:03 - 09:06\n   **   ~~~   ** ... Operation at low ambient temperatures may require special performance curves.\n   ** Warning ** CalcDoe2DXCoil: Coil:Cooling:DX:SingleSpeed \"COIL COOLING DX SINGLE SPEED 2 40KBTU/HR 14.0SEER\" - Full load outlet air dry-bulb temperature < 2C. This indicates the possibility of coil frost/freeze. Outlet temperature = 1.25 C.\n   **   ~~~   **  ...Occurrence info = RUN PERIOD 1, 01/01 09:03 - 09:06\n   **   ~~~   ** ... Possible reasons for low outlet air dry-bulb temperatures are: This DX coil\n   **   ~~~   **    1) may have a low inlet air dry-bulb temperature. Inlet air temperature = 19.578 C.\n   **   ~~~   **    2) may have a low air flow rate per watt of cooling capacity. Check inputs.\n   **   ~~~   **    3) is used as part of a HX assisted cooling coil which uses a high sensible effectiveness. Check inputs.\n   ** Warning ** CalcDoe2DXCoil: Coil:Cooling:DX:SingleSpeed \"COIL COOLING DX SINGLE SPEED 6 40KBTU/HR 14.0SEER\" - Air-cooled condenser inlet dry-bulb temperature below 0 C. Outdoor dry-bulb temperature = -18.30\n   **   ~~~   **  ... Occurrence info = RUN PERIOD 1, 01/01 09:03 - 09:06\n   **   ~~~   ** ... Operation at low ambient temperatures may require special performance curves.\n   ** Warning ** CalcDoe2DXCoil: Coil:Cooling:DX:SingleSpeed \"COIL COOLING DX SINGLE SPEED 6 40KBTU/HR 14.0SEER\" - Full load outlet air dry-bulb temperature < 2C. This indicates the possibility of coil frost/freeze. Outlet temperature = 1.25 C.\n   **   ~~~   **  ...Occurrence info = RUN PERIOD 1, 01/01 09:03 - 09:06\n   **   ~~~   ** ... Possible reasons for low outlet air dry-bulb temperatures are: This DX coil\n   **   ~~~   **    1) may have a low inlet air dry-bulb temperature. Inlet air temperature = 19.577 C.\n   **   ~~~   **    2) may have a low air flow rate per watt of cooling capacity. Check inputs.\n   **   ~~~   **    3) is used as part of a HX assisted cooling coil which uses a high sensible effectiveness. Check inputs.\n   ** Warning ** CalcDoe2DXCoil: Coil:Cooling:DX:SingleSpeed \"COIL COOLING DX SINGLE SPEED 8 41KBTU/HR 14.0SEER\" - Air-cooled condenser inlet dry-bulb temperature below 0 C. Outdoor dry-bulb temperature = -18.30\n   **   ~~~   **  ... Occurrence info = RUN PERIOD 1, 01/01 09:03 - 09:06\n   **   ~~~   ** ... Operation at low ambient temperatures may require special performance curves.\n   ** Warning ** CalcDoe2DXCoil: Coil:Cooling:DX:SingleSpeed \"COIL COOLING DX SINGLE SPEED 8 41KBTU/HR 14.0SEER\" - Full load outlet air dry-bulb temperature < 2C. This indicates the possibility of coil frost/freeze. Outlet temperature = 1.36 C.\n   **   ~~~   **  ...Occurrence info = RUN PERIOD 1, 01/01 09:03 - 09:06\n   **   ~~~   ** ... Possible reasons for low outlet air dry-bulb temperatures are: This DX coil\n   **   ~~~   **    1) may have a low inlet air dry-bulb temperature. Inlet air temperature = 19.599 C.\n   **   ~~~   **    2) may have a low air flow rate per watt of cooling capacity. Check inputs.\n   **   ~~~   **    3) is used as part of a HX assisted cooling coil which uses a high sensible effectiveness. Check inputs.\n   ** Warning ** CalcDoe2DXCoil: Coil:Cooling:DX:SingleSpeed \"COIL COOLING DX SINGLE SPEED 7 41KBTU/HR 14.0SEER\" - Air-cooled condenser inlet dry-bulb temperature below 0 C. Outdoor dry-bulb temperature = -18.30\n   **   ~~~   **  ... Occurrence info = RUN PERIOD 1, 01/01 09:03 - 09:06\n   **   ~~~   ** ... Operation at low ambient temperatures may require special performance curves.\n   ** Warning ** CalcDoe2DXCoil: Coil:Cooling:DX:SingleSpeed \"COIL COOLING DX SINGLE SPEED 7 41KBTU/HR 14.0SEER\" - Full load outlet air dry-bulb temperature < 2C. This indicates the possibility of coil frost/freeze. Outlet temperature = 1.36 C.\n   **   ~~~   **  ...Occurrence info = RUN PERIOD 1, 01/01 09:03 - 09:06\n   **   ~~~   ** ... Possible reasons for low outlet air dry-bulb temperatures are: This DX coil\n   **   ~~~   **    1) may have a low inlet air dry-bulb temperature. Inlet air temperature = 19.599 C.\n   **   ~~~   **    2) may have a low air flow rate per watt of cooling capacity. Check inputs.\n   **   ~~~   **    3) is used as part of a HX assisted cooling coil which uses a high sensible effectiveness. Check inputs.\n   ** Warning ** CalcDoe2DXCoil: Coil:Cooling:DX:SingleSpeed \"COIL COOLING DX SINGLE SPEED 5 40KBTU/HR 14.0SEER\" - Air-cooled condenser inlet dry-bulb temperature below 0 C. Outdoor dry-bulb temperature = -18.30\n   **   ~~~   **  ... Occurrence info = RUN PERIOD 1, 01/01 09:03 - 09:06\n   **   ~~~   ** ... Operation at low ambient temperatures may require special performance curves.\n   ** Warning ** CalcDoe2DXCoil: Coil:Cooling:DX:SingleSpeed \"COIL COOLING DX SINGLE SPEED 5 40KBTU/HR 14.0SEER\" - Full load outlet air dry-bulb temperature < 2C. This indicates the possibility of coil frost/freeze. Outlet temperature = 1.25 C.\n   **   ~~~   **  ...Occurrence info = RUN PERIOD 1, 01/01 09:03 - 09:06\n   **   ~~~   ** ... Possible reasons for low outlet air dry-bulb temperatures are: This DX coil\n   **   ~~~   **    1) may have a low inlet air dry-bulb temperature. Inlet air temperature = 19.578 C.\n   **   ~~~   **    2) may have a low air flow rate per watt of cooling capacity. Check inputs.\n   **   ~~~   **    3) is used as part of a HX assisted cooling coil which uses a high sensible effectiveness. Check inputs.\n   ** Warning ** CalcDoe2DXCoil: Coil:Cooling:DX:SingleSpeed \"COIL COOLING DX SINGLE SPEED 4 40KBTU/HR 14.0SEER\" - Air-cooled condenser inlet dry-bulb temperature below 0 C. Outdoor dry-bulb temperature = -18.30\n   **   ~~~   **  ... Occurrence info = RUN PERIOD 1, 01/01 09:03 - 09:06\n   **   ~~~   ** ... Operation at low ambient temperatures may require special performance curves.\n   ** Warning ** CalcDoe2DXCoil: Coil:Cooling:DX:SingleSpeed \"COIL COOLING DX SINGLE SPEED 4 40KBTU/HR 14.0SEER\" - Full load outlet air dry-bulb temperature < 2C. This indicates the possibility of coil frost/freeze. Outlet temperature = 1.31 C.\n   **   ~~~   **  ...Occurrence info = RUN PERIOD 1, 01/01 09:03 - 09:06\n   **   ~~~   ** ... Possible reasons for low outlet air dry-bulb temperatures are: This DX coil\n   **   ~~~   **    1) may have a low inlet air dry-bulb temperature. Inlet air temperature = 19.615 C.\n   **   ~~~   **    2) may have a low air flow rate per watt of cooling capacity. Check inputs.\n   **   ~~~   **    3) is used as part of a HX assisted cooling coil which uses a high sensible effectiveness. Check inputs.\n   ** Warning ** CalcDoe2DXCoil: Coil:Cooling:DX:SingleSpeed \"COIL COOLING DX SINGLE SPEED 9 42KBTU/HR 14.0SEER\" - Air-cooled condenser inlet dry-bulb temperature below 0 C. Outdoor dry-bulb temperature = -18.30\n   **   ~~~   **  ... Occurrence info = RUN PERIOD 1, 01/01 09:03 - 09:06\n   **   ~~~   ** ... Operation at low ambient temperatures may require special performance curves.\n   ** Warning ** CalcDoe2DXCoil: Coil:Cooling:DX:SingleSpeed \"COIL COOLING DX SINGLE SPEED 9 42KBTU/HR 14.0SEER\" - Full load outlet air dry-bulb temperature < 2C. This indicates the possibility of coil frost/freeze. Outlet temperature = 1.51 C.\n   **   ~~~   **  ...Occurrence info = RUN PERIOD 1, 01/01 09:03 - 09:06\n   **   ~~~   ** ... Possible reasons for low outlet air dry-bulb temperatures are: This DX coil\n   **   ~~~   **    1) may have a low inlet air dry-bulb temperature. Inlet air temperature = 19.697 C.\n   **   ~~~   **    2) may have a low air flow rate per watt of cooling capacity. Check inputs.\n   **   ~~~   **    3) is used as part of a HX assisted cooling coil which uses a high sensible effectiveness. Check inputs.\n   ** Warning ** CalcDoe2DXCoil: Coil:Cooling:DX:SingleSpeed \"COIL COOLING DX SINGLE SPEED 1 79KBTU/HR 9.7EER\" - Full load outlet air dry-bulb temperature < 2C. This indicates the possibility of coil frost/freeze. Outlet temperature = -1.17 C.\n   **   ~~~   **  ...Occurrence info = RUN PERIOD 1, 04/12 13:00 - 13:15\n   **   ~~~   ** ... Possible reasons for low outlet air dry-bulb temperatures are: This DX coil\n   **   ~~~   **    1) may have a low inlet air dry-bulb temperature. Inlet air temperature = 14.825 C.\n   **   ~~~   **    2) may have a low air flow rate per watt of cooling capacity. Check inputs.\n   **   ~~~   **    3) is used as part of a HX assisted cooling coil which uses a high sensible effectiveness. Check inputs.\n   ** Warning ** CalcDoe2DXCoil: Coil:Cooling:DX:SingleSpeed \"COIL COOLING DX SINGLE SPEED 10 81KBTU/HR 9.7EER\" - Full load outlet air dry-bulb temperature < 2C. This indicates the possibility of coil frost/freeze. Outlet temperature = -0.49 C.\n   **   ~~~   **  ...Occurrence info = RUN PERIOD 1, 04/12 13:30 - 13:45\n   **   ~~~   ** ... Possible reasons for low outlet air dry-bulb temperatures are: This DX coil\n   **   ~~~   **    1) may have a low inlet air dry-bulb temperature. Inlet air temperature = 15.675 C.\n   **   ~~~   **    2) may have a low air flow rate per watt of cooling capacity. Check inputs.\n   **   ~~~   **    3) is used as part of a HX assisted cooling coil which uses a high sensible effectiveness. Check inputs.\n   ************* Simulation Error Summary *************\n   ************* There are 9 unused schedules in input.\n   ************* There are 9 unused week schedules in input.\n   ************* There are 32 unused day schedules in input.\n   ************* Use Output:Diagnostics,DisplayUnusedSchedules; to see them.\n   *************\n   ************* ===== Recurring Error Summary =====\n   ************* The following recurring error messages occurred.\n   *************\n   *************  ** Warning ** CalcDoe2DXCoil: Coil:Cooling:DX:SingleSpeed=\"COIL COOLING DX SINGLE SPEED 3 41KBTU/HR 14.0SEER\" - Low condenser dry-bulb temperature error continues...\n   *************  **   ~~~   **   This error occurred 171 total times;\n   *************  **   ~~~   **   during Warmup 0 times;\n   *************  **   ~~~   **   during Sizing 0 times.\n   *************  **   ~~~   **   Max=-0.125 [C]  Min=-19.025 [C]\n   *************\n   *************  ** Warning ** CalcDoe2DXCoil: Coil:Cooling:DX:SingleSpeed=\"COIL COOLING DX SINGLE SPEED 3 41KBTU/HR 14.0SEER\" - Full load outlet temperature indicates a possibility of frost/freeze error continues. Outlet air temperature statistics follow:\n   *************  **   ~~~   **   This error occurred 533 total times;\n   *************  **   ~~~   **   during Warmup 0 times;\n   *************  **   ~~~   **   during Sizing 0 times.\n   *************  **   ~~~   **   Max=1.998384  Min=-4.515272\n   *************\n   *************  ** Warning ** CalcDoe2DXCoil: Coil:Cooling:DX:SingleSpeed=\"COIL COOLING DX SINGLE SPEED 2 40KBTU/HR 14.0SEER\" - Low condenser dry-bulb temperature error continues...\n   *************  **   ~~~   **   This error occurred 143 total times;\n   *************  **   ~~~   **   during Warmup 0 times;\n   *************  **   ~~~   **   during Sizing 0 times.\n   *************  **   ~~~   **   Max=-0.1 [C]  Min=-18.3 [C]\n   *************\n   *************  ** Warning ** CalcDoe2DXCoil: Coil:Cooling:DX:SingleSpeed=\"COIL COOLING DX SINGLE SPEED 2 40KBTU/HR 14.0SEER\" - Full load outlet temperature indicates a possibility of frost/freeze error continues. Outlet air temperature statistics follow:\n   *************  **   ~~~   **   This error occurred 573 total times;\n   *************  **   ~~~   **   during Warmup 0 times;\n   *************  **   ~~~   **   during Sizing 0 times.\n   *************  **   ~~~   **   Max=1.995689  Min=-4.66519\n   *************\n   *************  ** Warning ** CalcDoe2DXCoil: Coil:Cooling:DX:SingleSpeed=\"COIL COOLING DX SINGLE SPEED 6 40KBTU/HR 14.0SEER\" - Low condenser dry-bulb temperature error continues...\n   *************  **   ~~~   **   This error occurred 144 total times;\n   *************  **   ~~~   **   during Warmup 0 times;\n   *************  **   ~~~   **   during Sizing 0 times.\n   *************  **   ~~~   **   Max=-0.1 [C]  Min=-18.3 [C]\n   *************\n   *************  ** Warning ** CalcDoe2DXCoil: Coil:Cooling:DX:SingleSpeed=\"COIL COOLING DX SINGLE SPEED 6 40KBTU/HR 14.0SEER\" - Full load outlet temperature indicates a possibility of frost/freeze error continues. Outlet air temperature statistics follow:\n   *************  **   ~~~   **   This error occurred 579 total times;\n   *************  **   ~~~   **   during Warmup 0 times;\n   *************  **   ~~~   **   during Sizing 0 times.\n   *************  **   ~~~   **   Max=1.999551  Min=-4.66845\n   *************\n   *************  ** Warning ** CalcDoe2DXCoil: Coil:Cooling:DX:SingleSpeed=\"COIL COOLING DX SINGLE SPEED 8 41KBTU/HR 14.0SEER\" - Low condenser dry-bulb temperature error continues...\n   *************  **   ~~~   **   This error occurred 163 total times;\n   *************  **   ~~~   **   during Warmup 0 times;\n   *************  **   ~~~   **   during Sizing 0 times.\n   *************  **   ~~~   **   Max=-0.1 [C]  Min=-18.3 [C]\n   *************\n   *************  ** Warning ** CalcDoe2DXCoil: Coil:Cooling:DX:SingleSpeed=\"COIL COOLING DX SINGLE SPEED 8 41KBTU/HR 14.0SEER\" - Full load outlet temperature indicates a possibility of frost/freeze error continues. Outlet air temperature statistics follow:\n   *************  **   ~~~   **   This error occurred 559 total times;\n   *************  **   ~~~   **   during Warmup 0 times;\n   *************  **   ~~~   **   during Sizing 0 times.\n   *************  **   ~~~   **   Max=1.998794  Min=-4.545503\n   *************\n   *************  ** Warning ** CalcDoe2DXCoil: Coil:Cooling:DX:SingleSpeed=\"COIL COOLING DX SINGLE SPEED 7 41KBTU/HR 14.0SEER\" - Low condenser dry-bulb temperature error continues...\n   *************  **   ~~~   **   This error occurred 163 total times;\n   *************  **   ~~~   **   during Warmup 0 times;\n   *************  **   ~~~   **   during Sizing 0 times.\n   *************  **   ~~~   **   Max=-0.1 [C]  Min=-18.3 [C]\n   *************\n   *************  ** Warning ** CalcDoe2DXCoil: Coil:Cooling:DX:SingleSpeed=\"COIL COOLING DX SINGLE SPEED 7 41KBTU/HR 14.0SEER\" - Full load outlet temperature indicates a possibility of frost/freeze error continues. Outlet air temperature statistics follow:\n   *************  **   ~~~   **   This error occurred 558 total times;\n   *************  **   ~~~   **   during Warmup 0 times;\n   *************  **   ~~~   **   during Sizing 0 times.\n   *************  **   ~~~   **   Max=1.999006  Min=-4.545211\n   *************\n   *************  ** Warning ** CalcDoe2DXCoil: Coil:Cooling:DX:SingleSpeed=\"COIL COOLING DX SINGLE SPEED 5 40KBTU/HR 14.0SEER\" - Low condenser dry-bulb temperature error continues...\n   *************  **   ~~~   **   This error occurred 143 total times;\n   *************  **   ~~~   **   during Warmup 0 times;\n   *************  **   ~~~   **   during Sizing 0 times.\n   *************  **   ~~~   **   Max=-0.1 [C]  Min=-18.3 [C]\n   *************\n   *************  ** Warning ** CalcDoe2DXCoil: Coil:Cooling:DX:SingleSpeed=\"COIL COOLING DX SINGLE SPEED 5 40KBTU/HR 14.0SEER\" - Full load outlet temperature indicates a possibility of frost/freeze error continues. Outlet air temperature statistics follow:\n   *************  **   ~~~   **   This error occurred 567 total times;\n   *************  **   ~~~   **   during Warmup 0 times;\n   *************  **   ~~~   **   during Sizing 0 times.\n   *************  **   ~~~   **   Max=1.994288  Min=-4.667703\n   *************\n   *************  ** Warning ** CalcDoe2DXCoil: Coil:Cooling:DX:SingleSpeed=\"COIL COOLING DX SINGLE SPEED 4 40KBTU/HR 14.0SEER\" - Low condenser dry-bulb temperature error continues...\n   *************  **   ~~~   **   This error occurred 155 total times;\n   *************  **   ~~~   **   during Warmup 0 times;\n   *************  **   ~~~   **   during Sizing 0 times.\n   *************  **   ~~~   **   Max=-0.125 [C]  Min=-18.3 [C]\n   *************\n   *************  ** Warning ** CalcDoe2DXCoil: Coil:Cooling:DX:SingleSpeed=\"COIL COOLING DX SINGLE SPEED 4 40KBTU/HR 14.0SEER\" - Full load outlet temperature indicates a possibility of frost/freeze error continues. Outlet air temperature statistics follow:\n   *************  **   ~~~   **   This error occurred 533 total times;\n   *************  **   ~~~   **   during Warmup 0 times;\n   *************  **   ~~~   **   during Sizing 0 times.\n   *************  **   ~~~   **   Max=1.999112  Min=-4.66113\n   *************\n   *************  ** Warning ** CalcDoe2DXCoil: Coil:Cooling:DX:SingleSpeed=\"COIL COOLING DX SINGLE SPEED 9 42KBTU/HR 14.0SEER\" - Low condenser dry-bulb temperature error continues...\n   *************  **   ~~~   **   This error occurred 141 total times;\n   *************  **   ~~~   **   during Warmup 0 times;\n   *************  **   ~~~   **   during Sizing 0 times.\n   *************  **   ~~~   **   Max=-0.125 [C]  Min=-18.3 [C]\n   *************\n   *************  ** Warning ** CalcDoe2DXCoil: Coil:Cooling:DX:SingleSpeed=\"COIL COOLING DX SINGLE SPEED 9 42KBTU/HR 14.0SEER\" - Full load outlet temperature indicates a possibility of frost/freeze error continues. Outlet air temperature statistics follow:\n   *************  **   ~~~   **   This error occurred 321 total times;\n   *************  **   ~~~   **   during Warmup 0 times;\n   *************  **   ~~~   **   during Sizing 0 times.\n   *************  **   ~~~   **   Max=1.994629  Min=-3.974609\n   *************\n   *************  ** Warning ** CalcDoe2DXCoil: Coil:Cooling:DX:SingleSpeed=\"COIL COOLING DX SINGLE SPEED 1 79KBTU/HR 9.7EER\" - Full load outlet temperature indicates a possibility of frost/freeze error continues. Outlet air temperature statistics follow:\n   *************  **   ~~~   **   This error occurred 204 total times;\n   *************  **   ~~~   **   during Warmup 0 times;\n   *************  **   ~~~   **   during Sizing 0 times.\n   *************  **   ~~~   **   Max=1.998792  Min=-2.774887\n   *************\n   *************  ** Warning ** CalcDoe2DXCoil: Coil:Cooling:DX:SingleSpeed=\"COIL COOLING DX SINGLE SPEED 10 81KBTU/HR 9.7EER\" - Full load outlet temperature indicates a possibility of frost/freeze error continues. Outlet air temperature statistics follow:\n   *************  **   ~~~   **   This error occurred 149 total times;\n   *************  **   ~~~   **   during Warmup 0 times;\n   *************  **   ~~~   **   during Sizing 0 times.\n   *************  **   ~~~   **   Max=1.999371  Min=-2.452282\n   *************\n   *************\n   ************* ===== Final Error Summary =====\n   ************* The following error categories occurred.  Consider correcting or noting.\n   ************* Nominally Unused Constructions\n   ************* ..The nominally unused constructions warning is provided to alert you to potential conditions that can cause\n   ************* ..extra time during simulation. Each construction is calculated by the algorithm indicated in the HeatBalanceAlgorithm\n   ************* ..object. You may remove the constructions indicated (when you use the DisplayExtraWarnings option).\n   *************\n   ************* EnergyPlus Warmup Error Summary. During Warmup: 0 Warning; 0 Severe Errors.\n   ************* EnergyPlus Sizing Error Summary. During Sizing: 87 Warning; 0 Severe Errors.\n   ************* EnergyPlus Completed Successfully-- 5911 Warning; 0 Severe Errors; Elapsed Time=00hr 01min 12.66sec\n",
   "file_format_version" : "0.0.1",
   "file_paths" : [ "../weather", "../seeds", "../seed" ],
   "hash" : "E9DD3490",
   "measure_paths" : [ "../measures" ],
   "name" : "LHS Autogenerated 249",
   "osa_id" : "4fef0e0f-5396-4c55-a6e1-2cd6803db3ab",
   "osd_id" : "298aa990-8db2-4c5a-a56e-a7daf977b66d",
   "run_directory" : "./run",
   "seed_file" : "seed.osm",
   "started_at" : "20170710T183221Z",
   "steps" : [
      {
         "arguments" : {
            "__SKIP__" : false,
            "building_type" : "RetailStripmall",
            "climate_zone" : "NECB HDD Method",
            "epw_file" : "CAN_ON_Toronto.716240_CWEC.epw",
            "template" : "NECB 2011"
         },
         "measure_dir_name" : "create_prototype_building",
         "name" : "create_prototype_building",
         "result" : {
            "completed_at" : "20170710T183328Z",
            "measure_class_name" : "CreatePrototypeBuilding",
            "measure_display_name" : "Create Prototype Building",
            "measure_name" : "create_prototype_building",
            "measure_taxonomy" : "Whole Building.Space Types",
            "measure_type" : "ModelMeasure",
            "measure_uid" : "ae90fsd7-a651-467a-bc8d-29d310b0f937",
            "measure_version_id" : "c6ec5c18-5595-459f-a082-09a19c8c869c",
            "measure_version_modified" : "20170519T182315Z",
            "measure_xml_checksum" : "057E8D9D",
            "started_at" : "20170710T183223Z",
            "stderr" : "",
            "stdout" : "[OpenStudio.Measure] <0> OSArgumentVector is deprecated, use OpenStudio::Measure::OSArgumentVector instead.\n[openstudio.EpwFile] <0> Successive data points (1969-Jan-31 to 1965-Feb-01, ending on line 753) are greater than 1 day apart in EPW file '/usr/local/bundle/bundler/gems/openstudio-standards-f448df66933d/openstudio-standards/data/weather/CAN_ON_Toronto.716240_CWEC.epw'. Data will be treated as typical (TMY)\n[openstudio.setFileExtension] <0> Path p, '/usr/local/bundle/bundler/gems/openstudio-standards-f448df66933d/openstudio-standards/data/weather/CAN_ON_Toronto.716240_CWEC.ddy', has an unexpected file extension. Was expecting 'idf'.\n[openstudio.model.YearDescription] <1> 'UseWeatherFile' is not yet a supported option for YearDescription\n[openstudio.model.YearDescription] <1> 'UseWeatherFile' is not yet a supported option for YearDescription\n[openstudio.setFileExtension] <0> Path p, '/usr/local/bundle/bundler/gems/openstudio-standards-f448df66933d/openstudio-standards/data/weather/CAN_ON_Toronto.716240_CWEC.ddy', has an unexpected file extension. Was expecting 'idf'.\n[openstudio.model.YearDescription] <1> 'UseWeatherFile' is not yet a supported option for YearDescription\n[openstudio.model.YearDescription] <1> 'UseWeatherFile' is not yet a supported option for YearDescription\n[openstudio.EpwFile] <0> Successive data points (1969-Jan-31 to 1965-Feb-01, ending on line 753) are greater than 1 day apart in EPW file '/usr/local/bundle/bundler/gems/openstudio-standards-f448df66933d/openstudio-standards/data/weather/CAN_ON_Toronto.716240_CWEC.epw'. Data will be treated as typical (TMY)\n[openstudio.weather.Model] <0> Could not find ground temperatures; will use generic temperatures, which will skew results.\n[openstudio.setFileExtension] <0> Path p, '/usr/local/bundle/bundler/gems/openstudio-standards-f448df66933d/openstudio-standards/data/weather/CAN_ON_Toronto.716240_CWEC.ddy', has an unexpected file extension. Was expecting 'idf'.\n[openstudio.model.YearDescription] <1> 'UseWeatherFile' is not yet a supported option for YearDescription\n[openstudio.model.YearDescription] <1> 'UseWeatherFile' is not yet a supported option for YearDescription\n[openstudio.EpwFile] <0> Successive data points (1969-Jan-31 to 1965-Feb-01, ending on line 753) are greater than 1 day apart in EPW file '/usr/local/bundle/bundler/gems/openstudio-standards-f448df66933d/openstudio-standards/data/weather/CAN_ON_Toronto.716240_CWEC.epw'. Data will be treated as typical (TMY)\n[openstudio.setFileExtension] <0> Path p, '/usr/local/bundle/bundler/gems/openstudio-standards-f448df66933d/openstudio-standards/data/weather/CAN_ON_Toronto.716240_CWEC.ddy', has an unexpected file extension. Was expecting 'idf'.\n[openstudio.model.YearDescription] <1> 'UseWeatherFile' is not yet a supported option for YearDescription\n[openstudio.model.YearDescription] <1> 'UseWeatherFile' is not yet a supported option for YearDescription\n[openstudio.setFileExtension] <0> Path p, '/usr/local/bundle/bundler/gems/openstudio-standards-f448df66933d/openstudio-standards/data/weather/CAN_ON_Toronto.716240_CWEC.ddy', has an unexpected file extension. Was expecting 'idf'.\n[openstudio.model.YearDescription] <1> 'UseWeatherFile' is not yet a supported option for YearDescription\n[openstudio.model.YearDescription] <1> 'UseWeatherFile' is not yet a supported option for YearDescription\n[openstudio.EpwFile] <0> Successive data points (1969-Jan-31 to 1965-Feb-01, ending on line 753) are greater than 1 day apart in EPW file '/usr/local/bundle/bundler/gems/openstudio-standards-f448df66933d/openstudio-standards/data/weather/CAN_ON_Toronto.716240_CWEC.epw'. Data will be treated as typical (TMY)\n[openstudio.setFileExtension] <0> Path p, '/usr/local/bundle/bundler/gems/openstudio-standards-f448df66933d/openstudio-standards/data/weather/CAN_ON_Toronto.716240_CWEC.ddy', has an unexpected file extension. Was expecting 'idf'.\n[openstudio.model.YearDescription] <1> 'UseWeatherFile' is not yet a supported option for YearDescription\n[openstudio.model.YearDescription] <1> 'UseWeatherFile' is not yet a supported option for YearDescription\n[openstudio.setFileExtension] <0> Path p, '/usr/local/bundle/bundler/gems/openstudio-standards-f448df66933d/openstudio-standards/data/weather/CAN_ON_Toronto.716240_CWEC.ddy', has an unexpected file extension. Was expecting 'idf'.\n[openstudio.model.YearDescription] <1> 'UseWeatherFile' is not yet a supported option for YearDescription\n[openstudio.model.YearDescription] <1> 'UseWeatherFile' is not yet a supported option for YearDescription\n[utilities.idf.WorkspaceObject] <0> Object of type 'Schedule:Constant' and named 'Always Off Discrete', points to an object named OnOff 1 from field 1, but that object cannot be located.\n[utilities.idf.WorkspaceObject] <0> Object of type 'Schedule:Constant' and named 'Always On Continuous', points to an object named Fractional 1 from field 1, but that object cannot be located.\n[utilities.idf.WorkspaceObject] <0> Object of type 'Schedule:Constant' and named 'Always Off Discrete', points to an object named OnOff 1 from field 1, but that object cannot be located.\n[utilities.idf.WorkspaceObject] <0> Object of type 'Schedule:Constant' and named 'Always On Continuous', points to an object named Fractional 1 from field 1, but that object cannot be located.\n[openstudio.standards.Fan] <0> For Fan Constant Volume 1, there is no greater nominal HP.  Use the efficiency of the largest motor category.\n[openstudio.standards.Fan] <0> For Fan Constant Volume 10, there is no greater nominal HP.  Use the efficiency of the largest motor category.\n[openstudio.standards.Fan] <0> For Fan Constant Volume 2, there is no greater nominal HP.  Use the efficiency of the largest motor category.\n[openstudio.standards.Fan] <0> For Fan Constant Volume 3, there is no greater nominal HP.  Use the efficiency of the largest motor category.\n[openstudio.standards.Fan] <0> For Fan Constant Volume 4, there is no greater nominal HP.  Use the efficiency of the largest motor category.\n[openstudio.standards.Fan] <0> For Fan Constant Volume 5, there is no greater nominal HP.  Use the efficiency of the largest motor category.\n[openstudio.standards.Fan] <0> For Fan Constant Volume 6, there is no greater nominal HP.  Use the efficiency of the largest motor category.\n[openstudio.standards.Fan] <0> For Fan Constant Volume 7, there is no greater nominal HP.  Use the efficiency of the largest motor category.\n[openstudio.standards.Fan] <0> For Fan Constant Volume 8, there is no greater nominal HP.  Use the efficiency of the largest motor category.\n[openstudio.standards.Fan] <0> For Fan Constant Volume 9, there is no greater nominal HP.  Use the efficiency of the largest motor category.\n[openstudio.EpwFile] <0> Successive data points (1969-Jan-31 to 1965-Feb-01, ending on line 753) are greater than 1 day apart in EPW file '/usr/local/bundle/bundler/gems/openstudio-standards-f448df66933d/openstudio-standards/data/weather/CAN_ON_Toronto.716240_CWEC.epw'. Data will be treated as typical (TMY)\n[openstudio.setFileExtension] <0> Path p, '/usr/local/bundle/bundler/gems/openstudio-standards-f448df66933d/openstudio-standards/data/weather/CAN_ON_Toronto.716240_CWEC.ddy', has an unexpected file extension. Was expecting 'idf'.\n[openstudio.model.YearDescription] <1> 'UseWeatherFile' is not yet a supported option for YearDescription\n[openstudio.model.YearDescription] <1> 'UseWeatherFile' is not yet a supported option for YearDescription\n[openstudio.setFileExtension] <0> Path p, '/usr/local/bundle/bundler/gems/openstudio-standards-f448df66933d/openstudio-standards/data/weather/CAN_ON_Toronto.716240_CWEC.ddy', has an unexpected file extension. Was expecting 'idf'.\n[openstudio.model.YearDescription] <1> 'UseWeatherFile' is not yet a supported option for YearDescription\n[openstudio.model.YearDescription] <1> 'UseWeatherFile' is not yet a supported option for YearDescription\n[openstudio.EpwFile] <0> Successive data points (1969-Jan-31 to 1965-Feb-01, ending on line 753) are greater than 1 day apart in EPW file '/usr/local/bundle/bundler/gems/openstudio-standards-f448df66933d/openstudio-standards/data/weather/CAN_ON_Toronto.716240_CWEC.epw'. Data will be treated as typical (TMY)\n[openstudio.setFileExtension] <0> Path p, '/usr/local/bundle/bundler/gems/openstudio-standards-f448df66933d/openstudio-standards/data/weather/CAN_ON_Toronto.716240_CWEC.ddy', has an unexpected file extension. Was expecting 'idf'.\n[openstudio.model.YearDescription] <1> 'UseWeatherFile' is not yet a supported option for YearDescription\n[openstudio.model.YearDescription] <1> 'UseWeatherFile' is not yet a supported option for YearDescription\n[openstudio.setFileExtension] <0> Path p, '/usr/local/bundle/bundler/gems/openstudio-standards-f448df66933d/openstudio-standards/data/weather/CAN_ON_Toronto.716240_CWEC.ddy', has an unexpected file extension. Was expecting 'idf'.\n[openstudio.model.YearDescription] <1> 'UseWeatherFile' is not yet a supported option for YearDescription\n[openstudio.model.YearDescription] <1> 'UseWeatherFile' is not yet a supported option for YearDescription\n[openstudio.EpwFile] <0> Successive data points (1969-Jan-31 to 1965-Feb-01, ending on line 753) are greater than 1 day apart in EPW file '/usr/local/bundle/bundler/gems/openstudio-standards-f448df66933d/openstudio-standards/data/weather/CAN_ON_Toronto.716240_CWEC.epw'. Data will be treated as typical (TMY)\n[openstudio.setFileExtension] <0> Path p, '/usr/local/bundle/bundler/gems/openstudio-standards-f448df66933d/openstudio-standards/data/weather/CAN_ON_Toronto.716240_CWEC.ddy', has an unexpected file extension. Was expecting 'idf'.\n[openstudio.model.YearDescription] <1> 'UseWeatherFile' is not yet a supported option for YearDescription\n[openstudio.model.YearDescription] <1> 'UseWeatherFile' is not yet a supported option for YearDescription\n[openstudio.setFileExtension] <0> Path p, '/usr/local/bundle/bundler/gems/openstudio-standards-f448df66933d/openstudio-standards/data/weather/CAN_ON_Toronto.716240_CWEC.ddy', has an unexpected file extension. Was expecting 'idf'.\n[openstudio.model.YearDescription] <1> 'UseWeatherFile' is not yet a supported option for YearDescription\n[openstudio.model.YearDescription] <1> 'UseWeatherFile' is not yet a supported option for YearDescription\n[openstudio.EpwFile] <0> Successive data points (1969-Jan-31 to 1965-Feb-01, ending on line 753) are greater than 1 day apart in EPW file '/usr/local/bundle/bundler/gems/openstudio-standards-f448df66933d/openstudio-standards/data/weather/CAN_ON_Toronto.716240_CWEC.epw'. Data will be treated as typical (TMY)\n[openstudio.setFileExtension] <0> Path p, '/usr/local/bundle/bundler/gems/openstudio-standards-f448df66933d/openstudio-standards/data/weather/CAN_ON_Toronto.716240_CWEC.ddy', has an unexpected file extension. Was expecting 'idf'.\n[openstudio.model.YearDescription] <1> 'UseWeatherFile' is not yet a supported option for YearDescription\n[openstudio.model.YearDescription] <1> 'UseWeatherFile' is not yet a supported option for YearDescription\n[openstudio.setFileExtension] <0> Path p, '/usr/local/bundle/bundler/gems/openstudio-standards-f448df66933d/openstudio-standards/data/weather/CAN_ON_Toronto.716240_CWEC.ddy', has an unexpected file extension. Was expecting 'idf'.\n[openstudio.model.YearDescription] <1> 'UseWeatherFile' is not yet a supported option for YearDescription\n[openstudio.model.YearDescription] <1> 'UseWeatherFile' is not yet a supported option for YearDescription\n[openstudio.EpwFile] <0> Successive data points (1969-Jan-31 to 1965-Feb-01, ending on line 753) are greater than 1 day apart in EPW file '/usr/local/bundle/bundler/gems/openstudio-standards-f448df66933d/openstudio-standards/data/weather/CAN_ON_Toronto.716240_CWEC.epw'. Data will be treated as typical (TMY)\n[openstudio.setFileExtension] <0> Path p, '/usr/local/bundle/bundler/gems/openstudio-standards-f448df66933d/openstudio-standards/data/weather/CAN_ON_Toronto.716240_CWEC.ddy', has an unexpected file extension. Was expecting 'idf'.\n[openstudio.model.YearDescription] <1> 'UseWeatherFile' is not yet a supported option for YearDescription\n[openstudio.model.YearDescription] <1> 'UseWeatherFile' is not yet a supported option for YearDescription\n[openstudio.setFileExtension] <0> Path p, '/usr/local/bundle/bundler/gems/openstudio-standards-f448df66933d/openstudio-standards/data/weather/CAN_ON_Toronto.716240_CWEC.ddy', has an unexpected file extension. Was expecting 'idf'.\n[openstudio.model.YearDescription] <1> 'UseWeatherFile' is not yet a supported option for YearDescription\n[openstudio.model.YearDescription] <1> 'UseWeatherFile' is not yet a supported option for YearDescription\n[openstudio.EpwFile] <0> Successive data points (1969-Jan-31 to 1965-Feb-01, ending on line 753) are greater than 1 day apart in EPW file '/usr/local/bundle/bundler/gems/openstudio-standards-f448df66933d/openstudio-standards/data/weather/CAN_ON_Toronto.716240_CWEC.epw'. Data will be treated as typical (TMY)\n[openstudio.setFileExtension] <0> Path p, '/usr/local/bundle/bundler/gems/openstudio-standards-f448df66933d/openstudio-standards/data/weather/CAN_ON_Toronto.716240_CWEC.ddy', has an unexpected file extension. Was expecting 'idf'.\n[openstudio.model.YearDescription] <1> 'UseWeatherFile' is not yet a supported option for YearDescription\n[openstudio.model.YearDescription] <1> 'UseWeatherFile' is not yet a supported option for YearDescription\n[openstudio.setFileExtension] <0> Path p, '/usr/local/bundle/bundler/gems/openstudio-standards-f448df66933d/openstudio-standards/data/weather/CAN_ON_Toronto.716240_CWEC.ddy', has an unexpected file extension. Was expecting 'idf'.\n[openstudio.model.YearDescription] <1> 'UseWeatherFile' is not yet a supported option for YearDescription\n[openstudio.model.YearDescription] <1> 'UseWeatherFile' is not yet a supported option for YearDescription\n[openstudio.EpwFile] <0> Successive data points (1969-Jan-31 to 1965-Feb-01, ending on line 753) are greater than 1 day apart in EPW file '/usr/local/bundle/bundler/gems/openstudio-standards-f448df66933d/openstudio-standards/data/weather/CAN_ON_Toronto.716240_CWEC.epw'. Data will be treated as typical (TMY)\n[openstudio.setFileExtension] <0> Path p, '/usr/local/bundle/bundler/gems/openstudio-standards-f448df66933d/openstudio-standards/data/weather/CAN_ON_Toronto.716240_CWEC.ddy', has an unexpected file extension. Was expecting 'idf'.\n[openstudio.model.YearDescription] <1> 'UseWeatherFile' is not yet a supported option for YearDescription\n[openstudio.model.YearDescription] <1> 'UseWeatherFile' is not yet a supported option for YearDescription\n[openstudio.setFileExtension] <0> Path p, '/usr/local/bundle/bundler/gems/openstudio-standards-f448df66933d/openstudio-standards/data/weather/CAN_ON_Toronto.716240_CWEC.ddy', has an unexpected file extension. Was expecting 'idf'.\n[openstudio.model.YearDescription] <1> 'UseWeatherFile' is not yet a supported option for YearDescription\n[openstudio.model.YearDescription] <1> 'UseWeatherFile' is not yet a supported option for YearDescription\n[openstudio.EpwFile] <0> Successive data points (1969-Jan-31 to 1965-Feb-01, ending on line 753) are greater than 1 day apart in EPW file '/usr/local/bundle/bundler/gems/openstudio-standards-f448df66933d/openstudio-standards/data/weather/CAN_ON_Toronto.716240_CWEC.epw'. Data will be treated as typical (TMY)\n[openstudio.setFileExtension] <0> Path p, '/usr/local/bundle/bundler/gems/openstudio-standards-f448df66933d/openstudio-standards/data/weather/CAN_ON_Toronto.716240_CWEC.ddy', has an unexpected file extension. Was expecting 'idf'.\n[openstudio.model.YearDescription] <1> 'UseWeatherFile' is not yet a supported option for YearDescription\n[openstudio.model.YearDescription] <1> 'UseWeatherFile' is not yet a supported option for YearDescription\n[openstudio.setFileExtension] <0> Path p, '/usr/local/bundle/bundler/gems/openstudio-standards-f448df66933d/openstudio-standards/data/weather/CAN_ON_Toronto.716240_CWEC.ddy', has an unexpected file extension. Was expecting 'idf'.\n[openstudio.model.YearDescription] <1> 'UseWeatherFile' is not yet a supported option for YearDescription\n[openstudio.model.YearDescription] <1> 'UseWeatherFile' is not yet a supported option for YearDescription\n[openstudio.EpwFile] <0> Successive data points (1969-Jan-31 to 1965-Feb-01, ending on line 753) are greater than 1 day apart in EPW file '/usr/local/bundle/bundler/gems/openstudio-standards-f448df66933d/openstudio-standards/data/weather/CAN_ON_Toronto.716240_CWEC.epw'. Data will be treated as typical (TMY)\n[openstudio.setFileExtension] <0> Path p, '/usr/local/bundle/bundler/gems/openstudio-standards-f448df66933d/openstudio-standards/data/weather/CAN_ON_Toronto.716240_CWEC.ddy', has an unexpected file extension. Was expecting 'idf'.\n[openstudio.model.YearDescription] <1> 'UseWeatherFile' is not yet a supported option for YearDescription\n[openstudio.model.YearDescription] <1> 'UseWeatherFile' is not yet a supported option for YearDescription\n[openstudio.setFileExtension] <0> Path p, '/usr/local/bundle/bundler/gems/openstudio-standards-f448df66933d/openstudio-standards/data/weather/CAN_ON_Toronto.716240_CWEC.ddy', has an unexpected file extension. Was expecting 'idf'.\n[openstudio.model.YearDescription] <1> 'UseWeatherFile' is not yet a supported option for YearDescription\n[openstudio.model.YearDescription] <1> 'UseWeatherFile' is not yet a supported option for YearDescription\n[openstudio.EpwFile] <0> Successive data points (1969-Jan-31 to 1965-Feb-01, ending on line 753) are greater than 1 day apart in EPW file '/usr/local/bundle/bundler/gems/openstudio-standards-f448df66933d/openstudio-standards/data/weather/CAN_ON_Toronto.716240_CWEC.epw'. Data will be treated as typical (TMY)\n[openstudio.setFileExtension] <0> Path p, '/usr/local/bundle/bundler/gems/openstudio-standards-f448df66933d/openstudio-standards/data/weather/CAN_ON_Toronto.716240_CWEC.ddy', has an unexpected file extension. Was expecting 'idf'.\n[openstudio.model.YearDescription] <1> 'UseWeatherFile' is not yet a supported option for YearDescription\n[openstudio.model.YearDescription] <1> 'UseWeatherFile' is not yet a supported option for YearDescription\n[openstudio.setFileExtension] <0> Path p, '/usr/local/bundle/bundler/gems/openstudio-standards-f448df66933d/openstudio-standards/data/weather/CAN_ON_Toronto.716240_CWEC.ddy', has an unexpected file extension. Was expecting 'idf'.\n[openstudio.model.YearDescription] <1> 'UseWeatherFile' is not yet a supported option for YearDescription\n[openstudio.model.YearDescription] <1> 'UseWeatherFile' is not yet a supported option for YearDescription\n[openstudio.standards.Fan] <0> For Fan Constant Volume 1, there is no greater nominal HP.  Use the efficiency of the largest motor category.\n[openstudio.standards.Fan] <0> For Fan Constant Volume 10, there is no greater nominal HP.  Use the efficiency of the largest motor category.\n[openstudio.standards.Fan] <0> For Fan Constant Volume 2, there is no greater nominal HP.  Use the efficiency of the largest motor category.\n[openstudio.standards.Fan] <0> For Fan Constant Volume 3, there is no greater nominal HP.  Use the efficiency of the largest motor category.\n[openstudio.standards.Fan] <0> For Fan Constant Volume 4, there is no greater nominal HP.  Use the efficiency of the largest motor category.\n[openstudio.standards.Fan] <0> For Fan Constant Volume 5, there is no greater nominal HP.  Use the efficiency of the largest motor category.\n[openstudio.standards.Fan] <0> For Fan Constant Volume 6, there is no greater nominal HP.  Use the efficiency of the largest motor category.\n[openstudio.standards.Fan] <0> For Fan Constant Volume 7, there is no greater nominal HP.  Use the efficiency of the largest motor category.\n[openstudio.standards.Fan] <0> For Fan Constant Volume 8, there is no greater nominal HP.  Use the efficiency of the largest motor category.\n[openstudio.standards.Fan] <0> For Fan Constant Volume 9, there is no greater nominal HP.  Use the efficiency of the largest motor category.\n",
            "step_errors" : [],
            "step_files" : [],
            "step_info" : [
               "Started adding geometry",
               "Finished adding geometry",
               "Started adding weather file for climate zone: NECB HDD Method.",
               "Template =",
               "Setting LGstore1 to Space Function.Retail - sales",
               "Setting LGstore2 to Space Function.Retail - sales",
               "Setting SMstore1 to Space Function.Retail - sales",
               "Setting SMstore2 to Space Function.Retail - sales",
               "Setting SMstore3 to Space Function.Retail - sales",
               "Setting SMstore4 to Space Function.Retail - sales",
               "Setting SMstore5 to Space Function.Retail - sales",
               "Setting SMstore6 to Space Function.Retail - sales",
               "Setting SMstore7 to Space Function.Retail - sales",
               "Setting SMstore8 to Space Function.Retail - sales",
               "Started applying space types (loads)",
               "Space Function Retail - sales had no people, one has been created.",
               "Space Function Retail - sales set occupancy to 3.1 people/1000 ft^2.",
               "Space Function Retail - sales had no lights, one has been created.",
               "Space Function Retail - sales set LPD to 1.681531029 W/ft^2.",
               "Space Function Retail - sales had no electric equipment, one has been created.",
               "Space Function Retail - sales set electric EPD to 0.232255667 W/ft^2.",
               "Space Function Retail - sales had no ventilation specification, one has been created.",
               "Space Function Retail - sales set ventilation per area to 0.233 cfm/ft^2.",
               "Space Function Retail - sales had no infiltration objects, one has been created.",
               "Space Function Retail - sales set infiltration to 0.0 per ft^2 exterior surface area.",
               "Space Function Retail - sales set occupancy schedule to NECB-C-Occupancy.",
               "Space Function Retail - sales set occupant activity schedule to NECB-Activity.",
               "Space Function Retail - sales set lighting schedule to NECB-C-Lighting.",
               "Space Function Retail - sales set electric equipment schedule to NECB-C-Electric-Equipment.",
               "Space Function Retail - sales set infiltration schedule to Always On.",
               "Space Function Retail - sales set heating setpoint schedule to NECB-C-Thermostat Setpoint-Heating.",
               "Space Function Retail - sales set cooling setpoint schedule to NECB-C-Thermostat Setpoint-Cooling.",
               "Finished applying space types (loads)",
               "Started applying constructions",
               "Adding construction set: NECB 2011-NECB HDD Method-StripMall--is_residentialNo",
               "Adding construction Typical Insulated Exterior Mass Floor R-15.63.",
               "Adding construction Typical Insulated Exterior Mass Wall R-12.5.",
               "Adding construction Typical Insulated Metal Building Roof R-20.41.",
               "Adding construction Typical Interior Floor.",
               "Adding construction Typical Interior Wall.",
               "Adding construction Typical Interior Ceiling.",
               "Adding construction Typical Insulated Carpeted 6in Slab Floor.",
               "Adding construction U 0.55 SHGC 0.31 Dbl Ref-D Tint 6mm/6mm Air.",
               "Adding construction Typical Insulated Metal Door R-1.43.",
               "Adding construction U 0.35 SHGC 0.35 Dbl LoE (e2-.1) Tint 6mm/13mm Air.",
               "Adding construction Typical Overhead Door R-2.0.",
               "Adding construction U 0.48 SHGC 0.40 Dbl Ref-D Clr 6mm/13mm.",
               "Adding construction Typical Interior Window.",
               "Adding construction Typical Interior Door.",
               "Adding construction Typical Interior Partition.",
               "Finished applying constructions",
               "WWR NonRes = 0%; window = 0 ft2, wall = 0 ft2.",
               "WWR Res = 0%; window = 0 ft2, wall = 0 ft2.",
               "WWR Semiheated = 0%; window = 0 ft2, wall = 0 ft2.",
               "The skylight to roof ratios (SRRs) are: NonRes: 0%, Res: 0%.",
               "Started creating thermal zones",
               "Finished creating thermal zones",
               "Running simulation /mnt/openstudio/analysis_4fef0e0f-5396-4c55-a6e1-2cd6803db3ab/data_point_298aa990-8db2-4c5a-a56e-a7daf977b66d/run/000_create_prototype_building/output/RetailStripmall-NECB 2011-NECB HDD Method-CAN_ON_Toronto.716240_CWEC.epw/SR0.",
               "Finished run.",
               "Started Adding HVAC",
               "Finished adding HVAC",
               "Started Adding Service Water Heating",
               "Adding service water loop.",
               "Adding water heater.",
               "Template =",
               "Finished adding Service Water Heating",
               "Set sizing factors to 1.3 for heating and 1.3 for cooling.",
               "Running simulation /mnt/openstudio/analysis_4fef0e0f-5396-4c55-a6e1-2cd6803db3ab/data_point_298aa990-8db2-4c5a-a56e-a7daf977b66d/run/000_create_prototype_building/output/RetailStripmall-NECB 2011-NECB HDD Method-CAN_ON_Toronto.716240_CWEC.epw/SR1.",
               "Finished run.",
               "Started applying multizone vav OA sizing.",
               "Finished applying multizone vav OA sizing.",
               "Started applying prototype HVAC assumptions.",
               "For Fan Constant Volume 1: allowed_hp = 1.49HP; motor eff = 61.5%; total fan eff = 40% based on 2181 cfm.",
               "For Fan Constant Volume 10: allowed_hp = 1.54HP; motor eff = 61.5%; total fan eff = 40% based on 2247 cfm.",
               "For Fan Constant Volume 2: allowed_hp = 1.01HP; motor eff = 61.5%; total fan eff = 40% based on 1125 cfm.",
               "For Fan Constant Volume 3: allowed_hp = 1.01HP; motor eff = 61.5%; total fan eff = 40% based on 1147 cfm.",
               "For Fan Constant Volume 4: allowed_hp = 1.01HP; motor eff = 61.5%; total fan eff = 40% based on 1128 cfm.",
               "For Fan Constant Volume 5: allowed_hp = 1.01HP; motor eff = 61.5%; total fan eff = 40% based on 1125 cfm.",
               "For Fan Constant Volume 6: allowed_hp = 1.01HP; motor eff = 61.5%; total fan eff = 40% based on 1124 cfm.",
               "For Fan Constant Volume 7: allowed_hp = 1.01HP; motor eff = 61.5%; total fan eff = 40% based on 1143 cfm.",
               "For Fan Constant Volume 8: allowed_hp = 1.01HP; motor eff = 61.5%; total fan eff = 40% based on 1143 cfm.",
               "For Fan Constant Volume 9: allowed_hp = 1.01HP; motor eff = 61.5%; total fan eff = 40% based on 1191 cfm.",
               "Sp-SMstore3 Sys-3 Flr-1 Sch-C HPlcmt-north ZN NECB System 3 PSZ does not require an economizer because the total cooling capacity of 40227 Btu/hr is less than the minimum capacity of 68243 Btu/hr.",
               "Sp-LGstore1 Sys-3 Flr-1 Sch-C HPlcmt-west ZN NECB System 3 PSZ requires an economizer because the total cooling capacity of 80609 Btu/hr exceeds the minimum capacity of 68243 Btu/hr.",
               "Sp-SMstore6 Sys-3 Flr-1 Sch-C HPlcmt-north ZN NECB System 3 PSZ does not require an economizer because the total cooling capacity of 40235 Btu/hr is less than the minimum capacity of 68243 Btu/hr.",
               "Sp-SMstore7 Sys-3 Flr-1 Sch-C HPlcmt-north ZN NECB System 3 PSZ does not require an economizer because the total cooling capacity of 40306 Btu/hr is less than the minimum capacity of 68243 Btu/hr.",
               "Sp-SMstore5 Sys-3 Flr-1 Sch-C HPlcmt-north ZN NECB System 3 PSZ does not require an economizer because the total cooling capacity of 40700 Btu/hr is less than the minimum capacity of 68243 Btu/hr.",
               "Sp-LGstore2 Sys-3 Flr-1 Sch-C HPlcmt-north ZN NECB System 3 PSZ requires an economizer because the total cooling capacity of 78588 Btu/hr exceeds the minimum capacity of 68243 Btu/hr.",
               "Sp-SMstore1 Sys-3 Flr-1 Sch-C HPlcmt-north ZN NECB System 3 PSZ does not require an economizer because the total cooling capacity of 40792 Btu/hr is less than the minimum capacity of 68243 Btu/hr.",
               "Sp-SMstore8 Sys-3 Flr-1 Sch-C HPlcmt-east ZN NECB System 3 PSZ does not require an economizer because the total cooling capacity of 42297 Btu/hr is less than the minimum capacity of 68243 Btu/hr.",
               "Sp-SMstore2 Sys-3 Flr-1 Sch-C HPlcmt-north ZN NECB System 3 PSZ does not require an economizer because the total cooling capacity of 40236 Btu/hr is less than the minimum capacity of 68243 Btu/hr.",
               "Sp-SMstore4 Sys-3 Flr-1 Sch-C HPlcmt-north ZN NECB System 3 PSZ does not require an economizer because the total cooling capacity of 40699 Btu/hr is less than the minimum capacity of 68243 Btu/hr.",
               "Finished applying prototype HVAC assumptions.",
               "Started applying HVAC efficiency standards.",
               "For Sp-LGstore1 Sys-3 Flr-1 Sch-C HPlcmt-west ZN NECB System 3 PSZ, ERV not required based on 0% OA flow, design supply air flow of 2247cfm, and climate zone NECB HDD Method.",
               "For Sp-LGstore1 Sys-3 Flr-1 Sch-C HPlcmt-west ZN NECB System 3 PSZ, ERV not required based on exhaust heat content.",
               "For NECB 2011 NECB HDD Method:  Sp-LGstore1 Sys-3 Flr-1 Sch-C HPlcmt-west ZN NECB System 3 PSZ: DCV is not required for any system.",
               "For Sp-LGstore1 Sys-3 Flr-1 Sch-C HPlcmt-west ZN NECB System 3 PSZ: Annual occupied hours = 4168 hr/yr, assuming a 0.15 occupancy threshold.  This schedule will be used as the HVAC operation schedule.",
               "For Sp-LGstore1 Sys-3 Flr-1 Sch-C HPlcmt-west ZN NECB System 3 PSZ: Because the system has an economizer, it requires a motorized OA damper.",
               "For Sp-LGstore1 Sys-3 Flr-1 Sch-C HPlcmt-west ZN NECB System 3 PSZ: Setting motorized OA damper schedule to Sp-LGstore1 Sys-3 Flr-1 Sch-C HPlcmt-west ZN NECB System 3 PSZ Occ Sch.",
               "For Sp-LGstore2 Sys-3 Flr-1 Sch-C HPlcmt-north ZN NECB System 3 PSZ, ERV not required based on 0% OA flow, design supply air flow of 2181cfm, and climate zone NECB HDD Method.",
               "For Sp-LGstore2 Sys-3 Flr-1 Sch-C HPlcmt-north ZN NECB System 3 PSZ, ERV not required based on exhaust heat content.",
               "For NECB 2011 NECB HDD Method:  Sp-LGstore2 Sys-3 Flr-1 Sch-C HPlcmt-north ZN NECB System 3 PSZ: DCV is not required for any system.",
               "For Sp-LGstore2 Sys-3 Flr-1 Sch-C HPlcmt-north ZN NECB System 3 PSZ: Annual occupied hours = 4168 hr/yr, assuming a 0.15 occupancy threshold.  This schedule will be used as the HVAC operation schedule.",
               "For Sp-LGstore2 Sys-3 Flr-1 Sch-C HPlcmt-north ZN NECB System 3 PSZ: Because the system has an economizer, it requires a motorized OA damper.",
               "For Sp-LGstore2 Sys-3 Flr-1 Sch-C HPlcmt-north ZN NECB System 3 PSZ: Setting motorized OA damper schedule to Sp-LGstore2 Sys-3 Flr-1 Sch-C HPlcmt-north ZN NECB System 3 PSZ Occ Sch.",
               "For Sp-SMstore1 Sys-3 Flr-1 Sch-C HPlcmt-north ZN NECB System 3 PSZ, ERV not required based on 0% OA flow, design supply air flow of 1147cfm, and climate zone NECB HDD Method.",
               "For Sp-SMstore1 Sys-3 Flr-1 Sch-C HPlcmt-north ZN NECB System 3 PSZ, ERV not required based on exhaust heat content.",
               "For NECB 2011 NECB HDD Method:  Sp-SMstore1 Sys-3 Flr-1 Sch-C HPlcmt-north ZN NECB System 3 PSZ: DCV is not required for any system.",
               "For Sp-SMstore1 Sys-3 Flr-1 Sch-C HPlcmt-north ZN NECB System 3 PSZ: Annual occupied hours = 4168 hr/yr, assuming a 0.15 occupancy threshold.  This schedule will be used as the HVAC operation schedule.",
               "For Sp-SMstore1 Sys-3 Flr-1 Sch-C HPlcmt-north ZN NECB System 3 PSZ: Setting motorized OA damper schedule to Sp-SMstore1 Sys-3 Flr-1 Sch-C HPlcmt-north ZN NECB System 3 PSZ Occ Sch.",
               "For Sp-SMstore2 Sys-3 Flr-1 Sch-C HPlcmt-north ZN NECB System 3 PSZ, ERV not required based on 0% OA flow, design supply air flow of 1125cfm, and climate zone NECB HDD Method.",
               "For Sp-SMstore2 Sys-3 Flr-1 Sch-C HPlcmt-north ZN NECB System 3 PSZ, ERV not required based on exhaust heat content.",
               "For NECB 2011 NECB HDD Method:  Sp-SMstore2 Sys-3 Flr-1 Sch-C HPlcmt-north ZN NECB System 3 PSZ: DCV is not required for any system.",
               "For Sp-SMstore2 Sys-3 Flr-1 Sch-C HPlcmt-north ZN NECB System 3 PSZ: Annual occupied hours = 4168 hr/yr, assuming a 0.15 occupancy threshold.  This schedule will be used as the HVAC operation schedule.",
               "For Sp-SMstore2 Sys-3 Flr-1 Sch-C HPlcmt-north ZN NECB System 3 PSZ: Setting motorized OA damper schedule to Sp-SMstore2 Sys-3 Flr-1 Sch-C HPlcmt-north ZN NECB System 3 PSZ Occ Sch.",
               "For Sp-SMstore3 Sys-3 Flr-1 Sch-C HPlcmt-north ZN NECB System 3 PSZ, ERV not required based on 0% OA flow, design supply air flow of 1124cfm, and climate zone NECB HDD Method.",
               "For Sp-SMstore3 Sys-3 Flr-1 Sch-C HPlcmt-north ZN NECB System 3 PSZ, ERV not required based on exhaust heat content.",
               "For NECB 2011 NECB HDD Method:  Sp-SMstore3 Sys-3 Flr-1 Sch-C HPlcmt-north ZN NECB System 3 PSZ: DCV is not required for any system.",
               "For Sp-SMstore3 Sys-3 Flr-1 Sch-C HPlcmt-north ZN NECB System 3 PSZ: Annual occupied hours = 4168 hr/yr, assuming a 0.15 occupancy threshold.  This schedule will be used as the HVAC operation schedule.",
               "For Sp-SMstore3 Sys-3 Flr-1 Sch-C HPlcmt-north ZN NECB System 3 PSZ: Setting motorized OA damper schedule to Sp-SMstore3 Sys-3 Flr-1 Sch-C HPlcmt-north ZN NECB System 3 PSZ Occ Sch.",
               "For Sp-SMstore4 Sys-3 Flr-1 Sch-C HPlcmt-north ZN NECB System 3 PSZ, ERV not required based on 0% OA flow, design supply air flow of 1143cfm, and climate zone NECB HDD Method.",
               "For Sp-SMstore4 Sys-3 Flr-1 Sch-C HPlcmt-north ZN NECB System 3 PSZ, ERV not required based on exhaust heat content.",
               "For NECB 2011 NECB HDD Method:  Sp-SMstore4 Sys-3 Flr-1 Sch-C HPlcmt-north ZN NECB System 3 PSZ: DCV is not required for any system.",
[...]
VzkMeq3D9bwv7vGCswnlsoZEXjFU4j3qtfO1XkZQbq+bfVQKwkK8GzEK+GDAL+VrALOSxCmYhj1UwC3msglnIYxXMQh6rYBYFYxXOQ77d4jzksQrnIY9VOA95rMJ5yGMVzkMeq3Ae8liF85DHKpyHPFbh+t8W9nnBWIXz2EIjLxircB71WvnaxPdyY9U8Eh5gIV8NmIV8MWAW8rWAWchjFcxCHqtgFvJYBbOQxyqYhTxWwSwKxiqch3y7xXnIYxXOQx6rcB7yWIXzkMcqnIc8VuE85LEK5yGPVTgPeazC9b8t7POCsQrnsYVGXjBW4TzqtfK1wbrlxqp58i7AQr4aMAv5YsAs5GsBs5DHKpiFPFbBLOSxCmYhj1UwC3msglkUjFU4D/l2i/OQxyqchzxW4TzksQrnIY9VOA95rMJ5yGMVzkMeq3Ae8liF639b2OcFYxXOYwuNvGCswnnUa+Vr8wvLjVXzgEOAhXw1YBbyxYBZyNcCZiGPVTALeayCWchjFcxCHqtgFvJYBbMoDFtDeci3W5xHUZAVyqMo4wrlURR/hfIoynxDeRTFwaE8ipLiUB5FIXIoj6J8OVT/28I+L0ylQ3lsoZEXjFU4j/Wt/H2ZhNdFdLM6VWN9uwyQzXNjm8nNqJUnwK6Nil3mPyc6fRpNx37S7HVaynF6LdU1f3N75eJm7zKM+1hr3x94qR5F8ezJXZDM85PvX3+JkOlM4FXs6/jN1MQZl36i4ZitcrzUXjKN9RzDJDIvzvuGA765zGUuc5nLXOYyl7nMZS5zmctc5jKXucxlLnOZy1zmMpe5zGUuc5nLXOYyl7nMZS5zmctc5jKXucxlLnOZy1zmMpe5zGUuc5nLXOYyl7n8l1qetaMbHceBr1965oO1Trtj+XlV89HYZPWjsec6DnSy+Hhto7X8APEkjNJ2GIz12o/IJl/7nO76T9Ym7fyr5ydR6KVBNM6gGkmqJ/sX+jKKdaPcJ59/0SM99ldf0PxnzX6npbrmk8sd80Fm80cj1JepAVsjvZRtfxjp9GycmvOTWVxOx8OctLmn/lgjsSTU989+t/az3OYILlUzvQqSdpJflXJG5njwpHZ2/s684VXzf8BV1Zb45qPjGftC98MkSgIj+Cz7cZlXszyMzFeo4ui2GtISKxj72uyHfadV8dnL42PdJ14GOjT11lyc0/k+GcXRdKJ99f336h+Ln9+1P1x5yeLz72aD7T1cnX11NTshbW80em482qEej9Ir9aNy1b9V40kYNtTj1UckYTDUzX1n713n/d7a/fbFK4li1fyYvZTOD+pjZrMo1YWv+dk/sztO9QtkDlPGC713H9+3P+mZOj09nZ+8eoq56uKyf6z6UpfHRay9T3We/Lnic6o+3pyvxas7NWVtimFRKXmQQ/uDlyTBaKz9gYmISN7lZ/J9vVO5vNCTaXLVrHstskv6eH496++kMHxc5lW2zSPruiRpHH3S5Xzmj63rFE28YZDOylktHlz7VeUWS6u6Kssbyeptpc72qHzzMcdyO6/eeNS+cqqqVdlu5Vk/t/KuWurxn9fNFOY4OFCvf3ur/vvqtzfq/NWbtz//+pP65dVPPw/Ui7M3Z+UEnmd3bX3nmRFNpZFKojhV4+l1VgdDlUeaJMpLhtnwEoxHJRSX597oPOjMXktdlL+5xDqdxmM18eJEPw8jL2165pa/l13KBz+7yH9W6mSuH9Ee2C5ewjrhz5tNermfP/Ptnm/25iNfX3rTMFWTOMruYfpRSz367vh4MDg7e7Th4BniEIc4xCEOcYhDHOIQhzjE+WviqGR6nf0TWPna/FD53swQxdonDWlIQxrSkIY0pCENaUhDGtIU09zm/zXrTzQX4VQThzjEIQ5xiEMc4hCHOMQhDnHq4Nx/b6BjvjfwfCp9b2DXyX/D9uTJ4eHJCUlJSlKSkpSkJCUpSUlKUpKSlKQk3Q1SNyf1Uom0k5N2u6573CcpSUlKUpKSlKQkJSlJSUpSkpKUpLtB2jWkz+NAIHVPclLHOTrqdklKUpKSlKQkJSlJSUpSkpKUpCQl6W6QHhrSt1dTifQ4Jz3Jjt5TkpKUpCQlKUlJSlKSkpSkJCUpSUm6G6Q9Q/of7UukRznps2eDwdERSUlKUpKSlKQkJSlJSUpSkpKUpCTdDdJ+/s7EVEuk/Zx0MOj3SUpSkpKUpCQlKUlJSlKSkpSkJCXprpAeGdKXkZQs6PZy0uNj1+31SEpSkpKUpCQlKUlJSlKSkpSkJCXp1kiXKH7s3TbXit210yAN9fmVN9HtVN+lzUcvommcrMeYffnMZ8G1HidBNA51kiuskTg4UE98X3kqV1K3QXqlkuhaK7+75pnJzajtTSZ67Dcbxruxt+YJy6PtpWncbNw1WqrfqfikWfYkt/yTknQW6jnevjceXkVx9vxGqC8r0C40LqNxun+rg9FVajQuotAvrzG/NueT/fOXSRrF+lCdz5L9rnoexvuOOh9e7Q/Ui9fh8DrdH0dxdgl+/1X9ejZ4ah6W6mvVVa/Pf1evhkPz2Ed7RRf1x4NkGAeT9F/iY3488IObry+Lz5HFMi0V+KeNoan4QXaSvGCs4w+944bKz9xpww+SSejNHgfjMFvavwij4acfGjJfJjp/CSqdTbLnm5N38NG78eY/LXymOW682BSnOlV+cD0JdXusb89vRs3Gd18yttRhp5P/sXazGVnfS71M990fjdC70GHjccPXl940TNUkji6DUDda85UPd43HTrvTatx44VQv/j4096TsOdltZjA4O2t8bpXScUE6XZDOIUinB9Lpg3SOQDrHIJ0TkI7TQQmhKtpBlbSDqmkHVdQOqqodVFk7qLp2UIXtoCrbRVW2C7tXoyrbRVW2W6myVTK9vl75kupSHS3WfgUZ8RxVkxHPUDUZ8fxUkxH3fTUZcddXkxH3fDUZccdXkxH3ezUZuZFV1AHVsdzGKuqAKlluYhV1QLUst7CKOqBqlhtYRR1QPcvtq6IO6r4Mqme5d1XUKV/Pt8E4rd62LsyPyuuIp6eijnh6KuqIp6eijrjdK+qI272ijrjdK+qI272ijrjdK+rI/auqEKqi5Q5WVQhV03IPqyqEqmq5i1UVQtW13MeqCqEqW+5kVYVg92pUZcvNrKpQ+cq+/63F2m8VltpcZ+UfevOvHQZYuJu36G7e4nDzFr3NW/Q3b3G0eYvjzVucbN5ipbNvymML+7vgjVmch/zOFs5DftML5yG/04vzkN8ExnnI7w/jPOS3jnEe8rvKuP63hX3ubqOPb6GRu1vo5G69Vr72yxvLjVXzb3cEWMhXA2YhXwyYhXwtYBbyWAWzkMcqmIU8VsEs5LEKZiGPVTCLgt9c4zzkX/3hPOSxCuchj1U4D3mswnnIYxXOQx6rcB7yWIXzkMcqnIc8VuH63xb2ecGv+HEeW2jkBWMVzqNeK1/7HVnlxqr5l2gBLOSrAbOQLwbMQr4WMAt5rIJZyGMVzEIeq2AW8lgFs5DHKphFwViF85BvtzgPeazCechjFc5DHqtwHvJYhfOQxyqchzxW4TzksQrnIY9VuP63hX1eMFbhPLbQyAvGKpxHvVa+9qtIyo1V8+8qAVjIVwNmIV8MmIV8LWAW8lgFs5DHKpiFPFbBLOSxCmYhj1Uwi4KxCuch325xHvJYhfOQxyqchzxW4TzksQrnIY9VOA95rMJ5yGMVzkMeq3D9bwv7vGCswnlsoZEXjFU4j3qtfG3ie7mxah4JD7CQrwbMQr4YMAv5WsAs5LEKZiGPVTALeayCWchjFcxCHqtgFgVjFc5Dvt3iPOSxCuchj1U4D3mswnnIYxXOQx6rcB7yWIXzkMcqnIc8VuH63xb2ecFYhfPYQiMvGKtwHvVa+dpg3XJj1Tx5F2AhXw2YhXwxYBbytYBZyGMVzEIeq2AW8lgFs5DHKpiFPFbBLArGKpyHfLvFechjFc5DHqtwHvJYhfOQxyqchzxW4TzksQrnIY9VOA95rML1vy3s84KxCuexhUZeMFbhPOq18rX5heXGqnnAIcBCvhowC/liwCzkawGzkMcqmIU8VsEs5LEKZiGPVTALeayCWRSGraE85NstzqMoyArlUZRxhfIoir9CeRRlvqE8iuLgUB5FSXEoj6IQOZRHUb4cqv9tYZ8XptKhPLbQyAvGKpzH+lb+vkzC6yK6WZ2qsb5dBsjmubHN5GbUyhNg10bFLvOfE50+jaZjP2n2Oi3lOL2W6pq/ub1ycbN3GcZ9rLXvD7xUj6J49uQuSOb5yfevv0TIdCbwKvZ1/GZq4oxLP9FwzFY5XmovmcZ6jmESmRfnfcMB31zmMpe5zGUuc5nLXOYyl7nMZS5zmctc5jKXucxlLnOZy1zmMpe5zGUuc5nLXOYyl7nMZS5zmctc5jKXucxlLnOZy1zmMpe5zGUuc5nLXP5LLc/a0Y2O48DXLz3zwVqn3bH8vKr5aGyy+tHYcx0HOll8vLbRWn6AeBJGaTsMxnrtR2STr31Od/0na5N2/tXzkyj00iAaZ1CNJNWT/Qt9GcW6Ue6Tz7/okR77qy9o/rNmv9NSXfPJ5Y75ILP5oxHqy9SArZFeyrY/jHR6Nk7N+cksLqfjYU7a3FN/rJFYEur7Z79b+1lucwSXqpleBUk7ya9KOSNzPHhSOzt/Z97wqvk/4KpqS3zz0fGMfaH7YRIlgRF8lv24zKtZHkbmK1RxdFsNaYkVjH1t9sO+06r47OXxse4TLwMdmnprLs7pfJ+M4mg60b76/nv1j8XP79ofrrxk8fl3s8H2Hq7OvrqanZC2Nxo9Nx7tUI9H6ZX6Ubnq36rxJAwb6vHqI5IwGOrmvrP3rvN+b+1+++KVRLFqfsxeSucH9TGzWZTqwtf87J/ZHaf6BTKHKeOF3ruP79uf9Eydnp7OT149xVx1cdk/Vn2py+Mi1t6nOk/+XPE5VR9vztfi1Z2asjbFsKiUPMih/cFLkmA01v7AREQk7/Iz+b7eqVxe6Mk0uWrWvRbZJX08v571d1IYPi7zKtvmkXVdkjSOPulyPvPH1nWKJt4wSGflrBYPrv2qcoulVV2V5Y1k9bZSZ3tUvvmYY7mdV288al85VdWqbLfyrJ9beVct9fjP62YKcxwcqNe/vVX/ffXbG3X+6s3bn3/9Sf3y6qefB+rF2ZuzcgLPs7u2vvPMiKbSSCVRnKrx9Dqrg6HKI00S5SXDbHgJxqMSistzb3QedGavpS7K31xinU7jsZp4caKfh5GXNj1zy9/LLuWDn13kPyt1MtePaA9sFy9hnfDnzSa93M+f+XbPN3vzka8vvWmYqkkcZfcw/ailHn13fDwYnJ092nDwDHGIQxziEIc4xCEOcYhDHOL8NXFUMr3O/gmsfG1+qHxvZohi7ZOGNKQhDWlIQxrSkIY0pCENaYppbvP/mvUnmotwqolDHOIQhzjEIQ5xiEMc4hCHOHVw7r830DHfG3g+lb43sOvkv2F78uTw8OSEpCQlKUlJSlKSkpSkJCUpSUlKUpLuBqmbk3qpRNrJSbtd1z3uk5SkJCUpSUlKUpKSlKQkJSlJSUrS3SDtGtLncSCQuic5qeMcHXW7JCUpSUlKUpKSlKQkJSlJSUpSkpJ0N0gPDenbq6lEepyTnmRH7ylJSUpSkpKUpCQlKUlJSlKSkpSkJN0N0p4h/Y/2JdKjnPTZs8Hg6IikJCUpSUlKUpKSlKQkJSlJSUpSku4GaT9/Z2KqJdJ+TjoY9PskJSlJSUpSkpKUpCQlKUlJSlKSknRXSI8M6ctIShZ0eznp8bHr9nokJSlJSUpSkpKUpCQlKUlJSlKSknRrpEsUP/Zum2vF7tppkIb6/Mqb6Haq79LmoxfRNE7WY8y+fOaz4FqPkyAahzrJFdZIHByoJ76vPJUrqdsgvVJJdK2V313zzORm1PYmEz32mw3j3dhb84Tl0fbSNG427hot1e9UfNIse5Jb/klJOgv1HG/fGw+vojh7fiPUlxVoFxqX0Tjdv9XB6Co1GhdR6JfXmF+b88n++cskjWLdU+ezZL+rnofxvqPOh1f7A/XidTi8TvfHUZxdgt9/Vb+eDZ6ah6X6WnXV6/Pf1avh0Dz20V7RRf3xIBnGwST9l/iYHw/84Obry+JzZLFMSwX+aWNoKn6QnSQvGOv4Q++kofIzd9rwg2QSerPHwTjMlvYvwmj46YeGzJeJzl+CSmeT7Pnm5B189G68+U8Ln2mOGy82xalOlR9cT0LdHuvb85tRs/Hdl4wtddjp5H+s3WxG1vdSL9N990cj9C502Hjc8PWlNw1TNYmjyyDUjdZ85cNd47HT7rQaN1441Yu/D809KXtOdpsZDM7OGp9bpXRckE4XpHMI0umBdPognSOQzjFI5wSk43RQQqiKdlAl7aBq2kEVtYOqagdV1g6qrh1UYTuoynZRle3C7tWoynZRle1WqmyVTK+vV76kulRHi7VfQUY8R9VkxDNUTUY8P9VkxH1fTUbc9dVkxD1fTUbc8dVkxP1eTUZuZBV1QHUst7GKOqBKlptYRR1QLcstrKIOqJrlBlZRB1TPcvuqqIO6L4PqWe5dFXXK1/NtME6rt60L86PyOuLpqagjnp6KOuLpqagjbveKOuJ2r6gjbveKOuJ2r6gjbveKOnL/qiqEqmi5g1UVQtW03MOqCqGqWu5iVYVQdS33sapCqMqWO1lVIdi9GlXZcjOrKlS+su9/a7H2W4WlNtdZ+Yfe/GuHARbu5i26m7c43LxFb/MW/c1bHG3e4njzFiebt1jp7Jvy2ML+LnhjFuchv7OF85Df9MJ5yO/04jzkN4FxHvL7wzgP+a1jnIf8rjKu/21hn7vb6ONbaOTuFjq5W6+Vr/3yxnJj1fzbHQEW8tWAWcgXA2YhXwuYhTxWwSzksQpmIY9VMAt5rIJZyGMVzKLgN9c4D/lXfzgPeazCechjFc5DHqtwHvJYhfOQxyqchzxW4TzksQrnIY9VuP63hX1e8Ct+nMcWGnnBWIXzqNfK135HVrmxav4lWgAL+WrALOSLAbOQrwXMQh6rYBbyWAWzkMcqmIU8VsEs5LEKZlEwVuE85NstzkMeq3Ae8liF85DHKpyHPFbhPOSxCuchj1U4D3mswnnIYxWu/21hnxeMVTiPLTTygrEK51Gvla/9KpJyY9X8u0oAFvLVgFnIFwNmIV8LmIU8VsEs5LEKZiGPVTALeayCWchjFcyiYKzCeci3W5yHPFbhPOSxCuchj1U4D3mswnnIYxXOQx6rcB7yWIXzkMcqXP/bwj4vGKtwHlto5AVjFc6jXitfm/hebqyaR8IDLOSrAbOQLwbMQr4WMAt5rIJZyGMVzEIeq2AW8lgFs5DHKphFwViF85BvtzgPeazCechjFc5DHqtwHvJYhfOQxyqchzxW4TzksQrnIY9VuP63hX1eMFbhPLbQyAvGKpxHvVa+Nli33Fg1T94FWMhXA2YhXwyYhXwtYBbyWAWzkMcqmIU8VsEs5LEKZiGPVTCLgrEK5yHfbnEe8liF85DHKpyHPFbhPOSxCuchj1U4D3mswnnIYxXOQx6rcP1vC/u8YKzCeWyhkReMVTiPeq18bX5hubFqHnAIsJCvBsxCvhgwC/lawCzksQpmIY9VMAt5rIJZyGMVzEIeq2AWhWFrKA/5dovzKAqyQnkUZVyhPIrir1AeRZlvKI+iODiUR1FSHMqjKEQO5VGUL4fqf1vY54WpdCiPLTTygrEK57G+lb8vk/C6iG5Wp2qsb5cBsnlubDO5GbXyBNi1UbHL/OdEp0+j6dhPmr1OSzlOr6W65m9ur1zc7F2GcR9r7fsDL9WjKJ49uQuSeX7y/esvETKdCbyKfR2/mZo449JPNByzVY6X2kumsZ5jmETmxXnfcMA3l7nMZS5zmctc5jKXucxlLnOZy1zmMpe5zGUuc5nLXOYyl7nMZS5zmctc5jKXucxlLv+/9s7/N23r+/+/f/6KO09aiAYOhoR8WbMppaSt1DZVaTVtURUZfAEnxka2SYKm/O9vX2OysPZgX3Ngr+zz9A9ZxrGfz4fv11OIDwgjjDDCCCOMMMIII4wwwggjjDDCCCOMMMII/6fCMzO4lWHoOvK9rR6stcz6ms+rqkdjo+VHY7sydGWUPV5rVBcPEE+8IDY915e5j8hG33tON//J2shMv3p+Enh27AZ+AmVEsZzUenIQhNIo9uTzOzmUvrN8Q/PXKq16VTTVk8t19SCz+mF4chArsBzphax5NZRxx49V+yQWg6nfT0kru+KvHIkFoXy8+jL3WW51uANRiUduZEZprxQzUseTi8yk/Tp2f1T5G1hXbYGvHh1P2DPdq0kQuUrwVfJykbtZHErmO1RhcKeHtMByfUeq+VCzqppXL47rshcOXOmp8VbJ2nQ+T4ZhMJ1IR/z0k/ghe/3evBrZUfb8u5pgu0+js+9GkwYx7eHwXHmYnvSH8Ui8EA3xmzDOPM8QJ8tnRJ7bl5WatXtZ/7qbO9++uZMgFJXr5Fbqv4jrxCYbqpmveu3nZMXR7yB1qGGc6V1efzVv5Eycnp7OG6+cYqqadfu17q0ujl4o7ZsyFz9oXqN7vmqv7O5O1bBWgyEbKWkhB/PKjiJ36EunrUpERJdpS34t15SLjp5Mo1GlbF8kXXoy78/yM8nzTorcpanOLOsSxWFwI4v5zM8t6xRM7L4bz4pZZSeXvqvUYmFVVmWxkCwvK2Wmh/bio47FdF5eeERNWLpqOtOtOOtDNd1VC53/kJdTqGNvT3z88ln8cfHlk+hefPr89sNr8e7i9du2eNP51CkmcJ6s2vLeVimaiAMRBWEs/Ok4GQd9kZY0iYQd9ZPkxfWHBRQXba90nuzMdlX0ii8uoYynoS8mdhjJcy+w44qtlvzdpCufvNZLXyvUmPkp2hPb7BbyhB82W+nlMf9Mp3s62Ss7jhzYUy8WkzBI1jC5UxU7Px4dtdudzs6GC88ABzjAAQ5wgAMc4AAHOMABzn8TR0TTcfJPYOFI9aJw7JkiCqUDGtCABjSgAQ1oQAMa0IAGNKBZTXOX/mnWP2h63lQCBzjAAQ5wgAMc4AAHOMABDnDK4Dx+b6ClvjewO6W+N7BppZ+wnZ3t7x8fgxSkIAUpSEEKUpCCFKQgBSlIQQrS50HaSEntmCKtp6TNZqNx1AIpSEEKUpCCFKQgBSlIQQpSkIIUpM+DtKlIz0OXIG0cp6SWdXjYbIIUpCAFKUhBClKQghSkIAUpSEEK0udBuq9IP4+mFOlRSnqcHAcvQQpSkIIUpCAFKUhBClKQghSkIAXp8yA9UKS/S4ciPUxJX71qtw8PQQpSkIIUpCAFKUhBClKQghSkIAXp8yBtpe9MTCVF2kpJ2+1WC6QgBSlIQQpSkIIUpCAFKUhBClKQPhfSQ0X6PqAqCzYOUtKjo0bj4ACkIAUpSEEKUpCCFKQgBSlIQQpSkG6NdIHihPZdJVfs3ozd2JPdkT2RZizv48rOm2AaRvkYs2+vfOWOpR+5ge/JKFXIkdjbE2eOI2yRKok7Nx6JKBhL4TRzroxuh6Y9mUjfqRjK29jNuWBxmHYchxXj3qiKVl3zollyUaP4RVE88+Qcr2b7/VEQJtcbnhxo0GYag8CPa3fSHY5ipdELPKe4xrxvupNa930UB6Fsie4sqjXFuRfWLNHtj2pt8eaj1x/HNT8Iky7484P40Gm/VKfFciya4mP3T3HR76tzd3ZXdeqLvagfupP4V/KcF3uOe/v9MHkNLZZoCdc5NfpqxLeTRrJdX4ZXrboh0pY7NRw3mnj27MT1vSRU63lB/+YXg+ZLROe3IOLZJLleNd7etX1rz19deaU6bu1QDU5xKhx3PPGk6cu77u2wYvz4LWNV7Nfr6Y/cyaZkHTu2E93LvwzP7knPODEcObCnXiwmYTBwPWlU55Gre+PEMutV49b2pjL7va/WpOSaZJlptzsd46FaSKfBpNNk0tln0jlg0mkx6Rwy6Rwx6Rwz6Vh1LiGuEW1xDWmLa0xbXIPa4hrVFtewtrjGtcU1sC2ukd3gGtkNtrWaa2Q3uEZ2Q2tki2g6Hi99SXWhHS2UjoYM2UZ6MmQL6cmQ7aMnQ857PRly1uvJkHNeT4ac8Xoy5HzXk6E3Mk0dpnFMb2OaOkwjmd7ENHWYxjK9hWnqMI1megPT1GEaz/T2panDtS4zjWd679LUKT6e71w/1t+2euql4jpk82jqkM2jqUM2j6YOOd01dcjprqlDTndNHXK6a+qQ011Th96/dIW4RjS9g+kKcY1peg/TFeIa1fQupivENa7pfUxXiGtk0zuZrhDbWs01sunNTFeo+Mh+/NQi91uFqW2uvvQPvfnXDjNYNDZv0dy8xf7mLQ42b9HavMXh5i2ONm9xvHmLpZ19Ux5bmN8r3pjl86Df2eLzoN/04vOg3+nl86DfBObzoN8f5vOg3zrm86DfVebb/7Ywzxvb2Me3sJE3trCTN8pt5blf3lgsrZp/uyODBd0bbBZ0Z7BZ0H3BZkGnVWwWdFrFZkGnVWwWdFrFZkGnVWwWKz655vOgP/rj86DTKj4POq3i86DTKj4POq3i86DTKj4POq3i86DTKj4POq3i2/+2MM9XfMTP57GFjXxFWsXnUW4rz/2OrGJp1fxLtBgs6N5gs6A7g82C7gs2CzqtYrOg0yo2CzqtYrOg0yo2CzqtYrNYkVbxedDLLZ8HnVbxedBpFZ8HnVbxedBpFZ8HnVbxedBpFZ8HnVbxedBpFd/+t4V5viKt4vPYwka+Iq3i8yi3led+FUmxtGr+XSUMFnRvsFnQncFmQfcFmwWdVrFZ0GkVmwWdVrFZ0GkVmwWdVrFZrEir+Dzo5ZbPg06r+DzotIrPg06r+DzotIrPg06r+DzotIrPg06r+DzotIpv/9vCPF+RVvF5bGEjX5FW8XmU28pzK74XS6vmJeEZLOjeYLOgO4PNgu4LNgs6rWKzoNMqNgs6rWKzoNMqNgs6rWKzWJFW8XnQyy2fB51W8XnQaRWfB51W8XnQaRWfB51W8XnQaRWfB51W8XnQaRXf/reFeb4ireLz2MJGviKt4vMot5XnFtYtllbNK+8yWNC9wWZBdwabBd0XbBZ0WsVmQadVbBZ0WsVmQadVbBZ0WsVmsSKt4vOgl1s+Dzqt4vOg0yo+Dzqt4vOg0yo+Dzqt4vOg0yo+Dzqt4vOg0yq+/W8L83xFWsXnsYWNfEVaxedRbivPrV9YLK2aFzhksKB7g82C7gw2C7ov2CzotIrNgk6r2CzotIrNgk6r2CzotIrNYmWxNS4Pernl81hVyIrLY1WNKy6PVeWvuDxW1Xzj8lhVDo7LY1WlOC6PVUXkuDxW1Zfj2v+2MM9XVqXj8tjCRr4ireLzyN/Kvxap8JqVbhanwpd3iwKyad3YSnQ7rKYVYHNLxS7qP0cyfhlMfSeqHNSrwrIOqqKpfmscFCs3e59gPJa1dpy2HcthEM7O7t1oXj/58f4LFJlOBC5CR4afpqqcceELFcdsmeO9tKNpKOcYqiJz1u4bLvCNMMIII4wwwggjjDDCCCOMMMIII4wwwggjjDDCCCOMMMIII4wwwggjjDDCCCOMMMIII4wwwggjjDDCCCOMMMIII4wwwggjjPB/Kjwzg1sZhq4j39vqwVrLrK/5vKp6NDZafjS2K0NXRtnjtUZ18QDxxAti03N9mfuIbPS953Tzn6yNzPSr5yeBZ8du4CdQRhTLSa0nB0EojWJPPr+TQ+k7yzc0f63SqldFUz25XFcPMqsfhicHsQLLkV7ImldDGXf8WLVPYjGY+v2UtLIr/sqRWBDKx6svc5/lVoc7EJV45EZmlPZKMSN1PLnITNqvY/dHlb+BddUW+OrR8YQ9072aBJGrBF8lLxe5m8WhZL5DFQZ3ekgLLNd3pJoPNauqefXiuC574cCVnhpvlaxN5/NkGAbTiXTETz+JH7LX782rkR1lz7+rCbb7NDr7bjRpENMeDs+Vh+lJfxiPxAvREL8J48zzDHGyfEbkuX1ZqVm7l/Wvu7nz7Zs7CUJRuU5upf6LuE5ssqGa+arXfk5WHP0OUocaxpne5fVX80bOxOnp6bzxyimmqlm3X+ve6uLohdK+KXPxg+Y1uuer9sru7lQNazUYspGSFnIwr+wocoe+dNqqRER0mbbk13JNuejoyTQaVcr2RdKlJ/P+LD+TPO+kyF2a6syyLlEcBjeymM/83LJOwcTuu/GsmFV2cum7Si0WVmVVFgvJ8rJSZnpoLz7qWEzn5YVH1ISlq6Yz3YqzPlTTXbXQ+Q95OYU69vbExy+fxR8XXz6J7sWnz28/vBbvLl6/bYs3nU+dYgLnyaot722Vook4EFEQxsKfjpNx0BdpSZNI2FE/SV5cf1hAcdH2SufJzmxXRa/44hLKeBr6YmKHkTz3Ajuu2GrJ30268slrvfS1Qo2Zn6I9sc1uIU/4YbOVXh7zz3S6p5O9suPIgT31YjEJg2QNkztVsfPj0VG73ensbLjwDHCAAxzgAAc4wAEOcIADHOD8N3FENB0n/wQWjlQvCseeKaJQOqABDWhAAxrQgAY0oAENaEADmtU0d+mfZv2DpudNJXCAAxzgAAc4wAEOcIADHOAApwzO4/cGWup7A7tT6nsDm1b6CdvZ2f7+8TFIQQpSkIIUpCAFKUhBClKQghSkIH0epI2U1I4p0npK2mw2GkctkIIUpCAFKUhBClKQghSkIAUpSEH6PEibivQ8dAnSxnFKalmHh80mSEEKUpCCFKQgBSlIQQpSkIIUpCB9HqT7ivTzaEqRHqWkx8lx8BKkIAUpSEEKUpCCFKQgBSlIQQpSkD4P0gNF+rt0KNLDlPTVq3b78BCkIAUpSEEKUpCCFKQgBSlIQQpSkD4P0lb6zsRUUqStlLTdbrVAClKQghSkIAUpSEEKUpCCFKQgBelzIT1UpO8DqrJg4yAlPTpqNA4OQApSkIIUpCAFKUhBClKQghSkIAXp1kgXKE5o31Vyxe7N2I092R3ZE2nG8j6u7LwJpmGUjzH79spX7lj6kRv4noxShRyJvT1x5jjCFqmSuHPjkYiCsRROM+fK6HZo2pOJ9J2KobyN3ZwLFodpx3FYMe6NqmjVNS+aJRc1il8UxTNPzvFqtt8fBWFyveHJgQZtpjEI/Lh2J93hKFYavcBzimvM+6Y7qXXfR3EQykPRnUW1pjj3wpoluv1RrS3efPT647jmB2HSBX9+EB867ZfqtFiORVN87P4pLvp9de7O7qpOfbEX9UN3Ev9KnvNiz3Fvvx8mr6HFEi3hOqdGX434dtJItuvL8KplGSJtuVPDcaOJZ89OXN9LQrWeF/RvfjFovkR0fgsink2S61Xj7V3bt/b81ZVXquPWDtXgFKfCcccTT5q+vOveDivGj98yVsV+vZ7+yJ1sStaxYzvRvfzL8Oye9IwTw5EDe+rFYhIGA9eTRnUeubo3TiyzXjVubW8qs9/7ak1KrkmWmXa70zEeqoV0Gkw6TSadfSadAyadFpPOIZPOEZPOMZOOVecS4hrRFteQtrjGtMU1qC2uUW1xDWuLa1xbXAPb4hrZDa6R3WBbq7lGdoNrZDe0RraIpuPx0pdUF9rRQuloyJBtpCdDtpCeDNk+ejLkvNeTIWe9ngw55/VkyBmvJ0POdz0ZeiPT1GEax/Q2pqnDNJLpTUxTh2ks01uYpg7TaKY3ME0dpvFMb1+aOlzrMtN4pvcuTZ3i4/nO9WP9baunXiquQzaPpg7ZPJo6ZPNo6pDTXVOHnO6aOuR019Qhp7umDjndNXXo/UtXiGtE0zuYrhDXmKb3MF0hrlFN72K6Qlzjmt7HdIW4Rja9k+kKsa3VXCOb3sx0hYqP7MdPLXK/VZja5upL/9Cbf+0wg0Vj8xbNzVvsb97iYPMWrc1bHG7e4mjzFsebt1ja2TflsYX5veKNWT4P+p0tPg/6TS8+D/qdXj4P+k1gPg/6/WE+D/qtYz4P+l1lvv1vC/O8sY19fAsbeWMLO3mj3Fae++WNxdKq+bc7MljQvcFmQXcGmwXdF2wWdFrFZkGnVWwWdFrFZkGnVWwWdFrFZrHik2s+D/qjPz4POq3i86DTKj4POq3i86DTKj4POq3i86DTKj4POq3i86DTKr79bwvzfMVH/HweW9jIV6RVfB7ltvLc78gqllbNv0SLwYLuDTYLujPYLOi+YLOg0yo2CzqtYrOg0yo2CzqtYrOg0yo2ixVpFZ8HvdzyedBpFZ8HnVbxedBpFZ8HnVbxedBpFZ8HnVbxedBpFZ8HnVbx7X9bmOcr0io+jy1s5CvSKj6Pclt57leRFEur5t9VwmBB9wabBd0ZbBZ0X7BZ0GkVmwWdVrFZ0GkVmwWdVrFZ0GkVm8WKtIrPg15u+TzotIrPg06r+DzotIrPg06r+DzotIrPg06r+DzotIrPg06r+Pa/LczzFWkVn8cWNvIVaRWfR7mtPLfie7G0al4SnsGC7g02C7oz2CzovmCzoNMqNgs6rWKzoNMqNgs6rWKzoNMqNosVaRWfB73c8nnQaRWfB51W8XnQaRWfB51W8XnQaRWfB51W8XnQaRWfB51W8e1/W5jnK9IqPo8tbOQr0io+j3JbeW5h3WJp1bzyLoMF3RtsFnRnsFnQfcFmQadVbBZ0WsVmQadVbBZ0WsVmQadVbBYr0io+D3q55fOg0yo+Dzqt4vOg0yo+Dzqt4vOg0yo+Dzqt4vOg0yo+Dzqt4tv/tjDPV6RVfB5b2MhXpFV8HuW28tz6hcXSqnmBQwYLujfYLOjOYLOg+4LNgk6r2CzotIrNgk6r2CzotIrNgk6r2CxWFlvj8qCXWz6PVYWsuDxW1bji8lhV/orLY1XNNy6PVeXguDxWVYrj8lhVRI7LY1V9Oa79bwvzfGVVOi6PLWzkK9IqPo/8rfxrkQqvWelmcSp8ebcoIJvWja1Et8NqWgE2t1Tsov5zJOOXwdR3ospBvSos66Aqmuq3xkGxcrP3CcZjWWvHaduxHAbh7Ozejeb1kx/vv0CR6UTgInRk+GmqyhkXvlBxzJY53ks7moZyjqEqMmftvuEC3wgjjDDCCCOMMMIII4wwwggjjDDCCCOMMMIII4wwwggjjDDCCCOMMMIII4wwwggjjDDCCCOMMMIII4wwwggjjDDCCCOMMMII/6fCMzO4lWHoOvK9rR6stcz6ms+rqkdjo+VHY7sydGWUPV5rVBcPEE+8IDY915e5j8hG33tON//J2shMv3p+Enh27AZ+AmVEsZzUenIQhNIo9uTzOzmUvrN8Q/PXKq16VTTVk8t19SCz+mF4chArsBzphax5NZRxx49V+yQWg6nfT0kru+KvHIkFoXy8+jL3WW51uANRiUduZEZprxQzUseTi8yk/Tp2f1T5G1hXbYGvHh1P2DPdq0kQuUrwVfJykbtZHErmO1RhcKeHtMByfUeq+VCzqppXL47rshcOXOmp8VbJ2nQ+T4ZhMJ1IR/z0k/ghe/3evBrZUfb8u5pgu0+js+9GkwYx7eHwXHmYnvSH8Ui8EA3xmzDOPM8QJ8tnRJ7bl5WatXtZ/7qbO9++uZMgFJXr5Fbqv4jrxCYbqpmveu3nZMXR7yB1qGGc6V1efzVv5Eycnp7OG6+cYqqadfu17q0ujl4o7ZsyFz9oXqN7vmqv7O5O1bBWgyEbKWkhB/PKjiJ36EunrUpERJdpS34t15SLjp5Mo1GlbF8kXXoy78/yM8nzTorcpanOLOsSxWFwI4v5zM8t6xRM7L4bz4pZZSeXvqvUYmFVVmWxkCwvK2Wmh/bio47FdF5eeERNWLpqOtOtOOtDNd1VC53/kJdTqGNvT3z88ln8cfHlk+hefPr89sNr8e7i9du2eNP51CkmcJ6s2vLeVimaiAMRBWEs/Ok4GQd9kZY0iYQd9ZPkxfWHBRQXba90nuzMdlX0ii8uoYynoS8mdhjJcy+w44qtlvzdpCufvNZLXyvUmPkp2hPb7BbyhB82W+nlMf9Mp3s62Ss7jhzYUy8WkzBI1jC5UxU7Px4dtdudzs6GC88ABzjAAQ5wgAMc4AAHOMABzn8TR0TTcfJPYOFI9aJw7JkiCqUDGtCABjSgAQ1oQAMa0IAGNKBZTXOX/mnWP2h63lQCBzjAAQ5wgAMc4AAHOMABDnDK4Dx+b6ClvjewO6W+N7BppZ+wnZ3t7x8fgxSkIAUpSEEKUpCCFKQgBSlIQQrS50HaSEntmCKtp6TNZqNx1AIpSEEKUpCCFKQgBSlIQQpSkIIUpM+DtKlIz0OXIG0cp6SWdXjYbIIUpCAFKUhBClKQghSkIAUpSEEK0udBuq9IP4+mFOlRSnqcHAcvQQpSkIIUpCAFKUhBClKQghSkIAXp8yA9UKS/S4ciPUxJX71qtw8PQQpSkIIUpCAFKUhBClKQghSkIAXp8yBtpe9MTCVF2kpJ2+1WC6QgBSlIQQpSkIIUpCAFKUhBClKQPhfSQ0X6PqAqCzYOUtKjo0bj4ACkIAUpSEEKUpCCFKQgBSlIQQpSkG6NdIHihPZdJVfs3ozd2JPdkT2RZizv48rOm2AaRvkYs2+vfOWOpR+5ge/JKFXIkdjbE2eOI2yRKok7Nx6JKBhL4TRzroxuh6Y9mUjfqRjK29jNuWBxmHYchxXj3qiKVl3zollyUaP4RVE88+Qcr2b7/VEQJtcbnhxo0GYag8CPa3fSHY5ipdELPKe4xrxvupNa930UB6E8Et1ZVGuKcy+sWaLbH9Xa4s1Hrz+Oa9KOYvHnB/Gh036pzorlWDTFx+6f4qLfV6fu7K7q0xd7UT90J/Gv5Dkv9hz39vth8hpaLNESrnNq9NWAbydtZLu+DK9aDUOkDXdqOG408ezZiet7SajW84L+zS8GzZeIzm9BxLNJcr1qu71r+9aev7rySnXc2qEam+JUOO544knTl3fd22HF+PFbxqrYr9fTH7lzTck6dmwnupd/GZ7dk55xYjhyYE+9WEzCYOB60qjOI1f3xoll1qvGre1NpXHSOjaPnxxHx1WjrxaoRCFZc9rtTsd4qBZSbWxEtbkR1f2NqB5sRLW1EdXDjagebUT1eCOqVn0zspuZXdZmppe1mfllbWaCWZuZYdZmppi1mTlmbWaSWZuZZY3NzLLGhvawzcyyxmZmWWONWSai6Xi89J3fJTKEUDoaogXbVk+0YMvqiRZsVz3RgmuXnmjBlUtPtOC6pSdacNXSEy24ZumJFk0MNFU3MqeKpgWaqhuZVUWTAk3VjcyroimBpupGZlbRhEBTdSNzq2g6oKm6mf1qI3OraC6gqVp2bt25frxuGtBTJxRXLdismqoFm1VTtWCzaqoWXLI0VQsuWZqqBZcsTdWCS5amasElS1O1aD6gK7uZ2VU0I9CV3cz8KpoT6MpuZoYVzQp0ZTczx4rmBbqym5llRTMDXdkN7WGbmWVFkwNdWa1Z9rXIBw7ZB4niVPjybvF5RvoxRiW6HVbTDyRyP7lYfBoZyfhlMPWdqHJQrwrLOqiKpvqtcVDs04/7BOPxQ1bHaduxHAbh7Ozejeaf5j02RYGPPBOBi9CR4aep+nCt8IWKY7bM8V7a0TSUcwz1+WDWBet+iJt+jrRs1ZWhK6MMN3HKOmTiBbGpPtzKtYy+d9/5pJGZjrtJ4NmxG/gJlBHFclLryUEQSqPYSHonh9J3lm9o/lqllYyCphoJ6sMwS/3IPiPN/fh4IWteDWXc8WPVPonFYOr3U9LKrvirwIekilA+Xn2ZOzfU4Q5EJR65UTKu1XXFjNTx5CIzab+O3R9V/gbWVVvgZ58NZrpXkyByleCr5OUid7M4lMx3qMLgTg9pgeX6jlQTt2ZVNa9eHNdlLxy40lPjrZK16XyeDMNgOpGO+Okn8UP2+r15NbKjbD1RE2z3aXT23WjSIKY9HJ4rD9OT/jAeiReiIX4TxpnnGeJk+YzIc/uyUrN2L+tfd3Pn2zd3EoSicp3cSv0XcZ3YZEM181Wv/XwqLP0OUocaxpne5fVX80Ymy9vp6bzxyimmqlm3X+ve6uLohdK+KXPxg+Y1uuer9sru7lQNazUYspGSbozm1fwPgKST/glQdJm25NdyTbno6Mk0GlXK9kXSpSfz/iw/kzzvpMhdmurMsi5RHAY3spjP/NyyTsHE7rvxrJhVdnLpu0otFlZlVRYLyfKyUmZ6aC8+6lhM5+WFR9SEpaumM92Ksz5U01210PkPeTmFOvb2xMcvn8UfF18+ie7Fp89vP7wW7y5ev22LN51PnWIC58mqLe9tlaKJOBBRkCTS/nScjIO+SFPESNhRP0leXH9YQHHR9krnyc5sV0Wv+OISynga+mJih5E89wI7rthqyd9NuvLJa730tUKNmZ+iPbHNbiFP+OFf+EPNf3wAm/01pvpA9V/5u1HgAAc4wAEOcIADHOAABzjAefY43/6BiyIKpQMa0IAGNKABDWhAAxrQgAY0oFlN882fBCoa9Sd+wAEOcIADHOAABzjAAQ5wgAOcf7E84mc5nsjQjqehFJXzXRRI/J8qkPi7rUbcG5n+52zcc6UfC9Vlqu6hdKZJ+9fEYf38eZRAbD6DEojNrZVATB88LVuCiUmnyaSzz6RzwKTTYtI5ZNI5YtI5ZtJZqi2wlhDXiLa4hrTFNaYtrkFtcY1qi2tYW1zj2uIa2BbXyG5wjewG21rNNbIbXCO7oTWyi5fsW5IqX6RvDRmyhcoX4ltDhpz35YvtrSFDzvnyBfXWkCHn+xpF89bRYRrH9Da2Rim8dXSYhjK9h61R4G4dHabRTG9ga5StW2cdZBrP9O61RjG6dXSYxjO9dZUvMbcks0ZRuXV0yOZZo3DcOjrkdF+jONw6OuR0X6MA3Do65HRfp8jbWkJcI5rewdYp3baWENegpjexdQqyrSXENa7pfWydMmtrrYxcI5veytYpnraWENfIpnczlER7FiXREEYYYYQRRhhhhBFGGGGEEUYYYYQR/l8Kz8zgVoah68j3tnqjyjLrKIn/5E5QEv/xQEl8rQMl8VESX+NASfx/HiiJ/88DJfE1D5TER0n87x4oiQ8c4AAHOMABDnCAAxzgAAc4wHkOBSVBAxrQgAY0oAENaEADGtCA5vnQ/H9TyBI4wAEOcIADHOAABzjAAQ5wyvv9CyXxX7lj6Udu4HsyilAQ/3+rIH4Q3ojOYOD2Xen3Z49l8LdbAD87+x+Rp/+/+H3+30f17JfH//QCZ6b+O4rH3q//7/8AO4cFeQ=="
               },
               {
                  "name" : "annual_peak_electric_demand",
                  "units" : "kW",
                  "value" : 89.624499999999998
               },
               {
                  "name" : "first_year_capital_cost",
                  "units" : "$",
                  "value" : 0
               },
               {
                  "name" : "annual_utility_cost",
                  "units" : "$",
                  "value" : 0
               },
               {
                  "name" : "total_lifecycle_cost",
                  "units" : "$",
                  "value" : 0
               }
            ],
            "step_warnings" : []
         }
      }
   ],
   "updated_at" : "20170710T183521Z",
   "weather_file" : "USA_CO_Denver.Intl.AP.725650_TMY3.epw"
}
