{
   "completed_at" : "20170710T191800Z",
   "completed_status" : "Success",
   "created_at" : "2017-07-10 19:15:06 +0000",
   "current_step" : 5,
   "description" : "",
   "eplusout_err" : "Program Version,EnergyPlus, Version 8.7.0-78a111df4a, YMD=2017.07.10 19:16,IDD_Version 8.7.0\n   ************* IDF Context for following error/warning message:\n   ************* Note -- lines truncated at 300 characters, if necessary...\n   *************      5 Building,\n   ************* indicated Name=NECB 2011-RetailStripmall-NECB HDD Method-CAN_MB_The.Pas.718670_CWEC.epw created: 2017-07-10 19:15:12 +0000\n   ************* Only last 1 lines before error line shown.....\n   *************      6   NECB 2011-RetailStripmall-NECB HDD Method-CAN_MB_The.Pas.718670_CWEC.epw created: 2017-07-10 19:15:12 +0000, !- Name\n   ** Warning ** IP: IDF line~6 Alpha Argument length exceeds maximum, will be truncated=  NECB 2011-RetailStripmall-NECB HDD Method-CAN_MB_The.Pas.718670_CWEC.epw created: 2017-07-10 19:15:12 +000\n   **   ~~~   ** Will be processed as Alpha=NECB 2011-RETAILSTRIPMALL-NECB HDD METHOD-CAN_MB_THE.PAS.718670_CWEC.EPW CREATED: 2017-07-10 19:15:12 +0000\n   ************* Beginning Zone Sizing Calculations\n   ** Warning ** ProcessScheduleInput: Schedule:Day:Interval=\"ECONOMIZER MAX OA FRACTION 100 PCT DEFAULT\", Blank Schedule Type Limits Name input -- will not be validated.\n   ** Warning ** ProcessScheduleInput: Schedule:Day:Interval=\"SCHEDULE DAY 1\", Blank Schedule Type Limits Name input -- will not be validated.\n   ** Warning ** ProcessScheduleInput: Schedule:Day:Interval=\"SCHEDULE DAY 10\", Blank Schedule Type Limits Name input -- will not be validated.\n   ** Warning ** ProcessScheduleInput: Schedule:Day:Interval=\"SCHEDULE DAY 11\", Blank Schedule Type Limits Name input -- will not be validated.\n   ** Warning ** ProcessScheduleInput: Schedule:Day:Interval=\"SCHEDULE DAY 12\", Blank Schedule Type Limits Name input -- will not be validated.\n   ** Warning ** ProcessScheduleInput: Schedule:Day:Interval=\"SCHEDULE DAY 13\", Blank Schedule Type Limits Name input -- will not be validated.\n   ** Warning ** ProcessScheduleInput: Schedule:Day:Interval=\"SCHEDULE DAY 14\", Blank Schedule Type Limits Name input -- will not be validated.\n   ** Warning ** ProcessScheduleInput: Schedule:Day:Interval=\"SCHEDULE DAY 15\", Blank Schedule Type Limits Name input -- will not be validated.\n   ** Warning ** ProcessScheduleInput: Schedule:Day:Interval=\"SCHEDULE DAY 16\", Blank Schedule Type Limits Name input -- will not be validated.\n   ** Warning ** ProcessScheduleInput: Schedule:Day:Interval=\"SCHEDULE DAY 17\", Blank Schedule Type Limits Name input -- will not be validated.\n   ** Warning ** ProcessScheduleInput: Schedule:Day:Interval=\"SCHEDULE DAY 18\", Blank Schedule Type Limits Name input -- will not be validated.\n   ** Warning ** ProcessScheduleInput: Schedule:Day:Interval=\"SCHEDULE DAY 19\", Blank Schedule Type Limits Name input -- will not be validated.\n   ** Warning ** ProcessScheduleInput: Schedule:Day:Interval=\"SCHEDULE DAY 2\", Blank Schedule Type Limits Name input -- will not be validated.\n   ** Warning ** ProcessScheduleInput: Schedule:Day:Interval=\"SCHEDULE DAY 20\", Blank Schedule Type Limits Name input -- will not be validated.\n   ** Warning ** ProcessScheduleInput: Schedule:Day:Interval=\"SCHEDULE DAY 21\", Blank Schedule Type Limits Name input -- will not be validated.\n   ** Warning ** ProcessScheduleInput: Schedule:Day:Interval=\"SCHEDULE DAY 22\", Blank Schedule Type Limits Name input -- will not be validated.\n   ** Warning ** ProcessScheduleInput: Schedule:Day:Interval=\"SCHEDULE DAY 23\", Blank Schedule Type Limits Name input -- will not be validated.\n   ** Warning ** ProcessScheduleInput: Schedule:Day:Interval=\"SCHEDULE DAY 24\", Blank Schedule Type Limits Name input -- will not be validated.\n   ** Warning ** ProcessScheduleInput: Schedule:Day:Interval=\"SCHEDULE DAY 25\", Blank Schedule Type Limits Name input -- will not be validated.\n   ** Warning ** ProcessScheduleInput: Schedule:Day:Interval=\"SCHEDULE DAY 26\", Blank Schedule Type Limits Name input -- will not be validated.\n   ** Warning ** ProcessScheduleInput: Schedule:Day:Interval=\"SCHEDULE DAY 27\", Blank Schedule Type Limits Name input -- will not be validated.\n   ** Warning ** ProcessScheduleInput: Schedule:Day:Interval=\"SCHEDULE DAY 28\", Blank Schedule Type Limits Name input -- will not be validated.\n   ** Warning ** ProcessScheduleInput: Schedule:Day:Interval=\"SCHEDULE DAY 29\", Blank Schedule Type Limits Name input -- will not be validated.\n   ** Warning ** ProcessScheduleInput: Schedule:Day:Interval=\"SCHEDULE DAY 30\", Blank Schedule Type Limits Name input -- will not be validated.\n   ** Warning ** ProcessScheduleInput: Schedule:Day:Interval=\"SCHEDULE DAY 31\", Blank Schedule Type Limits Name input -- will not be validated.\n   ** Warning ** ProcessScheduleInput: Schedule:Day:Interval=\"SCHEDULE DAY 32\", Blank Schedule Type Limits Name input -- will not be validated.\n   ** Warning ** ProcessScheduleInput: Schedule:Day:Interval=\"SCHEDULE DAY 33\", Blank Schedule Type Limits Name input -- will not be validated.\n   ** Warning ** ProcessScheduleInput: Schedule:Day:Interval=\"SCHEDULE DAY 34\", Blank Schedule Type Limits Name input -- will not be validated.\n   ** Warning ** ProcessScheduleInput: Schedule:Day:Interval=\"SCHEDULE DAY 35\", Blank Schedule Type Limits Name input -- will not be validated.\n   ** Warning ** ProcessScheduleInput: Schedule:Day:Interval=\"SCHEDULE DAY 36\", Blank Schedule Type Limits Name input -- will not be validated.\n   ** Warning ** ProcessScheduleInput: Schedule:Day:Interval=\"SCHEDULE DAY 37\", Blank Schedule Type Limits Name input -- will not be validated.\n   ** Warning ** ProcessScheduleInput: Schedule:Day:Interval=\"SCHEDULE DAY 38\", Blank Schedule Type Limits Name input -- will not be validated.\n   ** Warning ** ProcessScheduleInput: Schedule:Day:Interval=\"SCHEDULE DAY 39\", Blank Schedule Type Limits Name input -- will not be validated.\n   ** Warning ** ProcessScheduleInput: Schedule:Day:Interval=\"SCHEDULE DAY 40\", Blank Schedule Type Limits Name input -- will not be validated.\n   ** Warning ** ProcessScheduleInput: Schedule:Day:Interval=\"SCHEDULE DAY 41\", Blank Schedule Type Limits Name input -- will not be validated.\n   ** Warning ** ProcessScheduleInput: Schedule:Day:Interval=\"SCHEDULE DAY 42\", Blank Schedule Type Limits Name input -- will not be validated.\n   ** Warning ** ProcessScheduleInput: Schedule:Day:Interval=\"SCHEDULE DAY 43\", Blank Schedule Type Limits Name input -- will not be validated.\n   ** Warning ** ProcessScheduleInput: Schedule:Day:Interval=\"SCHEDULE DAY 44\", Blank Schedule Type Limits Name input -- will not be validated.\n   ** Warning ** ProcessScheduleInput: Schedule:Day:Interval=\"SCHEDULE DAY 45\", Blank Schedule Type Limits Name input -- will not be validated.\n   ** Warning ** ProcessScheduleInput: Schedule:Day:Interval=\"SCHEDULE DAY 46\", Blank Schedule Type Limits Name input -- will not be validated.\n   ** Warning ** ProcessScheduleInput: Schedule:Day:Interval=\"SCHEDULE DAY 47\", Blank Schedule Type Limits Name input -- will not be validated.\n   ** Warning ** ProcessScheduleInput: Schedule:Day:Interval=\"SCHEDULE DAY 48\", Blank Schedule Type Limits Name input -- will not be validated.\n   ** Warning ** ProcessScheduleInput: Schedule:Day:Interval=\"SCHEDULE DAY 49\", Blank Schedule Type Limits Name input -- will not be validated.\n   ** Warning ** ProcessScheduleInput: Schedule:Day:Interval=\"SCHEDULE DAY 5\", Blank Schedule Type Limits Name input -- will not be validated.\n   ** Warning ** ProcessScheduleInput: Schedule:Day:Interval=\"SCHEDULE DAY 50\", Blank Schedule Type Limits Name input -- will not be validated.\n   ** Warning ** ProcessScheduleInput: Schedule:Day:Interval=\"SCHEDULE DAY 51\", Blank Schedule Type Limits Name input -- will not be validated.\n   ** Warning ** ProcessScheduleInput: Schedule:Day:Interval=\"SCHEDULE DAY 52\", Blank Schedule Type Limits Name input -- will not be validated.\n   ** Warning ** ProcessScheduleInput: Schedule:Day:Interval=\"SCHEDULE DAY 53\", Blank Schedule Type Limits Name input -- will not be validated.\n   ** Warning ** ProcessScheduleInput: Schedule:Day:Interval=\"SCHEDULE DAY 54\", Blank Schedule Type Limits Name input -- will not be validated.\n   ** Warning ** ProcessScheduleInput: Schedule:Day:Interval=\"SCHEDULE DAY 6\", Blank Schedule Type Limits Name input -- will not be validated.\n   ** Warning ** ProcessScheduleInput: Schedule:Day:Interval=\"SCHEDULE DAY 7\", Blank Schedule Type Limits Name input -- will not be validated.\n   ** Warning ** ProcessScheduleInput: Schedule:Day:Interval=\"SCHEDULE DAY 8\", Blank Schedule Type Limits Name input -- will not be validated.\n   ** Warning ** ProcessScheduleInput: Schedule:Day:Interval=\"SCHEDULE DAY 9\", Blank Schedule Type Limits Name input -- will not be validated.\n   ** Warning ** ProcessScheduleInput: Schedule:Year=\"ECONOMIZER MAX OA FRACTION 100 PCT\", Blank Schedule Type Limits Name input -- will not be validated.\n   ** Warning ** ProcessScheduleInput: Schedule:Year=\"SCHEDULE RULESET 10\", Blank Schedule Type Limits Name input -- will not be validated.\n   ** Warning ** ProcessScheduleInput: Schedule:Year=\"SCHEDULE RULESET 11\", Blank Schedule Type Limits Name input -- will not be validated.\n   ** Warning ** ProcessScheduleInput: Schedule:Year=\"SCHEDULE RULESET 12\", Blank Schedule Type Limits Name input -- will not be validated.\n   ** Warning ** ProcessScheduleInput: Schedule:Year=\"SCHEDULE RULESET 13\", Blank Schedule Type Limits Name input -- will not be validated.\n   ** Warning ** ProcessScheduleInput: Schedule:Year=\"SCHEDULE RULESET 14\", Blank Schedule Type Limits Name input -- will not be validated.\n   ** Warning ** ProcessScheduleInput: Schedule:Year=\"SCHEDULE RULESET 15\", Blank Schedule Type Limits Name input -- will not be validated.\n   ** Warning ** ProcessScheduleInput: Schedule:Year=\"SCHEDULE RULESET 16\", Blank Schedule Type Limits Name input -- will not be validated.\n   ** Warning ** ProcessScheduleInput: Schedule:Year=\"SCHEDULE RULESET 17\", Blank Schedule Type Limits Name input -- will not be validated.\n   ** Warning ** ProcessScheduleInput: Schedule:Year=\"SCHEDULE RULESET 18\", Blank Schedule Type Limits Name input -- will not be validated.\n   ** Warning ** ProcessScheduleInput: Schedule:Year=\"SCHEDULE RULESET 19\", Blank Schedule Type Limits Name input -- will not be validated.\n   ** Warning ** ProcessScheduleInput: Schedule:Year=\"SCHEDULE RULESET 20\", Blank Schedule Type Limits Name input -- will not be validated.\n   ** Warning ** ProcessScheduleInput: Schedule:Year=\"SCHEDULE RULESET 21\", Blank Schedule Type Limits Name input -- will not be validated.\n   ** Warning ** ProcessScheduleInput: Schedule:Year=\"SCHEDULE RULESET 22\", Blank Schedule Type Limits Name input -- will not be validated.\n   ** Warning ** ProcessScheduleInput: Schedule:Year=\"SCHEDULE RULESET 23\", Blank Schedule Type Limits Name input -- will not be validated.\n   ** Warning ** ProcessScheduleInput: Schedule:Year=\"SCHEDULE RULESET 24\", Blank Schedule Type Limits Name input -- will not be validated.\n   ** Warning ** ProcessScheduleInput: Schedule:Year=\"SCHEDULE RULESET 25\", Blank Schedule Type Limits Name input -- will not be validated.\n   ** Warning ** ProcessScheduleInput: Schedule:Year=\"SCHEDULE RULESET 26\", Blank Schedule Type Limits Name input -- will not be validated.\n   ** Warning ** ProcessScheduleInput: Schedule:Year=\"SCHEDULE RULESET 27\", Blank Schedule Type Limits Name input -- will not be validated.\n   ** Warning ** ProcessScheduleInput: Schedule:Year=\"SCHEDULE RULESET 28\", Blank Schedule Type Limits Name input -- will not be validated.\n   ** Warning ** ProcessScheduleInput: Schedule:Year=\"SCHEDULE RULESET 29\", Blank Schedule Type Limits Name input -- will not be validated.\n   ** Warning ** ProcessScheduleInput: Schedule:Year=\"SCHEDULE RULESET 3\", Blank Schedule Type Limits Name input -- will not be validated.\n   ** Warning ** ProcessScheduleInput: Schedule:Year=\"SCHEDULE RULESET 30\", Blank Schedule Type Limits Name input -- will not be validated.\n   ** Warning ** ProcessScheduleInput: Schedule:Year=\"SCHEDULE RULESET 31\", Blank Schedule Type Limits Name input -- will not be validated.\n   ** Warning ** ProcessScheduleInput: Schedule:Year=\"SCHEDULE RULESET 32\", Blank Schedule Type Limits Name input -- will not be validated.\n   ** Warning ** ProcessScheduleInput: Schedule:Year=\"SCHEDULE RULESET 4\", Blank Schedule Type Limits Name input -- will not be validated.\n   ** Warning ** ProcessScheduleInput: Schedule:Year=\"SCHEDULE RULESET 5\", Blank Schedule Type Limits Name input -- will not be validated.\n   ** Warning ** ProcessScheduleInput: Schedule:Year=\"SCHEDULE RULESET 6\", Blank Schedule Type Limits Name input -- will not be validated.\n   ** Warning ** ProcessScheduleInput: Schedule:Year=\"SCHEDULE RULESET 7\", Blank Schedule Type Limits Name input -- will not be validated.\n   ** Warning ** ProcessScheduleInput: Schedule:Year=\"SCHEDULE RULESET 8\", Blank Schedule Type Limits Name input -- will not be validated.\n   ** Warning ** ProcessScheduleInput: Schedule:Year=\"SCHEDULE RULESET 9\", Blank Schedule Type Limits Name input -- will not be validated.\n   ** Warning ** ProcessScheduleInput: Schedule:Constant=\"ALWAYS OFF DISCRETE\", Blank Schedule Type Limits Name input -- will not be validated.\n   ** Warning ** ProcessScheduleInput: Schedule:Constant=\"ALWAYS ON CONTINUOUS\", Blank Schedule Type Limits Name input -- will not be validated.\n   ** Warning ** CheckUsedConstructions: There are 24 nominally unused constructions in input.\n   **   ~~~   ** For explicit details on each unused construction, use Output:Diagnostics,DisplayExtraWarnings;\n   ************* Beginning System Sizing Calculations\n   ************* Beginning Plant Sizing Calculations\n   ** Warning ** GetDXCoils: Coil:Cooling:DX:SingleSpeed=\"COIL COOLING DX SINGLE SPEED 10 70KBTU/HR 9.7EER\", invalid\n   **   ~~~   ** ...Part Load Fraction Correlation Curve Name = DXCOOL-NECB2011-REF-COOLPLFFPLR 1 has out of range value.\n   **   ~~~   ** ...Curve maximum must be <= 1.0, curve max at PLR = 0.99 is 1.015\n   **   ~~~   ** ...Setting curve maximum to 1.0 and simulation continues.\n   ** Warning ** GetDXCoils: Coil:Cooling:DX:SingleSpeed=\"COIL COOLING DX SINGLE SPEED 1 69KBTU/HR 9.7EER\", invalid\n   **   ~~~   ** ...Part Load Fraction Correlation Curve Name = DXCOOL-NECB2011-REF-COOLPLFFPLR has out of range value.\n   **   ~~~   ** ...Curve maximum must be <= 1.0, curve max at PLR = 0.99 is 1.015\n   **   ~~~   ** ...Setting curve maximum to 1.0 and simulation continues.\n   ** Warning ** GetDXCoils: Coil:Cooling:DX:SingleSpeed=\"COIL COOLING DX SINGLE SPEED 3 36KBTU/HR 14.0SEER\", invalid\n   **   ~~~   ** ...Part Load Fraction Correlation Curve Name = DXCOOL-NECB2011-REF-COOLPLFFPLR 3 has out of range value.\n   **   ~~~   ** ...Curve maximum must be <= 1.0, curve max at PLR = 0.99 is 1.015\n   **   ~~~   ** ...Setting curve maximum to 1.0 and simulation continues.\n   ** Warning ** GetDXCoils: Coil:Cooling:DX:SingleSpeed=\"COIL COOLING DX SINGLE SPEED 2 35KBTU/HR 14.0SEER\", invalid\n   **   ~~~   ** ...Part Load Fraction Correlation Curve Name = DXCOOL-NECB2011-REF-COOLPLFFPLR 2 has out of range value.\n   **   ~~~   ** ...Curve maximum must be <= 1.0, curve max at PLR = 0.99 is 1.015\n   **   ~~~   ** ...Setting curve maximum to 1.0 and simulation continues.\n   ** Warning ** GetDXCoils: Coil:Cooling:DX:SingleSpeed=\"COIL COOLING DX SINGLE SPEED 6 35KBTU/HR 14.0SEER\", invalid\n   **   ~~~   ** ...Part Load Fraction Correlation Curve Name = DXCOOL-NECB2011-REF-COOLPLFFPLR 6 has out of range value.\n   **   ~~~   ** ...Curve maximum must be <= 1.0, curve max at PLR = 0.99 is 1.015\n   **   ~~~   ** ...Setting curve maximum to 1.0 and simulation continues.\n   ** Warning ** GetDXCoils: Coil:Cooling:DX:SingleSpeed=\"COIL COOLING DX SINGLE SPEED 8 36KBTU/HR 14.0SEER\", invalid\n   **   ~~~   ** ...Part Load Fraction Correlation Curve Name = DXCOOL-NECB2011-REF-COOLPLFFPLR 8 has out of range value.\n   **   ~~~   ** ...Curve maximum must be <= 1.0, curve max at PLR = 0.99 is 1.015\n   **   ~~~   ** ...Setting curve maximum to 1.0 and simulation continues.\n   ** Warning ** GetDXCoils: Coil:Cooling:DX:SingleSpeed=\"COIL COOLING DX SINGLE SPEED 7 36KBTU/HR 14.0SEER\", invalid\n   **   ~~~   ** ...Part Load Fraction Correlation Curve Name = DXCOOL-NECB2011-REF-COOLPLFFPLR 7 has out of range value.\n   **   ~~~   ** ...Curve maximum must be <= 1.0, curve max at PLR = 0.99 is 1.015\n   **   ~~~   ** ...Setting curve maximum to 1.0 and simulation continues.\n   ** Warning ** GetDXCoils: Coil:Cooling:DX:SingleSpeed=\"COIL COOLING DX SINGLE SPEED 5 35KBTU/HR 14.0SEER\", invalid\n   **   ~~~   ** ...Part Load Fraction Correlation Curve Name = DXCOOL-NECB2011-REF-COOLPLFFPLR 5 has out of range value.\n   **   ~~~   ** ...Curve maximum must be <= 1.0, curve max at PLR = 0.99 is 1.015\n   **   ~~~   ** ...Setting curve maximum to 1.0 and simulation continues.\n   ** Warning ** GetDXCoils: Coil:Cooling:DX:SingleSpeed=\"COIL COOLING DX SINGLE SPEED 4 35KBTU/HR 14.0SEER\", invalid\n   **   ~~~   ** ...Part Load Fraction Correlation Curve Name = DXCOOL-NECB2011-REF-COOLPLFFPLR 4 has out of range value.\n   **   ~~~   ** ...Curve maximum must be <= 1.0, curve max at PLR = 0.99 is 1.015\n   **   ~~~   ** ...Setting curve maximum to 1.0 and simulation continues.\n   ** Warning ** GetDXCoils: Coil:Cooling:DX:SingleSpeed=\"COIL COOLING DX SINGLE SPEED 9 36KBTU/HR 14.0SEER\", invalid\n   **   ~~~   ** ...Part Load Fraction Correlation Curve Name = DXCOOL-NECB2011-REF-COOLPLFFPLR 9 has out of range value.\n   **   ~~~   ** ...Curve maximum must be <= 1.0, curve max at PLR = 0.99 is 1.015\n   **   ~~~   ** ...Setting curve maximum to 1.0 and simulation continues.\n   ** Warning ** The Standard Ratings is calculated for Coil:Cooling:DX:SingleSpeed = COIL COOLING DX SINGLE SPEED 10 70KBTU/HR 9.7EER but not at the AHRI test condition due to curve out of bound.\n   **   ~~~   **  Review the Standard Ratings calculations in the Engineering Reference for this coil type. Also, use Output:Diagnostics, DisplayExtraWarnings for further guidance.\n   ** Warning ** The Standard Ratings is calculated for Coil:Cooling:DX:SingleSpeed = COIL COOLING DX SINGLE SPEED 1 69KBTU/HR 9.7EER but not at the AHRI test condition due to curve out of bound.\n   **   ~~~   **  Review the Standard Ratings calculations in the Engineering Reference for this coil type. Also, use Output:Diagnostics, DisplayExtraWarnings for further guidance.\n   ** Warning ** The Standard Ratings is calculated for Coil:Cooling:DX:SingleSpeed = COIL COOLING DX SINGLE SPEED 3 36KBTU/HR 14.0SEER but not at the AHRI test condition due to curve out of bound.\n   **   ~~~   **  Review the Standard Ratings calculations in the Engineering Reference for this coil type. Also, use Output:Diagnostics, DisplayExtraWarnings for further guidance.\n   ** Warning ** The Standard Ratings is calculated for Coil:Cooling:DX:SingleSpeed = COIL COOLING DX SINGLE SPEED 2 35KBTU/HR 14.0SEER but not at the AHRI test condition due to curve out of bound.\n   **   ~~~   **  Review the Standard Ratings calculations in the Engineering Reference for this coil type. Also, use Output:Diagnostics, DisplayExtraWarnings for further guidance.\n   ** Warning ** The Standard Ratings is calculated for Coil:Cooling:DX:SingleSpeed = COIL COOLING DX SINGLE SPEED 6 35KBTU/HR 14.0SEER but not at the AHRI test condition due to curve out of bound.\n   **   ~~~   **  Review the Standard Ratings calculations in the Engineering Reference for this coil type. Also, use Output:Diagnostics, DisplayExtraWarnings for further guidance.\n   ** Warning ** The Standard Ratings is calculated for Coil:Cooling:DX:SingleSpeed = COIL COOLING DX SINGLE SPEED 8 36KBTU/HR 14.0SEER but not at the AHRI test condition due to curve out of bound.\n   **   ~~~   **  Review the Standard Ratings calculations in the Engineering Reference for this coil type. Also, use Output:Diagnostics, DisplayExtraWarnings for further guidance.\n   ** Warning ** The Standard Ratings is calculated for Coil:Cooling:DX:SingleSpeed = COIL COOLING DX SINGLE SPEED 7 36KBTU/HR 14.0SEER but not at the AHRI test condition due to curve out of bound.\n   **   ~~~   **  Review the Standard Ratings calculations in the Engineering Reference for this coil type. Also, use Output:Diagnostics, DisplayExtraWarnings for further guidance.\n   ** Warning ** The Standard Ratings is calculated for Coil:Cooling:DX:SingleSpeed = COIL COOLING DX SINGLE SPEED 5 35KBTU/HR 14.0SEER but not at the AHRI test condition due to curve out of bound.\n   **   ~~~   **  Review the Standard Ratings calculations in the Engineering Reference for this coil type. Also, use Output:Diagnostics, DisplayExtraWarnings for further guidance.\n   ** Warning ** The Standard Ratings is calculated for Coil:Cooling:DX:SingleSpeed = COIL COOLING DX SINGLE SPEED 4 35KBTU/HR 14.0SEER but not at the AHRI test condition due to curve out of bound.\n   **   ~~~   **  Review the Standard Ratings calculations in the Engineering Reference for this coil type. Also, use Output:Diagnostics, DisplayExtraWarnings for further guidance.\n   ** Warning ** The Standard Ratings is calculated for Coil:Cooling:DX:SingleSpeed = COIL COOLING DX SINGLE SPEED 9 36KBTU/HR 14.0SEER but not at the AHRI test condition due to curve out of bound.\n   **   ~~~   **  Review the Standard Ratings calculations in the Engineering Reference for this coil type. Also, use Output:Diagnostics, DisplayExtraWarnings for further guidance.\n   ** Warning ** Check input. Pump nominal power or motor efficiency is set to 0, for pump=SERVICE WATER LOOP PUMP\n   ** Warning ** Output:Meter: invalid Name=\"GAS:FACILITY\" - not found.\n   ** Warning ** Output:Meter: invalid Name=\"DISTRICTCOOLING:FACILITY\" - not found.\n   ** Warning ** Output:Meter: invalid Name=\"DISTRICTHEATING:FACILITY\" - not found.\n   ** Warning ** Output:Meter:MeterFileOnly: invalid Name=\"GAS:FACILITY\" - not found.\n   ** Warning ** Output:Meter:MeterFileOnly requested for \"Electricity:Facility\" (TimeStep), already on \"Output:Meter\". Will report to both eplusout.eso and eplusout.mtr\n   ************* Testing Individual Branch Integrity\n   ************* All Branches passed integrity testing\n   ************* Testing Individual Supply Air Path Integrity\n   ************* All Supply Air Paths passed integrity testing\n   ************* Testing Individual Return Air Path Integrity\n   ************* All Return Air Paths passed integrity testing\n   ************* No node connection errors were found.\n   ************* Beginning Simulation\n   ** Warning ** CalcDoe2DXCoil: Coil:Cooling:DX:SingleSpeed \"COIL COOLING DX SINGLE SPEED 3 36KBTU/HR 14.0SEER\" - Air-cooled condenser inlet dry-bulb temperature below 0 C. Outdoor dry-bulb temperature = -31.45\n   **   ~~~   **  ... Occurrence info = RUN PERIOD 1, 01/01 09:02 - 09:05\n   **   ~~~   ** ... Operation at low ambient temperatures may require special performance curves.\n   ** Warning ** CalcDoe2DXCoil: Coil:Cooling:DX:SingleSpeed \"COIL COOLING DX SINGLE SPEED 2 35KBTU/HR 14.0SEER\" - Air-cooled condenser inlet dry-bulb temperature below 0 C. Outdoor dry-bulb temperature = -31.45\n   **   ~~~   **  ... Occurrence info = RUN PERIOD 1, 01/01 09:02 - 09:05\n   **   ~~~   ** ... Operation at low ambient temperatures may require special performance curves.\n   ** Warning ** CalcDoe2DXCoil: Coil:Cooling:DX:SingleSpeed \"COIL COOLING DX SINGLE SPEED 6 35KBTU/HR 14.0SEER\" - Air-cooled condenser inlet dry-bulb temperature below 0 C. Outdoor dry-bulb temperature = -31.45\n   **   ~~~   **  ... Occurrence info = RUN PERIOD 1, 01/01 09:02 - 09:05\n   **   ~~~   ** ... Operation at low ambient temperatures may require special performance curves.\n   ** Warning ** CalcDoe2DXCoil: Coil:Cooling:DX:SingleSpeed \"COIL COOLING DX SINGLE SPEED 8 36KBTU/HR 14.0SEER\" - Air-cooled condenser inlet dry-bulb temperature below 0 C. Outdoor dry-bulb temperature = -31.45\n   **   ~~~   **  ... Occurrence info = RUN PERIOD 1, 01/01 09:02 - 09:05\n   **   ~~~   ** ... Operation at low ambient temperatures may require special performance curves.\n   ** Warning ** CalcDoe2DXCoil: Coil:Cooling:DX:SingleSpeed \"COIL COOLING DX SINGLE SPEED 7 36KBTU/HR 14.0SEER\" - Air-cooled condenser inlet dry-bulb temperature below 0 C. Outdoor dry-bulb temperature = -31.45\n   **   ~~~   **  ... Occurrence info = RUN PERIOD 1, 01/01 09:02 - 09:05\n   **   ~~~   ** ... Operation at low ambient temperatures may require special performance curves.\n   ** Warning ** CalcDoe2DXCoil: Coil:Cooling:DX:SingleSpeed \"COIL COOLING DX SINGLE SPEED 5 35KBTU/HR 14.0SEER\" - Air-cooled condenser inlet dry-bulb temperature below 0 C. Outdoor dry-bulb temperature = -31.45\n   **   ~~~   **  ... Occurrence info = RUN PERIOD 1, 01/01 09:02 - 09:05\n   **   ~~~   ** ... Operation at low ambient temperatures may require special performance curves.\n   ** Warning ** CalcDoe2DXCoil: Coil:Cooling:DX:SingleSpeed \"COIL COOLING DX SINGLE SPEED 4 35KBTU/HR 14.0SEER\" - Air-cooled condenser inlet dry-bulb temperature below 0 C. Outdoor dry-bulb temperature = -31.45\n   **   ~~~   **  ... Occurrence info = RUN PERIOD 1, 01/01 09:02 - 09:05\n   **   ~~~   ** ... Operation at low ambient temperatures may require special performance curves.\n   ** Warning ** CalcDoe2DXCoil: Coil:Cooling:DX:SingleSpeed \"COIL COOLING DX SINGLE SPEED 9 36KBTU/HR 14.0SEER\" - Air-cooled condenser inlet dry-bulb temperature below 0 C. Outdoor dry-bulb temperature = -31.45\n   **   ~~~   **  ... Occurrence info = RUN PERIOD 1, 01/01 09:02 - 09:05\n   **   ~~~   ** ... Operation at low ambient temperatures may require special performance curves.\n   ** Warning ** CalcDoe2DXCoil: Coil:Cooling:DX:SingleSpeed \"COIL COOLING DX SINGLE SPEED 3 36KBTU/HR 14.0SEER\" - Full load outlet air dry-bulb temperature < 2C. This indicates the possibility of coil frost/freeze. Outlet temperature = -0.48 C.\n   **   ~~~   **  ...Occurrence info = RUN PERIOD 1, 02/04 13:30 - 13:45\n   **   ~~~   ** ... Possible reasons for low outlet air dry-bulb temperatures are: This DX coil\n   **   ~~~   **    1) may have a low inlet air dry-bulb temperature. Inlet air temperature = 14.200 C.\n   **   ~~~   **    2) may have a low air flow rate per watt of cooling capacity. Check inputs.\n   **   ~~~   **    3) is used as part of a HX assisted cooling coil which uses a high sensible effectiveness. Check inputs.\n   ** Warning ** CalcDoe2DXCoil: Coil:Cooling:DX:SingleSpeed \"COIL COOLING DX SINGLE SPEED 2 35KBTU/HR 14.0SEER\" - Full load outlet air dry-bulb temperature < 2C. This indicates the possibility of coil frost/freeze. Outlet temperature = -0.77 C.\n   **   ~~~   **  ...Occurrence info = RUN PERIOD 1, 02/04 13:30 - 13:45\n   **   ~~~   ** ... Possible reasons for low outlet air dry-bulb temperatures are: This DX coil\n   **   ~~~   **    1) may have a low inlet air dry-bulb temperature. Inlet air temperature = 13.972 C.\n   **   ~~~   **    2) may have a low air flow rate per watt of cooling capacity. Check inputs.\n   **   ~~~   **    3) is used as part of a HX assisted cooling coil which uses a high sensible effectiveness. Check inputs.\n   ** Warning ** CalcDoe2DXCoil: Coil:Cooling:DX:SingleSpeed \"COIL COOLING DX SINGLE SPEED 6 35KBTU/HR 14.0SEER\" - Full load outlet air dry-bulb temperature < 2C. This indicates the possibility of coil frost/freeze. Outlet temperature = -0.77 C.\n   **   ~~~   **  ...Occurrence info = RUN PERIOD 1, 02/04 13:30 - 13:45\n   **   ~~~   ** ... Possible reasons for low outlet air dry-bulb temperatures are: This DX coil\n   **   ~~~   **    1) may have a low inlet air dry-bulb temperature. Inlet air temperature = 13.969 C.\n   **   ~~~   **    2) may have a low air flow rate per watt of cooling capacity. Check inputs.\n   **   ~~~   **    3) is used as part of a HX assisted cooling coil which uses a high sensible effectiveness. Check inputs.\n   ** Warning ** CalcDoe2DXCoil: Coil:Cooling:DX:SingleSpeed \"COIL COOLING DX SINGLE SPEED 8 36KBTU/HR 14.0SEER\" - Full load outlet air dry-bulb temperature < 2C. This indicates the possibility of coil frost/freeze. Outlet temperature = -0.52 C.\n   **   ~~~   **  ...Occurrence info = RUN PERIOD 1, 02/04 13:30 - 13:45\n   **   ~~~   ** ... Possible reasons for low outlet air dry-bulb temperatures are: This DX coil\n   **   ~~~   **    1) may have a low inlet air dry-bulb temperature. Inlet air temperature = 14.176 C.\n   **   ~~~   **    2) may have a low air flow rate per watt of cooling capacity. Check inputs.\n   **   ~~~   **    3) is used as part of a HX assisted cooling coil which uses a high sensible effectiveness. Check inputs.\n   ** Warning ** CalcDoe2DXCoil: Coil:Cooling:DX:SingleSpeed \"COIL COOLING DX SINGLE SPEED 7 36KBTU/HR 14.0SEER\" - Full load outlet air dry-bulb temperature < 2C. This indicates the possibility of coil frost/freeze. Outlet temperature = -0.52 C.\n   **   ~~~   **  ...Occurrence info = RUN PERIOD 1, 02/04 13:30 - 13:45\n   **   ~~~   ** ... Possible reasons for low outlet air dry-bulb temperatures are: This DX coil\n   **   ~~~   **    1) may have a low inlet air dry-bulb temperature. Inlet air temperature = 14.176 C.\n   **   ~~~   **    2) may have a low air flow rate per watt of cooling capacity. Check inputs.\n   **   ~~~   **    3) is used as part of a HX assisted cooling coil which uses a high sensible effectiveness. Check inputs.\n   ** Warning ** CalcDoe2DXCoil: Coil:Cooling:DX:SingleSpeed \"COIL COOLING DX SINGLE SPEED 5 35KBTU/HR 14.0SEER\" - Full load outlet air dry-bulb temperature < 2C. This indicates the possibility of coil frost/freeze. Outlet temperature = -0.77 C.\n   **   ~~~   **  ...Occurrence info = RUN PERIOD 1, 02/04 13:30 - 13:45\n   **   ~~~   ** ... Possible reasons for low outlet air dry-bulb temperatures are: This DX coil\n   **   ~~~   **    1) may have a low inlet air dry-bulb temperature. Inlet air temperature = 13.967 C.\n   **   ~~~   **    2) may have a low air flow rate per watt of cooling capacity. Check inputs.\n   **   ~~~   **    3) is used as part of a HX assisted cooling coil which uses a high sensible effectiveness. Check inputs.\n   ** Warning ** CalcDoe2DXCoil: Coil:Cooling:DX:SingleSpeed \"COIL COOLING DX SINGLE SPEED 4 35KBTU/HR 14.0SEER\" - Full load outlet air dry-bulb temperature < 2C. This indicates the possibility of coil frost/freeze. Outlet temperature = -0.49 C.\n   **   ~~~   **  ...Occurrence info = RUN PERIOD 1, 02/04 13:45 - 14:00\n   **   ~~~   ** ... Possible reasons for low outlet air dry-bulb temperatures are: This DX coil\n   **   ~~~   **    1) may have a low inlet air dry-bulb temperature. Inlet air temperature = 14.244 C.\n   **   ~~~   **    2) may have a low air flow rate per watt of cooling capacity. Check inputs.\n   **   ~~~   **    3) is used as part of a HX assisted cooling coil which uses a high sensible effectiveness. Check inputs.\n   ** Warning ** CalcDoe2DXCoil: Coil:Cooling:DX:SingleSpeed \"COIL COOLING DX SINGLE SPEED 9 36KBTU/HR 14.0SEER\" - Full load outlet air dry-bulb temperature < 2C. This indicates the possibility of coil frost/freeze. Outlet temperature = 0.31 C.\n   **   ~~~   **  ...Occurrence info = RUN PERIOD 1, 02/27 13:38 - 13:45\n   **   ~~~   ** ... Possible reasons for low outlet air dry-bulb temperatures are: This DX coil\n   **   ~~~   **    1) may have a low inlet air dry-bulb temperature. Inlet air temperature = 15.024 C.\n   **   ~~~   **    2) may have a low air flow rate per watt of cooling capacity. Check inputs.\n   **   ~~~   **    3) is used as part of a HX assisted cooling coil which uses a high sensible effectiveness. Check inputs.\n   ** Warning ** CalcDoe2DXCoil: Coil:Cooling:DX:SingleSpeed \"COIL COOLING DX SINGLE SPEED 10 70KBTU/HR 9.7EER\" - Full load outlet air dry-bulb temperature < 2C. This indicates the possibility of coil frost/freeze. Outlet temperature = 1.70 C.\n   **   ~~~   **  ...Occurrence info = RUN PERIOD 1, 05/08 11:00 - 11:15\n   **   ~~~   ** ... Possible reasons for low outlet air dry-bulb temperatures are: This DX coil\n   **   ~~~   **    1) may have a low inlet air dry-bulb temperature. Inlet air temperature = 16.225 C.\n   **   ~~~   **    2) may have a low air flow rate per watt of cooling capacity. Check inputs.\n   **   ~~~   **    3) is used as part of a HX assisted cooling coil which uses a high sensible effectiveness. Check inputs.\n   ** Warning ** CalcDoe2DXCoil: Coil:Cooling:DX:SingleSpeed \"COIL COOLING DX SINGLE SPEED 1 69KBTU/HR 9.7EER\" - Full load outlet air dry-bulb temperature < 2C. This indicates the possibility of coil frost/freeze. Outlet temperature = 1.68 C.\n   **   ~~~   **  ...Occurrence info = RUN PERIOD 1, 05/08 11:00 - 11:15\n   **   ~~~   ** ... Possible reasons for low outlet air dry-bulb temperatures are: This DX coil\n   **   ~~~   **    1) may have a low inlet air dry-bulb temperature. Inlet air temperature = 16.225 C.\n   **   ~~~   **    2) may have a low air flow rate per watt of cooling capacity. Check inputs.\n   **   ~~~   **    3) is used as part of a HX assisted cooling coil which uses a high sensible effectiveness. Check inputs.\n   ************* Simulation Error Summary *************\n   ************* There are 9 unused schedules in input.\n   ************* There are 9 unused week schedules in input.\n   ************* There are 32 unused day schedules in input.\n   ************* Use Output:Diagnostics,DisplayUnusedSchedules; to see them.\n   *************\n   ************* ===== Recurring Error Summary =====\n   ************* The following recurring error messages occurred.\n   *************\n   *************  ** Warning ** CalcDoe2DXCoil: Coil:Cooling:DX:SingleSpeed=\"COIL COOLING DX SINGLE SPEED 3 36KBTU/HR 14.0SEER\" - Low condenser dry-bulb temperature error continues...\n   *************  **   ~~~   **   This error occurred 313 total times;\n   *************  **   ~~~   **   during Warmup 0 times;\n   *************  **   ~~~   **   during Sizing 0 times.\n   *************  **   ~~~   **   Max=-5.000000E-002 [C]  Min=-35.575 [C]\n   *************\n   *************  ** Warning ** CalcDoe2DXCoil: Coil:Cooling:DX:SingleSpeed=\"COIL COOLING DX SINGLE SPEED 2 35KBTU/HR 14.0SEER\" - Low condenser dry-bulb temperature error continues...\n   *************  **   ~~~   **   This error occurred 306 total times;\n   *************  **   ~~~   **   during Warmup 0 times;\n   *************  **   ~~~   **   during Sizing 0 times.\n   *************  **   ~~~   **   Max=-5.000000E-002 [C]  Min=-35.575 [C]\n   *************\n   *************  ** Warning ** CalcDoe2DXCoil: Coil:Cooling:DX:SingleSpeed=\"COIL COOLING DX SINGLE SPEED 6 35KBTU/HR 14.0SEER\" - Low condenser dry-bulb temperature error continues...\n   *************  **   ~~~   **   This error occurred 306 total times;\n   *************  **   ~~~   **   during Warmup 0 times;\n   *************  **   ~~~   **   during Sizing 0 times.\n   *************  **   ~~~   **   Max=-5.000000E-002 [C]  Min=-35.575 [C]\n   *************\n   *************  ** Warning ** CalcDoe2DXCoil: Coil:Cooling:DX:SingleSpeed=\"COIL COOLING DX SINGLE SPEED 8 36KBTU/HR 14.0SEER\" - Low condenser dry-bulb temperature error continues...\n   *************  **   ~~~   **   This error occurred 316 total times;\n   *************  **   ~~~   **   during Warmup 0 times;\n   *************  **   ~~~   **   during Sizing 0 times.\n   *************  **   ~~~   **   Max=-5.000000E-002 [C]  Min=-35.575 [C]\n   *************\n   *************  ** Warning ** CalcDoe2DXCoil: Coil:Cooling:DX:SingleSpeed=\"COIL COOLING DX SINGLE SPEED 7 36KBTU/HR 14.0SEER\" - Low condenser dry-bulb temperature error continues...\n   *************  **   ~~~   **   This error occurred 315 total times;\n   *************  **   ~~~   **   during Warmup 0 times;\n   *************  **   ~~~   **   during Sizing 0 times.\n   *************  **   ~~~   **   Max=-5.000000E-002 [C]  Min=-35.575 [C]\n   *************\n   *************  ** Warning ** CalcDoe2DXCoil: Coil:Cooling:DX:SingleSpeed=\"COIL COOLING DX SINGLE SPEED 5 35KBTU/HR 14.0SEER\" - Low condenser dry-bulb temperature error continues...\n   *************  **   ~~~   **   This error occurred 306 total times;\n   *************  **   ~~~   **   during Warmup 0 times;\n   *************  **   ~~~   **   during Sizing 0 times.\n   *************  **   ~~~   **   Max=-5.000000E-002 [C]  Min=-35.575 [C]\n   *************\n   *************  ** Warning ** CalcDoe2DXCoil: Coil:Cooling:DX:SingleSpeed=\"COIL COOLING DX SINGLE SPEED 4 35KBTU/HR 14.0SEER\" - Low condenser dry-bulb temperature error continues...\n   *************  **   ~~~   **   This error occurred 303 total times;\n   *************  **   ~~~   **   during Warmup 0 times;\n   *************  **   ~~~   **   during Sizing 0 times.\n   *************  **   ~~~   **   Max=-5.000000E-002 [C]  Min=-35.575 [C]\n   *************\n   *************  ** Warning ** CalcDoe2DXCoil: Coil:Cooling:DX:SingleSpeed=\"COIL COOLING DX SINGLE SPEED 9 36KBTU/HR 14.0SEER\" - Low condenser dry-bulb temperature error continues...\n   *************  **   ~~~   **   This error occurred 280 total times;\n   *************  **   ~~~   **   during Warmup 0 times;\n   *************  **   ~~~   **   during Sizing 0 times.\n   *************  **   ~~~   **   Max=-5.000000E-002 [C]  Min=-35.575 [C]\n   *************\n   *************  ** Warning ** CalcDoe2DXCoil: Coil:Cooling:DX:SingleSpeed=\"COIL COOLING DX SINGLE SPEED 3 36KBTU/HR 14.0SEER\" - Full load outlet temperature indicates a possibility of frost/freeze error continues. Outlet air temperature statistics follow:\n   *************  **   ~~~   **   This error occurred 115 total times;\n   *************  **   ~~~   **   during Warmup 0 times;\n   *************  **   ~~~   **   during Sizing 0 times.\n   *************  **   ~~~   **   Max=1.990527  Min=-2.453544\n   *************\n   *************  ** Warning ** CalcDoe2DXCoil: Coil:Cooling:DX:SingleSpeed=\"COIL COOLING DX SINGLE SPEED 2 35KBTU/HR 14.0SEER\" - Full load outlet temperature indicates a possibility of frost/freeze error continues. Outlet air temperature statistics follow:\n   *************  **   ~~~   **   This error occurred 122 total times;\n   *************  **   ~~~   **   during Warmup 0 times;\n   *************  **   ~~~   **   during Sizing 0 times.\n   *************  **   ~~~   **   Max=1.989838  Min=-1.72817\n   *************\n   *************  ** Warning ** CalcDoe2DXCoil: Coil:Cooling:DX:SingleSpeed=\"COIL COOLING DX SINGLE SPEED 6 35KBTU/HR 14.0SEER\" - Full load outlet temperature indicates a possibility of frost/freeze error continues. Outlet air temperature statistics follow:\n   *************  **   ~~~   **   This error occurred 122 total times;\n   *************  **   ~~~   **   during Warmup 0 times;\n   *************  **   ~~~   **   during Sizing 0 times.\n   *************  **   ~~~   **   Max=1.987673  Min=-1.731159\n   *************\n   *************  ** Warning ** CalcDoe2DXCoil: Coil:Cooling:DX:SingleSpeed=\"COIL COOLING DX SINGLE SPEED 8 36KBTU/HR 14.0SEER\" - Full load outlet temperature indicates a possibility of frost/freeze error continues. Outlet air temperature statistics follow:\n   *************  **   ~~~   **   This error occurred 119 total times;\n   *************  **   ~~~   **   during Warmup 0 times;\n   *************  **   ~~~   **   during Sizing 0 times.\n   *************  **   ~~~   **   Max=1.998518  Min=-2.488042\n   *************\n   *************  ** Warning ** CalcDoe2DXCoil: Coil:Cooling:DX:SingleSpeed=\"COIL COOLING DX SINGLE SPEED 7 36KBTU/HR 14.0SEER\" - Full load outlet temperature indicates a possibility of frost/freeze error continues. Outlet air temperature statistics follow:\n   *************  **   ~~~   **   This error occurred 118 total times;\n   *************  **   ~~~   **   during Warmup 0 times;\n   *************  **   ~~~   **   during Sizing 0 times.\n   *************  **   ~~~   **   Max=1.998356  Min=-2.488023\n   *************\n   *************  ** Warning ** CalcDoe2DXCoil: Coil:Cooling:DX:SingleSpeed=\"COIL COOLING DX SINGLE SPEED 5 35KBTU/HR 14.0SEER\" - Full load outlet temperature indicates a possibility of frost/freeze error continues. Outlet air temperature statistics follow:\n   *************  **   ~~~   **   This error occurred 121 total times;\n   *************  **   ~~~   **   during Warmup 0 times;\n   *************  **   ~~~   **   during Sizing 0 times.\n   *************  **   ~~~   **   Max=1.980725  Min=-1.736281\n   *************\n   *************  ** Warning ** CalcDoe2DXCoil: Coil:Cooling:DX:SingleSpeed=\"COIL COOLING DX SINGLE SPEED 4 35KBTU/HR 14.0SEER\" - Full load outlet temperature indicates a possibility of frost/freeze error continues. Outlet air temperature statistics follow:\n   *************  **   ~~~   **   This error occurred 111 total times;\n   *************  **   ~~~   **   during Warmup 0 times;\n   *************  **   ~~~   **   during Sizing 0 times.\n   *************  **   ~~~   **   Max=1.98859  Min=-1.769932\n   *************\n   *************  ** Warning ** CalcDoe2DXCoil: Coil:Cooling:DX:SingleSpeed=\"COIL COOLING DX SINGLE SPEED 9 36KBTU/HR 14.0SEER\" - Full load outlet temperature indicates a possibility of frost/freeze error continues. Outlet air temperature statistics follow:\n   *************  **   ~~~   **   This error occurred 62 total times;\n   *************  **   ~~~   **   during Warmup 0 times;\n   *************  **   ~~~   **   during Sizing 0 times.\n   *************  **   ~~~   **   Max=1.991303  Min=-1.493149\n   *************\n   *************  ** Warning ** CalcDoe2DXCoil: Coil:Cooling:DX:SingleSpeed=\"COIL COOLING DX SINGLE SPEED 10 70KBTU/HR 9.7EER\" - Full load outlet temperature indicates a possibility of frost/freeze error continues. Outlet air temperature statistics follow:\n   *************  **   ~~~   **   This error occurred 13 total times;\n   *************  **   ~~~   **   during Warmup 0 times;\n   *************  **   ~~~   **   during Sizing 0 times.\n   *************  **   ~~~   **   Max=1.988398  Min=1.224121\n   *************\n   *************  ** Warning ** CalcDoe2DXCoil: Coil:Cooling:DX:SingleSpeed=\"COIL COOLING DX SINGLE SPEED 1 69KBTU/HR 9.7EER\" - Full load outlet temperature indicates a possibility of frost/freeze error continues. Outlet air temperature statistics follow:\n   *************  **   ~~~   **   This error occurred 18 total times;\n   *************  **   ~~~   **   during Warmup 0 times;\n   *************  **   ~~~   **   during Sizing 0 times.\n   *************  **   ~~~   **   Max=1.984471  Min=1.169549\n   *************\n   *************\n   ************* ===== Final Error Summary =====\n   ************* The following error categories occurred.  Consider correcting or noting.\n   ************* Nominally Unused Constructions\n   ************* ..The nominally unused constructions warning is provided to alert you to potential conditions that can cause\n   ************* ..extra time during simulation. Each construction is calculated by the algorithm indicated in the HeatBalanceAlgorithm\n   ************* ..object. You may remove the constructions indicated (when you use the DisplayExtraWarnings option).\n   *************\n   ************* EnergyPlus Warmup Error Summary. During Warmup: 0 Warning; 0 Severe Errors.\n   ************* EnergyPlus Sizing Error Summary. During Sizing: 87 Warning; 0 Severe Errors.\n   ************* EnergyPlus Completed Successfully-- 3480 Warning; 0 Severe Errors; Elapsed Time=00hr 01min  2.75sec\n",
   "file_format_version" : "0.0.1",
   "file_paths" : [ "../weather", "../seeds", "../seed" ],
   "hash" : "CD3A78CA",
   "measure_paths" : [ "../measures" ],
   "name" : "LHS Autogenerated 806",
   "osa_id" : "4fef0e0f-5396-4c55-a6e1-2cd6803db3ab",
   "osd_id" : "2c2f833f-557c-4d4f-b862-7cff0f499cfa",
   "run_directory" : "./run",
   "seed_file" : "seed.osm",
   "started_at" : "20170710T191510Z",
   "steps" : [
      {
         "arguments" : {
            "__SKIP__" : false,
            "building_type" : "RetailStripmall",
            "climate_zone" : "NECB HDD Method",
            "epw_file" : "CAN_MB_The.Pas.718670_CWEC.epw",
            "template" : "NECB 2011"
         },
         "measure_dir_name" : "create_prototype_building",
         "name" : "create_prototype_building",
         "result" : {
            "completed_at" : "20170710T191619Z",
            "measure_class_name" : "CreatePrototypeBuilding",
            "measure_display_name" : "Create Prototype Building",
            "measure_name" : "create_prototype_building",
            "measure_taxonomy" : "Whole Building.Space Types",
            "measure_type" : "ModelMeasure",
            "measure_uid" : "ae90fsd7-a651-467a-bc8d-29d310b0f937",
            "measure_version_id" : "c6ec5c18-5595-459f-a082-09a19c8c869c",
            "measure_version_modified" : "20170519T182315Z",
            "measure_xml_checksum" : "057E8D9D",
            "started_at" : "20170710T191512Z",
            "stderr" : "",
            "stdout" : "[OpenStudio.Measure] <0> OSArgumentVector is deprecated, use OpenStudio::Measure::OSArgumentVector instead.\n[openstudio.EpwFile] <0> Successive data points (1985-Jan-31 to 1986-Feb-01, ending on line 753) are greater than 1 day apart in EPW file '/usr/local/bundle/bundler/gems/openstudio-standards-f448df66933d/openstudio-standards/data/weather/CAN_MB_The.Pas.718670_CWEC.epw'. Data will be treated as typical (TMY)\n[openstudio.setFileExtension] <0> Path p, '/usr/local/bundle/bundler/gems/openstudio-standards-f448df66933d/openstudio-standards/data/weather/CAN_MB_The.Pas.718670_CWEC.ddy', has an unexpected file extension. Was expecting 'idf'.\n[openstudio.model.YearDescription] <1> 'UseWeatherFile' is not yet a supported option for YearDescription\n[openstudio.model.YearDescription] <1> 'UseWeatherFile' is not yet a supported option for YearDescription\n[openstudio.setFileExtension] <0> Path p, '/usr/local/bundle/bundler/gems/openstudio-standards-f448df66933d/openstudio-standards/data/weather/CAN_MB_The.Pas.718670_CWEC.ddy', has an unexpected file extension. Was expecting 'idf'.\n[openstudio.model.YearDescription] <1> 'UseWeatherFile' is not yet a supported option for YearDescription\n[openstudio.model.YearDescription] <1> 'UseWeatherFile' is not yet a supported option for YearDescription\n[openstudio.EpwFile] <0> Successive data points (1985-Jan-31 to 1986-Feb-01, ending on line 753) are greater than 1 day apart in EPW file '/usr/local/bundle/bundler/gems/openstudio-standards-f448df66933d/openstudio-standards/data/weather/CAN_MB_The.Pas.718670_CWEC.epw'. Data will be treated as typical (TMY)\n[openstudio.weather.Model] <0> Could not find ground temperatures; will use generic temperatures, which will skew results.\n[openstudio.setFileExtension] <0> Path p, '/usr/local/bundle/bundler/gems/openstudio-standards-f448df66933d/openstudio-standards/data/weather/CAN_MB_The.Pas.718670_CWEC.ddy', has an unexpected file extension. Was expecting 'idf'.\n[openstudio.model.YearDescription] <1> 'UseWeatherFile' is not yet a supported option for YearDescription\n[openstudio.model.YearDescription] <1> 'UseWeatherFile' is not yet a supported option for YearDescription\n[openstudio.EpwFile] <0> Successive data points (1985-Jan-31 to 1986-Feb-01, ending on line 753) are greater than 1 day apart in EPW file '/usr/local/bundle/bundler/gems/openstudio-standards-f448df66933d/openstudio-standards/data/weather/CAN_MB_The.Pas.718670_CWEC.epw'. Data will be treated as typical (TMY)\n[openstudio.setFileExtension] <0> Path p, '/usr/local/bundle/bundler/gems/openstudio-standards-f448df66933d/openstudio-standards/data/weather/CAN_MB_The.Pas.718670_CWEC.ddy', has an unexpected file extension. Was expecting 'idf'.\n[openstudio.model.YearDescription] <1> 'UseWeatherFile' is not yet a supported option for YearDescription\n[openstudio.model.YearDescription] <1> 'UseWeatherFile' is not yet a supported option for YearDescription\n[openstudio.setFileExtension] <0> Path p, '/usr/local/bundle/bundler/gems/openstudio-standards-f448df66933d/openstudio-standards/data/weather/CAN_MB_The.Pas.718670_CWEC.ddy', has an unexpected file extension. Was expecting 'idf'.\n[openstudio.model.YearDescription] <1> 'UseWeatherFile' is not yet a supported option for YearDescription\n[openstudio.model.YearDescription] <1> 'UseWeatherFile' is not yet a supported option for YearDescription\n[openstudio.EpwFile] <0> Successive data points (1985-Jan-31 to 1986-Feb-01, ending on line 753) are greater than 1 day apart in EPW file '/usr/local/bundle/bundler/gems/openstudio-standards-f448df66933d/openstudio-standards/data/weather/CAN_MB_The.Pas.718670_CWEC.epw'. Data will be treated as typical (TMY)\n[openstudio.setFileExtension] <0> Path p, '/usr/local/bundle/bundler/gems/openstudio-standards-f448df66933d/openstudio-standards/data/weather/CAN_MB_The.Pas.718670_CWEC.ddy', has an unexpected file extension. Was expecting 'idf'.\n[openstudio.model.YearDescription] <1> 'UseWeatherFile' is not yet a supported option for YearDescription\n[openstudio.model.YearDescription] <1> 'UseWeatherFile' is not yet a supported option for YearDescription\n[openstudio.setFileExtension] <0> Path p, '/usr/local/bundle/bundler/gems/openstudio-standards-f448df66933d/openstudio-standards/data/weather/CAN_MB_The.Pas.718670_CWEC.ddy', has an unexpected file extension. Was expecting 'idf'.\n[openstudio.model.YearDescription] <1> 'UseWeatherFile' is not yet a supported option for YearDescription\n[openstudio.model.YearDescription] <1> 'UseWeatherFile' is not yet a supported option for YearDescription\n[utilities.idf.WorkspaceObject] <0> Object of type 'Schedule:Constant' and named 'Always Off Discrete', points to an object named OnOff 1 from field 1, but that object cannot be located.\n[utilities.idf.WorkspaceObject] <0> Object of type 'Schedule:Constant' and named 'Always On Continuous', points to an object named Fractional 1 from field 1, but that object cannot be located.\n[utilities.idf.WorkspaceObject] <0> Object of type 'Schedule:Constant' and named 'Always Off Discrete', points to an object named OnOff 1 from field 1, but that object cannot be located.\n[utilities.idf.WorkspaceObject] <0> Object of type 'Schedule:Constant' and named 'Always On Continuous', points to an object named Fractional 1 from field 1, but that object cannot be located.\n[openstudio.standards.Fan] <0> For Fan Constant Volume 1, there is no greater nominal HP.  Use the efficiency of the largest motor category.\n[openstudio.standards.Fan] <0> For Fan Constant Volume 10, there is no greater nominal HP.  Use the efficiency of the largest motor category.\n[openstudio.standards.Fan] <0> For Fan Constant Volume 2, there is no greater nominal HP.  Use the efficiency of the largest motor category.\n[openstudio.standards.Fan] <0> For Fan Constant Volume 3, there is no greater nominal HP.  Use the efficiency of the largest motor category.\n[openstudio.standards.Fan] <0> For Fan Constant Volume 4, there is no greater nominal HP.  Use the efficiency of the largest motor category.\n[openstudio.standards.Fan] <0> For Fan Constant Volume 5, there is no greater nominal HP.  Use the efficiency of the largest motor category.\n[openstudio.standards.Fan] <0> For Fan Constant Volume 6, there is no greater nominal HP.  Use the efficiency of the largest motor category.\n[openstudio.standards.Fan] <0> For Fan Constant Volume 7, there is no greater nominal HP.  Use the efficiency of the largest motor category.\n[openstudio.standards.Fan] <0> For Fan Constant Volume 8, there is no greater nominal HP.  Use the efficiency of the largest motor category.\n[openstudio.standards.Fan] <0> For Fan Constant Volume 9, there is no greater nominal HP.  Use the efficiency of the largest motor category.\n[openstudio.EpwFile] <0> Successive data points (1985-Jan-31 to 1986-Feb-01, ending on line 753) are greater than 1 day apart in EPW file '/usr/local/bundle/bundler/gems/openstudio-standards-f448df66933d/openstudio-standards/data/weather/CAN_MB_The.Pas.718670_CWEC.epw'. Data will be treated as typical (TMY)\n[openstudio.setFileExtension] <0> Path p, '/usr/local/bundle/bundler/gems/openstudio-standards-f448df66933d/openstudio-standards/data/weather/CAN_MB_The.Pas.718670_CWEC.ddy', has an unexpected file extension. Was expecting 'idf'.\n[openstudio.model.YearDescription] <1> 'UseWeatherFile' is not yet a supported option for YearDescription\n[openstudio.model.YearDescription] <1> 'UseWeatherFile' is not yet a supported option for YearDescription\n[openstudio.setFileExtension] <0> Path p, '/usr/local/bundle/bundler/gems/openstudio-standards-f448df66933d/openstudio-standards/data/weather/CAN_MB_The.Pas.718670_CWEC.ddy', has an unexpected file extension. Was expecting 'idf'.\n[openstudio.model.YearDescription] <1> 'UseWeatherFile' is not yet a supported option for YearDescription\n[openstudio.model.YearDescription] <1> 'UseWeatherFile' is not yet a supported option for YearDescription\n[openstudio.EpwFile] <0> Successive data points (1985-Jan-31 to 1986-Feb-01, ending on line 753) are greater than 1 day apart in EPW file '/usr/local/bundle/bundler/gems/openstudio-standards-f448df66933d/openstudio-standards/data/weather/CAN_MB_The.Pas.718670_CWEC.epw'. Data will be treated as typical (TMY)\n[openstudio.setFileExtension] <0> Path p, '/usr/local/bundle/bundler/gems/openstudio-standards-f448df66933d/openstudio-standards/data/weather/CAN_MB_The.Pas.718670_CWEC.ddy', has an unexpected file extension. Was expecting 'idf'.\n[openstudio.model.YearDescription] <1> 'UseWeatherFile' is not yet a supported option for YearDescription\n[openstudio.model.YearDescription] <1> 'UseWeatherFile' is not yet a supported option for YearDescription\n[openstudio.setFileExtension] <0> Path p, '/usr/local/bundle/bundler/gems/openstudio-standards-f448df66933d/openstudio-standards/data/weather/CAN_MB_The.Pas.718670_CWEC.ddy', has an unexpected file extension. Was expecting 'idf'.\n[openstudio.model.YearDescription] <1> 'UseWeatherFile' is not yet a supported option for YearDescription\n[openstudio.model.YearDescription] <1> 'UseWeatherFile' is not yet a supported option for YearDescription\n[openstudio.EpwFile] <0> Successive data points (1985-Jan-31 to 1986-Feb-01, ending on line 753) are greater than 1 day apart in EPW file '/usr/local/bundle/bundler/gems/openstudio-standards-f448df66933d/openstudio-standards/data/weather/CAN_MB_The.Pas.718670_CWEC.epw'. Data will be treated as typical (TMY)\n[openstudio.setFileExtension] <0> Path p, '/usr/local/bundle/bundler/gems/openstudio-standards-f448df66933d/openstudio-standards/data/weather/CAN_MB_The.Pas.718670_CWEC.ddy', has an unexpected file extension. Was expecting 'idf'.\n[openstudio.model.YearDescription] <1> 'UseWeatherFile' is not yet a supported option for YearDescription\n[openstudio.model.YearDescription] <1> 'UseWeatherFile' is not yet a supported option for YearDescription\n[openstudio.setFileExtension] <0> Path p, '/usr/local/bundle/bundler/gems/openstudio-standards-f448df66933d/openstudio-standards/data/weather/CAN_MB_The.Pas.718670_CWEC.ddy', has an unexpected file extension. Was expecting 'idf'.\n[openstudio.model.YearDescription] <1> 'UseWeatherFile' is not yet a supported option for YearDescription\n[openstudio.model.YearDescription] <1> 'UseWeatherFile' is not yet a supported option for YearDescription\n[openstudio.EpwFile] <0> Successive data points (1985-Jan-31 to 1986-Feb-01, ending on line 753) are greater than 1 day apart in EPW file '/usr/local/bundle/bundler/gems/openstudio-standards-f448df66933d/openstudio-standards/data/weather/CAN_MB_The.Pas.718670_CWEC.epw'. Data will be treated as typical (TMY)\n[openstudio.setFileExtension] <0> Path p, '/usr/local/bundle/bundler/gems/openstudio-standards-f448df66933d/openstudio-standards/data/weather/CAN_MB_The.Pas.718670_CWEC.ddy', has an unexpected file extension. Was expecting 'idf'.\n[openstudio.model.YearDescription] <1> 'UseWeatherFile' is not yet a supported option for YearDescription\n[openstudio.model.YearDescription] <1> 'UseWeatherFile' is not yet a supported option for YearDescription\n[openstudio.setFileExtension] <0> Path p, '/usr/local/bundle/bundler/gems/openstudio-standards-f448df66933d/openstudio-standards/data/weather/CAN_MB_The.Pas.718670_CWEC.ddy', has an unexpected file extension. Was expecting 'idf'.\n[openstudio.model.YearDescription] <1> 'UseWeatherFile' is not yet a supported option for YearDescription\n[openstudio.model.YearDescription] <1> 'UseWeatherFile' is not yet a supported option for YearDescription\n[openstudio.EpwFile] <0> Successive data points (1985-Jan-31 to 1986-Feb-01, ending on line 753) are greater than 1 day apart in EPW file '/usr/local/bundle/bundler/gems/openstudio-standards-f448df66933d/openstudio-standards/data/weather/CAN_MB_The.Pas.718670_CWEC.epw'. Data will be treated as typical (TMY)\n[openstudio.setFileExtension] <0> Path p, '/usr/local/bundle/bundler/gems/openstudio-standards-f448df66933d/openstudio-standards/data/weather/CAN_MB_The.Pas.718670_CWEC.ddy', has an unexpected file extension. Was expecting 'idf'.\n[openstudio.model.YearDescription] <1> 'UseWeatherFile' is not yet a supported option for YearDescription\n[openstudio.model.YearDescription] <1> 'UseWeatherFile' is not yet a supported option for YearDescription\n[openstudio.setFileExtension] <0> Path p, '/usr/local/bundle/bundler/gems/openstudio-standards-f448df66933d/openstudio-standards/data/weather/CAN_MB_The.Pas.718670_CWEC.ddy', has an unexpected file extension. Was expecting 'idf'.\n[openstudio.model.YearDescription] <1> 'UseWeatherFile' is not yet a supported option for YearDescription\n[openstudio.model.YearDescription] <1> 'UseWeatherFile' is not yet a supported option for YearDescription\n[openstudio.EpwFile] <0> Successive data points (1985-Jan-31 to 1986-Feb-01, ending on line 753) are greater than 1 day apart in EPW file '/usr/local/bundle/bundler/gems/openstudio-standards-f448df66933d/openstudio-standards/data/weather/CAN_MB_The.Pas.718670_CWEC.epw'. Data will be treated as typical (TMY)\n[openstudio.setFileExtension] <0> Path p, '/usr/local/bundle/bundler/gems/openstudio-standards-f448df66933d/openstudio-standards/data/weather/CAN_MB_The.Pas.718670_CWEC.ddy', has an unexpected file extension. Was expecting 'idf'.\n[openstudio.model.YearDescription] <1> 'UseWeatherFile' is not yet a supported option for YearDescription\n[openstudio.model.YearDescription] <1> 'UseWeatherFile' is not yet a supported option for YearDescription\n[openstudio.setFileExtension] <0> Path p, '/usr/local/bundle/bundler/gems/openstudio-standards-f448df66933d/openstudio-standards/data/weather/CAN_MB_The.Pas.718670_CWEC.ddy', has an unexpected file extension. Was expecting 'idf'.\n[openstudio.model.YearDescription] <1> 'UseWeatherFile' is not yet a supported option for YearDescription\n[openstudio.model.YearDescription] <1> 'UseWeatherFile' is not yet a supported option for YearDescription\n[openstudio.EpwFile] <0> Successive data points (1985-Jan-31 to 1986-Feb-01, ending on line 753) are greater than 1 day apart in EPW file '/usr/local/bundle/bundler/gems/openstudio-standards-f448df66933d/openstudio-standards/data/weather/CAN_MB_The.Pas.718670_CWEC.epw'. Data will be treated as typical (TMY)\n[openstudio.setFileExtension] <0> Path p, '/usr/local/bundle/bundler/gems/openstudio-standards-f448df66933d/openstudio-standards/data/weather/CAN_MB_The.Pas.718670_CWEC.ddy', has an unexpected file extension. Was expecting 'idf'.\n[openstudio.model.YearDescription] <1> 'UseWeatherFile' is not yet a supported option for YearDescription\n[openstudio.model.YearDescription] <1> 'UseWeatherFile' is not yet a supported option for YearDescription\n[openstudio.setFileExtension] <0> Path p, '/usr/local/bundle/bundler/gems/openstudio-standards-f448df66933d/openstudio-standards/data/weather/CAN_MB_The.Pas.718670_CWEC.ddy', has an unexpected file extension. Was expecting 'idf'.\n[openstudio.model.YearDescription] <1> 'UseWeatherFile' is not yet a supported option for YearDescription\n[openstudio.model.YearDescription] <1> 'UseWeatherFile' is not yet a supported option for YearDescription\n[openstudio.EpwFile] <0> Successive data points (1985-Jan-31 to 1986-Feb-01, ending on line 753) are greater than 1 day apart in EPW file '/usr/local/bundle/bundler/gems/openstudio-standards-f448df66933d/openstudio-standards/data/weather/CAN_MB_The.Pas.718670_CWEC.epw'. Data will be treated as typical (TMY)\n[openstudio.setFileExtension] <0> Path p, '/usr/local/bundle/bundler/gems/openstudio-standards-f448df66933d/openstudio-standards/data/weather/CAN_MB_The.Pas.718670_CWEC.ddy', has an unexpected file extension. Was expecting 'idf'.\n[openstudio.model.YearDescription] <1> 'UseWeatherFile' is not yet a supported option for YearDescription\n[openstudio.model.YearDescription] <1> 'UseWeatherFile' is not yet a supported option for YearDescription\n[openstudio.setFileExtension] <0> Path p, '/usr/local/bundle/bundler/gems/openstudio-standards-f448df66933d/openstudio-standards/data/weather/CAN_MB_The.Pas.718670_CWEC.ddy', has an unexpected file extension. Was expecting 'idf'.\n[openstudio.model.YearDescription] <1> 'UseWeatherFile' is not yet a supported option for YearDescription\n[openstudio.model.YearDescription] <1> 'UseWeatherFile' is not yet a supported option for YearDescription\n[openstudio.EpwFile] <0> Successive data points (1985-Jan-31 to 1986-Feb-01, ending on line 753) are greater than 1 day apart in EPW file '/usr/local/bundle/bundler/gems/openstudio-standards-f448df66933d/openstudio-standards/data/weather/CAN_MB_The.Pas.718670_CWEC.epw'. Data will be treated as typical (TMY)\n[openstudio.setFileExtension] <0> Path p, '/usr/local/bundle/bundler/gems/openstudio-standards-f448df66933d/openstudio-standards/data/weather/CAN_MB_The.Pas.718670_CWEC.ddy', has an unexpected file extension. Was expecting 'idf'.\n[openstudio.model.YearDescription] <1> 'UseWeatherFile' is not yet a supported option for YearDescription\n[openstudio.model.YearDescription] <1> 'UseWeatherFile' is not yet a supported option for YearDescription\n[openstudio.setFileExtension] <0> Path p, '/usr/local/bundle/bundler/gems/openstudio-standards-f448df66933d/openstudio-standards/data/weather/CAN_MB_The.Pas.718670_CWEC.ddy', has an unexpected file extension. Was expecting 'idf'.\n[openstudio.model.YearDescription] <1> 'UseWeatherFile' is not yet a supported option for YearDescription\n[openstudio.model.YearDescription] <1> 'UseWeatherFile' is not yet a supported option for YearDescription\n[openstudio.EpwFile] <0> Successive data points (1985-Jan-31 to 1986-Feb-01, ending on line 753) are greater than 1 day apart in EPW file '/usr/local/bundle/bundler/gems/openstudio-standards-f448df66933d/openstudio-standards/data/weather/CAN_MB_The.Pas.718670_CWEC.epw'. Data will be treated as typical (TMY)\n[openstudio.setFileExtension] <0> Path p, '/usr/local/bundle/bundler/gems/openstudio-standards-f448df66933d/openstudio-standards/data/weather/CAN_MB_The.Pas.718670_CWEC.ddy', has an unexpected file extension. Was expecting 'idf'.\n[openstudio.model.YearDescription] <1> 'UseWeatherFile' is not yet a supported option for YearDescription\n[openstudio.model.YearDescription] <1> 'UseWeatherFile' is not yet a supported option for YearDescription\n[openstudio.setFileExtension] <0> Path p, '/usr/local/bundle/bundler/gems/openstudio-standards-f448df66933d/openstudio-standards/data/weather/CAN_MB_The.Pas.718670_CWEC.ddy', has an unexpected file extension. Was expecting 'idf'.\n[openstudio.model.YearDescription] <1> 'UseWeatherFile' is not yet a supported option for YearDescription\n[openstudio.model.YearDescription] <1> 'UseWeatherFile' is not yet a supported option for YearDescription\n[openstudio.standards.Fan] <0> For Fan Constant Volume 1, there is no greater nominal HP.  Use the efficiency of the largest motor category.\n[openstudio.standards.Fan] <0> For Fan Constant Volume 10, there is no greater nominal HP.  Use the efficiency of the largest motor category.\n[openstudio.standards.Fan] <0> For Fan Constant Volume 2, there is no greater nominal HP.  Use the efficiency of the largest motor category.\n[openstudio.standards.Fan] <0> For Fan Constant Volume 3, there is no greater nominal HP.  Use the efficiency of the largest motor category.\n[openstudio.standards.Fan] <0> For Fan Constant Volume 4, there is no greater nominal HP.  Use the efficiency of the largest motor category.\n[openstudio.standards.Fan] <0> For Fan Constant Volume 5, there is no greater nominal HP.  Use the efficiency of the largest motor category.\n[openstudio.standards.Fan] <0> For Fan Constant Volume 6, there is no greater nominal HP.  Use the efficiency of the largest motor category.\n[openstudio.standards.Fan] <0> For Fan Constant Volume 7, there is no greater nominal HP.  Use the efficiency of the largest motor category.\n[openstudio.standards.Fan] <0> For Fan Constant Volume 8, there is no greater nominal HP.  Use the efficiency of the largest motor category.\n[openstudio.standards.Fan] <0> For Fan Constant Volume 9, there is no greater nominal HP.  Use the efficiency of the largest motor category.\n",
            "step_errors" : [],
            "step_files" : [],
            "step_info" : [
               "Started adding geometry",
               "Finished adding geometry",
               "Started adding weather file for climate zone: NECB HDD Method.",
               "Template =",
               "Setting LGstore1 to Space Function.Retail - sales",
               "Setting LGstore2 to Space Function.Retail - sales",
               "Setting SMstore1 to Space Function.Retail - sales",
               "Setting SMstore2 to Space Function.Retail - sales",
               "Setting SMstore3 to Space Function.Retail - sales",
               "Setting SMstore4 to Space Function.Retail - sales",
               "Setting SMstore5 to Space Function.Retail - sales",
               "Setting SMstore6 to Space Function.Retail - sales",
               "Setting SMstore7 to Space Function.Retail - sales",
               "Setting SMstore8 to Space Function.Retail - sales",
               "Started applying space types (loads)",
               "Space Function Retail - sales had no people, one has been created.",
               "Space Function Retail - sales set occupancy to 3.1 people/1000 ft^2.",
               "Space Function Retail - sales had no lights, one has been created.",
               "Space Function Retail - sales set LPD to 1.681531029 W/ft^2.",
               "Space Function Retail - sales had no electric equipment, one has been created.",
               "Space Function Retail - sales set electric EPD to 0.232255667 W/ft^2.",
               "Space Function Retail - sales had no ventilation specification, one has been created.",
               "Space Function Retail - sales set ventilation per area to 0.233 cfm/ft^2.",
               "Space Function Retail - sales had no infiltration objects, one has been created.",
               "Space Function Retail - sales set infiltration to 0.0 per ft^2 exterior surface area.",
               "Space Function Retail - sales set occupancy schedule to NECB-C-Occupancy.",
               "Space Function Retail - sales set occupant activity schedule to NECB-Activity.",
               "Space Function Retail - sales set lighting schedule to NECB-C-Lighting.",
               "Space Function Retail - sales set electric equipment schedule to NECB-C-Electric-Equipment.",
               "Space Function Retail - sales set infiltration schedule to Always On.",
               "Space Function Retail - sales set heating setpoint schedule to NECB-C-Thermostat Setpoint-Heating.",
               "Space Function Retail - sales set cooling setpoint schedule to NECB-C-Thermostat Setpoint-Cooling.",
               "Finished applying space types (loads)",
               "Started applying constructions",
               "Adding construction set: NECB 2011-NECB HDD Method-StripMall--is_residentialNo",
               "Adding construction Typical Insulated Exterior Mass Floor R-15.63.",
               "Adding construction Typical Insulated Exterior Mass Wall R-12.5.",
               "Adding construction Typical Insulated Metal Building Roof R-20.41.",
               "Adding construction Typical Interior Floor.",
               "Adding construction Typical Interior Wall.",
               "Adding construction Typical Interior Ceiling.",
               "Adding construction Typical Insulated Carpeted 6in Slab Floor.",
               "Adding construction U 0.55 SHGC 0.31 Dbl Ref-D Tint 6mm/6mm Air.",
               "Adding construction Typical Insulated Metal Door R-1.43.",
               "Adding construction U 0.35 SHGC 0.35 Dbl LoE (e2-.1) Tint 6mm/13mm Air.",
               "Adding construction Typical Overhead Door R-2.0.",
               "Adding construction U 0.48 SHGC 0.40 Dbl Ref-D Clr 6mm/13mm.",
               "Adding construction Typical Interior Window.",
               "Adding construction Typical Interior Door.",
               "Adding construction Typical Interior Partition.",
               "Finished applying constructions",
               "WWR NonRes = 0%; window = 0 ft2, wall = 0 ft2.",
               "WWR Res = 0%; window = 0 ft2, wall = 0 ft2.",
               "WWR Semiheated = 0%; window = 0 ft2, wall = 0 ft2.",
               "The skylight to roof ratios (SRRs) are: NonRes: 0%, Res: 0%.",
               "Started creating thermal zones",
               "Finished creating thermal zones",
               "Running simulation /mnt/openstudio/analysis_4fef0e0f-5396-4c55-a6e1-2cd6803db3ab/data_point_2c2f833f-557c-4d4f-b862-7cff0f499cfa/run/000_create_prototype_building/output/RetailStripmall-NECB 2011-NECB HDD Method-CAN_MB_The.Pas.718670_CWEC.epw/SR0.",
               "Finished run.",
               "Started Adding HVAC",
               "Finished adding HVAC",
               "Started Adding Service Water Heating",
               "Adding service water loop.",
               "Adding water heater.",
               "Template =",
               "Finished adding Service Water Heating",
               "Set sizing factors to 1.3 for heating and 1.3 for cooling.",
               "Running simulation /mnt/openstudio/analysis_4fef0e0f-5396-4c55-a6e1-2cd6803db3ab/data_point_2c2f833f-557c-4d4f-b862-7cff0f499cfa/run/000_create_prototype_building/output/RetailStripmall-NECB 2011-NECB HDD Method-CAN_MB_The.Pas.718670_CWEC.epw/SR1.",
               "Finished run.",
               "Started applying multizone vav OA sizing.",
               "Finished applying multizone vav OA sizing.",
               "Started applying prototype HVAC assumptions.",
               "For Fan Constant Volume 1: allowed_hp = 1.67HP; motor eff = 61.5%; total fan eff = 40% based on 2437 cfm.",
               "For Fan Constant Volume 10: allowed_hp = 1.7HP; motor eff = 61.5%; total fan eff = 40% based on 2488 cfm.",
               "For Fan Constant Volume 2: allowed_hp = 1.01HP; motor eff = 61.5%; total fan eff = 40% based on 1256 cfm.",
               "For Fan Constant Volume 3: allowed_hp = 1.01HP; motor eff = 61.5%; total fan eff = 40% based on 1282 cfm.",
               "For Fan Constant Volume 4: allowed_hp = 1.01HP; motor eff = 61.5%; total fan eff = 40% based on 1257 cfm.",
               "For Fan Constant Volume 5: allowed_hp = 1.01HP; motor eff = 61.5%; total fan eff = 40% based on 1256 cfm.",
               "For Fan Constant Volume 6: allowed_hp = 1.01HP; motor eff = 61.5%; total fan eff = 40% based on 1256 cfm.",
               "For Fan Constant Volume 7: allowed_hp = 1.01HP; motor eff = 61.5%; total fan eff = 40% based on 1277 cfm.",
               "For Fan Constant Volume 8: allowed_hp = 1.01HP; motor eff = 61.5%; total fan eff = 40% based on 1277 cfm.",
               "For Fan Constant Volume 9: allowed_hp = 1.01HP; motor eff = 61.5%; total fan eff = 40% based on 1292 cfm.",
               "Sp-SMstore4 Sys-3 Flr-1 Sch-C HPlcmt-north ZN NECB System 3 PSZ does not require an economizer because the total cooling capacity of 35944 Btu/hr is less than the minimum capacity of 68243 Btu/hr.",
               "Sp-SMstore2 Sys-3 Flr-1 Sch-C HPlcmt-north ZN NECB System 3 PSZ does not require an economizer because the total cooling capacity of 35461 Btu/hr is less than the minimum capacity of 68243 Btu/hr.",
               "Sp-SMstore7 Sys-3 Flr-1 Sch-C HPlcmt-north ZN NECB System 3 PSZ does not require an economizer because the total cooling capacity of 35485 Btu/hr is less than the minimum capacity of 68243 Btu/hr.",
               "Sp-SMstore3 Sys-3 Flr-1 Sch-C HPlcmt-north ZN NECB System 3 PSZ does not require an economizer because the total cooling capacity of 35452 Btu/hr is less than the minimum capacity of 68243 Btu/hr.",
               "Sp-LGstore1 Sys-3 Flr-1 Sch-C HPlcmt-west ZN NECB System 3 PSZ requires an economizer because the total cooling capacity of 70360 Btu/hr exceeds the minimum capacity of 68243 Btu/hr.",
               "Sp-LGstore2 Sys-3 Flr-1 Sch-C HPlcmt-north ZN NECB System 3 PSZ requires an economizer because the total cooling capacity of 69022 Btu/hr exceeds the minimum capacity of 68243 Btu/hr.",
               "Sp-SMstore8 Sys-3 Flr-1 Sch-C HPlcmt-east ZN NECB System 3 PSZ does not require an economizer because the total cooling capacity of 36437 Btu/hr is less than the minimum capacity of 68243 Btu/hr.",
               "Sp-SMstore1 Sys-3 Flr-1 Sch-C HPlcmt-north ZN NECB System 3 PSZ does not require an economizer because the total cooling capacity of 36038 Btu/hr is less than the minimum capacity of 68243 Btu/hr.",
               "Sp-SMstore6 Sys-3 Flr-1 Sch-C HPlcmt-north ZN NECB System 3 PSZ does not require an economizer because the total cooling capacity of 35455 Btu/hr is less than the minimum capacity of 68243 Btu/hr.",
               "Sp-SMstore5 Sys-3 Flr-1 Sch-C HPlcmt-north ZN NECB System 3 PSZ does not require an economizer because the total cooling capacity of 35944 Btu/hr is less than the minimum capacity of 68243 Btu/hr.",
               "Finished applying prototype HVAC assumptions.",
               "Started applying HVAC efficiency standards.",
               "For Sp-LGstore1 Sys-3 Flr-1 Sch-C HPlcmt-west ZN NECB System 3 PSZ, ERV not required based on 0% OA flow, design supply air flow of 2488cfm, and climate zone NECB HDD Method.",
               "For Sp-LGstore1 Sys-3 Flr-1 Sch-C HPlcmt-west ZN NECB System 3 PSZ, ERV not required based on exhaust heat content.",
               "For NECB 2011 NECB HDD Method:  Sp-LGstore1 Sys-3 Flr-1 Sch-C HPlcmt-west ZN NECB System 3 PSZ: DCV is not required for any system.",
               "For Sp-LGstore1 Sys-3 Flr-1 Sch-C HPlcmt-west ZN NECB System 3 PSZ: Annual occupied hours = 4168 hr/yr, assuming a 0.15 occupancy threshold.  This schedule will be used as the HVAC operation schedule.",
               "For Sp-LGstore1 Sys-3 Flr-1 Sch-C HPlcmt-west ZN NECB System 3 PSZ: Because the system has an economizer, it requires a motorized OA damper.",
               "For Sp-LGstore1 Sys-3 Flr-1 Sch-C HPlcmt-west ZN NECB System 3 PSZ: Setting motorized OA damper schedule to Sp-LGstore1 Sys-3 Flr-1 Sch-C HPlcmt-west ZN NECB System 3 PSZ Occ Sch.",
               "For Sp-LGstore2 Sys-3 Flr-1 Sch-C HPlcmt-north ZN NECB System 3 PSZ, ERV not required based on 0% OA flow, design supply air flow of 2437cfm, and climate zone NECB HDD Method.",
               "For Sp-LGstore2 Sys-3 Flr-1 Sch-C HPlcmt-north ZN NECB System 3 PSZ, ERV not required based on exhaust heat content.",
               "For NECB 2011 NECB HDD Method:  Sp-LGstore2 Sys-3 Flr-1 Sch-C HPlcmt-north ZN NECB System 3 PSZ: DCV is not required for any system.",
               "For Sp-LGstore2 Sys-3 Flr-1 Sch-C HPlcmt-north ZN NECB System 3 PSZ: Annual occupied hours = 4168 hr/yr, assuming a 0.15 occupancy threshold.  This schedule will be used as the HVAC operation schedule.",
               "For Sp-LGstore2 Sys-3 Flr-1 Sch-C HPlcmt-north ZN NECB System 3 PSZ: Because the system has an economizer, it requires a motorized OA damper.",
               "For Sp-LGstore2 Sys-3 Flr-1 Sch-C HPlcmt-north ZN NECB System 3 PSZ: Setting motorized OA damper schedule to Sp-LGstore2 Sys-3 Flr-1 Sch-C HPlcmt-north ZN NECB System 3 PSZ Occ Sch.",
               "For Sp-SMstore1 Sys-3 Flr-1 Sch-C HPlcmt-north ZN NECB System 3 PSZ, ERV not required based on 0% OA flow, design supply air flow of 1282cfm, and climate zone NECB HDD Method.",
               "For Sp-SMstore1 Sys-3 Flr-1 Sch-C HPlcmt-north ZN NECB System 3 PSZ, ERV not required based on exhaust heat content.",
               "For NECB 2011 NECB HDD Method:  Sp-SMstore1 Sys-3 Flr-1 Sch-C HPlcmt-north ZN NECB System 3 PSZ: DCV is not required for any system.",
               "For Sp-SMstore1 Sys-3 Flr-1 Sch-C HPlcmt-north ZN NECB System 3 PSZ: Annual occupied hours = 4168 hr/yr, assuming a 0.15 occupancy threshold.  This schedule will be used as the HVAC operation schedule.",
               "For Sp-SMstore1 Sys-3 Flr-1 Sch-C HPlcmt-north ZN NECB System 3 PSZ: Setting motorized OA damper schedule to Sp-SMstore1 Sys-3 Flr-1 Sch-C HPlcmt-north ZN NECB System 3 PSZ Occ Sch.",
               "For Sp-SMstore2 Sys-3 Flr-1 Sch-C HPlcmt-north ZN NECB System 3 PSZ, ERV not required based on 0% OA flow, design supply air flow of 1256cfm, and climate zone NECB HDD Method.",
               "For Sp-SMstore2 Sys-3 Flr-1 Sch-C HPlcmt-north ZN NECB System 3 PSZ, ERV not required based on exhaust heat content.",
               "For NECB 2011 NECB HDD Method:  Sp-SMstore2 Sys-3 Flr-1 Sch-C HPlcmt-north ZN NECB System 3 PSZ: DCV is not required for any system.",
               "For Sp-SMstore2 Sys-3 Flr-1 Sch-C HPlcmt-north ZN NECB System 3 PSZ: Annual occupied hours = 4168 hr/yr, assuming a 0.15 occupancy threshold.  This schedule will be used as the HVAC operation schedule.",
               "For Sp-SMstore2 Sys-3 Flr-1 Sch-C HPlcmt-north ZN NECB System 3 PSZ: Setting motorized OA damper schedule to Sp-SMstore2 Sys-3 Flr-1 Sch-C HPlcmt-north ZN NECB System 3 PSZ Occ Sch.",
               "For Sp-SMstore3 Sys-3 Flr-1 Sch-C HPlcmt-north ZN NECB System 3 PSZ, ERV not required based on 0% OA flow, design supply air flow of 1256cfm, and climate zone NECB HDD Method.",
               "For Sp-SMstore3 Sys-3 Flr-1 Sch-C HPlcmt-north ZN NECB System 3 PSZ, ERV not required based on exhaust heat content.",
               "For NECB 2011 NECB HDD Method:  Sp-SMstore3 Sys-3 Flr-1 Sch-C HPlcmt-north ZN NECB System 3 PSZ: DCV is not required for any system.",
               "For Sp-SMstore3 Sys-3 Flr-1 Sch-C HPlcmt-north ZN NECB System 3 PSZ: Annual occupied hours = 4168 hr/yr, assuming a 0.15 occupancy threshold.  This schedule will be used as the HVAC operation schedule.",
               "For Sp-SMstore3 Sys-3 Flr-1 Sch-C HPlcmt-north ZN NECB System 3 PSZ: Setting motorized OA damper schedule to Sp-SMstore3 Sys-3 Flr-1 Sch-C HPlcmt-north ZN NECB System 3 PSZ Occ Sch.",
               "For Sp-SMstore4 Sys-3 Flr-1 Sch-C HPlcmt-north ZN NECB System 3 PSZ, ERV not required based on 0% OA flow, design supply air flow of 1277cfm, and climate zone NECB HDD Method.",
               "For Sp-SMstore4 Sys-3 Flr-1 Sch-C HPlcmt-north ZN NECB System 3 PSZ, ERV not required based on exhaust heat content.",
[...]
56tWrxECyAh9wZMQu4MmITcFzAJ2VbBJGRbBZOQbRVMQrZVMAnZVsEkSmwVTkNebnEasq3Caci2Cqch2yqchmyrcBqyrcJpyLYKpyHbKpyGbKtw9W8L87zEVuE0tlDIS2wVTmO9Ul75KpJ6tmrxrhKAhNwbMAm5M2AScl/AJGRbBZOQbRVMQrZVMAnZVsEkZFsFkyixVTgNebnFaci2Cqch2yqchmyrcBqyrcJpyLYKpyHbKpyGbKtwGrKtwtW/LczzEluF09hCIS+xVTiN9Up55Y7v9WzVYkt4gITcGzAJuTNgEnJfwCRkWwWTkG0VTEK2VTAJ2VbBJGRbBZMosVU4DXm5xWnItgqnIdsqnIZsq3Aasq3Caci2Cqch2yqchmyrcBqyrcLVvy3M8xJbhdPYQiEvsVU4jfVKeeXGuvVs1WLnXYCE3BswCbkzYBJyX8AkZFsFk5BtFUxCtlUwCdlWwSRkWwWTKLFVOA15ucVpyLYKpyHbKpyGbKtwGrKtwmnItgqnIdsqnIZsq3Aasq3C1b8tzPMSW4XT2EIhL7FVOI31Snnl/oX1bNVig0OAhNwbMAm5M2AScl/AJGRbBZOQbRVMQrZVMAnZVsEkZFsFkyjdbA2lIS+3OI2yjaxQGmV7XKE0yra/QmmU7fmG0ijbDg6lUbZTHEqjbBM5lEbZ/nKo+reFeV66Kx1KYwuFvMRW4TSqS/mXOju8LrduVqcq0rerDWSLfWMb6c24WewAW7lV7Gr/51RnL+JZ5KeNfqepXLffVD3zt26/3nazdznG/bbWvj/wMj2Ok/nzuyBd7J98f/81NpnOE7xPfJ18nJntjGtfaDjmjzneai+dJXqBYXZkXrb7hjf4ZphhhhlmmGGGGWaYYYYZZphhhhlmmGGGGWaYYYYZZphhhhlmmGGGGWaYYYYZZphhhhlmmGGGGWaYYYYZZphhhhlmmGGGGWb4LxWet+MbnSSBr9965sFat935P59XNY/Gpo8fjT3XSaDT5eO1TnP1APE0jLN2GES68hHZ9EfP6VY/WZu2i1fPT+PQy4I4yqGcNNPT1qUexYl26j35/EaPdeQ/vqHFucZBp6l65snljnmQ2fzhhHqUGbCK1Ku07Yuxzs6izLRPLjGaRcOCtLGr/qxIsSLU91d/rnyW2xzBSDWySZC206JX6gmZ48FF7bz9zrzhpPFfYNtsK3zz6HjOvsx7MY3TwCR8mZ+uczerw6T5AVUS39ohrbCCyNdmPrTcpuXVq+Nq3QtHgQ7NeGss23QxT8ZJPJtqX/38s/rb8vxd+2Lipcvn380E230Ynf8wmjdI2xuPXxmNdqijcTZRz1RX/VM5z8PQUSePP5GGwVA3Wu7u586X3cr59t2dxIlqXOW30vlFXeUyy6G61DXn/p6vOPYdZA4zjJf5Pl99aX/Vc3V6erpovPUyFlmX3X5le6ur4zLR3td1Lv5meY3t5017Le/u1AxrMxiWI6XYyKF94aVpMI60PzBbRKSfi5b8sl5Trjp6OksnjXX7Iu/Sk0V/rj+TwvCkzl22zSfXVUmzJP6q6+ksPruuUjz1hkE2rye1/PDad1VIrKTWzbJaSB4vK+tMD+vFxxyr6fx44VEt5dpms5lu9Vm/NYuqWuvz36o8hTn29tSH3z+pf7///aM6f//x02/vflVv3v/620C9Pvt4Vi/Bq3zV1neesWgqi1UaJ5mKZtf5OBiqYkuTVHnpMDcvQTSukXHV9ibPg8rsNdVl/cUl0dksidTUS1L9Koy9rOGZJX8378oH5y6Lc7Uas9qiPZBd3kJV4m+b3enl3n8W072Y7I0dX4+8WZipaRLna5jeaaqdn46OBoOzs50NbzxDHOIQhzjEIQ5xiEMc4hCHOH9NHJXOrvN/Aitfm5PK9+aGKNE+aUhDGtKQhjSkIQ1pSEMa0pCmnOa2+K9Z/0NzGc40cYhDHOIQhzjEIQ5xiEMc4hBnHZz79wa65r2B5zPpvYE9t/iF7fnz/f3jY5KSlKQkJSlJSUpSkpKUpCQlKUlJ+jRIuwWpl0mknYK01+t2jw5ISlKSkpSkJCUpSUlKUpKSlKQkJenTIO0Z0ldJIJB2jwtS1z087PVISlKSkpSkJCUpSUlKUpKSlKQkJenTIN03pJ8mM4n0qCA9zo/+C5KSlKQkJSlJSUpSkpKUpCQlKUlJ+jRI+4b0X9qXSA8L0pcvB4PDQ5KSlKQkJSlJSUpSkpKUpCQlKUlJ+jRID4pvJmZaIj0oSAeDgwOSkpSkJCUpSUlKUpKSlKQkJSlJSfpUSA8N6dtY2lmw2y9Ij4663X6fpCQlKUlJSlKSkpSkJCUpSUlKUpJujXSF4ifebaMy2V07C7JQn0+8qW5n+i5r7LyOZ0lajTH//sqXwbWO0iCOQp0WGSpS7O2p576vPFVkUrdBNlFpfK2V36u4Mr0Zt73pVEd+wzHazm7FBauj7WVZ0nDunKY66FheNM8v6ta/KM3moV7gtbxoOImT/Hon1CML2mWOURxlrVsdjCeZyXEZh379HIu+OZ+2zt+mWZzofXU+T1s99SpMWq46H05aA/X6Qzi8zlpRnORd8Mc79e5s8MJ8LNPXqqc+nP+h3g+H5rM7u2Wd+mwvHSbBNPuH+Jlne35w8+OweI2cLM+lAv/UGZoRP8gbyQsinVz0+44qWu7U8YN0GnrzkyAK81DrMoyHX39xZL486eIWVDaf5tebxtu78m68xdnSK81x4yVmcKpT5QfX01C3I317fjNuOD99z9hU+51O8UflZDNpfS/z8ryf/3RC71KHzonj65E3CzM1TeJREGqnuYhc3DknbrvTdG68cKaXfx+aNSm/Jl9mBoOzM+dbs1aeLihPD5RnH5SnD8pzAMpzCMpzBMpzDMrjdlCJUCPaRQ1pFzWmXdSgdlGj2kUNaxc1rl3UwHZRI7uLGtld2FqNGtld1MjuWo1slc6urx+9pLpWRUu0b5FGbCO7NGIL2aUR28cujTjv7dKIs94ujTjn7dKIM94ujTjf7dLIhcwyD2gcy2XMMg9oJMtFzDIPaCzLJcwyD2g0ywXMMg9oPMvlyzIPal0GjWe5dlnmqT+eb4Mosy9bl+ZU/Txi81jmEZvHMo/YPJZ5xOlumUec7pZ5xOlumUec7pZ5xOlumUeuX7aJUCNarmC2iVBjWq5htolQo1quYraJUONarmO2iVAjW65ktolgazVqZMvFzDZR/ZF9/6tF5VuFpTLXefQPvcVrhwES3c1L9DYvsb95if7mJQ42L3G4eYmjzUscb17iUWXflMYW5nfJF7M4DfmbLZyG/KUXTkP+phenIX8JjNOQvx/GachfHeM05G+VcfVvC/O8u406voVC3t1CJe+uV8orX95Yz1Yt3u4IkJB7AyYhdwZMQu4LmIRsq2ASsq2CSci2CiYh2yqYhGyrYBIlv1zjNOSf/nAasq3Caci2Cqch2yqchmyrcBqyrcJpyLYKpyHbKpyGbKtw9W8L87zkJ36cxhYKeYmtwmmsV8or35FVz1YtXqIFkJB7AyYhdwZMQu4LmIRsq2ASsq2CSci2CiYh2yqYhGyrYBIltgqnIS+3OA3ZVuE0ZFuF05BtFU5DtlU4DdlW4TRkW4XTkG0VTkO2Vbj6t4V5XmKrcBpbKOQltgqnsV4pr3wVST1btXhXCUBC7g2YhNwZMAm5L2ASsq2CSci2CiYh2yqYhGyrYBKyrYJJlNgqnIa83OI0ZFuF05BtFU5DtlU4DdlW4TRkW4XTkG0VTkO2VTgN2Vbh6t8W5nmJrcJpbKGQl9gqnMZ6pbxyx/d6tmqxJTxAQu4NmITcGTAJuS9gErKtgknItgomIdsqmIRsq2ASsq2CSZTYKpyGvNziNGRbhdOQbRVOQ7ZVOA3ZVuE0ZFuF05BtFU5DtlU4DdlW4erfFuZ5ia3CaWyhkJfYKpzGeqW8cmPderZqsfMuQELuDZiE3BkwCbkvYBKyrYJJyLYKJiHbKpiEbKtgErKtgkmU2Cqchrzc4jRkW4XTkG0VTkO2VTgN2VbhNGRbhdOQbRVOQ7ZVOA3ZVuHq3xbmeYmtwmlsoZCX2CqcxnqlvHL/wnq2arHBIUBC7g2YhNwZMAm5L2ASsq2CSci2CiYh2yqYhGyrYBKyrYJJlG62htKQl1ucRtlGViiNsj2uUBpl21+hNMr2fENplG0Hh9Io2ykOpVG2iRxKo2x/OVT928I8L92VDqWxhUJeYqtwGtWl/EudHV6XWzerUxXp29UGssW+sY30ZtwsdoCt3Cp2tf9zqrMX8Szy00a/01Su22+qnvlbt19vu9m7HON+W2vfH3iZHsfJ/PldkC72T76//xqbTOcJ3ie+Tj7OzHbGtS80HPPHHG+1l84SvcAwOzIv233DG3wzzDDDDDPMMMMMM8wwwwwzzDDDDDPMMMMMM8wwwwwzzDDDDDPMMMMMM8wwwwwzzDDDDDPMMMMMM8wwwwwzzDDDDDPMMMMMM/yXCs/b8Y1OksDXbz3zYK3b7vyfz6uaR2PTx4/Gnusk0Ony8VqnuXqAeBrGWTsMIl35iGz6o+d0q5+sTdvFq+encehlQRzlUE6a6WnrUo/iRDv1nnx+o8c68h/f0OJc46DTVD3z5HLHPMhs/nBCPcoMWEXqVdr2xVhnZ1Fm2ieXGM2iYUHa2FV/VqRYEer7qz9XPsttjmCkGtkkSNtp0Sv1hMzx4KJ23n5n3nDS+C+wbbYVvnl0PGdf5r2YxmlgEr7MT9e5m9Vh0vyAKolv7ZBWWEHkazMfWm7T8urVcbXuhaNAh2a8NZZtupgn4ySeTbWvfv5Z/W15/q59MfHS5fPvZoLtPozOfxjNG6TtjcevjEY71NE4m6hnqqv+qZznYeiok8efSMNgqBstd/dz58tu5Xz77k7iRDWu8lvp/KKucpnlUF3qmnN/z1cc+w4yhxnGy3yfr760v+q5Oj09XTTeehmLrMtuv7K91dVxmWjv6zoXf7O8xvbzpr2Wd3dqhrUZDMuRUmzk0L7w0jQYR9ofmC0i0s9FS35ZrylXHT2dpZPGun2Rd+nJoj/Xn0lheFLnLtvmk+uqpFkSf9X1dBafXVcpnnrDIJvXk1p+eO27KiRWUutmWS0kj5eVdaaH9eJjjtV0frzwqJZybbPZTLf6rN+aRVWt9flvVZ7CHHt76sPvn9S/3//+UZ2///jpt3e/qjfvf/1toF6ffTyrl+BVvmrrO89YNJXFKo2TTEWz63wcDFWxpUmqvHSYm5cgGtfIuGp7k+dBZfaa6rL+4pLobJZEauolqX4Vxl7W8MySv5t35YNzl8W5Wo1ZbdEeyC5voSrxt83u9HLvP4vpXkz2xo6vR94szNQ0ifM1TO801c5PR0eDwdnZzoY3niEOcYhDHOIQhzjEIQ5xiEOcvyaOSmfX+T+Bla/NSeV7c0OUaJ80pCENaUhDGtKQhjSkIQ1pSFNOc1v816z/obkMZ5o4xCEOcYhDHOIQhzjEIQ5xiLMOzv17A13z3sDzmfTewJ5b/ML2/Pn+/vExSUlKUpKSlKQkJSlJSUpSkpKUpCR9GqTdgtTLJNJOQdrrdbtHByQlKUlJSlKSkpSkJCUpSUlKUpKS9GmQ9gzpqyQQSLvHBanrHh72eiQlKUlJSlKSkpSkJCUpSUlKUpKS9GmQ7hvST5OZRHpUkB7nR/8FSUlKUpKSlKQkJSlJSUpSkpKUpCR9GqR9Q/ov7UukhwXpy5eDweEhSUlKUpKSlKQkJSlJSUpSkpKUpCR9GqQHxTcTMy2RHhSkg8HBAUlJSlKSkpSkJCUpSUlKUpKSlKQkfSqkh4b0bSztLNjtF6RHR91uv09SkpKUpCQlKUlJSlKSkpSkJCUpSbdGukLxE++2UZnsrp0FWajPJ95UtzN9lzV2XsezJK3GmH9/5cvgWkdpEEehTosMFSn29tRz31eeKjKp2yCbqDS+1srvVVyZ3ozb3nSqI7/hGG1nt+KC1dH2sixpOHdOUx10LC+a5xd161+UZvNQL/BaXjScxEl+vRPqkQXtMscojrLWrQ7Gk8zkuIxDv36ORd+cT1vnb9MsTnRfnc/TVk+9CpOWq86Hk9ZAvf4QDq+zVhQneRf88U69Oxu8MB/L9LXqqQ/nf6j3w6H57M5uWac+20uHSTDN/iF+5tmeH9z8OCxeIyfLc6nAP3WGZsQP8kbygkgnF/0DRxUtd+r4QToNvflJEIV5qHUZxsOvvzgyX550cQsqm0/z603j7V15N97ibOmV5rjxEjM41anyg+tpqNuRvj2/GTecn75nbKr9Tqf4o3KymbS+l3l53s9/OqF3qUPnxPH1yJuFmZom8SgItdNcRC7unBO33Wk6N14408u/D82alF+TLzODwdmZ861ZK08XlKcHyrMPytMH5TkA5TkE5TkC5TkG5XE7qESoEe2ihrSLGtMualC7qFHtooa1ixrXLmpgu6iR3UWN7C5srUaN7C5qZHetRrZKZ9fXj15SXauiJdq3SCO2kV0asYXs0ojtY5dGnPd2acRZb5dGnPN2acQZb5dGnO92aeRCZpkHNI7lMmaZBzSS5SJmmQc0luUSZpkHNJrlAmaZBzSe5fJlmQe1LoPGs1y7LPPUH8+3QZTZl61Lc6p+HrF5LPOIzWOZR2weyzzidLfMI053yzzidLfMI053yzzidLfMI9cv20SoES1XMNtEqDEt1zDbRKhRLVcx20SocS3XMdtEqJEtVzLbRLC1GjWy5WJmm6j+yL7/1aLyrcJSmes8+ofe4rXDAInu5iV6m5fY37xEf/MSB5uXONy8xNHmJY43L/Gosm9KYwvzu+SLWZyG/M0WTkP+0gunIX/Ti9OQvwTGacjfD+M05K+OcRryt8q4+reFed7dRh3fQiHvbqGSd9cr5ZUvb6xnqxZvdwRIyL0Bk5A7AyYh9wVMQrZVMAnZVsEkZFsFk5BtFUxCtlUwiZJfrnEa8k9/OA3ZVuE0ZFuF05BtFU5DtlU4DdlW4TRkW4XTkG0VTkO2Vbj6t4V5XvITP05jC4W8xFbhNNYr5ZXvyKpnqxYv0QJIyL0Bk5A7AyYh9wVMQrZVMAnZVsEkZFsFk5BtFUxCtlUwiRJbhdOQl1uchmyrcBqyrcJpyLYKpyHbKpyGbKtwGrKtwmnItgqnIdsqXP3bwjwvsVU4jS0U8hJbhdNYr5RXvoqknq1avKsEICH3BkxC7gyYhNwXMAnZVsEkZFsFk5BtFUxCtlUwCdlWwSRKbBVOQ15ucRqyrcJpyLYKpyHbKpyGbKtwGrKtwmnItgqnIdsqnIZsq3D1bwvzvMRW4TS2UMhLbBVOY71SXrnjez1btdgSHiAh9wZMQu4MmITcFzAJ2VbBJGRbBZOQbRVMQrZVMAnZVsEkSmwVTkNebnEasq3Caci2Cqch2yqchmyrcBqyrcJpyLYKpyHbKpyGbKtw9W8L87zEVuE0tlDIS2wVTmO9Ul65sW49W7XYeRcgIfcGTELuDJiE3BcwCdlWwSRkWwWTkG0VTEK2VTAJ2VbBJEpsFU5DXm5xGrKtwmnItgqnIdsqnIZsq3Aasq3Caci2Cqch2yqchmyrcPVvC/O8xFbhNLZQyEtsFU5jvVJeuX9hPVu12OAQICH3BkxC7gyYhNwXMAnZVsEkZFsFk5BtFUxCtlUwCdlWwSRKN1tDacjLLU6jbCMrlEbZHlcojbLtr1AaZXu+oTTKtoNDaZTtFIfSKNtEDqVRtr8cqv5tYZ6X7kqH0thCIS+xVTiN6lL+pc4Or8utm9WpivTtagPZYt/YRnozbhY7wFZuFbva/znV2Yt4Fvlpo99pKtftN1XP/K3br7fd7F2Ocb+tte8PvEyP42T+/C5IF/sn399/jU2m8wTvE18nH2dmO+PaFxqO+WOOt9pLZ4leYJgdmZftvuENvhlmmGGGGWaYYYYZZphhhhlmmGGGGWaYYYYZZphhhhlmmGGGGWaYYYYZZphhhhlmmGGGGWaYYYYZZphhhhlmmGGGGWaYYYYZ/kuF5+34RidJ4Ou3nnmw1m13/s/nVc2jsenjR2PPdRLodPl4rdNcPUA8DeOsHQaRrnxENv3Rc7rVT9am7eLV89M49LIgjnIoJ830tHWpR3GinXpPPr/RYx35j29oca5x0GmqnnlyuWMeZDZ/OKEeZQasIvUqbftirLOzKDPtk0uMZtGwIG3sqj8rUqwI9f3Vnyuf5TZHMFKNbBKk7bTolXpC5nhwUTtvvzNvOGn8F9g22wrfPDqesy/zXkzjNDAJX+an69zN6jBpfkCVxLd2SCusIPK1mQ8tt2l59eq4WvfCUaBDM94ayzZdzJNxEs+m2lc//6z+tjx/176YeOny+XczwXYfRuc/jOYN0vbG41dGox3qaJxN1DPVVf9UzvMwdNTJ40+kYTDUjZa7+7nzZbdyvn13J3GiGlf5rXR+UVe5zHKoLnXNub/nK459B5nDDONlvs9XX9pf9Vydnp4uGm+9jEXWZbdf2d7q6rhMtPd1nYu/WV5j+3nTXsu7OzXD2gyG5UgpNnJoX3hpGowj7Q/MFhHp56Ilv6zXlKuOns7SSWPdvsi79GTRn+vPpDA8qXOXbfPJdVXSLIm/6no6i8+uqxRPvWGQzetJLT+89l0VEiupdbOsFpLHy8o608N68THHajo/XnhUS7m22WymW33Wb82iqtb6/LcqT2GOvT314fdP6t/vf/+ozt9//PTbu1/Vm/e//jZQr88+ntVL8CpftfWdZyyaymKVxkmmotl1Pg6GqtjSJFVeOszNSxCNa2Rctb3J86Aye011WX9xSXQ2SyI19ZJUvwpjL2t4ZsnfzbvywbnL4lytxqy2aA9kl7dQlfjbZnd6ufefxXQvJntjx9cjbxZmaprE+Rqmd5pq56ejo8Hg7GxnwxvPEIc4xCEOcYhDHOIQhzjEIc5fE0els+v8n8DK1+ak8r25IUq0TxrSkIY0pCENaUhDGtKQhjSkKae5Lf5r1v/QXIYzTRziEIc4xCEOcYhDHOIQhzjEWQfn/r2Brnlv4PlMem9gzy1+YXv+fH//+JikJCUpSUlKUpKSlKQkJSlJSUpSkj4N0m5B6mUSaacg7fW63aMDkpKUpCQlKUlJSlKSkpSkJCUpSUn6NEh7hvRVEgik3eOC1HUPD3s9kpKUpCQlKUlJSlKSkpSkJCUpSUn6NEj3DemnyUwiPSpIj/Oj/4KkJCUpSUlKUpKSlKQkJSlJSUpSkj4N0r4h/Zf2JdLDgvTly8Hg8JCkJCUpSUlKUpKSlKQkJSlJSUpSkj4N0oPim4mZlkgPCtLB4OCApCQlKUlJSlKSkpSkJCUpSUlKUpI+FdJDQ/o2lnYW7PYL0qOjbrffJylJSUpSkpKUpCQlKUlJSlKSkpSkWyNdofiJd9uoTHbXzoIs1OcTb6rbmb7LGjuv41mSVmPMv7/yZXCtozSIo1CnRYaKFHt76rnvK08VmdRtkE1UGl9r5fcqrkxvxm1vOtWR33CMtrNbccHqaHtZljScO6epDjqWF83zi7r1L0qzeagXeC0vGk7iJL/eCfXIgnaZYxRHWetWB+NJZnJcxqFfP8eib86nrfO3aRYn+kCdz9NWT70Kk5arzoeT1kC9/hAOr7NWFCd5F/zxTr07G7wwH8v0teqpD+d/qPfDofnszm5Zpz7bS4dJMM3+IX7m2Z4f3Pw4LF4jJ8tzqcA/dYZmxA/yRvKCSCcX/UNHFS136vhBOg29+UkQhXmodRnGw6+/ODJfnnRxCyqbT/PrTePtXXk33uJs6ZXmuPESMzjVqfKD62mo25G+Pb8ZN5yfvmdsqv1Op/ijcrKZtL6XeXnez386oXepQ+fE8fXIm4WZmibxKAi101xELu6cE7fdaTo3XjjTy78PzZqUX5MvM4PB2ZnzrVkrTxeUpwfKsw/K0wflOQDlOQTlOQLlOQblcTuoRKgR7aKGtIsa0y5qULuoUe2ihrWLGtcuamC7qJHdRY3sLmytRo3sLmpkd61Gtkpn19ePXlJdq6Il2rdII7aRXRqxhezSiO1jl0ac93ZpxFlvl0ac83ZpxBlvl0ac73Zp5EJmmQc0juUyZpkHNJLlImaZBzSW5RJmmQc0muUCZpkHNJ7l8mWZB7Uug8azXLss89Qfz7dBlNmXrUtzqn4esXks84jNY5lHbB7LPOJ0t8wjTnfLPOJ0t8wjTnfLPOJ0t8wj1y/bRKgRLVcw20SoMS3XMNtEqFEtVzHbRKhxLdcx20SokS1XMttEsLUaNbLlYmabqP7Ivv/VovKtwlKZ6zz6h97itcMAie7mJXqbl9jfvER/8xIHm5c43LzE0eYljjcv8aiyb0pjC/O75ItZnIb8zRZOQ/7SC6chf9OL05C/BMZpyN8P4zTkr45xGvK3yrj6t4V53t1GHd9CIe9uoZJ31yvllS9vrGerFm93BEjIvQGTkDsDJiH3BUxCtlUwCdlWwSRkWwWTkG0VTEK2VTCJkl+ucRryT384DdlW4TRkW4XTkG0VTkO2VTgN2VbhNGRbhdOQbRVOQ7ZVuPq3hXle8hM/TmMLhbzEVuE01ivlle/IqmerFi/RAkjIvQGTkDsDJiH3BUxCtlUwCdlWwSRkWwWTkG0VTEK2VTCJEluF05CXW5yGbKtwGrKtwmnItgqnIdsqnIZsq3Aasq3Caci2Cqch2ypc/dvCPC+xVTiNLRTyEluF01ivlFe+iqSerVq8qwQgIfcGTELuDJiE3BcwCdlWwSRkWwWTkG0VTEK2VTAJ2VbBJEpsFU5DXm5xGrKtwmnItgqnIdsqnIZsq3Aasq3Caci2Cqch2yqchmyrcPVvC/O8xFbhNLZQyEtsFU5jvVJeueN7PVu12BIeICH3BkxC7gyYhNwXMAnZVsEkZFsFk5BtFUxCtlUwCdlWwSRKbBVOQ15ucRqyrcJpyLYKpyHbKpyGbKtwGrKtwmnItgqnIdsqnIZsq3D1bwvzvMRW4TS2UMhLbBVOY71SXrmxbj1btdh5FyAh9wZMQu4MmITcFzAJ2VbBJGRbBZOQbRVMQrZVMAnZVsEkSmwVTkNebnEasq3Caci2Cqch2yqchmyrcBqyrcJpyLYKpyHbKpyGbKtw9W8L87zEVuE0tlDIS2wVTmO9Ul65f2E9W7XY4BAgIfcGTELuDJiE3BcwCdlWwSRkWwWTkG0VTEK2VTAJ2VbBJEo3W0NpyMstTqNsIyuURtkeVyiNsu2vUBple76hNMq2g0NplO0Uh9Io20QOpVG2vxyq/m1hnpfuSofS2EIhL7FVOI3qUv6lzg6vy62b1amK9O1qA9li39hGejNuFjvAVm4Vu9r/OdXZi3gW+Wmj32kq1+03Vc/8rduvt93sXY5xv6217w+8TI/jZP78LkgX+yff33+NTabzBO8TXycfZ2Y749oXGo75Y4632ktniV5gmB2Zl+2+4Q2+GWaYYYYZZphhhhlmmGGGGWaYYYYZZphhhhlmmGGGGWaYYYYZZphhhhlmmGGGGWaYYYYZZphhhhlmmGGGGWaYYYYZZphhhhn+S4Xn7fhGJ0ng67eeebDWbXf+z+dVzaOx6eNHY891Euh0+Xit01w9QDwN46wdBpGufEQ2/dFzutVP1qbt4tXz0zj0siCOcignzfS0dalHcaKdek8+v9FjHfmPb2hxrnHQaaqeeXK5Yx5kNn84oR5lBqwi9Spt+2Kss7MoM+2TS4xm0bAgbeyqPytSrAj1/dWfK5/lNkcwUo1sEqTttOiVekLmeHBRO2+/M284afwX2DbbCt88Op6zL/NeTOM0MAlf5qfr3M3qMGl+QJXEt3ZIK6wg8rWZDy23aXn16rha98JRoEMz3hrLNl3Mk3ESz6baVz//rP62PH/Xvph46fL5dzPBdh9G5z+M5g3S9sbjV0ajHeponE3UM9VV/1TO8zB01MnjT6RhMNSNlrv7ufNlt3K+fXcncaIaV/mtdH5RV7nMcqgudc25v+crjn0HmcMM42W+z1df2l/1XJ2eni4ab72MRdZlt1/Z3urquEy093Wdi79ZXmP7edNey7s7NcPaDIblSCk2cmhfeGkajCPtD8wWEennoiW/rNeUq46eztJJY92+yLv0ZNGf68+kMDypc5dt88l1VdIsib/qejqLz66rFE+9YZDN60ktP7z2XRUSK6l1s6wWksfLyjrTw3rxMcdqOj9eeFRLubbZbKZbfdZvzaKq1vr8typPYY69PfXh90/q3+9//6jO33/89Nu7X9Wb97/+NlCvzz6e1UvwKl+19Z1nLJrKYpXGSaai2XU+Doaq2NIkVV46zM1LEI1rZFy1vcnzoDJ7TXVZf3FJdDZLIjX1klS/CmMva3hmyd/Nu/LBucviXK3GrLZoD2SXt1CV+Ntmd3q595/FdC8me2PH1yNvFmZqmsT5GqZ3mmrnp6OjweDsbGfDG88QhzjEIQ5xiEMc4hCHOMQhzl8TR6Wz6/yfwMrX5qTyvbkhSrRPGtKQhjSkIQ1pSEMa0pCGNKQpp7kt/mvW/9BchjNNHOIQhzjEIQ5xiEMc4hCHOMRZB+f+vYGueW/g+Ux6b2DPLX5he/58f//4mKQkJSlJSUpSkpKUpCQlKUlJSlKSPg3SbkHqZRJppyDt9brdowOSkpSkJCUpSUlKUpKSlKQkJSlJSfo0SHuG9FUSCKTd44LUdQ8Pez2SkpSkJCUpSUlKUpKSlKQkJSlJSfo0SPcN6afJTCI9KkiP86P/gqQkJSlJSUpSkpKUpCQlKUlJSlKSPg3SviH9l/Yl0sOC9OXLweDwkKQkJSlJSUpSkpKUpCQlKUlJSlKSPg3Sg+KbiZmWSA8K0sHg4ICkJCUpSUlKUpKSlKQkJSlJSUpSkj4V0kND+jaWdhbs9gvSo6Nut98nKUlJSlKSkpSkJCUpSUlKUpKSlKRbI12h+Il326hMdtfOgizU5xNvqtuZvssaO6/jWZJWY8y/v/JlcK2jNIijUKdFhooUe3vque8rTxWZ1G2QTVQaX2vl9yquTG/GbW861ZHfcIy2s1txwepoe1mWNJw7p6kOOpYXzfOLuvUvSrN5qBd4LS8aTuIkv94J9ciCdpljFEdZ61YH40lmclzGoV8/x6Jvzqet87dpFif6UJ3P01ZPvQqTlqvOh5PWQL3+EA6vs1YUJ3kX/PFOvTsbvDAfy/S16qkP53+o98Oh+ezOblmnPttLh0kwzf4hfubZnh/c/DgsXiMny3OpwD91hmbED/JG8oJIJxf9I0cVLXfq+EE6Db35SRCFeah1GcbDr784Ml+edHELKptP8+tN4+1deTfe4mzplea48RIzONWp8oPraajbkb49vxk3nJ++Z2yq/U6n+KNyspm0vpd5ed7Pfzqhd6lD58Tx9cibhZmaJvEoCLXTXEQu7pwTt91pOjdeONPLvw/NmpRfky8zg8HZmfOtWStPF5SnB8qzD8rTB+U5AOU5BOU5AuU5BuVxO6hEqBHtooa0ixrTLmpQu6hR7aKGtYsa1y5qYLuokd1FjewubK1GjewuamR3rUa2SmfX149eUl2roiXat0gjtpFdGrGF7NKI7WOXRpz3dmnEWW+XRpzzdmnEGW+XRpzvdmnkQmaZBzSO5TJmmQc0kuUiZpkHNJblEmaZBzSa5QJmmQc0nuXyZZkHtS6DxrNcuyzz1B/Pt0GU2ZetS3Oqfh6xeSzziM1jmUdsHss84nS3zCNOd8s84nS3zCNOd8s84nS3zCPXL9tEqBEtVzDbRKgxLdcw20SoUS1XMdtEqHEt1zHbRKiRLVcy20SwtRo1suViZpuo/si+/9Wi8q3CUpnrPPqH3uK1wwCJ7uYlepuX2N+8RH/zEgeblzjcvMTR5iWONy/xqLJvSmML87vki1mchvzNFk5D/tILpyF/04vTkL8ExmnI3w/jNOSvjnEa8rfKuPq3hXne3UYd30Ih726hknfXK+WVL2+sZ6sWb3cESMi9AZOQOwMmIfcFTEK2VTAJ2VbBJGRbBZOQbRVMQrZVMImSX65xGvJPfzgN2VbhNGRbhdOQbRVOQ7ZVOA3ZVuE0ZFuF05BtFU5DtlW4+reFeV7yEz9OYwuFvMRW4TTWK+WV78iqZ6sWL9ECSMi9AZOQOwMmIfcFTEK2VTAJ2VbBJGRbBZOQbRVMQrZVMIkSW4XTkJdbnIZsq3Aasq3Caci2Cqch2yqchmyrcBqyrcJpyLYKpyHbKlz928I8L7FVOI0tFPISW4XTWK+UV76KpJ6tWryrBCAh9wZMQu4MmITcFzAJ2VbBJGRbBZOQbRVMQrZVMAnZVsEkSmwVTkNebnEasq3Caci2Cqch2yqchmyrcBqyrcJpyLYKpyHbKpyGbKtw9W8L87zEVuE0tlDIS2wVTmO9Ul6543s9W7XYEh4gIfcGTELuDJiE3BcwCdlWwSRkWwWTkG0VTEK2VTAJ2VbBJEpsFU5DXm5xGrKtwmnItgqnIdsqnIZsq3Aasq3Caci2Cqch2yqchmyrcPVvC/O8xFbhNLZQyEtsFU5jvVJeubFuPVu12HkXICH3BkxC7gyYhNwXMAnZVsEkZFsFk5BtFUxCtlUwCdlWwSRKbBVOQ15ucRqyrcJpyLYKpyHbKpyGbKtwGrKtwmnItgqnIdsqnIZsq3D1bwvzvMRW4TS2UMhLbBVOY71SXrl/YT1btdjgECAh9wZMQu4MmITcFzAJ2VbBJGRbBZOQbRVMQrZVMAnZVsEkSjdbQ2nIyy1Oo2wjK5RG2R5XKI2y7a9QGmV7vqE0yraDQ2mU7RSH0ijbRA6lUba/HKr+bWGel+5Kh9LYQiEvsVU4jepS/qXODq/LrZvVqYr07WoD2WLf2EZ6M24WO8BWbhW72v851dmLeBb5aaPfaSrX7TdVz/yt26+33exdjnG/rbXvD7xMj+Nk/vwuSBf7J9/ff41NpvME7xNfJx9nZjvj2hcajvljjrfaS2eJXmCYHZmX7b7hDb4ZZphhhhlmmGGGGWaYYYYZZphhhhlmmGGGGWaYYYYZZphhhhlmmGGGGWaYYYYZZphhhhlmmGGGGWaYYYYZZphhhhlmmGGGGf5Lheft+EYnSeDrt555sNZtd/7P51XNo7Hp40djz3US6HT5eK3TXD1APA3jrB0Gka58RDb90XO61U/Wpu3i1fPTOPSyII5yKCfN9LR1qUdxop16Tz6/0WMd+Y9vaHGucdBpqp55crljHmQ2fzihHmUGrCL1Km37Yqyzsygz7ZNLjGbRsCBt7Ko/K1KsCPX91Z8rn+U2RzBSjWwSpO206JV6QuZ4cFE7b78zbzhp/BfYNtsK3zw6nrMv815M4zQwCV/mp+vczeowaX5AlcS3dkgrrCDytZkPLbdpefXquFr3wlGgQzPeGss2XcyTcRLPptpXP/+s/rY8f9e+mHjp8vl3M8F2H0bnP4zmDdL2xuNXRqMd6micTdQz1VX/VM7zMHTUyeNPpGEw1I2Wu/u582W3cr59dydxohr/ae9ce9vGsTD8fX8FVwNMHIytWHbsXFrPInWctkDbFHGKwUwQBLRF20pkSRClJMYg/31EWcrabVWTurT17ssPcSqSLx+S55BsqR7fRl1pviC3UTOJqSbtime/RSuO+gSJJMw40bu6vdbv2IL0er3l4OVTjFWTab9V7WqaRj6jd3kqPynWUS0vxivpXU+YtTCGxFLiQA76DeXcmjrM7IsQEfwqHsnrfEOZTrQX8lkt71xEU3q8nM/8nmTbxzK91EXJvK3wwHfvmFw7y7J5W3I9OraChVxTSeHcvYqbSJvKq5IuJOvLSh73UF58RErdeX3hIQ1iqKqpuJs861M93lWlyj9tOlOItLdHPn66JH+ef7ogw/OLy7cfXpN356/f9smbwcVATuAsWrXZIxVHNBK4hLt+QJxwHtnBmMQhTTihfBwdXixnKqGYjr3QWdmZaZ2M5BcXnwWh7xCP+pyd2S4NalQs+bvRVK48G8XPpAZz8xFtpdmkC5uEn6qN9PJ8/ozdPXb22o7JJjS0A+L5brSGsZ062fnl8LDfHwx2Kg48AxzgAAc4wAEOcIADHOAABzj/mziEh/Por8DEZOIhMelCEPnMBA1oQAMa0IAGNKABDWhAAxrQfJvmIX416zOakR0y4AAHOMABDnCAAxzgAAc4wAFOHpzn7w00xPcGDsOs7w1sG/EN28nJ/v7REUhBClKQghSkIAUpSEEKUpCCFKQg3Q7SVkxKgyzSZkzabrdah12QghSkIAUpSEEKUpCCFKQgBSlIQbodpG1BeuZbGaSto5jUMA4O2m2QghSkIAUpSEEKUpCCFKQgBSlIQbodpPuC9HIWZpEexqRHUeq8AilIQQpSkIIUpCAFKUhBClKQghSk20HaEaR/MDOL9CAmPT3t9w8OQApSkIIUpCAFKUhBClKQghSkIAXpdpB243+ZCFkWaTcm7fe7XZCCFKQgBSlIQQpSkIIUpCAFKUhBui2kB4L0vZsVWbDViUkPD1utTgekIAUpSEEKUpCCFKQgBSlIQQpSkH430hTF9OlDbaPYox5Ygc2GM+oxPWCPQW3njRv6fDPG4suap9acOdxyHZvxWGGDxN4eOTFNQkmsRB6sYEa4O2fEbG+oye+nOvU85pg1TbSt7W6okCadBoFf0x61Ouk2FSstokot+Uo8WNhsidegznjm+lF9zWYTBdpEY+I6QeOBWdNZIDRGrm3KayznZug1hu954PrskAwXvNEmZ7bfMMhwPGv0yZuP9ngeNBjlAfnrA/kw6L8SpQI2J23ycfgXOR+PRdGd3W/N6cs9PvYtL/g9s8zLPdO6/3p2Zp1ssUiLWGZPGwuD70djRC2H+TedI43EA9fTTIt7Nl0cW44dZTVGtju+e6Fl80Wiyy6QYOFF9cXY7d3Se7p8+s2aIt1TX9gm6RHTmns20x32MLyf1rRfvmSsk/1mM/6x0deErEkDGule/a3ZdMRs7Vgz2YSGdkA8351YNtPqy5ybR+3Y0Jt17Z7aIdOOu0f60Uo6PKprY7FARQrRmtPvDwbaU11KtVWJarsS1f1KVDuVqHYrUT2oRPWwEtWjSlSNZjWy1XiXUY17GdX4l1GNgxnVeJhRjYsZ1fiYUY2TGdV4WasaL2tVtIdV42WtarysVcDLCA/n87Xv/M5xQvCZqSAqObZqopIjqyYqOa5qopJrl5qo5MqlJiq5bqmJSq5aaqKSa5aaqOzBQFG1Ep+SPRYoqlbiVbKHAkXVSvxK9kigqFqJZ8keCBRVK/Et2eOAomo1+1UlviV7FlBUzetbD5YTFD0GjEQBeVXJYVVUlRxWRVXJYVVUlVyyFFUllyxFVcklS1FVcslSVJVcshRVZc8DqrLVeJfsiUBVthr/kj0TqMpW42GypwJV2Wp8TPZcoCpbjZfJngxUZSvaw6rxMtnDgaqskpddy1w4JBeJpEcc9pDeZ8TXGDV+P63HFxIbby7S20jOgldu6Ji81mnWiWF06qQtfmt15G4/HiOM50tW0+zTgE1df3HyaPHlbd7zUEhceUYC577J/ItQXK5JVxQci3WO94zy0GdLDHE/mExB0Uvc+B5pvakh8y3GE9yopWRCPNsNdHG5tbFJ/rV+byblemx3nmvTwHKdCErjAfMaIzZxfabJWdI7NmWOud6h5bNaN7KCtrAEcRlmiB/JHenG6+NUVr+ZsmDgBGJ8oiYmoTOOSWu75G+JS1JByJ5rX230DZGsCakFM4tHdi3qyTUk0kolPRq/AR3Pav8FVlVL8ZO7wUT3xnO5JQRPo8cyvUmTkPkKle8+qCGlWJZjMuG4DaOuWDtNt3krTixmC3urJWO69JOp74YeM8mvv5J/J88f9ZsZ5cl6IhxsdzV38dXcaEB0Op2eiTZ0mznTYEZekhb5D9FObFsjx+sluG2NWa1h7F41r3c3+tsXPXF9UruNutJ8QW6jZhJTTdoVz37rEUN9gkQSZpzoXd1e63csWt56veXg5VOMVZNpv1XtappGPqN3eSo/KdZRLS/GK+ldT5i1MIbEUuKNUb9ZvgDEzPgVIH4Vj+R1vqFMJ9oL+ayWdy6iKT1ezmd+T7LtY5le6qJk3lZ44Lt3TK6dZdm8LbkeHVvBQq6ppHDuXsVNpE3lVUkXkvVlJY97KC8+IqXuvL7wkAYxVNVU3E2e9ake76pS5Z82nSlE2tsjHz9dkj/PP12Q4fnF5dsPr8m789dv++TN4GIgJ3AWrdrskYojGglcwt3oIO2E88gOxiQ+InJC+Tg6vFjOVEIxHXuhs7Iz0zoZyS8uPgtC3yEe9Tk7s10a1KhY8nejqVx5NoqfSQ3m5iPaSrNJFzYJP/2AFzU/u4BN3sYUF6o/5L1R4AAHOMABDnCAAxzgAAc4wNl6nC9fcBFEPjNBAxrQgAY0oAENaEADGtCABjTfpvnilUBBI17xAw5wgAMc4AAHOMABDnCAAxzg/MDwiJds7jGfBqHPSO1sFwESf6oAiX9QYXFvWPxxMh9ZzAmImDIR95CZYTT+DXLQPNuKEIjd5s8fAjFi/F4hEOP/eJo3BFNJOu2SdPZL0umUpNMtSeegJJ3DknSOStJZiy1QSKgsizbKMmmjLJs2yjJqoyyrNsoya6MsuzbKMmyjLMtulWXZrdLW6rIsu1WWZbeULFs+ZN+aVP4gfQVkMkcofyC+AjKZfp8/2F4BmUyfzx9Qr4BMpr8XCJpXRKckO87exgqEwiuiU5IpZ+9hBQLcFdEpyZqzN7ACYeuKrIMl2XP27lUgGF0RnZLsOXvryh9ibk2mQFC5IjqZw1MgcFwRnUx3LxAcrohOprsXCABXRCfT3YsEeSskVJZFZ+9gRUK3FRIqy6izN7EiAdkKCZVl19n7WJEwa4VWxrIsO3srKxI8rZBQWZadvZshJNpWhERDNrKRjWxkIxvZyEY2spGNbGQjG9nIRvbPlL3Q3Xvm+5bJ3lPxD1WG3kRI/JWeICT+c0JIfKWEkPgIia+QEBL/84SQ+J8nhMRXTAiJj5D4X00IiQ8c4AAHOMABDnCAAxzgAAc4wNmGgJKgAQ1oQAMa0IAGNKABDWhAsz00/zeBLIEDHOAABzjAAQ5wgAMc4AAnf3s/ICT+qTVnDrdcx2acIyD+zxUQ3/XvyGAyscYWc8aL5zD43zcAflL6s5zVP6e/Lz+f1ZNfnj9GrrkQn7Ngbv/+r38A9g68cw=="
               },
               {
                  "name" : "annual_peak_electric_demand",
                  "units" : "kW",
                  "value" : 306.05529000000001
               },
               {
                  "name" : "first_year_capital_cost",
                  "units" : "$",
                  "value" : 0
               },
               {
                  "name" : "annual_utility_cost",
                  "units" : "$",
                  "value" : 0
               },
               {
                  "name" : "total_lifecycle_cost",
                  "units" : "$",
                  "value" : 0
               }
            ],
            "step_warnings" : [ "A table in Annual Overview section returned false and was skipped." ]
         }
      }
   ],
   "updated_at" : "20170710T191800Z",
   "weather_file" : "USA_CO_Denver.Intl.AP.725650_TMY3.epw"
}
