{
   "completed_at" : "20170710T194040Z",
   "completed_status" : "Success",
   "created_at" : "2017-07-10 19:34:31 +0000",
   "current_step" : 5,
   "description" : "",
   "eplusout_err" : "Program Version,EnergyPlus, Version 8.7.0-78a111df4a, YMD=2017.07.10 19:37,IDD_Version 8.7.0\n   ************* IDF Context for following error/warning message:\n   ************* Note -- lines truncated at 300 characters, if necessary...\n   *************      5 Building,\n   ************* indicated Name=NECB 2011-LargeHotel-NECB HDD Method-CAN_ON_London.716230_CWEC.epw created: 2017-07-10 19:34:38 +0000\n   ************* Only last 1 lines before error line shown.....\n   *************      6   NECB 2011-LargeHotel-NECB HDD Method-CAN_ON_London.716230_CWEC.epw created: 2017-07-10 19:34:38 +0000, !- Name\n   ** Warning ** IP: IDF line~6 Alpha Argument length exceeds maximum, will be truncated=  NECB 2011-LargeHotel-NECB HDD Method-CAN_ON_London.716230_CWEC.epw created: 2017-07-10 19:34:38 +000\n   **   ~~~   ** Will be processed as Alpha=NECB 2011-LARGEHOTEL-NECB HDD METHOD-CAN_ON_LONDON.716230_CWEC.EPW CREATED: 2017-07-10 19:34:38 +0000\n   ************* Beginning Zone Sizing Calculations\n   ** Warning ** ProcessScheduleInput: Schedule:Day:Interval=\"ECONOMIZER MAX OA FRACTION 100 PCT DEFAULT\", Blank Schedule Type Limits Name input -- will not be validated.\n   ** Warning ** ProcessScheduleInput: Schedule:Day:Interval=\"SCHEDULE DAY 1\", Blank Schedule Type Limits Name input -- will not be validated.\n   ** Warning ** ProcessScheduleInput: Schedule:Day:Interval=\"SCHEDULE DAY 10\", Blank Schedule Type Limits Name input -- will not be validated.\n   ** Warning ** ProcessScheduleInput: Schedule:Day:Interval=\"SCHEDULE DAY 11\", Blank Schedule Type Limits Name input -- will not be validated.\n   ** Warning ** ProcessScheduleInput: Schedule:Day:Interval=\"SCHEDULE DAY 12\", Blank Schedule Type Limits Name input -- will not be validated.\n   ** Warning ** ProcessScheduleInput: Schedule:Day:Interval=\"SCHEDULE DAY 13\", Blank Schedule Type Limits Name input -- will not be validated.\n   ** Warning ** ProcessScheduleInput: Schedule:Day:Interval=\"SCHEDULE DAY 14\", Blank Schedule Type Limits Name input -- will not be validated.\n   ** Warning ** ProcessScheduleInput: Schedule:Day:Interval=\"SCHEDULE DAY 15\", Blank Schedule Type Limits Name input -- will not be validated.\n   ** Warning ** ProcessScheduleInput: Schedule:Day:Interval=\"SCHEDULE DAY 16\", Blank Schedule Type Limits Name input -- will not be validated.\n   ** Warning ** ProcessScheduleInput: Schedule:Day:Interval=\"SCHEDULE DAY 17\", Blank Schedule Type Limits Name input -- will not be validated.\n   ** Warning ** ProcessScheduleInput: Schedule:Day:Interval=\"SCHEDULE DAY 18\", Blank Schedule Type Limits Name input -- will not be validated.\n   ** Warning ** ProcessScheduleInput: Schedule:Day:Interval=\"SCHEDULE DAY 19\", Blank Schedule Type Limits Name input -- will not be validated.\n   ** Warning ** ProcessScheduleInput: Schedule:Day:Interval=\"SCHEDULE DAY 2\", Blank Schedule Type Limits Name input -- will not be validated.\n   ** Warning ** ProcessScheduleInput: Schedule:Day:Interval=\"SCHEDULE DAY 20\", Blank Schedule Type Limits Name input -- will not be validated.\n   ** Warning ** ProcessScheduleInput: Schedule:Day:Interval=\"SCHEDULE DAY 21\", Blank Schedule Type Limits Name input -- will not be validated.\n   ** Warning ** ProcessScheduleInput: Schedule:Day:Interval=\"SCHEDULE DAY 22\", Blank Schedule Type Limits Name input -- will not be validated.\n   ** Warning ** ProcessScheduleInput: Schedule:Day:Interval=\"SCHEDULE DAY 23\", Blank Schedule Type Limits Name input -- will not be validated.\n   ** Warning ** ProcessScheduleInput: Schedule:Day:Interval=\"SCHEDULE DAY 24\", Blank Schedule Type Limits Name input -- will not be validated.\n   ** Warning ** ProcessScheduleInput: Schedule:Day:Interval=\"SCHEDULE DAY 25\", Blank Schedule Type Limits Name input -- will not be validated.\n   ** Warning ** ProcessScheduleInput: Schedule:Day:Interval=\"SCHEDULE DAY 26\", Blank Schedule Type Limits Name input -- will not be validated.\n   ** Warning ** ProcessScheduleInput: Schedule:Day:Interval=\"SCHEDULE DAY 27\", Blank Schedule Type Limits Name input -- will not be validated.\n   ** Warning ** ProcessScheduleInput: Schedule:Day:Interval=\"SCHEDULE DAY 28\", Blank Schedule Type Limits Name input -- will not be validated.\n   ** Warning ** ProcessScheduleInput: Schedule:Day:Interval=\"SCHEDULE DAY 29\", Blank Schedule Type Limits Name input -- will not be validated.\n   ** Warning ** ProcessScheduleInput: Schedule:Day:Interval=\"SCHEDULE DAY 30\", Blank Schedule Type Limits Name input -- will not be validated.\n   ** Warning ** ProcessScheduleInput: Schedule:Day:Interval=\"SCHEDULE DAY 31\", Blank Schedule Type Limits Name input -- will not be validated.\n   ** Warning ** ProcessScheduleInput: Schedule:Day:Interval=\"SCHEDULE DAY 32\", Blank Schedule Type Limits Name input -- will not be validated.\n   ** Warning ** ProcessScheduleInput: Schedule:Day:Interval=\"SCHEDULE DAY 33\", Blank Schedule Type Limits Name input -- will not be validated.\n   ** Warning ** ProcessScheduleInput: Schedule:Day:Interval=\"SCHEDULE DAY 34\", Blank Schedule Type Limits Name input -- will not be validated.\n   ** Warning ** ProcessScheduleInput: Schedule:Day:Interval=\"SCHEDULE DAY 35\", Blank Schedule Type Limits Name input -- will not be validated.\n   ** Warning ** ProcessScheduleInput: Schedule:Day:Interval=\"SCHEDULE DAY 36\", Blank Schedule Type Limits Name input -- will not be validated.\n   ** Warning ** ProcessScheduleInput: Schedule:Day:Interval=\"SCHEDULE DAY 37\", Blank Schedule Type Limits Name input -- will not be validated.\n   ** Warning ** ProcessScheduleInput: Schedule:Day:Interval=\"SCHEDULE DAY 38\", Blank Schedule Type Limits Name input -- will not be validated.\n   ** Warning ** ProcessScheduleInput: Schedule:Day:Interval=\"SCHEDULE DAY 39\", Blank Schedule Type Limits Name input -- will not be validated.\n   ** Warning ** ProcessScheduleInput: Schedule:Day:Interval=\"SCHEDULE DAY 40\", Blank Schedule Type Limits Name input -- will not be validated.\n   ** Warning ** ProcessScheduleInput: Schedule:Day:Interval=\"SCHEDULE DAY 41\", Blank Schedule Type Limits Name input -- will not be validated.\n   ** Warning ** ProcessScheduleInput: Schedule:Day:Interval=\"SCHEDULE DAY 42\", Blank Schedule Type Limits Name input -- will not be validated.\n   ** Warning ** ProcessScheduleInput: Schedule:Day:Interval=\"SCHEDULE DAY 43\", Blank Schedule Type Limits Name input -- will not be validated.\n   ** Warning ** ProcessScheduleInput: Schedule:Day:Interval=\"SCHEDULE DAY 44\", Blank Schedule Type Limits Name input -- will not be validated.\n   ** Warning ** ProcessScheduleInput: Schedule:Day:Interval=\"SCHEDULE DAY 45\", Blank Schedule Type Limits Name input -- will not be validated.\n   ** Warning ** ProcessScheduleInput: Schedule:Day:Interval=\"SCHEDULE DAY 46\", Blank Schedule Type Limits Name input -- will not be validated.\n   ** Warning ** ProcessScheduleInput: Schedule:Day:Interval=\"SCHEDULE DAY 47\", Blank Schedule Type Limits Name input -- will not be validated.\n   ** Warning ** ProcessScheduleInput: Schedule:Day:Interval=\"SCHEDULE DAY 48\", Blank Schedule Type Limits Name input -- will not be validated.\n   ** Warning ** ProcessScheduleInput: Schedule:Day:Interval=\"SCHEDULE DAY 49\", Blank Schedule Type Limits Name input -- will not be validated.\n   ** Warning ** ProcessScheduleInput: Schedule:Day:Interval=\"SCHEDULE DAY 50\", Blank Schedule Type Limits Name input -- will not be validated.\n   ** Warning ** ProcessScheduleInput: Schedule:Day:Interval=\"SCHEDULE DAY 51\", Blank Schedule Type Limits Name input -- will not be validated.\n   ** Warning ** ProcessScheduleInput: Schedule:Day:Interval=\"SCHEDULE DAY 52\", Blank Schedule Type Limits Name input -- will not be validated.\n   ** Warning ** ProcessScheduleInput: Schedule:Day:Interval=\"SCHEDULE DAY 53\", Blank Schedule Type Limits Name input -- will not be validated.\n   ** Warning ** ProcessScheduleInput: Schedule:Day:Interval=\"SCHEDULE DAY 54\", Blank Schedule Type Limits Name input -- will not be validated.\n   ** Warning ** ProcessScheduleInput: Schedule:Day:Interval=\"SCHEDULE DAY 55\", Blank Schedule Type Limits Name input -- will not be validated.\n   ** Warning ** ProcessScheduleInput: Schedule:Day:Interval=\"SCHEDULE DAY 56\", Blank Schedule Type Limits Name input -- will not be validated.\n   ** Warning ** ProcessScheduleInput: Schedule:Day:Interval=\"SCHEDULE DAY 57\", Blank Schedule Type Limits Name input -- will not be validated.\n   ** Warning ** ProcessScheduleInput: Schedule:Day:Interval=\"SCHEDULE DAY 58\", Blank Schedule Type Limits Name input -- will not be validated.\n   ** Warning ** ProcessScheduleInput: Schedule:Day:Interval=\"SCHEDULE DAY 59\", Blank Schedule Type Limits Name input -- will not be validated.\n   ** Warning ** ProcessScheduleInput: Schedule:Day:Interval=\"SCHEDULE DAY 60\", Blank Schedule Type Limits Name input -- will not be validated.\n   ** Warning ** ProcessScheduleInput: Schedule:Day:Interval=\"SCHEDULE DAY 61\", Blank Schedule Type Limits Name input -- will not be validated.\n   ** Warning ** ProcessScheduleInput: Schedule:Day:Interval=\"SCHEDULE DAY 62\", Blank Schedule Type Limits Name input -- will not be validated.\n   ** Warning ** ProcessScheduleInput: Schedule:Day:Interval=\"SCHEDULE DAY 63\", Blank Schedule Type Limits Name input -- will not be validated.\n   ** Warning ** ProcessScheduleInput: Schedule:Day:Interval=\"SCHEDULE DAY 64\", Blank Schedule Type Limits Name input -- will not be validated.\n   ** Warning ** ProcessScheduleInput: Schedule:Day:Interval=\"SCHEDULE DAY 65\", Blank Schedule Type Limits Name input -- will not be validated.\n   ** Warning ** ProcessScheduleInput: Schedule:Day:Interval=\"SCHEDULE DAY 66\", Blank Schedule Type Limits Name input -- will not be validated.\n   ** Warning ** ProcessScheduleInput: Schedule:Day:Interval=\"SCHEDULE DAY 67\", Blank Schedule Type Limits Name input -- will not be validated.\n   ** Warning ** ProcessScheduleInput: Schedule:Day:Interval=\"SCHEDULE DAY 68\", Blank Schedule Type Limits Name input -- will not be validated.\n   ** Warning ** ProcessScheduleInput: Schedule:Day:Interval=\"SCHEDULE DAY 69\", Blank Schedule Type Limits Name input -- will not be validated.\n   ** Warning ** ProcessScheduleInput: Schedule:Day:Interval=\"SCHEDULE DAY 70\", Blank Schedule Type Limits Name input -- will not be validated.\n   ** Warning ** ProcessScheduleInput: Schedule:Day:Interval=\"SCHEDULE DAY 71\", Blank Schedule Type Limits Name input -- will not be validated.\n   ** Warning ** ProcessScheduleInput: Schedule:Day:Interval=\"SCHEDULE DAY 72\", Blank Schedule Type Limits Name input -- will not be validated.\n   ** Warning ** ProcessScheduleInput: Schedule:Day:Interval=\"SCHEDULE DAY 73\", Blank Schedule Type Limits Name input -- will not be validated.\n   ** Warning ** ProcessScheduleInput: Schedule:Day:Interval=\"SCHEDULE DAY 74\", Blank Schedule Type Limits Name input -- will not be validated.\n   ** Warning ** ProcessScheduleInput: Schedule:Day:Interval=\"SCHEDULE DAY 75\", Blank Schedule Type Limits Name input -- will not be validated.\n   ** Warning ** ProcessScheduleInput: Schedule:Day:Interval=\"SCHEDULE DAY 76\", Blank Schedule Type Limits Name input -- will not be validated.\n   ** Warning ** ProcessScheduleInput: Schedule:Day:Interval=\"SCHEDULE DAY 77\", Blank Schedule Type Limits Name input -- will not be validated.\n   ** Warning ** ProcessScheduleInput: Schedule:Day:Interval=\"SCHEDULE DAY 78\", Blank Schedule Type Limits Name input -- will not be validated.\n   ** Warning ** ProcessScheduleInput: Schedule:Day:Interval=\"SCHEDULE DAY 8\", Blank Schedule Type Limits Name input -- will not be validated.\n   ** Warning ** ProcessScheduleInput: Schedule:Day:Interval=\"SCHEDULE DAY 9\", Blank Schedule Type Limits Name input -- will not be validated.\n   ** Warning ** ProcessScheduleInput: Schedule:Year=\"ECONOMIZER MAX OA FRACTION 100 PCT\", Blank Schedule Type Limits Name input -- will not be validated.\n   ** Warning ** ProcessScheduleInput: Schedule:Year=\"SCHEDULE RULESET 10\", Blank Schedule Type Limits Name input -- will not be validated.\n   ** Warning ** ProcessScheduleInput: Schedule:Year=\"SCHEDULE RULESET 11\", Blank Schedule Type Limits Name input -- will not be validated.\n   ** Warning ** ProcessScheduleInput: Schedule:Year=\"SCHEDULE RULESET 12\", Blank Schedule Type Limits Name input -- will not be validated.\n   ** Warning ** ProcessScheduleInput: Schedule:Year=\"SCHEDULE RULESET 13\", Blank Schedule Type Limits Name input -- will not be validated.\n   ** Warning ** ProcessScheduleInput: Schedule:Year=\"SCHEDULE RULESET 14\", Blank Schedule Type Limits Name input -- will not be validated.\n   ** Warning ** ProcessScheduleInput: Schedule:Year=\"SCHEDULE RULESET 15\", Blank Schedule Type Limits Name input -- will not be validated.\n   ** Warning ** ProcessScheduleInput: Schedule:Year=\"SCHEDULE RULESET 16\", Blank Schedule Type Limits Name input -- will not be validated.\n   ** Warning ** ProcessScheduleInput: Schedule:Year=\"SCHEDULE RULESET 17\", Blank Schedule Type Limits Name input -- will not be validated.\n   ** Warning ** ProcessScheduleInput: Schedule:Year=\"SCHEDULE RULESET 18\", Blank Schedule Type Limits Name input -- will not be validated.\n   ** Warning ** ProcessScheduleInput: Schedule:Year=\"SCHEDULE RULESET 19\", Blank Schedule Type Limits Name input -- will not be validated.\n   ** Warning ** ProcessScheduleInput: Schedule:Year=\"SCHEDULE RULESET 20\", Blank Schedule Type Limits Name input -- will not be validated.\n   ** Warning ** ProcessScheduleInput: Schedule:Year=\"SCHEDULE RULESET 21\", Blank Schedule Type Limits Name input -- will not be validated.\n   ** Warning ** ProcessScheduleInput: Schedule:Year=\"SCHEDULE RULESET 22\", Blank Schedule Type Limits Name input -- will not be validated.\n   ** Warning ** ProcessScheduleInput: Schedule:Year=\"SCHEDULE RULESET 23\", Blank Schedule Type Limits Name input -- will not be validated.\n   ** Warning ** ProcessScheduleInput: Schedule:Year=\"SCHEDULE RULESET 24\", Blank Schedule Type Limits Name input -- will not be validated.\n   ** Warning ** ProcessScheduleInput: Schedule:Year=\"SCHEDULE RULESET 25\", Blank Schedule Type Limits Name input -- will not be validated.\n   ** Warning ** ProcessScheduleInput: Schedule:Year=\"SCHEDULE RULESET 26\", Blank Schedule Type Limits Name input -- will not be validated.\n   ** Warning ** ProcessScheduleInput: Schedule:Year=\"SCHEDULE RULESET 27\", Blank Schedule Type Limits Name input -- will not be validated.\n   ** Warning ** ProcessScheduleInput: Schedule:Year=\"SCHEDULE RULESET 28\", Blank Schedule Type Limits Name input -- will not be validated.\n   ** Warning ** ProcessScheduleInput: Schedule:Year=\"SCHEDULE RULESET 29\", Blank Schedule Type Limits Name input -- will not be validated.\n   ** Warning ** ProcessScheduleInput: Schedule:Year=\"SCHEDULE RULESET 3\", Blank Schedule Type Limits Name input -- will not be validated.\n   ** Warning ** ProcessScheduleInput: Schedule:Year=\"SCHEDULE RULESET 30\", Blank Schedule Type Limits Name input -- will not be validated.\n   ** Warning ** ProcessScheduleInput: Schedule:Year=\"SCHEDULE RULESET 31\", Blank Schedule Type Limits Name input -- will not be validated.\n   ** Warning ** ProcessScheduleInput: Schedule:Year=\"SCHEDULE RULESET 32\", Blank Schedule Type Limits Name input -- will not be validated.\n   ** Warning ** ProcessScheduleInput: Schedule:Year=\"SCHEDULE RULESET 33\", Blank Schedule Type Limits Name input -- will not be validated.\n   ** Warning ** ProcessScheduleInput: Schedule:Year=\"SCHEDULE RULESET 34\", Blank Schedule Type Limits Name input -- will not be validated.\n   ** Warning ** ProcessScheduleInput: Schedule:Year=\"SCHEDULE RULESET 35\", Blank Schedule Type Limits Name input -- will not be validated.\n   ** Warning ** ProcessScheduleInput: Schedule:Year=\"SCHEDULE RULESET 36\", Blank Schedule Type Limits Name input -- will not be validated.\n   ** Warning ** ProcessScheduleInput: Schedule:Year=\"SCHEDULE RULESET 37\", Blank Schedule Type Limits Name input -- will not be validated.\n   ** Warning ** ProcessScheduleInput: Schedule:Year=\"SCHEDULE RULESET 38\", Blank Schedule Type Limits Name input -- will not be validated.\n   ** Warning ** ProcessScheduleInput: Schedule:Year=\"SCHEDULE RULESET 39\", Blank Schedule Type Limits Name input -- will not be validated.\n   ** Warning ** ProcessScheduleInput: Schedule:Year=\"SCHEDULE RULESET 4\", Blank Schedule Type Limits Name input -- will not be validated.\n   ** Warning ** ProcessScheduleInput: Schedule:Year=\"SCHEDULE RULESET 40\", Blank Schedule Type Limits Name input -- will not be validated.\n   ** Warning ** ProcessScheduleInput: Schedule:Year=\"SCHEDULE RULESET 41\", Blank Schedule Type Limits Name input -- will not be validated.\n   ** Warning ** ProcessScheduleInput: Schedule:Year=\"SCHEDULE RULESET 42\", Blank Schedule Type Limits Name input -- will not be validated.\n   ** Warning ** ProcessScheduleInput: Schedule:Year=\"SCHEDULE RULESET 43\", Blank Schedule Type Limits Name input -- will not be validated.\n   ** Warning ** ProcessScheduleInput: Schedule:Year=\"SCHEDULE RULESET 44\", Blank Schedule Type Limits Name input -- will not be validated.\n   ** Warning ** ProcessScheduleInput: Schedule:Year=\"SCHEDULE RULESET 45\", Blank Schedule Type Limits Name input -- will not be validated.\n   ** Warning ** ProcessScheduleInput: Schedule:Year=\"SCHEDULE RULESET 46\", Blank Schedule Type Limits Name input -- will not be validated.\n   ** Warning ** ProcessScheduleInput: Schedule:Year=\"SCHEDULE RULESET 47\", Blank Schedule Type Limits Name input -- will not be validated.\n   ** Warning ** ProcessScheduleInput: Schedule:Year=\"SCHEDULE RULESET 48\", Blank Schedule Type Limits Name input -- will not be validated.\n   ** Warning ** ProcessScheduleInput: Schedule:Year=\"SCHEDULE RULESET 49\", Blank Schedule Type Limits Name input -- will not be validated.\n   ** Warning ** ProcessScheduleInput: Schedule:Year=\"SCHEDULE RULESET 5\", Blank Schedule Type Limits Name input -- will not be validated.\n   ** Warning ** ProcessScheduleInput: Schedule:Year=\"SCHEDULE RULESET 50\", Blank Schedule Type Limits Name input -- will not be validated.\n   ** Warning ** ProcessScheduleInput: Schedule:Year=\"SCHEDULE RULESET 51\", Blank Schedule Type Limits Name input -- will not be validated.\n   ** Warning ** ProcessScheduleInput: Schedule:Year=\"SCHEDULE RULESET 52\", Blank Schedule Type Limits Name input -- will not be validated.\n   ** Warning ** ProcessScheduleInput: Schedule:Year=\"SCHEDULE RULESET 53\", Blank Schedule Type Limits Name input -- will not be validated.\n   ** Warning ** ProcessScheduleInput: Schedule:Year=\"SCHEDULE RULESET 54\", Blank Schedule Type Limits Name input -- will not be validated.\n   ** Warning ** ProcessScheduleInput: Schedule:Year=\"SCHEDULE RULESET 55\", Blank Schedule Type Limits Name input -- will not be validated.\n   ** Warning ** ProcessScheduleInput: Schedule:Year=\"SCHEDULE RULESET 56\", Blank Schedule Type Limits Name input -- will not be validated.\n   ** Warning ** ProcessScheduleInput: Schedule:Year=\"SCHEDULE RULESET 57\", Blank Schedule Type Limits Name input -- will not be validated.\n   ** Warning ** ProcessScheduleInput: Schedule:Year=\"SCHEDULE RULESET 58\", Blank Schedule Type Limits Name input -- will not be validated.\n   ** Warning ** ProcessScheduleInput: Schedule:Year=\"SCHEDULE RULESET 59\", Blank Schedule Type Limits Name input -- will not be validated.\n   ** Warning ** ProcessScheduleInput: Schedule:Year=\"SCHEDULE RULESET 6\", Blank Schedule Type Limits Name input -- will not be validated.\n   ** Warning ** ProcessScheduleInput: Schedule:Year=\"SCHEDULE RULESET 7\", Blank Schedule Type Limits Name input -- will not be validated.\n   ** Warning ** ProcessScheduleInput: Schedule:Year=\"SCHEDULE RULESET 8\", Blank Schedule Type Limits Name input -- will not be validated.\n   ** Warning ** ProcessScheduleInput: Schedule:Year=\"SCHEDULE RULESET 9\", Blank Schedule Type Limits Name input -- will not be validated.\n   ** Warning ** ProcessScheduleInput: Schedule:Constant=\"ALWAYS OFF DISCRETE\", Blank Schedule Type Limits Name input -- will not be validated.\n   ** Warning ** ProcessScheduleInput: Schedule:Constant=\"ALWAYS ON CONTINUOUS\", Blank Schedule Type Limits Name input -- will not be validated.\n   ** Warning ** CheckUsedConstructions: There are 23 nominally unused constructions in input.\n   **   ~~~   ** For explicit details on each unused construction, use Output:Diagnostics,DisplayExtraWarnings;\n   ** Warning ** GetInternalHeatGains: ElectricEquipment Combination of ZoneList and Object Name generate a name too long.\n   **   ~~~   ** Object Name=\"SPACE FUNCTION HOSPITAL - LAUNDRY/WASHING ELEC EQUIP\".\n   **   ~~~   ** ZoneList/Zone Name=\"SP-LAUNDRY_FLR_1 SYS-3 FLR-1 SCH-C HPLCMT-EAST ZN\".\n   **   ~~~   ** Item length=[101] > Maximum Length=[100]. You may need to shorten the names.\n   **   ~~~   ** Shortening the Object Name by [2] characters will assure uniqueness for this ZoneList.\n   **   ~~~   ** name that will be used (may be needed in reporting)=\"SP-LAUNDRY_FLR_1 SYS-3 FLR-1 SCH-C HPLCMT-EAST ZN SPACE FUNCTION HOSPITAL - LAUNDRY/WASHING ELEC EQUIP\".\n   ** Warning ** GetInternalHeatGains: ElectricEquipment Combination of ZoneList and Object Name generate a name too long.\n   **   ~~~   ** Object Name=\"SPACE FUNCTION HOTEL/MOTEL - ROOMS ELEC EQUIP\".\n   **   ~~~   ** ZoneList/Zone Name=\"SP-ROOM_3_MULT19_FLR_3 SYS-1 FLR-2 SCH-F HPLCMT-SOUTH ZN\".\n   **   ~~~   ** Item length=[101] > Maximum Length=[100]. You may need to shorten the names.\n   **   ~~~   ** Shortening the Object Name by [2] characters will assure uniqueness for this ZoneList.\n   **   ~~~   ** name that will be used (may be needed in reporting)=\"SP-ROOM_3_MULT19_FLR_3 SYS-1 FLR-2 SCH-F HPLCMT-SOUTH ZN SPACE FUNCTION HOTEL/MOTEL - ROOMS ELEC EQUIP\".\n   ** Warning ** GetInternalHeatGains: ElectricEquipment Combination of ZoneList and Object Name generate a name too long.\n   **   ~~~   ** Object Name=\"SPACE FUNCTION HOTEL/MOTEL - ROOMS ELEC EQUIP\".\n   **   ~~~   ** ZoneList/Zone Name=\"SP-ROOM_4_MULT19_FLR_3 SYS-1 FLR-2 SCH-F HPLCMT-NORTH ZN\".\n   **   ~~~   ** Item length=[101] > Maximum Length=[100]. You may need to shorten the names.\n   **   ~~~   ** Shortening the Object Name by [2] characters will assure uniqueness for this ZoneList.\n   **   ~~~   ** name that will be used (may be needed in reporting)=\"SP-ROOM_4_MULT19_FLR_3 SYS-1 FLR-2 SCH-F HPLCMT-NORTH ZN SPACE FUNCTION HOTEL/MOTEL - ROOMS ELEC EQUIP\".\n   ** Warning ** Calculated design heating load for zone=SP-BASEMENT SYS-4 FLR-3 SCH-E HPLCMT-NORTH ZN is zero.\n   **   ~~~   ** Check Sizing:Zone and ZoneControl:Thermostat inputs.\n   ** Warning ** Calculated design heating load for zone=SP-LOBBY_FLR_1 SYS-6 FLR-1 SCH-H HPLCMT-NORTH ZN is zero.\n   **   ~~~   ** Check Sizing:Zone and ZoneControl:Thermostat inputs.\n   ************* Beginning System Sizing Calculations\n   ** Warning ** Since Zone Minimum Air Flow Input Method = CONSTANT, input for Fixed Minimum Air Flow Rate will be ignored.\n   **   ~~~   ** Occurs in AirTerminal:SingleDuct:VAV:Reheat = AIR TERMINAL SINGLE DUCT VAV REHEAT 3\n   ** Warning ** Since Zone Minimum Air Flow Input Method = CONSTANT, input for Fixed Minimum Air Flow Rate will be ignored.\n   **   ~~~   ** Occurs in AirTerminal:SingleDuct:VAV:Reheat = AIR TERMINAL SINGLE DUCT VAV REHEAT 2\n   ** Warning ** Since Zone Minimum Air Flow Input Method = CONSTANT, input for Fixed Minimum Air Flow Rate will be ignored.\n   **   ~~~   ** Occurs in AirTerminal:SingleDuct:VAV:Reheat = AIR TERMINAL SINGLE DUCT VAV REHEAT 4\n   ** Warning ** Since Zone Minimum Air Flow Input Method = CONSTANT, input for Fixed Minimum Air Flow Rate will be ignored.\n   **   ~~~   ** Occurs in AirTerminal:SingleDuct:VAV:Reheat = AIR TERMINAL SINGLE DUCT VAV REHEAT 1\n   ** Warning ** Since Zone Minimum Air Flow Input Method = CONSTANT, input for Fixed Minimum Air Flow Rate will be ignored.\n   **   ~~~   ** Occurs in AirTerminal:SingleDuct:VAV:Reheat = AIR TERMINAL SINGLE DUCT VAV REHEAT 5\n   ** Warning ** GetDXCoils: Coil:Cooling:DX:SingleSpeed=\"COIL COOLING DX SINGLE SPEED 8 54KBTU/HR 9.3EER\", invalid\n   **   ~~~   ** ...Part Load Fraction Correlation Curve Name = DXCOOL-NECB2011-REF-COOLPLFFPLR 16 has out of range value.\n   **   ~~~   ** ...Curve maximum must be <= 1.0, curve max at PLR = 0.99 is 1.015\n   **   ~~~   ** ...Setting curve maximum to 1.0 and simulation continues.\n   ** Warning ** GetDXCoils: Coil:Cooling:DX:SingleSpeed=\"COIL COOLING DX SINGLE SPEED 5 16KBTU/HR 9.3EER\", invalid\n   **   ~~~   ** ...Part Load Fraction Correlation Curve Name = DXCOOL-NECB2011-REF-COOLPLFFPLR 13 has out of range value.\n   **   ~~~   ** ...Curve maximum must be <= 1.0, curve max at PLR = 0.99 is 1.015\n   **   ~~~   ** ...Setting curve maximum to 1.0 and simulation continues.\n   ** Warning ** GetDXCoils: Coil:Cooling:DX:SingleSpeed=\"COIL COOLING DX SINGLE SPEED 9 19KBTU/HR 9.3EER\", invalid\n   **   ~~~   ** ...Part Load Fraction Correlation Curve Name = DXCOOL-NECB2011-REF-COOLPLFFPLR 17 has out of range value.\n   **   ~~~   ** ...Curve maximum must be <= 1.0, curve max at PLR = 0.99 is 1.015\n   **   ~~~   ** ...Setting curve maximum to 1.0 and simulation continues.\n   ** Warning ** GetDXCoils: Coil:Cooling:DX:SingleSpeed=\"COIL COOLING DX SINGLE SPEED 6 16KBTU/HR 9.3EER\", invalid\n   **   ~~~   ** ...Part Load Fraction Correlation Curve Name = DXCOOL-NECB2011-REF-COOLPLFFPLR 14 has out of range value.\n   **   ~~~   ** ...Curve maximum must be <= 1.0, curve max at PLR = 0.99 is 1.015\n   **   ~~~   ** ...Setting curve maximum to 1.0 and simulation continues.\n   ** Warning ** GetDXCoils: Coil:Cooling:DX:SingleSpeed=\"COIL COOLING DX SINGLE SPEED 10 18KBTU/HR 9.3EER\", invalid\n   **   ~~~   ** ...Part Load Fraction Correlation Curve Name = DXCOOL-NECB2011-REF-COOLPLFFPLR 1 has out of range value.\n   **   ~~~   ** ...Curve maximum must be <= 1.0, curve max at PLR = 0.99 is 1.015\n   **   ~~~   ** ...Setting curve maximum to 1.0 and simulation continues.\n   ** Warning ** GetDXCoils: Coil:Cooling:DX:SingleSpeed=\"COIL COOLING DX SINGLE SPEED 7 4KBTU/HR 11.0EER\", invalid\n   **   ~~~   ** ...Part Load Fraction Correlation Curve Name = DXCOOL-NECB2011-REF-COOLPLFFPLR 15 has out of range value.\n   **   ~~~   ** ...Curve maximum must be <= 1.0, curve max at PLR = 0.99 is 1.015\n   **   ~~~   ** ...Setting curve maximum to 1.0 and simulation continues.\n   ** Warning ** GetDXCoils: Coil:Cooling:DX:SingleSpeed=\"COIL COOLING DX SINGLE SPEED 11 7KBTU/HR 11.0EER\", invalid\n   **   ~~~   ** ...Part Load Fraction Correlation Curve Name = DXCOOL-NECB2011-REF-COOLPLFFPLR 2 has out of range value.\n   **   ~~~   ** ...Curve maximum must be <= 1.0, curve max at PLR = 0.99 is 1.015\n   **   ~~~   ** ...Setting curve maximum to 1.0 and simulation continues.\n   ** Warning ** GetDXCoils: Coil:Cooling:DX:SingleSpeed=\"COIL COOLING DX SINGLE SPEED 2 3KBTU/HR 11.0EER\", invalid\n   **   ~~~   ** ...Part Load Fraction Correlation Curve Name = DXCOOL-NECB2011-REF-COOLPLFFPLR 10 has out of range value.\n   **   ~~~   ** ...Curve maximum must be <= 1.0, curve max at PLR = 0.99 is 1.015\n   **   ~~~   ** ...Setting curve maximum to 1.0 and simulation continues.\n   ** Warning ** GetDXCoils: Coil:Cooling:DX:SingleSpeed=\"COIL COOLING DX SINGLE SPEED 4 15KBTU/HR 9.3EER\", invalid\n   **   ~~~   ** ...Part Load Fraction Correlation Curve Name = DXCOOL-NECB2011-REF-COOLPLFFPLR 12 has out of range value.\n   **   ~~~   ** ...Curve maximum must be <= 1.0, curve max at PLR = 0.99 is 1.015\n   **   ~~~   ** ...Setting curve maximum to 1.0 and simulation continues.\n   ** Warning ** GetDXCoils: Coil:Cooling:DX:SingleSpeed=\"COIL COOLING DX SINGLE SPEED 3 15KBTU/HR 9.3EER\", invalid\n   **   ~~~   ** ...Part Load Fraction Correlation Curve Name = DXCOOL-NECB2011-REF-COOLPLFFPLR 11 has out of range value.\n   **   ~~~   ** ...Curve maximum must be <= 1.0, curve max at PLR = 0.99 is 1.015\n   **   ~~~   ** ...Setting curve maximum to 1.0 and simulation continues.\n   ** Warning ** GetDXCoils: Coil:Cooling:DX:SingleSpeed=\"COIL COOLING DX SINGLE SPEED 1 260KBTU/HR 8.21EER\", invalid\n   **   ~~~   ** ...Part Load Fraction Correlation Curve Name = DXCOOL-NECB2011-REF-COOLPLFFPLR has out of range value.\n   **   ~~~   ** ...Curve maximum must be <= 1.0, curve max at PLR = 0.99 is 1.015\n   **   ~~~   ** ...Setting curve maximum to 1.0 and simulation continues.\n   ** Warning ** GetDXCoils: Coil:Cooling:DX:SingleSpeed=\"COIL COOLING DX SINGLE SPEED 14 101KBTU/HR 9.7EER\", invalid\n   **   ~~~   ** ...Part Load Fraction Correlation Curve Name = DXCOOL-NECB2011-REF-COOLPLFFPLR 5 has out of range value.\n   **   ~~~   ** ...Curve maximum must be <= 1.0, curve max at PLR = 0.99 is 1.015\n   **   ~~~   ** ...Setting curve maximum to 1.0 and simulation continues.\n   ** Warning ** GetDXCoils: Coil:Cooling:DX:SingleSpeed=\"COIL COOLING DX SINGLE SPEED 18 98KBTU/HR 9.7EER\", invalid\n   **   ~~~   ** ...Part Load Fraction Correlation Curve Name = DXCOOL-NECB2011-REF-COOLPLFFPLR 9 has out of range value.\n   **   ~~~   ** ...Curve maximum must be <= 1.0, curve max at PLR = 0.99 is 1.015\n   **   ~~~   ** ...Setting curve maximum to 1.0 and simulation continues.\n   ** Warning ** GetDXCoils: Coil:Cooling:DX:SingleSpeed=\"COIL COOLING DX SINGLE SPEED 13 64KBTU/HR 14.0SEER\", invalid\n   **   ~~~   ** ...Part Load Fraction Correlation Curve Name = DXCOOL-NECB2011-REF-COOLPLFFPLR 4 has out of range value.\n   **   ~~~   ** ...Curve maximum must be <= 1.0, curve max at PLR = 0.99 is 1.015\n   **   ~~~   ** ...Setting curve maximum to 1.0 and simulation continues.\n   ** Warning ** GetDXCoils: Coil:Cooling:DX:SingleSpeed=\"COIL COOLING DX SINGLE SPEED 15 101KBTU/HR 9.7EER\", invalid\n   **   ~~~   ** ...Part Load Fraction Correlation Curve Name = DXCOOL-NECB2011-REF-COOLPLFFPLR 6 has out of range value.\n   **   ~~~   ** ...Curve maximum must be <= 1.0, curve max at PLR = 0.99 is 1.015\n   **   ~~~   ** ...Setting curve maximum to 1.0 and simulation continues.\n   ** Warning ** GetDXCoils: Coil:Cooling:DX:SingleSpeed=\"COIL COOLING DX SINGLE SPEED 16 43KBTU/HR 14.0SEER\", invalid\n   **   ~~~   ** ...Part Load Fraction Correlation Curve Name = DXCOOL-NECB2011-REF-COOLPLFFPLR 7 has out of range value.\n   **   ~~~   ** ...Curve maximum must be <= 1.0, curve max at PLR = 0.99 is 1.015\n   **   ~~~   ** ...Setting curve maximum to 1.0 and simulation continues.\n   ** Warning ** GetDXCoils: Coil:Cooling:DX:SingleSpeed=\"COIL COOLING DX SINGLE SPEED 12 18KBTU/HR 14.0SEER\", invalid\n   **   ~~~   ** ...Part Load Fraction Correlation Curve Name = DXCOOL-NECB2011-REF-COOLPLFFPLR 3 has out of range value.\n   **   ~~~   ** ...Curve maximum must be <= 1.0, curve max at PLR = 0.99 is 1.015\n   **   ~~~   ** ...Setting curve maximum to 1.0 and simulation continues.\n   ** Warning ** GetDXCoils: Coil:Cooling:DX:SingleSpeed=\"COIL COOLING DX SINGLE SPEED 17 7KBTU/HR 14.0SEER\", invalid\n   **   ~~~   ** ...Part Load Fraction Correlation Curve Name = DXCOOL-NECB2011-REF-COOLPLFFPLR 8 has out of range value.\n   **   ~~~   ** ...Curve maximum must be <= 1.0, curve max at PLR = 0.99 is 1.015\n   **   ~~~   ** ...Setting curve maximum to 1.0 and simulation continues.\n   ************* Beginning Plant Sizing Calculations\n   ** Warning ** The Standard Ratings is calculated for Coil:Cooling:DX:SingleSpeed = COIL COOLING DX SINGLE SPEED 8 54KBTU/HR 9.3EER but not at the AHRI test condition due to curve out of bound.\n   **   ~~~   **  Review the Standard Ratings calculations in the Engineering Reference for this coil type. Also, use Output:Diagnostics, DisplayExtraWarnings for further guidance.\n   ** Warning ** The Standard Ratings is calculated for Coil:Cooling:DX:SingleSpeed = COIL COOLING DX SINGLE SPEED 5 16KBTU/HR 9.3EER but not at the AHRI test condition due to curve out of bound.\n   **   ~~~   **  Review the Standard Ratings calculations in the Engineering Reference for this coil type. Also, use Output:Diagnostics, DisplayExtraWarnings for further guidance.\n   ** Warning ** The Standard Ratings is calculated for Coil:Cooling:DX:SingleSpeed = COIL COOLING DX SINGLE SPEED 9 19KBTU/HR 9.3EER but not at the AHRI test condition due to curve out of bound.\n   **   ~~~   **  Review the Standard Ratings calculations in the Engineering Reference for this coil type. Also, use Output:Diagnostics, DisplayExtraWarnings for further guidance.\n   ** Warning ** The Standard Ratings is calculated for Coil:Cooling:DX:SingleSpeed = COIL COOLING DX SINGLE SPEED 6 16KBTU/HR 9.3EER but not at the AHRI test condition due to curve out of bound.\n   **   ~~~   **  Review the Standard Ratings calculations in the Engineering Reference for this coil type. Also, use Output:Diagnostics, DisplayExtraWarnings for further guidance.\n   ** Warning ** The Standard Ratings is calculated for Coil:Cooling:DX:SingleSpeed = COIL COOLING DX SINGLE SPEED 10 18KBTU/HR 9.3EER but not at the AHRI test condition due to curve out of bound.\n   **   ~~~   **  Review the Standard Ratings calculations in the Engineering Reference for this coil type. Also, use Output:Diagnostics, DisplayExtraWarnings for further guidance.\n   ** Warning ** The Standard Ratings is calculated for Coil:Cooling:DX:SingleSpeed = COIL COOLING DX SINGLE SPEED 7 4KBTU/HR 11.0EER but not at the AHRI test condition due to curve out of bound.\n   **   ~~~   **  Review the Standard Ratings calculations in the Engineering Reference for this coil type. Also, use Output:Diagnostics, DisplayExtraWarnings for further guidance.\n   ** Warning ** The Standard Ratings is calculated for Coil:Cooling:DX:SingleSpeed = COIL COOLING DX SINGLE SPEED 11 7KBTU/HR 11.0EER but not at the AHRI test condition due to curve out of bound.\n   **   ~~~   **  Review the Standard Ratings calculations in the Engineering Reference for this coil type. Also, use Output:Diagnostics, DisplayExtraWarnings for further guidance.\n   ** Warning ** The Standard Ratings is calculated for Coil:Cooling:DX:SingleSpeed = COIL COOLING DX SINGLE SPEED 2 3KBTU/HR 11.0EER but not at the AHRI test condition due to curve out of bound.\n   **   ~~~   **  Review the Standard Ratings calculations in the Engineering Reference for this coil type. Also, use Output:Diagnostics, DisplayExtraWarnings for further guidance.\n   ** Warning ** The Standard Ratings is calculated for Coil:Cooling:DX:SingleSpeed = COIL COOLING DX SINGLE SPEED 4 15KBTU/HR 9.3EER but not at the AHRI test condition due to curve out of bound.\n   **   ~~~   **  Review the Standard Ratings calculations in the Engineering Reference for this coil type. Also, use Output:Diagnostics, DisplayExtraWarnings for further guidance.\n   ** Warning ** The Standard Ratings is calculated for Coil:Cooling:DX:SingleSpeed = COIL COOLING DX SINGLE SPEED 3 15KBTU/HR 9.3EER but not at the AHRI test condition due to curve out of bound.\n   **   ~~~   **  Review the Standard Ratings calculations in the Engineering Reference for this coil type. Also, use Output:Diagnostics, DisplayExtraWarnings for further guidance.\n   ** Warning ** The Standard Ratings is calculated for Coil:Cooling:DX:SingleSpeed = COIL COOLING DX SINGLE SPEED 1 260KBTU/HR 8.21EER but not at the AHRI test condition due to curve out of bound.\n   **   ~~~   **  Review the Standard Ratings calculations in the Engineering Reference for this coil type. Also, use Output:Diagnostics, DisplayExtraWarnings for further guidance.\n   ** Warning ** The Standard Ratings is calculated for Coil:Cooling:DX:SingleSpeed = COIL COOLING DX SINGLE SPEED 14 101KBTU/HR 9.7EER but not at the AHRI test condition due to curve out of bound.\n   **   ~~~   **  Review the Standard Ratings calculations in the Engineering Reference for this coil type. Also, use Output:Diagnostics, DisplayExtraWarnings for further guidance.\n   ** Warning ** The Standard Ratings is calculated for Coil:Cooling:DX:SingleSpeed = COIL COOLING DX SINGLE SPEED 18 98KBTU/HR 9.7EER but not at the AHRI test condition due to curve out of bound.\n   **   ~~~   **  Review the Standard Ratings calculations in the Engineering Reference for this coil type. Also, use Output:Diagnostics, DisplayExtraWarnings for further guidance.\n   ** Warning ** The Standard Ratings is calculated for Coil:Cooling:DX:SingleSpeed = COIL COOLING DX SINGLE SPEED 13 64KBTU/HR 14.0SEER but not at the AHRI test condition due to curve out of bound.\n   **   ~~~   **  Review the Standard Ratings calculations in the Engineering Reference for this coil type. Also, use Output:Diagnostics, DisplayExtraWarnings for further guidance.\n   ** Warning ** The Standard Ratings is calculated for Coil:Cooling:DX:SingleSpeed = COIL COOLING DX SINGLE SPEED 15 101KBTU/HR 9.7EER but not at the AHRI test condition due to curve out of bound.\n   **   ~~~   **  Review the Standard Ratings calculations in the Engineering Reference for this coil type. Also, use Output:Diagnostics, DisplayExtraWarnings for further guidance.\n   ** Warning ** The Standard Ratings is calculated for Coil:Cooling:DX:SingleSpeed = COIL COOLING DX SINGLE SPEED 16 43KBTU/HR 14.0SEER but not at the AHRI test condition due to curve out of bound.\n   **   ~~~   **  Review the Standard Ratings calculations in the Engineering Reference for this coil type. Also, use Output:Diagnostics, DisplayExtraWarnings for further guidance.\n   ** Warning ** The Standard Ratings is calculated for Coil:Cooling:DX:SingleSpeed = COIL COOLING DX SINGLE SPEED 12 18KBTU/HR 14.0SEER but not at the AHRI test condition due to curve out of bound.\n   **   ~~~   **  Review the Standard Ratings calculations in the Engineering Reference for this coil type. Also, use Output:Diagnostics, DisplayExtraWarnings for further guidance.\n   ** Warning ** The Standard Ratings is calculated for Coil:Cooling:DX:SingleSpeed = COIL COOLING DX SINGLE SPEED 17 7KBTU/HR 14.0SEER but not at the AHRI test condition due to curve out of bound.\n   **   ~~~   **  Review the Standard Ratings calculations in the Engineering Reference for this coil type. Also, use Output:Diagnostics, DisplayExtraWarnings for further guidance.\n   ** Warning ** Missing temperature setpoint for LeavingSetpointModulated mode chiller named PRIMARY CHILLER WATERCOOLED SCROLL 37TONS 0.8KW/TON\n   **   ~~~   **   A temperature setpoint is needed at the outlet node of a chiller in variable flow mode, use a SetpointManager\n   **   ~~~   **   The overall loop setpoint will be assumed for chiller. The simulation continues ... \n   ** Warning ** Missing temperature setpoint for LeavingSetpointModulated mode chiller named SECONDARY CHILLER WATERCOOLED SCROLL 0TONS 0.8KW/TON\n   **   ~~~   **   A temperature setpoint is needed at the outlet node of a chiller in variable flow mode, use a SetpointManager\n   **   ~~~   **   The overall loop setpoint will be assumed for chiller. The simulation continues ... \n   ** Warning ** Missing temperature setpoint for LeavingSetpointModulated mode Boiler named PRIMARY BOILER 2256KBTU/HR 0.83 THERMAL EFF\n   **   ~~~   **   A temperature setpoint is needed at the outlet node of a boiler in variable flow mode, use a SetpointManager\n   **   ~~~   **   The overall loop setpoint will be assumed for Boiler. The simulation continues ... \n   ** Warning ** Output:Meter: invalid Name=\"DISTRICTCOOLING:FACILITY\" - not found.\n   ** Warning ** Output:Meter: invalid Name=\"DISTRICTHEATING:FACILITY\" - not found.\n   ** Warning ** Output:Meter:MeterFileOnly requested for \"Electricity:Facility\" (TimeStep), already on \"Output:Meter\". Will report to both eplusout.eso and eplusout.mtr\n   ************* Testing Individual Branch Integrity\n   ************* All Branches passed integrity testing\n   ************* Testing Individual Supply Air Path Integrity\n   ************* All Supply Air Paths passed integrity testing\n   ************* Testing Individual Return Air Path Integrity\n   ************* All Return Air Paths passed integrity testing\n   ************* No node connection errors were found.\n   ************* Beginning Simulation\n   ** Warning ** CalcDoe2DXCoil: Coil:Cooling:DX:SingleSpeed \"COIL COOLING DX SINGLE SPEED 16 43KBTU/HR 14.0SEER\" - Air-cooled condenser inlet dry-bulb temperature below 0 C. Outdoor dry-bulb temperature = -4.95\n   **   ~~~   **  ... Occurrence info = RUN PERIOD 1, 01/01 01:02 - 01:03\n   **   ~~~   ** ... Operation at low ambient temperatures may require special performance curves.\n   ** Warning ** CalcDoe2DXCoil: Coil:Cooling:DX:SingleSpeed \"COIL COOLING DX SINGLE SPEED 11 7KBTU/HR 11.0EER\" - Air-cooled condenser inlet dry-bulb temperature below 0 C. Outdoor dry-bulb temperature = -5.00\n   **   ~~~   **  ... Occurrence info = RUN PERIOD 1, 01/01 10:56 - 11:00\n   **   ~~~   ** ... Operation at low ambient temperatures may require special performance curves.\n   ** Warning ** CalcDoe2DXCoil: Coil:Cooling:DX:SingleSpeed \"COIL COOLING DX SINGLE SPEED 7 4KBTU/HR 11.0EER\" - Air-cooled condenser inlet dry-bulb temperature below 0 C. Outdoor dry-bulb temperature = -4.85\n   **   ~~~   **  ... Occurrence info = RUN PERIOD 1, 01/01 11:05 - 11:10\n   **   ~~~   ** ... Operation at low ambient temperatures may require special performance curves.\n   ** Warning ** CalcDoe2DXCoil: Coil:Cooling:DX:SingleSpeed \"COIL COOLING DX SINGLE SPEED 9 19KBTU/HR 9.3EER\" - Air-cooled condenser inlet dry-bulb temperature below 0 C. Outdoor dry-bulb temperature = -4.73\n   **   ~~~   **  ... Occurrence info = RUN PERIOD 1, 01/01 14:30 - 14:35\n   **   ~~~   ** ... Operation at low ambient temperatures may require special performance curves.\n   ** Warning ** CalcDoe2DXCoil: Coil:Cooling:DX:SingleSpeed \"COIL COOLING DX SINGLE SPEED 5 16KBTU/HR 9.3EER\" - Air-cooled condenser inlet dry-bulb temperature below 0 C. Outdoor dry-bulb temperature = -4.73\n   **   ~~~   **  ... Occurrence info = RUN PERIOD 1, 01/01 14:35 - 14:40\n   **   ~~~   ** ... Operation at low ambient temperatures may require special performance curves.\n   ** Warning ** CalcDoe2DXCoil: Coil:Cooling:DX:SingleSpeed \"COIL COOLING DX SINGLE SPEED 10 18KBTU/HR 9.3EER\" - Air-cooled condenser inlet dry-bulb temperature below 0 C. Outdoor dry-bulb temperature = -5.00\n   **   ~~~   **  ... Occurrence info = RUN PERIOD 1, 01/01 15:20 - 15:25\n   **   ~~~   ** ... Operation at low ambient temperatures may require special performance curves.\n   ** Warning ** CalcDoe2DXCoil: Coil:Cooling:DX:SingleSpeed \"COIL COOLING DX SINGLE SPEED 6 16KBTU/HR 9.3EER\" - Air-cooled condenser inlet dry-bulb temperature below 0 C. Outdoor dry-bulb temperature = -5.00\n   **   ~~~   **  ... Occurrence info = RUN PERIOD 1, 01/01 15:45 - 16:00\n   **   ~~~   ** ... Operation at low ambient temperatures may require special performance curves.\n   ** Warning ** CalcDoe2DXCoil: Coil:Cooling:DX:SingleSpeed \"COIL COOLING DX SINGLE SPEED 7 4KBTU/HR 11.0EER\" - Full load outlet air dry-bulb temperature < 2C. This indicates the possibility of coil frost/freeze. Outlet temperature = 1.95 C.\n   **   ~~~   **  ...Occurrence info = RUN PERIOD 1, 01/01 16:45 - 16:50\n   **   ~~~   ** ... Possible reasons for low outlet air dry-bulb temperatures are: This DX coil\n   **   ~~~   **    1) may have a low inlet air dry-bulb temperature. Inlet air temperature = 16.681 C.\n   **   ~~~   **    2) may have a low air flow rate per watt of cooling capacity. Check inputs.\n   **   ~~~   **    3) is used as part of a HX assisted cooling coil which uses a high sensible effectiveness. Check inputs.\n   ** Warning ** CalcDoe2DXCoil: Coil:Cooling:DX:SingleSpeed \"COIL COOLING DX SINGLE SPEED 13 64KBTU/HR 14.0SEER\" - Air-cooled condenser inlet dry-bulb temperature below 0 C. Outdoor dry-bulb temperature = -7.65\n   **   ~~~   **  ... Occurrence info = RUN PERIOD 1, 01/02 07:02 - 07:04\n   **   ~~~   ** ... Operation at low ambient temperatures may require special performance curves.\n   ** Warning ** CalcDoe2DXCoil: Coil:Cooling:DX:SingleSpeed \"COIL COOLING DX SINGLE SPEED 17 7KBTU/HR 14.0SEER\" - Air-cooled condenser inlet dry-bulb temperature below 0 C. Outdoor dry-bulb temperature = -0.98\n   **   ~~~   **  ... Occurrence info = RUN PERIOD 1, 01/03 07:02 - 07:04\n   **   ~~~   ** ... Operation at low ambient temperatures may require special performance curves.\n   ** Warning ** CalcDoe2DXCoil: Coil:Cooling:DX:SingleSpeed \"COIL COOLING DX SINGLE SPEED 17 7KBTU/HR 14.0SEER\" - Full load outlet air dry-bulb temperature < 2C. This indicates the possibility of coil frost/freeze. Outlet temperature = -4.18 C.\n   **   ~~~   **  ...Occurrence info = RUN PERIOD 1, 01/03 07:02 - 07:04\n   **   ~~~   ** ... Possible reasons for low outlet air dry-bulb temperatures are: This DX coil\n   **   ~~~   **    1) may have a low inlet air dry-bulb temperature. Inlet air temperature = 12.280 C.\n   **   ~~~   **    2) may have a low air flow rate per watt of cooling capacity. Check inputs.\n   **   ~~~   **    3) is used as part of a HX assisted cooling coil which uses a high sensible effectiveness. Check inputs.\n   ** Warning ** SimHVAC: Maximum iterations (20) exceeded for all HVAC loops, at RUN PERIOD 1, 01/04 11:38 - 11:45\n   **   ~~~   ** The solution for one or more of the Air Loop HVAC systems did not appear to converge\n   **   ~~~   ** ...use Output:Diagnostics,DisplayExtraWarnings; to show more details on each max iteration exceeded.\n   ** Warning ** SimHVAC: Maximum iterations (20) exceeded for all HVAC loops, at RUN PERIOD 1, 01/04 11:45 - 12:00\n   **   ~~~   ** The solution for one or more of the Air Loop HVAC systems did not appear to converge\n   ** Warning ** SimHVAC: Maximum iterations (20) exceeded for all HVAC loops, at RUN PERIOD 1, 01/04 13:00 - 13:15\n   **   ~~~   ** The solution for one or more of the Air Loop HVAC systems did not appear to converge\n   ** Warning ** SimHVAC: Maximum iterations (20) exceeded for all HVAC loops, at RUN PERIOD 1, 01/04 13:15 - 13:30\n   **   ~~~   ** The solution for one or more of the Air Loop HVAC systems did not appear to converge\n   ** Warning ** CalcDoe2DXCoil: Coil:Cooling:DX:SingleSpeed \"COIL COOLING DX SINGLE SPEED 4 15KBTU/HR 9.3EER\" - Air-cooled condenser inlet dry-bulb temperature below 0 C. Outdoor dry-bulb temperature = -17.90\n   **   ~~~   **  ... Occurrence info = RUN PERIOD 1, 01/10 10:00 - 10:04\n   **   ~~~   ** ... Operation at low ambient temperatures may require special performance curves.\n   ** Warning ** SimHVAC: Maximum iterations (20) exceeded for all HVAC loops, at RUN PERIOD 1, 01/11 09:53 - 09:56\n   **   ~~~   ** The solution for one or more of the Air Loop HVAC systems did not appear to converge\n   ** Warning ** SimHVAC: Maximum iterations (20) exceeded for all HVAC loops, at RUN PERIOD 1, 01/12 09:41 - 09:45\n   **   ~~~   ** The solution for one or more of the Air Loop HVAC systems did not appear to converge\n   ** Warning ** SimHVAC: Maximum iterations (20) exceeded for all HVAC loops, at RUN PERIOD 1, 01/12 09:45 - 10:00\n   **   ~~~   ** The solution for one or more of the Air Loop HVAC systems did not appear to converge\n   ** Warning ** SimHVAC: Maximum iterations (20) exceeded for all HVAC loops, at RUN PERIOD 1, 01/17 10:15 - 10:30\n   **   ~~~   ** The solution for one or more of the Air Loop HVAC systems did not appear to converge\n   ** Warning ** SimHVAC: Maximum iterations (20) exceeded for all HVAC loops, at RUN PERIOD 1, 01/17 10:15 - 10:20\n   **   ~~~   ** The solution for one or more of the Air Loop HVAC systems did not appear to converge\n   ** Warning ** SimHVAC: Maximum iterations (20) exceeded for all HVAC loops, at RUN PERIOD 1, 01/17 10:20 - 10:25\n   **   ~~~   ** The solution for one or more of the Air Loop HVAC systems did not appear to converge\n   ** Warning ** SimHVAC: Maximum iterations (20) exceeded for all HVAC loops, at RUN PERIOD 1, 01/17 10:25 - 10:30\n   **   ~~~   ** The solution for one or more of the Air Loop HVAC systems did not appear to converge\n   ** Warning ** SimHVAC: Maximum iterations (20) exceeded for all HVAC loops, at RUN PERIOD 1, 01/17 10:30 - 10:34\n   **   ~~~   ** The solution for one or more of the Air Loop HVAC systems did not appear to converge\n   ** Warning ** SimHVAC: Maximum iterations (20) exceeded for all HVAC loops, at RUN PERIOD 1, 01/17 14:15 - 14:30\n   **   ~~~   ** The solution for one or more of the Air Loop HVAC systems did not appear to converge\n   ** Warning ** SimHVAC: Maximum iterations (20) exceeded for all HVAC loops, at RUN PERIOD 1, 01/17 14:30 - 14:45\n   **   ~~~   ** The solution for one or more of the Air Loop HVAC systems did not appear to converge\n   ** Warning ** CalcDoe2DXCoil: Coil:Cooling:DX:SingleSpeed \"COIL COOLING DX SINGLE SPEED 13 64KBTU/HR 14.0SEER\" - Full load outlet air dry-bulb temperature < 2C. This indicates the possibility of coil frost/freeze. Outlet temperature = 1.46 C.\n   **   ~~~   **  ...Occurrence info = RUN PERIOD 1, 01/19 08:02 - 08:04\n   **   ~~~   ** ... Possible reasons for low outlet air dry-bulb temperatures are: This DX coil\n   **   ~~~   **    1) may have a low inlet air dry-bulb temperature. Inlet air temperature = 16.945 C.\n   **   ~~~   **    2) may have a low air flow rate per watt of cooling capacity. Check inputs.\n   **   ~~~   **    3) is used as part of a HX assisted cooling coil which uses a high sensible effectiveness. Check inputs.\n   ** Warning ** CalcDoe2DXCoil: Coil:Cooling:DX:SingleSpeed \"COIL COOLING DX SINGLE SPEED 3 15KBTU/HR 9.3EER\" - Air-cooled condenser inlet dry-bulb temperature below 0 C. Outdoor dry-bulb temperature = -1.28\n   **   ~~~   **  ... Occurrence info = RUN PERIOD 1, 01/24 10:08 - 10:11\n   **   ~~~   ** ... Operation at low ambient temperatures may require special performance curves.\n   ** Warning ** CalcDoe2DXCoil: Coil:Cooling:DX:SingleSpeed \"COIL COOLING DX SINGLE SPEED 16 43KBTU/HR 14.0SEER\" - Full load outlet air dry-bulb temperature < 2C. This indicates the possibility of coil frost/freeze. Outlet temperature = 1.90 C.\n   **   ~~~   **  ...Occurrence info = RUN PERIOD 1, 02/13 00:02 - 00:03\n   **   ~~~   ** ... Possible reasons for low outlet air dry-bulb temperatures are: This DX coil\n   **   ~~~   **    1) may have a low inlet air dry-bulb temperature. Inlet air temperature = 15.208 C.\n   **   ~~~   **    2) may have a low air flow rate per watt of cooling capacity. Check inputs.\n   **   ~~~   **    3) is used as part of a HX assisted cooling coil which uses a high sensible effectiveness. Check inputs.\n   ** Warning ** CalcDoe2DXCoil: Coil:Cooling:DX:SingleSpeed \"COIL COOLING DX SINGLE SPEED 2 3KBTU/HR 11.0EER\" - Full load outlet air dry-bulb temperature < 2C. This indicates the possibility of coil frost/freeze. Outlet temperature = 1.27 C.\n   **   ~~~   **  ...Occurrence info = RUN PERIOD 1, 02/22 21:53 - 22:00\n   **   ~~~   ** ... Possible reasons for low outlet air dry-bulb temperatures are: This DX coil\n   **   ~~~   **    1) may have a low inlet air dry-bulb temperature. Inlet air temperature = 17.232 C.\n   **   ~~~   **    2) may have a low air flow rate per watt of cooling capacity. Check inputs.\n   **   ~~~   **    3) is used as part of a HX assisted cooling coil which uses a high sensible effectiveness. Check inputs.\n   ** Warning ** CalcDoe2DXCoil: Coil:Cooling:DX:SingleSpeed \"COIL COOLING DX SINGLE SPEED 2 3KBTU/HR 11.0EER\" - Air-cooled condenser inlet dry-bulb temperature below 0 C. Outdoor dry-bulb temperature = -2.20\n   **   ~~~   **  ... Occurrence info = RUN PERIOD 1, 03/09 21:35 - 21:40\n   **   ~~~   ** ... Operation at low ambient temperatures may require special performance curves.\n   ** Warning ** CalcDoe2DXCoil: Coil:Cooling:DX:SingleSpeed \"COIL COOLING DX SINGLE SPEED 18 98KBTU/HR 9.7EER\" - Full load outlet air dry-bulb temperature < 2C. This indicates the possibility of coil frost/freeze. Outlet temperature = 0.15 C.\n   **   ~~~   **  ...Occurrence info = RUN PERIOD 1, 03/25 14:00 - 14:08\n   **   ~~~   ** ... Possible reasons for low outlet air dry-bulb temperatures are: This DX coil\n   **   ~~~   **    1) may have a low inlet air dry-bulb temperature. Inlet air temperature = 13.025 C.\n   **   ~~~   **    2) may have a low air flow rate per watt of cooling capacity. Check inputs.\n   **   ~~~   **    3) is used as part of a HX assisted cooling coil which uses a high sensible effectiveness. Check inputs.\n   ** Warning ** CalcDoe2DXCoil: Coil:Cooling:DX:SingleSpeed \"COIL COOLING DX SINGLE SPEED 12 18KBTU/HR 14.0SEER\" - Full load outlet air dry-bulb temperature < 2C. This indicates the possibility of coil frost/freeze. Outlet temperature = -0.73 C.\n   **   ~~~   **  ...Occurrence info = RUN PERIOD 1, 04/01 15:08 - 15:15\n   **   ~~~   ** ... Possible reasons for low outlet air dry-bulb temperatures are: This DX coil\n   **   ~~~   **    1) may have a low inlet air dry-bulb temperature. Inlet air temperature = 15.975 C.\n   **   ~~~   **    2) may have a low air flow rate per watt of cooling capacity. Check inputs.\n   **   ~~~   **    3) is used as part of a HX assisted cooling coil which uses a high sensible effectiveness. Check inputs.\n   ** Warning ** CalcDoe2DXCoil: Coil:Cooling:DX:SingleSpeed \"COIL COOLING DX SINGLE SPEED 15 101KBTU/HR 9.7EER\" - Full load outlet air dry-bulb temperature < 2C. This indicates the possibility of coil frost/freeze. Outlet temperature = 1.17 C.\n   **   ~~~   **  ...Occurrence info = RUN PERIOD 1, 05/07 10:55 - 11:00\n   **   ~~~   ** ... Possible reasons for low outlet air dry-bulb temperatures are: This DX coil\n   **   ~~~   **    1) may have a low inlet air dry-bulb temperature. Inlet air temperature = 17.800 C.\n   **   ~~~   **    2) may have a low air flow rate per watt of cooling capacity. Check inputs.\n   **   ~~~   **    3) is used as part of a HX assisted cooling coil which uses a high sensible effectiveness. Check inputs.\n   ** Warning ** CalcDoe2DXCoil: Coil:Cooling:DX:SingleSpeed \"COIL COOLING DX SINGLE SPEED 1 260KBTU/HR 8.21EER\" - Full load outlet air dry-bulb temperature < 2C. This indicates the possibility of coil frost/freeze. Outlet temperature = 1.22 C.\n   **   ~~~   **  ...Occurrence info = RUN PERIOD 1, 05/25 14:45 - 15:00\n   **   ~~~   ** ... Possible reasons for low outlet air dry-bulb temperatures are: This DX coil\n   **   ~~~   **    1) may have a low inlet air dry-bulb temperature. Inlet air temperature = 18.900 C.\n   **   ~~~   **    2) may have a low air flow rate per watt of cooling capacity. Check inputs.\n   **   ~~~   **    3) is used as part of a HX assisted cooling coil which uses a high sensible effectiveness. Check inputs.\n   ** Warning ** CalcDoe2DXCoil: Coil:Cooling:DX:SingleSpeed \"COIL COOLING DX SINGLE SPEED 14 101KBTU/HR 9.7EER\" - Full load outlet air dry-bulb temperature < 2C. This indicates the possibility of coil frost/freeze. Outlet temperature = 1.22 C.\n   **   ~~~   **  ...Occurrence info = RUN PERIOD 1, 05/25 14:45 - 15:00\n   **   ~~~   ** ... Possible reasons for low outlet air dry-bulb temperatures are: This DX coil\n   **   ~~~   **    1) may have a low inlet air dry-bulb temperature. Inlet air temperature = 18.900 C.\n   **   ~~~   **    2) may have a low air flow rate per watt of cooling capacity. Check inputs.\n   **   ~~~   **    3) is used as part of a HX assisted cooling coil which uses a high sensible effectiveness. Check inputs.\n   ************* Simulation Error Summary *************\n   ************* There are 9 unused schedules in input.\n   ************* There are 9 unused week schedules in input.\n   ************* There are 35 unused day schedules in input.\n   ************* Use Output:Diagnostics,DisplayUnusedSchedules; to see them.\n   *************\n   ************* ===== Recurring Error Summary =====\n   ************* The following recurring error messages occurred.\n   *************\n   *************  ** Warning ** CalcDoe2DXCoil: Coil:Cooling:DX:SingleSpeed=\"COIL COOLING DX SINGLE SPEED 16 43KBTU/HR 14.0SEER\" - Low condenser dry-bulb temperature error continues...\n   *************  **   ~~~   **   This error occurred 531 total times;\n   *************  **   ~~~   **   during Warmup 0 times;\n   *************  **   ~~~   **   during Sizing 0 times.\n   *************  **   ~~~   **   Max=-2.500000E-002 [C]  Min=-20. [C]\n   *************\n   *************  ** Warning ** CalcDoe2DXCoil: Coil:Cooling:DX:SingleSpeed=\"COIL COOLING DX SINGLE SPEED 11 7KBTU/HR 11.0EER\" - Low condenser dry-bulb temperature error continues...\n   *************  **   ~~~   **   This error occurred 2182 total times;\n   *************  **   ~~~   **   during Warmup 0 times;\n   *************  **   ~~~   **   during Sizing 0 times.\n   *************  **   ~~~   **   Max=-5.000000E-002 [C]  Min=-17.9 [C]\n   *************\n   *************  ** Warning ** CalcDoe2DXCoil: Coil:Cooling:DX:SingleSpeed=\"COIL COOLING DX SINGLE SPEED 7 4KBTU/HR 11.0EER\" - Low condenser dry-bulb temperature error continues...\n   *************  **   ~~~   **   This error occurred 4919 total times;\n   *************  **   ~~~   **   during Warmup 0 times;\n   *************  **   ~~~   **   during Sizing 0 times.\n   *************  **   ~~~   **   Max=-2.500000E-002 [C]  Min=-17.5 [C]\n   *************\n   *************  ** Warning ** CalcDoe2DXCoil: Coil:Cooling:DX:SingleSpeed=\"COIL COOLING DX SINGLE SPEED 9 19KBTU/HR 9.3EER\" - Low condenser dry-bulb temperature error continues...\n   *************  **   ~~~   **   This error occurred 1002 total times;\n   *************  **   ~~~   **   during Warmup 0 times;\n   *************  **   ~~~   **   during Sizing 0 times.\n   *************  **   ~~~   **   Max=-5.000000E-002 [C]  Min=-14.825 [C]\n   *************\n   *************  ** Warning ** CalcDoe2DXCoil: Coil:Cooling:DX:SingleSpeed=\"COIL COOLING DX SINGLE SPEED 5 16KBTU/HR 9.3EER\" - Low condenser dry-bulb temperature error continues...\n   *************  **   ~~~   **   This error occurred 1468 total times;\n   *************  **   ~~~   **   during Warmup 0 times;\n   *************  **   ~~~   **   during Sizing 0 times.\n   *************  **   ~~~   **   Max=-5.000000E-002 [C]  Min=-15.675 [C]\n   *************\n   *************  ** Warning ** CalcDoe2DXCoil: Coil:Cooling:DX:SingleSpeed=\"COIL COOLING DX SINGLE SPEED 10 18KBTU/HR 9.3EER\" - Low condenser dry-bulb temperature error continues...\n   *************  **   ~~~   **   This error occurred 398 total times;\n   *************  **   ~~~   **   during Warmup 0 times;\n   *************  **   ~~~   **   during Sizing 0 times.\n   *************  **   ~~~   **   Max=-7.500000E-002 [C]  Min=-13.05 [C]\n   *************\n   *************  ** Warning ** CalcDoe2DXCoil: Coil:Cooling:DX:SingleSpeed=\"COIL COOLING DX SINGLE SPEED 6 16KBTU/HR 9.3EER\" - Low condenser dry-bulb temperature error continues...\n   *************  **   ~~~   **   This error occurred 543 total times;\n   *************  **   ~~~   **   during Warmup 0 times;\n   *************  **   ~~~   **   during Sizing 0 times.\n   *************  **   ~~~   **   Max=-7.500000E-002 [C]  Min=-13.9 [C]\n   *************\n   *************  ** Warning ** CalcDoe2DXCoil: Coil:Cooling:DX:SingleSpeed=\"COIL COOLING DX SINGLE SPEED 7 4KBTU/HR 11.0EER\" - Full load outlet temperature indicates a possibility of frost/freeze error continues. Outlet air temperature statistics follow:\n   *************  **   ~~~   **   This error occurred 2155 total times;\n   *************  **   ~~~   **   during Warmup 0 times;\n   *************  **   ~~~   **   during Sizing 0 times.\n   *************  **   ~~~   **   Max=1.997081  Min=-0.768227\n   *************\n   *************  ** Warning ** CalcDoe2DXCoil: Coil:Cooling:DX:SingleSpeed=\"COIL COOLING DX SINGLE SPEED 13 64KBTU/HR 14.0SEER\" - Low condenser dry-bulb temperature error continues...\n   *************  **   ~~~   **   This error occurred 189 total times;\n   *************  **   ~~~   **   during Warmup 0 times;\n   *************  **   ~~~   **   during Sizing 0 times.\n   *************  **   ~~~   **   Max=-2.500000E-002 [C]  Min=-19.55 [C]\n   *************\n   *************  ** Warning ** CalcDoe2DXCoil: Coil:Cooling:DX:SingleSpeed=\"COIL COOLING DX SINGLE SPEED 17 7KBTU/HR 14.0SEER\" - Low condenser dry-bulb temperature error continues...\n   *************  **   ~~~   **   This error occurred 105 total times;\n   *************  **   ~~~   **   during Warmup 0 times;\n   *************  **   ~~~   **   during Sizing 0 times.\n   *************  **   ~~~   **   Max=-0.1 [C]  Min=-6. [C]\n   *************\n   *************  ** Warning ** CalcDoe2DXCoil: Coil:Cooling:DX:SingleSpeed=\"COIL COOLING DX SINGLE SPEED 17 7KBTU/HR 14.0SEER\" - Full load outlet temperature indicates a possibility of frost/freeze error continues. Outlet air temperature statistics follow:\n   *************  **   ~~~   **   This error occurred 431 total times;\n   *************  **   ~~~   **   during Warmup 0 times;\n   *************  **   ~~~   **   during Sizing 0 times.\n   *************  **   ~~~   **   Max=1.996986  Min=-6.21298\n   *************\n   *************  ** Warning ** CalcDoe2DXCoil: Coil:Cooling:DX:SingleSpeed=\"COIL COOLING DX SINGLE SPEED 4 15KBTU/HR 9.3EER\" - Low condenser dry-bulb temperature error continues...\n   *************  **   ~~~   **   This error occurred 1818 total times;\n   *************  **   ~~~   **   during Warmup 0 times;\n   *************  **   ~~~   **   during Sizing 0 times.\n   *************  **   ~~~   **   Max=-5.000000E-002 [C]  Min=-17.9 [C]\n   *************\n   *************  ** Warning ** SimHVAC: Exceeding Maximum iterations for all HVAC loops, during RUN PERIOD 1 continues\n   *************  **   ~~~   **   This error occurred 47 total times;\n   *************  **   ~~~   **   during Warmup 0 times;\n   *************  **   ~~~   **   during Sizing 0 times.\n   *************\n   *************  ** Warning ** CalcDoe2DXCoil: Coil:Cooling:DX:SingleSpeed=\"COIL COOLING DX SINGLE SPEED 13 64KBTU/HR 14.0SEER\" - Full load outlet temperature indicates a possibility of frost/freeze error continues. Outlet air temperature statistics follow:\n   *************  **   ~~~   **   This error occurred 1 total times;\n   *************  **   ~~~   **   during Warmup 0 times;\n   *************  **   ~~~   **   during Sizing 0 times.\n   *************  **   ~~~   **   Max=1.462585  Min=1.462585\n   *************\n   *************  ** Warning ** CalcDoe2DXCoil: Coil:Cooling:DX:SingleSpeed=\"COIL COOLING DX SINGLE SPEED 3 15KBTU/HR 9.3EER\" - Low condenser dry-bulb temperature error continues...\n   *************  **   ~~~   **   This error occurred 624 total times;\n   *************  **   ~~~   **   during Warmup 0 times;\n   *************  **   ~~~   **   during Sizing 0 times.\n   *************  **   ~~~   **   Max=-5.000000E-002 [C]  Min=-14.975 [C]\n   *************\n   *************  ** Warning ** Plant loop falling below lower temperature limit, PlantLoop=\"MAIN SERVICE WATER LOOP\"\n   *************  **   ~~~   **   This error occurred 46 total times;\n   *************  **   ~~~   **   during Warmup 0 times;\n   *************  **   ~~~   **   during Sizing 0 times.\n   *************  **   ~~~   **   Min=4.852103\n   *************\n   *************  ** Warning ** CalcDoe2DXCoil: Coil:Cooling:DX:SingleSpeed=\"COIL COOLING DX SINGLE SPEED 16 43KBTU/HR 14.0SEER\" - Full load outlet temperature indicates a possibility of frost/freeze error continues. Outlet air temperature statistics follow:\n   *************  **   ~~~   **   This error occurred 2 total times;\n   *************  **   ~~~   **   during Warmup 0 times;\n   *************  **   ~~~   **   during Sizing 0 times.\n   *************  **   ~~~   **   Max=1.899696  Min=1.863012\n   *************\n   *************  ** Warning ** CalcDoe2DXCoil: Coil:Cooling:DX:SingleSpeed=\"COIL COOLING DX SINGLE SPEED 2 3KBTU/HR 11.0EER\" - Full load outlet temperature indicates a possibility of frost/freeze error continues. Outlet air temperature statistics follow:\n   *************  **   ~~~   **   This error occurred 1925 total times;\n   *************  **   ~~~   **   during Warmup 0 times;\n   *************  **   ~~~   **   during Sizing 0 times.\n   *************  **   ~~~   **   Max=1.9987  Min=-3.543773\n   *************\n   *************  ** Warning ** CalcDoe2DXCoil: Coil:Cooling:DX:SingleSpeed=\"COIL COOLING DX SINGLE SPEED 2 3KBTU/HR 11.0EER\" - Low condenser dry-bulb temperature error continues...\n   *************  **   ~~~   **   This error occurred 90 total times;\n   *************  **   ~~~   **   during Warmup 0 times;\n   *************  **   ~~~   **   during Sizing 0 times.\n   *************  **   ~~~   **   Max=-5.000000E-002 [C]  Min=-4.275 [C]\n   *************\n   *************  ** Warning ** CalcDoe2DXCoil: Coil:Cooling:DX:SingleSpeed=\"COIL COOLING DX SINGLE SPEED 18 98KBTU/HR 9.7EER\" - Full load outlet temperature indicates a possibility of frost/freeze error continues. Outlet air temperature statistics follow:\n   *************  **   ~~~   **   This error occurred 169 total times;\n   *************  **   ~~~   **   during Warmup 0 times;\n   *************  **   ~~~   **   during Sizing 0 times.\n   *************  **   ~~~   **   Max=1.985736  Min=-3.111776\n   *************\n   *************  ** Warning ** CalcDoe2DXCoil: Coil:Cooling:DX:SingleSpeed=\"COIL COOLING DX SINGLE SPEED 12 18KBTU/HR 14.0SEER\" - Full load outlet temperature indicates a possibility of frost/freeze error continues. Outlet air temperature statistics follow:\n   *************  **   ~~~   **   This error occurred 433 total times;\n   *************  **   ~~~   **   during Warmup 0 times;\n   *************  **   ~~~   **   during Sizing 0 times.\n   *************  **   ~~~   **   Max=1.998677  Min=-2.744953\n   *************\n   *************  ** Warning ** CalcDoe2DXCoil: Coil:Cooling:DX:SingleSpeed=\"COIL COOLING DX SINGLE SPEED 15 101KBTU/HR 9.7EER\" - Full load outlet temperature indicates a possibility of frost/freeze error continues. Outlet air temperature statistics follow:\n   *************  **   ~~~   **   This error occurred 6 total times;\n   *************  **   ~~~   **   during Warmup 0 times;\n   *************  **   ~~~   **   during Sizing 0 times.\n   *************  **   ~~~   **   Max=1.934339  Min=1.170003\n   *************\n   *************  ** Warning ** CalcDoe2DXCoil: Coil:Cooling:DX:SingleSpeed=\"COIL COOLING DX SINGLE SPEED 1 260KBTU/HR 8.21EER\" - Full load outlet temperature indicates a possibility of frost/freeze error continues. Outlet air temperature statistics follow:\n   *************  **   ~~~   **   This error occurred 3 total times;\n   *************  **   ~~~   **   during Warmup 0 times;\n   *************  **   ~~~   **   during Sizing 0 times.\n   *************  **   ~~~   **   Max=1.934339  Min=1.218904\n   *************\n   *************  ** Warning ** CalcDoe2DXCoil: Coil:Cooling:DX:SingleSpeed=\"COIL COOLING DX SINGLE SPEED 14 101KBTU/HR 9.7EER\" - Full load outlet temperature indicates a possibility of frost/freeze error continues. Outlet air temperature statistics follow:\n   *************  **   ~~~   **   This error occurred 3 total times;\n   *************  **   ~~~   **   during Warmup 0 times;\n   *************  **   ~~~   **   during Sizing 0 times.\n   *************  **   ~~~   **   Max=1.934339  Min=1.218904\n   *************\n   *************\n   ************* ===== Final Error Summary =====\n   ************* The following error categories occurred.  Consider correcting or noting.\n   ************* Nominally Unused Constructions\n   ************* ..The nominally unused constructions warning is provided to alert you to potential conditions that can cause\n   ************* ..extra time during simulation. Each construction is calculated by the algorithm indicated in the HeatBalanceAlgorithm\n   ************* ..object. You may remove the constructions indicated (when you use the DisplayExtraWarnings option).\n   *************\n   ************* EnergyPlus Warmup Error Summary. During Warmup: 0 Warning; 0 Severe Errors.\n   ************* EnergyPlus Sizing Error Summary. During Sizing: 163 Warning; 0 Severe Errors.\n   ************* EnergyPlus Completed Successfully-- 19292 Warning; 0 Severe Errors; Elapsed Time=00hr 03min  6.52sec\n",
   "file_format_version" : "0.0.1",
   "file_paths" : [ "../weather", "../seeds", "../seed" ],
   "hash" : "1836BEA5",
   "measure_paths" : [ "../measures" ],
   "name" : "LHS Autogenerated 1083",
   "osa_id" : "4fef0e0f-5396-4c55-a6e1-2cd6803db3ab",
   "osd_id" : "3181bb3e-8f44-42a5-a672-bf301c30d258",
   "run_directory" : "./run",
   "seed_file" : "seed.osm",
   "started_at" : "20170710T193434Z",
   "steps" : [
      {
         "arguments" : {
            "__SKIP__" : false,
            "building_type" : "LargeHotel",
            "climate_zone" : "NECB HDD Method",
            "epw_file" : "CAN_ON_London.716230_CWEC.epw",
            "template" : "NECB 2011"
         },
         "measure_dir_name" : "create_prototype_building",
         "name" : "create_prototype_building",
         "result" : {
            "completed_at" : "20170710T193642Z",
            "measure_class_name" : "CreatePrototypeBuilding",
            "measure_display_name" : "Create Prototype Building",
            "measure_name" : "create_prototype_building",
            "measure_taxonomy" : "Whole Building.Space Types",
            "measure_type" : "ModelMeasure",
            "measure_uid" : "ae90fsd7-a651-467a-bc8d-29d310b0f937",
            "measure_version_id" : "c6ec5c18-5595-459f-a082-09a19c8c869c",
            "measure_version_modified" : "20170519T182315Z",
            "measure_xml_checksum" : "057E8D9D",
            "started_at" : "20170710T193437Z",
            "stderr" : "",
[...]
vKrdYWtVVWS4kq8tKnelRefExx3I6ry48alc5VdWqTLfyrJ87+a5a6vmf1/UU5nj6VP362zv17ze/vVWnb96+++mXH9TPb3746Vj9ePL2pJzAq2zV1reeadFUGqkkilM1mV1ldTBSeaRJorxklDUvwWRcQnF57Y3Og53Z66jz8otLrNNZPFFTL070qzDy0rZnlvyd7FY+eOw8f6zUxVzfoj2wXbyEdcKfN5v0ct9/5tM9n+ztJ76+8GZhqqZxlK1h+klHPfnm4OD4+OTkyYaDZ4hDHOIQhzjEIQ5xiEMc4hDnz4mjktlV9k9g5WvzoPK9O0MUa580pCENaUhDGtKQhjSkIQ1pSFNMc5P/adYfaM7DmSYOcYhDHOIQhzjEIQ5xiEMc4tTBuf/eQMd8b+DpTPrewL6Tv8P2/Pne3uEhSUlKUpKSlKQkJSlJSUpSkpKUpCTdDlI3J/VSibSXk/b7rnswJClJSUpSkpKUpCQlKUlJSlKSkpSk20HaN6Sv4kAgdQ9zUsfZ3+/3SUpSkpKUpCQlKUlJSlKSkpSkJCXpdpDuGdJ3lzOJ9CAnPcyOwQuSkpSkJCUpSUlKUpKSlKQkJSlJSbodpAND+i/tS6T7OenLl8fH+/skJSlJSUpSkpKUpCQlKUlJSlKSknQ7SIf5byZmWiId5qTHx8MhSUlKUpKSlKQkJSlJSUpSkpKUpCTdFtJ9Q/o6kpIF3UFOenDguoMBSUlKUpKSlKQkJSlJSUpSkpKUpCRtjHSJ4sfeTXut2G03DdJQn156U91N9W3afvJjNIuT9Rh3X575MrjSkySIJqFOcoU1Ek+fque+rzyVK6mbIL1USXSlld9fc2ZyPe5606me+O2W8W7trDlheXS9NI3brdtWRw17FU+6y05yy5+UpHehnuPtepPRZRRn57dCfVGBdqFxEU3S3RsdjC9To3EehX55jfm9OZ3uvvASnd2gVJ3eJbt76lUY7/bV6ehy90T9+Gs4ukp3J1Gc3YL//KJ+OTl+YZ6W6iu1p349/Y96MxqZ5z7ZKbqp3z9NRnEwTf8hPuf7p35w/fVh8RxZLNNSgX/UGpmKP84ukhdMdHzmOL2Wyi/dUcsPkmno3T0LJmE2tnseRqNP37VkwEx1/hpUejfNzjdX7+lH79qbP1p4pjmuvdhUpzpSfnA1DXV3om9Or8ft1jdfgeyovV4v/8/a6WZ0fS/1MuH3v7dC71yHrWctX194szBV0zi6CELd6sxHzm5bz5xur9O69sKZXvw8MqtSdk620Bwfn5y0PndK6bggnT5IZw+kMwDpDEE6+yCdA5DOIUjH6aGEUBXtoEraQdW0gypqB1XVDqqsHVRdO6jCdlCV7aIq24Wt1ajKdlGV7VaqbJXMrq5Wvqa61I4Wa7+CjHiNqsmIV6iajHh9qsmI876ajDjrq8mIc76ajDjjq8mI872ajLyRVdQB1bG8jVXUAVWyvIlV1AHVsryFVdQBVbO8gVXUAdWzvH1V1EGty6B6lveuijrl6/kmmKTVt61z81B5HfHyVNQRL09FHfHyVNQRp3tFHXG6V9QRp3tFHXG6V9QRp3tFHXn/qiqEqmh5B6sqhKppeQ+rKoSqankXqyqEqmt5H6sqhKpseSerKgRbq1GVLW9mVYXKV/b9+xZrv1dY2uZ6K//Qm3/xMMDC3bxFf/MWe5u3GGzeYrh5i/3NWxxs3uJw8xYrO/umPBqY304DE9xpYIY7DUxxp4E57jQwyZ0GZrnTwDR3GpjnbgPz3G1iH29gnrsNzHO33jxf+/WN5dqq+fc7AizkuwGzkG8GzEK+FzALecmFWcgrLsxCXnBhFvJ6C7OQl1uYRcE71zgP+a0/nIf8riDOQ37DEOfRwBQvaKtwHg1M8oK2CufRwDQvaKtw+5/cVuE8mtjHG9jIC9oqnEe9eb72W7LKtVXzr9ECWMh3A2Yh3wyYhXwvYBbykguzkFdcmIW84MIs5PUWZiH/bRTMoqCtwnnIbRXOQ26rcB5yW4XzkP9EC+ch/10izkP+k0Wch/zXjDgP+Q8dcR4NzPOCtgrn0cQ+3sBGXtBW4TzqbeVrv4ykXFs1/7YSgIV8N2AW8s2AWcj3AmYht1UwC7mtglnIbRXMQm6rYBbycguzKGircB5yW4XzkNsqnIfcVuE85LYK5yG3VTgPua3CechtFc5DbqtwHg3M84K2CufRxD7ewEZe0FbhPOpt5Wsz38u1VfNQeICFfDdgFvLNgFnI9wJmIbdVMAu5rYJZyG0VzEJuq2AW8nILsyhoq3AecluF85DbKpyH3FbhPOS2Cucht1U4D7mtwnnIbRXOQ26rcB4NzPOCtgrn0cQ+3sBGXtBW4TzqbeVro3XLtVXz7F2AhXw3YBbyzYBZyPcCZiG3VTALua2CWchtFcxCbqtgFvJyC7MoaKtwHnJbhfOQ2yqch9xW4TzktgrnIbdVOA+5rcJ5yG0VzkNuq3AeDczzgrYK59HEPt7ARl7QVuE86m3laxMMy7VV84hDgIV8N2AW8s2AWcj3AmYht1UwC7mtglnIbRXMQm6rYBZFuVMgi8KwNZRHUVoVyqMoyArlUZRxhfIoir9CeRRlvqE8iuLgUB5FSXEoj6IQOZRHA/O8oK3CeTSxjzewkRe0VTiP9Vv5hzIJr4vwZnWkJvpmmSCbB8e2k+txJ0+AXRsVu0yATnT6IppN/KQ96HWU4ww6qm9+cgfl4mZvM4z7YGvfP/ZSPY7iu+e3QTJPUL5//SVipjOBN7Gv47czE2hc+kTDcbfK8Vp7ySzWcwyTyby47huO+OYwhznMYQ5zmMMc5jCHOcxhDnOYwxzmMIc5zGEOc5jDHOYwhznMYQ5zmMMc5jCHOcxhDnOYwxzmMIc5zGEOc5jDHOYwhznMYQ5zmMMc5vCfaviuG13rOA58/dozH6x1uj3Lz6uaj8Ymqx+NPdVxoJPFx2tbneUHiKdhlHbDYKLXfkQ2+drndNd/sjbp5l89P41CLw2iSQbVSlI93T3XF1GsW+U++fyzHuuJv/qC5o+1h72O6ptPLvfMB5nNf1qhvkgN2BrppWz3bKzTk0lqrk9mcTGbjHLS9o76fY3EklDfn/1+7We5zRFcqHZ6GSTdJL8r5YzM8eCkbnb9TrzRZfu/wFXVlvjmo+MZ+0L3bBolgRF8mT1c5tUsDyPzFao4uqmGtMQKJr4282HX6VQ8e3l8rHviRaBDU2/txTWdz5NxHM2m2lfffqv+tnj8tnt26SWLz7+bCbbzcPTuq6PZBel64/Er49EN9WScXqrvlav+qVrPw7Clnq0+IwmDkW7vOjvvex921s63L15JFKv2x+yl9L5THzObRakufM1jf89WnOo3yBymjBd67z9+6H7Sd+ro6Gh+8eop5qqL2/6x6ktdHuex9j7VOflzxXOqPt9cr8WrOzJlbYphUSl5kEP3zEuSYDzR/rGJiEje51fyQ71LubzR01ly2a57L7Jb+mx+P+vPpDB8VuZVds0z67okaRx90uV85s+t6xRNvVGQ3pWzWjy59qvKLZZWdVWWC8nqslJnelRefMyxnM6rC4/aVU5VtSrTrTzr506+q5Z6/ud1PYU5nj5Vv/72Tv37zW9v1embt+9++uUH9fObH346Vj+evD0pJ/AqW7X1rWdaNJVGKoniVE1mV1kdjFQeaZIoLxllzUswGZdQXF57o/NgZ/Y66rz84hLrdBZP1NSLE/0qjLy07Zklfye7lQ8eO88fK3Ux17doD2wXL2Gd8OfNJr3c95/5dM8ne/uJry+8WZiqaRxla5h+0lFPvjk4OD4+OXmy4eAZ4hCHOMQhDnGIQxziEIc4xPlz4qhkdpX9E1j52jyofO/OEMXaJw1pSEMa0pCGNKQhDWlIQxrSFNPc5H+a9Qea83CmiUMc4hCHOMQhDnGIQxziEIc4dXDuvzfQMd8beDqTvjew7+TvsD1/vrd3eEhSkpKUpCQlKUlJSlKSkpSkJCUpSbeD1M1JvVQi7eWk/b7rHgxJSlKSkpSkJCUpSUlKUpKSlKQkJel2kPYN6as4EEjdw5zUcfb3+32SkpSkJCUpSUlKUpKSlKQkJSlJSbodpHuG9N3lTCI9yEkPs2PwgqQkJSlJSUpSkpKUpCQlKUlJSlKSbgfpwJD+S/sS6X5O+vLl8fH+PklJSlKSkpSkJCUpSUlKUpKSlKQk3Q7SYf6biZmWSIc56fHxcEhSkpKUpCQlKUlJSlKSkpSkJCUpSbeFdN+Qvo6kZEF3kJMeHLjuYEBSkpKUpCQlKUlJSlKSkpSkJCUpSRsjXaL4sXfTXit2202DNNSnl95Ud1N9m7af/BjN4mQ9xt2XZ74MrvQkCaJJqJNcYY3E06fque8rT+VK6iZIL1USXWnl99ecmVyPu950qid+u2W8WztrTlgeXS9N43brttVRw17Fk+6yk9zyJyXpXajneLveZHQZxdn5rVBfVKBdaFxEk3T3Rgfjy9RonEehX15jfm9Op7vHURwHfhSfvQrjs6E6vUt2+yr7eXdPnY4ud0/Uj7+Go6t0N4lm2Y34zy/ql5PjF+Zpqb5SffXr6X/Um9HIPPfJTtGt/f5pMoqDafoP8TnfP/WD668Pi+fIYpmWCvyj1sjU/XF2qbxgouMzx3FaKr+ARy0/SKahd/csmITZ2O55GI0+fdeSATPV+WtQ6d00O99cw6cfvWtv/mjhmea49mJTo+pI+cHVNNTdib45vR63W998BbKj9nq9/D9rJ53R9b3Uy4Tf/94KvXMdtp61fH3hzcJUTePoIgh1qzMfObttPXO6vU7r2gtnevHzyKxN2TnZcnN8fHLS+twppeOCdPognT2QzgCkMwTp7IN0DkA6hyAdp4cSQlW0gyppB1XTDqqoHVRVO6iydlB17aAK20FVtouqbBe2VqMq20VVtlupslUyu7pa+bLqUjtarP0KMuI1qiYjXqFqMuL1qSYjzvtqMuKsryYjzvlqMuKMryYjzvdqMvJGVlEHVMfyNlZRB1TJ8iZWUQdUy/IWVlEHVM3yBlZRB1TP8vZVUQe1LoPqWd67KuqUr+ebYJJW37bOzUPldcTLU1FHvDwVdcTLU1FHnO4VdcTpXlFHnO4VdcTpXlFHnO4VdeT9q6oQqqLlHayqEKqm5T2sqhCqquVdrKoQqq7lfayqEKqy5Z2sqhBsrUZVtryZVRUqX9n3716s/XZhaZvrrfxDb/71wwAL+V+3MIv+5l/F3uYtBpu3GG7eYn/zFgebtzjcvMXKzr4pjwbmd8EvZnEe8m+2cB7yL71wHvJvenEe8i+BcR7y74dxHvKvjnEe8m+Vcfuf/AtnnIf8u2icRwPzvOA32DiPelv52i9xLPc27vxbHgEW8t2AWchtFcxCvhcwC7mtglnIbRXMQm6rYBZyWwWzkNsqmEVBW4XzaGB+F7RVOA95ucV5yG0VzkNuq3AecluF85DbKpyH3FbhPOS2Crf/yW0VzqOJfbyBeV7QVuE86s3ztd+VVa6tmn+ZFsDCFXcPmIXcVsEs5LYKZiG3VTALua2CWchtFcxCbqtgFnJbBbMoaKtwHg3M74K2CuchL7c4D3m5xXnIbRXOQ26rcB5yW4XzkNsqnIfcVuH2P7mtwnk0sY83MM8L2iqcR715vvYrScq1VfPvLAFYyG0VzEJuq2AWclsFs5DbKpiF3FbBLOS2CmYht1UwC7mtglkUtFU4jwbmd0FbhfOQl1uch7zc4jzktgrnIbdVOA+5rcJ5yG0VzkNuq3D7n9xW4Tya2McbmOcFbRXOo948X5v8Xq6tmkfDAyzktgpmIbdVMAu5rYJZyG0VzEJuq2AWclsFs5DbKpiF3FbBLAraKpxHA/O7oK3CecjLLc5DXm5xHnJbhfOQ2yqch9xW4TzktgrnIbdVuP1PbqtwHk3s4w3M84K2CudRb56vDdgt11bNE3gBFnJbBbOQ2yqYhdxWwSzktgpmIbdVMAu5rYJZyG0VzEJuq2AWBW0VzqOB+V3QVuE85OUW5yEvtzgPua3CechtFc5DbqtwHnJbhfOQ2yrc/ie3VTiPJvbxBuZ5QVuF86g3z9fmGJZrq+ZBhwALua2CWchtFcxCbqtgFnJbBbOQ2yqYhdxWwSzktgpmIbdVMIuCtgrn0cD8LoxoQ3kUZVyhPIrir1AeRZlvKI+iODiUR1FSHMqjKEQO5VGUL4fa/4qi51AeTezjDczzwiw7lMf6ef6hTMLrIsJZHamJvlkmyObBse3ketzJE2DXRsUuc6ATnb6IZhM/aQ96HeU4g47qm5/cQbm42dsM4z7e2vePvVSPo/ju+W2QzHOU719/ibDpTOBN7Ov47czEGpc+0XDcrXK81l4yi/UcwyQzL677hoO+OcxhDnOYwxzmMIc5zGEOc5jDHOYwhznMYQ5zmMMc5jCHOcxhDnOYwxzmMIc5zGEOc5jDHOYwhznMYQ5zmMMc5jCHOcxhDnOYwxzmMIc5/KcavutG1zqOA1+/9swHa51uz/LzquajscnqR2NPdRzoZPHx2lZn+QHiaRil3TCY6LUfkU2+9jnd9Z+sTbr5V89Po9BLg2iSQbWSVE93z/VFFOtWuU8+/6zHeuKvvqD5Y+1hr6P65pPLPfNBZvOfVqgvUgO2Rnop2z0b6/Rkkprrk1lczCajnLS9o35fI7Ek1Pdnv1/7WW5zBBeqnV4GSTfJ70o5I3M8OKmbXb8Tb3TZ/i9wVbUlvvnoeMa+0D2bRklgBF9mD5d5NcvDyHyFKo5uqiEtsYKJr8182HU6Fc9eHh/rnngR6NDUW3txTefzZBxHs6n21bffqr8tHr/tnl16yeLz72aC7TwcvfvqaHZBut54/Mp4dEM9GaeX6nvlqn+q1vMwbKlnq89IwmCk27vOzvveh5218+2LVxLFqv0xeym979THzGZRqgtf89jfsxWn+g0yhynjhd77jx+6n/SdOjo6ml+8eoq56uK2f6z6UpfHeay9T3VO/lzxnKrPN9dr8eqOTFmbYlhUSh7k0D3zkiQYT7R/bCIikvf5lfxQ71Iub/R0lly2696L7JY+m9/P+jMpDJ+VeZVd88y6LkkaR590OZ/5c+s6RVNvFKR35awWT679qnKLpVVdleVCsrqs1JkelRcfcyyn8+rCo3aVU1WtynQrz/q5k++qpZ7/eV1PYY6nT9Wvv71T/37z21t1+ubtu59++UH9/OaHn47VjydvT8oJvMpWbX3rmRZNpZFKojhVk9lVVgcjlUeaJMpLRlnzEkzGJRSX197oPNiZvY46L7+4xDqdxRM19eJEvwojL217ZsnfyW7lg8fO88dKXcz1LdoD28VLWCf8ebNJL/f9Zz7d88nefuLrC28WpmoaR9kapp901JNvDg6Oj09Onmw4eIY4xCEOcYhDHOIQhzjEIQ5x/pw4KpldZf8EVr42DyrfuzNEsfZJQxrSkIY0pCENaUhDGtKQhjTFNDf5n2b9geY8nGniEIc4xCEOcYhDHOIQhzjEIU4dnPvvDXTM9waezqTvDew7+Ttsz5/v7R0ekpSkJCUpSUlKUpKSlKQkJSlJSUrS7SB1c1IvlUh7OWm/77oHQ5KSlKQkJSlJSUpSkpKUpCQlKUlJuh2kfUP6Kg4EUvcwJ3Wc/f1+n6QkJSlJSUpSkpKUpCQlKUlJSlKSbgfpniF9dzmTSA9y0sPsGLwgKUlJSlKSkpSkJCUpSUlKUpKSlKTbQTowpP/SvkS6n5O+fHl8vL9PUpKSlKQkJSlJSUpSkpKUpCQlKUm3g3SY/2ZipiXSYU56fDwckpSkJCUpSUlKUpKSlKQkJSlJSUrSbSHdN6SvIylZ0B3kpAcHrjsYkJSkJCUpSUlKUpKSlKQkJSlJSUrSxkiXKH7s3bTXit120yAN9emlN9XdVN+m7Sc/RrM4WY9x9+WZL4MrPUmCaBLqJFdYI/H0qXru+8pTuZK6CdJLlURXWvn9NWcm1+OuN53qid9uGe/WzpoTlkfXS9O43bptddSwV/Gku+wkt/xJSXoX6jnerjcZXUZxdn4r1BcVaBcaF9Ek3b3RwfgyNRrnUeiX15jfm9Pp7stgEkzGZ6/C+GyoTu+S3b7Kft7dU6ejy90X6sdfw9FVujuJ4uw2/OcX9cvJ8QvztFRfqb769fQ/6s1oZJ77ZKfoxn7/NBnFwTT9h/ic75/6wfXXh8VzZLFMSwX+UWtkqv44u1BeMNHxmeO4LZVfvqOWHyTT0Lt7FkzCbGz3PIxGn75ryYCZ6vw1qPRump1vruDTj961N3+08ExzXHuxqVB1pPzgahrq7kTfnF6P261vvgLZUXu9Xv6ftVPO6Ppe6mXC739vhd65DlvPWr6+8GZhqqZxdBGEutWZj5zdtp453V6nde2FM734eWRWpuycbLE5Pj45aX3ulNJxQTp9kM4eSGcA0hmCdPZBOgcgnUOQjtNDCaEq2kGVtIOqaQdV1A6qqh1UWTuounZQhe2gKttFVbYLW6tRle2iKtutVNkqmV1drXxVdakdLdZ+BRnxGlWTEa9QNRnx+lSTEed9NRlx1leTEed8NRlxxleTEed7NRl5I6uoA6pjeRurqAOqZHkTq6gDqmV5C6uoA6pmeQOrqAOqZ3n7qqiDWpdB9SzvXRV1ytfzTTBJq29b5+ah8jri5amoI16eijri5amoI073ijridK+oI073ijridK+oI073ijry/lVVCFXR8g5WVQhV0/IeVlUIVdXyLlZVCFXX8j5WVQhV2fJOVlUItlajKlvezKoKla/s+/cu1n63sLTN9Vb+oTf/8mGAhfyvW5hFf/OvYm/zFoPNWww3b7G/eYuDzVscbt5iZWfflEcD87vgF7M4D/k3WzgP+ZdeOA/5N704D/mXwDgP+ffDOA/5V8c4D/m3yrj9T/6FM85D/l00zqOBeV7wG2ycR72tfO1XOJZ7G3f+HY8AC/luwCzktgpmId8LmIXcVsEs5LYKZiG3VTALua2CWchtFcyioK3CeTQwvwvaKpyHvNziPOS2Cucht1U4D7mtwnnIbRXOQ26rcB5yW4Xb/+S2CufRxD7ewDwvaKtwHvXm+dpvyirXVs2/Sgtg4Yq7B8xCbqtgFnJbBbOQ2yqYhdxWwSzktgpmIbdVMAu5rYJZFLRVOI8G5ndBW4XzkJdbnIe83OI85LYK5yG3VTgPua3CechtFc5Dbqtw+5/cVuE8mtjHG5jnBW0VzqPePF/7hSTl2qr5N5YALOS2CmYht1UwC7mtglnIbRXMQm6rYBZyWwWzkNsqmIXcVsEsCtoqnEcD87ugrcJ5yMstzkNebnEecluF85DbKpyH3FbhPOS2Cucht1W4/U9uq3AeTezjDczzgrYK51Fvnq/NfS/XVs2D4QEWclsFs5DbKpiF3FbBLOS2CmYht1UwC7mtglnIbRXMQm6rYBYFbRXOo4H5XdBW4Tzk5RbnIS+3OA+5rcJ5yG0VzkNuq3AecluF85DbKtz+J7dVOI8m9vEG5nlBW4XzqDfP18brlmur5vm7AAu5rYJZyG0VzEJuq2AWclsFs5DbKpiF3FbBLOS2CmYht1Uwi4K2CufRwPwuaKtwHvJyi/OQl1uch9xW4TzktgrnIbdVOA+5rcJ5yG0Vbv+T2yqcRxP7eAPzvKCtwnnUm+drUwzLtVXzmEOAhdxWwSzktgpmIbdVMAu5rYJZyG0VzEJuq2AWclsFs5DbKphFQVuF82hgfhdGtKE8ijKuUB5F8Vcoj6LMN5RHURwcyqMoKQ7lURQih/IoypdD7X9F0XMojyb28QbmeWGWHcpj/Tz/UCbhdRHgrI7URN8sE2Tz4Nh2cj3u5Amwa6NilynQiU5fRLOJn7QHvY5ynEFH9c1P7qBc3OxthnEfbu37x16qx1F89/w2SOYpyvevv0TUdCbwJvZ1/HZmQo1Ln2g47lY5XmsvmcV6jmFymRfXfcMx3xzmMIc5zGEOc5jDHOYwhznMYQ5zmMMc5jCHOcxhDnOYwxzmMIc5zGEOc5jDHOYwhznMYQ5zmMMc5jCHOcxhDnOYwxzmMIc5zGEOc5jDHP5TDd91o2sdx4GvX3vmg7VOt2f5eVXz0dhk9aOxpzoOdLL4eG2rs/wA8TSM0m4YTPTaj8gmX/uc7vpP1ibd/Kvnp1HopUE0yaBaSaqnu+f6Iop1q9wnn3/WYz3xV1/Q/LH2sNdRffPJ5Z75ILP5TyvUF6kBWyO9lO2ejXV6MknN9cksLmaTUU7a3lG/r5FYEur7s9+v/Sy3OYIL1U4vg6Sb5HelnJE5HpzUza7fiTe6bP8XuKraEt98dDxjX+ieTaMkMIIvs4fLvJrlYWS+QhVHN9WQlljBxNdmPuw6nYpnL4+PdU+8CHRo6q29uKbzeTKOo9lU++rbb9XfFo/fds8uvWTx+XczwXYejt59dTS7IF1vPH5lPLqhnozTS/W9ctU/Vet5GLbUs9VnJGEw0u1dZ+d978PO2vn2xSuJYtX+mL2U3nfqY2azKNWFr3ns79mKU/0GmcOU8ULv/ccP3U/6Th0dHc0vXj3FXHVx2z9WfanL4zzW3qc6J3+ueE7V55vrtXh1R6asTTEsKiUPcuieeUkSjCfaPzYREcn7/Ep+qHcplzd6Oksu23XvRXZLn83vZ/2ZFIbPyrzKrnlmXZckjaNPupzP/Ll1naKpNwrSu3JWiyfXflW5xdKqrspyIVldVupMj8qLjzmW03l14VG7yqmqVmW6lWf93Ml31VLP/7yupzDH06fq19/eqX+/+e2tOn3z9t1Pv/ygfn7zw0/H6seTtyflBF5lq7a+9UyLptJIJVGcqsnsKquDkcojTRLlJaOseQkm4xKKy2tvdB7szF5HnZdfXGKdzuKJmnpxol+FkZe2PbPk72S38sFj5/ljpS7m+hbtge3iJawT/rzZpJf7/jOf7vlkbz/x9YU3C1M1jaNsDdNPOurJNwcHx8cnJ082HDxDHOIQhzjEIQ5xiEMc4hCHOH9OHJXMrrJ/AitfmweV790Zolj7pCENaUhDGtKQhjSkIQ1pSEOaYpqb/E+z/kBzHs40cYhDHOIQhzjEIQ5xiEMc4hCnDs799wY65nsDT2fS9wb2nfwdtufP9/YOD0lKUpKSlKQkJSlJSUpSkpKUpCQl6XaQujmpl0qkvZy033fdgyFJSUpSkpKUpCQlKUlJSlKSkpSkJN0O0r4hfRUHAql7mJM6zv5+v09SkpKUpCQlKUlJSlKSkpSkJCUpSbeDdM+QvrucSaQHOelhdgxekJSkJCUpSUlKUpKSlKQkJSlJSUrS7SAdGNJ/aV8i3c9JX748Pt7fJylJSUpSkpKUpCQlKUlJSlKSkpSk20E6zH8zMdMS6TAnPT4eDklKUpKSlKQkJSlJSUpSkpKUpCQl6baQ7hvS15GULOgOctKDA9cdDEhKUpKSlKQkJSlJSUpSkpKUpCQlaWOkSxQ/9m7aa8Vuu2mQhvr00pvqbqpv0/aTH6NZnKzHuPvyzJfBlZ4kQTQJdZIrrJF4+lQ9933lqVxJ3QTppUqiK638/pozk+tx15tO9cRvt4x3a2fNCcuj66Vp3G7dtjpq2Kt40l12klv+pCS9C/Ucb9ebjC6jODu/FeqLCrQLjYtoku7e6GB8mRqN8yj0y2vM783pdPf/C9LRpZ6cvQrjs6E6vUt2+yr7eXdPnY4ud1+oH38NR1fprvaSVP3nF/XLyfEL86xUX6m++vX0P+rNaGSe+mSn6MZ+/zQZxcE0/Yf4nO+f+sH114fFc2SxTEsF/lFrZKr+OLtQXjDR8Znj9Fsqv3xHLT9IpqF39yyYhNnY7nkYjT5915IBM9X5a1Dp3TQ731zBpx+9a2/+aOGZ5rj2YlOh6kj5wdU01N2Jvjm9Hrdb33wFsqP2er38P2unnNH1vdTLhN//3gq9cx22nrV8feHNwlRN4+giCHWrMx85u209c7q9TuvaC2e69Www6PYPHxz9Qac1MgtVJpGtPcfHJyetz51Ssu5mZPubkd3bjOxgM7LDzcjub0b2YDOyh5uRdXob0t3QPHM2NNGcDc00Z0NTzdnQXHM2NNmcDc02Z0PTzdnQfHM3NN/cTe1rG5pv7obmm2sz31Qyu7pa+UrwOp1DrP0KqmWvbzXVsle3mmrZa1tNtexKVk217DpWTbXsKlZNtewaVk217ApWTbV0w1BRdjOzq3S7UFF2M/OrdLNQUXYzM6x0q1BRdjNzrHSjUFF2M7OsdJtQUXZDe9hmZlnpHqGibO1ZdhNMUuv24Nw8o7xs2UtbUbbspa0oW/bSVpQtu4BVlC27gFWULbuAVZQtu4BVlC27gFWULd0nVNXd0Dwr3SlU1d3QTCvdK1TV3dBcK90tVNXd0Gwr3S9U1d3QfCvdMVTV3dS+tqH5VrppqKpbbb59KPPGxeJ9SXWkJvpm+cZI/n5IO7ked/I3Nta+A7J8czPR6YtoNvGT9qDXUY4z6Ki++ckdlHsX5TbDuH/P1vePvVSPo/ju+W2QzN8cvL8WJd5BzQTexL6O387Me3WlTzQcd6scr7WXzGI9xzBvNy7uge17wvkbUqtWpzoOdLLAzZwWN2QaRmnXvEu21jL52uteT5p088KbRqGXBtEkg2olqZ7unuuLKNatcpX0sx7rib/6guaPtYdZFfRNJZg31Rzzn8VbrmvfjV7Kds/GOj2ZpOb6ZBYXs8koJ23vqN9LvOdqCPX92e/Xzg1zBBeqnV4GSVbX5rxyRuZ4cFI3u34n3uiy/V/gqmpL/MV7jAvds2mUBEbwZfZwmVezPIzMV6ji6KYa0hIrmPjaTNxdp1Px7OXxse6JF4EOTb21F9d0Pk/GcTSbal99+6362+Lx2+7ZpZcs1hMzwXYejt59dTS7IF1vPH5lPLqhnozTS/W9ctU/Vet5GLbUs9VnJGEw0u1dZ+d978PO2vn2xSuJYtX+mL2U3nfqY2azKNWFr3ns70fKqX6DzGHKeKH3/uOH7iedLW9HR/OLV08xV13c9o9VX+ryOI+196nOyZ8rnlP1+eZ6LV7dkSlrUwyLSsk3xu7Z/O+JtJ//RVHyPr+SH+pdyuWNns6Sy3bde5Hd0mfz+1l/JoXhszKvsmueWdclSePoky7nM39uXado6o2C9K6c1eLJtV9VbrG0qquyXEhWl5U606Py4mOO5XReXXjUrnKqqlWZbuVZP3fyXbXU8z+v6ynM8fSp+vW3d+rfb357q07fvH330y8/qJ/f/PDTsfrx5O1JOYFX2aqtbz3Toqk0UkmUNdKT2VVWByOVt4iJ8pJR1rwEk3EJxeW1NzoPdmavo87LLy6xTmfxRE29ONGvwshL255Z8neyW/ngsfP8sVIXc32L9sB28RLWCX/+H/zd5x/esV38cad5A/Z/8meoxCEOcYhDHOIQhzjEIQ5xiLP1OF/+5YshirVPGtKQhjSkIQ1pSEMa0pCGNKQppvnibwINjfkTP+IQhzjEIQ5xiEMc4hCHOMQhzv8wbfGdvprq2EtnsVbtVzvMW3xceYuz6TS8U8+DWJkbtSWZiXvbkJm411hmYv5z3XAmkE4fpLMH0hmAdIYgnX2QzgFI5xCks5IpYCWEqmgHVdIOqqYdVFE7qKp2UGXtoOraQRW2g6psF1XZLmytRlW2i6pst1Jll8/yW5GqH95nISNeofrxfBYy4ryvH8BnISPO+foRexYy4ny3CNGz0QHVsbyNWeTi2eiASlnewyyi7mx0QNUsb2AW6XU26yConuXdyyKQzkYHVM/y1lU/Y25FxiJUzkZHvDwWsXE2OuJ0twiGs9ERp7tF9JuNjjjdbcLdrIRQFS3vYDZ5bVZCqKKWNzGbCDYrIVRdy/uYTaqa1cqIqmx5K7MJSrMSQlW2vJt9IXT/fU+O+b6n05n0fU99p9zvG58/39s7PARYyP+6hVnI/+6FWcj/IoZZyL8FglnIvx+CWci/OYJZyL9TglnIv22CWRT8ihXn0cD8LvjFLM6jgRle8OtcnEcDc7zgl8A4jwZmecGvjnEeDczzgl844zya2McbmOcFv8HGedSb527u4aWSR69cW9Xvu+7BEGAh3w2YhXwzYBbyvYBZyEsuzEJecWEW8oILs5DXW5iFvNzCLAraKpxHA/O7oK3CeTQwwwvaKpxHA3O8oK3CeTQwywvaKpxHA/O8oK3CeTSxjzcwzwvaKpxHvXneNx6v4kD6dvLDcm2V4+zv9/sAC/luwCzkmwGzkO8FzEJecmEW8ooLs5AXXJiFvN7CLOTlFmZR0FbhPBqY3wVtFc6jgRle0FbhPBqY4wVtFc6jgVle0FbhPBqY5wVtFc6jiX28gXle0FbhPOrN8z3j8e5yJnkclGurzDcuDV4ALOS7AbOQbwbMQr4XMAt5yYVZyCsuzEJecGEW8noLs5CXW5hFQVuF82hgfhe0VTiPBmZ4QVuF82hgjhe0VTiPBmZ5QVuF82hgnhe0VTiPJvbxBuZ5QVuF86g3zwfG41/alzz2y7VVL18eH+/vAyzkuwGzkG8GzEK+FzALecmFWcgrLsxCXnBhFvJ6C7OQl1uYRUFbhfNoYH4XtFU4jwZmeEFbhfNoYI4XtFU4jwZmeUFbhfNoYJ4XtFU4jyb28QbmeUFbhfOoN8+Hees205LHsFxbdXw8HEIs5LsBs5BvBsxCvhcwC3nJhVnIKy7MQl5wYRbyeguzkJdbmEVBW4XzaGB+F7RVOI8GZnhBW4XzaGCOF7RVOI8GZnlBW4XzaGCeF7RVOI8m9vEG5nlBW4XzqDfP943H60j6s3h3UK6tOjhw3cEAYFGUcwOyKErAAVkUZeOALIryoEAWRUlRIIuiDCmQRVG6FMiiKHcKZFEYtobyaGB+F0a0oTwamOGFwW4ojwbmeGEcHMqjgVleGCKH8mhgnhdGz6E8mtjHG5jnhVl2KI/18/xDmYTXRQyzOlITfbNMkM2DY9vJ9biTJ8CujYpdZjknOn0RzSZ+0h70OspxBh3VNz+5g3Jxs7cZxn0Ote8fe6keR/Hd89sgmSch37/+EoHRmcCb2Nfx25kJJi59ouG4W+V4rb1kFus5hslWXlz3DSdyc5jDHOYwhznMYQ5zmMMc5jCHOcxhDnOYwxzmMIc5zGEOc5jDHOYwhznMYQ5zmMMc5jCHOcxhDnOYwxzmMIc5zGEOc5jDHOYwhznMYQ5z+E81fNeNrnUcB75+7ZkP1jrdnuXnVc1HY5PVj8ae6jjQyeLjta3O8gPE0zBKu2Ew0Ws/Ipt87XO66z9Zm3Tzr56fRqGXBtEkg2olqZ7unuuLKNatcp98/lmP9cRffUHzx9rDXkf1zSeXe+aDzOY/rVBfpAZsjfRStns21unJJDXXJ7O4mE1GOWl7R/2+RmJJqO/Pfr/2s9zmCC5UO70Mkm6S35VyRuZ4cFI3u34n3uiy/V/gqmpLfPPR8Yx9oXs2jZLACL7MHi7zapaHkfkKVRzdVENaYgUTX5v5sOt0Kp69PD7WPfEi0KGpt/bims7nyTiOZlPtq2+/VX9bPH7bPbv0ksXn380E23k4evfV0eyCdL3x+JXx6IZ6Mk4v1ffKVf9Uredh2FLPVp+RhMFIt3ednfe9Dztr59sXrySKVftj9lJ636mPmc2iVBe+5rG/ZytO9RtkDlPGC733Hz90P+k7dXR0NL949RRz1cVt/1j1pS6P81h7n+qc/LniOVWfb67X4tUdmbI2xbColDzIoXvmJUkwnmj/2EREJO/zK/mh3qVc3ujpLLls170X2S19Nr+f9WdSGD4r8yq75pl1XZI0jj7pcj7z59Z1iqbeKEjvylktnlz7VeUWS6u6KsuFZHVZqTM9Ki8+5lhO59WFR+0qp6palelWnvVzJ99VSz3/87qewhxPn6pff3un/v3mt7fq9M3bdz/98oP6+c0PPx2rH0/enpQTeJWt2vrWMy2aSiOVRHGqJrOrrA5GKo80SZSXjLLmJZiMSygur73RebAzex11Xn5xiXU6iydq6sWJfhVGXtr2zJK/k93KB4+d54+VupjrW7QHtouXsE7482aTXu77z3y655O9/cTXF94sTNU0jrI1TD/pqCffHBwcH5+cPNlw8AxxiEMc4hCHOMQhDnGIQxzi/DlxVDK7yv4JrHxtHlS+d2eIYu2ThjSkIQ1pSEMa0pCGNKQhDWmKaW7yP836A815ONPEIQ5xiEMc4hCHOMQhDnGIQ5w6OPffG+iY7w08nUnfG9h38nfYnj/f2zs8JClJSUpSkpKUpCQlKUlJSlKSkpSk20Hq5qReKpH2ctJ+33UPhiQlKUlJSlKSkpSkJCUpSUlKUpKSdDtI+4b0VRwIpO5hTuo4+/v9PklJSlKSkpSkJCUpSUlKUpKSlKQk3Q7SPUP67nImkR7kpIfZMXhBUpKSlKQkJSlJSUpSkpKUpCQlKUm3g3RgSP+lfYl0Pyd9+fL4eH+fpCQlKUlJSlKSkpSkJCUpSUlKUpJuB+kw/83ETEukw5z0+Hg4JClJSUpSkpKUpCQlKUlJSlKSkpSk20K6b0hfR1KyoDvISQ8OXHcwIClJSUpSkpKUpCQlKUlJSlKSkpSkjZEuUfzYu2mvFbvtpkEa6tNLb6q7qb5N209+jGZxsh7j7sszXwZXepIE0STUSa6wRuLpU/Xc95WnciV1E6SXKomutPL7a85MrsddbzrVE7/dMt6tnTUnLI+ul6Zxu3Xb6qhhr+JJd9lJbvmTkvQu1HO8XW8yuozi7PxWqC8q0C40LqJJunujg/FlajTOo9AvrzG/N//n+f+ZX+C3+lJ7qXozGqnT0eWTnaKb9P3TZBQH0/Qf4nO+f+oH118fFs+RxTItFfhHrZGp4OPsRXvBRMdnjjNoqfxSHLX8IJmG3t2zYBJmY7vnYTT69F1LBsxU569BpXfT7HxzNZ5+9K69+aOFZ5rj2otNtakj5QdX01B3J/rm9Hrcbn3zFciO2uv18v+snT5G1/dSLxN+/3sr9M512HrW8vWFNwtTNY2jiyDUrc585Oy29czp9jqtay+c6daz4WH38MFxcNhpjcyakylky8jx8clJ63OnlKq7EdX+RlT3NqI62IjqcCOq+xtRPdiI6uFGVJ3eZmQ3M7uczUwvZzPzy9nMBHM2M8OczUwxZzNzzNnMJHM2M8vczcwyd0N72GZmmbuZWeZazDKVzK6uVr7Gu0aHEGu/gmjJa1tNtOSVrSZa8rpWEy25dlUTLblyVRMtuW5VEy25alUTLblmVRMt2xhUVN3InCrbFlRU3cisKtsUVFTdyLwq2xJUVN3IzCrbEFRU3cjcKtsOVFTdzH61kblVtheoqFp3bt0Ek9S2DTg3TyivWvKyVlQteVkrqpa8rBVVSy5ZFVVLLlkVVUsuWRVVSy5ZFVVLLlkVVcv2A1VlNzO7ynYEVWU3M7/K9gRVZTczw8p2BVVlNzPHyvYFVWU3M8vKdgZVZTe0h21mlpVtDqrKVpplH8q84bB4b1AdqYm+Wb6hkb+P0U6ux538DYm171ws32BMdPoimk38pD3odZTjDDqqb35yB+Xe/bjNMO7fN/X9Yy/V4yi+e34bJPM36O4vRYl3MTOBN7Gv47cz835Z6RMNx90qx2vtJbNYzzHMW36LW2D7vmz+RtKq1amOA50scDOnxQ2ZhlHaNe9urbVMvva615Mm3bzuplHopUE0yaBaSaqnu+f6Iop1q1wl/azHeuKvvqD5Y+1hVgV9UwnmzTDH/Gfxtufad4SXst2zsU5PJqm5PpnFxWwyyknbO+r3Eu97GkJ9f/b7tXPDHMGFaqeXQZLVtTmvnJE5HpzUza7fiTe6bP8XuKraEn/x3uBC92waJYERfJk9XObVLA8j8xWqOLqphrTECia+NhN31+lUPHt5fKx74kWgQ1Nv7cU1nc+TcRzNptpX336r/rZ4/LZ7dukli/XETLCdh6N3Xx3NLkjXG49fGY9uqCfj9FJ9r1z1T9V6HoYt9Wz1GUkYjHR719l53/uws3a+ffFKoli1P2Yvpfed+pjZLEp14Wse+/uRcqrfIHOYMl7ovf/4oftJZ8vb0dH84tVTzFUXt/1j1Ze6PM5j7X2qc/LniudUfb65XotXd2TK2hTDolLyjbF7Nv+bHu3nf9WTvM+v5Id6l3J5o6ez5LJd915kt/TZ/H7Wn0lh+KzMq+yaZ9Z1SdI4+qTL+cyfW9cpmnqjIL0rZ7V4cu1XlVssreqqLBeS1WWlzvSovPiYYzmdVxcetaucqmpVplt51s+dfFct9fzP63oKczx9qn797Z3695vf3qrTN2/f/fTLD+rnNz/8dKx+PHl7Uk7gVbZq61vPtGgqjVQSZY30ZHaV1cFI5S1iorxklDUvwWRcQnF57Y3Og53Z66jz8otLrNNZPFFTL070qzDy0rZnlvyd7FY+eOw8f6zUxVzfoj2wXbyEdcKf/wd/e/mHN2AXf2Bp3lD9n/wpKHGIQxziEIc4xCEOcYhDHOJsPc6Xf+BiiGLtk4Y0pCENaUhDGtKQhjSkIQ1pimm++JNAQ2P+xI84xCEOcYhDHOIQhzjEIQ5xiPM/TDx8p6+mOvbSWaxV+9UOMw8fVebhvzxTcT/q/H+eX50HepIqc8tM8qH2Z9n131X7vVdbEoI43IYQxGFjIYj5R0/rhjCBdPognT2QzgCkMwTp7IN0DkA6hyCdlXQBKyFURTuoknZQNe2gitpBVbWDKmsHVdcOqrAdVGW7qMp2YWs1qrJdVGW7lSq7fGjfilT9mD4LGfEK1Y/is5AR5339uD0LGXHO14/Us5AR57tFbJ6NDqiO5W3MIgzPRgdUyvIeZhFxZ6MDqmZ5A7MIrrNZB0H1LO9eFnF0Njqgepa3rvohcysyFrFyNjri5bGIjrPREae7RTycjY443S0i4Gx0xOluE/NmJYSqaHkHswlvsxJCFbW8idlEslkJoepa3sdsgtasVkZUZctbmU18mpUQqrLl3YyhaFsRisZhDnOYwxzmMIc5zGEOc5jDHOYwhznM4cc0fNeNrnUcB75+7ZlfVDndHkPxH7wShuLfHwzFr3QwFJ+h+BUOhuL/8WAo/h8PhuJXPBiKz1D8rx4MxScOcYhDHOIQhzjEIQ5xiEMc4mxDpCRpSEMa0pCGNKQhDWlIQxrSbA/NXybKkjjEIQ5xiEMc4hCHOMQhDnHq+/0PQvFfBld6kgTRJNRJwkj8xxWJH8Wf1MnFRTAK9GR0dx+E32wE/uLZfxh5+P+XP8//91598cP9/5xH/p3538v0KvzH//P/A3GS6Zk="
               },
               {
                  "name" : "annual_peak_electric_demand",
                  "units" : "kW",
                  "value" : 282.25060999999999
               },
               {
                  "name" : "first_year_capital_cost",
                  "units" : "$",
                  "value" : 0
               },
               {
                  "name" : "annual_utility_cost",
                  "units" : "$",
                  "value" : 0
               },
               {
                  "name" : "total_lifecycle_cost",
                  "units" : "$",
                  "value" : 0
               }
            ],
            "step_warnings" : []
         }
      }
   ],
   "updated_at" : "20170710T194040Z",
   "weather_file" : "USA_CO_Denver.Intl.AP.725650_TMY3.epw"
}
