{
   "completed_at" : "20170710T190122Z",
   "completed_status" : "Success",
   "created_at" : "2017-07-10 18:48:18 +0000",
   "current_step" : 5,
   "description" : "",
   "eplusout_err" : "Program Version,EnergyPlus, Version 8.7.0-78a111df4a, YMD=2017.07.10 18:53,IDD_Version 8.7.0\n   ************* IDF Context for following error/warning message:\n   ************* Note -- lines truncated at 300 characters, if necessary...\n   *************      5 Building,\n   ************* indicated Name=NECB 2011-SmallHotel-NECB HDD Method-CAN_BC_Kamloops.718870_CWEC.epw created: 2017-07-10 18:48:27 +0000\n   ************* Only last 1 lines before error line shown.....\n   *************      6   NECB 2011-SmallHotel-NECB HDD Method-CAN_BC_Kamloops.718870_CWEC.epw created: 2017-07-10 18:48:27 +0000, !- Name\n   ** Warning ** IP: IDF line~6 Alpha Argument length exceeds maximum, will be truncated=  NECB 2011-SmallHotel-NECB HDD Method-CAN_BC_Kamloops.718870_CWEC.epw created: 2017-07-10 18:48:27 +000\n   **   ~~~   ** Will be processed as Alpha=NECB 2011-SMALLHOTEL-NECB HDD METHOD-CAN_BC_KAMLOOPS.718870_CWEC.EPW CREATED: 2017-07-10 18:48:27 +0000\n   ************* Beginning Zone Sizing Calculations\n   ** Warning ** ProcessScheduleInput: Schedule:Day:Interval=\"ECONOMIZER MAX OA FRACTION 100 PCT DEFAULT\", Blank Schedule Type Limits Name input -- will not be validated.\n   ** Warning ** ProcessScheduleInput: Schedule:Day:Interval=\"SCHEDULE DAY 1\", Blank Schedule Type Limits Name input -- will not be validated.\n   ** Warning ** ProcessScheduleInput: Schedule:Day:Interval=\"SCHEDULE DAY 10\", Blank Schedule Type Limits Name input -- will not be validated.\n   ** Warning ** ProcessScheduleInput: Schedule:Day:Interval=\"SCHEDULE DAY 100\", Blank Schedule Type Limits Name input -- will not be validated.\n   ** Warning ** ProcessScheduleInput: Schedule:Day:Interval=\"SCHEDULE DAY 101\", Blank Schedule Type Limits Name input -- will not be validated.\n   ** Warning ** ProcessScheduleInput: Schedule:Day:Interval=\"SCHEDULE DAY 102\", Blank Schedule Type Limits Name input -- will not be validated.\n   ** Warning ** ProcessScheduleInput: Schedule:Day:Interval=\"SCHEDULE DAY 103\", Blank Schedule Type Limits Name input -- will not be validated.\n   ** Warning ** ProcessScheduleInput: Schedule:Day:Interval=\"SCHEDULE DAY 104\", Blank Schedule Type Limits Name input -- will not be validated.\n   ** Warning ** ProcessScheduleInput: Schedule:Day:Interval=\"SCHEDULE DAY 105\", Blank Schedule Type Limits Name input -- will not be validated.\n   ** Warning ** ProcessScheduleInput: Schedule:Day:Interval=\"SCHEDULE DAY 106\", Blank Schedule Type Limits Name input -- will not be validated.\n   ** Warning ** ProcessScheduleInput: Schedule:Day:Interval=\"SCHEDULE DAY 107\", Blank Schedule Type Limits Name input -- will not be validated.\n   ** Warning ** ProcessScheduleInput: Schedule:Day:Interval=\"SCHEDULE DAY 108\", Blank Schedule Type Limits Name input -- will not be validated.\n   ** Warning ** ProcessScheduleInput: Schedule:Day:Interval=\"SCHEDULE DAY 109\", Blank Schedule Type Limits Name input -- will not be validated.\n   ** Warning ** ProcessScheduleInput: Schedule:Day:Interval=\"SCHEDULE DAY 11\", Blank Schedule Type Limits Name input -- will not be validated.\n   ** Warning ** ProcessScheduleInput: Schedule:Day:Interval=\"SCHEDULE DAY 110\", Blank Schedule Type Limits Name input -- will not be validated.\n   ** Warning ** ProcessScheduleInput: Schedule:Day:Interval=\"SCHEDULE DAY 111\", Blank Schedule Type Limits Name input -- will not be validated.\n   ** Warning ** ProcessScheduleInput: Schedule:Day:Interval=\"SCHEDULE DAY 112\", Blank Schedule Type Limits Name input -- will not be validated.\n   ** Warning ** ProcessScheduleInput: Schedule:Day:Interval=\"SCHEDULE DAY 113\", Blank Schedule Type Limits Name input -- will not be validated.\n   ** Warning ** ProcessScheduleInput: Schedule:Day:Interval=\"SCHEDULE DAY 114\", Blank Schedule Type Limits Name input -- will not be validated.\n   ** Warning ** ProcessScheduleInput: Schedule:Day:Interval=\"SCHEDULE DAY 115\", Blank Schedule Type Limits Name input -- will not be validated.\n   ** Warning ** ProcessScheduleInput: Schedule:Day:Interval=\"SCHEDULE DAY 116\", Blank Schedule Type Limits Name input -- will not be validated.\n   ** Warning ** ProcessScheduleInput: Schedule:Day:Interval=\"SCHEDULE DAY 117\", Blank Schedule Type Limits Name input -- will not be validated.\n   ** Warning ** ProcessScheduleInput: Schedule:Day:Interval=\"SCHEDULE DAY 118\", Blank Schedule Type Limits Name input -- will not be validated.\n   ** Warning ** ProcessScheduleInput: Schedule:Day:Interval=\"SCHEDULE DAY 119\", Blank Schedule Type Limits Name input -- will not be validated.\n   ** Warning ** ProcessScheduleInput: Schedule:Day:Interval=\"SCHEDULE DAY 12\", Blank Schedule Type Limits Name input -- will not be validated.\n   ** Warning ** ProcessScheduleInput: Schedule:Day:Interval=\"SCHEDULE DAY 120\", Blank Schedule Type Limits Name input -- will not be validated.\n   ** Warning ** ProcessScheduleInput: Schedule:Day:Interval=\"SCHEDULE DAY 121\", Blank Schedule Type Limits Name input -- will not be validated.\n   ** Warning ** ProcessScheduleInput: Schedule:Day:Interval=\"SCHEDULE DAY 122\", Blank Schedule Type Limits Name input -- will not be validated.\n   ** Warning ** ProcessScheduleInput: Schedule:Day:Interval=\"SCHEDULE DAY 123\", Blank Schedule Type Limits Name input -- will not be validated.\n   ** Warning ** ProcessScheduleInput: Schedule:Day:Interval=\"SCHEDULE DAY 124\", Blank Schedule Type Limits Name input -- will not be validated.\n   ** Warning ** ProcessScheduleInput: Schedule:Day:Interval=\"SCHEDULE DAY 125\", Blank Schedule Type Limits Name input -- will not be validated.\n   ** Warning ** ProcessScheduleInput: Schedule:Day:Interval=\"SCHEDULE DAY 126\", Blank Schedule Type Limits Name input -- will not be validated.\n   ** Warning ** ProcessScheduleInput: Schedule:Day:Interval=\"SCHEDULE DAY 127\", Blank Schedule Type Limits Name input -- will not be validated.\n   ** Warning ** ProcessScheduleInput: Schedule:Day:Interval=\"SCHEDULE DAY 128\", Blank Schedule Type Limits Name input -- will not be validated.\n   ** Warning ** ProcessScheduleInput: Schedule:Day:Interval=\"SCHEDULE DAY 129\", Blank Schedule Type Limits Name input -- will not be validated.\n   ** Warning ** ProcessScheduleInput: Schedule:Day:Interval=\"SCHEDULE DAY 13\", Blank Schedule Type Limits Name input -- will not be validated.\n   ** Warning ** ProcessScheduleInput: Schedule:Day:Interval=\"SCHEDULE DAY 130\", Blank Schedule Type Limits Name input -- will not be validated.\n   ** Warning ** ProcessScheduleInput: Schedule:Day:Interval=\"SCHEDULE DAY 131\", Blank Schedule Type Limits Name input -- will not be validated.\n   ** Warning ** ProcessScheduleInput: Schedule:Day:Interval=\"SCHEDULE DAY 132\", Blank Schedule Type Limits Name input -- will not be validated.\n   ** Warning ** ProcessScheduleInput: Schedule:Day:Interval=\"SCHEDULE DAY 133\", Blank Schedule Type Limits Name input -- will not be validated.\n   ** Warning ** ProcessScheduleInput: Schedule:Day:Interval=\"SCHEDULE DAY 134\", Blank Schedule Type Limits Name input -- will not be validated.\n   ** Warning ** ProcessScheduleInput: Schedule:Day:Interval=\"SCHEDULE DAY 135\", Blank Schedule Type Limits Name input -- will not be validated.\n   ** Warning ** ProcessScheduleInput: Schedule:Day:Interval=\"SCHEDULE DAY 136\", Blank Schedule Type Limits Name input -- will not be validated.\n   ** Warning ** ProcessScheduleInput: Schedule:Day:Interval=\"SCHEDULE DAY 137\", Blank Schedule Type Limits Name input -- will not be validated.\n   ** Warning ** ProcessScheduleInput: Schedule:Day:Interval=\"SCHEDULE DAY 138\", Blank Schedule Type Limits Name input -- will not be validated.\n   ** Warning ** ProcessScheduleInput: Schedule:Day:Interval=\"SCHEDULE DAY 139\", Blank Schedule Type Limits Name input -- will not be validated.\n   ** Warning ** ProcessScheduleInput: Schedule:Day:Interval=\"SCHEDULE DAY 14\", Blank Schedule Type Limits Name input -- will not be validated.\n   ** Warning ** ProcessScheduleInput: Schedule:Day:Interval=\"SCHEDULE DAY 140\", Blank Schedule Type Limits Name input -- will not be validated.\n   ** Warning ** ProcessScheduleInput: Schedule:Day:Interval=\"SCHEDULE DAY 141\", Blank Schedule Type Limits Name input -- will not be validated.\n   ** Warning ** ProcessScheduleInput: Schedule:Day:Interval=\"SCHEDULE DAY 142\", Blank Schedule Type Limits Name input -- will not be validated.\n   ** Warning ** ProcessScheduleInput: Schedule:Day:Interval=\"SCHEDULE DAY 143\", Blank Schedule Type Limits Name input -- will not be validated.\n   ** Warning ** ProcessScheduleInput: Schedule:Day:Interval=\"SCHEDULE DAY 144\", Blank Schedule Type Limits Name input -- will not be validated.\n   ** Warning ** ProcessScheduleInput: Schedule:Day:Interval=\"SCHEDULE DAY 145\", Blank Schedule Type Limits Name input -- will not be validated.\n   ** Warning ** ProcessScheduleInput: Schedule:Day:Interval=\"SCHEDULE DAY 146\", Blank Schedule Type Limits Name input -- will not be validated.\n   ** Warning ** ProcessScheduleInput: Schedule:Day:Interval=\"SCHEDULE DAY 147\", Blank Schedule Type Limits Name input -- will not be validated.\n   ** Warning ** ProcessScheduleInput: Schedule:Day:Interval=\"SCHEDULE DAY 148\", Blank Schedule Type Limits Name input -- will not be validated.\n   ** Warning ** ProcessScheduleInput: Schedule:Day:Interval=\"SCHEDULE DAY 149\", Blank Schedule Type Limits Name input -- will not be validated.\n   ** Warning ** ProcessScheduleInput: Schedule:Day:Interval=\"SCHEDULE DAY 15\", Blank Schedule Type Limits Name input -- will not be validated.\n   ** Warning ** ProcessScheduleInput: Schedule:Day:Interval=\"SCHEDULE DAY 150\", Blank Schedule Type Limits Name input -- will not be validated.\n   ** Warning ** ProcessScheduleInput: Schedule:Day:Interval=\"SCHEDULE DAY 151\", Blank Schedule Type Limits Name input -- will not be validated.\n   ** Warning ** ProcessScheduleInput: Schedule:Day:Interval=\"SCHEDULE DAY 152\", Blank Schedule Type Limits Name input -- will not be validated.\n   ** Warning ** ProcessScheduleInput: Schedule:Day:Interval=\"SCHEDULE DAY 153\", Blank Schedule Type Limits Name input -- will not be validated.\n   ** Warning ** ProcessScheduleInput: Schedule:Day:Interval=\"SCHEDULE DAY 154\", Blank Schedule Type Limits Name input -- will not be validated.\n   ** Warning ** ProcessScheduleInput: Schedule:Day:Interval=\"SCHEDULE DAY 155\", Blank Schedule Type Limits Name input -- will not be validated.\n   ** Warning ** ProcessScheduleInput: Schedule:Day:Interval=\"SCHEDULE DAY 16\", Blank Schedule Type Limits Name input -- will not be validated.\n   ** Warning ** ProcessScheduleInput: Schedule:Day:Interval=\"SCHEDULE DAY 17\", Blank Schedule Type Limits Name input -- will not be validated.\n   ** Warning ** ProcessScheduleInput: Schedule:Day:Interval=\"SCHEDULE DAY 18\", Blank Schedule Type Limits Name input -- will not be validated.\n   ** Warning ** ProcessScheduleInput: Schedule:Day:Interval=\"SCHEDULE DAY 19\", Blank Schedule Type Limits Name input -- will not be validated.\n   ** Warning ** ProcessScheduleInput: Schedule:Day:Interval=\"SCHEDULE DAY 2\", Blank Schedule Type Limits Name input -- will not be validated.\n   ** Warning ** ProcessScheduleInput: Schedule:Day:Interval=\"SCHEDULE DAY 20\", Blank Schedule Type Limits Name input -- will not be validated.\n   ** Warning ** ProcessScheduleInput: Schedule:Day:Interval=\"SCHEDULE DAY 21\", Blank Schedule Type Limits Name input -- will not be validated.\n   ** Warning ** ProcessScheduleInput: Schedule:Day:Interval=\"SCHEDULE DAY 22\", Blank Schedule Type Limits Name input -- will not be validated.\n   ** Warning ** ProcessScheduleInput: Schedule:Day:Interval=\"SCHEDULE DAY 23\", Blank Schedule Type Limits Name input -- will not be validated.\n   ** Warning ** ProcessScheduleInput: Schedule:Day:Interval=\"SCHEDULE DAY 24\", Blank Schedule Type Limits Name input -- will not be validated.\n   ** Warning ** ProcessScheduleInput: Schedule:Day:Interval=\"SCHEDULE DAY 25\", Blank Schedule Type Limits Name input -- will not be validated.\n   ** Warning ** ProcessScheduleInput: Schedule:Day:Interval=\"SCHEDULE DAY 26\", Blank Schedule Type Limits Name input -- will not be validated.\n   ** Warning ** ProcessScheduleInput: Schedule:Day:Interval=\"SCHEDULE DAY 27\", Blank Schedule Type Limits Name input -- will not be validated.\n   ** Warning ** ProcessScheduleInput: Schedule:Day:Interval=\"SCHEDULE DAY 28\", Blank Schedule Type Limits Name input -- will not be validated.\n   ** Warning ** ProcessScheduleInput: Schedule:Day:Interval=\"SCHEDULE DAY 29\", Blank Schedule Type Limits Name input -- will not be validated.\n   ** Warning ** ProcessScheduleInput: Schedule:Day:Interval=\"SCHEDULE DAY 30\", Blank Schedule Type Limits Name input -- will not be validated.\n   ** Warning ** ProcessScheduleInput: Schedule:Day:Interval=\"SCHEDULE DAY 31\", Blank Schedule Type Limits Name input -- will not be validated.\n   ** Warning ** ProcessScheduleInput: Schedule:Day:Interval=\"SCHEDULE DAY 32\", Blank Schedule Type Limits Name input -- will not be validated.\n   ** Warning ** ProcessScheduleInput: Schedule:Day:Interval=\"SCHEDULE DAY 33\", Blank Schedule Type Limits Name input -- will not be validated.\n   ** Warning ** ProcessScheduleInput: Schedule:Day:Interval=\"SCHEDULE DAY 34\", Blank Schedule Type Limits Name input -- will not be validated.\n   ** Warning ** ProcessScheduleInput: Schedule:Day:Interval=\"SCHEDULE DAY 35\", Blank Schedule Type Limits Name input -- will not be validated.\n   ** Warning ** ProcessScheduleInput: Schedule:Day:Interval=\"SCHEDULE DAY 36\", Blank Schedule Type Limits Name input -- will not be validated.\n   ** Warning ** ProcessScheduleInput: Schedule:Day:Interval=\"SCHEDULE DAY 37\", Blank Schedule Type Limits Name input -- will not be validated.\n   ** Warning ** ProcessScheduleInput: Schedule:Day:Interval=\"SCHEDULE DAY 38\", Blank Schedule Type Limits Name input -- will not be validated.\n   ** Warning ** ProcessScheduleInput: Schedule:Day:Interval=\"SCHEDULE DAY 39\", Blank Schedule Type Limits Name input -- will not be validated.\n   ** Warning ** ProcessScheduleInput: Schedule:Day:Interval=\"SCHEDULE DAY 40\", Blank Schedule Type Limits Name input -- will not be validated.\n   ** Warning ** ProcessScheduleInput: Schedule:Day:Interval=\"SCHEDULE DAY 41\", Blank Schedule Type Limits Name input -- will not be validated.\n   ** Warning ** ProcessScheduleInput: Schedule:Day:Interval=\"SCHEDULE DAY 42\", Blank Schedule Type Limits Name input -- will not be validated.\n   ** Warning ** ProcessScheduleInput: Schedule:Day:Interval=\"SCHEDULE DAY 43\", Blank Schedule Type Limits Name input -- will not be validated.\n   ** Warning ** ProcessScheduleInput: Schedule:Day:Interval=\"SCHEDULE DAY 44\", Blank Schedule Type Limits Name input -- will not be validated.\n   ** Warning ** ProcessScheduleInput: Schedule:Day:Interval=\"SCHEDULE DAY 45\", Blank Schedule Type Limits Name input -- will not be validated.\n   ** Warning ** ProcessScheduleInput: Schedule:Day:Interval=\"SCHEDULE DAY 46\", Blank Schedule Type Limits Name input -- will not be validated.\n   ** Warning ** ProcessScheduleInput: Schedule:Day:Interval=\"SCHEDULE DAY 47\", Blank Schedule Type Limits Name input -- will not be validated.\n   ** Warning ** ProcessScheduleInput: Schedule:Day:Interval=\"SCHEDULE DAY 48\", Blank Schedule Type Limits Name input -- will not be validated.\n   ** Warning ** ProcessScheduleInput: Schedule:Day:Interval=\"SCHEDULE DAY 49\", Blank Schedule Type Limits Name input -- will not be validated.\n   ** Warning ** ProcessScheduleInput: Schedule:Day:Interval=\"SCHEDULE DAY 50\", Blank Schedule Type Limits Name input -- will not be validated.\n   ** Warning ** ProcessScheduleInput: Schedule:Day:Interval=\"SCHEDULE DAY 51\", Blank Schedule Type Limits Name input -- will not be validated.\n   ** Warning ** ProcessScheduleInput: Schedule:Day:Interval=\"SCHEDULE DAY 52\", Blank Schedule Type Limits Name input -- will not be validated.\n   ** Warning ** ProcessScheduleInput: Schedule:Day:Interval=\"SCHEDULE DAY 53\", Blank Schedule Type Limits Name input -- will not be validated.\n   ** Warning ** ProcessScheduleInput: Schedule:Day:Interval=\"SCHEDULE DAY 54\", Blank Schedule Type Limits Name input -- will not be validated.\n   ** Warning ** ProcessScheduleInput: Schedule:Day:Interval=\"SCHEDULE DAY 55\", Blank Schedule Type Limits Name input -- will not be validated.\n   ** Warning ** ProcessScheduleInput: Schedule:Day:Interval=\"SCHEDULE DAY 56\", Blank Schedule Type Limits Name input -- will not be validated.\n   ** Warning ** ProcessScheduleInput: Schedule:Day:Interval=\"SCHEDULE DAY 57\", Blank Schedule Type Limits Name input -- will not be validated.\n   ** Warning ** ProcessScheduleInput: Schedule:Day:Interval=\"SCHEDULE DAY 58\", Blank Schedule Type Limits Name input -- will not be validated.\n   ** Warning ** ProcessScheduleInput: Schedule:Day:Interval=\"SCHEDULE DAY 59\", Blank Schedule Type Limits Name input -- will not be validated.\n   ** Warning ** ProcessScheduleInput: Schedule:Day:Interval=\"SCHEDULE DAY 60\", Blank Schedule Type Limits Name input -- will not be validated.\n   ** Warning ** ProcessScheduleInput: Schedule:Day:Interval=\"SCHEDULE DAY 61\", Blank Schedule Type Limits Name input -- will not be validated.\n   ** Warning ** ProcessScheduleInput: Schedule:Day:Interval=\"SCHEDULE DAY 62\", Blank Schedule Type Limits Name input -- will not be validated.\n   ** Warning ** ProcessScheduleInput: Schedule:Day:Interval=\"SCHEDULE DAY 63\", Blank Schedule Type Limits Name input -- will not be validated.\n   ** Warning ** ProcessScheduleInput: Schedule:Day:Interval=\"SCHEDULE DAY 64\", Blank Schedule Type Limits Name input -- will not be validated.\n   ** Warning ** ProcessScheduleInput: Schedule:Day:Interval=\"SCHEDULE DAY 65\", Blank Schedule Type Limits Name input -- will not be validated.\n   ** Warning ** ProcessScheduleInput: Schedule:Day:Interval=\"SCHEDULE DAY 66\", Blank Schedule Type Limits Name input -- will not be validated.\n   ** Warning ** ProcessScheduleInput: Schedule:Day:Interval=\"SCHEDULE DAY 67\", Blank Schedule Type Limits Name input -- will not be validated.\n   ** Warning ** ProcessScheduleInput: Schedule:Day:Interval=\"SCHEDULE DAY 68\", Blank Schedule Type Limits Name input -- will not be validated.\n   ** Warning ** ProcessScheduleInput: Schedule:Day:Interval=\"SCHEDULE DAY 69\", Blank Schedule Type Limits Name input -- will not be validated.\n   ** Warning ** ProcessScheduleInput: Schedule:Day:Interval=\"SCHEDULE DAY 70\", Blank Schedule Type Limits Name input -- will not be validated.\n   ** Warning ** ProcessScheduleInput: Schedule:Day:Interval=\"SCHEDULE DAY 71\", Blank Schedule Type Limits Name input -- will not be validated.\n   ** Warning ** ProcessScheduleInput: Schedule:Day:Interval=\"SCHEDULE DAY 72\", Blank Schedule Type Limits Name input -- will not be validated.\n   ** Warning ** ProcessScheduleInput: Schedule:Day:Interval=\"SCHEDULE DAY 73\", Blank Schedule Type Limits Name input -- will not be validated.\n   ** Warning ** ProcessScheduleInput: Schedule:Day:Interval=\"SCHEDULE DAY 74\", Blank Schedule Type Limits Name input -- will not be validated.\n   ** Warning ** ProcessScheduleInput: Schedule:Day:Interval=\"SCHEDULE DAY 75\", Blank Schedule Type Limits Name input -- will not be validated.\n   ** Warning ** ProcessScheduleInput: Schedule:Day:Interval=\"SCHEDULE DAY 76\", Blank Schedule Type Limits Name input -- will not be validated.\n   ** Warning ** ProcessScheduleInput: Schedule:Day:Interval=\"SCHEDULE DAY 77\", Blank Schedule Type Limits Name input -- will not be validated.\n   ** Warning ** ProcessScheduleInput: Schedule:Day:Interval=\"SCHEDULE DAY 78\", Blank Schedule Type Limits Name input -- will not be validated.\n   ** Warning ** ProcessScheduleInput: Schedule:Day:Interval=\"SCHEDULE DAY 79\", Blank Schedule Type Limits Name input -- will not be validated.\n   ** Warning ** ProcessScheduleInput: Schedule:Day:Interval=\"SCHEDULE DAY 8\", Blank Schedule Type Limits Name input -- will not be validated.\n   ** Warning ** ProcessScheduleInput: Schedule:Day:Interval=\"SCHEDULE DAY 80\", Blank Schedule Type Limits Name input -- will not be validated.\n   ** Warning ** ProcessScheduleInput: Schedule:Day:Interval=\"SCHEDULE DAY 81\", Blank Schedule Type Limits Name input -- will not be validated.\n   ** Warning ** ProcessScheduleInput: Schedule:Day:Interval=\"SCHEDULE DAY 82\", Blank Schedule Type Limits Name input -- will not be validated.\n   ** Warning ** ProcessScheduleInput: Schedule:Day:Interval=\"SCHEDULE DAY 83\", Blank Schedule Type Limits Name input -- will not be validated.\n   ** Warning ** ProcessScheduleInput: Schedule:Day:Interval=\"SCHEDULE DAY 84\", Blank Schedule Type Limits Name input -- will not be validated.\n   ** Warning ** ProcessScheduleInput: Schedule:Day:Interval=\"SCHEDULE DAY 85\", Blank Schedule Type Limits Name input -- will not be validated.\n   ** Warning ** ProcessScheduleInput: Schedule:Day:Interval=\"SCHEDULE DAY 86\", Blank Schedule Type Limits Name input -- will not be validated.\n   ** Warning ** ProcessScheduleInput: Schedule:Day:Interval=\"SCHEDULE DAY 87\", Blank Schedule Type Limits Name input -- will not be validated.\n   ** Warning ** ProcessScheduleInput: Schedule:Day:Interval=\"SCHEDULE DAY 88\", Blank Schedule Type Limits Name input -- will not be validated.\n   ** Warning ** ProcessScheduleInput: Schedule:Day:Interval=\"SCHEDULE DAY 89\", Blank Schedule Type Limits Name input -- will not be validated.\n   ** Warning ** ProcessScheduleInput: Schedule:Day:Interval=\"SCHEDULE DAY 9\", Blank Schedule Type Limits Name input -- will not be validated.\n   ** Warning ** ProcessScheduleInput: Schedule:Day:Interval=\"SCHEDULE DAY 90\", Blank Schedule Type Limits Name input -- will not be validated.\n   ** Warning ** ProcessScheduleInput: Schedule:Day:Interval=\"SCHEDULE DAY 91\", Blank Schedule Type Limits Name input -- will not be validated.\n   ** Warning ** ProcessScheduleInput: Schedule:Day:Interval=\"SCHEDULE DAY 92\", Blank Schedule Type Limits Name input -- will not be validated.\n   ** Warning ** ProcessScheduleInput: Schedule:Day:Interval=\"SCHEDULE DAY 93\", Blank Schedule Type Limits Name input -- will not be validated.\n   ** Warning ** ProcessScheduleInput: Schedule:Day:Interval=\"SCHEDULE DAY 94\", Blank Schedule Type Limits Name input -- will not be validated.\n   ** Warning ** ProcessScheduleInput: Schedule:Day:Interval=\"SCHEDULE DAY 95\", Blank Schedule Type Limits Name input -- will not be validated.\n   ** Warning ** ProcessScheduleInput: Schedule:Day:Interval=\"SCHEDULE DAY 96\", Blank Schedule Type Limits Name input -- will not be validated.\n   ** Warning ** ProcessScheduleInput: Schedule:Day:Interval=\"SCHEDULE DAY 97\", Blank Schedule Type Limits Name input -- will not be validated.\n   ** Warning ** ProcessScheduleInput: Schedule:Day:Interval=\"SCHEDULE DAY 98\", Blank Schedule Type Limits Name input -- will not be validated.\n   ** Warning ** ProcessScheduleInput: Schedule:Day:Interval=\"SCHEDULE DAY 99\", Blank Schedule Type Limits Name input -- will not be validated.\n   ** Warning ** ProcessScheduleInput: Schedule:Year=\"ECONOMIZER MAX OA FRACTION 100 PCT\", Blank Schedule Type Limits Name input -- will not be validated.\n   ** Warning ** ProcessScheduleInput: Schedule:Year=\"SCHEDULE RULESET 10\", Blank Schedule Type Limits Name input -- will not be validated.\n   ** Warning ** ProcessScheduleInput: Schedule:Year=\"SCHEDULE RULESET 100\", Blank Schedule Type Limits Name input -- will not be validated.\n   ** Warning ** ProcessScheduleInput: Schedule:Year=\"SCHEDULE RULESET 101\", Blank Schedule Type Limits Name input -- will not be validated.\n   ** Warning ** ProcessScheduleInput: Schedule:Year=\"SCHEDULE RULESET 102\", Blank Schedule Type Limits Name input -- will not be validated.\n   ** Warning ** ProcessScheduleInput: Schedule:Year=\"SCHEDULE RULESET 103\", Blank Schedule Type Limits Name input -- will not be validated.\n   ** Warning ** ProcessScheduleInput: Schedule:Year=\"SCHEDULE RULESET 104\", Blank Schedule Type Limits Name input -- will not be validated.\n   ** Warning ** ProcessScheduleInput: Schedule:Year=\"SCHEDULE RULESET 105\", Blank Schedule Type Limits Name input -- will not be validated.\n   ** Warning ** ProcessScheduleInput: Schedule:Year=\"SCHEDULE RULESET 106\", Blank Schedule Type Limits Name input -- will not be validated.\n   ** Warning ** ProcessScheduleInput: Schedule:Year=\"SCHEDULE RULESET 107\", Blank Schedule Type Limits Name input -- will not be validated.\n   ** Warning ** ProcessScheduleInput: Schedule:Year=\"SCHEDULE RULESET 108\", Blank Schedule Type Limits Name input -- will not be validated.\n   ** Warning ** ProcessScheduleInput: Schedule:Year=\"SCHEDULE RULESET 109\", Blank Schedule Type Limits Name input -- will not be validated.\n   ** Warning ** ProcessScheduleInput: Schedule:Year=\"SCHEDULE RULESET 11\", Blank Schedule Type Limits Name input -- will not be validated.\n   ** Warning ** ProcessScheduleInput: Schedule:Year=\"SCHEDULE RULESET 110\", Blank Schedule Type Limits Name input -- will not be validated.\n   ** Warning ** ProcessScheduleInput: Schedule:Year=\"SCHEDULE RULESET 111\", Blank Schedule Type Limits Name input -- will not be validated.\n   ** Warning ** ProcessScheduleInput: Schedule:Year=\"SCHEDULE RULESET 112\", Blank Schedule Type Limits Name input -- will not be validated.\n   ** Warning ** ProcessScheduleInput: Schedule:Year=\"SCHEDULE RULESET 113\", Blank Schedule Type Limits Name input -- will not be validated.\n   ** Warning ** ProcessScheduleInput: Schedule:Year=\"SCHEDULE RULESET 114\", Blank Schedule Type Limits Name input -- will not be validated.\n   ** Warning ** ProcessScheduleInput: Schedule:Year=\"SCHEDULE RULESET 115\", Blank Schedule Type Limits Name input -- will not be validated.\n   ** Warning ** ProcessScheduleInput: Schedule:Year=\"SCHEDULE RULESET 116\", Blank Schedule Type Limits Name input -- will not be validated.\n   ** Warning ** ProcessScheduleInput: Schedule:Year=\"SCHEDULE RULESET 117\", Blank Schedule Type Limits Name input -- will not be validated.\n   ** Warning ** ProcessScheduleInput: Schedule:Year=\"SCHEDULE RULESET 118\", Blank Schedule Type Limits Name input -- will not be validated.\n   ** Warning ** ProcessScheduleInput: Schedule:Year=\"SCHEDULE RULESET 119\", Blank Schedule Type Limits Name input -- will not be validated.\n   ** Warning ** ProcessScheduleInput: Schedule:Year=\"SCHEDULE RULESET 12\", Blank Schedule Type Limits Name input -- will not be validated.\n   ** Warning ** ProcessScheduleInput: Schedule:Year=\"SCHEDULE RULESET 120\", Blank Schedule Type Limits Name input -- will not be validated.\n   ** Warning ** ProcessScheduleInput: Schedule:Year=\"SCHEDULE RULESET 121\", Blank Schedule Type Limits Name input -- will not be validated.\n   ** Warning ** ProcessScheduleInput: Schedule:Year=\"SCHEDULE RULESET 122\", Blank Schedule Type Limits Name input -- will not be validated.\n   ** Warning ** ProcessScheduleInput: Schedule:Year=\"SCHEDULE RULESET 123\", Blank Schedule Type Limits Name input -- will not be validated.\n   ** Warning ** ProcessScheduleInput: Schedule:Year=\"SCHEDULE RULESET 124\", Blank Schedule Type Limits Name input -- will not be validated.\n   ** Warning ** ProcessScheduleInput: Schedule:Year=\"SCHEDULE RULESET 125\", Blank Schedule Type Limits Name input -- will not be validated.\n   ** Warning ** ProcessScheduleInput: Schedule:Year=\"SCHEDULE RULESET 126\", Blank Schedule Type Limits Name input -- will not be validated.\n   ** Warning ** ProcessScheduleInput: Schedule:Year=\"SCHEDULE RULESET 127\", Blank Schedule Type Limits Name input -- will not be validated.\n   ** Warning ** ProcessScheduleInput: Schedule:Year=\"SCHEDULE RULESET 128\", Blank Schedule Type Limits Name input -- will not be validated.\n   ** Warning ** ProcessScheduleInput: Schedule:Year=\"SCHEDULE RULESET 129\", Blank Schedule Type Limits Name input -- will not be validated.\n   ** Warning ** ProcessScheduleInput: Schedule:Year=\"SCHEDULE RULESET 13\", Blank Schedule Type Limits Name input -- will not be validated.\n   ** Warning ** ProcessScheduleInput: Schedule:Year=\"SCHEDULE RULESET 130\", Blank Schedule Type Limits Name input -- will not be validated.\n   ** Warning ** ProcessScheduleInput: Schedule:Year=\"SCHEDULE RULESET 131\", Blank Schedule Type Limits Name input -- will not be validated.\n   ** Warning ** ProcessScheduleInput: Schedule:Year=\"SCHEDULE RULESET 132\", Blank Schedule Type Limits Name input -- will not be validated.\n   ** Warning ** ProcessScheduleInput: Schedule:Year=\"SCHEDULE RULESET 133\", Blank Schedule Type Limits Name input -- will not be validated.\n   ** Warning ** ProcessScheduleInput: Schedule:Year=\"SCHEDULE RULESET 134\", Blank Schedule Type Limits Name input -- will not be validated.\n   ** Warning ** ProcessScheduleInput: Schedule:Year=\"SCHEDULE RULESET 135\", Blank Schedule Type Limits Name input -- will not be validated.\n   ** Warning ** ProcessScheduleInput: Schedule:Year=\"SCHEDULE RULESET 136\", Blank Schedule Type Limits Name input -- will not be validated.\n   ** Warning ** ProcessScheduleInput: Schedule:Year=\"SCHEDULE RULESET 137\", Blank Schedule Type Limits Name input -- will not be validated.\n   ** Warning ** ProcessScheduleInput: Schedule:Year=\"SCHEDULE RULESET 138\", Blank Schedule Type Limits Name input -- will not be validated.\n   ** Warning ** ProcessScheduleInput: Schedule:Year=\"SCHEDULE RULESET 139\", Blank Schedule Type Limits Name input -- will not be validated.\n   ** Warning ** ProcessScheduleInput: Schedule:Year=\"SCHEDULE RULESET 14\", Blank Schedule Type Limits Name input -- will not be validated.\n   ** Warning ** ProcessScheduleInput: Schedule:Year=\"SCHEDULE RULESET 140\", Blank Schedule Type Limits Name input -- will not be validated.\n   ** Warning ** ProcessScheduleInput: Schedule:Year=\"SCHEDULE RULESET 141\", Blank Schedule Type Limits Name input -- will not be validated.\n   ** Warning ** ProcessScheduleInput: Schedule:Year=\"SCHEDULE RULESET 142\", Blank Schedule Type Limits Name input -- will not be validated.\n   ** Warning ** ProcessScheduleInput: Schedule:Year=\"SCHEDULE RULESET 143\", Blank Schedule Type Limits Name input -- will not be validated.\n   ** Warning ** ProcessScheduleInput: Schedule:Year=\"SCHEDULE RULESET 144\", Blank Schedule Type Limits Name input -- will not be validated.\n   ** Warning ** ProcessScheduleInput: Schedule:Year=\"SCHEDULE RULESET 145\", Blank Schedule Type Limits Name input -- will not be validated.\n   ** Warning ** ProcessScheduleInput: Schedule:Year=\"SCHEDULE RULESET 146\", Blank Schedule Type Limits Name input -- will not be validated.\n   ** Warning ** ProcessScheduleInput: Schedule:Year=\"SCHEDULE RULESET 15\", Blank Schedule Type Limits Name input -- will not be validated.\n   ** Warning ** ProcessScheduleInput: Schedule:Year=\"SCHEDULE RULESET 16\", Blank Schedule Type Limits Name input -- will not be validated.\n   ** Warning ** ProcessScheduleInput: Schedule:Year=\"SCHEDULE RULESET 17\", Blank Schedule Type Limits Name input -- will not be validated.\n   ** Warning ** ProcessScheduleInput: Schedule:Year=\"SCHEDULE RULESET 18\", Blank Schedule Type Limits Name input -- will not be validated.\n   ** Warning ** ProcessScheduleInput: Schedule:Year=\"SCHEDULE RULESET 19\", Blank Schedule Type Limits Name input -- will not be validated.\n   ** Warning ** ProcessScheduleInput: Schedule:Year=\"SCHEDULE RULESET 20\", Blank Schedule Type Limits Name input -- will not be validated.\n   ** Warning ** ProcessScheduleInput: Schedule:Year=\"SCHEDULE RULESET 21\", Blank Schedule Type Limits Name input -- will not be validated.\n   ** Warning ** ProcessScheduleInput: Schedule:Year=\"SCHEDULE RULESET 22\", Blank Schedule Type Limits Name input -- will not be validated.\n   ** Warning ** ProcessScheduleInput: Schedule:Year=\"SCHEDULE RULESET 23\", Blank Schedule Type Limits Name input -- will not be validated.\n   ** Warning ** ProcessScheduleInput: Schedule:Year=\"SCHEDULE RULESET 24\", Blank Schedule Type Limits Name input -- will not be validated.\n   ** Warning ** ProcessScheduleInput: Schedule:Year=\"SCHEDULE RULESET 25\", Blank Schedule Type Limits Name input -- will not be validated.\n   ** Warning ** ProcessScheduleInput: Schedule:Year=\"SCHEDULE RULESET 26\", Blank Schedule Type Limits Name input -- will not be validated.\n   ** Warning ** ProcessScheduleInput: Schedule:Year=\"SCHEDULE RULESET 27\", Blank Schedule Type Limits Name input -- will not be validated.\n   ** Warning ** ProcessScheduleInput: Schedule:Year=\"SCHEDULE RULESET 28\", Blank Schedule Type Limits Name input -- will not be validated.\n   ** Warning ** ProcessScheduleInput: Schedule:Year=\"SCHEDULE RULESET 29\", Blank Schedule Type Limits Name input -- will not be validated.\n   ** Warning ** ProcessScheduleInput: Schedule:Year=\"SCHEDULE RULESET 3\", Blank Schedule Type Limits Name input -- will not be validated.\n   ** Warning ** ProcessScheduleInput: Schedule:Year=\"SCHEDULE RULESET 30\", Blank Schedule Type Limits Name input -- will not be validated.\n   ** Warning ** ProcessScheduleInput: Schedule:Year=\"SCHEDULE RULESET 31\", Blank Schedule Type Limits Name input -- will not be validated.\n   ** Warning ** ProcessScheduleInput: Schedule:Year=\"SCHEDULE RULESET 32\", Blank Schedule Type Limits Name input -- will not be validated.\n   ** Warning ** ProcessScheduleInput: Schedule:Year=\"SCHEDULE RULESET 33\", Blank Schedule Type Limits Name input -- will not be validated.\n   ** Warning ** ProcessScheduleInput: Schedule:Year=\"SCHEDULE RULESET 34\", Blank Schedule Type Limits Name input -- will not be validated.\n   ** Warning ** ProcessScheduleInput: Schedule:Year=\"SCHEDULE RULESET 35\", Blank Schedule Type Limits Name input -- will not be validated.\n   ** Warning ** ProcessScheduleInput: Schedule:Year=\"SCHEDULE RULESET 36\", Blank Schedule Type Limits Name input -- will not be validated.\n   ** Warning ** ProcessScheduleInput: Schedule:Year=\"SCHEDULE RULESET 37\", Blank Schedule Type Limits Name input -- will not be validated.\n   ** Warning ** ProcessScheduleInput: Schedule:Year=\"SCHEDULE RULESET 38\", Blank Schedule Type Limits Name input -- will not be validated.\n   ** Warning ** ProcessScheduleInput: Schedule:Year=\"SCHEDULE RULESET 39\", Blank Schedule Type Limits Name input -- will not be validated.\n   ** Warning ** ProcessScheduleInput: Schedule:Year=\"SCHEDULE RULESET 4\", Blank Schedule Type Limits Name input -- will not be validated.\n   ** Warning ** ProcessScheduleInput: Schedule:Year=\"SCHEDULE RULESET 40\", Blank Schedule Type Limits Name input -- will not be validated.\n   ** Warning ** ProcessScheduleInput: Schedule:Year=\"SCHEDULE RULESET 41\", Blank Schedule Type Limits Name input -- will not be validated.\n   ** Warning ** ProcessScheduleInput: Schedule:Year=\"SCHEDULE RULESET 42\", Blank Schedule Type Limits Name input -- will not be validated.\n   ** Warning ** ProcessScheduleInput: Schedule:Year=\"SCHEDULE RULESET 43\", Blank Schedule Type Limits Name input -- will not be validated.\n   ** Warning ** ProcessScheduleInput: Schedule:Year=\"SCHEDULE RULESET 44\", Blank Schedule Type Limits Name input -- will not be validated.\n   ** Warning ** ProcessScheduleInput: Schedule:Year=\"SCHEDULE RULESET 45\", Blank Schedule Type Limits Name input -- will not be validated.\n   ** Warning ** ProcessScheduleInput: Schedule:Year=\"SCHEDULE RULESET 46\", Blank Schedule Type Limits Name input -- will not be validated.\n   ** Warning ** ProcessScheduleInput: Schedule:Year=\"SCHEDULE RULESET 47\", Blank Schedule Type Limits Name input -- will not be validated.\n   ** Warning ** ProcessScheduleInput: Schedule:Year=\"SCHEDULE RULESET 48\", Blank Schedule Type Limits Name input -- will not be validated.\n   ** Warning ** ProcessScheduleInput: Schedule:Year=\"SCHEDULE RULESET 49\", Blank Schedule Type Limits Name input -- will not be validated.\n   ** Warning ** ProcessScheduleInput: Schedule:Year=\"SCHEDULE RULESET 5\", Blank Schedule Type Limits Name input -- will not be validated.\n   ** Warning ** ProcessScheduleInput: Schedule:Year=\"SCHEDULE RULESET 50\", Blank Schedule Type Limits Name input -- will not be validated.\n   ** Warning ** ProcessScheduleInput: Schedule:Year=\"SCHEDULE RULESET 51\", Blank Schedule Type Limits Name input -- will not be validated.\n   ** Warning ** ProcessScheduleInput: Schedule:Year=\"SCHEDULE RULESET 52\", Blank Schedule Type Limits Name input -- will not be validated.\n   ** Warning ** ProcessScheduleInput: Schedule:Year=\"SCHEDULE RULESET 53\", Blank Schedule Type Limits Name input -- will not be validated.\n   ** Warning ** ProcessScheduleInput: Schedule:Year=\"SCHEDULE RULESET 54\", Blank Schedule Type Limits Name input -- will not be validated.\n   ** Warning ** ProcessScheduleInput: Schedule:Year=\"SCHEDULE RULESET 55\", Blank Schedule Type Limits Name input -- will not be validated.\n   ** Warning ** ProcessScheduleInput: Schedule:Year=\"SCHEDULE RULESET 56\", Blank Schedule Type Limits Name input -- will not be validated.\n   ** Warning ** ProcessScheduleInput: Schedule:Year=\"SCHEDULE RULESET 57\", Blank Schedule Type Limits Name input -- will not be validated.\n   ** Warning ** ProcessScheduleInput: Schedule:Year=\"SCHEDULE RULESET 58\", Blank Schedule Type Limits Name input -- will not be validated.\n   ** Warning ** ProcessScheduleInput: Schedule:Year=\"SCHEDULE RULESET 59\", Blank Schedule Type Limits Name input -- will not be validated.\n   ** Warning ** ProcessScheduleInput: Schedule:Year=\"SCHEDULE RULESET 6\", Blank Schedule Type Limits Name input -- will not be validated.\n   ** Warning ** ProcessScheduleInput: Schedule:Year=\"SCHEDULE RULESET 60\", Blank Schedule Type Limits Name input -- will not be validated.\n   ** Warning ** ProcessScheduleInput: Schedule:Year=\"SCHEDULE RULESET 61\", Blank Schedule Type Limits Name input -- will not be validated.\n   ** Warning ** ProcessScheduleInput: Schedule:Year=\"SCHEDULE RULESET 62\", Blank Schedule Type Limits Name input -- will not be validated.\n   ** Warning ** ProcessScheduleInput: Schedule:Year=\"SCHEDULE RULESET 63\", Blank Schedule Type Limits Name input -- will not be validated.\n   ** Warning ** ProcessScheduleInput: Schedule:Year=\"SCHEDULE RULESET 64\", Blank Schedule Type Limits Name input -- will not be validated.\n   ** Warning ** ProcessScheduleInput: Schedule:Year=\"SCHEDULE RULESET 65\", Blank Schedule Type Limits Name input -- will not be validated.\n   ** Warning ** ProcessScheduleInput: Schedule:Year=\"SCHEDULE RULESET 66\", Blank Schedule Type Limits Name input -- will not be validated.\n   ** Warning ** ProcessScheduleInput: Schedule:Year=\"SCHEDULE RULESET 67\", Blank Schedule Type Limits Name input -- will not be validated.\n   ** Warning ** ProcessScheduleInput: Schedule:Year=\"SCHEDULE RULESET 68\", Blank Schedule Type Limits Name input -- will not be validated.\n   ** Warning ** ProcessScheduleInput: Schedule:Year=\"SCHEDULE RULESET 69\", Blank Schedule Type Limits Name input -- will not be validated.\n   ** Warning ** ProcessScheduleInput: Schedule:Year=\"SCHEDULE RULESET 7\", Blank Schedule Type Limits Name input -- will not be validated.\n   ** Warning ** ProcessScheduleInput: Schedule:Year=\"SCHEDULE RULESET 70\", Blank Schedule Type Limits Name input -- will not be validated.\n   ** Warning ** ProcessScheduleInput: Schedule:Year=\"SCHEDULE RULESET 71\", Blank Schedule Type Limits Name input -- will not be validated.\n   ** Warning ** ProcessScheduleInput: Schedule:Year=\"SCHEDULE RULESET 72\", Blank Schedule Type Limits Name input -- will not be validated.\n   ** Warning ** ProcessScheduleInput: Schedule:Year=\"SCHEDULE RULESET 73\", Blank Schedule Type Limits Name input -- will not be validated.\n   ** Warning ** ProcessScheduleInput: Schedule:Year=\"SCHEDULE RULESET 74\", Blank Schedule Type Limits Name input -- will not be validated.\n   ** Warning ** ProcessScheduleInput: Schedule:Year=\"SCHEDULE RULESET 75\", Blank Schedule Type Limits Name input -- will not be validated.\n   ** Warning ** ProcessScheduleInput: Schedule:Year=\"SCHEDULE RULESET 76\", Blank Schedule Type Limits Name input -- will not be validated.\n   ** Warning ** ProcessScheduleInput: Schedule:Year=\"SCHEDULE RULESET 77\", Blank Schedule Type Limits Name input -- will not be validated.\n   ** Warning ** ProcessScheduleInput: Schedule:Year=\"SCHEDULE RULESET 78\", Blank Schedule Type Limits Name input -- will not be validated.\n   ** Warning ** ProcessScheduleInput: Schedule:Year=\"SCHEDULE RULESET 79\", Blank Schedule Type Limits Name input -- will not be validated.\n   ** Warning ** ProcessScheduleInput: Schedule:Year=\"SCHEDULE RULESET 8\", Blank Schedule Type Limits Name input -- will not be validated.\n   ** Warning ** ProcessScheduleInput: Schedule:Year=\"SCHEDULE RULESET 80\", Blank Schedule Type Limits Name input -- will not be validated.\n   ** Warning ** ProcessScheduleInput: Schedule:Year=\"SCHEDULE RULESET 81\", Blank Schedule Type Limits Name input -- will not be validated.\n   ** Warning ** ProcessScheduleInput: Schedule:Year=\"SCHEDULE RULESET 82\", Blank Schedule Type Limits Name input -- will not be validated.\n   ** Warning ** ProcessScheduleInput: Schedule:Year=\"SCHEDULE RULESET 83\", Blank Schedule Type Limits Name input -- will not be validated.\n   ** Warning ** ProcessScheduleInput: Schedule:Year=\"SCHEDULE RULESET 84\", Blank Schedule Type Limits Name input -- will not be validated.\n   ** Warning ** ProcessScheduleInput: Schedule:Year=\"SCHEDULE RULESET 85\", Blank Schedule Type Limits Name input -- will not be validated.\n   ** Warning ** ProcessScheduleInput: Schedule:Year=\"SCHEDULE RULESET 86\", Blank Schedule Type Limits Name input -- will not be validated.\n   ** Warning ** ProcessScheduleInput: Schedule:Year=\"SCHEDULE RULESET 87\", Blank Schedule Type Limits Name input -- will not be validated.\n   ** Warning ** ProcessScheduleInput: Schedule:Year=\"SCHEDULE RULESET 88\", Blank Schedule Type Limits Name input -- will not be validated.\n   ** Warning ** ProcessScheduleInput: Schedule:Year=\"SCHEDULE RULESET 89\", Blank Schedule Type Limits Name input -- will not be validated.\n   ** Warning ** ProcessScheduleInput: Schedule:Year=\"SCHEDULE RULESET 9\", Blank Schedule Type Limits Name input -- will not be validated.\n   ** Warning ** ProcessScheduleInput: Schedule:Year=\"SCHEDULE RULESET 90\", Blank Schedule Type Limits Name input -- will not be validated.\n   ** Warning ** ProcessScheduleInput: Schedule:Year=\"SCHEDULE RULESET 91\", Blank Schedule Type Limits Name input -- will not be validated.\n   ** Warning ** ProcessScheduleInput: Schedule:Year=\"SCHEDULE RULESET 92\", Blank Schedule Type Limits Name input -- will not be validated.\n   ** Warning ** ProcessScheduleInput: Schedule:Year=\"SCHEDULE RULESET 93\", Blank Schedule Type Limits Name input -- will not be validated.\n   ** Warning ** ProcessScheduleInput: Schedule:Year=\"SCHEDULE RULESET 94\", Blank Schedule Type Limits Name input -- will not be validated.\n   ** Warning ** ProcessScheduleInput: Schedule:Year=\"SCHEDULE RULESET 95\", Blank Schedule Type Limits Name input -- will not be validated.\n   ** Warning ** ProcessScheduleInput: Schedule:Year=\"SCHEDULE RULESET 96\", Blank Schedule Type Limits Name input -- will not be validated.\n   ** Warning ** ProcessScheduleInput: Schedule:Year=\"SCHEDULE RULESET 97\", Blank Schedule Type Limits Name input -- will not be validated.\n   ** Warning ** ProcessScheduleInput: Schedule:Year=\"SCHEDULE RULESET 98\", Blank Schedule Type Limits Name input -- will not be validated.\n   ** Warning ** ProcessScheduleInput: Schedule:Year=\"SCHEDULE RULESET 99\", Blank Schedule Type Limits Name input -- will not be validated.\n   ** Warning ** ProcessScheduleInput: Schedule:Constant=\"ALWAYS OFF DISCRETE\", Blank Schedule Type Limits Name input -- will not be validated.\n   ** Warning ** ProcessScheduleInput: Schedule:Constant=\"ALWAYS ON CONTINUOUS\", Blank Schedule Type Limits Name input -- will not be validated.\n   ** Warning ** CheckUsedConstructions: There are 24 nominally unused constructions in input.\n   **   ~~~   ** For explicit details on each unused construction, use Output:Diagnostics,DisplayExtraWarnings;\n   ** Warning ** GetInternalHeatGains: People Combination of ZoneList and Object Name generate a name too long.\n   **   ~~~   ** Object Name=\"SPACE FUNCTION ELECTRICAL/MECHANICAL-SCH-F PEOPLE\".\n   **   ~~~   ** ZoneList/Zone Name=\"SP-MECHANICALROOMFLR1 SYS-1 FLR-2 SCH-F HPLCMT-SOUTH ZN\".\n   **   ~~~   ** Item length=[104] > Maximum Length=[100]. You may need to shorten the names.\n   **   ~~~   ** Shortening the Object Name by [5] characters will assure uniqueness for this ZoneList.\n   **   ~~~   ** name that will be used (may be needed in reporting)=\"SP-MECHANICALROOMFLR1 SYS-1 FLR-2 SCH-F HPLCMT-SOUTH ZN SPACE FUNCTION ELECTRICAL/MECHANICAL-SCH-F PEOPLE\".\n   ** Warning ** GetInternalHeatGains: People Combination of ZoneList and Object Name generate a name too long.\n   **   ~~~   ** Object Name=\"SPACE FUNCTION ELECTRICAL/MECHANICAL-SCH-F PEOPLE\".\n   **   ~~~   ** ZoneList/Zone Name=\"SP-MEETINGROOMFLR1 SYS-3 FLR-2 SCH-F HPLCMT-SOUTH ZN\".\n   **   ~~~   ** Item length=[101] > Maximum Length=[100]. You may need to shorten the names.\n   **   ~~~   ** Shortening the Object Name by [5] characters will assure uniqueness for this ZoneList.\n   **   ~~~   ** name that will be used (may be needed in reporting)=\"SP-MEETINGROOMFLR1 SYS-3 FLR-2 SCH-F HPLCMT-SOUTH ZN SPACE FUNCTION ELECTRICAL/MECHANICAL-SCH-F PEOPLE\".\n   ** Warning ** GetInternalHeatGains: Lights Combination of ZoneList and Object Name generate a name too long.\n   **   ~~~   ** Object Name=\"SPACE FUNCTION ELECTRICAL/MECHANICAL-SCH-F LIGHTS\".\n   **   ~~~   ** ZoneList/Zone Name=\"SP-MECHANICALROOMFLR1 SYS-1 FLR-2 SCH-F HPLCMT-SOUTH ZN\".\n   **   ~~~   ** Item length=[104] > Maximum Length=[100]. You may need to shorten the names.\n   **   ~~~   ** Shortening the Object Name by [5] characters will assure uniqueness for this ZoneList.\n   **   ~~~   ** name that will be used (may be needed in reporting)=\"SP-MECHANICALROOMFLR1 SYS-1 FLR-2 SCH-F HPLCMT-SOUTH ZN SPACE FUNCTION ELECTRICAL/MECHANICAL-SCH-F LIGHTS\".\n   ** Warning ** GetInternalHeatGains: Lights Combination of ZoneList and Object Name generate a name too long.\n   **   ~~~   ** Object Name=\"SPACE FUNCTION ELECTRICAL/MECHANICAL-SCH-F LIGHTS\".\n   **   ~~~   ** ZoneList/Zone Name=\"SP-MEETINGROOMFLR1 SYS-3 FLR-2 SCH-F HPLCMT-SOUTH ZN\".\n   **   ~~~   ** Item length=[101] > Maximum Length=[100]. You may need to shorten the names.\n   **   ~~~   ** Shortening the Object Name by [5] characters will assure uniqueness for this ZoneList.\n   **   ~~~   ** name that will be used (may be needed in reporting)=\"SP-MEETINGROOMFLR1 SYS-3 FLR-2 SCH-F HPLCMT-SOUTH ZN SPACE FUNCTION ELECTRICAL/MECHANICAL-SCH-F LIGHTS\".\n   ** Warning ** GetInternalHeatGains: ElectricEquipment Combination of ZoneList and Object Name generate a name too long.\n   **   ~~~   ** Object Name=\"SPACE FUNCTION ELECTRICAL/MECHANICAL-SCH-F ELEC EQUIP\".\n   **   ~~~   ** ZoneList/Zone Name=\"SP-MECHANICALROOMFLR1 SYS-1 FLR-2 SCH-F HPLCMT-SOUTH ZN\".\n   **   ~~~   ** Item length=[108] > Maximum Length=[100]. You may need to shorten the names.\n   **   ~~~   ** Shortening the Object Name by [9] characters will assure uniqueness for this ZoneList.\n   **   ~~~   ** name that will be used (may be needed in reporting)=\"SP-MECHANICALROOMFLR1 SYS-1 FLR-2 SCH-F HPLCMT-SOUTH ZN SPACE FUNCTION ELECTRICAL/MECHANICAL-SCH-F ELEC EQUIP\".\n   ** Warning ** GetInternalHeatGains: ElectricEquipment Combination of ZoneList and Object Name generate a name too long.\n   **   ~~~   ** Object Name=\"SPACE FUNCTION ELECTRICAL/MECHANICAL-SCH-F ELEC EQUIP\".\n   **   ~~~   ** ZoneList/Zone Name=\"SP-MEETINGROOMFLR1 SYS-3 FLR-2 SCH-F HPLCMT-SOUTH ZN\".\n   **   ~~~   ** Item length=[105] > Maximum Length=[100]. You may need to shorten the names.\n   **   ~~~   ** Shortening the Object Name by [9] characters will assure uniqueness for this ZoneList.\n   **   ~~~   ** name that will be used (may be needed in reporting)=\"SP-MEETINGROOMFLR1 SYS-3 FLR-2 SCH-F HPLCMT-SOUTH ZN SPACE FUNCTION ELECTRICAL/MECHANICAL-SCH-F ELEC EQUIP\".\n   ** Warning ** GetInternalHeatGains: ElectricEquipment Combination of ZoneList and Object Name generate a name too long.\n   **   ~~~   ** Object Name=\"SPACE FUNCTION STORAGE AREA - OCCSENS ELEC EQUIP\".\n   **   ~~~   ** ZoneList/Zone Name=\"SP-FRONTSTORAGEFLR1 SYS-4 FLR-2 SCH-E HPLCMT-NORTH ZN\".\n   **   ~~~   ** Item length=[101] > Maximum Length=[100]. You may need to shorten the names.\n   **   ~~~   ** Shortening the Object Name by [2] characters will assure uniqueness for this ZoneList.\n   **   ~~~   ** name that will be used (may be needed in reporting)=\"SP-FRONTSTORAGEFLR1 SYS-4 FLR-2 SCH-E HPLCMT-NORTH ZN SPACE FUNCTION STORAGE AREA - OCCSENS ELEC EQUIP\".\n   ** Warning ** GetInternalHeatGains: ElectricEquipment Combination of ZoneList and Object Name generate a name too long.\n   **   ~~~   ** Object Name=\"SPACE FUNCTION STORAGE AREA - OCCSENS ELEC EQUIP\".\n   **   ~~~   ** ZoneList/Zone Name=\"SP-FRONTSTORAGEFLR2 SYS-4 FLR-1 SCH-E HPLCMT-NORTH ZN\".\n   **   ~~~   ** Item length=[101] > Maximum Length=[100]. You may need to shorten the names.\n   **   ~~~   ** Shortening the Object Name by [2] characters will assure uniqueness for this ZoneList.\n   **   ~~~   ** name that will be used (may be needed in reporting)=\"SP-FRONTSTORAGEFLR2 SYS-4 FLR-1 SCH-E HPLCMT-NORTH ZN SPACE FUNCTION STORAGE AREA - OCCSENS ELEC EQUIP\".\n   ** Warning ** GetInternalHeatGains: ElectricEquipment Combination of ZoneList and Object Name generate a name too long.\n   **   ~~~   ** Object Name=\"SPACE FUNCTION STORAGE AREA - OCCSENS ELEC EQUIP\".\n   **   ~~~   ** ZoneList/Zone Name=\"SP-FRONTSTORAGEFLR3 SYS-4 FLR-4 SCH-E HPLCMT-NORTH ZN\".\n   **   ~~~   ** Item length=[101] > Maximum Length=[100]. You may need to shorten the names.\n   **   ~~~   ** Shortening the Object Name by [2] characters will assure uniqueness for this ZoneList.\n   **   ~~~   ** name that will be used (may be needed in reporting)=\"SP-FRONTSTORAGEFLR3 SYS-4 FLR-4 SCH-E HPLCMT-NORTH ZN SPACE FUNCTION STORAGE AREA - OCCSENS ELEC EQUIP\".\n   ** Warning ** GetInternalHeatGains: ElectricEquipment Combination of ZoneList and Object Name generate a name too long.\n   **   ~~~   ** Object Name=\"SPACE FUNCTION STORAGE AREA - OCCSENS ELEC EQUIP\".\n   **   ~~~   ** ZoneList/Zone Name=\"SP-FRONTSTORAGEFLR4 SYS-4 FLR-3 SCH-E HPLCMT-NORTH ZN\".\n   **   ~~~   ** Item length=[101] > Maximum Length=[100]. You may need to shorten the names.\n   **   ~~~   ** Shortening the Object Name by [2] characters will assure uniqueness for this ZoneList.\n   **   ~~~   ** name that will be used (may be needed in reporting)=\"SP-FRONTSTORAGEFLR4 SYS-4 FLR-3 SCH-E HPLCMT-NORTH ZN SPACE FUNCTION STORAGE AREA - OCCSENS ELEC EQUIP\".\n   ** Warning ** Calculated design heating load for zone=SP-FRONTLOUNGEFLR1 SYS-3 FLR-2 SCH-H HPLCMT-SOUTH ZN is zero.\n   **   ~~~   ** Check Sizing:Zone and ZoneControl:Thermostat inputs.\n   ************* Beginning System Sizing Calculations\n   ** Warning ** GetDXCoils: Coil:Cooling:DX:SingleSpeed=\"COIL COOLING DX SINGLE SPEED 7 6KBTU/HR 11.0EER\", invalid\n   **   ~~~   ** ...Part Load Fraction Correlation Curve Name = DXCOOL-NECB2011-REF-COOLPLFFPLR 63 has out of range value.\n   **   ~~~   ** ...Curve maximum must be <= 1.0, curve max at PLR = 0.99 is 1.015\n   **   ~~~   ** ...Setting curve maximum to 1.0 and simulation continues.\n   ** Warning ** GetDXCoils: Coil:Cooling:DX:SingleSpeed=\"COIL COOLING DX SINGLE SPEED 38 6KBTU/HR 11.0EER\", invalid\n   **   ~~~   ** ...Part Load Fraction Correlation Curve Name = DXCOOL-NECB2011-REF-COOLPLFFPLR 31 has out of range value.\n   **   ~~~   ** ...Curve maximum must be <= 1.0, curve max at PLR = 0.99 is 1.015\n   **   ~~~   ** ...Setting curve maximum to 1.0 and simulation continues.\n   ** Warning ** GetDXCoils: Coil:Cooling:DX:SingleSpeed=\"COIL COOLING DX SINGLE SPEED 26 11KBTU/HR 10.1EER\", invalid\n   **   ~~~   ** ...Part Load Fraction Correlation Curve Name = DXCOOL-NECB2011-REF-COOLPLFFPLR 18 has out of range value.\n   **   ~~~   ** ...Curve maximum must be <= 1.0, curve max at PLR = 0.99 is 1.015\n   **   ~~~   ** ...Setting curve maximum to 1.0 and simulation continues.\n   ** Warning ** GetDXCoils: Coil:Cooling:DX:SingleSpeed=\"COIL COOLING DX SINGLE SPEED 17 1KBTU/HR 11.0EER\", invalid\n   **   ~~~   ** ...Part Load Fraction Correlation Curve Name = DXCOOL-NECB2011-REF-COOLPLFFPLR 8 has out of range value.\n   **   ~~~   ** ...Curve maximum must be <= 1.0, curve max at PLR = 0.99 is 1.015\n   **   ~~~   ** ...Setting curve maximum to 1.0 and simulation continues.\n   ** Warning ** GetDXCoils: Coil:Cooling:DX:SingleSpeed=\"COIL COOLING DX SINGLE SPEED 18 1KBTU/HR 11.0EER\", invalid\n   **   ~~~   ** ...Part Load Fraction Correlation Curve Name = DXCOOL-NECB2011-REF-COOLPLFFPLR 9 has out of range value.\n   **   ~~~   ** ...Curve maximum must be <= 1.0, curve max at PLR = 0.99 is 1.015\n   **   ~~~   ** ...Setting curve maximum to 1.0 and simulation continues.\n   ** Warning ** GetDXCoils: Coil:Cooling:DX:SingleSpeed=\"COIL COOLING DX SINGLE SPEED 19 2KBTU/HR 11.0EER\", invalid\n   **   ~~~   ** ...Part Load Fraction Correlation Curve Name = DXCOOL-NECB2011-REF-COOLPLFFPLR 10 has out of range value.\n   **   ~~~   ** ...Curve maximum must be <= 1.0, curve max at PLR = 0.99 is 1.015\n   **   ~~~   ** ...Setting curve maximum to 1.0 and simulation continues.\n   ** Warning ** GetDXCoils: Coil:Cooling:DX:SingleSpeed=\"COIL COOLING DX SINGLE SPEED 14 2KBTU/HR 11.0EER\", invalid\n   **   ~~~   ** ...Part Load Fraction Correlation Curve Name = DXCOOL-NECB2011-REF-COOLPLFFPLR 5 has out of range value.\n   **   ~~~   ** ...Curve maximum must be <= 1.0, curve max at PLR = 0.99 is 1.015\n   **   ~~~   ** ...Setting curve maximum to 1.0 and simulation continues.\n   ** Warning ** GetDXCoils: Coil:Cooling:DX:SingleSpeed=\"COIL COOLING DX SINGLE SPEED 15 2KBTU/HR 11.0EER\", invalid\n   **   ~~~   ** ...Part Load Fraction Correlation Curve Name = DXCOOL-NECB2011-REF-COOLPLFFPLR 6 has out of range value.\n   **   ~~~   ** ...Curve maximum must be <= 1.0, curve max at PLR = 0.99 is 1.015\n   **   ~~~   ** ...Setting curve maximum to 1.0 and simulation continues.\n   ** Warning ** GetDXCoils: Coil:Cooling:DX:SingleSpeed=\"COIL COOLING DX SINGLE SPEED 9 2KBTU/HR 11.0EER\", invalid\n   **   ~~~   ** ...Part Load Fraction Correlation Curve Name = DXCOOL-NECB2011-REF-COOLPLFFPLR 65 has out of range value.\n   **   ~~~   ** ...Curve maximum must be <= 1.0, curve max at PLR = 0.99 is 1.015\n   **   ~~~   ** ...Setting curve maximum to 1.0 and simulation continues.\n   ** Warning ** GetDXCoils: Coil:Cooling:DX:SingleSpeed=\"COIL COOLING DX SINGLE SPEED 11 7KBTU/HR 11.0EER\", invalid\n   **   ~~~   ** ...Part Load Fraction Correlation Curve Name = DXCOOL-NECB2011-REF-COOLPLFFPLR 2 has out of range value.\n   **   ~~~   ** ...Curve maximum must be <= 1.0, curve max at PLR = 0.99 is 1.015\n   **   ~~~   ** ...Setting curve maximum to 1.0 and simulation continues.\n   ** Warning ** GetDXCoils: Coil:Cooling:DX:SingleSpeed=\"COIL COOLING DX SINGLE SPEED 13 5KBTU/HR 11.0EER\", invalid\n   **   ~~~   ** ...Part Load Fraction Correlation Curve Name = DXCOOL-NECB2011-REF-COOLPLFFPLR 4 has out of range value.\n   **   ~~~   ** ...Curve maximum must be <= 1.0, curve max at PLR = 0.99 is 1.015\n   **   ~~~   ** ...Setting curve maximum to 1.0 and simulation continues.\n   ** Warning ** GetDXCoils: Coil:Cooling:DX:SingleSpeed=\"COIL COOLING DX SINGLE SPEED 12 6KBTU/HR 11.0EER\", invalid\n   **   ~~~   ** ...Part Load Fraction Correlation Curve Name = DXCOOL-NECB2011-REF-COOLPLFFPLR 3 has out of range value.\n   **   ~~~   ** ...Curve maximum must be <= 1.0, curve max at PLR = 0.99 is 1.015\n   **   ~~~   ** ...Setting curve maximum to 1.0 and simulation continues.\n   ** Warning ** GetDXCoils: Coil:Cooling:DX:SingleSpeed=\"COIL COOLING DX SINGLE SPEED 10 2KBTU/HR 11.0EER\", invalid\n   **   ~~~   ** ...Part Load Fraction Correlation Curve Name = DXCOOL-NECB2011-REF-COOLPLFFPLR 1 has out of range value.\n   **   ~~~   ** ...Curve maximum must be <= 1.0, curve max at PLR = 0.99 is 1.015\n   **   ~~~   ** ...Setting curve maximum to 1.0 and simulation continues.\n   ** Warning ** GetDXCoils: Coil:Cooling:DX:SingleSpeed=\"COIL COOLING DX SINGLE SPEED 5 2KBTU/HR 11.0EER\", invalid\n   **   ~~~   ** ...Part Load Fraction Correlation Curve Name = DXCOOL-NECB2011-REF-COOLPLFFPLR 44 has out of range value.\n   **   ~~~   ** ...Curve maximum must be <= 1.0, curve max at PLR = 0.99 is 1.015\n   **   ~~~   ** ...Setting curve maximum to 1.0 and simulation continues.\n   ** Warning ** GetDXCoils: Coil:Cooling:DX:SingleSpeed=\"COIL COOLING DX SINGLE SPEED 6 7KBTU/HR 11.0EER\", invalid\n   **   ~~~   ** ...Part Load Fraction Correlation Curve Name = DXCOOL-NECB2011-REF-COOLPLFFPLR 55 has out of range value.\n   **   ~~~   ** ...Curve maximum must be <= 1.0, curve max at PLR = 0.99 is 1.015\n   **   ~~~   ** ...Setting curve maximum to 1.0 and simulation continues.\n   ** Warning ** GetDXCoils: Coil:Cooling:DX:SingleSpeed=\"COIL COOLING DX SINGLE SPEED 3 2KBTU/HR 11.0EER\", invalid\n   **   ~~~   ** ...Part Load Fraction Correlation Curve Name = DXCOOL-NECB2011-REF-COOLPLFFPLR 22 has out of range value.\n   **   ~~~   ** ...Curve maximum must be <= 1.0, curve max at PLR = 0.99 is 1.015\n   **   ~~~   ** ...Setting curve maximum to 1.0 and simulation continues.\n   ** Warning ** GetDXCoils: Coil:Cooling:DX:SingleSpeed=\"COIL COOLING DX SINGLE SPEED 2 7KBTU/HR 10.9EER\", invalid\n   **   ~~~   ** ...Part Load Fraction Correlation Curve Name = DXCOOL-NECB2011-REF-COOLPLFFPLR 11 has out of range value.\n   **   ~~~   ** ...Curve maximum must be <= 1.0, curve max at PLR = 0.99 is 1.015\n   **   ~~~   ** ...Setting curve maximum to 1.0 and simulation continues.\n   ** Warning ** GetDXCoils: Coil:Cooling:DX:SingleSpeed=\"COIL COOLING DX SINGLE SPEED 4 2KBTU/HR 11.0EER\", invalid\n   **   ~~~   ** ...Part Load Fraction Correlation Curve Name = DXCOOL-NECB2011-REF-COOLPLFFPLR 33 has out of range value.\n   **   ~~~   ** ...Curve maximum must be <= 1.0, curve max at PLR = 0.99 is 1.015\n   **   ~~~   ** ...Setting curve maximum to 1.0 and simulation continues.\n   ** Warning ** GetDXCoils: Coil:Cooling:DX:SingleSpeed=\"COIL COOLING DX SINGLE SPEED 40 2KBTU/HR 11.0EER\", invalid\n   **   ~~~   ** ...Part Load Fraction Correlation Curve Name = DXCOOL-NECB2011-REF-COOLPLFFPLR 34 has out of range value.\n   **   ~~~   ** ...Curve maximum must be <= 1.0, curve max at PLR = 0.99 is 1.015\n   **   ~~~   ** ...Setting curve maximum to 1.0 and simulation continues.\n   ** Warning ** GetDXCoils: Coil:Cooling:DX:SingleSpeed=\"COIL COOLING DX SINGLE SPEED 41 7KBTU/HR 11.0EER\", invalid\n   **   ~~~   ** ...Part Load Fraction Correlation Curve Name = DXCOOL-NECB2011-REF-COOLPLFFPLR 35 has out of range value.\n   **   ~~~   ** ...Curve maximum must be <= 1.0, curve max at PLR = 0.99 is 1.015\n   **   ~~~   ** ...Setting curve maximum to 1.0 and simulation continues.\n   ** Warning ** GetDXCoils: Coil:Cooling:DX:SingleSpeed=\"COIL COOLING DX SINGLE SPEED 43 5KBTU/HR 11.0EER\", invalid\n   **   ~~~   ** ...Part Load Fraction Correlation Curve Name = DXCOOL-NECB2011-REF-COOLPLFFPLR 37 has out of range value.\n   **   ~~~   ** ...Curve maximum must be <= 1.0, curve max at PLR = 0.99 is 1.015\n   **   ~~~   ** ...Setting curve maximum to 1.0 and simulation continues.\n   ** Warning ** GetDXCoils: Coil:Cooling:DX:SingleSpeed=\"COIL COOLING DX SINGLE SPEED 44 7KBTU/HR 11.0EER\", invalid\n   **   ~~~   ** ...Part Load Fraction Correlation Curve Name = DXCOOL-NECB2011-REF-COOLPLFFPLR 38 has out of range value.\n   **   ~~~   ** ...Curve maximum must be <= 1.0, curve max at PLR = 0.99 is 1.015\n   **   ~~~   ** ...Setting curve maximum to 1.0 and simulation continues.\n   ** Warning ** GetDXCoils: Coil:Cooling:DX:SingleSpeed=\"COIL COOLING DX SINGLE SPEED 42 2KBTU/HR 11.0EER\", invalid\n   **   ~~~   ** ...Part Load Fraction Correlation Curve Name = DXCOOL-NECB2011-REF-COOLPLFFPLR 36 has out of range value.\n   **   ~~~   ** ...Curve maximum must be <= 1.0, curve max at PLR = 0.99 is 1.015\n   **   ~~~   ** ...Setting curve maximum to 1.0 and simulation continues.\n   ** Warning ** GetDXCoils: Coil:Cooling:DX:SingleSpeed=\"COIL COOLING DX SINGLE SPEED 35 2KBTU/HR 11.0EER\", invalid\n   **   ~~~   ** ...Part Load Fraction Correlation Curve Name = DXCOOL-NECB2011-REF-COOLPLFFPLR 28 has out of range value.\n   **   ~~~   ** ...Curve maximum must be <= 1.0, curve max at PLR = 0.99 is 1.015\n   **   ~~~   ** ...Setting curve maximum to 1.0 and simulation continues.\n   ** Warning ** GetDXCoils: Coil:Cooling:DX:SingleSpeed=\"COIL COOLING DX SINGLE SPEED 37 7KBTU/HR 10.9EER\", invalid\n   **   ~~~   ** ...Part Load Fraction Correlation Curve Name = DXCOOL-NECB2011-REF-COOLPLFFPLR 30 has out of range value.\n   **   ~~~   ** ...Curve maximum must be <= 1.0, curve max at PLR = 0.99 is 1.015\n   **   ~~~   ** ...Setting curve maximum to 1.0 and simulation continues.\n   ** Warning ** GetDXCoils: Coil:Cooling:DX:SingleSpeed=\"COIL COOLING DX SINGLE SPEED 36 2KBTU/HR 11.0EER\", invalid\n   **   ~~~   ** ...Part Load Fraction Correlation Curve Name = DXCOOL-NECB2011-REF-COOLPLFFPLR 29 has out of range value.\n   **   ~~~   ** ...Curve maximum must be <= 1.0, curve max at PLR = 0.99 is 1.015\n   **   ~~~   ** ...Setting curve maximum to 1.0 and simulation continues.\n   ** Warning ** GetDXCoils: Coil:Cooling:DX:SingleSpeed=\"COIL COOLING DX SINGLE SPEED 34 7KBTU/HR 10.9EER\", invalid\n   **   ~~~   ** ...Part Load Fraction Correlation Curve Name = DXCOOL-NECB2011-REF-COOLPLFFPLR 27 has out of range value.\n   **   ~~~   ** ...Curve maximum must be <= 1.0, curve max at PLR = 0.99 is 1.015\n   **   ~~~   ** ...Setting curve maximum to 1.0 and simulation continues.\n   ** Warning ** GetDXCoils: Coil:Cooling:DX:SingleSpeed=\"COIL COOLING DX SINGLE SPEED 33 2KBTU/HR 11.0EER\", invalid\n   **   ~~~   ** ...Part Load Fraction Correlation Curve Name = DXCOOL-NECB2011-REF-COOLPLFFPLR 26 has out of range value.\n   **   ~~~   ** ...Curve maximum must be <= 1.0, curve max at PLR = 0.99 is 1.015\n   **   ~~~   ** ...Setting curve maximum to 1.0 and simulation continues.\n   ** Warning ** GetDXCoils: Coil:Cooling:DX:SingleSpeed=\"COIL COOLING DX SINGLE SPEED 28 4KBTU/HR 11.0EER\", invalid\n   **   ~~~   ** ...Part Load Fraction Correlation Curve Name = DXCOOL-NECB2011-REF-COOLPLFFPLR 20 has out of range value.\n   **   ~~~   ** ...Curve maximum must be <= 1.0, curve max at PLR = 0.99 is 1.015\n   **   ~~~   ** ...Setting curve maximum to 1.0 and simulation continues.\n   ** Warning ** GetDXCoils: Coil:Cooling:DX:SingleSpeed=\"COIL COOLING DX SINGLE SPEED 29 10KBTU/HR 10.4EER\", invalid\n   **   ~~~   ** ...Part Load Fraction Correlation Curve Name = DXCOOL-NECB2011-REF-COOLPLFFPLR 21 has out of range value.\n   **   ~~~   ** ...Curve maximum must be <= 1.0, curve max at PLR = 0.99 is 1.015\n   **   ~~~   ** ...Setting curve maximum to 1.0 and simulation continues.\n   ** Warning ** GetDXCoils: Coil:Cooling:DX:SingleSpeed=\"COIL COOLING DX SINGLE SPEED 32 9KBTU/HR 10.7EER\", invalid\n   **   ~~~   ** ...Part Load Fraction Correlation Curve Name = DXCOOL-NECB2011-REF-COOLPLFFPLR 25 has out of range value.\n   **   ~~~   ** ...Curve maximum must be <= 1.0, curve max at PLR = 0.99 is 1.015\n   **   ~~~   ** ...Setting curve maximum to 1.0 and simulation continues.\n   ** Warning ** GetDXCoils: Coil:Cooling:DX:SingleSpeed=\"COIL COOLING DX SINGLE SPEED 31 10KBTU/HR 10.4EER\", invalid\n   **   ~~~   ** ...Part Load Fraction Correlation Curve Name = DXCOOL-NECB2011-REF-COOLPLFFPLR 24 has out of range value.\n   **   ~~~   ** ...Curve maximum must be <= 1.0, curve max at PLR = 0.99 is 1.015\n   **   ~~~   ** ...Setting curve maximum to 1.0 and simulation continues.\n   ** Warning ** GetDXCoils: Coil:Cooling:DX:SingleSpeed=\"COIL COOLING DX SINGLE SPEED 30 3KBTU/HR 11.0EER\", invalid\n   **   ~~~   ** ...Part Load Fraction Correlation Curve Name = DXCOOL-NECB2011-REF-COOLPLFFPLR 23 has out of range value.\n   **   ~~~   ** ...Curve maximum must be <= 1.0, curve max at PLR = 0.99 is 1.015\n   **   ~~~   ** ...Setting curve maximum to 1.0 and simulation continues.\n   ** Warning ** GetDXCoils: Coil:Cooling:DX:SingleSpeed=\"COIL COOLING DX SINGLE SPEED 25 3KBTU/HR 11.0EER\", invalid\n   **   ~~~   ** ...Part Load Fraction Correlation Curve Name = DXCOOL-NECB2011-REF-COOLPLFFPLR 17 has out of range value.\n   **   ~~~   ** ...Curve maximum must be <= 1.0, curve max at PLR = 0.99 is 1.015\n   **   ~~~   ** ...Setting curve maximum to 1.0 and simulation continues.\n   ** Warning ** GetDXCoils: Coil:Cooling:DX:SingleSpeed=\"COIL COOLING DX SINGLE SPEED 23 12KBTU/HR 9.9EER\", invalid\n   **   ~~~   ** ...Part Load Fraction Correlation Curve Name = DXCOOL-NECB2011-REF-COOLPLFFPLR 15 has out of range value.\n   **   ~~~   ** ...Curve maximum must be <= 1.0, curve max at PLR = 0.99 is 1.015\n   **   ~~~   ** ...Setting curve maximum to 1.0 and simulation continues.\n   ** Warning ** GetDXCoils: Coil:Cooling:DX:SingleSpeed=\"COIL COOLING DX SINGLE SPEED 22 3KBTU/HR 11.0EER\", invalid\n   **   ~~~   ** ...Part Load Fraction Correlation Curve Name = DXCOOL-NECB2011-REF-COOLPLFFPLR 14 has out of range value.\n   **   ~~~   ** ...Curve maximum must be <= 1.0, curve max at PLR = 0.99 is 1.015\n   **   ~~~   ** ...Setting curve maximum to 1.0 and simulation continues.\n   ** Warning ** GetDXCoils: Coil:Cooling:DX:SingleSpeed=\"COIL COOLING DX SINGLE SPEED 21 12KBTU/HR 9.9EER\", invalid\n   **   ~~~   ** ...Part Load Fraction Correlation Curve Name = DXCOOL-NECB2011-REF-COOLPLFFPLR 13 has out of range value.\n   **   ~~~   ** ...Curve maximum must be <= 1.0, curve max at PLR = 0.99 is 1.015\n   **   ~~~   ** ...Setting curve maximum to 1.0 and simulation continues.\n   ** Warning ** GetDXCoils: Coil:Cooling:DX:SingleSpeed=\"COIL COOLING DX SINGLE SPEED 24 3KBTU/HR 11.0EER\", invalid\n   **   ~~~   ** ...Part Load Fraction Correlation Curve Name = DXCOOL-NECB2011-REF-COOLPLFFPLR 16 has out of range value.\n   **   ~~~   ** ...Curve maximum must be <= 1.0, curve max at PLR = 0.99 is 1.015\n   **   ~~~   ** ...Setting curve maximum to 1.0 and simulation continues.\n   ** Warning ** GetDXCoils: Coil:Cooling:DX:SingleSpeed=\"COIL COOLING DX SINGLE SPEED 20 2KBTU/HR 11.0EER\", invalid\n   **   ~~~   ** ...Part Load Fraction Correlation Curve Name = DXCOOL-NECB2011-REF-COOLPLFFPLR 12 has out of range value.\n   **   ~~~   ** ...Curve maximum must be <= 1.0, curve max at PLR = 0.99 is 1.015\n   **   ~~~   ** ...Setting curve maximum to 1.0 and simulation continues.\n   ** Warning ** GetDXCoils: Coil:Cooling:DX:SingleSpeed=\"COIL COOLING DX SINGLE SPEED 16 2KBTU/HR 11.0EER\", invalid\n   **   ~~~   ** ...Part Load Fraction Correlation Curve Name = DXCOOL-NECB2011-REF-COOLPLFFPLR 7 has out of range value.\n   **   ~~~   ** ...Curve maximum must be <= 1.0, curve max at PLR = 0.99 is 1.015\n   **   ~~~   ** ...Setting curve maximum to 1.0 and simulation continues.\n   ** Warning ** GetDXCoils: Coil:Cooling:DX:SingleSpeed=\"COIL COOLING DX SINGLE SPEED 8 2KBTU/HR 11.0EER\", invalid\n   **   ~~~   ** ...Part Load Fraction Correlation Curve Name = DXCOOL-NECB2011-REF-COOLPLFFPLR 64 has out of range value.\n   **   ~~~   ** ...Curve maximum must be <= 1.0, curve max at PLR = 0.99 is 1.015\n   **   ~~~   ** ...Setting curve maximum to 1.0 and simulation continues.\n   ** Warning ** GetDXCoils: Coil:Cooling:DX:SingleSpeed=\"COIL COOLING DX SINGLE SPEED 39 2KBTU/HR 11.0EER\", invalid\n   **   ~~~   ** ...Part Load Fraction Correlation Curve Name = DXCOOL-NECB2011-REF-COOLPLFFPLR 32 has out of range value.\n   **   ~~~   ** ...Curve maximum must be <= 1.0, curve max at PLR = 0.99 is 1.015\n   **   ~~~   ** ...Setting curve maximum to 1.0 and simulation continues.\n   ** Warning ** GetDXCoils: Coil:Cooling:DX:SingleSpeed=\"COIL COOLING DX SINGLE SPEED 27 3KBTU/HR 11.0EER\", invalid\n   **   ~~~   ** ...Part Load Fraction Correlation Curve Name = DXCOOL-NECB2011-REF-COOLPLFFPLR 19 has out of range value.\n   **   ~~~   ** ...Curve maximum must be <= 1.0, curve max at PLR = 0.99 is 1.015\n   **   ~~~   ** ...Setting curve maximum to 1.0 and simulation continues.\n   ** Warning ** GetDXCoils: Coil:Cooling:DX:SingleSpeed=\"COIL COOLING DX SINGLE SPEED 1 96KBTU/HR 9.7EER\", invalid\n   **   ~~~   ** ...Part Load Fraction Correlation Curve Name = DXCOOL-NECB2011-REF-COOLPLFFPLR has out of range value.\n   **   ~~~   ** ...Curve maximum must be <= 1.0, curve max at PLR = 0.99 is 1.015\n   **   ~~~   ** ...Setting curve maximum to 1.0 and simulation continues.\n   ** Warning ** GetDXCoils: Coil:Cooling:DX:SingleSpeed=\"COIL COOLING DX SINGLE SPEED 46 8KBTU/HR 14.0SEER\", invalid\n   **   ~~~   ** ...Part Load Fraction Correlation Curve Name = DXCOOL-NECB2011-REF-COOLPLFFPLR 40 has out of range value.\n   **   ~~~   ** ...Curve maximum must be <= 1.0, curve max at PLR = 0.99 is 1.015\n   **   ~~~   ** ...Setting curve maximum to 1.0 and simulation continues.\n   ** Warning ** GetDXCoils: Coil:Cooling:DX:SingleSpeed=\"COIL COOLING DX SINGLE SPEED 50 5KBTU/HR 14.0SEER\", invalid\n   **   ~~~   ** ...Part Load Fraction Correlation Curve Name = DXCOOL-NECB2011-REF-COOLPLFFPLR 45 has out of range value.\n   **   ~~~   ** ...Curve maximum must be <= 1.0, curve max at PLR = 0.99 is 1.015\n   **   ~~~   ** ...Setting curve maximum to 1.0 and simulation continues.\n   ** Warning ** GetDXCoils: Coil:Cooling:DX:SingleSpeed=\"COIL COOLING DX SINGLE SPEED 45 5KBTU/HR 14.0SEER\", invalid\n   **   ~~~   ** ...Part Load Fraction Correlation Curve Name = DXCOOL-NECB2011-REF-COOLPLFFPLR 39 has out of range value.\n   **   ~~~   ** ...Curve maximum must be <= 1.0, curve max at PLR = 0.99 is 1.015\n   **   ~~~   ** ...Setting curve maximum to 1.0 and simulation continues.\n   ** Warning ** GetDXCoils: Coil:Cooling:DX:SingleSpeed=\"COIL COOLING DX SINGLE SPEED 53 5KBTU/HR 14.0SEER\", invalid\n   **   ~~~   ** ...Part Load Fraction Correlation Curve Name = DXCOOL-NECB2011-REF-COOLPLFFPLR 48 has out of range value.\n   **   ~~~   ** ...Curve maximum must be <= 1.0, curve max at PLR = 0.99 is 1.015\n   **   ~~~   ** ...Setting curve maximum to 1.0 and simulation continues.\n   ** Warning ** GetDXCoils: Coil:Cooling:DX:SingleSpeed=\"COIL COOLING DX SINGLE SPEED 52 5KBTU/HR 14.0SEER\", invalid\n   **   ~~~   ** ...Part Load Fraction Correlation Curve Name = DXCOOL-NECB2011-REF-COOLPLFFPLR 47 has out of range value.\n   **   ~~~   ** ...Curve maximum must be <= 1.0, curve max at PLR = 0.99 is 1.015\n   **   ~~~   ** ...Setting curve maximum to 1.0 and simulation continues.\n   ** Warning ** GetDXCoils: Coil:Cooling:DX:SingleSpeed=\"COIL COOLING DX SINGLE SPEED 49 4KBTU/HR 14.0SEER\", invalid\n   **   ~~~   ** ...Part Load Fraction Correlation Curve Name = DXCOOL-NECB2011-REF-COOLPLFFPLR 43 has out of range value.\n   **   ~~~   ** ...Curve maximum must be <= 1.0, curve max at PLR = 0.99 is 1.015\n   **   ~~~   ** ...Setting curve maximum to 1.0 and simulation continues.\n   ** Warning ** GetDXCoils: Coil:Cooling:DX:SingleSpeed=\"COIL COOLING DX SINGLE SPEED 51 21KBTU/HR 14.0SEER\", invalid\n   **   ~~~   ** ...Part Load Fraction Correlation Curve Name = DXCOOL-NECB2011-REF-COOLPLFFPLR 46 has out of range value.\n   **   ~~~   ** ...Curve maximum must be <= 1.0, curve max at PLR = 0.99 is 1.015\n   **   ~~~   ** ...Setting curve maximum to 1.0 and simulation continues.\n   ** Warning ** GetDXCoils: Coil:Cooling:DX:SingleSpeed=\"COIL COOLING DX SINGLE SPEED 57 2KBTU/HR 14.0SEER\", invalid\n   **   ~~~   ** ...Part Load Fraction Correlation Curve Name = DXCOOL-NECB2011-REF-COOLPLFFPLR 52 has out of range value.\n   **   ~~~   ** ...Curve maximum must be <= 1.0, curve max at PLR = 0.99 is 1.015\n   **   ~~~   ** ...Setting curve maximum to 1.0 and simulation continues.\n   ** Warning ** GetDXCoils: Coil:Cooling:DX:SingleSpeed=\"COIL COOLING DX SINGLE SPEED 54 2KBTU/HR 14.0SEER\", invalid\n   **   ~~~   ** ...Part Load Fraction Correlation Curve Name = DXCOOL-NECB2011-REF-COOLPLFFPLR 49 has out of range value.\n   **   ~~~   ** ...Curve maximum must be <= 1.0, curve max at PLR = 0.99 is 1.015\n   **   ~~~   ** ...Setting curve maximum to 1.0 and simulation continues.\n   ** Warning ** GetDXCoils: Coil:Cooling:DX:SingleSpeed=\"COIL COOLING DX SINGLE SPEED 64 2KBTU/HR 14.0SEER\", invalid\n   **   ~~~   ** ...Part Load Fraction Correlation Curve Name = DXCOOL-NECB2011-REF-COOLPLFFPLR 60 has out of range value.\n   **   ~~~   ** ...Curve maximum must be <= 1.0, curve max at PLR = 0.99 is 1.015\n   **   ~~~   ** ...Setting curve maximum to 1.0 and simulation continues.\n   ** Warning ** GetDXCoils: Coil:Cooling:DX:SingleSpeed=\"COIL COOLING DX SINGLE SPEED 61 3KBTU/HR 14.0SEER\", invalid\n   **   ~~~   ** ...Part Load Fraction Correlation Curve Name = DXCOOL-NECB2011-REF-COOLPLFFPLR 57 has out of range value.\n   **   ~~~   ** ...Curve maximum must be <= 1.0, curve max at PLR = 0.99 is 1.015\n   **   ~~~   ** ...Setting curve maximum to 1.0 and simulation continues.\n   ** Warning ** GetDXCoils: Coil:Cooling:DX:SingleSpeed=\"COIL COOLING DX SINGLE SPEED 58 1KBTU/HR 14.0SEER\", invalid\n   **   ~~~   ** ...Part Load Fraction Correlation Curve Name = DXCOOL-NECB2011-REF-COOLPLFFPLR 53 has out of range value.\n   **   ~~~   ** ...Curve maximum must be <= 1.0, curve max at PLR = 0.99 is 1.015\n   **   ~~~   ** ...Setting curve maximum to 1.0 and simulation continues.\n   ** Warning ** GetDXCoils: Coil:Cooling:DX:SingleSpeed=\"COIL COOLING DX SINGLE SPEED 55 1KBTU/HR 14.0SEER\", invalid\n   **   ~~~   ** ...Part Load Fraction Correlation Curve Name = DXCOOL-NECB2011-REF-COOLPLFFPLR 50 has out of range value.\n   **   ~~~   ** ...Curve maximum must be <= 1.0, curve max at PLR = 0.99 is 1.015\n   **   ~~~   ** ...Setting curve maximum to 1.0 and simulation continues.\n   ** Warning ** GetDXCoils: Coil:Cooling:DX:SingleSpeed=\"COIL COOLING DX SINGLE SPEED 65 1KBTU/HR 14.0SEER\", invalid\n   **   ~~~   ** ...Part Load Fraction Correlation Curve Name = DXCOOL-NECB2011-REF-COOLPLFFPLR 61 has out of range value.\n   **   ~~~   ** ...Curve maximum must be <= 1.0, curve max at PLR = 0.99 is 1.015\n   **   ~~~   ** ...Setting curve maximum to 1.0 and simulation continues.\n   ** Warning ** GetDXCoils: Coil:Cooling:DX:SingleSpeed=\"COIL COOLING DX SINGLE SPEED 62 2KBTU/HR 14.0SEER\", invalid\n   **   ~~~   ** ...Part Load Fraction Correlation Curve Name = DXCOOL-NECB2011-REF-COOLPLFFPLR 58 has out of range value.\n   **   ~~~   ** ...Curve maximum must be <= 1.0, curve max at PLR = 0.99 is 1.015\n   **   ~~~   ** ...Setting curve maximum to 1.0 and simulation continues.\n   ** Warning ** GetDXCoils: Coil:Cooling:DX:SingleSpeed=\"COIL COOLING DX SINGLE SPEED 59 6KBTU/HR 14.0SEER\", invalid\n   **   ~~~   ** ...Part Load Fraction Correlation Curve Name = DXCOOL-NECB2011-REF-COOLPLFFPLR 54 has out of range value.\n   **   ~~~   ** ...Curve maximum must be <= 1.0, curve max at PLR = 0.99 is 1.015\n   **   ~~~   ** ...Setting curve maximum to 1.0 and simulation continues.\n   ** Warning ** GetDXCoils: Coil:Cooling:DX:SingleSpeed=\"COIL COOLING DX SINGLE SPEED 48 4KBTU/HR 14.0SEER\", invalid\n   **   ~~~   ** ...Part Load Fraction Correlation Curve Name = DXCOOL-NECB2011-REF-COOLPLFFPLR 42 has out of range value.\n   **   ~~~   ** ...Curve maximum must be <= 1.0, curve max at PLR = 0.99 is 1.015\n   **   ~~~   ** ...Setting curve maximum to 1.0 and simulation continues.\n   ** Warning ** GetDXCoils: Coil:Cooling:DX:SingleSpeed=\"COIL COOLING DX SINGLE SPEED 60 3KBTU/HR 14.0SEER\", invalid\n   **   ~~~   ** ...Part Load Fraction Correlation Curve Name = DXCOOL-NECB2011-REF-COOLPLFFPLR 56 has out of range value.\n   **   ~~~   ** ...Curve maximum must be <= 1.0, curve max at PLR = 0.99 is 1.015\n   **   ~~~   ** ...Setting curve maximum to 1.0 and simulation continues.\n   ** Warning ** GetDXCoils: Coil:Cooling:DX:SingleSpeed=\"COIL COOLING DX SINGLE SPEED 56 2KBTU/HR 14.0SEER\", invalid\n   **   ~~~   ** ...Part Load Fraction Correlation Curve Name = DXCOOL-NECB2011-REF-COOLPLFFPLR 51 has out of range value.\n   **   ~~~   ** ...Curve maximum must be <= 1.0, curve max at PLR = 0.99 is 1.015\n   **   ~~~   ** ...Setting curve maximum to 1.0 and simulation continues.\n   ** Warning ** GetDXCoils: Coil:Cooling:DX:SingleSpeed=\"COIL COOLING DX SINGLE SPEED 66 3KBTU/HR 14.0SEER\", invalid\n   **   ~~~   ** ...Part Load Fraction Correlation Curve Name = DXCOOL-NECB2011-REF-COOLPLFFPLR 62 has out of range value.\n   **   ~~~   ** ...Curve maximum must be <= 1.0, curve max at PLR = 0.99 is 1.015\n   **   ~~~   ** ...Setting curve maximum to 1.0 and simulation continues.\n   ** Warning ** GetDXCoils: Coil:Cooling:DX:SingleSpeed=\"COIL COOLING DX SINGLE SPEED 63 3KBTU/HR 14.0SEER\", invalid\n   **   ~~~   ** ...Part Load Fraction Correlation Curve Name = DXCOOL-NECB2011-REF-COOLPLFFPLR 59 has out of range value.\n   **   ~~~   ** ...Curve maximum must be <= 1.0, curve max at PLR = 0.99 is 1.015\n   **   ~~~   ** ...Setting curve maximum to 1.0 and simulation continues.\n   ** Warning ** GetDXCoils: Coil:Cooling:DX:SingleSpeed=\"COIL COOLING DX SINGLE SPEED 47 2KBTU/HR 14.0SEER\", invalid\n   **   ~~~   ** ...Part Load Fraction Correlation Curve Name = DXCOOL-NECB2011-REF-COOLPLFFPLR 41 has out of range value.\n   **   ~~~   ** ...Curve maximum must be <= 1.0, curve max at PLR = 0.99 is 1.015\n   **   ~~~   ** ...Setting curve maximum to 1.0 and simulation continues.\n   ** Warning ** Since Zone Minimum Air Flow Input Method = CONSTANT, input for Fixed Minimum Air Flow Rate will be ignored.\n   **   ~~~   ** Occurs in AirTerminal:SingleDuct:VAV:Reheat = AIR TERMINAL SINGLE DUCT VAV REHEAT 2\n   ** Warning ** Since Zone Minimum Air Flow Input Method = CONSTANT, input for Fixed Minimum Air Flow Rate will be ignored.\n   **   ~~~   ** Occurs in AirTerminal:SingleDuct:VAV:Reheat = AIR TERMINAL SINGLE DUCT VAV REHEAT 1\n   ************* Beginning Plant Sizing Calculations\n   ** Warning ** The Standard Ratings is calculated for Coil:Cooling:DX:SingleSpeed = COIL COOLING DX SINGLE SPEED 7 6KBTU/HR 11.0EER but not at the AHRI test condition due to curve out of bound.\n   **   ~~~   **  Review the Standard Ratings calculations in the Engineering Reference for this coil type. Also, use Output:Diagnostics, DisplayExtraWarnings for further guidance.\n   ** Warning ** The Standard Ratings is calculated for Coil:Cooling:DX:SingleSpeed = COIL COOLING DX SINGLE SPEED 38 6KBTU/HR 11.0EER but not at the AHRI test condition due to curve out of bound.\n   **   ~~~   **  Review the Standard Ratings calculations in the Engineering Reference for this coil type. Also, use Output:Diagnostics, DisplayExtraWarnings for further guidance.\n   ** Warning ** The Standard Ratings is calculated for Coil:Cooling:DX:SingleSpeed = COIL COOLING DX SINGLE SPEED 26 11KBTU/HR 10.1EER but not at the AHRI test condition due to curve out of bound.\n   **   ~~~   **  Review the Stand
[...]
LkanRlvkhRNCHKVOjPbJC+aEOTqdWawSWo04WZ0NTsz1SQ7mhDkanZmpCmCtN0cyZAmBMVvkeRIE4Liwy9Z0oSg+PBLnjQhKD78milNSbJ1OzPZNFmakmSrd2a4ab40JcnW8Mx805Rpyl1p63hmxGnWNCXJ1vHMlEOchjgNcdo9QsRp9UKchjgNcVpmIU5DnNbpVSFOa+zf4fmI03YX4rTt6uHntA7MLwAOOOCAAw444IADDjjggDN4nAPTDkADDTTQQAMNNNBAAw000AyH5tHoDsABBxxwwAEHHHDAAQcccMr3Q5y2WYjTtuK0+UDEafMhiNPmexOnzW+/FloquXEFTVxBU1fQzBU0dwUtXEFLV9DKFdT4/r2WZOt2spU72dqdbPVOtn4nW8GTreHJVvFk63hl63jlu79tHa9sHa+6dby9OK2ZVS5OU3Lid6lcnKbkxLdAuThNyYlvgHJxmpITn35BnCYFuRqdGW+COE0KcpU6M9sEcZoU5Op1ZrAJ4jTpZnQ1OzPVBHGaFORqdmaklYvTmjmCOE0Kit8iQZwmBcWHXxCnSUHx4RfEaVJQfPgVcZqWZOt2ZrIp4jQtyVbvzHBTxGlakq3hmfmmiNO0u9LW8cyIU8RpWpKt45kphzgNcRritHuEiNPqhTgNcRritMxCnIY4rdOrQpzW2L/D8xGn7S7EadvVw89pHZhfABxwwAEHHHDAAQcccMABZ/A4B6YdgAYaaKCBBhpooIEGGmigGQ7No9EdgAMOOOCAAw444IADDjjglO+HOG2zEKdtxWmLgYjTFkMQpy32Jk4bH1UWb5qSMzHlTE05M1PO3JSzMOUsTTkrU07ja/dSkKvRyVXp5Op0cpU6uVqdXLVOrl4nV7GTq9mVq9mV7a52NbtyNbvq1Oz2grRGVLkfTYgJ36FyO5oQE577cjeaEBOe+XIzmhATnnfBi6bkmHocjzFBiqbkmKoczzDBiKbkmNocDzBBh6bcg6Y+x9NLcKEpOaY+x6OrXITWiBE8aEpO+PYIFjQlJzzuggNNyQmPu2BAU3LC4674z6QgV6PjCabIz6QgV6njIaaYz6QgV6/jOaZoz6Sb0dXseJQpzjMpyNXseJohPEN4hvDsHiHCs3ohPEN4hvAssxCeITzr9KoQnjX27/B8hGe7C+HZdvXw81UH5gUABxxwwAEHHHDAAQcccMAZPM6B6QKggQYaaKCBBhpooIEGGmiGQ/NoNAXggAMOOOCAAw444IADDjjl+yE82yyEZ1vh2XIgwrPlEIRnyz0Kz8Yzk/FMCJq4gqauoJkraO4KWriClq6glSvogy/cK0m2bidbuZOt3clW72Trd7IVPNkanmwVT7aOV7aOV77729bxytbxqlvHu4jQdrMUE1p5TvwuKS608pz4FlBsaOU58Q2g+NDKc+LTLxnRhCBXozPjTZKiCUGuUmdmm+RFE4Jcvc4MNkmNJtyMrmZnpppkRxOCXM3OjDRFkLabIxnShKD4LZIcaUJQfPglS5oQFB9+yZMmBMWHXzOlKUm2bmcmmyZLU5Js9c4MN82XpiTZGp6Zb5oyTbkrbR3PjDjNmqYk2TqemXKI0xCnIU67R4g4rV6I0xCnIU7LLMRpiNM6vSrEaY39OzwfcdruQpy2XT38nNaB+QXAAQcccMABBxxwwAEHHHAGj3Ng2gFooIEGGmiggQYaaKCBBprh0Dwa3QE44IADDjjggAMOOOCAA075fojTNgtx2lacthqIOG01BHHaam/itPnt10JLJTeuoIkraOoKmrmC5q6ghSto6QpauYIa37/XkmzdTrZyJ1u7k63eydbvZCt4sjU82SqebB2vbB2vfPe3reOVreNVt463F6c1s8rFaUpO/C6Vi9OUnPgWKBenKTnxDVAuTlNy4tMviNOkIFejM+NNEKdJQa5SZ2abIE6Tgly9zgw2QZwm3YyuZmemmiBOk4Jczc6MtHJxWjNHEKdJQfFbJIjTpKD48AviNCkoPvyCOE0Kig+/Ik7Tkmzdzkw2RZymJdnqnRluijhNS7I1PDPfFHGadlfaOp4ZcYo4TUuydTwz5RCnIU5DnHaPEHFavRCnIU5DnJZZiNMQp3V6VYjTGvt3eD7itN2FOG27evg5rQPzC4ADDjjggAMOOOCAAw444Awe58C0A9BAAw000EADDTTQQAMNNMOheTS6A3DAAQcccMABBxxwwAEHnPL9EKdtFuK0O3HachjetOV4AN60G0i8aUVBeNMeDsKb1ioJbxreNLxpeNPwpuFNw5uGNw1v2u/ejHjTHg7Cm/ZgEN40vGl40/Cm2ZLwprVLwpsWw+BNw5v24cKbdoePN+3DhTetzcKb1u35eNPwpnV6VXjTGvt3eD7etN2FN227evgxrQPTC4ADDjjggAMOOOCAAw444Awe58CsA9BAAw000EADDTTQQAMNNMOheTS2A3DAAQcccMABBxxwwAEHnPL98KZtFt60rTdtPBBxWhqCOC3tTZw2Pqos3jQlZ2LKmZpyZqacuSlnYcpZmnJWppzG1+6lIFejk6vSydXp5Cp1crU6uWqdXL1OrmInV7MrV7Mr213tanblanbVqdntBWmNqHI/mhATvkPldjQhJjz35W40ISY88+VmNCEmPO+CF03JMfU4HmOCFE3JMVU5nmGCEU3JMbU5HmCCDk25B019jqeX4EJTckx9jkdXuQitESN40JSc8O0RLGhKTnjcBQeakhMed8GApuSEx13xn0lBrkbHE0yRn0lBrlLHQ0wxn0lBrl7Hc0zRnkk3o6vZ8ShTnGdSkKvZ8TRDeIbwDOHZPUKEZ/VCeIbwDOFZZiE8Q3jW6VUhPGvs3+H5CM92F8Kz7erh56sOzAsADjjggAMOOOCAAw444IAzeJwD0wVAAw000EADDTTQQAMNNNAMh+bRaArAAQcccMABBxxwwAEHHHDK90N4tlkIz7bCszQQ4Vk1BOFZtUfh2XhmMp4JQRNX0NQVNHMFzV1BC1fQ0hW0cgV98IV7JcnW7WQrd7K1O9nqnWz9TraCJ1vDk63iydbxytbxynd/2zpe2Tpedet4FxHabpZiQivPid8lxYVWnhPfAooNrTwnvgEUH1p5Tnz6JSOaEORqdGa8SVI0IchV6sxsk7xoQpCr15nBJqnRhJvR1ezMVJPsaEKQq9mZkaYI0nZzJEOaEBS/RZIjTQiKD79kSROC4sMvedKEoPjwa6Y0JcnW7cxk02RpSpKt3pnhpvnSlCRbwzPzTVOmKXelreOZEadZ05QkW8czUw5xGuI0xGn3CBGn1QtxGuI0xGmZhTgNcVqnV4U4rbF/h+cjTttdiNO2q4ef0zowvwA44IADDjjggAMOOOCAA87gcQ5MOwANNNBAAw000EADDTTQQDMcmkejOwAHHHDAAQcccMABBxxwwCnfD3HaZiFO24rTqoGI0yZDEKdN9iZOm99+LbRUcuMKmriCpq6gmSto7gpauIKWrqCVK6jx/XstydbtZCt3srU72eqdbP1OtoInW8OTreLJ1vHK1vHKd3/bOl7ZOl5163h7cVozq1ycpuTE71K5OE3JiW+BcnGakhPfAOXiNCUnPv2COE0KcjU6M94EcZoU5Cp1ZrYJ4jQpyNXrzGATxGnSzehqdmaqCeI0KcjV7MxIKxenNXMEcZoUFL9FgjhNCooPvyBOk4Liwy+I06Sg+PAr4jQtydbtzGRTxGlakq3emeGmiNO0JFvDM/NNEadpd6Wt45kRp4jTtCRbxzNTDnEa4jTEafcIEafVC3Ea4jTEaZmFOA1xWqdXhTitsX+H5yNO212I07arh5/TOjC/ADjggAMOOOCAAw444IADzuBxDkw7AA000EADDTTQQAMNNNBAMxyaR6M7AAcccMABBxxwwAEHHHDAKd8PcdpmIU7bitMmAxGnTYcgTpvuTZw2Pqos3jQlZ2LKmZpyZqacuSlnYcpZmnJWppzG1+6lIFejk6vSydXp5Cp1crU6uWqdXL1OrmInV7MrV7Mr213tanblanbVqdntBWmNqHI/mhATvkPldjQhJjz35W40ISY88+VmNCEmPO+CF03JMfU4HmOCFE3JMVU5nmGCEU3JMbU5HmCCDk25B019jqeX4EJTckx9jkdXuQitESN40JSc8O0RLGhKTnjcBQeakhMed8GApuSEx13xn0lBrkbHE0yRn0lBrlLHQ0wxn0lBrl7Hc0zRnkk3o6vZ8ShTnGdSkKvZ8TRDeIbwDOHZPUKEZ/VCeIbwDOFZZiE8Q3jW6VUhPGvs3+H5CM92F8Kz7erh56sOzAsADjjggAMOOOCAAw444IAzeJwD0wVAAw000EADDTTQQAMNNNAMh+bRaArAAQcccMABBxxwwAEHHHDK90N4tlkIz7bCs+lAhGezIQjPZnsUno1nJuOZEDRxBU1dQTNX0NwVtHAFLV1BK1fQB1+4V5Js3U62cidbu5Ot3snW72QreLI1PNkqnmwdr2wdr3z3t63jla3jVbeOdxGh7WYpJrTynPhdUlxo5TnxLaDY0Mpz4htA8aGV58SnXzKiCUGuRmfGmyRFE4Jcpc7MNsmLJgS5ep0ZbJIaTbgZXc3OTDXJjiYEuZqdGWmKIG03RzKkCUHxWyQ50oSg+PBLljQhKD78kidNCIoPv2ZKU5Js3c5MNk2WpiTZ6p0ZbpovTUmyNTwz3zRlmnJX2jqeGXGaNU1JsnU8M+UQpyFOQ5x2jxBxWr0QpyFOQ5yWWYjTEKd1elWI0xr7d3g+4rTdhThtu3r4Oa0D8wuAAw444IADDjjggAMOOOAMHufAtAPQQAMNNNBAAw000EADDTTDoXk0ugNwwAEHHHDAAQcccMABB5zy/RCnbRbitK04bTYQcdp8COK0+d7EafPbr4WWSm5cQRNX0NQVNHMFzV1BC1fQ0hW0cgU1vn+vJdm6nWzlTrZ2J1u9k63fyVbwZGt4slU82Tpe2Tpe+e5vW8crW8erbh1vL05rZpWL05Sc+F0qF6cpOfEtUC5OU3LiG6BcnKbkxKdfEKdJQa5GZ8abIE6Tglylzsw2QZwmBbl6nRlsgjhNuhldzc5MNUGcJgW5mp0ZaeXitGaOIE6TguK3SBCnSUHx4RfEaVJQfPgFcZoUFB9+RZymJdm6nZlsijhNS7LVOzPcFHGalmRreGa+KeI07a60dTwz4hRxmpZk63hmyiFOQ5yGOO0eIeK0eiFOQ5yGOC2zEKchTuv0qhCnNfbv8HzEabsLcdp29fBzWgfmFwAHHHDAAQcccMABBxxwwBk8zoFpB6CBBhpooIEGGmiggQYaaIZD82h0B+CAAw444IADDjjggAMOOOX7IU7bLMRpW3HafCDitMUQxGmLvYnTxkeVxZum5ExMOVNTzsyUMzflLEw5S1POypTT+Nq9FORqdHJVOrk6nVylTq5WJ1etk6vXyVXs5Gp25Wp2ZburXc2uXM2uOjW7vSCtEVXuRxNiwneo3I4mxITnvtyNJsSEZ77cjCbEhOdd8KIpOaYex2NMkKIpOaYqxzNMMKIpOaY2xwNM0KEp96Cpz/H0ElxoSo6pz/HoKhehNWIED5qSE749ggVNyQmPu+BAU3LC4y4Y0JSc8Lgr/jMpyNXoeIIp8jMpyFXqeIgp5jMpyNXreI4p2jPpZnQ1Ox5livNMCnI1O55mCM8QniE8u0eI8KxeCM8QniE8yyyEZwjPOr0qhGeN/Ts8H+HZ7kJ4tl09/HzVgXkBwAEHHHDAAQcccMABBxxwBo9zYLoAaKCBBhpooIEGGmiggQaa4dA8Gk0BOOCAAw444IADDjjggANO+X4IzzYL4dlWeLYYiPBsOQTh2XKPwrPxzGQ8E4ImrqCpK2jmCpq7ghauoKUraOUK+uAL90qSrdvJVu5ka3ey1TvZ+p1sBU+2hidbxZOt45Wt45Xv/rZ1vLJ1vOrW8S4itN0sxYRWnhO/S4oLrTwnvgUUG1p5TnwDKD608pz49EtGNCHI1ejMeJOkaEKQq9SZ2SZ50YQgV68zg01Sowk3o6vZmakm2dGEIFezMyNNEaTt5kiGNCEofoskR5oQFB9+yZImBMWHX/KkCUHx4ddMaUqSrduZyabJ0pQkW70zw03zpSlJtoZn5pumTFPuSlvHMyNOs6YpSbaOZ6Yc4jTEaYjT7hEiTqsX4jTEaYjTMgtxGuK0Tq8KcVpj/w7PR5y2uxCnbVcPP6d1YH4BcMABBxxwwAEHHHDAAQecweMcmHYAGmiggQYaaKCBBhpooIFmODSPRncADjjggAMOOOCAAw444IBTvh/itM1CnLYVpy0HIk5bDUGcttqbOG1++7XQUsmNK2jiCpq6gmauoLkraOEKWrqCVq6gxvfvtSRbt5Ot3MnW7mSrd7L1O9kKnmwNT7aKJ1vHK1vHK9/9bet4Zet41a3j7cVpzaxycZqSE79L5eI0JSe+BcrFaUpOfAOUi9OUnPj0C+I0KcjV6Mx4E8RpUpCr1JnZJojTpCBXrzODTRCnSTejq9mZqSaI06QgV7MzI61cnNbMEcRpUlD8FgniNCkoPvyCOE0Kig+/IE6TguLDr4jTtCRbtzOTTRGnaUm2emeGmyJO05JsDc/MN0Wcpt2Vto5nRpwiTtOSbB3PTDnEaYjTEKfdI0ScVi/EaYjTEKdlFuI0xGmdXhXitMb+HZ6POG13IU7brh5+TuvA/ALggAMOOOCAAw444IADDjiDxzkw7QA00EADDTTQQAMNNNBAA81waB6N7gAccMABBxxwwAEHHHDAAad8P8Rpm4U4bStOWw1DnLYaD0CcdgO5L3Ha+KiyeNOUnIkpZ2rKmZly5qachSlnacpZmXIaX7uXglyNTq5KJ1enk6vUydXq5Kp1cvU6uYqdXM2uXM2ubHe1q9mVq9lVp2a3F6Q1osr9aEJM+A6V29GEmPDcl7vRhJjwzJeb0YSY8LwLXjQlx9TjeIwJUjQlx1TleIYJRjQlx9TmeIAJOjTlHjT1OZ5eggtNyTH1OR5d5SK0RozgQVNywrdHsKApOeFxFxxoSk543AUDmpITHnfFfyYFuRodTzBFfiYFuUodDzHFfCYFuXodzzFFeybdjK5mx6NMcZ5JQa5mx9MM4RnCM4Rn9wgRntUL4RnCM4RnmYXwDOFZp1eF8Kyxf4fnIzzbXQjPtquHn686MC8AOOCAAw444IADDjjggAPO4HEOTBcADTTQQAMNNNBAAw000EAzHJpHoykABxxwwAEHHHDAAQcccMAp3w/h2WYhPLsTng3Fd5aG4DtL+M7wnT38NXt8Z/jO8J3hO2sThO8M3xm+M3xn+M7wneE7w3fWaXDhO8N31ioI39nDQfjOHg7Cd/ZwEL6zCAbfGb6zDxe+szt8fGcfLnxnbRa+s27Px3eG76zTq8J31ti/w/Pxne0ufGfb1cOPVx2YFgAccMABBxxwwAEHHHDAAWfwOAdmC4AGGmiggQYaaKCBBhpooBkOzaOxFIADDjjggAMOOOCAAw444JTvh+9ss/CdbX1n44EIz6ohCM+qPQrPxjOT8UwImriCpq6gmSto7gpauIKWrqCVK+iDL9wrSbZuJ1u5k63dyVbvZOt3shU82RqebBVPto5Xto5Xvvvb1vHK1vGqW8e7iNB2sxQTWnlO/C4pLrTynPgWUGxo5TnxDaD40Mpz4tMvGdGEIFejM+NNkqIJQa5SZ2ab5EUTgly9zgw2SY0m3IyuZmemmmRHE4Jczc6MNEWQtpsjGdKEoPgtkhxpQlB8+CVLmhAUH37JkyYExYdfM6UpSbZuZyabJktTkmz1zgw3zZemJNkanplvmjJNuSttHc+MOM2apiTZOp6ZcojTEKchTrtHiDitXojTEKchTsssxGmI0zq9KsRpjf07PB9x2u5CnLZdPfyc1oH5BcABBxxwwAEHHHDAAQcccAaPc2DaAWiggQYaaKCBBhpooIEGmuHQPBrdATjggAMOOOCAAw444IADTvl+iNM2C3HaVpyWBiJOmwxBnDbZmzhtfvu10FLJjSto4gqauoJmrqC5K2jhClq6glauoMb377UkW7eTrdzJ1u5kq3ey9TvZCp5sDU+2iidbxytbxyvf/W3reGXreNWt4+3Fac2scnGakhO/S+XiNCUnvgXKxWlKTnwDlIvTlJz49AviNCnI1ejMeBPEaVKQq9SZ2SaI06QgV68zg00Qp0k3o6vZmakmiNOkIFezMyOtXJzWzBHEaVJQ/BYJ4jQpKD78gjhNCooPvyBOk4Liw6+I07QkW7czk00Rp2lJtnpnhpsiTtOSbA3PzDdFnKbdlbaOZ0acIk7Tkmwdz0w5xGmI0xCn3SNEnFYvxGmI0xCnZRbiNMRpnV4V4rTG/h2ejzhtdyFO264efk7rwPwC4IADDjjggAMOOOCAAw44g8c5MO0ANNBAAw000EADDTTQQAPNcGgeje4AHHDAAQcccMABBxxwwAGnfD/EaZuFOG0rTqsGIk6bDkGcNt2bOG18VFm8aUrOxJQzNeXMTDlzU87ClLM05axMOY2v3UtBrkYnV6WTq9PJVerkanVy1Tq5ep1cxU6uZleuZle2u9rV7MrV7KpTs9sL0hpR5X40ISZ8h8rtaEJMeO7L3WhCTHjmy81oQkx43gUvmpJj6nE8xgQpmpJjqnI8wwQjmpJjanM8wAQdmnIPmvocTy/BhabkmPocj65yEVojRvCgKTnh2yNY0JSc8LgLDjQlJzzuggFNyQmPu+I/k4JcjY4nmCI/k4JcpY6HmGI+k4JcvY7nmKI9k25GV7PjUaY4z6QgV7PjaYbwDOEZwrN7hAjP6oXwDOEZwrPMQniG8KzTq0J41ti/w/MRnu0uhGfb1cPPVx2YFwAccMABBxxwwAEHHHDAAWfwOAemC4AGGmiggQYaaKCBBhpooBkOzaPRFIADDjjggAMOOOCAAw444JTvh/BssxCebYVnk4EIz2ZDEJ7N9ig8G89MxjMhaOIKmrqCZq6guSto4QpauoJWrqAPvnCvJNm6nWzlTrZ2J1u9k63fyVbwZGt4slU82Tpe2Tpe+e5vW8crW8erbh3vIkLbzVJMaOU58bukuNDKc+JbQLGhlefEN4DiQyvPiU+/ZEQTglyNzow3SYomBLlKnZltkhdNCHL1OjPYJDWacDO6mp2ZapIdTQhyNTsz0hRB2m6OZEgTguK3SHKkCUHx4ZcsaUJQfPglT5oQFB9+zZSmJNm6nZlsmixNSbLVOzPcNF+akmRreGa+aco05a60dTwz4jRrmpJk63hmyiFOQ5yGOO0eIeK0eiFOQ5yGOC2zEKchTuv0qhCnNfbv8HzEabsLcdp29fBzWgfmFwAHHHDAAQcccMABBxxwwBk8zoFpB6CBBhpooIEGGmiggQYaaIZD82h0B+CAAw444IADDjjggAMOOOX7IU7bLMRpW3HadCDitPkQxGnzvYnT5rdfCy2V3LiCJq6gqSto5gqau4IWrqClK2jlCmp8/15LsnU72cqdbO1OtnonW7+TreDJ1vBkq3iydbyydbzy3d+2jle2jlfdOt5enNbMKhenKTnxu1QuTlNy4lugXJym5MQ3QLk4TcmJT78gTpOCXI3OjDdBnCYFuUqdmW2COE0KcvU6M9gEcZp0M7qanZlqgjhNCnI1OzPSysVpzRxBnCYFxW+RIE6TguLDL4jTpKD48AviNCkoPvyKOE1LsnU7M9kUcZqWZKt3Zrgp4jQtydbwzHxTxGnaXWnreGbEKeI0LcnW8cyUQ5yGOA1x2j1CxGn1QpyGOA1xWmYhTkOc1ulVIU5r7N/h+YjTdhfitO3q4ee0DswvAA444IADDjjggAMOOOCAM3icA9MOQAMNNNBAAw000EADDTTQDIfm0egOwAEHHHDAAQcccMABBxxwyvdDnLZZiNO24rTZQMRpiyGI0xZ7E6eNjyqLN03JmZhypqacmSlnbspZmHKWppyVKafxtXspyNXo5Kp0cnU6uUqdXK1OrlonV6+Tq9jJ1ezK1ezKdle7ml25ml11anZ7QVojqtyPJsSE71C5HU2ICc99uRtNiAnPfLkZTYgJz7vgRVNyTD2Ox5ggRVNyTFWOZ5hgRFNyTG2OB5igQ1PuQVOf4+kluNCUHFOf49FVLkJrxAgeNCUnfHsEC5qSEx53wYGm5ITHXTCgKTnhcVf8Z1KQq9HxBFPkZ1KQq9TxEFPMZ1KQq9fxHFO0Z9LN6Gp2PMoU55kU5Gp2PM0QniE8Q3h2jxDhWb0QniE8Q3iWWQjPEJ51elUIzxr7d3g+wrPdhfBsu3r4+aoD8wKAAw444IADDjjggAMOOOAMHufAdAHQQAMNNNBAAw000EADDTTDoXk0mgJwwAEHHHDAAQcccMABB5zy/RCebRbCs63wbD4Q4dlyCMKz5R6FZ+OZyXgmBE1cQVNX0MwVNHcFLVxBS1fQyhX0wRfulSRbt5Ot3MnW7mSrd7L1O9kKnmwNT7aKJ1vHK1vHK9/9bet4Zet41a3jXURou1mKCa08J36XFBdaeU58Cyg2tPKc+AZQfGjlOfHpl4xoQpCr0ZnxJknRhCBXqTOzTfKiCUGuXmcGm6RGE25GV7MzU02yowlBrmZnRpoiSNvNkQxpQlD8FkmONCEoPvySJU0Iig+/5EkTguLDr5nSlCRbtzOTTZOlKUm2emeGm+ZLU5JsDc/MN02ZptyVto5nRpxmTVOSbB3PTDnEaYjTEKfdI0ScVi/EaYjTEKdlFuI0xGmdXhXitMb+HZ6POG13IU7brh5+TuvA/ALggAMOOOCAAw444IADDjiDxzkw7QA00EADDTTQQAMNNNBAA81waB6N7gAccMABBxxwwAEHHHDAAad8P8Rpm4U4bStOWwxEnLYagjhttTdx2vz2a6GlkhtX0MQVNHUFzVxBc1fQwhW0dAWtXEGN799rSbZuJ1u5k63dyVbvZOt3shU82RqebBVPto5Xto5Xvvvb1vHK1vGqW8fbi9OaWeXiNCUnfpfKxWlKTnwLlIvTlJz4BigXpyk58ekXxGlSkKvRmfEmiNOkIFepM7NNEKdJQa5eZwabIE6TbkZXszNTTRCnSUGuZmdGWrk4rZkjiNOkoPgtEsRpUlB8+AVxmhQUH35BnCYFxYdfEadpSbZuZyabIk7Tkmz1zgw3RZymJdkanplvijhNuyttHc+MOEWcpiXZOp6ZcojTEKchTrtHiDitXojTEKchTsssxGmI0zq9KsRpjf07PB9x2u5CnLZdPfyc1oH5BcABBxxwwAEHHHDAAQcccAaPc2DaAWiggQYaaKCBBhpooIEGmuHQPBrdATjggAMOOOCAAw444IADTvl+iNM2C3HaVpy2HIQ4rRqPD1+cVkPuS5w2Pqos3jQlZ2LKmZpyZqacuSlnYcpZmnJWppzG1+6lIFejk6vSydXp5Cp1crU6uWqdXL1OrmInV7MrV7Mr213tanblanbVqdntBWmNqHI/mhATvkPldjQhJjz35W40ISY88+VmNCEmPO+CF03JMfU4HmOCFE3JMVU5nmGCEU3JMbU5HmCCDk25B019jqeX4EJTckx9jkdXuQitESN40JSc8O0RLGhKTnjcBQeakhMed8GApuSEx13xn0lBrkbHE0yRn0lBrlLHQ0wxn0lBrl7Hc0zRnkk3o6vZ8ShTnGdSkKvZ8TRDeIbwDOHZPUKEZ/VCeIbwDOFZZiE8Q3jW6VUhPGvs3+H5CM92F8Kz7erh56sOzAsADjjggAMOOOCAAw444IAzeJwD0wVAAw000EADDTTQQAMNNNAMh+bRaArAAQcccMABBxxwwAEHHHDK90N4tlkIz7bCs9VAhGdpCMKztDfhWZqOj8Y7K00t/jNj7KSf2Gk/sbN+Yuf9xC76iV32E7vqJ7bxdX9nbk/nLPV00FJPJy31dNRST2ct9XTYUk+nLfV03FJP563q6bxVfc21ns5b1dN5q5Tz1l4sl0su98z5Utu+u+UWOl9q25us3FHnS217i5Ub7HypbW8wwW9njO3ndLX+uCDI8Iyx/Ryw1p8VBHOeMbafM9b6g4Kg2TNOhX5OWetPCYKTzxjbzylr/RGhXOCXSxV8fsbYtm+tYPszxra9wAQXoDG27QUmmAKNsW0vMMUj6Mzt6Zy1/qSgSAeduT0dtdYfFhRDoTO3p9PW+vOCojN0zomezlvrjwyK+9CZ29N5a/2pAVEiokREifcIESXWC1EiokREiZmFKBFRYqdXhSixsX+H5yNK3F2IErerh5/LPDCfCDjggAMOOOCAAw444IADzuBxDkwzAg000EADDTTQQAMNNNBAMxyaR6M3AQcccMABBxxwwAEHHHDAKd/vbyBK/PP6pzfry+Prt5fr0dMvP8KbeFjexPXlz6cv16P/OK6b98eLizej+g+s/jnn6fjLgSgUqyEoFKu9KRRns6PJamdNZhaFojF20k/stJ/YWT+x835iF/3ELvuJXfUT2zAdOHN7Omepp4OWejppqaejlno6a6mnw5Z6Om2pp+OWejpvVU/nreprrvV03qqezlulnLf2CsVccrlC0Zfa9t0tVyj6UtveZOUKRV9q21usXKHoS217gwkKRWNsP6er9ccFQaFojO3ngLX+rCAoFI2x/Zyx1h8UBIWicSr0c8paf0oQFIrG2H5OWeuPCOUKxVyqoFA0xrZ9awWFojG27QUmKBSNsW0vMEGhaIxte4EpCkVnbk/nrPUnBUWh6Mzt6ai1/rCgKBSduT2dttafFxSFonNO9HTeWn9kUBSKztyezlvrTw0oFFEoolC8R4hCsV4oFFEoolDMLBSKKBQ7vSoUio39OzwfheLuQqG4XT38xOaBmUbAAQcccMABBxxwwAEHHHAGj3NgAhJooIEGGmiggQYaaKCBBprh0Dwa8Qk44IADDjjggAMOOOCAA075figUf389XoXi2zdvzt6NPju9vFUnDsSZOBmCM3GyN2fi7T+XyplMORNTztSUMzPlzE05C1PO0pSzMuU0nAJSkKvRyVXp5Op0cpU6uVqdXLVOrl4nV7GTq9mVq9mV7a52NbtyNbvq1Oz2Lr9GVLm8T4gJ36FyPZ8QE577cgGfEBOe+XLFnhATnndBoqfkmHocjzHBi6fkmKoczzBBdafkmNocDzDBXqfcg6Y+x9NLENIpOaY+x6Or3DHXiBGkckpO+PYI2jglJzzughhOyQmPu6B+U3LC467I3aQgV6PjCab42qQgV6njIaYo2KQgV6/jOaZY1aSb0dXseJQpojQpyNXseJrdC/q3y9OLy9Prd6M0ej56+s3b849qC9X8+f88Pn8+Ts9v//nz9cvnkxSNuXHj/9H77LPpdLUybFH1v8Wk/y2m/W8x63+Lef9bLPrfYtn/Fqv+t2hM9r722MP5zvyLWd8e8b/Z8u0R/0sv3x7xv+n17bGHQ572cMrTHo555t8q++Zf/C+cfXvE/y7at8ceznm1h0lelY3y6naP4+toj3G7v8adTKpqOTdsEX+ssm0R/2HYtoj/LGxbxB+rbFvEN65ti/jCtW0R37e2LeKPVbYtMh+rfHvEH6t8e8TXrW+P+GOVb4/4Y5Vvj/hjlW+PPRzyzMcq3x57OOaZj1W++Rd/rPLtsY85vodznvnBAN8eZed8Uu/x5eVpsEe1avdvq1JaLCYTwxbxxyrbFvHHKtsW8ccq2xbxxyrbFvGNa9sivnBtW8T3rW2L+Lq1bZH5gUDfHvF169sjvm59e8TXrW+P+Lr17RF/rPLtEf/Iom+P+KcZfXvEP+jo22MP5zzzscq3xx7OeeZjlW+PPZzzzMeq3B7Teo8/v34b7bFs97Gq/l9cmv2TYYv4Y5Vti/hjlW2L+GOVbYv4Y5Vti/hjlW2L+GOVbYv4Y5Vti/i6tW2R+Vjl2yO+bn17xNetb4/4uvXtEV+3vj3ij1W+PeKPVb494o9Vvj3ij1W+PfZwzjMfq3x77OGcZz5W+fbYwznPfKzK7TGr9/iP9Um0x6Ldx6rPP3/xYrEwbBF/rLJtEX+ssm0Rf6yybRF/rLJtEX+ssm0Rf6yybRF/rLJtEV+3ti0yH6t8e8TXrW+P+Lr17RFft7494uvWt0f8scq3R/yxyrdH/LHKt0f8scq3xx7OeeZjlW+PPZzzzMcq3x57OOeZj1W5Pea3H93erqM95u0+Vr14MZ9btog/Vtm2iD9W2baIP1bZtog/Vtm2iD9W2baIP1bZtog/Vtm2iK9b2xaZj1W+PeLr1rdHfN369oivW98e8XXr2yP+WOXbI/5Y5dsj/ljl2yP+WOXbYw/nPPOxyrfHHs555mOVb489nPPMx6rcHot6jz9dRD8WX83afaxaLqtqNjNsEX+ssm0Rf6yybRF/rLJtEX+ssm0Rf6yybRF/rLJtEX+ssm2R806ZtsjK1lx7xNetb4+cyMq1R85x5dojp79y7ZFzvrn2yOngXHvkTHGuPXISOdceezjnWfWca489nPOssM61xx7OeVZz936Pv7QxvG40zKNPR+frX+4Msrfi2KdXP796dmuAfVAVe+dyvlpf/9PF2/OTq6ez8bNRSrNno0n9T9WsnW721xuMrYf65OTF8fX61cXlu89+Pb16b0Levv4WwuibgK8uT9aXX7+txcStf2PN8a7J8af18dXby/V7jNqtvHnfezZy8zAP8zAP8zAP8zAP8zAP8zAP8zAP8zAP8zAP8zAP8zAP8zAP8zAP8zAP8zAP8zAP8zAP8zAP8zAP8zAP8zAP8zAP8zAP8zAP8zAP8zAP8zAP8zAP8/D/Vw+/O7r4eX15eXqy/tNx/cXadDQWv69afzX2qvnV2G/Wl6frq83Xa588u/sC8Zuzi+ujs9Pz9YNfkb36ve/pPvzN2quj2//p+TcXZ8fXpxfnN1BPrq7Xb55/v/7h4nL9pN03n/+4frU+P2m+oPe/9nQ+fjaa1N9cHtdfZK7/48nZ+ofrGuyB6LvYo+9era+/OL+u35+bLX54e/7ylvTpR6P/fCDijnC9/d3fPvhd7nqd/jB6ev369Oro6vZPpd1G9dr5TUc3798Xxy9fP/1/wF3T7vDrr47fsG9yv3tzcXVaB35+88ttXs3dqmN+h+ry4pduSHdYp+cn6/o8PE/POv7uu/Vj6W/84XR9Vvft6eY9fX9OXl1evH2zPhn93d+N/uvm1389+u718dXm++/1Afto99F3v/vozRtydPzq1Zf1Hkdn6/NX169H/ziqRv9j9OSzs7Mno0+az7g6O325fvo8ffTt+C8fPXje7r2Si8vR0x9vXsr4H0Y/3myzqepm3/rX/v7mxun+B1SvusabvG9//MvRX9fvRp9++un7N68s8TZ188f+Y9eXere+v1wf/7XkN//W8fd0fX79fm1e3ad1resybJpyK3I4+u746ur01fn65EWtiLj69vad/EvZW3n3B/3m7dXrp6V/Fjd/pJ+8//MsP0lnZ5+0eZVH9TNLd7m6vrz467rdPu+fW7rTxZvjl6fX79pttXly8au63eJuq9KUu4ukea2UHI/Ol0+97o5z8+IZPR+lrmldjlt71t+e3U7VVs//7aHPFPX6+OPRv/37n0f/56t//3r0zVdf//lf/9c/j/741T//64vRv3zx9RftAr68ubXXvx7XH9FG1xejq4vL69H5259uevBydKs0uRodX728+fByev6qReLde1/n7Ezm42ej79tfLpfr67eX56M3x5dX6y/PLo6vnx7XV/5HN3+UO7/2/e2vtXozH/6ItrPt5iU8FPxbv6aX7efP2+N+e9if/uFk/cPx27Pr0ZvLi5s7bP2HZ6M//Lfl8sWLL774Q8/iGXDAAQcccMABBxxwwAEHnP8/cUZXb3+6+X+BRyfr+hdHJ8fvaqLL9Qk00EADDTTQQAMNNNBAAw00eZpfbn806wOa78/ersEBBxxwwAEHHHDAAQcccMApwdn+7wam+n838Ju30f9u4CTd/g3bZ59Np6sVpJBCCimkkEIKKaSQQgoppJBCOgzS6pb0+DoiHd+STiZVtZxDCimkkEIKKaSQQgoppJBCCimkwyCd1KRfXp4GpNXqljSlxWIygRRSSCGFFFJIIYUUUkghhRRSSIdBOq1J//z6bUS6vCVd3azZP0EKKaSQQgoppJBCCimkkEIKKaTDIJ3VpP+xPolIF7ekn3/+4sViASmkkEIKKaSQQgoppJBCCimkkA6DdH77byberiPS+S3pixfzOaSQQgoppJBCCimkkEIKKaSQQjoU0kVN+qeLyCxYzW5Jl8uqms0ghRRSSCGFFFJIIYUUUkghhRTSvZHeoZxcHv/y9MGwX4+uT6/P1t+8Pn6zPrpe/3r99A//cvH28uphjHf3f+fnpz+tz69OL87P1le3CQ9EfPzx6LOTk9Hx6DZp9Mvp9evR1cVP69HJ5IHfefXzq6PjN2/W5ydPn9R7P/nogd9wt46Or68vnz759cmz0Xzc8Te9u/lNVfvfdHX97mz9Hu/58fnL1xeXN7//ydn6hw60m4wfLs6vn/+yPn31+rrO+P7i7KR9xvs/m//92f9+/wZ/vX69Pr4effXy5eibl6//8FHuD+kfP756eXn65vq/h8/5x49PTn/+/YfD3xOH3WSNTk8+ffKybvCLmxd9fHq+vvyuGk+fjG7fik+fnJxevTk7fvfJ6fnZzWPPvz+7ePnXf3gSA96kvn8No+t3b25+f/1ufPzj8c/H7381+zvr9fPxZd220aejk9Of3pytj87Xv3zz86unT/7b70A+G03H49v/ePD41Lknx9fHN8Hf/ueTs+Pv12dPPnlysv7h+O3Z9ejN5cUPp2frJ8/eP/Ldr08+SUfjZ09+Pj57u37yyXx1tNpZy9WzJy/rO+cm4eYaefHiiy+e/PasVWrVS+qkl9RpL6mzXlLnvaQuekld9pK66iU1jfuJ7ed0pX6OV+rnfKV+Dljq54Slfo5Y6ueMpX4OWernlFX9nLKqpxnWzymr+jlllXDKRldvf/qp8T/jXfAJ4XJ90iG05XvbLbTlO9sttOX72i205d3VLbTlzdUttOW91S205a3VLbTlndUttO0Hg46pvZypth8LOqb2cqrafijomNrLuWr7kaBjai8nq+0Hgo6pvZytth8HOqb2M696OVttPwt0TC09W7+cnl+rHwO+r5/QPrXl29oxteXb2jG15dvaMbXlldUxteWV1TG15ZXVMbXlldUxteWV1TG17eeBrrH9nK62nwi6xvZzvtp+Juga288Ja/upoGtsP2es7eeCrrH9nLK2nwy6xvY0w/o5ZW0/HHSN7XTK/tLmLxw2fzc4+nR0vv7l7i80bv8e4+nVz6+e3f6FxIN/c3H3F4xX6+t/unh7fnL1dDZ+Nkpp9mw0qf+pmrX7249fbzC2f296cvLi+Hr96uLy3We/nl69/wu67VvR4m8xbwK+ujxZX379tv77sta/seZ41+T40/r46u3l+j1G/Vd+mz8C9e9lb/8iqbnVN+vL0/XVBvdmp80fyJuzi+uj+m+3Htzy6vde98OkV0e3vXtzcXZ8fXpxfgP15Op6/eb59+sfLi7XT9o16Y/rV+vzk+YLev9rT+c3LZjUTaj/MizV/7H5a88H/0b4Lvbou1fr6y/Or+v352aLH96ev7wlffrR6D9b/L1nTbje/u5vHzwb9Tr9YfT0+vXp1U2v69/XbqN67fymo5v374vjl6+f/j/grml3+Ju/G9zkfvfm4uq0Dvz85pfbvJq7Vcf8DtXlxS/dkO6wTs9P1vXBfZ6edfzdd+vH0t/4w+n6rO7b0817+v6cvLq8ePtmfTL6u78b/dfNr/969N3r46vNfVIfsI92H333u4/evCFHx69efVnvcXS2Pn91/Xr0j6Nq9D9GTz47O3sy+qT5jKuz05frp8/TR9+O//LRg+ft3iu5uBw9/fHmpYz/YfTjzTabqm72rX/t7z8dpe5/QPWqa7zJ+/bHvxz9dX1zvX366fs3ryzxNnXzx/5j15d6t76/XB//teQ3/9bx93R9fv1+bV7dp3Wt6zJsmnI7GI++e/8zPeuT25/qufr29p38S9lbefcH/ebt1eunpX8WN3+kn7z/8yw/SWdnn7R5lUf1M0t3ubq+vPjrut0+759butPFm+OXp9fv2m21eXLxq7rd4m6r0pS7i6R5rZQcj86XT73ujnPz4hk9H6WuaV2OW3vW357dTtVWz//toc8U9fr449G//fufR//nq3//evTNV1//+V//1z+P/vjVP//ri9G/fPH1F+0Cvry5tde/Htcf0UbXF6Ori5sP0udvf7rpwcvR7UfEq9Hx1cubDy+n569aJN6993XOzmQ+fjb6vv3lcrm+fnt5PnpzfHm1/vLs4vj66XF95X9080e582vf3/5aqzfz4Y9oO9tuXsJDwb/9DX728oO/gN38gGX9F6p/kx8FBQcccMABBxxwwAEHHHDAGTzO/R9wqYku1yfQQAMNNNBAAw000EADDTTQ5Gnu/UhgTVP/iB844IADDjjggAMOOOCAAw44f0Pj4Z/XP71ZXx5fv71cj55++RHOw4NyHv7Hcd24f1nf/tdnP31/uj6/HtV/ZLX5cH3y9ub9fz5ajL8ciARxNgQJ4mxvEsTbr56WSphMORNTztSUMzPlzE05C1PO0pSzMuU07AJSkKvRyVXp5Op0cpU6uVqdXLVOrl4nV7GTq9mVq9mV7a52NbtyNbvq1Oz20r5GVLmmT4gJ36FyFZ8QE577ct2eEBOe+XKlnhATnndBm6fkmHocjzFBhqfkmKoczzBBcafkmNocDzBBXKfcg6Y+x9NL0NEpOaY+x6OrXDLXiBG0ckpO+PYI6jglJzzugh5OyQmPu6CAU3LC465o3qQgV6PjCabI26QgV6njIaYo2aQgV6/jOaaI1qSb0dXseJQp+jQpyNXseJohRRuEFI2HeZiHeZiHeZiHeZiHeZiHeZiHeZiHeZiHD+nhd0cXP68vL09P1n86rv9FVToaI8XfeSVI8bcLKX6nhRQfKX6HhRT/w4UU/8OFFL/jQoqPFP93F1J8cMABBxxwwAEHHHDAAQcccIaglIQGGmiggQYaaKCBBhpooBkOzaNRWYIDDjjggAMOOOCAAw444JTv9zeQ4n9++tP6/Or04vxsfXWFEv+wlPgXl38dffHDD6cvT9fnL99tRfj7VeBvnv3BI7v/990/v//vbfrmH7b/9f3Fybv6v19f/3T23//L/wUs+oUr"
               },
               {
                  "name" : "annual_peak_electric_demand",
                  "units" : "kW",
                  "value" : 63.779350000000001
               },
               {
                  "name" : "first_year_capital_cost",
                  "units" : "$",
                  "value" : 0
               },
               {
                  "name" : "annual_utility_cost",
                  "units" : "$",
                  "value" : 35476.959999999999
               },
               {
                  "name" : "total_lifecycle_cost",
                  "units" : "$",
                  "value" : 613237.44999999995
               }
            ],
            "step_warnings" : []
         }
      }
   ],
   "updated_at" : "20170710T190122Z",
   "weather_file" : "USA_CO_Denver.Intl.AP.725650_TMY3.epw"
}
