{
   "completed_at" : "20170710T184128Z",
   "completed_status" : "Success",
   "created_at" : "2017-07-10 18:33:50 +0000",
   "current_step" : 5,
   "description" : "",
   "eplusout_err" : "Program Version,EnergyPlus, Version 8.7.0-78a111df4a, YMD=2017.07.10 18:36,IDD_Version 8.7.0\n   ************* IDF Context for following error/warning message:\n   ************* Note -- lines truncated at 300 characters, if necessary...\n   *************      5 Building,\n   ************* indicated Name=NECB 2011-LargeHotel-NECB HDD Method-CAN_ON_Ottawa.716280_CWEC.epw created: 2017-07-10 18:33:56 +0000\n   ************* Only last 1 lines before error line shown.....\n   *************      6   NECB 2011-LargeHotel-NECB HDD Method-CAN_ON_Ottawa.716280_CWEC.epw created: 2017-07-10 18:33:56 +0000, !- Name\n   ** Warning ** IP: IDF line~6 Alpha Argument length exceeds maximum, will be truncated=  NECB 2011-LargeHotel-NECB HDD Method-CAN_ON_Ottawa.716280_CWEC.epw created: 2017-07-10 18:33:56 +000\n   **   ~~~   ** Will be processed as Alpha=NECB 2011-LARGEHOTEL-NECB HDD METHOD-CAN_ON_OTTAWA.716280_CWEC.EPW CREATED: 2017-07-10 18:33:56 +0000\n   ************* Beginning Zone Sizing Calculations\n   ** Warning ** ProcessScheduleInput: Schedule:Day:Interval=\"ECONOMIZER MAX OA FRACTION 100 PCT DEFAULT\", Blank Schedule Type Limits Name input -- will not be validated.\n   ** Warning ** ProcessScheduleInput: Schedule:Day:Interval=\"SCHEDULE DAY 1\", Blank Schedule Type Limits Name input -- will not be validated.\n   ** Warning ** ProcessScheduleInput: Schedule:Day:Interval=\"SCHEDULE DAY 10\", Blank Schedule Type Limits Name input -- will not be validated.\n   ** Warning ** ProcessScheduleInput: Schedule:Day:Interval=\"SCHEDULE DAY 11\", Blank Schedule Type Limits Name input -- will not be validated.\n   ** Warning ** ProcessScheduleInput: Schedule:Day:Interval=\"SCHEDULE DAY 12\", Blank Schedule Type Limits Name input -- will not be validated.\n   ** Warning ** ProcessScheduleInput: Schedule:Day:Interval=\"SCHEDULE DAY 13\", Blank Schedule Type Limits Name input -- will not be validated.\n   ** Warning ** ProcessScheduleInput: Schedule:Day:Interval=\"SCHEDULE DAY 14\", Blank Schedule Type Limits Name input -- will not be validated.\n   ** Warning ** ProcessScheduleInput: Schedule:Day:Interval=\"SCHEDULE DAY 15\", Blank Schedule Type Limits Name input -- will not be validated.\n   ** Warning ** ProcessScheduleInput: Schedule:Day:Interval=\"SCHEDULE DAY 16\", Blank Schedule Type Limits Name input -- will not be validated.\n   ** Warning ** ProcessScheduleInput: Schedule:Day:Interval=\"SCHEDULE DAY 17\", Blank Schedule Type Limits Name input -- will not be validated.\n   ** Warning ** ProcessScheduleInput: Schedule:Day:Interval=\"SCHEDULE DAY 18\", Blank Schedule Type Limits Name input -- will not be validated.\n   ** Warning ** ProcessScheduleInput: Schedule:Day:Interval=\"SCHEDULE DAY 19\", Blank Schedule Type Limits Name input -- will not be validated.\n   ** Warning ** ProcessScheduleInput: Schedule:Day:Interval=\"SCHEDULE DAY 2\", Blank Schedule Type Limits Name input -- will not be validated.\n   ** Warning ** ProcessScheduleInput: Schedule:Day:Interval=\"SCHEDULE DAY 20\", Blank Schedule Type Limits Name input -- will not be validated.\n   ** Warning ** ProcessScheduleInput: Schedule:Day:Interval=\"SCHEDULE DAY 21\", Blank Schedule Type Limits Name input -- will not be validated.\n   ** Warning ** ProcessScheduleInput: Schedule:Day:Interval=\"SCHEDULE DAY 22\", Blank Schedule Type Limits Name input -- will not be validated.\n   ** Warning ** ProcessScheduleInput: Schedule:Day:Interval=\"SCHEDULE DAY 23\", Blank Schedule Type Limits Name input -- will not be validated.\n   ** Warning ** ProcessScheduleInput: Schedule:Day:Interval=\"SCHEDULE DAY 24\", Blank Schedule Type Limits Name input -- will not be validated.\n   ** Warning ** ProcessScheduleInput: Schedule:Day:Interval=\"SCHEDULE DAY 25\", Blank Schedule Type Limits Name input -- will not be validated.\n   ** Warning ** ProcessScheduleInput: Schedule:Day:Interval=\"SCHEDULE DAY 26\", Blank Schedule Type Limits Name input -- will not be validated.\n   ** Warning ** ProcessScheduleInput: Schedule:Day:Interval=\"SCHEDULE DAY 27\", Blank Schedule Type Limits Name input -- will not be validated.\n   ** Warning ** ProcessScheduleInput: Schedule:Day:Interval=\"SCHEDULE DAY 28\", Blank Schedule Type Limits Name input -- will not be validated.\n   ** Warning ** ProcessScheduleInput: Schedule:Day:Interval=\"SCHEDULE DAY 29\", Blank Schedule Type Limits Name input -- will not be validated.\n   ** Warning ** ProcessScheduleInput: Schedule:Day:Interval=\"SCHEDULE DAY 30\", Blank Schedule Type Limits Name input -- will not be validated.\n   ** Warning ** ProcessScheduleInput: Schedule:Day:Interval=\"SCHEDULE DAY 31\", Blank Schedule Type Limits Name input -- will not be validated.\n   ** Warning ** ProcessScheduleInput: Schedule:Day:Interval=\"SCHEDULE DAY 32\", Blank Schedule Type Limits Name input -- will not be validated.\n   ** Warning ** ProcessScheduleInput: Schedule:Day:Interval=\"SCHEDULE DAY 33\", Blank Schedule Type Limits Name input -- will not be validated.\n   ** Warning ** ProcessScheduleInput: Schedule:Day:Interval=\"SCHEDULE DAY 34\", Blank Schedule Type Limits Name input -- will not be validated.\n   ** Warning ** ProcessScheduleInput: Schedule:Day:Interval=\"SCHEDULE DAY 35\", Blank Schedule Type Limits Name input -- will not be validated.\n   ** Warning ** ProcessScheduleInput: Schedule:Day:Interval=\"SCHEDULE DAY 36\", Blank Schedule Type Limits Name input -- will not be validated.\n   ** Warning ** ProcessScheduleInput: Schedule:Day:Interval=\"SCHEDULE DAY 37\", Blank Schedule Type Limits Name input -- will not be validated.\n   ** Warning ** ProcessScheduleInput: Schedule:Day:Interval=\"SCHEDULE DAY 38\", Blank Schedule Type Limits Name input -- will not be validated.\n   ** Warning ** ProcessScheduleInput: Schedule:Day:Interval=\"SCHEDULE DAY 39\", Blank Schedule Type Limits Name input -- will not be validated.\n   ** Warning ** ProcessScheduleInput: Schedule:Day:Interval=\"SCHEDULE DAY 40\", Blank Schedule Type Limits Name input -- will not be validated.\n   ** Warning ** ProcessScheduleInput: Schedule:Day:Interval=\"SCHEDULE DAY 41\", Blank Schedule Type Limits Name input -- will not be validated.\n   ** Warning ** ProcessScheduleInput: Schedule:Day:Interval=\"SCHEDULE DAY 42\", Blank Schedule Type Limits Name input -- will not be validated.\n   ** Warning ** ProcessScheduleInput: Schedule:Day:Interval=\"SCHEDULE DAY 43\", Blank Schedule Type Limits Name input -- will not be validated.\n   ** Warning ** ProcessScheduleInput: Schedule:Day:Interval=\"SCHEDULE DAY 44\", Blank Schedule Type Limits Name input -- will not be validated.\n   ** Warning ** ProcessScheduleInput: Schedule:Day:Interval=\"SCHEDULE DAY 45\", Blank Schedule Type Limits Name input -- will not be validated.\n   ** Warning ** ProcessScheduleInput: Schedule:Day:Interval=\"SCHEDULE DAY 46\", Blank Schedule Type Limits Name input -- will not be validated.\n   ** Warning ** ProcessScheduleInput: Schedule:Day:Interval=\"SCHEDULE DAY 47\", Blank Schedule Type Limits Name input -- will not be validated.\n   ** Warning ** ProcessScheduleInput: Schedule:Day:Interval=\"SCHEDULE DAY 48\", Blank Schedule Type Limits Name input -- will not be validated.\n   ** Warning ** ProcessScheduleInput: Schedule:Day:Interval=\"SCHEDULE DAY 49\", Blank Schedule Type Limits Name input -- will not be validated.\n   ** Warning ** ProcessScheduleInput: Schedule:Day:Interval=\"SCHEDULE DAY 50\", Blank Schedule Type Limits Name input -- will not be validated.\n   ** Warning ** ProcessScheduleInput: Schedule:Day:Interval=\"SCHEDULE DAY 51\", Blank Schedule Type Limits Name input -- will not be validated.\n   ** Warning ** ProcessScheduleInput: Schedule:Day:Interval=\"SCHEDULE DAY 52\", Blank Schedule Type Limits Name input -- will not be validated.\n   ** Warning ** ProcessScheduleInput: Schedule:Day:Interval=\"SCHEDULE DAY 53\", Blank Schedule Type Limits Name input -- will not be validated.\n   ** Warning ** ProcessScheduleInput: Schedule:Day:Interval=\"SCHEDULE DAY 54\", Blank Schedule Type Limits Name input -- will not be validated.\n   ** Warning ** ProcessScheduleInput: Schedule:Day:Interval=\"SCHEDULE DAY 55\", Blank Schedule Type Limits Name input -- will not be validated.\n   ** Warning ** ProcessScheduleInput: Schedule:Day:Interval=\"SCHEDULE DAY 56\", Blank Schedule Type Limits Name input -- will not be validated.\n   ** Warning ** ProcessScheduleInput: Schedule:Day:Interval=\"SCHEDULE DAY 57\", Blank Schedule Type Limits Name input -- will not be validated.\n   ** Warning ** ProcessScheduleInput: Schedule:Day:Interval=\"SCHEDULE DAY 58\", Blank Schedule Type Limits Name input -- will not be validated.\n   ** Warning ** ProcessScheduleInput: Schedule:Day:Interval=\"SCHEDULE DAY 59\", Blank Schedule Type Limits Name input -- will not be validated.\n   ** Warning ** ProcessScheduleInput: Schedule:Day:Interval=\"SCHEDULE DAY 60\", Blank Schedule Type Limits Name input -- will not be validated.\n   ** Warning ** ProcessScheduleInput: Schedule:Day:Interval=\"SCHEDULE DAY 61\", Blank Schedule Type Limits Name input -- will not be validated.\n   ** Warning ** ProcessScheduleInput: Schedule:Day:Interval=\"SCHEDULE DAY 62\", Blank Schedule Type Limits Name input -- will not be validated.\n   ** Warning ** ProcessScheduleInput: Schedule:Day:Interval=\"SCHEDULE DAY 63\", Blank Schedule Type Limits Name input -- will not be validated.\n   ** Warning ** ProcessScheduleInput: Schedule:Day:Interval=\"SCHEDULE DAY 64\", Blank Schedule Type Limits Name input -- will not be validated.\n   ** Warning ** ProcessScheduleInput: Schedule:Day:Interval=\"SCHEDULE DAY 65\", Blank Schedule Type Limits Name input -- will not be validated.\n   ** Warning ** ProcessScheduleInput: Schedule:Day:Interval=\"SCHEDULE DAY 66\", Blank Schedule Type Limits Name input -- will not be validated.\n   ** Warning ** ProcessScheduleInput: Schedule:Day:Interval=\"SCHEDULE DAY 67\", Blank Schedule Type Limits Name input -- will not be validated.\n   ** Warning ** ProcessScheduleInput: Schedule:Day:Interval=\"SCHEDULE DAY 68\", Blank Schedule Type Limits Name input -- will not be validated.\n   ** Warning ** ProcessScheduleInput: Schedule:Day:Interval=\"SCHEDULE DAY 69\", Blank Schedule Type Limits Name input -- will not be validated.\n   ** Warning ** ProcessScheduleInput: Schedule:Day:Interval=\"SCHEDULE DAY 70\", Blank Schedule Type Limits Name input -- will not be validated.\n   ** Warning ** ProcessScheduleInput: Schedule:Day:Interval=\"SCHEDULE DAY 71\", Blank Schedule Type Limits Name input -- will not be validated.\n   ** Warning ** ProcessScheduleInput: Schedule:Day:Interval=\"SCHEDULE DAY 72\", Blank Schedule Type Limits Name input -- will not be validated.\n   ** Warning ** ProcessScheduleInput: Schedule:Day:Interval=\"SCHEDULE DAY 73\", Blank Schedule Type Limits Name input -- will not be validated.\n   ** Warning ** ProcessScheduleInput: Schedule:Day:Interval=\"SCHEDULE DAY 74\", Blank Schedule Type Limits Name input -- will not be validated.\n   ** Warning ** ProcessScheduleInput: Schedule:Day:Interval=\"SCHEDULE DAY 75\", Blank Schedule Type Limits Name input -- will not be validated.\n   ** Warning ** ProcessScheduleInput: Schedule:Day:Interval=\"SCHEDULE DAY 76\", Blank Schedule Type Limits Name input -- will not be validated.\n   ** Warning ** ProcessScheduleInput: Schedule:Day:Interval=\"SCHEDULE DAY 77\", Blank Schedule Type Limits Name input -- will not be validated.\n   ** Warning ** ProcessScheduleInput: Schedule:Day:Interval=\"SCHEDULE DAY 78\", Blank Schedule Type Limits Name input -- will not be validated.\n   ** Warning ** ProcessScheduleInput: Schedule:Day:Interval=\"SCHEDULE DAY 8\", Blank Schedule Type Limits Name input -- will not be validated.\n   ** Warning ** ProcessScheduleInput: Schedule:Day:Interval=\"SCHEDULE DAY 9\", Blank Schedule Type Limits Name input -- will not be validated.\n   ** Warning ** ProcessScheduleInput: Schedule:Year=\"ECONOMIZER MAX OA FRACTION 100 PCT\", Blank Schedule Type Limits Name input -- will not be validated.\n   ** Warning ** ProcessScheduleInput: Schedule:Year=\"SCHEDULE RULESET 10\", Blank Schedule Type Limits Name input -- will not be validated.\n   ** Warning ** ProcessScheduleInput: Schedule:Year=\"SCHEDULE RULESET 11\", Blank Schedule Type Limits Name input -- will not be validated.\n   ** Warning ** ProcessScheduleInput: Schedule:Year=\"SCHEDULE RULESET 12\", Blank Schedule Type Limits Name input -- will not be validated.\n   ** Warning ** ProcessScheduleInput: Schedule:Year=\"SCHEDULE RULESET 13\", Blank Schedule Type Limits Name input -- will not be validated.\n   ** Warning ** ProcessScheduleInput: Schedule:Year=\"SCHEDULE RULESET 14\", Blank Schedule Type Limits Name input -- will not be validated.\n   ** Warning ** ProcessScheduleInput: Schedule:Year=\"SCHEDULE RULESET 15\", Blank Schedule Type Limits Name input -- will not be validated.\n   ** Warning ** ProcessScheduleInput: Schedule:Year=\"SCHEDULE RULESET 16\", Blank Schedule Type Limits Name input -- will not be validated.\n   ** Warning ** ProcessScheduleInput: Schedule:Year=\"SCHEDULE RULESET 17\", Blank Schedule Type Limits Name input -- will not be validated.\n   ** Warning ** ProcessScheduleInput: Schedule:Year=\"SCHEDULE RULESET 18\", Blank Schedule Type Limits Name input -- will not be validated.\n   ** Warning ** ProcessScheduleInput: Schedule:Year=\"SCHEDULE RULESET 19\", Blank Schedule Type Limits Name input -- will not be validated.\n   ** Warning ** ProcessScheduleInput: Schedule:Year=\"SCHEDULE RULESET 20\", Blank Schedule Type Limits Name input -- will not be validated.\n   ** Warning ** ProcessScheduleInput: Schedule:Year=\"SCHEDULE RULESET 21\", Blank Schedule Type Limits Name input -- will not be validated.\n   ** Warning ** ProcessScheduleInput: Schedule:Year=\"SCHEDULE RULESET 22\", Blank Schedule Type Limits Name input -- will not be validated.\n   ** Warning ** ProcessScheduleInput: Schedule:Year=\"SCHEDULE RULESET 23\", Blank Schedule Type Limits Name input -- will not be validated.\n   ** Warning ** ProcessScheduleInput: Schedule:Year=\"SCHEDULE RULESET 24\", Blank Schedule Type Limits Name input -- will not be validated.\n   ** Warning ** ProcessScheduleInput: Schedule:Year=\"SCHEDULE RULESET 25\", Blank Schedule Type Limits Name input -- will not be validated.\n   ** Warning ** ProcessScheduleInput: Schedule:Year=\"SCHEDULE RULESET 26\", Blank Schedule Type Limits Name input -- will not be validated.\n   ** Warning ** ProcessScheduleInput: Schedule:Year=\"SCHEDULE RULESET 27\", Blank Schedule Type Limits Name input -- will not be validated.\n   ** Warning ** ProcessScheduleInput: Schedule:Year=\"SCHEDULE RULESET 28\", Blank Schedule Type Limits Name input -- will not be validated.\n   ** Warning ** ProcessScheduleInput: Schedule:Year=\"SCHEDULE RULESET 29\", Blank Schedule Type Limits Name input -- will not be validated.\n   ** Warning ** ProcessScheduleInput: Schedule:Year=\"SCHEDULE RULESET 3\", Blank Schedule Type Limits Name input -- will not be validated.\n   ** Warning ** ProcessScheduleInput: Schedule:Year=\"SCHEDULE RULESET 30\", Blank Schedule Type Limits Name input -- will not be validated.\n   ** Warning ** ProcessScheduleInput: Schedule:Year=\"SCHEDULE RULESET 31\", Blank Schedule Type Limits Name input -- will not be validated.\n   ** Warning ** ProcessScheduleInput: Schedule:Year=\"SCHEDULE RULESET 32\", Blank Schedule Type Limits Name input -- will not be validated.\n   ** Warning ** ProcessScheduleInput: Schedule:Year=\"SCHEDULE RULESET 33\", Blank Schedule Type Limits Name input -- will not be validated.\n   ** Warning ** ProcessScheduleInput: Schedule:Year=\"SCHEDULE RULESET 34\", Blank Schedule Type Limits Name input -- will not be validated.\n   ** Warning ** ProcessScheduleInput: Schedule:Year=\"SCHEDULE RULESET 35\", Blank Schedule Type Limits Name input -- will not be validated.\n   ** Warning ** ProcessScheduleInput: Schedule:Year=\"SCHEDULE RULESET 36\", Blank Schedule Type Limits Name input -- will not be validated.\n   ** Warning ** ProcessScheduleInput: Schedule:Year=\"SCHEDULE RULESET 37\", Blank Schedule Type Limits Name input -- will not be validated.\n   ** Warning ** ProcessScheduleInput: Schedule:Year=\"SCHEDULE RULESET 38\", Blank Schedule Type Limits Name input -- will not be validated.\n   ** Warning ** ProcessScheduleInput: Schedule:Year=\"SCHEDULE RULESET 39\", Blank Schedule Type Limits Name input -- will not be validated.\n   ** Warning ** ProcessScheduleInput: Schedule:Year=\"SCHEDULE RULESET 4\", Blank Schedule Type Limits Name input -- will not be validated.\n   ** Warning ** ProcessScheduleInput: Schedule:Year=\"SCHEDULE RULESET 40\", Blank Schedule Type Limits Name input -- will not be validated.\n   ** Warning ** ProcessScheduleInput: Schedule:Year=\"SCHEDULE RULESET 41\", Blank Schedule Type Limits Name input -- will not be validated.\n   ** Warning ** ProcessScheduleInput: Schedule:Year=\"SCHEDULE RULESET 42\", Blank Schedule Type Limits Name input -- will not be validated.\n   ** Warning ** ProcessScheduleInput: Schedule:Year=\"SCHEDULE RULESET 43\", Blank Schedule Type Limits Name input -- will not be validated.\n   ** Warning ** ProcessScheduleInput: Schedule:Year=\"SCHEDULE RULESET 44\", Blank Schedule Type Limits Name input -- will not be validated.\n   ** Warning ** ProcessScheduleInput: Schedule:Year=\"SCHEDULE RULESET 45\", Blank Schedule Type Limits Name input -- will not be validated.\n   ** Warning ** ProcessScheduleInput: Schedule:Year=\"SCHEDULE RULESET 46\", Blank Schedule Type Limits Name input -- will not be validated.\n   ** Warning ** ProcessScheduleInput: Schedule:Year=\"SCHEDULE RULESET 47\", Blank Schedule Type Limits Name input -- will not be validated.\n   ** Warning ** ProcessScheduleInput: Schedule:Year=\"SCHEDULE RULESET 48\", Blank Schedule Type Limits Name input -- will not be validated.\n   ** Warning ** ProcessScheduleInput: Schedule:Year=\"SCHEDULE RULESET 49\", Blank Schedule Type Limits Name input -- will not be validated.\n   ** Warning ** ProcessScheduleInput: Schedule:Year=\"SCHEDULE RULESET 5\", Blank Schedule Type Limits Name input -- will not be validated.\n   ** Warning ** ProcessScheduleInput: Schedule:Year=\"SCHEDULE RULESET 50\", Blank Schedule Type Limits Name input -- will not be validated.\n   ** Warning ** ProcessScheduleInput: Schedule:Year=\"SCHEDULE RULESET 51\", Blank Schedule Type Limits Name input -- will not be validated.\n   ** Warning ** ProcessScheduleInput: Schedule:Year=\"SCHEDULE RULESET 52\", Blank Schedule Type Limits Name input -- will not be validated.\n   ** Warning ** ProcessScheduleInput: Schedule:Year=\"SCHEDULE RULESET 53\", Blank Schedule Type Limits Name input -- will not be validated.\n   ** Warning ** ProcessScheduleInput: Schedule:Year=\"SCHEDULE RULESET 54\", Blank Schedule Type Limits Name input -- will not be validated.\n   ** Warning ** ProcessScheduleInput: Schedule:Year=\"SCHEDULE RULESET 55\", Blank Schedule Type Limits Name input -- will not be validated.\n   ** Warning ** ProcessScheduleInput: Schedule:Year=\"SCHEDULE RULESET 56\", Blank Schedule Type Limits Name input -- will not be validated.\n   ** Warning ** ProcessScheduleInput: Schedule:Year=\"SCHEDULE RULESET 57\", Blank Schedule Type Limits Name input -- will not be validated.\n   ** Warning ** ProcessScheduleInput: Schedule:Year=\"SCHEDULE RULESET 58\", Blank Schedule Type Limits Name input -- will not be validated.\n   ** Warning ** ProcessScheduleInput: Schedule:Year=\"SCHEDULE RULESET 59\", Blank Schedule Type Limits Name input -- will not be validated.\n   ** Warning ** ProcessScheduleInput: Schedule:Year=\"SCHEDULE RULESET 6\", Blank Schedule Type Limits Name input -- will not be validated.\n   ** Warning ** ProcessScheduleInput: Schedule:Year=\"SCHEDULE RULESET 7\", Blank Schedule Type Limits Name input -- will not be validated.\n   ** Warning ** ProcessScheduleInput: Schedule:Year=\"SCHEDULE RULESET 8\", Blank Schedule Type Limits Name input -- will not be validated.\n   ** Warning ** ProcessScheduleInput: Schedule:Year=\"SCHEDULE RULESET 9\", Blank Schedule Type Limits Name input -- will not be validated.\n   ** Warning ** ProcessScheduleInput: Schedule:Constant=\"ALWAYS OFF DISCRETE\", Blank Schedule Type Limits Name input -- will not be validated.\n   ** Warning ** ProcessScheduleInput: Schedule:Constant=\"ALWAYS ON CONTINUOUS\", Blank Schedule Type Limits Name input -- will not be validated.\n   ** Warning ** CheckUsedConstructions: There are 23 nominally unused constructions in input.\n   **   ~~~   ** For explicit details on each unused construction, use Output:Diagnostics,DisplayExtraWarnings;\n   ** Warning ** GetInternalHeatGains: ElectricEquipment Combination of ZoneList and Object Name generate a name too long.\n   **   ~~~   ** Object Name=\"SPACE FUNCTION HOSPITAL - LAUNDRY/WASHING ELEC EQUIP\".\n   **   ~~~   ** ZoneList/Zone Name=\"SP-LAUNDRY_FLR_1 SYS-3 FLR-1 SCH-C HPLCMT-EAST ZN\".\n   **   ~~~   ** Item length=[101] > Maximum Length=[100]. You may need to shorten the names.\n   **   ~~~   ** Shortening the Object Name by [2] characters will assure uniqueness for this ZoneList.\n   **   ~~~   ** name that will be used (may be needed in reporting)=\"SP-LAUNDRY_FLR_1 SYS-3 FLR-1 SCH-C HPLCMT-EAST ZN SPACE FUNCTION HOSPITAL - LAUNDRY/WASHING ELEC EQUIP\".\n   ** Warning ** GetInternalHeatGains: ElectricEquipment Combination of ZoneList and Object Name generate a name too long.\n   **   ~~~   ** Object Name=\"SPACE FUNCTION HOTEL/MOTEL - ROOMS ELEC EQUIP\".\n   **   ~~~   ** ZoneList/Zone Name=\"SP-ROOM_3_MULT19_FLR_3 SYS-1 FLR-2 SCH-F HPLCMT-SOUTH ZN\".\n   **   ~~~   ** Item length=[101] > Maximum Length=[100]. You may need to shorten the names.\n   **   ~~~   ** Shortening the Object Name by [2] characters will assure uniqueness for this ZoneList.\n   **   ~~~   ** name that will be used (may be needed in reporting)=\"SP-ROOM_3_MULT19_FLR_3 SYS-1 FLR-2 SCH-F HPLCMT-SOUTH ZN SPACE FUNCTION HOTEL/MOTEL - ROOMS ELEC EQUIP\".\n   ** Warning ** GetInternalHeatGains: ElectricEquipment Combination of ZoneList and Object Name generate a name too long.\n   **   ~~~   ** Object Name=\"SPACE FUNCTION HOTEL/MOTEL - ROOMS ELEC EQUIP\".\n   **   ~~~   ** ZoneList/Zone Name=\"SP-ROOM_4_MULT19_FLR_3 SYS-1 FLR-2 SCH-F HPLCMT-NORTH ZN\".\n   **   ~~~   ** Item length=[101] > Maximum Length=[100]. You may need to shorten the names.\n   **   ~~~   ** Shortening the Object Name by [2] characters will assure uniqueness for this ZoneList.\n   **   ~~~   ** name that will be used (may be needed in reporting)=\"SP-ROOM_4_MULT19_FLR_3 SYS-1 FLR-2 SCH-F HPLCMT-NORTH ZN SPACE FUNCTION HOTEL/MOTEL - ROOMS ELEC EQUIP\".\n   ** Warning ** Calculated design heating load for zone=SP-BASEMENT SYS-4 FLR-3 SCH-E HPLCMT-NORTH ZN is zero.\n   **   ~~~   ** Check Sizing:Zone and ZoneControl:Thermostat inputs.\n   ** Warning ** Calculated design heating load for zone=SP-LOBBY_FLR_1 SYS-6 FLR-1 SCH-H HPLCMT-NORTH ZN is zero.\n   **   ~~~   ** Check Sizing:Zone and ZoneControl:Thermostat inputs.\n   ************* Beginning System Sizing Calculations\n   ** Warning ** Since Zone Minimum Air Flow Input Method = CONSTANT, input for Fixed Minimum Air Flow Rate will be ignored.\n   **   ~~~   ** Occurs in AirTerminal:SingleDuct:VAV:Reheat = AIR TERMINAL SINGLE DUCT VAV REHEAT 2\n   ** Warning ** Since Zone Minimum Air Flow Input Method = CONSTANT, input for Fixed Minimum Air Flow Rate will be ignored.\n   **   ~~~   ** Occurs in AirTerminal:SingleDuct:VAV:Reheat = AIR TERMINAL SINGLE DUCT VAV REHEAT 5\n   ** Warning ** Since Zone Minimum Air Flow Input Method = CONSTANT, input for Fixed Minimum Air Flow Rate will be ignored.\n   **   ~~~   ** Occurs in AirTerminal:SingleDuct:VAV:Reheat = AIR TERMINAL SINGLE DUCT VAV REHEAT 4\n   ** Warning ** Since Zone Minimum Air Flow Input Method = CONSTANT, input for Fixed Minimum Air Flow Rate will be ignored.\n   **   ~~~   ** Occurs in AirTerminal:SingleDuct:VAV:Reheat = AIR TERMINAL SINGLE DUCT VAV REHEAT 3\n   ** Warning ** Since Zone Minimum Air Flow Input Method = CONSTANT, input for Fixed Minimum Air Flow Rate will be ignored.\n   **   ~~~   ** Occurs in AirTerminal:SingleDuct:VAV:Reheat = AIR TERMINAL SINGLE DUCT VAV REHEAT 1\n   ** Warning ** GetDXCoils: Coil:Cooling:DX:SingleSpeed=\"COIL COOLING DX SINGLE SPEED 8 54KBTU/HR 9.3EER\", invalid\n   **   ~~~   ** ...Part Load Fraction Correlation Curve Name = DXCOOL-NECB2011-REF-COOLPLFFPLR 16 has out of range value.\n   **   ~~~   ** ...Curve maximum must be <= 1.0, curve max at PLR = 0.99 is 1.015\n   **   ~~~   ** ...Setting curve maximum to 1.0 and simulation continues.\n   ** Warning ** GetDXCoils: Coil:Cooling:DX:SingleSpeed=\"COIL COOLING DX SINGLE SPEED 5 16KBTU/HR 9.3EER\", invalid\n   **   ~~~   ** ...Part Load Fraction Correlation Curve Name = DXCOOL-NECB2011-REF-COOLPLFFPLR 13 has out of range value.\n   **   ~~~   ** ...Curve maximum must be <= 1.0, curve max at PLR = 0.99 is 1.015\n   **   ~~~   ** ...Setting curve maximum to 1.0 and simulation continues.\n   ** Warning ** GetDXCoils: Coil:Cooling:DX:SingleSpeed=\"COIL COOLING DX SINGLE SPEED 9 19KBTU/HR 9.3EER\", invalid\n   **   ~~~   ** ...Part Load Fraction Correlation Curve Name = DXCOOL-NECB2011-REF-COOLPLFFPLR 17 has out of range value.\n   **   ~~~   ** ...Curve maximum must be <= 1.0, curve max at PLR = 0.99 is 1.015\n   **   ~~~   ** ...Setting curve maximum to 1.0 and simulation continues.\n   ** Warning ** GetDXCoils: Coil:Cooling:DX:SingleSpeed=\"COIL COOLING DX SINGLE SPEED 6 16KBTU/HR 9.3EER\", invalid\n   **   ~~~   ** ...Part Load Fraction Correlation Curve Name = DXCOOL-NECB2011-REF-COOLPLFFPLR 14 has out of range value.\n   **   ~~~   ** ...Curve maximum must be <= 1.0, curve max at PLR = 0.99 is 1.015\n   **   ~~~   ** ...Setting curve maximum to 1.0 and simulation continues.\n   ** Warning ** GetDXCoils: Coil:Cooling:DX:SingleSpeed=\"COIL COOLING DX SINGLE SPEED 10 18KBTU/HR 9.3EER\", invalid\n   **   ~~~   ** ...Part Load Fraction Correlation Curve Name = DXCOOL-NECB2011-REF-COOLPLFFPLR 1 has out of range value.\n   **   ~~~   ** ...Curve maximum must be <= 1.0, curve max at PLR = 0.99 is 1.015\n   **   ~~~   ** ...Setting curve maximum to 1.0 and simulation continues.\n   ** Warning ** GetDXCoils: Coil:Cooling:DX:SingleSpeed=\"COIL COOLING DX SINGLE SPEED 7 4KBTU/HR 11.0EER\", invalid\n   **   ~~~   ** ...Part Load Fraction Correlation Curve Name = DXCOOL-NECB2011-REF-COOLPLFFPLR 15 has out of range value.\n   **   ~~~   ** ...Curve maximum must be <= 1.0, curve max at PLR = 0.99 is 1.015\n   **   ~~~   ** ...Setting curve maximum to 1.0 and simulation continues.\n   ** Warning ** GetDXCoils: Coil:Cooling:DX:SingleSpeed=\"COIL COOLING DX SINGLE SPEED 11 7KBTU/HR 10.9EER\", invalid\n   **   ~~~   ** ...Part Load Fraction Correlation Curve Name = DXCOOL-NECB2011-REF-COOLPLFFPLR 2 has out of range value.\n   **   ~~~   ** ...Curve maximum must be <= 1.0, curve max at PLR = 0.99 is 1.015\n   **   ~~~   ** ...Setting curve maximum to 1.0 and simulation continues.\n   ** Warning ** GetDXCoils: Coil:Cooling:DX:SingleSpeed=\"COIL COOLING DX SINGLE SPEED 2 3KBTU/HR 11.0EER\", invalid\n   **   ~~~   ** ...Part Load Fraction Correlation Curve Name = DXCOOL-NECB2011-REF-COOLPLFFPLR 10 has out of range value.\n   **   ~~~   ** ...Curve maximum must be <= 1.0, curve max at PLR = 0.99 is 1.015\n   **   ~~~   ** ...Setting curve maximum to 1.0 and simulation continues.\n   ** Warning ** GetDXCoils: Coil:Cooling:DX:SingleSpeed=\"COIL COOLING DX SINGLE SPEED 4 15KBTU/HR 9.3EER\", invalid\n   **   ~~~   ** ...Part Load Fraction Correlation Curve Name = DXCOOL-NECB2011-REF-COOLPLFFPLR 12 has out of range value.\n   **   ~~~   ** ...Curve maximum must be <= 1.0, curve max at PLR = 0.99 is 1.015\n   **   ~~~   ** ...Setting curve maximum to 1.0 and simulation continues.\n   ** Warning ** GetDXCoils: Coil:Cooling:DX:SingleSpeed=\"COIL COOLING DX SINGLE SPEED 3 15KBTU/HR 9.3EER\", invalid\n   **   ~~~   ** ...Part Load Fraction Correlation Curve Name = DXCOOL-NECB2011-REF-COOLPLFFPLR 11 has out of range value.\n   **   ~~~   ** ...Curve maximum must be <= 1.0, curve max at PLR = 0.99 is 1.015\n   **   ~~~   ** ...Setting curve maximum to 1.0 and simulation continues.\n   ** Warning ** GetDXCoils: Coil:Cooling:DX:SingleSpeed=\"COIL COOLING DX SINGLE SPEED 1 260KBTU/HR 8.21EER\", invalid\n   **   ~~~   ** ...Part Load Fraction Correlation Curve Name = DXCOOL-NECB2011-REF-COOLPLFFPLR has out of range value.\n   **   ~~~   ** ...Curve maximum must be <= 1.0, curve max at PLR = 0.99 is 1.015\n   **   ~~~   ** ...Setting curve maximum to 1.0 and simulation continues.\n   ** Warning ** GetDXCoils: Coil:Cooling:DX:SingleSpeed=\"COIL COOLING DX SINGLE SPEED 14 101KBTU/HR 9.7EER\", invalid\n   **   ~~~   ** ...Part Load Fraction Correlation Curve Name = DXCOOL-NECB2011-REF-COOLPLFFPLR 5 has out of range value.\n   **   ~~~   ** ...Curve maximum must be <= 1.0, curve max at PLR = 0.99 is 1.015\n   **   ~~~   ** ...Setting curve maximum to 1.0 and simulation continues.\n   ** Warning ** GetDXCoils: Coil:Cooling:DX:SingleSpeed=\"COIL COOLING DX SINGLE SPEED 18 97KBTU/HR 9.7EER\", invalid\n   **   ~~~   ** ...Part Load Fraction Correlation Curve Name = DXCOOL-NECB2011-REF-COOLPLFFPLR 9 has out of range value.\n   **   ~~~   ** ...Curve maximum must be <= 1.0, curve max at PLR = 0.99 is 1.015\n   **   ~~~   ** ...Setting curve maximum to 1.0 and simulation continues.\n   ** Warning ** GetDXCoils: Coil:Cooling:DX:SingleSpeed=\"COIL COOLING DX SINGLE SPEED 13 67KBTU/HR 9.7EER\", invalid\n   **   ~~~   ** ...Part Load Fraction Correlation Curve Name = DXCOOL-NECB2011-REF-COOLPLFFPLR 4 has out of range value.\n   **   ~~~   ** ...Curve maximum must be <= 1.0, curve max at PLR = 0.99 is 1.015\n   **   ~~~   ** ...Setting curve maximum to 1.0 and simulation continues.\n   ** Warning ** GetDXCoils: Coil:Cooling:DX:SingleSpeed=\"COIL COOLING DX SINGLE SPEED 15 101KBTU/HR 9.7EER\", invalid\n   **   ~~~   ** ...Part Load Fraction Correlation Curve Name = DXCOOL-NECB2011-REF-COOLPLFFPLR 6 has out of range value.\n   **   ~~~   ** ...Curve maximum must be <= 1.0, curve max at PLR = 0.99 is 1.015\n   **   ~~~   ** ...Setting curve maximum to 1.0 and simulation continues.\n   ** Warning ** GetDXCoils: Coil:Cooling:DX:SingleSpeed=\"COIL COOLING DX SINGLE SPEED 16 53KBTU/HR 14.0SEER\", invalid\n   **   ~~~   ** ...Part Load Fraction Correlation Curve Name = DXCOOL-NECB2011-REF-COOLPLFFPLR 7 has out of range value.\n   **   ~~~   ** ...Curve maximum must be <= 1.0, curve max at PLR = 0.99 is 1.015\n   **   ~~~   ** ...Setting curve maximum to 1.0 and simulation continues.\n   ** Warning ** GetDXCoils: Coil:Cooling:DX:SingleSpeed=\"COIL COOLING DX SINGLE SPEED 12 18KBTU/HR 14.0SEER\", invalid\n   **   ~~~   ** ...Part Load Fraction Correlation Curve Name = DXCOOL-NECB2011-REF-COOLPLFFPLR 3 has out of range value.\n   **   ~~~   ** ...Curve maximum must be <= 1.0, curve max at PLR = 0.99 is 1.015\n   **   ~~~   ** ...Setting curve maximum to 1.0 and simulation continues.\n   ** Warning ** GetDXCoils: Coil:Cooling:DX:SingleSpeed=\"COIL COOLING DX SINGLE SPEED 17 7KBTU/HR 14.0SEER\", invalid\n   **   ~~~   ** ...Part Load Fraction Correlation Curve Name = DXCOOL-NECB2011-REF-COOLPLFFPLR 8 has out of range value.\n   **   ~~~   ** ...Curve maximum must be <= 1.0, curve max at PLR = 0.99 is 1.015\n   **   ~~~   ** ...Setting curve maximum to 1.0 and simulation continues.\n   ************* Beginning Plant Sizing Calculations\n   ** Warning ** The Standard Ratings is calculated for Coil:Cooling:DX:SingleSpeed = COIL COOLING DX SINGLE SPEED 8 54KBTU/HR 9.3EER but not at the AHRI test condition due to curve out of bound.\n   **   ~~~   **  Review the Standard Ratings calculations in the Engineering Reference for this coil type. Also, use Output:Diagnostics, DisplayExtraWarnings for further guidance.\n   ** Warning ** The Standard Ratings is calculated for Coil:Cooling:DX:SingleSpeed = COIL COOLING DX SINGLE SPEED 5 16KBTU/HR 9.3EER but not at the AHRI test condition due to curve out of bound.\n   **   ~~~   **  Review the Standard Ratings calculations in the Engineering Reference for this coil type. Also, use Output:Diagnostics, DisplayExtraWarnings for further guidance.\n   ** Warning ** The Standard Ratings is calculated for Coil:Cooling:DX:SingleSpeed = COIL COOLING DX SINGLE SPEED 9 19KBTU/HR 9.3EER but not at the AHRI test condition due to curve out of bound.\n   **   ~~~   **  Review the Standard Ratings calculations in the Engineering Reference for this coil type. Also, use Output:Diagnostics, DisplayExtraWarnings for further guidance.\n   ** Warning ** The Standard Ratings is calculated for Coil:Cooling:DX:SingleSpeed = COIL COOLING DX SINGLE SPEED 6 16KBTU/HR 9.3EER but not at the AHRI test condition due to curve out of bound.\n   **   ~~~   **  Review the Standard Ratings calculations in the Engineering Reference for this coil type. Also, use Output:Diagnostics, DisplayExtraWarnings for further guidance.\n   ** Warning ** The Standard Ratings is calculated for Coil:Cooling:DX:SingleSpeed = COIL COOLING DX SINGLE SPEED 10 18KBTU/HR 9.3EER but not at the AHRI test condition due to curve out of bound.\n   **   ~~~   **  Review the Standard Ratings calculations in the Engineering Reference for this coil type. Also, use Output:Diagnostics, DisplayExtraWarnings for further guidance.\n   ** Warning ** The Standard Ratings is calculated for Coil:Cooling:DX:SingleSpeed = COIL COOLING DX SINGLE SPEED 7 4KBTU/HR 11.0EER but not at the AHRI test condition due to curve out of bound.\n   **   ~~~   **  Review the Standard Ratings calculations in the Engineering Reference for this coil type. Also, use Output:Diagnostics, DisplayExtraWarnings for further guidance.\n   ** Warning ** The Standard Ratings is calculated for Coil:Cooling:DX:SingleSpeed = COIL COOLING DX SINGLE SPEED 11 7KBTU/HR 10.9EER but not at the AHRI test condition due to curve out of bound.\n   **   ~~~   **  Review the Standard Ratings calculations in the Engineering Reference for this coil type. Also, use Output:Diagnostics, DisplayExtraWarnings for further guidance.\n   ** Warning ** The Standard Ratings is calculated for Coil:Cooling:DX:SingleSpeed = COIL COOLING DX SINGLE SPEED 2 3KBTU/HR 11.0EER but not at the AHRI test condition due to curve out of bound.\n   **   ~~~   **  Review the Standard Ratings calculations in the Engineering Reference for this coil type. Also, use Output:Diagnostics, DisplayExtraWarnings for further guidance.\n   ** Warning ** The Standard Ratings is calculated for Coil:Cooling:DX:SingleSpeed = COIL COOLING DX SINGLE SPEED 4 15KBTU/HR 9.3EER but not at the AHRI test condition due to curve out of bound.\n   **   ~~~   **  Review the Standard Ratings calculations in the Engineering Reference for this coil type. Also, use Output:Diagnostics, DisplayExtraWarnings for further guidance.\n   ** Warning ** The Standard Ratings is calculated for Coil:Cooling:DX:SingleSpeed = COIL COOLING DX SINGLE SPEED 3 15KBTU/HR 9.3EER but not at the AHRI test condition due to curve out of bound.\n   **   ~~~   **  Review the Standard Ratings calculations in the Engineering Reference for this coil type. Also, use Output:Diagnostics, DisplayExtraWarnings for further guidance.\n   ** Warning ** The Standard Ratings is calculated for Coil:Cooling:DX:SingleSpeed = COIL COOLING DX SINGLE SPEED 1 260KBTU/HR 8.21EER but not at the AHRI test condition due to curve out of bound.\n   **   ~~~   **  Review the Standard Ratings calculations in the Engineering Reference for this coil type. Also, use Output:Diagnostics, DisplayExtraWarnings for further guidance.\n   ** Warning ** The Standard Ratings is calculated for Coil:Cooling:DX:SingleSpeed = COIL COOLING DX SINGLE SPEED 14 101KBTU/HR 9.7EER but not at the AHRI test condition due to curve out of bound.\n   **   ~~~   **  Review the Standard Ratings calculations in the Engineering Reference for this coil type. Also, use Output:Diagnostics, DisplayExtraWarnings for further guidance.\n   ** Warning ** The Standard Ratings is calculated for Coil:Cooling:DX:SingleSpeed = COIL COOLING DX SINGLE SPEED 18 97KBTU/HR 9.7EER but not at the AHRI test condition due to curve out of bound.\n   **   ~~~   **  Review the Standard Ratings calculations in the Engineering Reference for this coil type. Also, use Output:Diagnostics, DisplayExtraWarnings for further guidance.\n   ** Warning ** The Standard Ratings is calculated for Coil:Cooling:DX:SingleSpeed = COIL COOLING DX SINGLE SPEED 13 67KBTU/HR 9.7EER but not at the AHRI test condition due to curve out of bound.\n   **   ~~~   **  Review the Standard Ratings calculations in the Engineering Reference for this coil type. Also, use Output:Diagnostics, DisplayExtraWarnings for further guidance.\n   ** Warning ** The Standard Ratings is calculated for Coil:Cooling:DX:SingleSpeed = COIL COOLING DX SINGLE SPEED 15 101KBTU/HR 9.7EER but not at the AHRI test condition due to curve out of bound.\n   **   ~~~   **  Review the Standard Ratings calculations in the Engineering Reference for this coil type. Also, use Output:Diagnostics, DisplayExtraWarnings for further guidance.\n   ** Warning ** The Standard Ratings is calculated for Coil:Cooling:DX:SingleSpeed = COIL COOLING DX SINGLE SPEED 16 53KBTU/HR 14.0SEER but not at the AHRI test condition due to curve out of bound.\n   **   ~~~   **  Review the Standard Ratings calculations in the Engineering Reference for this coil type. Also, use Output:Diagnostics, DisplayExtraWarnings for further guidance.\n   ** Warning ** The Standard Ratings is calculated for Coil:Cooling:DX:SingleSpeed = COIL COOLING DX SINGLE SPEED 12 18KBTU/HR 14.0SEER but not at the AHRI test condition due to curve out of bound.\n   **   ~~~   **  Review the Standard Ratings calculations in the Engineering Reference for this coil type. Also, use Output:Diagnostics, DisplayExtraWarnings for further guidance.\n   ** Warning ** The Standard Ratings is calculated for Coil:Cooling:DX:SingleSpeed = COIL COOLING DX SINGLE SPEED 17 7KBTU/HR 14.0SEER but not at the AHRI test condition due to curve out of bound.\n   **   ~~~   **  Review the Standard Ratings calculations in the Engineering Reference for this coil type. Also, use Output:Diagnostics, DisplayExtraWarnings for further guidance.\n   ** Warning ** Missing temperature setpoint for LeavingSetpointModulated mode chiller named PRIMARY CHILLER WATERCOOLED SCROLL 35TONS 0.8KW/TON\n   **   ~~~   **   A temperature setpoint is needed at the outlet node of a chiller in variable flow mode, use a SetpointManager\n   **   ~~~   **   The overall loop setpoint will be assumed for chiller. The simulation continues ... \n   ** Warning ** Missing temperature setpoint for LeavingSetpointModulated mode chiller named SECONDARY CHILLER WATERCOOLED SCROLL 0TONS 0.8KW/TON\n   **   ~~~   **   A temperature setpoint is needed at the outlet node of a chiller in variable flow mode, use a SetpointManager\n   **   ~~~   **   The overall loop setpoint will be assumed for chiller. The simulation continues ... \n   ** Warning ** Missing temperature setpoint for LeavingSetpointModulated mode Boiler named PRIMARY BOILER 2549KBTU/HR 0.833 COMBUSTION EFF\n   **   ~~~   **   A temperature setpoint is needed at the outlet node of a boiler in variable flow mode, use a SetpointManager\n   **   ~~~   **   The overall loop setpoint will be assumed for Boiler. The simulation continues ... \n   ** Warning ** Output:Meter: invalid Name=\"DISTRICTCOOLING:FACILITY\" - not found.\n   ** Warning ** Output:Meter: invalid Name=\"DISTRICTHEATING:FACILITY\" - not found.\n   ** Warning ** Output:Meter:MeterFileOnly requested for \"Electricity:Facility\" (TimeStep), already on \"Output:Meter\". Will report to both eplusout.eso and eplusout.mtr\n   ************* Testing Individual Branch Integrity\n   ************* All Branches passed integrity testing\n   ************* Testing Individual Supply Air Path Integrity\n   ************* All Supply Air Paths passed integrity testing\n   ************* Testing Individual Return Air Path Integrity\n   ************* All Return Air Paths passed integrity testing\n   ************* No node connection errors were found.\n   ************* Beginning Simulation\n   ** Warning ** CalcDoe2DXCoil: Coil:Cooling:DX:SingleSpeed \"COIL COOLING DX SINGLE SPEED 16 53KBTU/HR 14.0SEER\" - Air-cooled condenser inlet dry-bulb temperature below 0 C. Outdoor dry-bulb temperature = -8.90\n   **   ~~~   **  ... Occurrence info = RUN PERIOD 1, 01/02 00:02 - 00:03\n   **   ~~~   ** ... Operation at low ambient temperatures may require special performance curves.\n   ** Warning ** CalcDoe2DXCoil: Coil:Cooling:DX:SingleSpeed \"COIL COOLING DX SINGLE SPEED 13 67KBTU/HR 9.7EER\" - Air-cooled condenser inlet dry-bulb temperature below 0 C. Outdoor dry-bulb temperature = -10.60\n   **   ~~~   **  ... Occurrence info = RUN PERIOD 1, 01/02 07:02 - 07:04\n   **   ~~~   ** ... Operation at low ambient temperatures may require special performance curves.\n   ** Warning ** CalcDoe2DXCoil: Coil:Cooling:DX:SingleSpeed \"COIL COOLING DX SINGLE SPEED 17 7KBTU/HR 14.0SEER\" - Air-cooled condenser inlet dry-bulb temperature below 0 C. Outdoor dry-bulb temperature = -2.38\n   **   ~~~   **  ... Occurrence info = RUN PERIOD 1, 01/03 07:02 - 07:04\n   **   ~~~   ** ... Operation at low ambient temperatures may require special performance curves.\n   ** Warning ** CalcDoe2DXCoil: Coil:Cooling:DX:SingleSpeed \"COIL COOLING DX SINGLE SPEED 17 7KBTU/HR 14.0SEER\" - Full load outlet air dry-bulb temperature < 2C. This indicates the possibility of coil frost/freeze. Outlet temperature = -4.36 C.\n   **   ~~~   **  ...Occurrence info = RUN PERIOD 1, 01/03 07:02 - 07:04\n   **   ~~~   ** ... Possible reasons for low outlet air dry-bulb temperatures are: This DX coil\n   **   ~~~   **    1) may have a low inlet air dry-bulb temperature. Inlet air temperature = 11.857 C.\n   **   ~~~   **    2) may have a low air flow rate per watt of cooling capacity. Check inputs.\n   **   ~~~   **    3) is used as part of a HX assisted cooling coil which uses a high sensible effectiveness. Check inputs.\n   ** Warning ** CalcDoe2DXCoil: Coil:Cooling:DX:SingleSpeed \"COIL COOLING DX SINGLE SPEED 11 7KBTU/HR 10.9EER\" - Air-cooled condenser inlet dry-bulb temperature below 0 C. Outdoor dry-bulb temperature = -10.00\n   **   ~~~   **  ... Occurrence info = RUN PERIOD 1, 01/04 09:53 - 09:56\n   **   ~~~   ** ... Operation at low ambient temperatures may require special performance curves.\n   ** Warning ** CalcDoe2DXCoil: Coil:Cooling:DX:SingleSpeed \"COIL COOLING DX SINGLE SPEED 7 4KBTU/HR 11.0EER\" - Air-cooled condenser inlet dry-bulb temperature below 0 C. Outdoor dry-bulb temperature = -9.85\n   **   ~~~   **  ... Occurrence info = RUN PERIOD 1, 01/04 10:08 - 10:15\n   **   ~~~   ** ... Operation at low ambient temperatures may require special performance curves.\n   ** Warning ** CalcDoe2DXCoil: Coil:Cooling:DX:SingleSpeed \"COIL COOLING DX SINGLE SPEED 4 15KBTU/HR 9.3EER\" - Air-cooled condenser inlet dry-bulb temperature below 0 C. Outdoor dry-bulb temperature = -9.70\n   **   ~~~   **  ... Occurrence info = RUN PERIOD 1, 01/04 10:15 - 10:22\n   **   ~~~   ** ... Operation at low ambient temperatures may require special performance curves.\n   ** Warning ** SimHVAC: Maximum iterations (20) exceeded for all HVAC loops, at RUN PERIOD 1, 01/08 10:23 - 10:26\n   **   ~~~   ** The solution for one or more of the Air Loop HVAC systems did not appear to converge\n   **   ~~~   ** ...use Output:Diagnostics,DisplayExtraWarnings; to show more details on each max iteration exceeded.\n   ** Warning ** CalcDoe2DXCoil: Coil:Cooling:DX:SingleSpeed \"COIL COOLING DX SINGLE SPEED 7 4KBTU/HR 11.0EER\" - Full load outlet air dry-bulb temperature < 2C. This indicates the possibility of coil frost/freeze. Outlet temperature = 1.19 C.\n   **   ~~~   **  ...Occurrence info = RUN PERIOD 1, 01/08 10:23 - 10:26\n   **   ~~~   ** ... Possible reasons for low outlet air dry-bulb temperatures are: This DX coil\n   **   ~~~   **    1) may have a low inlet air dry-bulb temperature. Inlet air temperature = 14.855 C.\n   **   ~~~   **    2) may have a low air flow rate per watt of cooling capacity. Check inputs.\n   **   ~~~   **    3) is used as part of a HX assisted cooling coil which uses a high sensible effectiveness. Check inputs.\n   ** Warning ** SimHVAC: Maximum iterations (20) exceeded for all HVAC loops, at RUN PERIOD 1, 01/08 10:45 - 11:00\n   **   ~~~   ** The solution for one or more of the Air Loop HVAC systems did not appear to converge\n   ** Warning ** SimHVAC: Maximum iterations (20) exceeded for all HVAC loops, at RUN PERIOD 1, 01/08 11:00 - 11:15\n   **   ~~~   ** The solution for one or more of the Air Loop HVAC systems did not appear to converge\n   ** Warning ** SimHVAC: Maximum iterations (20) exceeded for all HVAC loops, at RUN PERIOD 1, 01/08 11:00 - 11:08\n   **   ~~~   ** The solution for one or more of the Air Loop HVAC systems did not appear to converge\n   ** Warning ** SimHVAC: Maximum iterations (20) exceeded for all HVAC loops, at RUN PERIOD 1, 01/08 11:08 - 11:15\n   **   ~~~   ** The solution for one or more of the Air Loop HVAC systems did not appear to converge\n   ** Warning ** CalcDoe2DXCoil: Coil:Cooling:DX:SingleSpeed \"COIL COOLING DX SINGLE SPEED 5 16KBTU/HR 9.3EER\" - Air-cooled condenser inlet dry-bulb temperature below 0 C. Outdoor dry-bulb temperature = -16.83\n   **   ~~~   **  ... Occurrence info = RUN PERIOD 1, 01/08 13:30 - 13:45\n   **   ~~~   ** ... Operation at low ambient temperatures may require special performance curves.\n   ** Warning ** SimHVAC: Maximum iterations (20) exceeded for all HVAC loops, at RUN PERIOD 1, 01/08 15:15 - 15:30\n   **   ~~~   ** The solution for one or more of the Air Loop HVAC systems did not appear to converge\n   ** Warning ** SimHVAC: Maximum iterations (20) exceeded for all HVAC loops, at RUN PERIOD 1, 01/08 15:15 - 15:22\n   **   ~~~   ** The solution for one or more of the Air Loop HVAC systems did not appear to converge\n   ** Warning ** SimHVAC: Maximum iterations (20) exceeded for all HVAC loops, at RUN PERIOD 1, 01/08 15:23 - 15:30\n   **   ~~~   ** The solution for one or more of the Air Loop HVAC systems did not appear to converge\n   ** Warning ** SimHVAC: Maximum iterations (20) exceeded for all HVAC loops, at RUN PERIOD 1, 01/08 15:30 - 15:45\n   **   ~~~   ** The solution for one or more of the Air Loop HVAC systems did not appear to converge\n   ** Warning ** SimHVAC: Maximum iterations (20) exceeded for all HVAC loops, at RUN PERIOD 1, 01/08 15:30 - 15:38\n   **   ~~~   ** The solution for one or more of the Air Loop HVAC systems did not appear to converge\n   ** Warning ** SimHVAC: Maximum iterations (20) exceeded for all HVAC loops, at RUN PERIOD 1, 01/08 15:38 - 15:45\n   **   ~~~   ** The solution for one or more of the Air Loop HVAC systems did not appear to converge\n   ** Warning ** CalcDoe2DXCoil: Coil:Cooling:DX:SingleSpeed \"COIL COOLING DX SINGLE SPEED 16 53KBTU/HR 14.0SEER\" - Full load outlet air dry-bulb temperature < 2C. This indicates the possibility of coil frost/freeze. Outlet temperature = 1.61 C.\n   **   ~~~   **  ...Occurrence info = RUN PERIOD 1, 01/09 00:02 - 00:03\n   **   ~~~   ** ... Possible reasons for low outlet air dry-bulb temperatures are: This DX coil\n   **   ~~~   **    1) may have a low inlet air dry-bulb temperature. Inlet air temperature = 14.400 C.\n   **   ~~~   **    2) may have a low air flow rate per watt of cooling capacity. Check inputs.\n   **   ~~~   **    3) is used as part of a HX assisted cooling coil which uses a high sensible effectiveness. Check inputs.\n   ** Warning ** SimHVAC: Maximum iterations (20) exceeded for all HVAC loops, at RUN PERIOD 1, 01/09 09:45 - 10:00\n   **   ~~~   ** The solution for one or more of the Air Loop HVAC systems did not appear to converge\n   ** Warning ** SimHVAC: Maximum iterations (20) exceeded for all HVAC loops, at RUN PERIOD 1, 01/09 10:00 - 10:15\n   **   ~~~   ** The solution for one or more of the Air Loop HVAC systems did not appear to converge\n   ** Warning ** SimHVAC: Maximum iterations (20) exceeded for all HVAC loops, at RUN PERIOD 1, 01/09 10:00 - 10:05\n   **   ~~~   ** The solution for one or more of the Air Loop HVAC systems did not appear to converge\n   ** Warning ** CalcDoe2DXCoil: Coil:Cooling:DX:SingleSpeed \"COIL COOLING DX SINGLE SPEED 9 19KBTU/HR 9.3EER\" - Air-cooled condenser inlet dry-bulb temperature below 0 C. Outdoor dry-bulb temperature = -16.10\n   **   ~~~   **  ... Occurrence info = RUN PERIOD 1, 01/09 11:53 - 12:00\n   **   ~~~   ** ... Operation at low ambient temperatures may require special performance curves.\n   ** Warning ** CalcDoe2DXCoil: Coil:Cooling:DX:SingleSpeed \"COIL COOLING DX SINGLE SPEED 6 16KBTU/HR 9.3EER\" - Air-cooled condenser inlet dry-bulb temperature below 0 C. Outdoor dry-bulb temperature = -16.10\n   **   ~~~   **  ... Occurrence info = RUN PERIOD 1, 01/26 15:10 - 15:15\n   **   ~~~   ** ... Operation at low ambient temperatures may require special performance curves.\n   ** Warning ** CalcDoe2DXCoil: Coil:Cooling:DX:SingleSpeed \"COIL COOLING DX SINGLE SPEED 10 18KBTU/HR 9.3EER\" - Air-cooled condenser inlet dry-bulb temperature below 0 C. Outdoor dry-bulb temperature = -16.10\n   **   ~~~   **  ... Occurrence info = RUN PERIOD 1, 01/26 15:23 - 15:30\n   **   ~~~   ** ... Operation at low ambient temperatures may require special performance curves.\n   ** Warning ** CalcDoe2DXCoil: Coil:Cooling:DX:SingleSpeed \"COIL COOLING DX SINGLE SPEED 3 15KBTU/HR 9.3EER\" - Air-cooled condenser inlet dry-bulb temperature below 0 C. Outdoor dry-bulb temperature = -11.93\n   **   ~~~   **  ... Occurrence info = RUN PERIOD 1, 02/06 10:08 - 10:15\n   **   ~~~   ** ... Operation at low ambient temperatures may require special performance curves.\n   ** Warning ** CalcDoe2DXCoil: Coil:Cooling:DX:SingleSpeed \"COIL COOLING DX SINGLE SPEED 2 3KBTU/HR 11.0EER\" - Full load outlet air dry-bulb temperature < 2C. This indicates the possibility of coil frost/freeze. Outlet temperature = 1.13 C.\n   **   ~~~   **  ...Occurrence info = RUN PERIOD 1, 02/20 21:45 - 22:00\n   **   ~~~   ** ... Possible reasons for low outlet air dry-bulb temperatures are: This DX coil\n   **   ~~~   **    1) may have a low inlet air dry-bulb temperature. Inlet air temperature = 17.052 C.\n   **   ~~~   **    2) may have a low air flow rate per watt of cooling capacity. Check inputs.\n   **   ~~~   **    3) is used as part of a HX assisted cooling coil which uses a high sensible effectiveness. Check inputs.\n   ** Warning ** CalcDoe2DXCoil: Coil:Cooling:DX:SingleSpeed \"COIL COOLING DX SINGLE SPEED 2 3KBTU/HR 11.0EER\" - Air-cooled condenser inlet dry-bulb temperature below 0 C. Outdoor dry-bulb temperature = -0.83\n   **   ~~~   **  ... Occurrence info = RUN PERIOD 1, 03/22 20:30 - 20:45\n   **   ~~~   ** ... Operation at low ambient temperatures may require special performance curves.\n   ** Warning ** CalcDoe2DXCoil: Coil:Cooling:DX:SingleSpeed \"COIL COOLING DX SINGLE SPEED 12 18KBTU/HR 14.0SEER\" - Full load outlet air dry-bulb temperature < 2C. This indicates the possibility of coil frost/freeze. Outlet temperature = -1.19 C.\n   **   ~~~   **  ...Occurrence info = RUN PERIOD 1, 04/12 12:45 - 13:00\n   **   ~~~   ** ... Possible reasons for low outlet air dry-bulb temperatures are: This DX coil\n   **   ~~~   **    1) may have a low inlet air dry-bulb temperature. Inlet air temperature = 16.960 C.\n   **   ~~~   **    2) may have a low air flow rate per watt of cooling capacity. Check inputs.\n   **   ~~~   **    3) is used as part of a HX assisted cooling coil which uses a high sensible effectiveness. Check inputs.\n   ** Warning ** CalcDoe2DXCoil: Coil:Cooling:DX:SingleSpeed \"COIL COOLING DX SINGLE SPEED 18 97KBTU/HR 9.7EER\" - Full load outlet air dry-bulb temperature < 2C. This indicates the possibility of coil frost/freeze. Outlet temperature = -0.19 C.\n   **   ~~~   **  ...Occurrence info = RUN PERIOD 1, 04/12 14:30 - 14:45\n   **   ~~~   ** ... Possible reasons for low outlet air dry-bulb temperatures are: This DX coil\n   **   ~~~   **    1) may have a low inlet air dry-bulb temperature. Inlet air temperature = 17.650 C.\n   **   ~~~   **    2) may have a low air flow rate per watt of cooling capacity. Check inputs.\n   **   ~~~   **    3) is used as part of a HX assisted cooling coil which uses a high sensible effectiveness. Check inputs.\n   ** Warning ** CalcDoe2DXCoil: Coil:Cooling:DX:SingleSpeed \"COIL COOLING DX SINGLE SPEED 1 260KBTU/HR 8.21EER\" - Full load outlet air dry-bulb temperature < 2C. This indicates the possibility of coil frost/freeze. Outlet temperature = 1.71 C.\n   **   ~~~   **  ...Occurrence info = RUN PERIOD 1, 04/30 14:45 - 14:52\n   **   ~~~   ** ... Possible reasons for low outlet air dry-bulb temperatures are: This DX coil\n   **   ~~~   **    1) may have a low inlet air dry-bulb temperature. Inlet air temperature = 19.400 C.\n   **   ~~~   **    2) may have a low air flow rate per watt of cooling capacity. Check inputs.\n   **   ~~~   **    3) is used as part of a HX assisted cooling coil which uses a high sensible effectiveness. Check inputs.\n   ** Warning ** CalcDoe2DXCoil: Coil:Cooling:DX:SingleSpeed \"COIL COOLING DX SINGLE SPEED 14 101KBTU/HR 9.7EER\" - Full load outlet air dry-bulb temperature < 2C. This indicates the possibility of coil frost/freeze. Outlet temperature = -3.10E-003 C.\n   **   ~~~   **  ...Occurrence info = RUN PERIOD 1, 05/08 12:30 - 12:45\n   **   ~~~   ** ... Possible reasons for low outlet air dry-bulb temperatures are: This DX coil\n   **   ~~~   **    1) may have a low inlet air dry-bulb temperature. Inlet air temperature = 19.125 C.\n   **   ~~~   **    2) may have a low air flow rate per watt of cooling capacity. Check inputs.\n   **   ~~~   **    3) is used as part of a HX assisted cooling coil which uses a high sensible effectiveness. Check inputs.\n   ** Warning ** CalcDoe2DXCoil: Coil:Cooling:DX:SingleSpeed \"COIL COOLING DX SINGLE SPEED 15 101KBTU/HR 9.7EER\" - Full load outlet air dry-bulb temperature < 2C. This indicates the possibility of coil frost/freeze. Outlet temperature = -3.10E-003 C.\n   **   ~~~   **  ...Occurrence info = RUN PERIOD 1, 05/08 12:30 - 12:45\n   **   ~~~   ** ... Possible reasons for low outlet air dry-bulb temperatures are: This DX coil\n   **   ~~~   **    1) may have a low inlet air dry-bulb temperature. Inlet air temperature = 19.125 C.\n   **   ~~~   **    2) may have a low air flow rate per watt of cooling capacity. Check inputs.\n   **   ~~~   **    3) is used as part of a HX assisted cooling coil which uses a high sensible effectiveness. Check inputs.\n   ** Warning ** CalcDoe2DXCoil: Coil:Cooling:DX:SingleSpeed \"COIL COOLING DX SINGLE SPEED 8 54KBTU/HR 9.3EER\" - Air-cooled condenser inlet dry-bulb temperature below 0 C. Outdoor dry-bulb temperature = -2.20\n   **   ~~~   **  ... Occurrence info = RUN PERIOD 1, 11/30 14:45 - 14:52\n   **   ~~~   ** ... Operation at low ambient temperatures may require special performance curves.\n   ************* Simulation Error Summary *************\n   ************* There are 9 unused schedules in input.\n   ************* There are 9 unused week schedules in input.\n   ************* There are 35 unused day schedules in input.\n   ************* Use Output:Diagnostics,DisplayUnusedSchedules; to see them.\n   *************\n   ************* ===== Recurring Error Summary =====\n   ************* The following recurring error messages occurred.\n   *************\n   *************  ** Warning ** Plant loop falling below lower temperature limit, PlantLoop=\"MAIN SERVICE WATER LOOP\"\n   *************  **   ~~~   **   This error occurred 125 total times;\n   *************  **   ~~~   **   during Warmup 1 times;\n   *************  **   ~~~   **   during Sizing 0 times.\n   *************  **   ~~~   **   Min=2.950503\n   *************\n   *************  ** Warning ** CalcDoe2DXCoil: Coil:Cooling:DX:SingleSpeed=\"COIL COOLING DX SINGLE SPEED 16 53KBTU/HR 14.0SEER\" - Low condenser dry-bulb temperature error continues...\n   *************  **   ~~~   **   This error occurred 752 total times;\n   *************  **   ~~~   **   during Warmup 0 times;\n   *************  **   ~~~   **   during Sizing 0 times.\n   *************  **   ~~~   **   Max=-0.15 [C]  Min=-23.9 [C]\n   *************\n   *************  ** Warning ** CalcDoe2DXCoil: Coil:Cooling:DX:SingleSpeed=\"COIL COOLING DX SINGLE SPEED 13 67KBTU/HR 9.7EER\" - Low condenser dry-bulb temperature error continues...\n   *************  **   ~~~   **   This error occurred 340 total times;\n   *************  **   ~~~   **   during Warmup 0 times;\n   *************  **   ~~~   **   during Sizing 0 times.\n   *************  **   ~~~   **   Max=-0.15 [C]  Min=-23.9 [C]\n   *************\n   *************  ** Warning ** CalcDoe2DXCoil: Coil:Cooling:DX:SingleSpeed=\"COIL COOLING DX SINGLE SPEED 17 7KBTU/HR 14.0SEER\" - Low condenser dry-bulb temperature error continues...\n   *************  **   ~~~   **   This error occurred 98 total times;\n   *************  **   ~~~   **   during Warmup 0 times;\n   *************  **   ~~~   **   during Sizing 0 times.\n   *************  **   ~~~   **   Max=-0.275 [C]  Min=-6.65 [C]\n   *************\n   *************  ** Warning ** CalcDoe2DXCoil: Coil:Cooling:DX:SingleSpeed=\"COIL COOLING DX SINGLE SPEED 17 7KBTU/HR 14.0SEER\" - Full load outlet temperature indicates a possibility of frost/freeze error continues. Outlet air temperature statistics follow:\n   *************  **   ~~~   **   This error occurred 295 total times;\n   *************  **   ~~~   **   during Warmup 0 times;\n   *************  **   ~~~   **   during Sizing 0 times.\n   *************  **   ~~~   **   Max=1.998061  Min=-5.194078\n   *************\n   *************  ** Warning ** CalcDoe2DXCoil: Coil:Cooling:DX:SingleSpeed=\"COIL COOLING DX SINGLE SPEED 11 7KBTU/HR 10.9EER\" - Low condenser dry-bulb temperature error continues...\n   *************  **   ~~~   **   This error occurred 3362 total times;\n   *************  **   ~~~   **   during Warmup 0 times;\n   *************  **   ~~~   **   during Sizing 0 times.\n   *************  **   ~~~   **   Max=-0.15 [C]  Min=-23.05 [C]\n   *************\n   *************  ** Warning ** CalcDoe2DXCoil: Coil:Cooling:DX:SingleSpeed=\"COIL COOLING DX SINGLE SPEED 7 4KBTU/HR 11.0EER\" - Low condenser dry-bulb temperature error continues...\n   *************  **   ~~~   **   This error occurred 6539 total times;\n   *************  **   ~~~   **   during Warmup 0 times;\n   *************  **   ~~~   **   during Sizing 0 times.\n   *************  **   ~~~   **   Max=-2.500000E-002 [C]  Min=-23.05 [C]\n   *************\n   *************  ** Warning ** CalcDoe2DXCoil: Coil:Cooling:DX:SingleSpeed=\"COIL COOLING DX SINGLE SPEED 4 15KBTU/HR 9.3EER\" - Low condenser dry-bulb temperature error continues...\n   *************  **   ~~~   **   This error occurred 2955 total times;\n   *************  **   ~~~   **   during Warmup 0 times;\n   *************  **   ~~~   **   during Sizing 0 times.\n   *************  **   ~~~   **   Max=-0.1 [C]  Min=-22.25 [C]\n   *************\n   *************  ** Warning ** CalcDoe2DXCoil: Coil:Cooling:DX:SingleSpeed=\"COIL COOLING DX SINGLE SPEED 7 4KBTU/HR 11.0EER\" - Full load outlet temperature indicates a possibility of frost/freeze error continues. Outlet air temperature statistics follow:\n   *************  **   ~~~   **   This error occurred 881 total times;\n   *************  **   ~~~   **   during Warmup 0 times;\n   *************  **   ~~~   **   during Sizing 0 times.\n   *************  **   ~~~   **   Max=1.99977  Min=0.109678\n   *************\n   *************  ** Warning ** CalcDoe2DXCoil: Coil:Cooling:DX:SingleSpeed=\"COIL COOLING DX SINGLE SPEED 5 16KBTU/HR 9.3EER\" - Low condenser dry-bulb temperature error continues...\n   *************  **   ~~~   **   This error occurred 2304 total times;\n   *************  **   ~~~   **   during Warmup 0 times;\n   *************  **   ~~~   **   during Sizing 0 times.\n   *************  **   ~~~   **   Max=-0.15 [C]  Min=-20.6 [C]\n   *************\n   *************  ** Warning ** CalcDoe2DXCoil: Coil:Cooling:DX:SingleSpeed=\"COIL COOLING DX SINGLE SPEED 16 53KBTU/HR 14.0SEER\" - Full load outlet temperature indicates a possibility of frost/freeze error continues. Outlet air temperature statistics follow:\n   *************  **   ~~~   **   This error occurred 2 total times;\n   *************  **   ~~~   **   during Warmup 0 times;\n   *************  **   ~~~   **   during Sizing 0 times.\n   *************  **   ~~~   **   Max=1.954135  Min=1.605497\n   *************\n   *************  ** Warning ** SimHVAC: Exceeding Maximum iterations for all HVAC loops, during RUN PERIOD 1 continues\n   *************  **   ~~~   **   This error occurred 167 total times;\n   *************  **   ~~~   **   during Warmup 0 times;\n   *************  **   ~~~   **   during Sizing 0 times.\n   *************\n   *************  ** Warning ** CalcDoe2DXCoil: Coil:Cooling:DX:SingleSpeed=\"COIL COOLING DX SINGLE SPEED 9 19KBTU/HR 9.3EER\" - Low condenser dry-bulb temperature error continues...\n   *************  **   ~~~   **   This error occurred 1692 total times;\n   *************  **   ~~~   **   during Warmup 0 times;\n   *************  **   ~~~   **   during Sizing 0 times.\n   *************  **   ~~~   **   Max=-0.15 [C]  Min=-19.7 [C]\n   *************\n   *************  ** Warning ** CalcDoe2DXCoil: Coil:Cooling:DX:SingleSpeed=\"COIL COOLING DX SINGLE SPEED 6 16KBTU/HR 9.3EER\" - Low condenser dry-bulb temperature error continues...\n   *************  **   ~~~   **   This error occurred 801 total times;\n   *************  **   ~~~   **   during Warmup 0 times;\n   *************  **   ~~~   **   during Sizing 0 times.\n   *************  **   ~~~   **   Max=-0.15 [C]  Min=-16.4 [C]\n   *************\n   *************  ** Warning ** CalcDoe2DXCoil: Coil:Cooling:DX:SingleSpeed=\"COIL COOLING DX SINGLE SPEED 10 18KBTU/HR 9.3EER\" - Low condenser dry-bulb temperature error continues...\n   *************  **   ~~~   **   This error occurred 673 total times;\n   *************  **   ~~~   **   during Warmup 0 times;\n   *************  **   ~~~   **   during Sizing 0 times.\n   *************  **   ~~~   **   Max=-0.15 [C]  Min=-16.25 [C]\n   *************\n   *************  ** Warning ** CalcDoe2DXCoil: Coil:Cooling:DX:SingleSpeed=\"COIL COOLING DX SINGLE SPEED 3 15KBTU/HR 9.3EER\" - Low condenser dry-bulb temperature error continues...\n   *************  **   ~~~   **   This error occurred 994 total times;\n   *************  **   ~~~   **   during Warmup 0 times;\n   *************  **   ~~~   **   during Sizing 0 times.\n   *************  **   ~~~   **   Max=-0.275 [C]  Min=-19.7 [C]\n   *************\n   *************  ** Warning ** CalcDoe2DXCoil: Coil:Cooling:DX:SingleSpeed=\"COIL COOLING DX SINGLE SPEED 2 3KBTU/HR 11.0EER\" - Full load outlet temperature indicates a possibility of frost/freeze error continues. Outlet air temperature statistics follow:\n   *************  **   ~~~   **   This error occurred 598 total times;\n   *************  **   ~~~   **   during Warmup 0 times;\n   *************  **   ~~~   **   during Sizing 0 times.\n   *************  **   ~~~   **   Max=1.997271  Min=-1.377908\n   *************\n   *************  ** Warning ** CalcDoe2DXCoil: Coil:Cooling:DX:SingleSpeed=\"COIL COOLING DX SINGLE SPEED 2 3KBTU/HR 11.0EER\" - Low condenser dry-bulb temperature error continues...\n   *************  **   ~~~   **   This error occurred 50 total times;\n   *************  **   ~~~   **   during Warmup 0 times;\n   *************  **   ~~~   **   during Sizing 0 times.\n   *************  **   ~~~   **   Max=-2.500000E-002 [C]  Min=-3.9 [C]\n   *************\n   *************  ** Warning ** CalcDoe2DXCoil: Coil:Cooling:DX:SingleSpeed=\"COIL COOLING DX SINGLE SPEED 12 18KBTU/HR 14.0SEER\" - Full load outlet temperature indicates a possibility of frost/freeze error continues. Outlet air temperature statistics follow:\n   *************  **   ~~~   **   This error occurred 735 total times;\n   *************  **   ~~~   **   during Warmup 0 times;\n   *************  **   ~~~   **   during Sizing 0 times.\n   *************  **   ~~~   **   Max=1.995312  Min=-3.636938\n   *************\n   *************  ** Warning ** CalcDoe2DXCoil: Coil:Cooling:DX:SingleSpeed=\"COIL COOLING DX SINGLE SPEED 18 97KBTU/HR 9.7EER\" - Full load outlet temperature indicates a possibility of frost/freeze error continues. Outlet air temperature statistics follow:\n   *************  **   ~~~   **   This error occurred 354 total times;\n   *************  **   ~~~   **   during Warmup 0 times;\n   *************  **   ~~~   **   during Sizing 0 times.\n   *************  **   ~~~   **   Max=1.988937  Min=-6.770456\n   *************\n   *************  ** Warning ** CalcDoe2DXCoil: Coil:Cooling:DX:SingleSpeed=\"COIL COOLING DX SINGLE SPEED 1 260KBTU/HR 8.21EER\" - Full load outlet temperature indicates a possibility of frost/freeze error continues. Outlet air temperature statistics follow:\n   *************  **   ~~~   **   This error occurred 168 total times;\n   *************  **   ~~~   **   during Warmup 0 times;\n   *************  **   ~~~   **   during Sizing 0 times.\n   *************  **   ~~~   **   Max=1.99022  Min=-0.278695\n   *************\n   *************  ** Warning ** CalcDoe2DXCoil: Coil:Cooling:DX:SingleSpeed=\"COIL COOLING DX SINGLE SPEED 14 101KBTU/HR 9.7EER\" - Full load outlet temperature indicates a possibility of frost/freeze error continues. Outlet air temperature statistics follow:\n   *************  **   ~~~   **   This error occurred 117 total times;\n   *************  **   ~~~   **   during Warmup 0 times;\n   *************  **   ~~~   **   during Sizing 0 times.\n   *************  **   ~~~   **   Max=1.99022  Min=-3.095976E-003\n   *************\n   *************  ** Warning ** CalcDoe2DXCoil: Coil:Cooling:DX:SingleSpeed=\"COIL COOLING DX SINGLE SPEED 15 101KBTU/HR 9.7EER\" - Full load outlet temperature indicates a possibility of frost/freeze error continues. Outlet air temperature statistics follow:\n   *************  **   ~~~   **   This error occurred 143 total times;\n   *************  **   ~~~   **   during Warmup 0 times;\n   *************  **   ~~~   **   during Sizing 0 times.\n   *************  **   ~~~   **   Max=1.99022  Min=-3.095976E-003\n   *************\n   *************  ** Warning ** CalcDoe2DXCoil: Coil:Cooling:DX:SingleSpeed=\"COIL COOLING DX SINGLE SPEED 8 54KBTU/HR 9.3EER\" - Low condenser dry-bulb temperature error continues...\n   *************  **   ~~~   **   This error occurred 7 total times;\n   *************  **   ~~~   **   during Warmup 0 times;\n   *************  **   ~~~   **   during Sizing 0 times.\n   *************  **   ~~~   **   Max=-1.7 [C]  Min=-2.2 [C]\n   *************\n   *************\n   ************* ===== Final Error Summary =====\n   ************* The following error categories occurred.  Consider correcting or noting.\n   ************* Nominally Unused Constructions\n   ************* ..The nominally unused constructions warning is provided to alert you to potential conditions that can cause\n   ************* ..extra time during simulation. Each construction is calculated by the algorithm indicated in the HeatBalanceAlgorithm\n   ************* ..object. You may remove the constructions indicated (when you use the DisplayExtraWarnings option).\n   *************\n   ************* EnergyPlus Warmup Error Summary. During Warmup: 0 Warning; 0 Severe Errors.\n   ************* EnergyPlus Sizing Error Summary. During Sizing: 163 Warning; 0 Severe Errors.\n   ************* EnergyPlus Completed Successfully-- 24354 Warning; 0 Severe Errors; Elapsed Time=00hr 04min 47.43sec\n",
   "file_format_version" : "0.0.1",
   "file_paths" : [ "../weather", "../seeds", "../seed" ],
   "hash" : "74F15E81",
   "measure_paths" : [ "../measures" ],
   "name" : "LHS Autogenerated 267",
   "osa_id" : "4fef0e0f-5396-4c55-a6e1-2cd6803db3ab",
   "osd_id" : "326cd830-b41b-41b6-8ecf-23156d1022ef",
   "run_directory" : "./run",
   "seed_file" : "seed.osm",
   "started_at" : "20170710T183353Z",
   "steps" : [
      {
         "arguments" : {
            "__SKIP__" : false,
            "building_type" : "LargeHotel",
            "climate_zone" : "NECB HDD Method",
            "epw_file" : "CAN_ON_Ottawa.716280_CWEC.epw",
            "template" : "NECB 2011"
         },
         "measure_dir_name" : "create_prototype_building",
         "name" : "create_prototype_building",
         "result" : {
            "completed_at" : "20170710T183543Z",
            "measure_class_name" : "CreatePrototypeBuilding",
            "measure_display_name" : "Create Prototype Building",
            "measure_name" : "create_prototype_building",
            "measure_taxonomy" : "Whole Building.Space Types",
            "measure_type" : "ModelMeasure",
            "measure_uid" : "ae90fsd7-a651-467a-bc8d-29d310b0f937",
            "measure_version_id" : "c6ec5c18-5595-459f-a082-09a19c8c869c",
            "measure_version_modified" : "20170519T182315Z",
            "measure_xml_checksum" : "057E8D9D",
            "started_at" : "20170710T183355Z",
            "stderr" : "",
[...]
qt1ha1VVZLiSry0qd6VF58THHcjqvLjxqVzlV1apMt/Ksnzv5rlrq+Z/X9RTmePpU/frbO/XvN7+9Vadv3r776Zcf1M9vfvjpWP148vaknMCrbNXWt55p0VQaqSSKUzWZXWV1MFJ5pEmivGSUNS/BZFxCcXntjc6DndnrqPPyi0us01k8UVMvTvSrMPLStmeW/J3sVj547Dx/rNTFXN+iPbBdvIR1wp83m/Ry33/m0z2f7O0nvr7wZmGqpnGUrWH6SUc9+ebg4Pj45OTJhoNniEMc4hCHOMQhDnGIQxziEOfPiaOS2VX2n8DK1+ZB5Xt3hijWPmlIQxrSkIY0pCENaUhDGtKQppjmJv9o1h9ozsOZJg5xiEMc4hCHOMQhDnGIQxzi1MG5/91Ax/xu4OlM+t3AvpO/w/b8+d7e4SFJSUpSkpKUpCQlKUlJSlKSkpSkJN0OUjcn9VKJtJeT9vuuezAkKUlJSlKSkpSkJCUpSUlKUpKSlKTbQdo3pK/iQCB1D3NSx9nf7/dJSlKSkpSkJCUpSUlKUpKSlKQkJel2kO4Z0neXM4n0ICc9zI7BC5KSlKQkJSlJSUpSkpKUpCQlKUlJuh2kA0P6L+1LpPs56cuXx8f7+yQlKUlJSlKSkpSkJCUpSUlKUpKSdDtIh/lfJmZaIh3mpMfHwyFJSUpSkpKUpCQlKUlJSlKSkpSkJN0W0n1D+jqSkgXdQU56cOC6gwFJSUpSkpKUpCQlKUlJSlKSkpSkJG2MdInix95Ne63YbTcN0lCfXnpT3U31bdp+8mM0i5P1GHdfnvkyuNKTJIgmoU5yhTUST5+q576vPJUrqZsgvVRJdKWV319zZnI97nrTqZ747Zbxbu2sOWF5dL00jdut21ZHDXsVT7rLTnLLn5Skd6Ge4+16k9FlFGfnt0J9UYF2oXERTdLdGx2ML1OjcR6FfnmN+b05ne6+8BKd3aBUnd4lu3vqVRjv9tXp6HL3RP34azi6SncnUZzdgv/8on45OX5hnpbqK7Wnfj39j3ozGpnnPtkpuqnfP01GcTBN/yE+5/unfnD99WHxHFks01KBf9QamYo/zi6SF0x0fOY4vZbKL91Ryw+SaejdPQsmYTa2ex5Go0/ftWTATHX+GlR6N83ON1fv6Ufv2ps/WnimOa692FSnOlJ+cDUNdXeib06vx+3WN1+B7Ki9Xi//n7XTzej6Xuplwu9/b4XeuQ5bz1q+vvBmYaqmcXQRhLrVmY+c3baeOd1ep3XthTO9+PfIrErZOdlCc3x8ctL63Cml44J0+iCdPZDOAKQzBOnsg3QOQDqHIB2nhxJCVbSDKmkHVdMOqqgdVFU7qLJ2UHXtoArbQVW2i6psF7ZWoyrbRVW2W6myVTK7ulr5mepSO1qs/Qoy4jWqJiNeoWoy4vWpJiPO+2oy4qyvJiPO+Woy4oyvJiPO92oy8kZWUQdUx/I2VlEHVMnyJlZRB1TL8hZWUQdUzfIGVlEHVM/y9lVRB7Uug+pZ3rsq6pSv55tgklbfts7NQ+V1xMtTUUe8PBV1xMtTUUec7hV1xOleUUec7hV1xOleUUec7hV15P2rqhCqouUdrKoQqqblPayqEKqq5V2sqhCqruV9rKoQqrLlnayqEGytRlW2vJlVFSpf2ffvW6z9XWFpm+ut/Ife/IeHARbu5i36m7fY27zFYPMWw81b7G/e4mDzFoebt1jZ2Tfl0cD8dhqY4E4DM9xpYIo7Dcxxp4FJ7jQwy50GprnTwDx3G5jnbhP7eAPz3G1gnrv15vnan28s11bNf98RYCHfDZiFfDNgFvK9gFnISy7MQl5xYRbygguzkNdbmIW83MIsCt65xnnIb/3hPOR3BXEe8huGOI8GpnhBW4XzaGCSF7RVOI8GpnlBW4Xb/+S2CufRxD7ewEZe0FbhPOrN87W/klWurZr/jBbAQr4bMAv5ZsAs5HsBs5CXXJiFvOLCLOQFF2Yhr7cwC/mzUTCLgrYK5yG3VTgPua3CechtFc5D/ogWzkP+XCLOQ/7IIs5D/jQjzkP+oCPOo4F5XtBW4Tya2Mcb2MgL2iqcR72tfO2PkZRrq+a/VgKwkO8GzEK+GTAL+V7ALOS2CmYht1UwC7mtglnIbRXMQl5uYRYFbRXOQ26rcB5yW4XzkNsqnIfcVuE85LYK5yG3VTgPua3CechtFc6jgXle0FbhPJrYxxvYyAvaKpxHva18beZ7ubZqHgoPsJDvBsxCvhkwC/lewCzktgpmIbdVMAu5rYJZyG0VzEJebmEWBW0VzkNuq3AecluF85DbKpyH3FbhPOS2Cucht1U4D7mtwnnIbRXOo4F5XtBW4Tya2Mcb2MgL2iqcR72tfG20brm2ap69C7CQ7wbMQr4ZMAv5XsAs5LYKZiG3VTALua2CWchtFcxCXm5hFgVtFc5DbqtwHnJbhfOQ2yqch9xW4TzktgrnIbdVOA+5rcJ5yG0VzqOBeV7QVuE8mtjHG9jIC9oqnEe9rXxtgmG5tmoecQiwkO8GzEK+GTAL+V7ALOS2CmYht1UwC7mtglnIbRXMoih3CmRRGLaG8ihKq0J5FAVZoTyKMq5QHkXxVyiPosw3lEdRHBzKoygpDuVRFCKH8mhgnhe0VTiPJvbxBjbygrYK57F+K/9QJuF1Ed6sjtRE3ywTZPPg2HZyPe7kCbBro2KXCdCJTl9Es4mftAe9jnKcQUf1zb/cQbm42dsM4z7Y2vePvVSPo/ju+W2QzBOU719/iZjpTOBN7Ov47cwEGpc+0XDcrXK81l4yi/Ucw2QyL677hiO+OcxhDnOYwxzmMIc5zGEOc5jDHOYwhznMYQ5zmMMc5jCHOcxhDnOYwxzmMIc5zGEOc5jDHOYwhznMYQ5zmMMc5jCHOcxhDnOYwxzmMIc5/KcavutG1zqOA1+/9swXa51uz/L7quarscnqV2NPdRzoZPH12lZn+QXiaRil3TCY6LVfkU2+9j3d9d+sTbr5T89Po9BLg2iSQbWSVE93z/VFFOtWuW8+/6zHeuKvvqD5Y+1hr6P65pvLPfNFZvM/rVBfpAZsjfRStns21unJJDXXJ7O4mE1GOWl7R/2+RmJJqO/Pfr/2u9zmCC5UO70Mkm6S35VyRuZ4cFI3u34n3uiy/V/gqmpLfPPV8Yx9oXs2jZLACL7MHi7zapaHkfkKVRzdVENaYgUTX5v5sOt0Kp69PD7WPfEi0KGpt/bims7nyTiOZlPtq2+/VX9bPH7bPbv0ksX3380E23k4evfV0eyCdL3x+JXx6IZ6Mk4v1ffKVf9Uredh2FLPVp+RhMFIt3ednfe9Dztr59sXrySKVftj9lJ636mPmc2iVBe+5rG/ZytO9RtkDlPGC733Hz90P+k7dXR0NL949RRz1cVt/1j1pS6P81h7n+qc/LniOVWfb67X4tUdmbI2xbColDzIoXvmJUkwnmj/2EREJO/zK/mh3qVc3ujpLLls170X2S19Nr+f9WdSGD4r8yq75pl1XZI0jj7pcj7z59Z1iqbeKEjvylktnlz7VeUWS6u6KsuFZHVZqTM9Ki8+5lhO59WFR+0qp6palelWnvVzJ99VSz3/87qewhxPn6pff3un/v3mt7fq9M3bdz/98oP6+c0PPx2rH0/enpQTeJWt2vrWMy2aSiOVRHGqJrOrrA5GKo80SZSXjLLmJZiMSygur73RebAzex11Xn5xiXU6iydq6sWJfhVGXtr2zJK/k93KB4+d54+VupjrW7QHtouXsE7482aTXu77z3y655O9/cTXF94sTNU0jrI1TD/pqCffHBwcH5+cPNlw8AxxiEMc4hCHOMQhDnGIQxzi/DlxVDK7yv4TWPnaPKh8784QxdonDWlIQxrSkIY0pCENaUhDGtIU09zkH836A815ONPEIQ5xiEMc4hCHOMQhDnGIQ5w6OPe/G+iY3w08nUm/G9h38nfYnj/f2zs8JClJSUpSkpKUpCQlKUlJSlKSkpSk20Hq5qReKpH2ctJ+33UPhiQlKUlJSlKSkpSkJCUpSUlKUpKSdDtI+4b0VRwIpO5hTuo4+/v9PklJSlKSkpSkJCUpSUlKUpKSlKQk3Q7SPUP67nImkR7kpIfZMXhBUpKSlKQkJSlJSUpSkpKUpCQlKUm3g3RgSP+lfYl0Pyd9+fL4eH+fpCQlKUlJSlKSkpSkJCUpSUlKUpJuB+kw/8vETEukw5z0+Hg4JClJSUpSkpKUpCQlKUlJSlKSkpSk20K6b0hfR1KyoDvISQ8OXHcwIClJSUpSkpKUpCQlKUlJSlKSkpSkjZEuUfzYu2mvFbvtpkEa6tNLb6q7qb5N209+jGZxsh7j7sszXwZXepIE0STUSa6wRuLpU/Xc95WnciV1E6SXKomutPL7a85MrsddbzrVE7/dMt6tnTUnLI+ul6Zxu3Xb6qhhr+JJd9lJbvmTkvQu1HO8XW8yuozi7PxWqC8q0C40LqJJunujg/FlajTOo9AvrzG/N6fT3eMojgM/is9ehfHZUJ3eJbt9lf17d0+dji53T9SPv4ajq3Q3iWbZjfjPL+qXk+MX5mmpvlJ99evpf9Sb0cg898lO0a39/mkyioNp+g/xOd8/9YPrrw+L58himZYK/KPWyNT9cXapvGCi4zPHcVoqv4BHLT9IpqF39yyYhNnY7nkYjT5915IBM9X5a1Dp3TQ731zDpx+9a2/+aOGZ5rj2YlOj6kj5wdU01N2Jvjm9Hrdb33wFsqP2er38f9ZOOqPre6mXCb//vRV65zpsPWv5+sKbhamaxtFFEOpWZz5ydtt65nR7nda1F8704t8jszZl52TLzfHxyUnrc6eUjgvS6YN09kA6A5DOEKSzD9I5AOkcgnScHkoIVdEOqqQdVE07qKJ2UFXtoMraQdW1gypsB1XZLqqyXdhajapsF1XZbqXKVsns6mrlx6pL7Wix9ivIiNeomox4harJiNenmow476vJiLO+mow456vJiDO+mow436vJyBtZRR1QHcvbWEUdUCXLm1hFHVAty1tYRR1QNcsbWEUdUD3L21dFHdS6DKpnee+qqFO+nm+CSVp92zo3D5XXES9PRR3x8lTUES9PRR1xulfUEad7RR1xulfUEad7RR1xulfUkfevqkKoipZ3sKpCqJqW97CqQqiqlnexqkKoupb3sapCqMqWd7KqQrC1GlXZ8mZWVah8Zd+/e7H214Wlba638h96858fBljI/3ULs+hv/lXsbd5isHmL4eYt9jdvcbB5i8PNW6zs7JvyaGB+F/xhFuch/2UL5yH/0QvnIf+lF+ch/xEY5yH/fRjnIf/pGOch/1UZt//Jf3DGech/i8Z5NDDPC/6CjfOot5Wv/RHHcm/jzn/lEWAh3w2YhdxWwSzkewGzkNsqmIXcVsEs5LYKZiG3VTALua2CWRS0VTiPBuZ3QVuF85CXW5yH3FbhPOS2Cucht1U4D7mtwnnIbRXOQ26rcPuf3FbhPJrYxxuY5wVtFc6j3jxf+1tZ5dqq+Y9pASxccfeAWchtFcxCbqtgFnJbBbOQ2yqYhdxWwSzktgpmIbdVMIuCtgrn0cD8LmircB7ycovzkJdbnIfcVuE85LYK5yG3VTgPua3CechtFW7/k9sqnEcT+3gD87ygrcJ51Jvna3+SpFxbNf/NEoCF3FbBLOS2CmYht1UwC7mtglnIbRXMQm6rYBZyWwWzkNsqmEVBW4XzaGB+F7RVOA95ucV5yMstzkNuq3AecluF85DbKpyH3FbhPOS2Crf/yW0VzqOJfbyBeV7QVuE86s3ztcnv5dqqeTQ8wEJuq2AWclsFs5DbKpiF3FbBLOS2CmYht1UwC7mtglnIbRXMoqCtwnk0ML8L2iqch7zc4jzk5RbnIbdVOA+5rcJ5yG0VzkNuq3AecluF2//ktgrn0cQ+3sA8L2ircB715vnagN1ybdU8gRdgIbdVMAu5rYJZyG0VzEJuq2AWclsFs5DbKpiF3FbBLOS2CmZR0FbhPBqY3wVtFc5DXm5xHvJyi/OQ2yqch9xW4TzktgrnIbdVOA+5rcLtf3JbhfNoYh9vYJ4XtFU4j3rzfG2OYbm2ah50CLCQ2yqYhdxWwSzktgpmIbdVMAu5rYJZyG0VzEJuq2AWclsFsyhoq3AeDczvwog2lEdRxhXKoyj+CuVRlPmG8iiKg0N5FCXFoTyKQuRQHkX5cqj9ryh6DuXRxD7ewDwvzLJDeayf5x/KJLwuIpzVkZrom2WCbB4c206ux508AXZtVOwyBzrR6YtoNvGT9qDXUY4z6Ki++Zc7KBc3e5th3Mdb+/6xl+pxFN89vw2SeY7y/esvETadCbyJfR2/nZlY49InGo67VY7X2ktmsZ5jmGTmxXXfcNA3hznMYQ5zmMMc5jCHOcxhDnOYwxzmMIc5zGEOc5jDHOYwhznMYQ5zmMMc5jCHOcxhDnOYwxzmMIc5zGEOc5jDHOYwhznMYQ5zmMMc5jCH/1TDd93oWsdx4OvXnvlirdPtWX5f1Xw1Nln9auypjgOdLL5e2+osv0A8DaO0GwYTvfYrssnXvqe7/pu1STf/6flpFHppEE0yqFaS6unuub6IYt0q983nn/VYT/zVFzR/rD3sdVTffHO5Z77IbP6nFeqL1ICtkV7Kds/GOj2ZpOb6ZBYXs8koJ23vqN/XSCwJ9f3Z79d+l9scwYVqp5dB0k3yu1LOyBwPTupm1+/EG122/wtcVW2Jb746nrEvdM+mURIYwZfZw2VezfIwMl+hiqObakhLrGDiazMfdp1OxbOXx8e6J14EOjT11l5c0/k8GcfRbKp99e236m+Lx2+7Z5desvj+u5lgOw9H7746ml2QrjcevzIe3VBPxuml+l656p+q9TwMW+rZ6jOSMBjp9q6z8773YWftfPvilUSxan/MXkrvO/Uxs1mU6sLXPPb3bMWpfoPMYcp4off+44fuJ32njo6O5hevnmKuurjtH6u+1OVxHmvvU52TP1c8p+rzzfVavLojU9amGBaVkgc5dM+8JAnGE+0fm4iI5H1+JT/Uu5TLGz2dJZftuvciu6XP5vez/kwKw2dlXmXXPLOuS5LG0Sddzmf+3LpO0dQbBeldOavFk2u/qtxiaVVXZbmQrC4rdaZH5cXHHMvpvLrwqF3lVFWrMt3Ks37u5Ltqqed/XtdTmOPpU/Xrb+/Uv9/89ladvnn77qdfflA/v/nhp2P148nbk3ICr7JVW996pkVTaaSSKE7VZHaV1cFI5ZEmifKSUda8BJNxCcXltTc6D3Zmr6POyy8usU5n8URNvTjRr8LIS9ueWfJ3slv54LHz/LFSF3N9i/bAdvES1gl/3mzSy33/mU/3fLK3n/j6wpuFqZrGUbaG6Scd9eSbg4Pj45OTJxsOniEOcYhDHOIQhzjEIQ5xiEOcPyeOSmZX2X8CK1+bB5Xv3RmiWPukIQ1pSEMa0pCGNKQhDWlIQ5pimpv8o1l/oDkPZ5o4xCEOcYhDHOIQhzjEIQ5xiFMH5/53Ax3zu4GnM+l3A/tO/g7b8+d7e4eHJCUpSUlKUpKSlKQkJSlJSUpSkpJ0O0jdnNRLJdJeTtrvu+7BkKQkJSlJSUpSkpKUpCQlKUlJSlKSbgdp35C+igOB1D3MSR1nf7/fJylJSUpSkpKUpCQlKUlJSlKSkpSk20G6Z0jfXc4k0oOc9DA7Bi9ISlKSkpSkJCUpSUlKUpKSlKQkJel2kA4M6b+0L5Hu56QvXx4f7++TlKQkJSlJSUpSkpKUpCQlKUlJStLtIB3mf5mYaYl0mJMeHw+HJCUpSUlKUpKSlKQkJSlJSUpSkpJ0W0j3DenrSEoWdAc56cGB6w4GJCUpSUlKUpKSlKQkJSlJSUpSkpK0MdIlih97N+21YrfdNEhDfXrpTXU31bdp+8mP0SxO1mPcfXnmy+BKT5IgmoQ6yRXWSDx9qp77vvJUrqRugvRSJdGVVn5/zZnJ9bjrTad64rdbxru1s+aE5dH10jRut25bHTXsVTzpLjvJLX9Skt6Feo63601Gl1Gcnd8K9UUF2oXGRTRJd290ML5MjcZ5FPrlNeb35nS6+zKYBJPx2aswPhuq07tkt6+yf+/uqdPR5e4L9eOv4egq3Z1EcXYb/vOL+uXk+IV5WqqvVF/9evof9WY0Ms99slN0Y79/moziYJr+Q3zO90/94Prrw+I5slimpQL/qDUyVX+cXSgvmOj4zHHclsov31HLD5Jp6N09CyZhNrZ7HkajT9+1ZMBMdf4aVHo3zc43V/DpR+/amz9aeKY5rr3YVKg6Un5wNQ11d6JvTq/H7dY3X4HsqL1eL/+ftVPO6Ppe6mXC739vhd65DlvPWr6+8GZhqqZxdBGEutWZj5zdtp453V6nde2FM73498isTNk52WJzfHxy0vrcKaXjgnT6IJ09kM4ApDME6eyDdA5AOocgHaeHEkJVtIMqaQdV0w6qqB1UVTuosnZQde2gCttBVbaLqmwXtlajKttFVbZbqbJVMru6Wvmp6lI7Wqz9CjLiNaomI16hajLi9akmI877ajLirK8mI875ajLijK8mI873ajLyRlZRB1TH8jZWUQdUyfImVlEHVMvyFlZRB1TN8gZWUQdUz/L2VVEHtS6D6lneuyrqlK/nm2CSVt+2zs1D5XXEy1NRR7w8FXXEy1NRR5zuFXXE6V5RR5zuFXXE6V5RR5zuFXXk/auqEKqi5R2sqhCqpuU9rKoQqqrlXayqEKqu5X2sqhCqsuWdrKoQbK1GVba8mVUVKl/Z9+9drP1tYWmb6638h978x4cBFvJ/3cIs+pt/FXubtxhs3mK4eYv9zVscbN7icPMWKzv7pjwamN8Ff5jFech/2cJ5yH/0wnnIf+nFech/BMZ5yH8fxnnIfzrGech/Vcbtf/IfnHEe8t+icR4NzPOCv2DjPOpt5Wt/wrHc27jz33gEWMh3A2Yht1UwC/lewCzktgpmIbdVMAu5rYJZyG0VzEJuq2AWBW0VzqOB+V3QVuE85OUW5yG3VTgPua3CechtFc5DbqtwHnJbhfOQ2yrc/ie3VTiPJvbxBuZ5QVuF86g3z9f+Ula5tmr+U1oAC1fcPWAWclsFs5DbKpiF3FbBLOS2CmYht1UwC7mtglnIbRXMoqCtwnk0ML8L2iqch7zc4jzk5RbnIbdVOA+5rcJ5yG0VzkNuq3AecluF2//ktgrn0cQ+3sA8L2ircB715vnaHyQp11bNf7EEYCG3VTALua2CWchtFcxCbqtgFnJbBbOQ2yqYhdxWwSzktgpmUdBW4TwamN8FbRXOQ15ucR7ycovzkNsqnIfcVuE85LYK5yG3VTgPua3C7X9yW4XzaGIfb2CeF7RVOI9683xt7nu5tmoeDA+wkNsqmIXcVsEs5LYKZiG3VTALua2CWchtFcxCbqtgFnJbBbMoaKtwHg3M74K2CuchL7c4D3m5xXnIbRXOQ26rcB5yW4XzkNsqnIfcVuH2P7mtwnk0sY83MM8L2iqcR715vjZet1xbNc/fBVjIbRXMQm6rYBZyWwWzkNsqmIXcVsEs5LYKZiG3VTALua2CWRS0VTiPBuZ3QVuF85CXW5yHvNziPOS2Cucht1U4D7mtwnnIbRXOQ26rcPuf3FbhPJrYxxuY5wVtFc6j3jxfm2JYrq2axxwCLOS2CmYht1UwC7mtglnIbRXMQm6rYBZyWwWzkNsqmIXcVsEsCtoqnEcD87swog3lUZRxhfIoir9CeRRlvqE8iuLgUB5FSXEoj6IQOZRHUb4cav8rip5DeTSxjzcwzwuz7FAe6+f5hzIJr4sAZ3WkJvpmmSCbB8e2k+txJ0+AXRsVu0yBTnT6IppN/KQ96HWU4ww6qm/+5Q7Kxc3eZhj34da+f+ylehzFd89vg2Seonz/+ktETWcCb2Jfx29nJtS49ImG426V47X2klms5xgml3lx3Tcc881hDnOYwxzmMIc5zGEOc5jDHOYwhznMYQ5zmMMc5jCHOcxhDnOYwxzmMIc5zGEOc5jDHOYwhznMYQ5zmMMc5jCHOcxhDnOYwxzmMIc5zOE/1fBdN7rWcRz4+rVnvljrdHuW31c1X41NVr8ae6rjQCeLr9e2OssvEE/DKO2GwUSv/Yps8rXv6a7/Zm3SzX96fhqFXhpEkwyqlaR6unuuL6JYt8p98/lnPdYTf/UFzR9rD3sd1TffXO6ZLzKb/2mF+iI1YGukl7Lds7FOTyapuT6ZxcVsMspJ2zvq9zUSS0J9f/b7td/lNkdwodrpZZB0k/yulDMyx4OTutn1O/FGl+3/AldVW+Kbr45n7Avds2mUBEbwZfZwmVezPIzMV6ji6KYa0hIrmPjazIddp1Px7OXxse6JF4EOTb21F9d0Pk/GcTSbal99+6362+Lx2+7ZpZcsvv9uJtjOw9G7r45mF6TrjcevjEc31JNxeqm+V676p2o9D8OWerb6jCQMRrq96+y8733YWTvfvnglUazaH7OX0vtOfcxsFqW68DWP/T1bcarfIHOYMl7ovf/4oftJ36mjo6P5xaunmKsubvvHqi91eZzH2vtU5+TPFc+p+nxzvRav7siUtSmGRaXkQQ7dMy9JgvFE+8cmIiJ5n1/JD/Uu5fJGT2fJZbvuvchu6bP5/aw/k8LwWZlX2TXPrOuSpHH0SZfzmT+3rlM09UZBelfOavHk2q8qt1ha1VVZLiSry0qd6VF58THHcjqvLjxqVzlV1apMt/Ksnzv5rlrq+Z/X9RTmePpU/frbO/XvN7+9Vadv3r776Zcf1M9vfvjpWP148vaknMCrbNXWt55p0VQaqSSKUzWZXWV1MFJ5pEmivGSUNS/BZFxCcXntjc6DndnrqPPyi0us01k8UVMvTvSrMPLStmeW/J3sVj547Dx/rNTFXN+iPbBdvIR1wp83m/Ry33/m0z2f7O0nvr7wZmGqpnGUrWH6SUc9+ebg4Pj45OTJhoNniEMc4hCHOMQhDnGIQxziEOfPiaOS2VX2n8DK1+ZB5Xt3hijWPmlIQxrSkIY0pCENaUhDGtKQppjmJv9o1h9ozsOZJg5xiEMc4hCHOMQhDnGIQxzi1MG5/91Ax/xu4OlM+t3AvpO/w/b8+d7e4SFJSUpSkpKUpCQlKUlJSlKSkpSkJN0OUjcn9VKJtJeT9vuuezAkKUlJSlKSkpSkJCUpSUlKUpKSlKTbQdo3pK/iQCB1D3NSx9nf7/dJSlKSkpSkJCUpSUlKUpKSlKQkJel2kO4Z0neXM4n0ICc9zI7BC5KSlKQkJSlJSUpSkpKUpCQlKUlJuh2kA0P6L+1LpPs56cuXx8f7+yQlKUlJSlKSkpSkJCUpSUlKUpKSdDtIh/lfJmZaIh3mpMfHwyFJSUpSkpKUpCQlKUlJSlKSkpSkJN0W0n1D+jqSkgXdQU56cOC6gwFJSUpSkpKUpCQlKUlJSlKSkpSkJG2MdInix95Ne63YbTcN0lCfXnpT3U31bdp+8mM0i5P1GHdfnvkyuNKTJIgmoU5yhTUST5+q576vPJUrqZsgvVRJdKWV319zZnI97nrTqZ747Zbxbu2sOWF5dL00jdut21ZHDXsVT7rLTnLLn5Skd6Ge4+16k9FlFGfnt0J9UYF2oXERTdLdGx2ML1OjcR6FfnmN+b05ne7+f0E6utSTs1dhfDZUp3fJbl9l/97dU6ejy90X6sdfw9FVuqu9JFX/+UX9cnL8wjwr1Veqr349/Y96MxqZpz7ZKbqx3z9NRnEwTf8hPuf7p35w/fVh8RxZLNNSgX/UGpmqP84ulBdMdHzmOP2Wyi/fUcsPkmno3T0LJmE2tnseRqNP37VkwEx1/hpUejfNzjdX8OlH79qbP1p4pjmuvdhUqDpSfnA1DXV3om9Or8ft1jdfgeyovV4v/5+1U87o+l7qZcLvf2+F3rkOW89avr7wZmGqpnF0EYS61ZmPnN22njndXqd17YUz3Xo2GHT7hw+O/qDTGpmFKpPI1p7j45OT1udOKVl3M7L9zcjubUZ2sBnZ4WZk9zcje7AZ2cPNyDq9DeluaJ45G5pozoZmmrOhqeZsaK45G5pszoZmm7Oh6eZsaL65G5pv7qb2tQ3NN3dD8821mW8qmV1drfwkeJ3OIdZ+BdWy17eaatmrW0217LWtplp2JaumWnYdq6ZadhWrplp2DaumWnYFq6ZaumGoKLuZ2VW6Xagou5n5VbpZqCi7mRlWulWoKLuZOVa6Uagou5lZVrpNqCi7oT1sM7OsdI9QUbb2LLsJJql1e3BunlFetuylrShb9tJWlC17aSvKll3AKsqWXcAqypZdwCrKll3AKsqWXcAqypbuE6rqbmiele4UqupuaKaV7hWq6m5orpXuFqrqbmi2le4XqupuaL6V7hiq6m5qX9vQfCvdNFTVrTbfPpR542LxvqQ6UhN9s3xjJH8/pJ1cjzv5Gxtr3wFZvrmZ6PRFNJv4SXvQ6yjHGXRU3/zLHZR7F+U2w7h/z9b3j71Uj6P47vltkMzfHLy/FiXeQc0E3sS+jt/OzHt1pU80HHerHK+1l8xiPccwbzcu7oHte8L5G1KrVqc6DnSywM2cFjdkGkZp17xLttYy+drrXk+adPPCm0ahlwbRJINqJame7p7riyjWrXKV9LMe64m/+oLmj7WHWRX0TSWYN9Uc8z+Lt1zXvhu9lO2ejXV6MknN9cksLmaTUU7a3lG/l3jP1RDq+7Pfr50b5gguVDu9DJKsrs155YzM8eCkbnb9TrzRZfu/wFXVlviL9xgXumfTKAmM4Mvs4TKvZnkYma9QxdFNNaQlVjDxtZm4u06n4tnL42PdEy8CHZp6ay+u6XyejONoNtW++vZb9bfF47fds0svWawnZoLtPBy9++podkG63nj8ynh0Qz0Zp5fqe+Wqf6rW8zBsqWerz0jCYKTbu87O+96HnbXz7YtXEsWq/TF7Kb3v1MfMZlGqC1/z2N+PlFP9BpnDlPFC7/3HD91POlvejo7mF6+eYq66uO0fq77U5XEea+9TnZM/Vzyn6vPN9Vq8uiNT1qYYFpWSb4zds/nnibSff6IoeZ9fyQ/1LuXyRk9nyWW77r3Ibumz+f2sP5PC8FmZV9k1z6zrkqRx9EmX85k/t65TNPVGQXpXzmrx5NqvKrdYWtVVWS4kq8tKnelRefExx3I6ry48alc5VdWqTLfyrJ87+a5a6vmf1/UU5nj6VP362zv17ze/vVWnb96+++mXH9TPb3746Vj9ePL2pJzAq2zV1reeadFUGqkkyhrpyewqq4ORylvERHnJKGtegsm4hOLy2hudBzuz11Hn5ReXWKezeKKmXpzoV2HkpW3PLPk72a188Nh5/lipi7m+RXtgu3gJ64Q//w8+9/mHd2wXH+40b8D+Tz6GShziEIc4xCEOcYhDHOIQhzhbj/PlJ18MUax90pCGNKQhDWlIQxrSkIY0pCFNMc0Xnwk0NOYjfsQhDnGIQxziEIc4xCEOcYhDnP9h2uI7fTXVsZfOYq3ar3aYt/i48hZn02l4p54HsTI3aksyE/e2ITNxr7HMxPzfdcOZQDp9kM4eSGcA0hmCdPZBOgcgnUOQzkqmgJUQqqIdVEk7qJp2UEXtoKraQZW1g6prB1XYDqqyXVRlu7C1GlXZLqqy3UqVXT7Lb0WqfnifhYx4herH81nIiPO+fgCfhYw45+tH7FnIiPPdIkTPRgdUx/I2ZpGLZ6MDKmV5D7OIurPRAVWzvIFZpNfZrIOgepZ3L4tAOhsdUD3LW1f9jLkVGYtQORsd8fJYxMbZ6IjT3SIYzkZHnO4W0W82OuJ0twl3sxJCVbS8g9nktVkJoYpa3sRsItishFB1Le9jNqlqVisjqrLlrcwmKM1KCFXZ8m72hdD97z055veeTmfS7z31nXJ/b3z+fG/v8BBgIf/XLcxC/u9emIX8X8QwC/mvQDAL+e9DMAv5L0cwC/lvSjAL+a9NMIuCP7HiPBqY3wV/mMV5NDDDC/6ci/NoYI4X/BEY59HALC/40zHOo4F5XvAHZ5xHE/t4A/O84C/YOI9689zNPbxU8uiVa6v6fdc9GAIs5LsBs5BvBsxCvhcwC3nJhVnIKy7MQl5wYRbyeguzkJdbmEVBW4XzaGB+F7RVOI8GZnhBW4XzaGCOF7RVOI8GZnlBW4XzaGCeF7RVOI8m9vEG5nlBW4XzqDfP+8bjVRxIv05+WK6tcpz9/X4fYCHfDZiFfDNgFvK9gFnISy7MQl5xYRbygguzkNdbmIW83MIsCtoqnEcD87ugrcJ5NDDDC9oqnEcDc7ygrcJ5NDDLC9oqnEcD87ygrcJ5NLGPNzDPC9oqnEe9eb5nPN5dziSPg3JtlfnFpcELgIV8N2AW8s2AWcj3AmYhL7kwC3nFhVnICy7MQl5vYRbycguzKGircB4NzO+Ctgrn0cAML2ircB4NzPGCtgrn0cAsL2ircB4NzPOCtgrn0cQ+3sA8L2ircB715vnAePxL+5LHfrm26uXL4+P9fYCFfDdgFvLNgFnI9wJmIS+5MAt5xYVZyAsuzEJeb2EW8nILsyhoq3AeDczvgrYK59HADC9oq3AeDczxgrYK59HALC9oq3AeDczzgrYK59HEPt7APC9oq3Ae9eb5MG/dZlryGJZrq46Ph0OIhXw3YBbyzYBZyPcCZiEvuTALecWFWcgLLsxCXm9hFvJyC7MoaKtwHg3M74K2CufRwAwvaKtwHg3M8YK2CufRwCwvaKtwHg3M84K2CufRxD7ewDwvaKtwHvXm+b7xeB1JH4t3B+XaqoMD1x0MABZFOTcgi6IEHJBFUTYOyKIoDwpkUZQUBbIoypACWRSlS4EsinKnQBaFYWsojwbmd2FEG8qjgRleGOyG8mhgjhfGwaE8GpjlhSFyKI8G5nlh9BzKo4l9vIF5Xphlh/JYP88/lEl4XcQwqyM10TfLBNk8OLadXI87eQLs2qjYZZZzotMX0WziJ+1Br6McZ9BRffMvd1AubvY2w7jPofb9Yy/V4yi+e34bJPMk5PvXXyIwOhN4E/s6fjszwcSlTzQcd6scr7WXzGI9xzDZyovrvuFEbg5zmMMc5jCHOcxhDnOYwxzmMIc5zGEOc5jDHOYwhznMYQ5zmMMc5jCHOcxhDnOYwxzmMIc5zGEOc5jDHOYwhznMYQ5zmMMc5jCHOcxhDv+phu+60bWO48DXrz3zxVqn27P8vqr5amyy+tXYUx0HOll8vbbVWX6BeBpGaTcMJnrtV2STr31Pd/03a5Nu/tPz0yj00iCaZFCtJNXT3XN9EcW6Ve6bzz/rsZ74qy9o/lh72Ouovvnmcs98kdn8TyvUF6kBWyO9lO2ejXV6MknN9cksLmaTUU7a3lG/r5FYEur7s9+v/S63OYIL1U4vg6Sb5HelnJE5HpzUza7fiTe6bP8XuKraEt98dTxjX+ieTaMkMIIvs4fLvJrlYWS+QhVHN9WQlljBxNdmPuw6nYpnL4+PdU+8CHRo6q29uKbzeTKOo9lU++rbb9XfFo/fds8uvWTx/XczwXYejt59dTS7IF1vPH5lPLqhnozTS/W9ctU/Vet5GLbUs9VnJGEw0u1dZ+d978PO2vn2xSuJYtX+mL2U3nfqY2azKNWFr3ns79mKU/0GmcOU8ULv/ccP3U/6Th0dHc0vXj3FXHVx2z9WfanL4zzW3qc6J3+ueE7V55vrtXh1R6asTTEsKiUPcuieeUkSjCfaPzYREcn7/Ep+qHcplzd6Oksu23XvRXZLn83vZ/2ZFIbPyrzKrnlmXZckjaNPupzP/Ll1naKpNwrSu3JWiyfXflW5xdKqrspyIVldVupMj8qLjzmW03l14VG7yqmqVmW6lWf93Ml31VLP/7yupzDH06fq19/eqX+/+e2tOn3z9t1Pv/ygfn7zw0/H6seTtyflBF5lq7a+9UyLptJIJVGcqsnsKquDkcojTRLlJaOseQkm4xKKy2tvdB7szF5HnZdfXGKdzuKJmnpxol+FkZe2PbPk72S38sFj5/ljpS7m+hbtge3iJawT/rzZpJf7/jOf7vlkbz/x9YU3C1M1jaNsDdNPOurJNwcHx8cnJ082HDxDHOIQhzjEIQ5xiEMc4hCHOH9OHJXMrrL/BFa+Ng8q37szRLH2SUMa0pCGNKQhDWlIQxrSkIY0xTQ3+Uez/kBzHs40cYhDHOIQhzjEIQ5xiEMc4hCnDs797wY65ncDT2fS7wb2nfwdtufP9/YOD0lKUpKSlKQkJSlJSUpSkpKUpCQl6XaQujmpl0qkvZy033fdgyFJSUpSkpKUpCQlKUlJSlKSkpSkJN0O0r4hfRUHAql7mJM6zv5+v09SkpKUpCQlKUlJSlKSkpSkJCUpSbeDdM+QvrucSaQHOelhdgxekJSkJCUpSUlKUpKSlKQkJSlJSUrS7SAdGNJ/aV8i3c9JX748Pt7fJylJSUpSkpKUpCQlKUlJSlKSkpSk20E6zP8yMdMS6TAnPT4eDklKUpKSlKQkJSlJSUpSkpKUpCQl6baQ7hvS15GULOgOctKDA9cdDEhKUpKSlKQkJSlJSUpSkpKUpCQlaWOkSxQ/9m7aa8Vuu2mQhvr00pvqbqpv0/aTH6NZnKzHuPvyzJfBlZ4kQTQJdZIrrJF4+lQ9933lqVxJ3QTppUqiK638/pozk+tx15tO9cRvt4x3a2fNCcuj66Vp3G7dtjpq2Kt40l12klv+pCS9C/Ucb9ebjC6jODu/FeqLCrQLjYtoku7e6GB8mRqN8yj0y2vM783/ef5/5hf4rb7UXqrejEbqdHT5ZKfoJn3/NBnFwTT9h/ic75/6wfXXh8VzZLFMSwX+UWtkKvg4e9FeMNHxmeMMWiq/FEctP0imoXf3LJiE2djueRiNPn3XkgEz1flrUOndNDvfXI2nH71rb/5o4ZnmuPZiU23qSPnB1TTU3Ym+Ob0et1vffAWyo/Z6vfx/1k4fo+t7qZcJv/+9FXrnOmw9a/n6wpuFqZrG0UUQ6lZnPnJ223rmdHud1rUXznTr2fCwe/jgODjstEZmzckUsmXk+PjkpPW5U0rV3YhqfyOqextRHWxEdbgR1f2NqB5sRPVwI6pObzOym5ldzmaml7OZ+eVsZoI5m5lhzmammLOZOeZsZpI5m5ll7mZmmbuhPWwzs8zdzCxzLWaZSmZXVys/412jQ4i1X0G05LWtJlryylYTLXldq4mWXLuqiZZcuaqJlly3qomWXLWqiZZcs6qJlm0MKqpuZE6VbQsqqm5kVpVtCiqqbmRelW0JKqpuZGaVbQgqqm5kbpVtByqqbma/2sjcKtsLVFStO7dugklq2wacmyeUVy15WSuqlrysFVVLXtaKqiWXrIqqJZesiqoll6yKqiWXrIqqJZesiqpl+4GqspuZXWU7gqqym5lfZXuCqrKbmWFlu4KqspuZY2X7gqqym5llZTuDqrIb2sM2M8vKNgdVZSvNsg9l3nBYvDeojtRE3yzf0Mjfx2gn1+NO/obE2nculm8wJjp9Ec0mftIe9DrKcQYd1Tf/cgfl3v24zTDu3zf1/WMv1eMovnt+GyTzN+juL0WJdzEzgTexr+O3M/N+WekTDcfdKsdr7SWzWM8xzFt+i1tg+75s/kbSqtWpjgOdLHAzp8UNmYZR2jXvbq21TL72uteTJt287qZR6KVBNMmgWkmqp7vn+iKKdatcJf2sx3rir76g+WPtYVYFfVMJ5s0wx/zP4m3Pte8IL2W7Z2OdnkxSc30yi4vZZJSTtnfU7yXe9zSE+v7s92vnhjmCC9VOL4Mkq2tzXjkjczw4qZtdvxNvdNn+L3BVtSX+4r3Bhe7ZNEoCI/gye7jMq1keRuYrVHF0Uw1piRVMfG0m7q7TqXj28vhY98SLQIem3tqLazqfJ+M4mk21r779Vv1t8fht9+zSSxbriZlgOw9H7746ml2QrjcevzIe3VBPxuml+l656p+q9TwMW+rZ6jOSMBjp9q6z8773YWftfPvilUSxan/MXkrvO/Uxs1mU6sLXPPb3I+VUv0HmMGW80Hv/8UP3k86Wt6Oj+cWrp5irLm77x6ovdXmcx9r7VOfkzxXPqfp8c70Wr+7IlLUphkWl5Btj92z+mR7t55/qSd7nV/JDvUu5vNHTWXLZrnsvslv6bH4/68+kMHxW5lV2zTPruiRpHH3S5Xzmz63rFE29UZDelbNaPLn2q8otllZ1VZYLyeqyUmd6VF58zLGczqsLj9pVTlW1KtOtPOvnTr6rlnr+53U9hTmePlW//vZO/fvNb2/V6Zu373765Qf185sffjpWP568PSkn8CpbtfWtZ1o0lUYqibJGejK7yupgpPIWMVFeMsqal2AyLqG4vPZG58HO7HXUefnFJdbpLJ6oqRcn+lUYeWnbM0v+TnYrHzx2nj9W6mKub9Ee2C5ewjrhz/+Dz17+4Q3YxQcszRuq/5OPghKHOMQhDnGIQxziEIc4xCHO1uN8+QEXQxRrnzSkIQ1pSEMa0pCGNKQhDWlIU0zzxUcCDY35iB9xiEMc4hCHOMQhDnGIQxziEOd/mHj4Tl9Ndeyls1ir9qsdZh4+qszDf3mm4n7U+f95fnUe6EmqzC0zyYfan2XXf1ft915tSQjicBtCEIeNhSDmXz2tG8IE0umDdPZAOgOQzhCksw/SOQDpHIJ0VtIFrIRQFe2gStpB1bSDKmoHVdUOqqwdVF07qMJ2UJXtoirbha3VqMp2UZXtVqrs8qF9K1L1Y/osZMQrVD+Kz0JGnPf14/YsZMQ5Xz9Sz0JGnO8WsXk2OqA6lrcxizA8Gx1QKct7mEXEnY0OqJrlDcwiuM5mHQTVs7x7WcTR2eiA6lneuuqHzK3IWMTK2eiIl8ciOs5GR5zuFvFwNjridLeIgLPREae7TcyblRCqouUdzCa8zUoIVdTyJmYTyWYlhKpreR+zCVqzWhlRlS1vZTbxaVZCqMqWdzOGom1FKBqHOcxhDnOYwxzmMIc5zGEOc5jDHOYwhx/T8F03utZxHPj6tWf+UOV0ewzFf/BKGIp/fzAUv9LBUHyG4lc4GIr/x4Oh+H88GIpf8WAoPkPxv3owFJ84xCEOcYhDHOIQhzjEIQ5xiLMNkZKkIQ1pSEMa0pCGNKQhDWlIsz00f5koS+IQhzjEIQ5xiEMc4hCHOMSp7/c/CMV/GVzpSRJEk1AnCSPxH1ckfhR/UicXF8Eo0JPR3X0QfrMR+Itn/2Hk4f+//Pf8/96rL/5x/3/OI//O/N/L9Cr8x//z/wM1i7Mg"
               },
               {
                  "name" : "annual_peak_electric_demand",
                  "units" : "kW",
                  "value" : 304.21755999999999
               },
               {
                  "name" : "first_year_capital_cost",
                  "units" : "$",
                  "value" : 0
               },
               {
                  "name" : "annual_utility_cost",
                  "units" : "$",
                  "value" : 0
               },
               {
                  "name" : "total_lifecycle_cost",
                  "units" : "$",
                  "value" : 0
               }
            ],
            "step_warnings" : []
         }
      }
   ],
   "updated_at" : "20170710T184129Z",
   "weather_file" : "USA_CO_Denver.Intl.AP.725650_TMY3.epw"
}
