{
   "completed_at" : "20170710T193944Z",
   "completed_status" : "Success",
   "created_at" : "2017-07-10 19:23:00 +0000",
   "current_step" : 5,
   "description" : "",
   "eplusout_err" : "Program Version,EnergyPlus, Version 8.7.0-78a111df4a, YMD=2017.07.10 19:31,IDD_Version 8.7.0\n   ************* IDF Context for following error/warning message:\n   ************* Note -- lines truncated at 300 characters, if necessary...\n   *************      5 Building,\n   ************* indicated Name=NECB 2011-Hospital-NECB HDD Method-CAN_PQ_Baie.Comeau.711870_CWEC.epw created: 2017-07-10 19:23:09 +0000\n   ************* Only last 1 lines before error line shown.....\n   *************      6   NECB 2011-Hospital-NECB HDD Method-CAN_PQ_Baie.Comeau.711870_CWEC.epw created: 2017-07-10 19:23:09 +0000, !- Name\n   ** Warning ** IP: IDF line~6 Alpha Argument length exceeds maximum, will be truncated=  NECB 2011-Hospital-NECB HDD Method-CAN_PQ_Baie.Comeau.711870_CWEC.epw created: 2017-07-10 19:23:09 +000\n   **   ~~~   ** Will be processed as Alpha=NECB 2011-HOSPITAL-NECB HDD METHOD-CAN_PQ_BAIE.COMEAU.711870_CWEC.EPW CREATED: 2017-07-10 19:23:09 +0000\n   ************* IDF Context for following error/warning message:\n   ************* Note -- lines truncated at 300 characters, if necessary...\n   *************   5647 Schedule:Week:Daily,\n   ************* indicated Name=Schedule:Week:Daily {f881d0aa-130f-40fc-86a1-5aa2ea452641}\n   ************* Only last 10 lines before error line shown.....\n   *************   5648   Schedule:Week:Daily {f881d0aa-130f-40fc-86a1-5aa2ea452641}, !- Name\n   *************   5649   Sp-ER_NurseStn_Lobby_Flr_1 Sys-3 Flr-1 Sch-H HPlcmt-east ZN NECB System 3 PSZ Occ Sch Sunday, !- Sunday Schedule:Day Name\n   *************   5650   Sp-ER_NurseStn_Lobby_Flr_1 Sys-3 Flr-1 Sch-H HPlcmt-east ZN NECB System 3 PSZ Occ Sch Monday, !- Monday Schedule:Day Name\n   *************   5651   Sp-ER_NurseStn_Lobby_Flr_1 Sys-3 Flr-1 Sch-H HPlcmt-east ZN NECB System 3 PSZ Occ Sch Tuesday, !- Tuesday Schedule:Day Name\n   *************   5652   Sp-ER_NurseStn_Lobby_Flr_1 Sys-3 Flr-1 Sch-H HPlcmt-east ZN NECB System 3 PSZ Occ Sch Wednesday, !- Wednesday Schedule:Day Name\n   *************   5653   Sp-ER_NurseStn_Lobby_Flr_1 Sys-3 Flr-1 Sch-H HPlcmt-east ZN NECB System 3 PSZ Occ Sch Thursday, !- Thursday Schedule:Day Name\n   *************   5654   Sp-ER_NurseStn_Lobby_Flr_1 Sys-3 Flr-1 Sch-H HPlcmt-east ZN NECB System 3 PSZ Occ Sch Friday, !- Friday Schedule:Day Name\n   *************   5655   Sp-ER_NurseStn_Lobby_Flr_1 Sys-3 Flr-1 Sch-H HPlcmt-east ZN NECB System 3 PSZ Occ Sch Saturday, !- Saturday Schedule:Day Name\n   *************   5656   Sp-ER_NurseStn_Lobby_Flr_1 Sys-3 Flr-1 Sch-H HPlcmt-east ZN NECB System 3 PSZ Occ Sch Default, !- Holiday Schedule:Day Name\n   *************   5657   Sp-ER_NurseStn_Lobby_Flr_1 Sys-3 Flr-1 Sch-H HPlcmt-east ZN NECB System 3 PSZ Occ Sch Summer Design Day, !- SummerDesignDay Schedule:Day Name\n   ** Warning ** IP: IDF line~5657 Alpha Argument length exceeds maximum, will be truncated=  Sp-ER_NurseStn_Lobby_Flr_1 Sys-3 Flr-1 Sch-H HPlcmt-east ZN NECB System 3 PSZ Occ Sch Summer Design Da\n   **   ~~~   ** Will be processed as Alpha=SP-ER_NURSESTN_LOBBY_FLR_1 SYS-3 FLR-1 SCH-H HPLCMT-EAST ZN NECB SYSTEM 3 PSZ OCC SCH SUMMER DESIGN DAY\n   ************* IDF Context for following error/warning message:\n   ************* Note -- lines truncated at 300 characters, if necessary...\n   *************   5647 Schedule:Week:Daily,\n   ************* indicated Name=Schedule:Week:Daily {f881d0aa-130f-40fc-86a1-5aa2ea452641}\n   ************* Only last 10 lines before error line shown.....\n   *************   5649   Sp-ER_NurseStn_Lobby_Flr_1 Sys-3 Flr-1 Sch-H HPlcmt-east ZN NECB System 3 PSZ Occ Sch Sunday, !- Sunday Schedule:Day Name\n   *************   5650   Sp-ER_NurseStn_Lobby_Flr_1 Sys-3 Flr-1 Sch-H HPlcmt-east ZN NECB System 3 PSZ Occ Sch Monday, !- Monday Schedule:Day Name\n   *************   5651   Sp-ER_NurseStn_Lobby_Flr_1 Sys-3 Flr-1 Sch-H HPlcmt-east ZN NECB System 3 PSZ Occ Sch Tuesday, !- Tuesday Schedule:Day Name\n   *************   5652   Sp-ER_NurseStn_Lobby_Flr_1 Sys-3 Flr-1 Sch-H HPlcmt-east ZN NECB System 3 PSZ Occ Sch Wednesday, !- Wednesday Schedule:Day Name\n   *************   5653   Sp-ER_NurseStn_Lobby_Flr_1 Sys-3 Flr-1 Sch-H HPlcmt-east ZN NECB System 3 PSZ Occ Sch Thursday, !- Thursday Schedule:Day Name\n   *************   5654   Sp-ER_NurseStn_Lobby_Flr_1 Sys-3 Flr-1 Sch-H HPlcmt-east ZN NECB System 3 PSZ Occ Sch Friday, !- Friday Schedule:Day Name\n   *************   5655   Sp-ER_NurseStn_Lobby_Flr_1 Sys-3 Flr-1 Sch-H HPlcmt-east ZN NECB System 3 PSZ Occ Sch Saturday, !- Saturday Schedule:Day Name\n   *************   5656   Sp-ER_NurseStn_Lobby_Flr_1 Sys-3 Flr-1 Sch-H HPlcmt-east ZN NECB System 3 PSZ Occ Sch Default, !- Holiday Schedule:Day Name\n   *************   5657   Sp-ER_NurseStn_Lobby_Flr_1 Sys-3 Flr-1 Sch-H HPlcmt-east ZN NECB System 3 PSZ Occ Sch Summer Design Day, !- SummerDesignDay Schedule:Day Name\n   *************   5658   Sp-ER_NurseStn_Lobby_Flr_1 Sys-3 Flr-1 Sch-H HPlcmt-east ZN NECB System 3 PSZ Occ Sch Winter Design Day, !- WinterDesignDay Schedule:Day Name\n   ** Warning ** IP: IDF line~5658 Alpha Argument length exceeds maximum, will be truncated=  Sp-ER_NurseStn_Lobby_Flr_1 Sys-3 Flr-1 Sch-H HPlcmt-east ZN NECB System 3 PSZ Occ Sch Winter Design Da\n   **   ~~~   ** Will be processed as Alpha=SP-ER_NURSESTN_LOBBY_FLR_1 SYS-3 FLR-1 SCH-H HPLCMT-EAST ZN NECB SYSTEM 3 PSZ OCC SCH WINTER DESIGN DAY\n   ************* IDF Context for following error/warning message:\n   ************* Note -- lines truncated at 300 characters, if necessary...\n   *************   5678 Schedule:Day:Interval,\n   ************* indicated Name=Sp-ER_NurseStn_Lobby_Flr_1 Sys-3 Flr-1 Sch-H HPlcmt-east ZN NECB System 3 PSZ Occ Sch Summer Design Day\n   ************* Only last 1 lines before error line shown.....\n   *************   5679   Sp-ER_NurseStn_Lobby_Flr_1 Sys-3 Flr-1 Sch-H HPlcmt-east ZN NECB System 3 PSZ Occ Sch Summer Design Day, !- Name\n   ** Warning ** IP: IDF line~5679 Alpha Argument length exceeds maximum, will be truncated=  Sp-ER_NurseStn_Lobby_Flr_1 Sys-3 Flr-1 Sch-H HPlcmt-east ZN NECB System 3 PSZ Occ Sch Summer Design Da\n   **   ~~~   ** Will be processed as Alpha=SP-ER_NURSESTN_LOBBY_FLR_1 SYS-3 FLR-1 SCH-H HPLCMT-EAST ZN NECB SYSTEM 3 PSZ OCC SCH SUMMER DESIGN DAY\n   ************* IDF Context for following error/warning message:\n   ************* Note -- lines truncated at 300 characters, if necessary...\n   *************   5685 Schedule:Day:Interval,\n   ************* indicated Name=Sp-ER_NurseStn_Lobby_Flr_1 Sys-3 Flr-1 Sch-H HPlcmt-east ZN NECB System 3 PSZ Occ Sch Winter Design Day\n   ************* Only last 1 lines before error line shown.....\n   *************   5686   Sp-ER_NurseStn_Lobby_Flr_1 Sys-3 Flr-1 Sch-H HPlcmt-east ZN NECB System 3 PSZ Occ Sch Winter Design Day, !- Name\n   ** Warning ** IP: IDF line~5686 Alpha Argument length exceeds maximum, will be truncated=  Sp-ER_NurseStn_Lobby_Flr_1 Sys-3 Flr-1 Sch-H HPlcmt-east ZN NECB System 3 PSZ Occ Sch Winter Design Da\n   **   ~~~   ** Will be processed as Alpha=SP-ER_NURSESTN_LOBBY_FLR_1 SYS-3 FLR-1 SCH-H HPLCMT-EAST ZN NECB SYSTEM 3 PSZ OCC SCH WINTER DESIGN DAY\n   ************* IDF Context for following error/warning message:\n   ************* Note -- lines truncated at 300 characters, if necessary...\n   *************   7064 Schedule:Week:Daily,\n   ************* indicated Name=Schedule:Week:Daily {2a57a986-7fb4-4477-84cb-607e8a1ed231}\n   ************* Only last 10 lines before error line shown.....\n   *************   7065   Schedule:Week:Daily {2a57a986-7fb4-4477-84cb-607e8a1ed231}, !- Name\n   *************   7066   Sp-ICU_NurseStn_Lobby_Flr_2 Sys-3 Flr-4 Sch-H HPlcmt-core ZN NECB System 3 PSZ Occ Sch Sunday, !- Sunday Schedule:Day Name\n   *************   7067   Sp-ICU_NurseStn_Lobby_Flr_2 Sys-3 Flr-4 Sch-H HPlcmt-core ZN NECB System 3 PSZ Occ Sch Monday, !- Monday Schedule:Day Name\n   *************   7068   Sp-ICU_NurseStn_Lobby_Flr_2 Sys-3 Flr-4 Sch-H HPlcmt-core ZN NECB System 3 PSZ Occ Sch Tuesday, !- Tuesday Schedule:Day Name\n   *************   7069   Sp-ICU_NurseStn_Lobby_Flr_2 Sys-3 Flr-4 Sch-H HPlcmt-core ZN NECB System 3 PSZ Occ Sch Wednesday, !- Wednesday Schedule:Day Name\n   *************   7070   Sp-ICU_NurseStn_Lobby_Flr_2 Sys-3 Flr-4 Sch-H HPlcmt-core ZN NECB System 3 PSZ Occ Sch Thursday, !- Thursday Schedule:Day Name\n   *************   7071   Sp-ICU_NurseStn_Lobby_Flr_2 Sys-3 Flr-4 Sch-H HPlcmt-core ZN NECB System 3 PSZ Occ Sch Friday, !- Friday Schedule:Day Name\n   *************   7072   Sp-ICU_NurseStn_Lobby_Flr_2 Sys-3 Flr-4 Sch-H HPlcmt-core ZN NECB System 3 PSZ Occ Sch Saturday, !- Saturday Schedule:Day Name\n   *************   7073   Sp-ICU_NurseStn_Lobby_Flr_2 Sys-3 Flr-4 Sch-H HPlcmt-core ZN NECB System 3 PSZ Occ Sch Default, !- Holiday Schedule:Day Name\n   *************   7074   Sp-ICU_NurseStn_Lobby_Flr_2 Sys-3 Flr-4 Sch-H HPlcmt-core ZN NECB System 3 PSZ Occ Sch Summer Design Day, !- SummerDesignDay Schedule:Day Name\n   ** Warning ** IP: IDF line~7074 Alpha Argument length exceeds maximum, will be truncated=  Sp-ICU_NurseStn_Lobby_Flr_2 Sys-3 Flr-4 Sch-H HPlcmt-core ZN NECB System 3 PSZ Occ Sch Summer Design Da\n   **   ~~~   ** Will be processed as Alpha=SP-ICU_NURSESTN_LOBBY_FLR_2 SYS-3 FLR-4 SCH-H HPLCMT-CORE ZN NECB SYSTEM 3 PSZ OCC SCH SUMMER DESIGN DAY\n   ************* IDF Context for following error/warning message:\n   ************* Note -- lines truncated at 300 characters, if necessary...\n   *************   7064 Schedule:Week:Daily,\n   ************* indicated Name=Schedule:Week:Daily {2a57a986-7fb4-4477-84cb-607e8a1ed231}\n   ************* Only last 10 lines before error line shown.....\n   *************   7066   Sp-ICU_NurseStn_Lobby_Flr_2 Sys-3 Flr-4 Sch-H HPlcmt-core ZN NECB System 3 PSZ Occ Sch Sunday, !- Sunday Schedule:Day Name\n   *************   7067   Sp-ICU_NurseStn_Lobby_Flr_2 Sys-3 Flr-4 Sch-H HPlcmt-core ZN NECB System 3 PSZ Occ Sch Monday, !- Monday Schedule:Day Name\n   *************   7068   Sp-ICU_NurseStn_Lobby_Flr_2 Sys-3 Flr-4 Sch-H HPlcmt-core ZN NECB System 3 PSZ Occ Sch Tuesday, !- Tuesday Schedule:Day Name\n   *************   7069   Sp-ICU_NurseStn_Lobby_Flr_2 Sys-3 Flr-4 Sch-H HPlcmt-core ZN NECB System 3 PSZ Occ Sch Wednesday, !- Wednesday Schedule:Day Name\n   *************   7070   Sp-ICU_NurseStn_Lobby_Flr_2 Sys-3 Flr-4 Sch-H HPlcmt-core ZN NECB System 3 PSZ Occ Sch Thursday, !- Thursday Schedule:Day Name\n   *************   7071   Sp-ICU_NurseStn_Lobby_Flr_2 Sys-3 Flr-4 Sch-H HPlcmt-core ZN NECB System 3 PSZ Occ Sch Friday, !- Friday Schedule:Day Name\n   *************   7072   Sp-ICU_NurseStn_Lobby_Flr_2 Sys-3 Flr-4 Sch-H HPlcmt-core ZN NECB System 3 PSZ Occ Sch Saturday, !- Saturday Schedule:Day Name\n   *************   7073   Sp-ICU_NurseStn_Lobby_Flr_2 Sys-3 Flr-4 Sch-H HPlcmt-core ZN NECB System 3 PSZ Occ Sch Default, !- Holiday Schedule:Day Name\n   *************   7074   Sp-ICU_NurseStn_Lobby_Flr_2 Sys-3 Flr-4 Sch-H HPlcmt-core ZN NECB System 3 PSZ Occ Sch Summer Design Day, !- SummerDesignDay Schedule:Day Name\n   *************   7075   Sp-ICU_NurseStn_Lobby_Flr_2 Sys-3 Flr-4 Sch-H HPlcmt-core ZN NECB System 3 PSZ Occ Sch Winter Design Day, !- WinterDesignDay Schedule:Day Name\n   ** Warning ** IP: IDF line~7075 Alpha Argument length exceeds maximum, will be truncated=  Sp-ICU_NurseStn_Lobby_Flr_2 Sys-3 Flr-4 Sch-H HPlcmt-core ZN NECB System 3 PSZ Occ Sch Winter Design Da\n   **   ~~~   ** Will be processed as Alpha=SP-ICU_NURSESTN_LOBBY_FLR_2 SYS-3 FLR-4 SCH-H HPLCMT-CORE ZN NECB SYSTEM 3 PSZ OCC SCH WINTER DESIGN DAY\n   ************* IDF Context for following error/warning message:\n   ************* Note -- lines truncated at 300 characters, if necessary...\n   *************   7095 Schedule:Day:Interval,\n   ************* indicated Name=Sp-ICU_NurseStn_Lobby_Flr_2 Sys-3 Flr-4 Sch-H HPlcmt-core ZN NECB System 3 PSZ Occ Sch Summer Design Day\n   ************* Only last 1 lines before error line shown.....\n   *************   7096   Sp-ICU_NurseStn_Lobby_Flr_2 Sys-3 Flr-4 Sch-H HPlcmt-core ZN NECB System 3 PSZ Occ Sch Summer Design Day, !- Name\n   ** Warning ** IP: IDF line~7096 Alpha Argument length exceeds maximum, will be truncated=  Sp-ICU_NurseStn_Lobby_Flr_2 Sys-3 Flr-4 Sch-H HPlcmt-core ZN NECB System 3 PSZ Occ Sch Summer Design Da\n   **   ~~~   ** Will be processed as Alpha=SP-ICU_NURSESTN_LOBBY_FLR_2 SYS-3 FLR-4 SCH-H HPLCMT-CORE ZN NECB SYSTEM 3 PSZ OCC SCH SUMMER DESIGN DAY\n   ************* IDF Context for following error/warning message:\n   ************* Note -- lines truncated at 300 characters, if necessary...\n   *************   7102 Schedule:Day:Interval,\n   ************* indicated Name=Sp-ICU_NurseStn_Lobby_Flr_2 Sys-3 Flr-4 Sch-H HPlcmt-core ZN NECB System 3 PSZ Occ Sch Winter Design Day\n   ************* Only last 1 lines before error line shown.....\n   *************   7103   Sp-ICU_NurseStn_Lobby_Flr_2 Sys-3 Flr-4 Sch-H HPlcmt-core ZN NECB System 3 PSZ Occ Sch Winter Design Day, !- Name\n   ** Warning ** IP: IDF line~7103 Alpha Argument length exceeds maximum, will be truncated=  Sp-ICU_NurseStn_Lobby_Flr_2 Sys-3 Flr-4 Sch-H HPlcmt-core ZN NECB System 3 PSZ Occ Sch Winter Design Da\n   **   ~~~   ** Will be processed as Alpha=SP-ICU_NURSESTN_LOBBY_FLR_2 SYS-3 FLR-4 SCH-H HPLCMT-CORE ZN NECB SYSTEM 3 PSZ OCC SCH WINTER DESIGN DAY\n   ************* IDF Context for following error/warning message:\n   ************* Note -- lines truncated at 300 characters, if necessary...\n   *************   7901 Schedule:Week:Daily,\n   ************* indicated Name=Schedule:Week:Daily {ba108dde-bf16-42d9-94e4-b13ab5e4159f}\n   ************* Only last 10 lines before error line shown.....\n   *************   7902   Schedule:Week:Daily {ba108dde-bf16-42d9-94e4-b13ab5e4159f}, !- Name\n   *************   7903   Sp-IC_PatRoom3_Mult6_Flr_2 Sys-3 Flr-4 Sch-H HPlcmt-west ZN NECB System 3 PSZ Occ Sch Sunday, !- Sunday Schedule:Day Name\n   *************   7904   Sp-IC_PatRoom3_Mult6_Flr_2 Sys-3 Flr-4 Sch-H HPlcmt-west ZN NECB System 3 PSZ Occ Sch Monday, !- Monday Schedule:Day Name\n   *************   7905   Sp-IC_PatRoom3_Mult6_Flr_2 Sys-3 Flr-4 Sch-H HPlcmt-west ZN NECB System 3 PSZ Occ Sch Tuesday, !- Tuesday Schedule:Day Name\n   *************   7906   Sp-IC_PatRoom3_Mult6_Flr_2 Sys-3 Flr-4 Sch-H HPlcmt-west ZN NECB System 3 PSZ Occ Sch Wednesday, !- Wednesday Schedule:Day Name\n   *************   7907   Sp-IC_PatRoom3_Mult6_Flr_2 Sys-3 Flr-4 Sch-H HPlcmt-west ZN NECB System 3 PSZ Occ Sch Thursday, !- Thursday Schedule:Day Name\n   *************   7908   Sp-IC_PatRoom3_Mult6_Flr_2 Sys-3 Flr-4 Sch-H HPlcmt-west ZN NECB System 3 PSZ Occ Sch Friday, !- Friday Schedule:Day Name\n   *************   7909   Sp-IC_PatRoom3_Mult6_Flr_2 Sys-3 Flr-4 Sch-H HPlcmt-west ZN NECB System 3 PSZ Occ Sch Saturday, !- Saturday Schedule:Day Name\n   *************   7910   Sp-IC_PatRoom3_Mult6_Flr_2 Sys-3 Flr-4 Sch-H HPlcmt-west ZN NECB System 3 PSZ Occ Sch Default, !- Holiday Schedule:Day Name\n   *************   7911   Sp-IC_PatRoom3_Mult6_Flr_2 Sys-3 Flr-4 Sch-H HPlcmt-west ZN NECB System 3 PSZ Occ Sch Summer Design Day, !- SummerDesignDay Schedule:Day Name\n   ** Warning ** IP: IDF line~7911 Alpha Argument length exceeds maximum, will be truncated=  Sp-IC_PatRoom3_Mult6_Flr_2 Sys-3 Flr-4 Sch-H HPlcmt-west ZN NECB System 3 PSZ Occ Sch Summer Design Da\n   **   ~~~   ** Will be processed as Alpha=SP-IC_PATROOM3_MULT6_FLR_2 SYS-3 FLR-4 SCH-H HPLCMT-WEST ZN NECB SYSTEM 3 PSZ OCC SCH SUMMER DESIGN DAY\n   ************* IDF Context for following error/warning message:\n   ************* Note -- lines truncated at 300 characters, if necessary...\n   *************   7901 Schedule:Week:Daily,\n   ************* indicated Name=Schedule:Week:Daily {ba108dde-bf16-42d9-94e4-b13ab5e4159f}\n   ************* Only last 10 lines before error line shown.....\n   *************   7903   Sp-IC_PatRoom3_Mult6_Flr_2 Sys-3 Flr-4 Sch-H HPlcmt-west ZN NECB System 3 PSZ Occ Sch Sunday, !- Sunday Schedule:Day Name\n   *************   7904   Sp-IC_PatRoom3_Mult6_Flr_2 Sys-3 Flr-4 Sch-H HPlcmt-west ZN NECB System 3 PSZ Occ Sch Monday, !- Monday Schedule:Day Name\n   *************   7905   Sp-IC_PatRoom3_Mult6_Flr_2 Sys-3 Flr-4 Sch-H HPlcmt-west ZN NECB System 3 PSZ Occ Sch Tuesday, !- Tuesday Schedule:Day Name\n   *************   7906   Sp-IC_PatRoom3_Mult6_Flr_2 Sys-3 Flr-4 Sch-H HPlcmt-west ZN NECB System 3 PSZ Occ Sch Wednesday, !- Wednesday Schedule:Day Name\n   *************   7907   Sp-IC_PatRoom3_Mult6_Flr_2 Sys-3 Flr-4 Sch-H HPlcmt-west ZN NECB System 3 PSZ Occ Sch Thursday, !- Thursday Schedule:Day Name\n   *************   7908   Sp-IC_PatRoom3_Mult6_Flr_2 Sys-3 Flr-4 Sch-H HPlcmt-west ZN NECB System 3 PSZ Occ Sch Friday, !- Friday Schedule:Day Name\n   *************   7909   Sp-IC_PatRoom3_Mult6_Flr_2 Sys-3 Flr-4 Sch-H HPlcmt-west ZN NECB System 3 PSZ Occ Sch Saturday, !- Saturday Schedule:Day Name\n   *************   7910   Sp-IC_PatRoom3_Mult6_Flr_2 Sys-3 Flr-4 Sch-H HPlcmt-west ZN NECB System 3 PSZ Occ Sch Default, !- Holiday Schedule:Day Name\n   *************   7911   Sp-IC_PatRoom3_Mult6_Flr_2 Sys-3 Flr-4 Sch-H HPlcmt-west ZN NECB System 3 PSZ Occ Sch Summer Design Day, !- SummerDesignDay Schedule:Day Name\n   *************   7912   Sp-IC_PatRoom3_Mult6_Flr_2 Sys-3 Flr-4 Sch-H HPlcmt-west ZN NECB System 3 PSZ Occ Sch Winter Design Day, !- WinterDesignDay Schedule:Day Name\n   ** Warning ** IP: IDF line~7912 Alpha Argument length exceeds maximum, will be truncated=  Sp-IC_PatRoom3_Mult6_Flr_2 Sys-3 Flr-4 Sch-H HPlcmt-west ZN NECB System 3 PSZ Occ Sch Winter Design Da\n   **   ~~~   ** Will be processed as Alpha=SP-IC_PATROOM3_MULT6_FLR_2 SYS-3 FLR-4 SCH-H HPLCMT-WEST ZN NECB SYSTEM 3 PSZ OCC SCH WINTER DESIGN DAY\n   ************* IDF Context for following error/warning message:\n   ************* Note -- lines truncated at 300 characters, if necessary...\n   *************   7932 Schedule:Day:Interval,\n   ************* indicated Name=Sp-IC_PatRoom3_Mult6_Flr_2 Sys-3 Flr-4 Sch-H HPlcmt-west ZN NECB System 3 PSZ Occ Sch Summer Design Day\n   ************* Only last 1 lines before error line shown.....\n   *************   7933   Sp-IC_PatRoom3_Mult6_Flr_2 Sys-3 Flr-4 Sch-H HPlcmt-west ZN NECB System 3 PSZ Occ Sch Summer Design Day, !- Name\n   ** Warning ** IP: IDF line~7933 Alpha Argument length exceeds maximum, will be truncated=  Sp-IC_PatRoom3_Mult6_Flr_2 Sys-3 Flr-4 Sch-H HPlcmt-west ZN NECB System 3 PSZ Occ Sch Summer Design Da\n   **   ~~~   ** Will be processed as Alpha=SP-IC_PATROOM3_MULT6_FLR_2 SYS-3 FLR-4 SCH-H HPLCMT-WEST ZN NECB SYSTEM 3 PSZ OCC SCH SUMMER DESIGN DAY\n   ************* IDF Context for following error/warning message:\n   ************* Note -- lines truncated at 300 characters, if necessary...\n   *************   7939 Schedule:Day:Interval,\n   ************* indicated Name=Sp-IC_PatRoom3_Mult6_Flr_2 Sys-3 Flr-4 Sch-H HPlcmt-west ZN NECB System 3 PSZ Occ Sch Winter Design Day\n   ************* Only last 1 lines before error line shown.....\n   *************   7940   Sp-IC_PatRoom3_Mult6_Flr_2 Sys-3 Flr-4 Sch-H HPlcmt-west ZN NECB System 3 PSZ Occ Sch Winter Design Day, !- Name\n   ** Warning ** IP: IDF line~7940 Alpha Argument length exceeds maximum, will be truncated=  Sp-IC_PatRoom3_Mult6_Flr_2 Sys-3 Flr-4 Sch-H HPlcmt-west ZN NECB System 3 PSZ Occ Sch Winter Design Da\n   **   ~~~   ** Will be processed as Alpha=SP-IC_PATROOM3_MULT6_FLR_2 SYS-3 FLR-4 SCH-H HPLCMT-WEST ZN NECB SYSTEM 3 PSZ OCC SCH WINTER DESIGN DAY\n   ************* IDF Context for following error/warning message:\n   ************* Note -- lines truncated at 300 characters, if necessary...\n   *************  10559 Schedule:Week:Daily,\n   ************* indicated Name=Schedule:Week:Daily {28fa7ceb-13de-4ac5-beec-b9c07f12be98}\n   ************* Only last 10 lines before error line shown.....\n   *************  10560   Schedule:Week:Daily {28fa7ceb-13de-4ac5-beec-b9c07f12be98}, !- Name\n   *************  10561   Sp-NurseStn_Lobby_Flr_5 Sys-3 Flr-6 Sch-H HPlcmt-south ZN NECB System 3 PSZ Occ Sch Sunday, !- Sunday Schedule:Day Name\n   *************  10562   Sp-NurseStn_Lobby_Flr_5 Sys-3 Flr-6 Sch-H HPlcmt-south ZN NECB System 3 PSZ Occ Sch Monday, !- Monday Schedule:Day Name\n   *************  10563   Sp-NurseStn_Lobby_Flr_5 Sys-3 Flr-6 Sch-H HPlcmt-south ZN NECB System 3 PSZ Occ Sch Tuesday, !- Tuesday Schedule:Day Name\n   *************  10564   Sp-NurseStn_Lobby_Flr_5 Sys-3 Flr-6 Sch-H HPlcmt-south ZN NECB System 3 PSZ Occ Sch Wednesday, !- Wednesday Schedule:Day Name\n   *************  10565   Sp-NurseStn_Lobby_Flr_5 Sys-3 Flr-6 Sch-H HPlcmt-south ZN NECB System 3 PSZ Occ Sch Thursday, !- Thursday Schedule:Day Name\n   *************  10566   Sp-NurseStn_Lobby_Flr_5 Sys-3 Flr-6 Sch-H HPlcmt-south ZN NECB System 3 PSZ Occ Sch Friday, !- Friday Schedule:Day Name\n   *************  10567   Sp-NurseStn_Lobby_Flr_5 Sys-3 Flr-6 Sch-H HPlcmt-south ZN NECB System 3 PSZ Occ Sch Saturday, !- Saturday Schedule:Day Name\n   *************  10568   Sp-NurseStn_Lobby_Flr_5 Sys-3 Flr-6 Sch-H HPlcmt-south ZN NECB System 3 PSZ Occ Sch Default, !- Holiday Schedule:Day Name\n   *************  10569   Sp-NurseStn_Lobby_Flr_5 Sys-3 Flr-6 Sch-H HPlcmt-south ZN NECB System 3 PSZ Occ Sch Summer Design Day, !- SummerDesignDay Schedule:Day Name\n   ** Warning ** IP: IDF line~10569 Alpha Argument length exceeds maximum, will be truncated=  Sp-NurseStn_Lobby_Flr_5 Sys-3 Flr-6 Sch-H HPlcmt-south ZN NECB System 3 PSZ Occ Sch Summer Design Da\n   **   ~~~   ** Will be processed as Alpha=SP-NURSESTN_LOBBY_FLR_5 SYS-3 FLR-6 SCH-H HPLCMT-SOUTH ZN NECB SYSTEM 3 PSZ OCC SCH SUMMER DESIGN DAY\n   ************* IDF Context for following error/warning message:\n   ************* Note -- lines truncated at 300 characters, if necessary...\n   *************  10559 Schedule:Week:Daily,\n   ************* indicated Name=Schedule:Week:Daily {28fa7ceb-13de-4ac5-beec-b9c07f12be98}\n   ************* Only last 10 lines before error line shown.....\n   *************  10561   Sp-NurseStn_Lobby_Flr_5 Sys-3 Flr-6 Sch-H HPlcmt-south ZN NECB System 3 PSZ Occ Sch Sunday, !- Sunday Schedule:Day Name\n   *************  10562   Sp-NurseStn_Lobby_Flr_5 Sys-3 Flr-6 Sch-H HPlcmt-south ZN NECB System 3 PSZ Occ Sch Monday, !- Monday Schedule:Day Name\n   *************  10563   Sp-NurseStn_Lobby_Flr_5 Sys-3 Flr-6 Sch-H HPlcmt-south ZN NECB System 3 PSZ Occ Sch Tuesday, !- Tuesday Schedule:Day Name\n   *************  10564   Sp-NurseStn_Lobby_Flr_5 Sys-3 Flr-6 Sch-H HPlcmt-south ZN NECB System 3 PSZ Occ Sch Wednesday, !- Wednesday Schedule:Day Name\n   *************  10565   Sp-NurseStn_Lobby_Flr_5 Sys-3 Flr-6 Sch-H HPlcmt-south ZN NECB System 3 PSZ Occ Sch Thursday, !- Thursday Schedule:Day Name\n   *************  10566   Sp-NurseStn_Lobby_Flr_5 Sys-3 Flr-6 Sch-H HPlcmt-south ZN NECB System 3 PSZ Occ Sch Friday, !- Friday Schedule:Day Name\n   *************  10567   Sp-NurseStn_Lobby_Flr_5 Sys-3 Flr-6 Sch-H HPlcmt-south ZN NECB System 3 PSZ Occ Sch Saturday, !- Saturday Schedule:Day Name\n   *************  10568   Sp-NurseStn_Lobby_Flr_5 Sys-3 Flr-6 Sch-H HPlcmt-south ZN NECB System 3 PSZ Occ Sch Default, !- Holiday Schedule:Day Name\n   *************  10569   Sp-NurseStn_Lobby_Flr_5 Sys-3 Flr-6 Sch-H HPlcmt-south ZN NECB System 3 PSZ Occ Sch Summer Design Day, !- SummerDesignDay Schedule:Day Name\n   *************  10570   Sp-NurseStn_Lobby_Flr_5 Sys-3 Flr-6 Sch-H HPlcmt-south ZN NECB System 3 PSZ Occ Sch Winter Design Day, !- WinterDesignDay Schedule:Day Name\n   ** Warning ** IP: IDF line~10570 Alpha Argument length exceeds maximum, will be truncated=  Sp-NurseStn_Lobby_Flr_5 Sys-3 Flr-6 Sch-H HPlcmt-south ZN NECB System 3 PSZ Occ Sch Winter Design Da\n   **   ~~~   ** Will be processed as Alpha=SP-NURSESTN_LOBBY_FLR_5 SYS-3 FLR-6 SCH-H HPLCMT-SOUTH ZN NECB SYSTEM 3 PSZ OCC SCH WINTER DESIGN DAY\n   ************* IDF Context for following error/warning message:\n   ************* Note -- lines truncated at 300 characters, if necessary...\n   *************  10590 Schedule:Day:Interval,\n   ************* indicated Name=Sp-NurseStn_Lobby_Flr_5 Sys-3 Flr-6 Sch-H HPlcmt-south ZN NECB System 3 PSZ Occ Sch Summer Design Day\n   ************* Only last 1 lines before error line shown.....\n   *************  10591   Sp-NurseStn_Lobby_Flr_5 Sys-3 Flr-6 Sch-H HPlcmt-south ZN NECB System 3 PSZ Occ Sch Summer Design Day, !- Name\n   ** Warning ** IP: IDF line~10591 Alpha Argument length exceeds maximum, will be truncated=  Sp-NurseStn_Lobby_Flr_5 Sys-3 Flr-6 Sch-H HPlcmt-south ZN NECB System 3 PSZ Occ Sch Summer Design Da\n   **   ~~~   ** Will be processed as Alpha=SP-NURSESTN_LOBBY_FLR_5 SYS-3 FLR-6 SCH-H HPLCMT-SOUTH ZN NECB SYSTEM 3 PSZ OCC SCH SUMMER DESIGN DAY\n   ************* IDF Context for following error/warning message:\n   ************* Note -- lines truncated at 300 characters, if necessary...\n   *************  10597 Schedule:Day:Interval,\n   ************* indicated Name=Sp-NurseStn_Lobby_Flr_5 Sys-3 Flr-6 Sch-H HPlcmt-south ZN NECB System 3 PSZ Occ Sch Winter Design Day\n   ************* Only last 1 lines before error line shown.....\n   *************  10598   Sp-NurseStn_Lobby_Flr_5 Sys-3 Flr-6 Sch-H HPlcmt-south ZN NECB System 3 PSZ Occ Sch Winter Design Day, !- Name\n   ** Warning ** IP: IDF line~10598 Alpha Argument length exceeds maximum, will be truncated=  Sp-NurseStn_Lobby_Flr_5 Sys-3 Flr-6 Sch-H HPlcmt-south ZN NECB System 3 PSZ Occ Sch Winter Design Da\n   **   ~~~   ** Will be processed as Alpha=SP-NURSESTN_LOBBY_FLR_5 SYS-3 FLR-6 SCH-H HPLCMT-SOUTH ZN NECB SYSTEM 3 PSZ OCC SCH WINTER DESIGN DAY\n   ************* IDF Context for following error/warning message:\n   ************* Note -- lines truncated at 300 characters, if necessary...\n   *************  13649 Schedule:Week:Daily,\n   ************* indicated Name=Schedule:Week:Daily {b1963f54-d538-432e-92b9-5e2cf5d75dfd}\n   ************* Only last 10 lines before error line shown.....\n   *************  13650   Schedule:Week:Daily {b1963f54-d538-432e-92b9-5e2cf5d75dfd}, !- Name\n   *************  13651   Sp-OR_NurseStn_Lobby_Flr_2 Sys-3 Flr-4 Sch-H HPlcmt-south ZN NECB System 3 PSZ Occ Sch Sunday, !- Sunday Schedule:Day Name\n   *************  13652   Sp-OR_NurseStn_Lobby_Flr_2 Sys-3 Flr-4 Sch-H HPlcmt-south ZN NECB System 3 PSZ Occ Sch Monday, !- Monday Schedule:Day Name\n   *************  13653   Sp-OR_NurseStn_Lobby_Flr_2 Sys-3 Flr-4 Sch-H HPlcmt-south ZN NECB System 3 PSZ Occ Sch Tuesday, !- Tuesday Schedule:Day Name\n   *************  13654   Sp-OR_NurseStn_Lobby_Flr_2 Sys-3 Flr-4 Sch-H HPlcmt-south ZN NECB System 3 PSZ Occ Sch Wednesday, !- Wednesday Schedule:Day Name\n   *************  13655   Sp-OR_NurseStn_Lobby_Flr_2 Sys-3 Flr-4 Sch-H HPlcmt-south ZN NECB System 3 PSZ Occ Sch Thursday, !- Thursday Schedule:Day Name\n   *************  13656   Sp-OR_NurseStn_Lobby_Flr_2 Sys-3 Flr-4 Sch-H HPlcmt-south ZN NECB System 3 PSZ Occ Sch Friday, !- Friday Schedule:Day Name\n   *************  13657   Sp-OR_NurseStn_Lobby_Flr_2 Sys-3 Flr-4 Sch-H HPlcmt-south ZN NECB System 3 PSZ Occ Sch Saturday, !- Saturday Schedule:Day Name\n   *************  13658   Sp-OR_NurseStn_Lobby_Flr_2 Sys-3 Flr-4 Sch-H HPlcmt-south ZN NECB System 3 PSZ Occ Sch Default, !- Holiday Schedule:Day Name\n   *************  13659   Sp-OR_NurseStn_Lobby_Flr_2 Sys-3 Flr-4 Sch-H HPlcmt-south ZN NECB System 3 PSZ Occ Sch Summer Design Day, !- SummerDesignDay Schedule:Day Name\n   ** Warning ** IP: IDF line~13659 Alpha Argument length exceeds maximum, will be truncated=  Sp-OR_NurseStn_Lobby_Flr_2 Sys-3 Flr-4 Sch-H HPlcmt-south ZN NECB System 3 PSZ Occ Sch Summer Design Da\n   **   ~~~   ** Will be processed as Alpha=SP-OR_NURSESTN_LOBBY_FLR_2 SYS-3 FLR-4 SCH-H HPLCMT-SOUTH ZN NECB SYSTEM 3 PSZ OCC SCH SUMMER DESIGN DAY\n   ************* IDF Context for following error/warning message:\n   ************* Note -- lines truncated at 300 characters, if necessary...\n   *************  13649 Schedule:Week:Daily,\n   ************* indicated Name=Schedule:Week:Daily {b1963f54-d538-432e-92b9-5e2cf5d75dfd}\n   ************* Only last 10 lines before error line shown.....\n   *************  13651   Sp-OR_NurseStn_Lobby_Flr_2 Sys-3 Flr-4 Sch-H HPlcmt-south ZN NECB System 3 PSZ Occ Sch Sunday, !- Sunday Schedule:Day Name\n   *************  13652   Sp-OR_NurseStn_Lobby_Flr_2 Sys-3 Flr-4 Sch-H HPlcmt-south ZN NECB System 3 PSZ Occ Sch Monday, !- Monday Schedule:Day Name\n   *************  13653   Sp-OR_NurseStn_Lobby_Flr_2 Sys-3 Flr-4 Sch-H HPlcmt-south ZN NECB System 3 PSZ Occ Sch Tuesday, !- Tuesday Schedule:Day Name\n   *************  13654   Sp-OR_NurseStn_Lobby_Flr_2 Sys-3 Flr-4 Sch-H HPlcmt-south ZN NECB System 3 PSZ Occ Sch Wednesday, !- Wednesday Schedule:Day Name\n   *************  13655   Sp-OR_NurseStn_Lobby_Flr_2 Sys-3 Flr-4 Sch-H HPlcmt-south ZN NECB System 3 PSZ Occ Sch Thursday, !- Thursday Schedule:Day Name\n   *************  13656   Sp-OR_NurseStn_Lobby_Flr_2 Sys-3 Flr-4 Sch-H HPlcmt-south ZN NECB System 3 PSZ Occ Sch Friday, !- Friday Schedule:Day Name\n   *************  13657   Sp-OR_NurseStn_Lobby_Flr_2 Sys-3 Flr-4 Sch-H HPlcmt-south ZN NECB System 3 PSZ Occ Sch Saturday, !- Saturday Schedule:Day Name\n   *************  13658   Sp-OR_NurseStn_Lobby_Flr_2 Sys-3 Flr-4 Sch-H HPlcmt-south ZN NECB System 3 PSZ Occ Sch Default, !- Holiday Schedule:Day Name\n   *************  13659   Sp-OR_NurseStn_Lobby_Flr_2 Sys-3 Flr-4 Sch-H HPlcmt-south ZN NECB System 3 PSZ Occ Sch Summer Design Day, !- SummerDesignDay Schedule:Day Name\n   *************  13660   Sp-OR_NurseStn_Lobby_Flr_2 Sys-3 Flr-4 Sch-H HPlcmt-south ZN NECB System 3 PSZ Occ Sch Winter Design Day, !- WinterDesignDay Schedule:Day Name\n   ** Warning ** IP: IDF line~13660 Alpha Argument length exceeds maximum, will be truncated=  Sp-OR_NurseStn_Lobby_Flr_2 Sys-3 Flr-4 Sch-H HPlcmt-south ZN NECB System 3 PSZ Occ Sch Winter Design Da\n   **   ~~~   ** Will be processed as Alpha=SP-OR_NURSESTN_LOBBY_FLR_2 SYS-3 FLR-4 SCH-H HPLCMT-SOUTH ZN NECB SYSTEM 3 PSZ OCC SCH WINTER DESIGN DAY\n   ************* IDF Context for following error/warning message:\n   ************* Note -- lines truncated at 300 characters, if necessary...\n   *************  13680 Schedule:Day:Interval,\n   ************* indicated Name=Sp-OR_NurseStn_Lobby_Flr_2 Sys-3 Flr-4 Sch-H HPlcmt-south ZN NECB System 3 PSZ Occ Sch Summer Design Day\n   ************* Only last 1 lines before error line shown.....\n   *************  13681   Sp-OR_NurseStn_Lobby_Flr_2 Sys-3 Flr-4 Sch-H HPlcmt-south ZN NECB System 3 PSZ Occ Sch Summer Design Day, !- Name\n   ** Warning ** IP: IDF line~13681 Alpha Argument length exceeds maximum, will be truncated=  Sp-OR_NurseStn_Lobby_Flr_2 Sys-3 Flr-4 Sch-H HPlcmt-south ZN NECB System 3 PSZ Occ Sch Summer Design Da\n   **   ~~~   ** Will be processed as Alpha=SP-OR_NURSESTN_LOBBY_FLR_2 SYS-3 FLR-4 SCH-H HPLCMT-SOUTH ZN NECB SYSTEM 3 PSZ OCC SCH SUMMER DESIGN DAY\n   ************* IDF Context for following error/warning message:\n   ************* Note -- lines truncated at 300 characters, if necessary...\n   *************  13687 Schedule:Day:Interval,\n   ************* indicated Name=Sp-OR_NurseStn_Lobby_Flr_2 Sys-3 Flr-4 Sch-H HPlcmt-south ZN NECB System 3 PSZ Occ Sch Winter Design Day\n   ************* Only last 1 lines before error line shown.....\n   *************  13688   Sp-OR_NurseStn_Lobby_Flr_2 Sys-3 Flr-4 Sch-H HPlcmt-south ZN NECB System 3 PSZ Occ Sch Winter Design Day, !- Name\n   ** Warning ** IP: IDF line~13688 Alpha Argument length exceeds maximum, will be truncated=  Sp-OR_NurseStn_Lobby_Flr_2 Sys-3 Flr-4 Sch-H HPlcmt-south ZN NECB System 3 PSZ Occ Sch Winter Design Da\n   **   ~~~   ** Will be processed as Alpha=SP-OR_NURSESTN_LOBBY_FLR_2 SYS-3 FLR-4 SCH-H HPLCMT-SOUTH ZN NECB SYSTEM 3 PSZ OCC SCH WINTER DESIGN DAY\n   ************* IDF Context for following error/warning message:\n   ************* Note -- lines truncated at 300 characters, if necessary...\n   *************  13988 Schedule:Week:Daily,\n   ************* indicated Name=Schedule:Week:Daily {287de444-5cd4-4ef0-b2b3-4ba99058bade}\n   ************* Only last 10 lines before error line shown.....\n   *************  13989   Schedule:Week:Daily {287de444-5cd4-4ef0-b2b3-4ba99058bade}, !- Name\n   *************  13990   Sp-PatRoom1_Mult10_Flr_3 Sys-3 Flr-2 Sch-H HPlcmt-south ZN NECB System 3 PSZ Occ Sch Sunday, !- Sunday Schedule:Day Name\n   *************  13991   Sp-PatRoom1_Mult10_Flr_3 Sys-3 Flr-2 Sch-H HPlcmt-south ZN NECB System 3 PSZ Occ Sch Monday, !- Monday Schedule:Day Name\n   *************  13992   Sp-PatRoom1_Mult10_Flr_3 Sys-3 Flr-2 Sch-H HPlcmt-south ZN NECB System 3 PSZ Occ Sch Tuesday, !- Tuesday Schedule:Day Name\n   *************  13993   Sp-PatRoom1_Mult10_Flr_3 Sys-3 Flr-2 Sch-H HPlcmt-south ZN NECB System 3 PSZ Occ Sch Wednesday, !- Wednesday Schedule:Day Name\n   *************  13994   Sp-PatRoom1_Mult10_Flr_3 Sys-3 Flr-2 Sch-H HPlcmt-south ZN NECB System 3 PSZ Occ Sch Thursday, !- Thursday Schedule:Day Name\n   *************  13995   Sp-PatRoom1_Mult10_Flr_3 Sys-3 Flr-2 Sch-H HPlcmt-south ZN NECB System 3 PSZ Occ Sch Friday, !- Friday Schedule:Day Name\n   *************  13996   Sp-PatRoom1_Mult10_Flr_3 Sys-3 Flr-2 Sch-H HPlcmt-south ZN NECB System 3 PSZ Occ Sch Saturday, !- Saturday Schedule:Day Name\n   *************  13997   Sp-PatRoom1_Mult10_Flr_3 Sys-3 Flr-2 Sch-H HPlcmt-south ZN NECB System 3 PSZ Occ Sch Default, !- Holiday Schedule:Day Name\n   *************  13998   Sp-PatRoom1_Mult10_Flr_3 Sys-3 Flr-2 Sch-H HPlcmt-south ZN NECB System 3 PSZ Occ Sch Summer Design Day, !- SummerDesignDay Schedule:Day Name\n   ** Warning ** IP: IDF line~13998 Alpha Argument length exceeds maximum, will be truncated=  Sp-PatRoom1_Mult10_Flr_3 Sys-3 Flr-2 Sch-H HPlcmt-south ZN NECB System 3 PSZ Occ Sch Summer Design Da\n   **   ~~~   ** Will be processed as Alpha=SP-PATROOM1_MULT10_FLR_3 SYS-3 FLR-2 SCH-H HPLCMT-SOUTH ZN NECB SYSTEM 3 PSZ OCC SCH SUMMER DESIGN DAY\n   ************* IDF Context for following error/warning message:\n   ************* Note -- lines truncated at 300 characters, if necessary...\n   *************  13988 Schedule:Week:Daily,\n   ************* indicated Name=Schedule:Week:Daily {287de444-5cd4-4ef0-b2b3-4ba99058bade}\n   ************* Only last 10 lines before error line shown.....\n   *************  13990   Sp-PatRoom1_Mult10_Flr_3 Sys-3 Flr-2 Sch-H HPlcmt-south ZN NECB System 3 PSZ Occ Sch Sunday, !- Sunday Schedule:Day Name\n   *************  13991   Sp-PatRoom1_Mult10_Flr_3 Sys-3 Flr-2 Sch-H HPlcmt-south ZN NECB System 3 PSZ Occ Sch Monday, !- Monday Schedule:Day Name\n   *************  13992   Sp-PatRoom1_Mult10_Flr_3 Sys-3 Flr-2 Sch-H HPlcmt-south ZN NECB System 3 PSZ Occ Sch Tuesday, !- Tuesday Schedule:Day Name\n   *************  13993   Sp-PatRoom1_Mult10_Flr_3 Sys-3 Flr-2 Sch-H HPlcmt-south ZN NECB System 3 PSZ Occ Sch Wednesday, !- Wednesday Schedule:Day Name\n   *************  13994   Sp-PatRoom1_Mult10_Flr_3 Sys-3 Flr-2 Sch-H HPlcmt-south ZN NECB System 3 PSZ Occ Sch Thursday, !- Thursday Schedule:Day Name\n   *************  13995   Sp-PatRoom1_Mult10_Flr_3 Sys-3 Flr-2 Sch-H HPlcmt-south ZN NECB System 3 PSZ Occ Sch Friday, !- Friday Schedule:Day Name\n   *************  13996   Sp-PatRoom1_Mult10_Flr_3 Sys-3 Flr-2 Sch-H HPlcmt-south ZN NECB System 3 PSZ Occ Sch Saturday, !- Saturday Schedule:Day Name\n   *************  13997   Sp-PatRoom1_Mult10_Flr_3 Sys-3 Flr-2 Sch-H HPlcmt-south ZN NECB System 3 PSZ Occ Sch Default, !- Holiday Schedule:Day Name\n   *************  13998   Sp-PatRoom1_Mult10_Flr_3 Sys-3 Flr-2 Sch-H HPlcmt-south ZN NECB System 3 PSZ Occ Sch Summer Design Day, !- SummerDesignDay Schedule:Day Name\n   *************  13999   Sp-PatRoom1_Mult10_Flr_3 Sys-3 Flr-2 Sch-H HPlcmt-south ZN NECB System 3 PSZ Occ Sch Winter Design Day, !- WinterDesignDay Schedule:Day Name\n   ** Warning ** IP: IDF line~13999 Alpha Argument length exceeds maximum, will be truncated=  Sp-PatRoom1_Mult10_Flr_3 Sys-3 Flr-2 Sch-H HPlcmt-south ZN NECB System 3 PSZ Occ Sch Winter Design Da\n   **   ~~~   ** Will be processed as Alpha=SP-PATROOM1_MULT10_FLR_3 SYS-3 FLR-2 SCH-H HPLCMT-SOUTH ZN NECB SYSTEM 3 PSZ OCC SCH WINTER DESIGN DAY\n   ************* IDF Context for following error/warning message:\n   ************* Note -- lines truncated at 300 characters, if necessary...\n   *************  14019 Schedule:Day:Interval,\n   ************* indicated Name=Sp-PatRoom1_Mult10_Flr_3 Sys-3 Flr-2 Sch-H HPlcmt-south ZN NECB System 3 PSZ Occ Sch Summer Design Day\n   ************* Only last 1 lines before error line shown.....\n   *************  14020   Sp-PatRoom1_Mult10_Flr_3 Sys-3 Flr-2 Sch-H HPlcmt-south ZN NECB System 3 PSZ Occ Sch Summer Design Day, !- Name\n   ** Warning ** IP: IDF line~14020 Alpha Argument length exceeds maximum, will be truncated=  Sp-PatRoom1_Mult10_Flr_3 Sys-3 Flr-2 Sch-H HPlcmt-south ZN NECB System 3 PSZ Occ Sch Summer Design Da\n   **   ~~~   ** Will be processed as Alpha=SP-PATROOM1_MULT10_FLR_3 SYS-3 FLR-2 SCH-H HPLCMT-SOUTH ZN NECB SYSTEM 3 PSZ OCC SCH SUMMER DESIGN DAY\n   ************* IDF Context for following error/warning message:\n   ************* Note -- lines truncated at 300 characters, if necessary...\n   *************  14026 Schedule:Day:Interval,\n   ************* indicated Name=Sp-PatRoom1_Mult10_Flr_3 Sys-3 Flr-2 Sch-H HPlcmt-south ZN NECB System 3 PSZ Occ Sch Winter Design Day\n   ************* Only last 1 lines before error line shown.....\n   *************  14027   Sp-PatRoom1_Mult10_Flr_3 Sys-3 Flr-2 Sch-H HPlcmt-south ZN NECB System 3 PSZ Occ Sch Winter Design Day, !- Name\n   ** Warning ** IP: IDF line~14027 Alpha Argument length exceeds maximum, will be truncated=  Sp-PatRoom1_Mult10_Flr_3 Sys-3 Flr-2 Sch-H HPlcmt-south ZN NECB System 3 PSZ Occ Sch Winter Design Da\n   **   ~~~   ** Will be processed as Alpha=SP-PATROOM1_MULT10_FLR_3 SYS-3 FLR-2 SCH-H HPLCMT-SOUTH ZN NECB SYSTEM 3 PSZ OCC SCH WINTER DESIGN DAY\n   ************* IDF Context for following error/warning message:\n   ************* Note -- lines truncated at 300 characters, if necessary...\n   *************  14327 Schedule:Week:Daily,\n   ************* indicated Name=Schedule:Week:Daily {e285a1f9-38f7-432f-a615-39ee242bc612}\n   ************* Only last 10 lines before error line shown.....\n   *************  14328   Schedule:Week:Daily {e285a1f9-38f7-432f-a615-39ee242bc612}, !- Name\n   *************  14329   Sp-PatRoom1_Mult10_Flr_4 Sys-3 Flr-3 Sch-H HPlcmt-south ZN NECB System 3 PSZ Occ Sch Sunday, !- Sunday Schedule:Day Name\n   *************  14330   Sp-PatRoom1_Mult10_Flr_4 Sys-3 Flr-3 Sch-H HPlcmt-south ZN NECB System 3 PSZ Occ Sch Monday, !- Monday Schedule:Day Name\n   *************  14331   Sp-PatRoom1_Mult10_Flr_4 Sys-3 Flr-3 Sch-H HPlcmt-south ZN NECB System 3 PSZ Occ Sch Tuesday, !- Tuesday Schedule:Day Name\n   *************  14332   Sp-PatRoom1_Mult10_Flr_4 Sys-3 Flr-3 Sch-H HPlcmt-south ZN NECB System 3 PSZ Occ Sch Wednesday, !- Wednesday Schedule:Day Name\n   *************  14333   Sp-PatRoom1_Mult10_Flr_4 Sys-3 Flr-3 Sch-H HPlcmt-south ZN NECB System 3 PSZ Occ Sch Thursday, !- Thursday Schedule:Day Name\n   *************  14334   Sp-PatRoom1_Mult10_Flr_4 Sys-3 Flr-3 Sch-H HPlcmt-south ZN NECB System 3 PSZ Occ Sch Friday, !- Friday Schedule:Day Name\n   *************  14335   Sp-PatRoom1_Mult10_Flr_4 Sys-3 Flr-3 Sch-H HPlcmt-south ZN NECB System 3 PSZ Occ Sch Saturday, !- Saturday Schedule:Day Name\n   *************  14336   Sp-PatRoom1_Mult10_Flr_4 Sys-3 Flr-3 Sch-H HPlcmt-south ZN NECB System 3 PSZ Occ Sch Default, !- Holiday Schedule:Day Name\n   *************  14337   Sp-PatRoom1_Mult10_Flr_4 Sys-3 Flr-3 Sch-H HPlcmt-south ZN NECB System 3 PSZ Occ Sch Summer Design Day, !- SummerDesignDay Schedule:Day Name\n   ** Warning ** IP: IDF line~14337 Alpha Argument length exceeds maximum, will be truncated=  Sp-PatRoom1_Mult10_Flr_4 Sys-3 Flr-3 Sch-H HPlcmt-south ZN NECB System 3 PSZ Occ Sch Summer Design Da\n   **   ~~~   ** Will be processed as Alpha=SP-PATROOM1_MULT10_FLR_4 SYS-3 FLR-3 SCH-H HPLCMT-SOUTH ZN NECB SYSTEM 3 PSZ OCC SCH SUMMER DESIGN DAY\n   ************* IDF Context for following error/warning message:\n   ************* Note -- lines truncated at 300 characters, if necessary...\n   *************  14327 Schedule:Week:Daily,\n   ************* indicated Name=Schedule:Week:Daily {e285a1f9-38f7-432f-a615-39ee242bc612}\n   ************* Only last 10 lines before error line shown.....\n   *************  14329   Sp-PatRoom1_Mult10_Flr_4 Sys-3 Flr-3 Sch-H HPlcmt-south ZN NECB System 3 PSZ Occ Sch Sunday, !- Sunday Schedule:Day Name\n   *************  14330   Sp-PatRoom1_Mult10_Flr_4 Sys-3 Flr-3 Sch-H HPlcmt-south ZN NECB System 3 PSZ Occ Sch Monday, !- Monday Schedule:Day Name\n   *************  14331   Sp-PatRoom1_Mult10_Flr_4 Sys-3 Flr-3 Sch-H HPlcmt-south ZN NECB System 3 PSZ Occ Sch Tuesday, !- Tuesday Schedule:Day Name\n   *************  14332   Sp-PatRoom1_Mult10_Flr_4 Sys-3 Flr-3 Sch-H HPlcmt-south ZN NECB System 3 PSZ Occ Sch Wednesday, !- Wednesday Schedule:Day Name\n   *************  14333   Sp-PatRoom1_Mult10_Flr_4 Sys-3 Flr-3 Sch-H HPlcmt-south ZN NECB System 3 PSZ Occ Sch Thursday, !- Thursday Schedule:Day Name\n   *************  14334   Sp-PatRoom1_Mult10_Flr_4 Sys-3 Flr-3 Sch-H HPlcmt-south ZN NECB System 3 PSZ Occ Sch Friday, !- Friday Schedule:Day Name\n   *************  14335   Sp-PatRoom1_Mult10_Flr_4 Sys-3 Flr-3 Sch-H HPlcmt-south ZN NECB System 3 PSZ Occ Sch Saturday, !- Saturday Schedule:Day Name\n   *************  14336   Sp-PatRoom1_Mult10_Flr_4 Sys-3 Flr-3 Sch-H HPlcmt-south ZN NECB System 3 PSZ Occ Sch Default, !- Holiday Schedule:Day Name\n   *************  14337   Sp-PatRoom1_Mult10_Flr_4 Sys-3 Flr-3 Sch-H HPlcmt-south ZN NECB System 3 PSZ Occ Sch Summer Design Day, !- SummerDesignDay Schedule:Day Name\n   *************  14338   Sp-PatRoom1_Mult10_Flr_4 Sys-3 Flr-3 Sch-H HPlcmt-south ZN NECB System 3 PSZ Occ Sch Winter Design Day, !- WinterDesignDay Schedule:Day Name\n   ** Warning ** IP: IDF line~14338 Alpha Argument length exceeds maximum, will be truncated=  Sp-PatRoom1_Mult10_Flr_4 Sys-3 Flr-3 Sch-H HPlcmt-south ZN NECB System 3 PSZ Occ Sch Winter Design Da\n   **   ~~~   ** Will be processed as Alpha=SP-PATROOM1_MULT10_FLR_4 SYS-3 FLR-3 SCH-H HPLCMT-SOUTH ZN NECB SYSTEM 3 PSZ OCC SCH WINTER DESIGN DAY\n   ************* IDF Context for following error/warning message:\n   ************* Note -- lines truncated at 300 characters, if necessary...\n   *************  14358 Schedule:Day:Interval,\n   ************* indicated Name=Sp-PatRoom1_Mult10_Flr_4 Sys-3 Flr-3 Sch-H HPlcmt-south ZN NECB System 3 PSZ Occ Sch Summer Design Day\n   ************* Only last 1 lines before error line shown.....\n   *************  14359   Sp-PatRoom1_Mult10_Flr_4 Sys-3 Flr-3 Sch-H HPlcmt-south ZN NECB System 3 PSZ Occ Sch Summer Design Day, !- Name\n   ** Warning ** IP: IDF line~14359 Alpha Argument length exceeds maximum, will be truncated=  Sp-PatRoom1_Mult10_Flr_4 Sys-3 Flr-3 Sch-H HPlcmt-south ZN NECB System 3 PSZ Occ Sch Summer Design Da\n   **   ~~~   ** Will be processed as Alpha=SP-PATROOM1_MULT10_FLR_4 SYS-3 FLR-3 SCH-H HPLCMT-SOUTH ZN NECB SYSTEM 3 PSZ OCC SCH SUMMER DESIGN DAY\n   ************* IDF Context for following error/warning message:\n   ************* Note -- lines truncated at 300 characters, if necessary...\n   *************  14365 Schedule:Day:Interval,\n   ************* indicated Name=Sp-PatRoom1_Mult10_Flr_4 Sys-3 Flr-3 Sch-H HPlcmt-south ZN NECB System 3 PSZ Occ Sch Winter Design Day\n   ************* Only last 1 lines before error line shown.....\n   *************  14366   Sp-PatRoom1_Mult10_Flr_4 Sys-3 Flr-3 Sch-H HPlcmt-south ZN NECB System 3 PSZ Occ Sch Winter Design Day, !- Name\n   ** Warning ** IP: IDF line~14366 Alpha Argument length exceeds maximum, will be truncated=  Sp-PatRoom1_Mult10_Flr_4 Sys-3 Flr-3 Sch-H HPlcmt-south ZN NECB System 3 PSZ Occ Sch Winter Design Da\n   **   ~~~   ** Will be processed as Alpha=SP-PATROOM1_MULT10_FLR_4 SYS-3 FLR-3 SCH-H HPLCMT-SOUTH ZN NECB SYSTEM 3 PSZ OCC SCH WINTER DESIGN DAY\n   ************* IDF Context for following error/warning message:\n   ************* Note -- lines truncated at 300 characters, if necessary...\n   *************  15220 Schedule:Week:Daily,\n   ************* indicated Name=Schedule:Week:Daily {65be21c6-f68d-4b56-b899-ccd92e41c684}\n   ************* Only last 10 lines before error line shown.....\n   *************  15221   Schedule:Week:Daily {65be21c6-f68d-4b56-b899-ccd92e41c684}, !- Name\n   *************  15222   Sp-PatRoom3_Mult10_Flr_3 Sys-3 Flr-2 Sch-H HPlcmt-east ZN NECB System 3 PSZ Occ Sch Sunday, !- Sunday Schedule:Day Name\n   *************  15223   Sp-PatRoom3_Mult10_Flr_3 Sys-3 Flr-2 Sch-H HPlcmt-east ZN NECB System 3 PSZ Occ Sch Monday, !- Monday Schedule:Day Name\n   *************  15224   Sp-PatRoom3_Mult10_Flr_3 Sys-3 Flr-2 Sch-H HPlcmt-east ZN NECB System 3 PSZ Occ Sch Tuesday, !- Tuesday Schedule:Day Name\n   *************  15225   Sp-PatRoom3_Mult10_Flr_3 Sys-3 Flr-2 Sch-H HPlcmt-east ZN NECB System 3 PSZ Occ Sch Wednesday, !- Wednesday Schedule:Day Name\n   *************  15226   Sp-PatRoom3_Mult10_Flr_3 Sys-3 Flr-2 Sch-H HPlcmt-east ZN NECB System 3 PSZ Occ Sch Thursday, !- Thursday Schedule:Day Name\n   *************  15227   Sp-PatRoom3_Mult10_Flr_3 Sys-3 Flr-2 Sch-H HPlcmt-east ZN NECB System 3 PSZ Occ Sch Friday, !- Friday Schedule:Day Name\n   *************  15228   Sp-PatRoom3_Mult10_Flr_3 Sys-3 Flr-2 Sch-H HPlcmt-east ZN NECB System 3 PSZ Occ Sch Saturday, !- Saturday Schedule:Day Name\n   *************  15229   Sp-PatRoom3_Mult10_Flr_3 Sys-3 Flr-2 Sch-H HPlcmt-east ZN NECB System 3 PSZ Occ Sch Default, !- Holiday Schedule:Day Name\n   *************  15230   Sp-PatRoom3_Mult10_Flr_3 Sys-3 Flr-2 Sch-H HPlcmt-east ZN NECB System 3 PSZ Occ Sch Summer Design Day, !- SummerDesignDay Schedule:Day Name\n   ** Warning ** IP: IDF line~15230 Alpha Argument length exceeds maximum, will be truncated=  Sp-PatRoom3_Mult10_Flr_3 Sys-3 Flr-2 Sch-H HPlcmt-east ZN NECB System 3 PSZ Occ Sch Summer Design Da\n   **   ~~~   ** Will be processed as Alpha=SP-PATROOM3_MULT10_FLR_3 SYS-3 FLR-2 SCH-H HPLCMT-EAST ZN NECB SYSTEM 3 PSZ OCC SCH SUMMER DESIGN DAY\n   ************* IDF Context for following error/warning message:\n   ************* Note -- lines truncated at 300 characters, if necessary...\n   *************  15220 Schedule:Week:Daily,\n   ************* indicated Name=Schedule:Week:Daily {65be21c6-f68d-4b56-b899-ccd92e41c684}\n   ************* Only last 10 lines before error line shown.....\n   *************  15222   Sp-PatRoom3_Mult10_Flr_3 Sys-3 Flr-2 Sch-H HPlcmt-east ZN NECB System 3 PSZ Occ Sch Sunday, !- Sunday Schedule:Day Name\n   *************  15223   Sp-PatRoom3_Mult10_Flr_3 Sys-3 Flr-2 Sch-H HPlcmt-east ZN NECB System 3 PSZ Occ Sch Monday, !- Monday Schedule:Day Name\n   *************  15224   Sp-PatRoom3_Mult10_Flr_3 Sys-3 Flr-2 Sch-H HPlcmt-east ZN NECB System 3 PSZ Occ Sch Tuesday, !- Tuesday Schedule:Day Name\n   *************  15225   Sp-PatRoom3_Mult10_Flr_3 Sys-3 Flr-2 Sch-H HPlcmt-east ZN NECB System 3 PSZ Occ Sch Wednesday, !- Wednesday Schedule:Day Name\n   *************  15226   Sp-PatRoom3_Mult10_Flr_3 Sys-3 Flr-2 Sch-H HPlcmt-east ZN NECB System 3 PSZ Occ Sch Thursday, !- Thursday Schedule:Day Name\n   *************  15227   Sp-PatRoom3_Mult10_Flr_3 Sys-3 Flr-2 Sch-H HPlcmt-east ZN NECB System 3 PSZ Occ Sch Friday, !- Friday Schedule:Day Name\n   *************  15228   Sp-PatRoom3_Mult10_Flr_3 Sys-3 Flr-2 Sch-H HPlcmt-east ZN NECB System 3 PSZ Occ Sch Saturday, !- Saturday Schedule:Day Name\n   *************  15229   Sp-PatRoom3_Mult10_Flr_3 Sys-3 Flr-2 Sch-H HPlcmt-east ZN NECB System 3 PSZ Occ Sch Default, !- Holiday Schedule:Day Name\n   *************  15230   Sp-PatRoom3_Mult10_Flr_3 Sys-3 Flr-2 Sch-H HPlcmt-east ZN NECB System 3 PSZ Occ Sch Summer Design Day, !- SummerDesignDay Schedule:Day Name\n   *************  15231   Sp-PatRoom3_Mult10_Flr_3 Sys-3 Flr-2 Sch-H HPlcmt-east ZN NECB System 3 PSZ Occ Sch Winter Design Day, !- WinterDesignDay Schedule:Day Name\n   ** Warning ** IP: IDF line~15231 Alpha Argument length exceeds maximum, will be truncated=  Sp-PatRoom3_Mult10_Flr_3 Sys-3 Flr-2 Sch-H HPlcmt-east ZN NECB System 3 PSZ Occ Sch Winter Design Da\n   **   ~~~   ** Will be processed as Alpha=SP-PATROOM3_MULT10_FLR_3 SYS-3 FLR-2 SCH-H HPLCMT-EAST ZN NECB SYSTEM 3 PSZ OCC SCH WINTER DESIGN DAY\n   ************* IDF Context for following error/warning message:\n   ************* Note -- lines truncated at 300 characters, if necessary...\n   *************  15251 Schedule:Day:Interval,\n   ************* indicated Name=Sp-PatRoom3_Mult10_Flr_3 Sys-3 Flr-2 Sch-H HPlcmt-east ZN NECB System 3 PSZ Occ Sch Summer Design Day\n   ************* Only last 1 lines before error line shown.....\n   *************  15252   Sp-PatRoom3_Mult10_Flr_3 Sys-3 Flr-2 Sch-H HPlcmt-east ZN NECB System 3 PSZ Occ Sch Summer Design Day, !- Name\n   ** Warning ** IP: IDF line~15252 Alpha Argument length exceeds maximum, will be truncated=  Sp-PatRoom3_Mult10_Flr_3 Sys-3 Flr-2 Sch-H HPlcmt-east ZN NECB System 3 PSZ Occ Sch Summer Design Da\n   **   ~~~   ** Will be processed as Alpha=SP-PATROOM3_MULT10_FLR_3 SYS-3 FLR-2 SCH-H HPLCMT-EAST ZN NECB SYSTEM 3 PSZ OCC SCH SUMMER DESIGN DAY\n   ************* IDF Context for following error/warning message:\n   ************* Note -- lines truncated at 300 characters, if necessary...\n   *************  15258 Schedule:Day:Interval,\n   ************* indicated Name=Sp-PatRoom3_Mult10_Flr_3 Sys-3 Flr-2 Sch-H HPlcmt-east ZN NECB System 3 PSZ Occ Sch Winter Design Day\n   ************* Only last 1 lines before error line shown.....\n   *************  15259   Sp-PatRoom3_Mult10_Flr_3 Sys-3 Flr-2 Sch-H HPlcmt-east ZN NECB System 3 PSZ Occ Sch Winter Design Day, !- Name\n   ** Warning ** IP: IDF line~15259 Alpha Argument length exceeds maximum, will be truncated=  Sp-PatRoom3_Mult10_Flr_3 Sys-3 Flr-2 Sch-H HPlcmt-east ZN NECB System 3 PSZ Occ Sch Winter Design Da\n   **   ~~~   ** Will be processed as Alpha=SP-PATROOM3_MULT10_FLR_3 SYS-3 FLR-2 SCH-H HPLCMT-EAST ZN NECB SYSTEM 3 PSZ OCC SCH WINTER DESIGN DAY\n   ************* IDF Context for following error/warning message:\n   ************* Note -- lines truncated at 300 characters, if necessary...\n   *************  15559 Schedule:Week:Daily,\n   ************* indicated Name=Schedule:Week:Daily {6fd165e0-77b9-4dc5-ac88-ae2d414436eb}\n   ************* Only last 10 lines before error line shown.....\n   *************  15560   Schedule:Week:Daily {6fd165e0-77b9-4dc5-ac88-ae2d414436eb}, !- Name\n   *************  15561   Sp-PatRoom3_Mult10_Flr_4 Sys-3 Flr-3 Sch-H HPlcmt-east ZN NECB System 3 PSZ Occ Sch Sunday, !- Sunday Schedule:Day Name\n   *************  15562   Sp-PatRoom3_Mult10_Flr_4 Sys-3 Flr-3 Sch-H HPlcmt-east ZN NECB System 3 PSZ Occ Sch Monday, !- Monday Schedule:Day Name\n   *************  15563   Sp-PatRoom3_Mult10_Flr_4 Sys-3 Flr-3 Sch-H HPlcmt-east ZN NECB System 3 PSZ Occ Sch Tuesday, !- Tuesday Schedule:Day Name\n   *************  15564   Sp-PatRoom3_Mult10_Flr_4 Sys-3 Flr-3 Sch-H HPlcmt-east ZN NECB System 3 PSZ Occ Sch Wednesday, !- Wednesday Schedule:Day Name\n   *************  15565   Sp-PatRoom3_Mult10_Flr_4 Sys-3 Flr-3 Sch-H HPlcmt-east ZN NECB System 3 PSZ Occ Sch Thursday, !- Thursday Schedule:Day Name\n   *************  15566   Sp-PatRoom3_Mult10_Flr_4 Sys-3 Flr-3 Sch-H HPlcmt-east ZN NECB System 3 PSZ Occ Sch Friday, !- Friday Schedule:Day Name\n   *************  15567   Sp-PatRoom3_Mult10_Flr_4 Sys-3 Flr-3 Sch-H HPlcmt-east ZN NECB System 3 PSZ Occ Sch Saturday, !- Saturday Schedule:Day Name\n   *************  15568   Sp-PatRoom3_Mult10_Flr_4 Sys-3 Flr-3 Sch-H HPlcmt-east ZN NECB System 3 PSZ Occ Sch Default, !- Holiday Schedule:Day Name\n   *************  15569   Sp-PatRoom3_Mult10_Flr_4 Sys-3 Flr-3 Sch-H HPlcmt-east ZN NECB System 3 PSZ Occ Sch Summer Design Day, !- SummerDesignDay Schedule:Day Name\n   ** Warning ** IP: IDF line~15569 Alpha Argument length exceeds maximum, will be truncated=  Sp-PatRoom3_Mult10_Flr_4 Sys-3 Flr-3 Sch-H HPlcmt-east ZN NECB System 3 PSZ Occ Sch Summer Design Da\n   **   ~~~   ** Will be processed as Alpha=SP-PATROOM3_MULT10_FLR_4 SYS-3 FLR-3 SCH-H HPLCMT-EAST ZN NECB SYSTEM 3 PSZ OCC SCH SUMMER DESIGN DAY\n   ************* IDF Context for following error/warning message:\n   ************* Note -- lines truncated at 300 characters, if necessary...\n   *************  15559 Schedule:Week:Daily,\n   ************* indicated Name=Schedule:Week:Daily {6fd165e0-77b9-4dc5-ac88-ae2d414436eb}\n   ************* Only last 10 lines before error line shown.....\n   *************  15561   Sp-PatRoom3_Mult10_Flr_4 Sys-3 Flr-3 Sch-H HPlcmt-east ZN NECB System 3 PSZ Occ Sch Sunday, !- Sunday Schedule:Day Name\n   *************  15562   Sp-PatRoom3_Mult10_Flr_4 Sys-3 Flr-3 Sch-H HPlcmt-east ZN NECB System 3 PSZ Occ Sch Monday, !- Monday Schedule:Day Name\n   *************  15563   Sp-PatRoom3_Mult10_Flr_4 Sys-3 Flr-3 Sch-H HPlcmt-east ZN NECB System 3 PSZ Occ Sch Tuesday, !- Tuesday Schedule:Day Name\n   *************  15564   Sp-PatRoom3_Mult10_Flr_4 Sys-3 Flr-3 Sch-H HPlcmt-east ZN NECB System 3 PSZ Occ Sch Wednesday, !- Wednesday Schedule:Day Name\n   *************  15565   Sp-PatRoom3_Mult10_Flr_4 Sys-3 Flr-3 Sch-H HPlcmt-east ZN NECB System 3 PSZ Occ Sch Thursday, !- Thursday Schedule:Day Name\n   *************  15566   Sp-PatRoom3_Mult10_Flr_4 Sys-3 Flr-3 Sch-H HPlcmt-east ZN NECB System 3 PSZ Occ Sch Friday, !- Friday Schedule:Day Name\n   *************  15567   Sp-PatRoom3_Mult10_Flr_4 Sys-3 Flr-3 Sch-H HPlcmt-east ZN NECB System 3 PSZ Occ Sch Saturday, !- Saturday Schedule:Day Name\n   *************  15568   Sp-PatRoom3_Mult10_Flr_4 Sys-3 Flr-3 Sch-H HPlcmt-east ZN NECB System 3 PSZ Occ Sch Default, !- Holiday Schedule:Day Name\n   *************  15569   Sp-PatRoom3_Mult10_Flr_4 Sys-3 Flr-3 Sch-H HPlcmt-east ZN NECB System 3 PSZ Occ Sch Summer Design Day, !- SummerDesignDay Schedule:Day Name\n   *************  15570   Sp-PatRoom3_Mult10_Flr_4 Sys-3 Flr-3 Sch-H HPlcmt-east ZN NECB System 3 PSZ Occ Sch Winter Design Day, !- WinterDesignDay Schedule:Day Name\n   ** Warning ** IP: IDF line~15570 Alpha Argument length exceeds maximum, will be truncated=  Sp-PatRoom3_Mult10_Flr_4 Sys-3 Flr-3 Sch-H HPlcmt-east ZN NECB System 3 PSZ Occ Sch Winter Design Da\n   **   ~~~   ** Will be processed as Alpha=SP-PATROOM3_MULT10_FLR_4 SYS-3 FLR-3 SCH-H HPLCMT-EAST ZN NECB SYSTEM 3 PSZ OCC SCH WINTER DESIGN DAY\n   ************* IDF Context for following error/warning message:\n   ************* Note -- lines truncated at 300 characters, if necessary...\n   *************  15590 Schedule:Day:Interval,\n   ************* indicated Name=Sp-PatRoom3_Mult10_Flr_4 Sys-3 Flr-3 Sch-H HPlcmt-east ZN NECB System 3 PSZ Occ Sch Summer Design Day\n   ************* Only last 1 lines before error line shown.....\n   *************  15591   Sp-PatRoom3_Mult10_Flr_4 Sys-3 Flr-3 Sch-H HPlcmt-east ZN NECB System 3 PSZ Occ Sch Summer Design Day, !- Name\n   ** Warning ** IP: IDF line~15591 Alpha Argument length exceeds maximum, will be truncated=  Sp-PatRoom3_Mult10_Flr_4 Sys-3 Flr-3 Sch-H HPlcmt-east ZN NECB System 3 PSZ Occ Sch Summer Design Da\n   **   ~~~   ** Will be processed as Alpha=SP-PATROOM3_MULT10_FLR_4 SYS-3 FLR-3 SCH-H HPLCMT-EAST ZN NECB SYSTEM 3 PSZ OCC SCH SUMMER DESIGN DAY\n   ************* IDF Context for following error/warning message:\n   ************* Note -- lines truncated at 300 characters, if necessary...\n   *************  15597 Schedule:Day:Interval,\n   ************* indicated Name=Sp-PatRoom3_Mult10_Flr_4 Sys-3 Flr-3 Sch-H HPlcmt-east ZN NECB System 3 PSZ Occ Sch Winter Design Day\n   ************* Only last 1 lines before error line shown.....\n   *************  15598   Sp-PatRoom3_Mult10_Flr_4 Sys-3 Flr-3 Sch-H HPlcmt-east ZN NECB System 3 PSZ Occ Sch Winter Design Day, !- Name\n   ** Warning ** IP: IDF line~15598 Alpha Argument length exceeds maximum, will be truncated=  Sp-PatRoom3_Mult10_Flr_4 Sys-3 Flr-3 Sch-H HPlcmt-east ZN NECB System 3 PSZ Occ Sch Winter Design Da\n   **   ~~~   ** Will be processed as Alpha=SP-PATROOM3_MULT10_FLR_4 SYS-3 FLR-3 SCH-H HPLCMT-EAST ZN NECB SYSTEM 3 PSZ OCC SCH WINTER DESIGN DAY\n   ************* IDF Context for following error/warning message:\n   ************* Note -- lines truncated at 300 characters, if necessary...\n   *************  16452 Schedule:Week:Daily,\n   ************* indicated Name=Schedule:Week:Daily {58e5d725-538e-41cf-8a4d-539c19400ff2}\n   ************* Only last 10 lines before error line shown.....\n   *************  16453   Schedule:Week:Daily {58e5d725-538e-41cf-8a4d-539c19400ff2}, !- Name\n   *************  16454   Sp-PatRoom5_Mult10_Flr_3 Sys-3 Flr-2 Sch-H HPlcmt-north ZN NECB System 3 PSZ Occ Sch Sunday, !- Sunday Schedule:Day Name\n   *************  16455   Sp-PatRoom5_Mult10_Flr_3 Sys-3 Flr-2 Sch-H HPlcmt-north ZN NECB System 3 PSZ Occ Sch Monday, !- Monday Schedule:Day Name\n   *************  16456   Sp-PatRoom5_Mult10_Flr_3 Sys-3 Flr-2 Sch-H HPlcmt-north ZN NECB System 3 PSZ Occ Sch Tuesday, !- Tuesday Schedule:Day Name\n   *************  16457   Sp-PatRoom5_Mult10_Flr_3 Sys-3 Flr-2 Sch-H HPlcmt-north ZN NECB System 3 PSZ Occ Sch Wednesday, !- Wednesday Schedule:Day Name\n   *************  16458   Sp-PatRoom5_Mult10_Flr_3 Sys-3 Flr-2 Sch-H HPlcmt-north ZN NECB System 3 PSZ Occ Sch Thursday, !- Thursday Schedule:Day Name\n   *************  16459   Sp-PatRoom5_Mult10_Flr_3 Sys-3 Flr-2 Sch-H HPlcmt-north ZN NECB System 3 PSZ Occ Sch Friday, !- Friday Schedule:Day Name\n   *************  16460   Sp-PatRoom5_Mult10_Flr_3 Sys-3 Flr-2 Sch-H HPlcmt-north ZN NECB System 3 PSZ Occ Sch Saturday, !- Saturday Schedule:Day Name\n   *************  16461   Sp-PatRoom5_Mult10_Flr_3 Sys-3 Flr-2 Sch-H HPlcmt-north ZN NECB System 3 PSZ Occ Sch Default, !- Holiday Schedule:Day Name\n   *************  16462   Sp-PatRoom5_Mult10_Flr_3 Sys-3 Flr-2 Sch-H HPlcmt-north ZN NECB System 3 PSZ Occ Sch Summer Design Day, !- SummerDesignDay Schedule:Day Name\n   ** Warning ** IP: IDF line~16462 Alpha Argument length exceeds maximum, will be truncated=  Sp-PatRoom5_Mult10_Flr_3 Sys-3 Flr-2 Sch-H HPlcmt-north ZN NECB System 3 PSZ Occ Sch Summer Design Da\n   **   ~~~   ** Will be processed as Alpha=SP-PATROOM5_MULT10_FLR_3 SYS-3 FLR-2 SCH-H HPLCMT-NORTH ZN NECB SYSTEM 3 PSZ OCC SCH SUMMER DESIGN DAY\n   ************* IDF Context for following error/warning message:\n   ************* Note -- lines truncated at 300 characters, if necessary...\n   *************  16452 Schedule:Week:Daily,\n   ************* indicated Name=Schedule:Week:Daily {58e5d725-538e-41cf-8a4d-539c19400ff2}\n   ************* Only last 10 lines before error line shown.....\n   *************  16454   Sp-PatRoom5_Mult10_Flr_3 Sys-3 Flr-2 Sch-H HPlcmt-north ZN NECB System 3 PSZ Occ Sch Sunday, !- Sunday Schedule:Day Name\n   *************  16455   Sp-PatRoom5_Mult10_Flr_3 Sys-3 Flr-2 Sch-H HPlcmt-north ZN NECB System 3 PSZ Occ Sch Monday, !- Monday Schedule:Day Name\n   *************  16456   Sp-PatRoom5_Mult10_Flr_3 Sys-3 Flr-2 Sch-H HPlcmt-north ZN NECB System 3 PSZ Occ Sch Tuesday, !- Tuesday Schedule:Day Name\n   *************  16457   Sp-PatRoom5_Mult10_Flr_3 Sys-3 Flr-2 Sch-H HPlcmt-north ZN NECB System 3 PSZ Occ Sch Wednesday, !- Wednesday Schedule:Day Name\n   *************  16458   Sp-PatRoom5_Mult10_Flr_3 Sys-3 Flr-2 Sch-H HPlcmt-north ZN NECB System 3 PSZ Occ Sch Thursday, !- Thursday Schedule:Day Name\n   *************  16459   Sp-PatRoom5_Mult10_Flr_3 Sys-3 Flr-2 Sch-H HPlcmt-north ZN NECB System 3 PSZ Occ Sch Friday, !- Friday Schedule:Day Name\n   *************  16460   Sp-PatRoom5_Mult10_Flr_3 Sys-3 Flr-2 Sch-H HPlcmt-north ZN NECB System 3 PSZ Occ Sch Saturday, !- Saturday Schedule:Day Name\n   *************  16461   Sp-PatRoom5_Mult10_Flr_3 Sys-3 Flr-2 Sch-H HPlcmt-north ZN NECB System 3 PSZ Occ Sch Default, !- Holiday Schedule:Day Name\n   *************  16462   Sp-PatRoom5_Mult10_Flr_3 Sys-3 Flr-2 Sch-H HPlcmt-north ZN NECB System 3 PSZ Occ Sch Summer Design Day, !- SummerDesignDay Schedule:Day Name\n   *************  16463   Sp-PatRoom5_Mult10_Flr_3 Sys-3 Flr-2 Sch-H HPlcmt-north ZN NECB System 3 PSZ Occ Sch Winter Design Day, !- WinterDesignDay Schedule:Day Name\n   ** Warning ** IP: IDF line~16463 Alpha Argument length exceeds maximum, will be truncated=  Sp-PatRoom5_Mult10_Flr_3 Sys-3 Flr-2 Sch-H HPlcmt-north ZN NECB System 3 PSZ Occ Sch Winter Design Da\n   **   ~~~   ** Will be processed as Alpha=SP-PATROOM5_MULT10_FLR_3 SYS-3 FLR-2 SCH-H HPLCMT-NORTH ZN NECB SYSTEM 3 PSZ OCC SCH WINTER DESIGN DAY\n   ************* IDF Context for following error/warning message:\n   ************* Note -- lines truncated at 300 characters, if necessary...\n   *************  16483 Schedule:Day:Interval,\n   ************* indicated Name=Sp-PatRoom5_Mult10_Flr_3 Sys-3 Flr-2 Sch-H HPlcmt-north ZN NECB System 3 PSZ Occ Sch Summer Design Day\n   ************* Only last 1 lines before error line shown.....\n   *************  16484   Sp-PatRoom5_Mult10_Flr_3 Sys-3 Flr-2 Sch-H HPlcmt-north ZN NECB System 3 PSZ Occ Sch Summer Design Day, !- Name\n   ** Warning ** IP: IDF line~16484 Alpha Argument length exceeds maximum, will be truncated=  Sp-PatRoom5_Mult10_Flr_3 Sys-3 Flr-2 Sch-H HPlcmt-north ZN NECB System 3 PSZ Occ Sch Summer Design Da\n   **   ~~~   ** Will be processed as Alpha=SP-PATROOM5_MULT10_FLR_3 SYS-3 FLR-2 SCH-H HPLCMT-NORTH ZN NECB SYSTEM 3 PSZ OCC SCH SUMMER DESIGN DAY\n   ************* IDF Context for following error/warning message:\n   ************* Note -- lines truncated at 300 characters, if necessary...\n   *************  16490 Schedule:Day:Interval,\n   ************* indicated Name=Sp-PatRoom5_Mult10_Flr_3 Sys-3 Flr-2 Sch-H HPlcmt-north ZN NECB System 3 PSZ Occ Sch Winter Design Day\n   ************* Only last 1 lines before error line shown.....\n   *************  16491   Sp-PatRoom5_Mult10_Flr_3 Sys-3 Flr-2 Sch-H HPlcmt-north ZN NECB System 3 PSZ Occ Sch Winter Design Day, !- Name\n   ** Warning ** IP: IDF line~16491 Alpha Argument length exceeds maximum, will be truncated=  Sp-PatRoom5_Mult10_Flr_3 Sys-3 Flr-2 Sch-H HPlcmt-north ZN NECB System 3 PSZ Occ Sch Winter Design Da\n   **   ~~~   ** Will be processed as Alpha=SP-PATROOM5_MULT10_FLR_3 SYS-3 FLR-2 SCH-H HPLCMT-NORTH ZN NECB SYSTEM 3 PSZ OCC SCH WINTER DESIGN DAY\n   ************* IDF Context for following error/warning message:\n   ************* Note -- lines truncated at 300 characters, if necessary...\n   *************  16791 Schedule:Week:Daily,\n   ************* indicated Name=Schedule:Week:Daily {c44edcf7-58b6-47b9-94be-56552ec62d57}\n   ************* Only last 10 lines before error line shown.....\n   *************  16792   Schedule:Week:Daily {c44edcf7-58b6-47b9-94be-56552ec62d57}, !- Name\n   *************  16793   Sp-PatRoom5_Mult10_Flr_4 Sys-3 Flr-3 Sch-H HPlcmt-north ZN NECB System 3 PSZ Occ Sch Sunday, !- Sunday Schedule:Day Name\n   *************  16794   Sp-PatRoom5_Mult10_Flr_4 Sys-3 Flr-3 Sch-H HPlcmt-north ZN NECB System 3 PSZ Occ Sch Monday, !- Monday Schedule:Day Name\n   *************  16795   Sp-PatRoom5_Mult10_Flr_4 Sys-3 Flr-3 Sch-H HPlcmt-north ZN NECB System 3 PSZ Occ Sch Tuesday, !- Tuesday Schedule:Day Name\n   *************  16796   Sp-PatRoom5_Mult10_Flr_4 Sys-3 Flr-3 Sch-H HPlcmt-north ZN NECB System 3 PSZ Occ Sch Wednesday, !- Wednesday Schedule:Day Name\n   *************  16797   Sp-PatRoom5_Mult10_Flr_4 Sys-3 Flr-3 Sch-H HPlcmt-north ZN NECB System 3 PSZ Occ Sch Thursday, !- Thursday Schedule:Day Name\n   *************  16798   Sp-PatRoom5_Mult10_Flr_4 Sys-3 Flr-3 Sch-H HPlcmt-north ZN NECB System 3 PSZ Occ Sch Friday, !- Friday Schedule:Day Name\n   *************  16799   Sp-PatRoom5_Mult10_Flr_4 Sys-3 Flr-3 Sch-H HPlcmt-north ZN NECB System 3 PSZ Occ Sch Saturday, !- Saturday Schedule:Day Name\n   *************  16800   Sp-PatRoom5_Mult10_Flr_4 Sys-3 Flr-3 Sch-H HPlcmt-north ZN NECB System 3 PSZ Occ Sch Default, !- Holiday Schedule:Day Name\n   *************  16801   Sp-PatRoom5_Mult10_Flr_4 Sys-3 Flr-3 Sch-H HPlcmt-north ZN NECB System 3 PSZ Occ Sch Summer Design Day, !- SummerDesignDay Schedule:Day Name\n   ** Warning ** IP: IDF line~16801 Alpha Argument length exceeds maximum, will be truncated=  Sp-PatRoom5_Mult10_Flr_4 Sys-3 Flr-3 Sch-H HPlcmt-north ZN NECB System 3 PSZ Occ Sch Summer Design Da\n   **   ~~~   ** Will be processed as Alpha=SP-PATROOM5_MULT10_FLR_4 SYS-3 FLR-3 SCH-H HPLCMT-NORTH ZN NECB SYSTEM 3 PSZ OCC SCH SUMMER DESIGN DAY\n   ************* IDF Context for following error/warning message:\n   ************* Note -- lines truncated at 300 characters, if necessary...\n   *************  16791 Schedule:Week:Daily,\n   ************* indicated Name=Schedule:Week:Daily {c44edcf7-58b6-47b9-94be-56552ec62d57}\n   ************* Only last 10 lines before error line shown.....\n   *************  16793   Sp-PatRoom5_Mult10_Flr_4 Sys-3 Flr-3 Sch-H HPlcmt-north ZN NECB System 3 PSZ Occ Sch Sunday, !- Sunday Schedule:Day Name\n   *************  16794   Sp-PatRoom5_Mult10_Flr_4 Sys-3 Flr-3 Sch-H HPlcmt-north ZN NECB System 3 PSZ Occ Sch Monday, !- Monday Schedule:Day Name\n   *************  16795   Sp-PatRoom5_Mult10_Flr_4 Sys-3 Flr-3 Sch-H HPlcmt-north ZN NECB System 3 PSZ Occ Sch Tuesday, !- Tuesday Schedule:Day Name\n   *************  16796   Sp-PatRoom5_Mult10_Flr_4 Sys-3 Flr-3 Sch-H HPlcmt-north ZN NECB System 3 PSZ Occ Sch Wednesday, !- Wednesday Schedule:Day Name\n   *************  16797   Sp-PatRoom5_Mult10_Flr_4 Sys-3 Flr-3 Sch-H HPlcmt-north ZN NECB System 3 PSZ Occ Sch Thursday, !- Thursday Schedule:Day Name\n   *************  16798   Sp-PatRoom5_Mult10_Flr_4 Sys-3 Flr-3 Sch-H HPlcmt-north ZN NECB System 3 PSZ Occ Sch Friday, !- Friday Schedule:Day Name\n   *************  16799   Sp-PatRoom5_Mult10_Flr_4 Sys-3 Flr-3 Sch-H HPlcmt-north ZN NECB System 3 PSZ Occ Sch Saturday, !- Saturday Schedule:Day Name\n   *************  16800   Sp-PatRoom5_Mult10_Flr_4 Sys-3 Flr-3 Sch-H HPlcmt-north ZN NECB System 3 PSZ Occ Sch Default, !- Holiday Schedule:Day Name\n   *************  16801   Sp-PatRoom5_Mult10_Flr_4 Sys-3 Flr-3 Sch-H HPlcmt-north ZN NECB System 3 PSZ Occ Sch Summer Design Day, !- SummerDesignDay Schedule:Day Name\n   *************  16802   Sp-PatRoom5_Mult10_Flr_4 Sys-3 Flr-3 Sch-H HPlcmt-north ZN NECB System 3 PSZ Occ Sch Winter Design Day, !- WinterDesignDay Schedule:Day Name\n   ** Warning ** IP: IDF line~16802 Alpha Argument length exceeds maximum, will be truncated=  Sp-PatRoom5_Mult10_Flr_4 Sys-3 Flr-3 Sch-H HPlcmt-north ZN NECB System 3 PSZ Occ Sch Winter Design Da\n   **   ~~~   ** Will be processed as Alpha=SP-PATROOM5_MULT10_FLR_4 SYS-3 FLR-3 SCH-H HPLCMT-NORTH ZN NECB SYSTEM 3 PSZ OCC SCH WINTER DESIGN DAY\n   ************* IDF Context for following error/warning message:\n   ************* Note -- lines truncated at 300 characters, if necessary...\n   *************  16822 Schedule:Day:Interval,\n   ************* indicated Name=Sp-PatRoom5_Mult10_Flr_4 Sys-3 Flr-3 Sch-H HPlcmt-north ZN NECB System 3 PSZ Occ Sch Summer Design Day\n   ************* Only last 1 lines before error line shown.....\n   *************  16823   Sp-PatRoom5_Mult10_Flr_4 Sys-3 Flr-3 Sch-H HPlcmt-north ZN NECB System 3 PSZ Occ Sch Summer Design Day, !- Name\n   ** Warning ** IP: IDF line~16823 Alpha Argument length exceeds maximum, will be truncated=  Sp-PatRoom5_Mult10_Flr_4 Sys-3 Flr-3 Sch-H HPlcmt-north ZN NECB System 3 PSZ Occ Sch Summer Design Da\n   **   ~~~   ** Will be processed as Alpha=SP-PATROOM5_MULT10_FLR_4 SYS-3 FLR-3 SCH-H HPLCMT-NORTH ZN NECB SYSTEM 3 PSZ OCC SCH SUMMER DESIGN DAY\n   ************* IDF Context for following error/warning message:\n   ************* Note -- lines truncated at 300 characters, if necessary...\n   *************  16829 Schedule:Day:Interval,\n   ************* indicated Name=Sp-PatRoom5_Mult10_Flr_4 Sys-3 Flr-3 Sch-H HPlcmt-north ZN NECB System 3 PSZ Occ Sch Winter Design Day\n   ************* Only last 1 lines before error line shown.....\n   *************  16830   Sp-PatRoom5_Mult10_Flr_4 Sys-3 Flr-3 Sch-H HPlcmt-north ZN NECB System 3 PSZ Occ Sch Winter Design Day, !- Name\n   ** Warning ** IP: IDF line~16830 Alpha Argument length exceeds maximum, will be truncated=  Sp-PatRoom5_Mult10_Flr_4 Sys-3 Flr-3 Sch-H HPlcmt-north ZN NECB System 3 PSZ Occ Sch Winter Design Da\n   **   ~~~   ** Will be processed as Alpha=SP-PATROOM5_MULT10_FLR_4 SYS-3 FLR-3 SCH-H HPLCMT-NORTH ZN NECB SYSTEM 3 PSZ OCC SCH WINTER DESIGN DAY\n   ************* IDF Context for following error/warning message:\n   ************* Note -- lines truncated at 300 characters, if necessary...\n   *************  17684 Schedule:Week:Daily,\n   ************* indicated Name=Schedule:Week:Daily {64fddd87-f2c6-419e-9d18-3ca66c81a917}\n   ************* Only last 10 lines before error line shown.....\n   *************  17685   Schedule:Week:Daily {64fddd87-f2c6-419e-9d18-3ca66c81a917}, !- Name\n   *************  17686   Sp-PatRoom7_Mult10_Flr_3 Sys-3 Flr-2 Sch-H HPlcmt-west ZN NECB System 3 PSZ Occ Sch Sunday, !- Sunday Schedule:Day Name\n   *************  17687   Sp-PatRoom7_Mult10_Flr_3 Sys-3 Flr-2 Sch-H HPlcmt-west ZN NECB System 3 PSZ Occ Sch Monday, !- Monday Schedule:Day Name\n   *************  17688   Sp-PatRoom7_Mult10_Flr_3 Sys-3 Flr-2 Sch-H HPlcmt-west ZN NECB System 3 PSZ Occ Sch Tuesday, !- Tuesday Schedule:Day Name\n   *************  17689   Sp-PatRoom7_Mult10_Flr_3 Sys-3 Flr-2 Sch-H HPlcmt-west ZN NECB System 3 PSZ Occ Sch Wednesday, !- Wednesday Schedule:Day Name\n   *************  17690   Sp-PatRoom7_Mult10_Flr_3 Sys-3 Flr-2 Sch-H HPlcmt-west ZN NECB System 3 PSZ Occ Sch Thursday, !- Thursday Schedule:Day Name\n   *************  17691   Sp-PatRoom7_Mult10_Flr_3 Sys-3 Flr-2 Sch-H HPlcmt-west ZN NECB System 3 PSZ Occ Sch Friday, !- Friday Schedule:Day Name\n   *************  17692   Sp-PatRoom7_Mult10_Flr_3 Sys-3 Flr-2 Sch-H HPlcmt-west ZN NECB System 3 PSZ Occ Sch Saturday, !- Saturday Schedule:Day Name\n   *************  17693   Sp-PatRoom7_Mult10_Flr_3 Sys-3 Flr-2 Sch-H HPlcmt-west ZN NECB System 3 PSZ Occ Sch Default, !- Holiday Schedule:Day Name\n   *************  17694   Sp-PatRoom7_Mult10_Flr_3 Sys-3 Flr-2 Sch-H HPlcmt-west ZN NECB System 3 PSZ Occ Sch Summer Design Day, !- SummerDesignDay Schedule:Day Name\n   ** Warning ** IP: IDF line~17694 Alpha Argument length exceeds maximum, will be truncated=  Sp-PatRoom7_Mult10_Flr_3 Sys-3 Flr-2 Sch-H HPlcmt-west ZN NECB System 3 PSZ Occ Sch Summer Design Da\n   **   ~~~   ** Will be processed as Alpha=SP-PATROOM7_MULT10_FLR_3 SYS-3 FLR-2 SCH-H HPLCMT-WEST ZN NECB SYSTEM 3 PSZ OCC SCH SUMMER DESIGN DAY\n   ************* IDF Context for following error/warning message:\n   ************* Note -- lines truncated at 300 characters, if necessary...\n   *************  17684 Schedule:Week:Daily,\n   ************* indicated Name=Schedule:Week:Daily {64fddd87-f2c6-419e-9d18-3ca66c81a917}\n   ************* Only last 10 lines before error line shown.....\n   *************  17686   Sp-PatRoom7_Mult10_Flr_3 Sys-3 Flr-2 Sch-H HPlcmt-west ZN NECB System 3 PSZ Occ Sch Sunday, !- Sunday Schedule:Day Name\n   *************  17687   Sp-PatRoom7_Mult10_Flr_3 Sys-3 Flr-2 Sch-H HPlcmt-west ZN NECB System 3 PSZ Occ Sch Monday, !- Monday Schedule:Day Name\n   *************  17688   Sp-PatRoom7_Mult10_Flr_3 Sys-3 Flr-2 Sch-H HPlcmt-west ZN NECB System 3 PSZ Occ Sch Tuesday, !- Tuesday Schedule:Day Name\n   *************  17689   Sp-PatRoom7_Mult10_Flr_3 Sys-3 Flr-2 Sch-H HPlcmt-west ZN NECB System 3 PSZ Occ Sch Wednesday, !- Wednesday Schedule:Day Name\n   *************  17690   Sp-PatRoom7_Mult10_Flr_3 Sys-3 Flr-2 Sch-H HPlcmt-west ZN NECB System 3 PSZ Occ Sch Thursday, !- Thursday Schedule:Day Name\n   *************  17691   Sp-PatRoom7_Mult10_Flr_3 Sys-3 Flr-2 Sch-H HPlcmt-west ZN NECB System 3 PSZ Occ Sch Friday, !- Friday Schedule:Day Name\n   *************  17692   Sp-PatRoom7_Mult10_Flr_3 Sys-3 Flr-2 Sch-H HPlcmt-west ZN NECB System 3 PSZ Occ Sch Saturday, !- Saturday Schedule:Day Name\n   *************  17693   Sp-PatRoom7_Mult10_Flr_3 Sys-3 Flr-2 Sch-H HPlcmt-west ZN NECB System 3 PSZ Occ Sch Default, !- Holiday Schedule:Day Name\n   *************  17694   Sp-PatRoom7_Mult10_Flr_3 Sys-3 Flr-2 Sch-H HPlcmt-west ZN NECB System 3 PSZ Occ Sch Summer Design Day, !- SummerDesignDay Schedule:Day Name\n   *************  17695   Sp-PatRoom7_Mult10_Flr_3 Sys-3 Flr-2 Sch-H HPlcmt-west ZN NECB System 3 PSZ Occ Sch Winter Design Day, !- WinterDesignDay Schedule:Day Name\n   ** Warning ** IP: IDF line~17695 Alpha Argument length exceeds maximum, will be truncated=  Sp-PatRoom7_Mult10_Flr_3 Sys-3 Flr-2 Sch-H HPlcmt-west ZN NECB System 3 PSZ Occ Sch Winter Design Da\n   **   ~~~   ** Will be processed as Alpha=SP-PATROOM7_MULT10_FLR_3 SYS-3 FLR-2 SCH-H HPLCMT-WEST ZN NECB SYSTEM 3 PSZ OCC SCH WINTER DESIGN DAY\n   ************* IDF Context for following error/warning message:\n   ************* Note -- lines truncated at 300 characters, if necessary...\n   *************  17715 Schedule:Day:Interval,\n   ************* indicated Name=Sp-PatRoom7_Mult10_Flr_3 Sys-3 Flr-2 Sch-H HPlcmt-west ZN NECB System 3 PSZ Occ Sch Summer Design Day\n   ************* Only last 1 lines before error line shown.....\n   *************  17716   Sp-PatRoom7_Mult10_Flr_3 Sys-3 Flr-2 Sch-H HPlcmt-west ZN NECB System 3 PSZ Occ Sch Summer Design Day, !- Name\n   ** Warning ** IP: IDF line~17716 Alpha Argument length exceeds maximum, will be truncated=  Sp-PatRoom7_Mult10_Flr_3 Sys-3 Flr-2 Sch-H HPlcmt-west ZN NECB System 3 PSZ Occ Sch Summer Design Da\n   **   ~~~   ** Will be processed as Alpha=SP-PATROOM7_MULT10_FLR_3 SYS-3 FLR-2 SCH-H HPLCMT-WEST ZN NECB SYSTEM 3 PSZ OCC SCH SUMMER DESIGN DAY\n   ************* IDF Context for following error/warning message:\n   ************* Note -- lines truncated at 300 characters, if necessary...\n   *************  17722 Schedule:Day:Interval,\n   ************* indicated Name=Sp-PatRoom7_Mult10_Flr_3 Sys-3 Flr-2 Sch-H HPlcmt-west ZN NECB System 3 PSZ Occ Sch Winter Design Day\n   ************* Only last 1 lines before error line shown.....\n   *************  17723   Sp-PatRoom7_Mult10_Flr_3 Sys-3 Flr-2 Sch-H HPlcmt-west ZN NECB System 3 PSZ Occ Sch Winter Design Day, !- Name\n   ** Warning ** IP: IDF line~17723 Alpha Argument length exceeds maximum, will be truncated=  Sp-PatRoom7_Mult10_Flr_3 Sys-3 Flr-2 Sch-H HPlcmt-west ZN NECB System 3 PSZ Occ Sch Winter Design Da\n   **   ~~~   ** Will be processed as Alpha=SP-PATROOM7_MULT10_FLR_3 SYS-3 FLR-2 SCH-H HPLCMT-WEST ZN NECB SYSTEM 3 PSZ OCC SCH WINTER DESIGN DAY\n   ************* IDF Context for following error/warning message:\n   ************* Note -- lines truncated at 300 characters, if necessary...\n   *************  18023 Schedule:Week:Daily,\n   ************* indicated Name=Schedule:Week:Daily {dffa2eac-c204-43f4-90a2-9cf4bda8c4e9}\n   ************* Only last 10 lines before error line shown.....\n   *************  18024   Schedule:Week:Daily {dffa2eac-c204-43f4-90a2-9cf4bda8c4e9}, !- Name\n   *************  18025   Sp-PatRoom7_Mult10_Flr_4 Sys-3 Flr-3 Sch-H HPlcmt-west ZN NECB System 3 PSZ Occ Sch Sunday, !- Sunday Schedule:Day Name\n   *************  18026   Sp-PatRoom7_Mult10_Flr_4 Sys-3 Flr-3 Sch-H HPlcmt-west ZN NECB System 3 PSZ Occ Sch Monday, !- Monday Schedule:Day Name\n   *************  18027   Sp-PatRoom7_Mult10_Flr_4 Sys-3 Flr-3 Sch-H HPlcmt-west ZN NECB System 3 PSZ Occ Sch Tuesday, !- Tuesday Schedule:Day Name\n   *************  18028   Sp-PatRoom7_Mult10_Flr_4 Sys-3 Flr-3 Sch-H HPlcmt-west ZN NECB System 3 PSZ Occ Sch Wednesday, !- Wednesday Schedule:Day Name\n   *************  18029   Sp-PatRoom7_Mult10_Flr_4 Sys-3 Flr-3 Sch-H HPlcmt-west ZN NECB System 3 PSZ Occ Sch Thursday, !- Thursday Schedule:Day Name\n   *************  18030   Sp-PatRoom7_Mult10_Flr_4 Sys-3 Flr-3 Sch-H HPlcmt-west ZN NECB System 3 PSZ Occ Sch Friday, !- Friday Schedule:Day Name\n   *************  18031   Sp-PatRoom7_Mult10_Flr_4 Sys-3 Flr-3 Sch-H HPlcmt-west ZN NECB System 3 PSZ Occ Sch Saturday, !- Saturday Schedule:Day Name\n   *************  18032   Sp-PatRoom7_Mult10_Flr_4 Sys-3 Flr-3 Sch-H HPlcmt-west ZN NECB System 3 PSZ Occ Sch Default, !- Holiday Schedule:Day Name\n   *************  18033   Sp-PatRoom7_Mult10_Flr_4 Sys-3 Flr-3 Sch-H HPlcmt-west ZN NECB System 3 PSZ Occ Sch Summer Design Day, !- SummerDesignDay Schedule:Day Name\n   ** Warning ** IP: IDF line~18033 Alpha Argument length exceeds maximum, will be truncated=  Sp-PatRoom7_Mult10_Flr_4 Sys-3 Flr-3 Sch-H HPlcmt-west ZN NECB System 3 PSZ Occ Sch Summer Design Da\n   **   ~~~   ** Will be processed as Alpha=SP-PATROOM7_MULT10_FLR_4 SYS-3 FLR-3 SCH-H HPLCMT-WEST ZN NECB SYSTEM 3 PSZ OCC SCH SUMMER DESIGN DAY\n   ************* IDF Context for following error/warning message:\n   ************* Note -- lines truncated at 300 characters, if necessary...\n   *************  18023 Schedule:Week:Daily,\n   ************* indicated Name=Schedule:Week:Daily {dffa2eac-c204-43f4-90a2-9cf4bda8c4e9}\n   ************* Only last 10 lines before error line shown.....\n   *************  18025   Sp-PatRoom7_Mult10_Flr_4 Sys-3 Flr-3 Sch-H HPlcmt-west ZN NECB System 3 PSZ Occ Sch Sunday, !- Sunday Schedule:Day Name\n   *************  18026   Sp-PatRoom7_Mult10_Flr_4 Sys-3 Flr-3 Sch-H HPlcmt-west ZN NECB System 3 PSZ Occ Sch Monday, !- Monday Schedule:Day Name\n   *************  18027   Sp-PatRoom7_Mult10_Flr_4 Sys-3 Flr-3 Sch-H HPlcmt-west ZN NECB System 3 PSZ Occ Sch Tuesday, !- Tuesday Schedule:Day Name\n   *************  18028   Sp-PatRoom7_Mult10_Flr_4 Sys-3 Flr-3 Sch-H HPlcmt-west ZN NECB System 3 PSZ Occ Sch Wednesday, !- Wednesday Schedule:Day Name\n   *************  18029   Sp-PatRoom7_Mult10_Flr_4 Sys-3 Flr-3 Sch-H HPlcmt-west ZN NECB System 3 PSZ Occ Sch Thursday, !- Thursday Schedule:Day Name\n   *************  18030   Sp-PatRoom7_Mult10_Flr_4 Sys-3 Flr-3 Sch-H HPlcmt-west ZN NECB System 3 PSZ Occ Sch Friday, !- Friday Schedule:Day Name\n   *************  18031   Sp-PatRoom7_Mult10_Flr_4 Sys-3 Flr-3 Sch-H HPlcmt-west ZN NECB System 3 PSZ Occ Sch Saturday, !- Saturday Schedule:Day Name\n   *************  18032   Sp-PatRoom7_Mult10_Flr_4 Sys-3 Flr-3 Sch-H HPlcmt-west ZN NECB System 3 PSZ Occ Sch Default, !- Holiday Schedule:Day Name\n   *************  18033   Sp-PatRoom7_Mult10_Flr_4 Sys-3 Flr-3 Sch-H HPlcmt-west ZN NECB System 3 PSZ Occ Sch Summer Design Day, !- SummerDesignDay Schedule:Day Name\n   *************  18034   Sp-PatRoom7_Mult10_Flr_4 Sys-3 Flr-3 Sch-H HPlcmt-west ZN NECB System 3 PSZ Occ Sch Winter Design Day, !- WinterDesignDay Schedule:Day Name\n   ** Warning ** IP: IDF line~18034 Alpha Argument length exceeds maximum, will be truncated=  Sp-PatRoom7_Mult10_Flr_4 Sys-3 Flr-3 Sch-H HPlcmt-west ZN NECB System 3 PSZ Occ Sch Winter Design Da\n   **   ~~~   ** Will be processed as Alpha=SP-PATROOM7_MULT10_FLR_4 SYS-3 FLR-3 SCH-H HPLCMT-WEST ZN NECB SYSTEM 3 PSZ OCC SCH WINTER DESIGN DAY\n   ************* IDF Context for following error/warning message:\n   ************* Note -- lines truncated at 300 characters, if necessary...\n   *************  18054 Schedule:Day:Interval,\n   ************* indicated Name=Sp-PatRoom7_Mult10_Flr_4 Sys-3 Flr-3 Sch-H HPlcmt-west ZN NECB System 3 PSZ Occ Sch Summer Design Day\n   ************* Only last 1 lines before error line shown.....\n   *************  18055   Sp-PatRoom7_Mult10_Flr_4 Sys-3 Flr-3 Sch-H HPlcmt-west ZN NECB System 3 PSZ Occ Sch Summer Design Day, !- Name\n   ** Warning ** IP: IDF line~18055 Alpha Argument length exceeds maximum, will be truncated=  Sp-PatRoom7_Mult10_Flr_4 Sys-3 Flr-3 Sc
[...]
NxVca5SZ5anaE9kl7dQ5vhhvZVeHvPPItyLYG9teHLsZkEqZnGUr2Fyoy02ftjbGw6PjzfWXHgGOMABDnCAAxzgAAc4wAEOcP6aOCLJbvI/gYUn1UnhuXNFFEsPNKABDWhAAxrQgAY0oAENaECjp7kr/jXrv2iugkwCBzjAAQ5wgAMc4AAHOMABDnDq4Dy+N9BR7w08z6j3Bvad4hu2o6Pt7f19kIIUpCAFKUhBClKQghSkIAUpSEH6Nkh7BambUqTdgrTf7/X2dkAKUpCCFKQgBSlIQQpSkIIUpCAF6dsg7SvSk9gnSHv7Banj7O72+yAFKUhBClKQghSkIAUpSEEKUpCC9G2QbivSr9OMIt0rSPfzY/AepCAFKUhBClKQghSkIAUpSEEKUpC+DdKBIv2X9CjS3YL0w4fhcHcXpCAFKUhBClKQghSkIAUpSEEKUpC+DdKd4pOJTFKkOwXpcLizA1KQghSkIAUpSEEKUpCCFKQgBSlI3wrpriL9FFGVBXuDgnRvr9cbDEAKUpCCFKQgBSlIQQpSkIIUpCAFaWOkKxQvdu9apc7u7dRPA3k+dWfSTuV92tr4GGVxUo4x/3PLD/6NDBM/CgOZFB5KXGxtiSPPE64oPIk7P52KJLqRwuuXtExuJ7Y7m8nQa1lK29osabA6bDdN45Z1b7XFTtew0Txv1KveKEnngVzgddxwNI3ivL0VyLEB7dLHOArTzp30J9NU+biKAq+6j8XYnM86X9z0LIpudi8/ZUHqdC9PgvhyW5zPk05f5L/nP89H085H8fFLMLpRekkqfv8sPh8P36urUnkj+uLL+e/idDRSl25s6gb43VYyiv1Z+g/ymndbnn/7splsQzvLfQnfO7RGavYP8w5z/VDGlz2nZ4miGw8tz09mgTs/8MMgt3Wugmj0/SeLBsy9Lu5BpPNZ3l715Na1e+suzmpbquPWjdVMFYfC829mgbRDeXd+O2lZP7wA2Rbb3W7xozT0lF/PTd3c8cUfVuBeycA6sDw5dvOBFbM4GvuBtNoLy+W9deDY3bZ16waZXP4+UitU3iZfdIbD42ProV3JT4/JT5/JzzaTnwGTnx0mP7tMfvaY/Owz+XG6XI64ZrTDNaUdrjntcE1qh2tWO1zT2uGa1w7XxHa4ZnaPa2b32NZqrpnd45rZPaOZLZLs5ubZK6sr7Wix9AzckH1k5obsITM3ZP+YuSHj3swNGfVmbsiYN3NDRryZGzLezdzQG5mhH6Z5TG9jhn6YZjK9iRn6YZrL9BZm6IdpNtMbmKEfpvlMb1+GfrjWZab5TO9dhn6qz+c7P0zNt60rdaq6H7J7DP2Q3WPoh+weQz9kuBv6IcPd0A8Z7oZ+yHA39EOGu6Efev8ydcQ1o+kdzNQR15ym9zBTR1yzmt7FTB1xzWt6HzN1xDWz6Z3M1BHbWs01s+nNzNRR9Zn9+B1G6TuGqW2u++wPvcVLiBkkeuuX6K9fYnv9EoP1S+ysX2J3/RJ765fYX7/Es519XRoNxLfmg1k+DfqTLT4N+kMvPg36k14+DfpDYD4N+vNhPg36o2M+DfpTZb79r4E47zWxjzewkfca2Ml79bby0lc5VkurFu96ZJCgR4NNgh4MNgl6LNgk6LSKTYJOq9gk6LSKTYJOq9gk6LSKTULzzTWfBv3VH58GnVbxadBpFZ8GnVbxadBpFZ8GnVbxadBpFZ8GnVbxadBpFd/+10Cca77i59NoYCPXpFV8GvW28tI3ZlVLqxav1GKQoEeDTYIeDDYJeizYJOi0ik2CTqvYJOi0ik2CTqvYJOi0ik1Ck1bxadDLLZ8GnVbxadBpFZ8GnVbxadBpFZ8GnVbxadBpFZ8GnVbxadBpFd/+10Cca9IqPo0GNnJNWsWnUW8rL30xSbW0avHmEgYJejTYJOjBYJOgx4JNgk6r2CTotIpNgk6r2CTotIpNgk6r2CQ0aRWfBr3c8mnQaRWfBp1W8WnQaRWfBp1W8WnQaRWfBp1W8WnQaRWfBp1W8e1/DcS5Jq3i02hgI9ekVXwa9bby0vrv1dKqRYF4Bgl6NNgk6MFgk6DHgk2CTqvYJOi0ik2CTqvYJOi0ik2CTqvYJDRpFZ8GvdzyadBpFZ8GnVbxadBpFZ8GnVbxadBpFZ8GnVbxadBpFZ8GnVbx7X8NxLkmreLTaGAj16RVfBr1tvLSMrvV0qpFHV4GCXo02CTowWCToMeCTYJOq9gk6LSKTYJOq9gk6LSKTYJOq9gkNGkVnwa93PJp0GkVnwadVvFp0GkVnwadVvFp0GkVnwadVvFp0GkVnwadVvHtfw3EuSat4tNoYCPXpFV8GvW28tJqhtXSqkW5QwYJejTYJOjBYJOgx4JNgk6r2CTotIpNgk6r2CTotIpNgk6r2CS0xda4NOjllk9DV8iKS0NX44pLQ1f+iktDV/ONS0NXDo5LQ1cpjktDV0SOS0NXX45r/2sgzrVV6bg0GtjINWkVn0b5Vv6tSoXXZSFncShCebeqIFsUjm0lt5N2UQG2tFTsqhp0ItP3URZ6SWvQbQvHGbRFX/3WG1QrN3ufYzwWufa8oZvKSRTPj+79ZFFN+fH+K5Sczh2cxp6MzzJV3LhyQ8Uxf87xSbpJFssFhqrPvOz3NZf7hhlmmGGGGWaYYYYZZphhhhlmmGGGGWaYYYYZZphhhhlmmGGGGWaYYYYZZphhhhlmmGGGGWaYYYYZZphhhhlmmGGGGWaYYYb5L2We29GtjGPfk59c9WCtY3df+byqejQ2ef5o7LmMfZksH6+12qsHiGdBlNqBH8rSR2STl57TLX+yNrGLV8/PosBN/SjMoawklbPOlRxHsbSqPfn8q5zI0Ht+Q4tzrZ1uW/TVk8td9SCz+mEFcpwqsBLXK7f25USmx2Gq+ieXGGfhqCBtbYo/SlysCOVj64vSZ7nV4Y9FK536iZ0Uo1JNSB1PGtl5/x27o2nrP8Cm3lb46tHxnH3p93IWJb5y+CE/XeVuVody8wJVHN2ZIa2w/NCTKh46Ttuw9eq4rttw7MtAzbfWsk8XcTKJo2wmPfHjj+Jvy/P39uXUTZbPv6sA23xqnb9ozTvEdieTE6VhBzKcpFPxTvTEP4V1FASWOHh+RRL4I9nqOJsX3W+bpfH2pzuJYtG6zm+l+5O4zmWWU3Wpq879PV9xzAdIHWoaL/1dXH+zv8u5ODw8XHRePY+F1+WwX5ve6uq4iqX7vU7jB8M2pter/lre3aGa1moyLGdKUcjBvnSTxJ+E0huqEhHJRdGT3+p15WqgZ1kybdUdi3xIDxbjWT+SguCgyl3a6sq6KkkaR99lNZ3FtXWVopk78tN5NanlxbXvqpBYSdX1slpIni8rdcLDePFRxyqcny88oiMcU28m4Vad9aFd7KqVrn8oyynUsbUlvvz2Vfz79LczcX569vWXzz+LX09//mUoPh6fHVdzcJKv2vLeVSmaSCORRHEqwuwmnwcjUZQ0SYSbjPLkxQ8nFTyu+l75ebIzu21xVX1xiWWaxaGYuXEiT4LITVuuWvI386F8cu6qOFepM8tTtCeyy1soc/yw3kovj/lnEe5FsLc2PDl2syAVszjK1zC50RYbP+ztDYfHxxtrLjwDHOAABzjAAQ5wgAMc4AAHOH9NHJFkN/mfwMKT6qTw3LkiiqUHGtCABjSgAQ1oQAMa0IAGNKDR09wV/5r1XzRXQSaBAxzgAAc4wAEOcIADHOAABzh1cB7fG+io9waeZ9R7A/tO8Q3b0dH29v4+SEEKUpCCFKQgBSlIQQpSkIIUpCB9G6S9gtRNKdJuQdrv93p7OyAFKUhBClKQghSkIAUpSEEKUpCC9G2Q9hXpSewTpL39gtRxdnf7fZCCFKQgBSlIQQpSkIIUpCAFKUhB+jZItxXp12lGke4VpPv5MXgPUpCCFKQgBSlIQQpSkIIUpCAFKUjfBulAkf5LehTpbkH64cNwuLsLUpCCFKQgBSlIQQpSkIIUpCAFKUjfBulO8clEJinSnYJ0ONzZASlIQQpSkIIUpCAFKUhBClKQghSkb4V0V5F+iqjKgr1BQbq31+sNBiAFKUhBClKQghSkIAUpSEEKUpCCtDHSFYoXu3etUmf3duqngTyfujNpp/I+bW18jLI4KceY/7nlB/9GhokfhYFMCg8lLra2xJHnCVcUnsSdn05FEt1I4fVLWia3E9udzWTotSylbW2WNFgdtpumccu6t9pip2vYaJ436lVvlKTzQC7wOm44mkZx3t4K5NiAduljHIVp5076k2mqfFxFgVfdx2JszmedL9N58nUqY3c2vzwJ4su+OJ8nnb7If+/0xPlo2hmKj1+C0U3aGUWxFL9/Fp+Ph+/VVam8EX3x5fx3cToaqUs3NnWD+24rGcX+LP0Hec27Lc+/fdlMtqGd5b6E7x1aIzXzh3lnuX4o48ue07dE0YWHlucns8CdH/hhkNs6V0E0+v6TRQPmXhf3INL5LG+venHr2r11F2e1LdVx68ZqlopD4fk3s0Daobw7v520rB9egGyL7W63+FEadsqv56Zu7vjiDytwr2RgHVieHLtZkIpZHI39QFrtheXy3jpw7G7bunWDTC5/H6nVKW+TLzjD4fGx9dCu5KfH5KfP5Gebyc+Ayc8Ok59dJj97TH72mfw4XS5HXDPa4ZrSDtecdrgmtcM1qx2uae1wzWuHa2I7XDO7xzWze2xrNdfM7nHN7J7RzBZJdnPz7HXVlXa0WHoGbsg+MnND9pCZG7J/zNyQcW/mhox6MzdkzJu5ISPezA0Z72Zu6I3M0A/TPKa3MUM/TDOZ3sQM/TDNZXoLM/TDNJvpDczQD9N8prcvQz9c6zLTfKb3LkM/1efznR+m5tvWlTpV3Q/ZPYZ+yO4x9EN2j6EfMtwN/ZDhbuiHDHdDP2S4G/ohw93QD71/mTrimtH0DmbqiGtO03uYqSOuWU3vYqaOuOY1vY+ZOuKa2fROZuqIba3mmtn0ZmbqqPrMfvz+ovT9wtU+b1y8gJhBgv7rlk2C/ruXTYL+i5hNgv4UiE2C/nyITYL+5IhNgv5MiU2C/rSJTULzESufRgPxrflglk+jgQjXfJzLp9FAjGs+BObTaCDKNR8d82k0EOeaD5z5NJrYxxuIc80n2Hwa9eK89DWO1dKqxXseGSTo0WCToAeDTYIeCzYJesllk6BXXDYJesFlk6DXWzYJerllk9CkVXwaDcS3Jq3i02ggwjVpFZ9GAzGuSav4NBqIck1axafRQJxr0io+jSb28QbiXJNW8WnUi/PSt2VVS6sWr9NikKBHg02CHgw2CXos2CToJZdNgl5x2SToBZdNgl5v2STo5ZZNQpNW8Wk0EN+atIpPo4EI16RVfBoNxLgmreLTaCDKNWkVn0YDca5Jq/g0mtjHG4hzTVrFp1EvzktfSlItrVq8tYRBgh4NNgl6MNgk6LFgk6CXXDYJesVlk6AXXDYJer1lk6CXWzYJTVrFp9FAfGvSKj6NBiJck1bxaTQQ45q0ik+jgSjXpFV8Gg3EuSat4tNoYh9vIM41aRWfRr04L639Xi2tWhSHZ5CgR4NNgh4MNgl6LNgk6CWXTYJecdkk6AWXTYJeb9kk6OWWTUKTVvFpNBDfmrSKT6OBCNekVXwaDcS4Jq3i02ggyjVpFZ9GA3GuSav4NJrYxxuIc01axadRL85LS+xWS6sWNXgZJOjRYJOgB4NNgh4LNgl6yWWToFdcNgl6wWWToNdbNgl6uWWT0KRVfBoNxLcmreLTaCDCNWkVn0YDMa5Jq/g0GohyTVrFp9FAnGvSKj6NJvbxBuJck1bxadSL89JKhtXSqkWpQwYJXZ0bJgldBRwmCV1tHCYJXT0oJgldpSgmCV0NKSYJXXUpJgld3SkmCW2xNS6NBuJbW6KNS6OBCNcWduPSaCDGteXguDQaiHJtETkujQbiXFt6jkujiX28gTjX1rLj0iiP829VKrwuiziLQxHKu1UF2aJwbCu5nbSLCrClpWJXlaATmb6PstBLWoNuWzjOoC366rfeoFq52fsc47HAtecN3VROonh+dO8ni0rKj/dfodx07uA09mR8lqnCxpUbKo75c45P0k2yWC4wVG3mZb+vudQ3zDDDDDPMMMMMM8wwwwwzzDDDDDPMMMMMM8wwwwwzzDDDDDPMMMMMM8wwwwwzzDDDDDPMMMMMM8wwwwwzzDDDDDPMMMMMM8x/KfPcjm5lHPue/OSqB2sdu/vK51XVo7HJ80djz2Xsy2T5eK3VXj1APAui1A78UJY+Ipu89Jxu+ZO1iV28en4WBW7qR2EOZSWpnHWu5DiKpVXtyedf5USG3vMbWpxr7XTboq+eXO6qB5nVDyuQ41SBlbheubUvJzI9DlPVP7nEOAtHBWlrU/xR4mJFKB9bX5Q+y60Ofyxa6dRP7KQYlWpC6njSyM7779gdTVv/ATb1tsJXj47n7Eu/l7Mo8ZXDD/npKnezOpSbF6ji6M4MaYXlh55U8dBx2oatV8d13YZjXwZqvrWWfbqIk0kcZTPpiR9/FH9bnr+3L6dusnz+XQXY5lPr/EVr3iG2O5mcKA07kOEknYp3oif+KayjILDEwfMrksAfyVbH2bzoftssjbc/3UkUi9Z1fivdn8R1LrOcqktdde7v+YpjPkDqUNN46e/i+pv9Xc7F4eHhovPqeSy8Lof92vRWV8dVLN3vdRo/GLYxvV711/LuDtW0VpNhOVOKQg72pZsk/iSU3lCViEguip78Vq8rVwM9y5Jpq+5Y5EN6sBjP+pEUBAdV7tJWV9ZVSdI4+i6r6SyurasUzdyRn86rSS0vrn1XhcRKqq6X1ULyfFmpEx7Gi486VuH8fOERHeGYejMJt+qsD+1iV610/UNZTqGOrS3x5bev4t+nv52J89Ozr798/ln8evrzL0Px8fjsuJqDk3zVlveuStFEGokkilMRZjf5PBiJoqRJItxklCcvfjip4HHV98rPk53ZbYur6otLLNMsDsXMjRN5EkRu2nLVkr+ZD+WTc1fFuUqdWZ6iPZFd3kKZ44f1Vnp5zD+LcC+CvbXhybGbBamYxVG+hsmNttj4YW9vODw+3lhz4RngAAc4wAEOcIADHOAABzjA+WviiCS7yf8EFp5UJ4XnzhVRLD3QgAY0oAENaEADGtCABjSgAY2e5q7416z/orkKMgkc4AAHOMABDnCAAxzgAAc4wKmD8/jeQEe9N/A8o94b2HeKb9iOjra39/dBClKQghSkIAUpSEEKUpCCFKQgBenbIO0VpG5KkXYL0n6/19vbASlIQQpSkIIUpCAFKUhBClKQghSkb4O0r0hPYp8g7e0XpI6zu9vvgxSkIAUpSEEKUpCCFKQgBSlIQQrSt0G6rUi/TjOKdK8g3c+PwXuQghSkIAUpSEEKUpCCFKQgBSlIQfo2SAeK9F/So0h3C9IPH4bD3V2QghSkIAUpSEEKUpCCFKQgBSlIQfo2SHeKTyYySZHuFKTD4c4OSEEKUpCCFKQgBSlIQQpSkIIUpCB9K6S7ivRTRFUW7A0K0r29Xm8wAClIQQpSkIIUpCAFKUhBClKQghSkjZGuULzYvWuVOru3Uz8N5PnUnUk7lfdpa+NjlMVJOcb8zy0/+DcyTPwoDGRSeChxsbUljjxPuKLwJO78dCqS6EYKr1/SMrmd2O5sJkOvZSlta7Okweqw3TSNW9a91RY7XcNG87xRr3qjJJ0HcoHXccPRNIrz9lYgxwa0Sx/jKEw7d9KfTFPl4yoKvOo+FmNzPuucuZ6fz8zJ/PIkiC+3xfk86fRF/nv+83w07XwUH78Eo5u0M4piKX7/LD4fD9+rq1J5I/riy/nv4nQ0UpdubOqG9t1WMor9WfoP8pp3W55/+7KZbEM7y30J3zu0RmreD/Oucv1Qxpc9Z9sSRQceWp6fzAJ3fuCHQW7rXAXR6PtPFg2Ye13cg0jns7y96sOta/fWXZzVtlTHrRurOSoOheffzAJph/Lu/HbSsn54AbIttrvd4kdp0Cm/npu6ueOLP6zAvZKBdWB5cuxmQSpmcTT2A2m1F5bLe+vAsbtt69YNMmkdDAZ2f//J0R+0rZFaqnIX+eozHB4fWw/tSm5763HbX4/b7fW4HazH7c563O6ux+3eetzur8et012T3zXFmbOmQHPWFGnOmkLNWVOsOWsKNmdN0easKdycNcVbb03x1lvXvrameOutKd56r4k3kWQ3N89eCl4nc4ilZ+C1av+aea3au2Zeq/atmdeqK5mZ16rrmJnXqquYmdeqa5iZ16ormJnXygmDodv1RFfldMHQ7Xriq3KyYOh2PRFWOVUwdLueGKucKBi6XU+UVU4TDN2uaQ9bT5RVzhEM3daOsjs/TF+dHlypK6q7rdq1hm6rdq2h26pda+i26gJm6LbqAmbotuoCZui26gJm6LbqAmbotnKeYOp3TXFWOVMw9bumSKucK5j6XVOsVc4WTP2uKdoq5wumftcUb5UzBlO/69rX1hRvlZMGU79m8fatyhcXy28mxaEI5d3qi5Hi+5BWcjtpF19slH4Dsvp6M5Hp+ygLvaQ16LaF4wzaoq9+6w2qfYtyn2M8fmvreUM3lZMonh/d+8ni68HHvqjwHWru4DT2ZHyWqW/rKjdUHPPnHJ+km2SxXGCoLxyXY/Dab4WLL6SeS53L2JfJEjdXWg7ILIhSW31LViqZvHTf5aSJXUy8WRS4qR+FOZSVpHLWuZLjKJZWtZn0q5zI0Ht+Q4tzrZ18FvTVTFBfqjnqx/JL19Lvo1du7cuJTI/DVPVPLjHOwlFB2toUf1T41lURysfWF6WxoQ5/LFrp1E/yea3aVRNSx5NGdt5/x+5o2voPsKm3Ff7yO8al38tZlPjK4Yf8dJW7WR3KzQtUcXRnhrTC8kNPqsDtOG3D1qvjum7DsS8DNd9ayz5dxMkkjrKZ9MSPP4q/Lc/f25dTN1muJyrANp9a5y9a8w6x3cnkRGnYgQwn6VS8Ez3xT2EdBYElDp5fkQT+SLY6zuZF99tmabz96U6iWLSu81vp/iSuc5nlVF3qqnN/PxSO+QCpQ03jpb+L62/2d5kvb4eHi86r57Hwuhz2a9NbXR1XsXS/12n8YNjG9HrVX8u7O1TTWk2G5UwpNkb7cvEfRdIr/qcouSh68lu9rlwN9CxLpq26Y5EP6cFiPOtHUhAcVLlLW11ZVyVJ4+i7rKazuLauUjRzR346rya1vLj2XRUSK6m6XlYLyfNlpU54GC8+6liF8/OFR3SEY+rNJNyqsz60i1210vUPZTmFOra2xJffvop/n/52Js5Pz77+8vln8evpz78Mxcfjs+NqDk7yVVveuypFE2kkkihPpMPsJp8HI1GkiIlwk1GevPjhpILHVd8rP092ZrctrqovLrFMszgUMzdO5EkQuWnLVUv+Zj6UT85dFecqdWZ5ivZEdnkLZY4f/hf+8/O/vrFd/nun+gL2f+UfUYEDHOAABzjAAQ5wgAMc4ADnzeP8+T9fFFEsPdCABjSgAQ1oQAMa0IAGNKABjZ7mT/8TqGjUv/gBBzjAAQ5wgAMc4AAHOMABDnD+F+stfpU3Mxm7aRZL0TrZRMXF/7cqLmazWTAXR34s1EC9kZqJg7dQM3GAmonGpQ1QM9HcLWomomaieWkD1Eys5xc1E1EzETUTUTMRNRNRM/Elt6iZiJqJqJlonCagZqK5W9RMRM1E1Ew0TRNQM7GeX9RMRM1E1ExEzcQXvrhAzcQXOFAzETUTBWomVsNCzUTUTKxzoGaiOlAzETUTiwM1E/VXomZiuQN1oGbi2ygtAhzgAAc4wAEOcIADHOAABzhvHuf/sYojoAENaEADGtCABjSgAQ1oQPN2aP6/qXQCHOAABzjAAQ5wgAMc4AAHOPX1UDPx5QM1Exc1E4XzRqom7ryFqok7jVVNLH6vW56JyU+fyc82k58Bk58dJj+7TH72mPzsM/l5VlXgVY64ZrTDNaUdrjntcE1qh2tWO1zT2uGa1w7XxHa4ZnaPa2b32NZqrpnd45rZPaOZXb2a3zNX9cv3vcIN2UP1C/S9wg0Z9/VL8L3CDRnz9YvsvcINGe+vKKP3Gj9M85jexl5RGe81fpimMr2HvaLY3Wv8MM1megN7Rf2616yDTPOZ3r1eUZLuNX6Y5jO9ddWvMvfMzSvKyr3GD9k9rygc9xo/ZLi/ojTca/yQ4f6K4m+v8UOG+2vKu73KEdeMpnew11Rse5UjrklNb2KvKcL2Kkdc85rex15TV+1VKyPXzKa3steUSnuVI66ZTe9mf3L0Jfaj2E/nwhEd0TrPwk1Vh2qn83/csNN1OsXvH+So03eoba777A+9o6Pt7f19Bone+iX665fYXr/EYP0SO+uX2F2/xN76JfbXL/FsZ1+XRgPx7TQQ4E4DEe40EOJOAzHuNBDkTgNR7jQQ5k4Dcd5rIM57TezjDcR5r4E479WL816h4aaURrdaWtXv93p7OwwS9GiwSdCDwSZBjwWbBL3ksknQKy6bBL3gsknQ6y2bBL3csklo0io+jQbiW5NW8Wk0EOGatIpPo4EY16RVfBoNRLkmreLTaCDONWkVn0YT+3gDca5Jq/g06sV5X2mcxD6h0duvllY5zu5uv88gQY8GmwQ9GGwS9FiwSdBLLpsEveKySdALLpsEvd6ySdD/G8UmofmHQD4N+j+q+DTof7bi06D/D4tPg/4XLT4N+v8S+TTof1nk06D/m5FPg/5HRz6NBuJck1bxaTSxjzewkWvSKj6Nelv5ttL4Os0ojb1qaZV659LgPYMEPRpsEvRgsEnQY8EmQadVbBJ0WsUmQadVbBJ0WsUmQS+3bBKatIpPg06r+DTotIpPg06r+DTotIpPg06r+DTotIpPg06r+DTotIpPo4E416RVfBpN7OMNbOSatIpPo95WPlAa/5IepbFbLa368GE43N1lkKBHg02CHgw2CXos2CTotIpNgk6r2CTotIpNgk6r2CTo5ZZNQpNW8WnQaRWfBp1W8WnQaRWfBp1W8WnQaRWfBp1W8WnQaRWfBp1W8Wk0EOeatIpPo4l9vIGNXJNW8WnU28p3itQtk5TGTrW0ajjc2WGRoEeDTYIeDDYJeizYJOi0ik2CTqvYJOi0ik2CTqvYJOjllk1Ck1bxadBpFZ8GnVbxadBpFZ8GnVbxadBpFZ8GnVbxadBpFZ8GnVbxaTQQ55q0ik+jiX28gY1ck1bxadTbyneVxqeI+rf43qBaWrW31+sNBgwS9GiwSdCDwSZBjwWbBJ1WsUnQaRWbBJ1WsUnQaRWbhK7uFJOEttgal4auWhWXhq6QFZeGrsYVl4au/BWXhq7mG5eGrhwcl4auUhyXhq6IHJdGA3GuSav4NJrYxxvYyDVpFZ9G+Vb+rUqF12UhZnEoQnm3qiBbFI5tJbeTdlEBtrRU7KqacyLT91EWeklr0G0Lxxm0RV/91htUKzd7n2M8VqL2vKGbykkUz4/u/WRRC/nx/iuUjM4dnMaejM8yVZq4ckPFMX/O8Um6SRbLBYaqrrzs9zXX5IYZZphhhhlmmGGGGWaYYYYZZphhhhlmmGGGGWaYYYYZZphhhhlmmGGGGWaYYYYZZphhhhlmmGGGGWaYYYYZZphhhhlmmGGG+S9lntvRrYxj35OfXPVgrWN3X/m8qno0Nnn+aOy5jH2ZLB+vtdqrB4hnQZTagR/K0kdkk5ee0y1/sjaxi1fPz6LATf0ozKGsJJWzzpUcR7G0qj35/KucyNB7fkOLc62dblv01ZPLXfUgs/phBXKcKrAS1yu39uVEpsdhqvonlxhn4aggbW2KP0pcrAjlY+uL0me51eGPRSud+omdFKNSTUgdTxrZef8du6Np6z/Apt5W+OrR8Zx96fdyFiW+cvghP13lblaHcvMCVRzdmSGtsPzQkyoeOk7bsPXquK7bcOzLQM231rJPF3EyiaNsJj3x44/ib8vz9/bl1E2Wz7+rANt8ap2/aM07xHYnkxOlYQcynKRT8U70xD+FdRQEljh4fkUS+CPZ6jibF91vm6Xx9qc7iWLRus5vpfuTuM5lllN1qavO/T1fccwHSB1qGi/9XVx/s7/LuTg8PFx0Xj2PhdflsF+b3urquIql+71O4wfDNqbXq/5a3t2hmtZqMixnSlHIwb50k8SfhNIbqhIRyUXRk9/qdeVqoGdZMm3VHYt8SA8W41k/koLgoMpd2urKuipJGkffZTWdxbV1laKZO/LTeTWp5cW176qQWEnV9bJaSJ4vK3XCw3jxUccqnJ8vPKIjHFNvJuFWnfWhXeyqla5/KMsp1LG1Jb789lX8+/S3M3F+evb1l88/i19Pf/5lKD4enx1Xc3CSr9ry3lUpmkgjkURxKsLsJp8HI1GUNEmEm4zy5MUPJxU8rvpe+XmyM7ttcVV9cYllmsWhmLlxIk+CyE1brlryN/OhfHLuqjhXqTPLU7QnsstbKHP8sN5KL4/5ZxHuRbC3Njw5drMgFbM4ytcwudEWGz/s7Q2Hx8cbay48AxzgAAc4wAEOcIADHOAABzh/TRyRZDf5n8DCk+qk8Ny5IoqlBxrQgAY0oAENaEADGtCABjSg0dPcFf+a9V80V0EmgQMc4AAHOMABDnCAAxzgAAc4dXAe3xvoqPcGnmfUewP7TvEN29HR9vb+PkhBClKQghSkIAUpSEEKUpCCFKQgfRukvYLUTSnSbkHa7/d6ezsgBSlIQQpSkIIUpCAFKUhBClKQgvRtkPYV6UnsE6S9/YLUcXZ3+32QghSkIAUpSEEKUpCCFKQgBSlIQfo2SLcV6ddpRpHuFaT7+TF4D1KQghSkIAUpSEEKUpCCFKQgBSlI3wbpQJH+S3oU6W5B+uHDcLi7C1KQghSkIAUpSEEKUpCCFKQgBSlI3wbpTvHJRCYp0p2CdDjc2QEpSEEKUpCCFKQgBSlIQQpSkIIUpG+FdFeRfoqoyoK9QUG6t9frDQYgBSlIQQpSkIIUpCAFKUhBClKQgrQx0hWKF7t3rVJn93bqp4E8n7ozaafyPm1tfIyyOCnHmP+55Qf/RoaJH4WBTAoPJS62tsSR5wlXFJ7EnZ9ORRLdSOH1S1omtxPbnc1k6LUspW1tljRYHbabpnHLurfaYqdr2GieN+pVb5Sk80Au8DpuOJpGcd7eCuTYgHbpYxyFaedO+pNpqnxcRYFX3cdibP7n6H8WHXwmp9JNhSNORyNxPppubOqG6d1WMor9WfoP8pp3W55/+7KZbEM7y30J3zu0RmoOD/Pbdv1Qxpc9Z9cSRWccWp6fzAJ3fuCHQW7rXAXR6PtPFg2Ye13cg0jns7y96o+ta/fWXZzVtlTHrRur+SYOheffzAJph/Lu/HbSsn54AbIttrvd4kdpACm/npu6ueOLP6zAvZKBdWB5cuxmQSpmcTT2A2m1F5bLe+vAsbtt69YNMrn8faTWmbxNvnQMh8fH1kO7kp8ek58+k59tJj8DJj87TH52mfzsMfnZZ/LjdLkccc1oh2tKO1xz2uGa1A7XrHa4prXDNa8drontcM3sHtfM7rGt1Vwzu8c1s3tGM1sk2c3NsxdPV9rRYukZuCH7yMwN2UNmbsj+MXNDxr2ZGzLqzdyQMW/mhox4MzdkvJu5oTcyQz9M85jexgz9MM1kehMz9MM0l+ktzNAP02ymNzBDP0zzmd6+DP1wrctM85neuwz9VJ/Pd36Ymm9bV+pUdT9k9xj6IbvH0A/ZPYZ+yHA39EOGu6EfMtwN/ZDhbuiHDHdDP/T+ZeqIa0bTO5ipI645Te9hpo64ZjW9i5k64prX9D5m6ohrZtM7makjtrWaa2bTm5mpo+oz+/GbiNI3BVPbXPfZH3qLVwkzSPTWL9Ffv8T2+iUG65fYWb/E7vol9tYvsb9+iWc7+7o0Gohvp4EAdxqIcKeBEHcaiHGngSB3Gohyp4EwdxqI814Dcd5rYh9vIM57DcR5r16cl76QsVpatXhjI4MEPRpsEvRgsEnQY8EmQS+5bBL0issmQS+4bBL0essmQS+3bBKatIpPo4H41qRVfBoNRLgmreLTaCDGNWkVn0YDUa5Jq/g0GohzTVrFp9HEPt5AnGvSKj6NenFe+t6ramnV4sVYDBL0aLBJ0IPBJkGPBZsEveSySdArLpsEveCySdDrLZsE/b9RbBKafwjk06D/o4pPg/5nKz4N+v+w+DTof9Hi06D/L5FPg/6XRT4N+r8Z+TTof3Tk02ggzjX/Hsmn0UCca/6pkk+jgZ1ck1bpNEpfL1ItrVq8f4RBgk6r2CTowWCToMeCTYJOq9gk6LSKTYJOq9gk6LSKTYJebtkkNGkVnwa93PJp0MstnwadVvFp0GkVnwadVvFp0GkVnwadVvFp0GkVn0YDca5Jq/g0GohzTVrFp9HATq5Jq3QapVXcq6VVizLvDBJ0WsUmQQ8GmwQ9FmwSdFrFJkGnVWwSdFrFJkGnVWwS9HLLJqFJq/g06OWWT4Nebvk06LSKT4NOq/g06LSKT4NOq/g06LSKT4NOq/g0GohzTVrFp9FAnGvSKj6NBnZyTVql0ygtllstrVpU02WQoNMqNgl6MNgk6LFgk6DTKjYJOq1ik6DTKjYJOq1ik6CXWzYJTVrFp0Evt3wa9HLLp0GnVXwadFrFp0GnVXwadFrFp0GnVXwadFrFp9FAnGvSKj6NBuJck1bxaTSwk2vSKp1GaU3CamnVomghgwSdVrFJ0IPBJkGPBZsEnVaxSdBpFZsEnVaxSdBpFZuEru4Uk4S22BqXBr3c8mnoCllxaehqXHFp6MpfcWnoar5xaejKwXFp6CrFcWnoishxaTQQ59rSc1waDcS5tmAdl0YDO7kmrVppfKtS4XVZjlkcilDerSrIFoVjW8ntpF1UgC0tFbuq6ZzI9H2UhV7SGnTbwnEGbdFXv/UG1crN3ucYj6WqPW/opnISxfOjez9Z1ER+vP8KhaNzB6exJ+OzTJUortxQccyfc3ySbpLFcoGhqiwv+33NRbthhhlmmGGGGWaYYYYZZphhhhlmmGGGGWaYYYYZZphhhhlmmGGGGWaYYYYZZphhhhlmmGGGGWaYYYYZZphhhhlmmGGGGWaYYf5Lmed2dCvj2PfkJ1c9WOvY3Vc+r6oejU2ePxp7LmNfJsvHa6326gHiWRClduCHsvQR2eSl53TLn6xN7OLV87MocFM/CnMoK0nlrHMlx1EsrWpPPv8qJzL0nt/Q4lxrp9sWffXkclc9yKx+WIEcpwqsxPXKrX05kelxmKr+ySXGWTgqSFub4o8SFytC+dj6ovRZbnX4Y9FKp35iJ8WoVBNSx5NGdt5/x+5o2voPsKm3Fb56dDxnX/q9nEWJrxx+yE9XuZvVody8QBVHd2ZIKyw/9KSKh47TNmy9Oq7rNhz7MlDzrbXs00WcTOIom0lP/Pij+Nvy/L19OXWT5fPvKsA2n1rnL1rzDrHdyeREadiBDCfpVLwTPfFPYR0FgSUOnl+RBP5ItjrO5kX322ZpvP3pTqJYtK7zW+n+JK5zmeVUXeqqc3/PVxzzAVKHmsZLfxfX3+zvci4ODw8XnVfPY+F1OezXpre6Oq5i6X6v0/jBsI3p9aq/lnd3qKa1mgzLmVIUcrAv3STxJ6H0hqpERHJR9OS3el25GuhZlkxbdcciH9KDxXjWj6QgOKhyl7a6sq5KksbRd1lNZ3FtXaVo5o78dF5Nanlx7bsqJFZSdb2sFpLny0qd8DBefNSxCufnC4/oCMfUm0m4VWd9aBe7aqXrH8pyCnVsbYkvv30V/z797Uycn559/eXzz+LX059/GYqPx2fH1Ryc5Ku2vHdViibSSCRRnIowu8nnwUgUJU0S4SajPHnxw0kFj6u+V36e7MxuW1xVX1ximWZxKGZunMiTIHLTlquW/M18KJ+cuyrOVerM8hTtiezyFsocP6y30stj/lmEexHsrQ1Pjt0sSMUsjvI1TG60xcYPe3vD4fHxxpoLzwAHOMABDnCAAxzgAAc4wAHOXxNHJNlN/iew8KQ6KTx3rohi6YEGNKABDWhAAxrQgAY0oAENaPQ0d8W/Zv0XzVWQSeAABzjAAQ5wgAMc4AAHOMABTh2cx/cGOuq9gecZ9d7AvlN8w3Z0tL29vw9SkIIUpCAFKUhBClKQghSkIAUpSN8Gaa8gdVOKtFuQ9vu93t4OSEEKUpCCFKQgBSlIQQpSkIIUpCB9G6R9RXoS+wRpb78gdZzd3X4fpCAFKUhBClKQghSkIAUpSEEKUpC+DdJtRfp1mlGkewXpfn4M3oMUpCAFKUhBClKQghSkIAUpSEEK0rdBOlCk/5IeRbpbkH74MBzu7oIUpCAFKUhBClKQghSkIAUpSEEK0rdBulN8MpFJinSnIB0Od3ZAClKQghSkIAUpSEEKUpCCFKQgBelbId1VpJ8iqrJgb1CQ7u31eoMBSEEKUpCCFKQgBSlIQQpSkIIUpCBtjHSF4sXuXavU2b2d+mkgz6fuTNqpvE9bGx+jLE7KMeZ/bvnBv5Fh4kdhIJPCQ4mLrS1x5HnCFYUnceenU5FEN1J4/ZKWye3EdmczGXotS2lbmyUNVoftpmncsu6tttjpGjaa54161Rsl6TyQC7yOG46mUZy3twI5NqBd+hhHYdq5k/5kmiofV1HgVfexGJv/OfqfRQefyal0U3E6Gonz0XRjUzdI77aSUezP0n+Q17zb8vzbl81kG9pZ7kv43qE1UjN4mN+064cyvuw5e5YouuLQ8vxkFrjzAz8MclvnKohG33+yaMDc6+IeRDqf5e1Vb2xdu7fu4qy2pTpu3VjNNnEoPP9mFkg7lHfnt5OW9cMLkG2x3e0WP0rDR/n13NTNHV/8YQXulQysA8uTYzcLUjGLo7EfSKu9sFzeWweO3W1bt26QSetgZ9/ef3Ls7betkVpzcg/5MjIcHh9bD+1KXntr8dpfi9fttXgdrMXrzlq87q7F695avO6vxavTXY/b9USXs57wctYTX856AsxZT4Q56wkxZz0x5qwnyJz1RFlvPVHWW9Metp4o660nynqviDKRZDc3z17jXSNDiKVn4LRi35o5rdizZk4r9quZ04prl5nTiiuXmdOK65aZ04qrlpnTimuWmdOqiYGh17XEVNW0wNDrWqKqalJg6HUtcVU1JTD0upbIqpoQGHpdS2xVTQcMva5nv1pLbFXNBQy91o2tOz9MX5sGXKkLqnut2K2GXit2q6HXit1q6LXikmXoteKSZei14pJl6LXikmXoteKSZei1aj5g6nY90VU1IzB1u574qpoTmLpdT4RVzQpM3a4nxqrmBaZu1xNlVTMDU7dr2sPWE2VVkwNTt0ZR9q3KFw7L7wbFoQjl3eoLjeJ7jFZyO2kXX0iUfnOx+oIxken7KAu9pDXotoXjDNqir37rDap9+3GfYzx+b+p5QzeVkyieH937yeILuseuqPAtZu7gNPZkfJap78sqN1Qc8+ccn6SbZLFcYKiv/JZD8NrvZYsvkp5LncvYl8kSN1daDsgsiFJbfbtVKpm8dN/lpIldzLtZFLipH4U5lJWkcta5kuMolla1mfSrnMjQe35Di3OtnXwW9NVMUF+GOerH8mvP0m+EV27ty4lMj8NU9U8uMc7CUUHa2hR/VPjeUxHKx9YXpbGhDn8sWunUT/J5rdpVE1LHk0Z23n/H7mja+g+wqbcV/vK7waXfy1mU+Mrhh/x0lbtZHcrNC1RxdGeGtMLyQ0+qwO04bcPWq+O6bsOxLwM131rLPl3EySSOspn0xI8/ir8tz9/bl1M3Wa4nKsA2n1rnL1rzDrHdyeTk/7Zzfr1pw1AUf9+nsPoEWksJW9e1G5uqDdpK2zp1raapQlMAtw2EBCVhGg9898UhQfyZR+J7VUA7fglww/HP9rUdFfeoOiqu9B6iR/FW1MR7sXfmunvidPGO0HU6snRgle+qrfLa+bbSEj8QpV7clOob0YurSVM1rVd99rwurOIDpIpK41Tvrteq9GW8vNXr084zU0xU02HvFW1qVtqBtPsmX54U/E7R+1V/pa2rq7RWyZBmSrIxVn5Oz/TIbnKqJ7xLerJl1pXZQA9H4WPJdCziIT2djqf5THLd0zytrKg7TWsJo8Dvy3z1TO81rckf2h0nGuerKr3ZuFVJFVlVpirZQrK4rJhMj8KLjyrZdF5ceMSBsIqqFZlu+Vkn+8mumuv+ybpnClUOD8XX2xvx4+r2Wny7ur65/HIuPl2dX34QF43rRj6BZrxqy9+2ekQTkS9CP36Q9kaDOA86InlEDIUdduKHF8d7yKGY9b3SmduZ7X3Rzr+4BDIaBZ4Y2kEom65vRyVbLfnleCjnPmsnn+XqzPWPaHPVpk1YJzzZwNnLpR9g0wOW6gfVjRwFBQ5wgAMc4AAHOMABDnCAA5ydx1k94KKIAtkFDWhAAxrQgAY0oAENaEADGtD8m2blSKCiUUf8gAMc4AAHOMABDnCAAxzgAAc4G3Q8vJGDoQzsaBRIUWqW4Xm4VZ6H322VcRcyuZwN2o70IqGGTDkfyu4o7v8DcVxt7ogJ4skumCCePJkJYvKvp6YmTEw6L5h0XjLpHDHpvGLSOWbSec2kc8Kks+AuQBLiymiLK6Utrpy2uJLa4spqiyutLa68trgS2+LK7BpXZtfY1mquzK5xZXatUGbnN+1bkDK36SPIaHvI3IqPIKOd9+Z2ewQZ7Zw3t9QjyGjnO8E2j6LDlMf6bYxghkfRYUpl/R5GsLij6DBls34DIxjXUdZBpnzW714EOzqKDlM+67cuc5O5BRmCrRxFR9s9BOs4io52uhPs4Sg62ulOsICj6GinO8XmjSTEldH6HYxi3kYS4kpq/SZGsWQjCXHltX4foxitkVZGrszWb2UU+zSSEFdm63czmKLthCkawggjjDDCCCOMMMIII4wwwggjjDDC2xQeV/xfMgicrvxsqz9UWZUqTPHnWgJT/FmBKX6hAlN8mOIXKDDFXy4wxV8uMMUvWGCKD1P8vxaY4gMHOMABDnCAAxzgAAc4wAEOcHbBUhI0oAENaEADGtCABjSgAQ1odofmv7GyBA5wgAMc4AAHOMABDnCAAxzz+jZgiv/RGUgvdHzPlWEIS/ztssT3g75o3N87HUd6nfHMCP9pLfDTu5ci8++z19PrTD19Mbu0/e5YXR+jgfvu2R//3sOh"
               },
               {
                  "name" : "annual_peak_electric_demand",
                  "units" : "kW",
                  "value" : 2048.3470700000003
               },
               {
                  "name" : "first_year_capital_cost",
                  "units" : "$",
                  "value" : 0
               },
               {
                  "name" : "annual_utility_cost",
                  "units" : "$",
                  "value" : 0
               },
               {
                  "name" : "total_lifecycle_cost",
                  "units" : "$",
                  "value" : 0
               }
            ],
            "step_warnings" : [ "A table in Annual Overview section returned false and was skipped." ]
         }
      }
   ],
   "updated_at" : "20170710T193944Z",
   "weather_file" : "USA_CO_Denver.Intl.AP.725650_TMY3.epw"
}
