{
   "completed_at" : "20170710T183838Z",
   "completed_status" : "Success",
   "created_at" : "2017-07-10 18:33:14 +0000",
   "current_step" : 5,
   "description" : "",
   "eplusout_err" : "Program Version,EnergyPlus, Version 8.7.0-78a111df4a, YMD=2017.07.10 18:34,IDD_Version 8.7.0\n   ************* IDF Context for following error/warning message:\n   ************* Note -- lines truncated at 300 characters, if necessary...\n   *************      5 Building,\n   ************* indicated Name=NECB 2011-MidriseApartment-NECB HDD Method-CAN_BC_Port.Hardy.711090_CWEC.epw created: 2017-07-10 18:33:21 +0000\n   ************* Only last 1 lines before error line shown.....\n   *************      6   NECB 2011-MidriseApartment-NECB HDD Method-CAN_BC_Port.Hardy.711090_CWEC.epw created: 2017-07-10 18:33:21 +0000, !- Name\n   ** Warning ** IP: IDF line~6 Alpha Argument length exceeds maximum, will be truncated=  NECB 2011-MidriseApartment-NECB HDD Method-CAN_BC_Port.Hardy.711090_CWEC.epw created: 2017-07-10 18:33:21 +000\n   **   ~~~   ** Will be processed as Alpha=NECB 2011-MIDRISEAPARTMENT-NECB HDD METHOD-CAN_BC_PORT.HARDY.711090_CWEC.EPW CREATED: 2017-07-10 18:33:21 +0000\n   ************* Beginning Zone Sizing Calculations\n   ** Warning ** ProcessScheduleInput: Schedule:Day:Interval=\"ECONOMIZER MAX OA FRACTION 100 PCT DEFAULT\", Blank Schedule Type Limits Name input -- will not be validated.\n   ** Warning ** ProcessScheduleInput: Schedule:Day:Interval=\"SCHEDULE DAY 1\", Blank Schedule Type Limits Name input -- will not be validated.\n   ** Warning ** ProcessScheduleInput: Schedule:Day:Interval=\"SCHEDULE DAY 10\", Blank Schedule Type Limits Name input -- will not be validated.\n   ** Warning ** ProcessScheduleInput: Schedule:Day:Interval=\"SCHEDULE DAY 11\", Blank Schedule Type Limits Name input -- will not be validated.\n   ** Warning ** ProcessScheduleInput: Schedule:Day:Interval=\"SCHEDULE DAY 12\", Blank Schedule Type Limits Name input -- will not be validated.\n   ** Warning ** ProcessScheduleInput: Schedule:Day:Interval=\"SCHEDULE DAY 13\", Blank Schedule Type Limits Name input -- will not be validated.\n   ** Warning ** ProcessScheduleInput: Schedule:Day:Interval=\"SCHEDULE DAY 14\", Blank Schedule Type Limits Name input -- will not be validated.\n   ** Warning ** ProcessScheduleInput: Schedule:Day:Interval=\"SCHEDULE DAY 15\", Blank Schedule Type Limits Name input -- will not be validated.\n   ** Warning ** ProcessScheduleInput: Schedule:Day:Interval=\"SCHEDULE DAY 16\", Blank Schedule Type Limits Name input -- will not be validated.\n   ** Warning ** ProcessScheduleInput: Schedule:Day:Interval=\"SCHEDULE DAY 17\", Blank Schedule Type Limits Name input -- will not be validated.\n   ** Warning ** ProcessScheduleInput: Schedule:Day:Interval=\"SCHEDULE DAY 18\", Blank Schedule Type Limits Name input -- will not be validated.\n   ** Warning ** ProcessScheduleInput: Schedule:Day:Interval=\"SCHEDULE DAY 19\", Blank Schedule Type Limits Name input -- will not be validated.\n   ** Warning ** ProcessScheduleInput: Schedule:Day:Interval=\"SCHEDULE DAY 2\", Blank Schedule Type Limits Name input -- will not be validated.\n   ** Warning ** ProcessScheduleInput: Schedule:Day:Interval=\"SCHEDULE DAY 20\", Blank Schedule Type Limits Name input -- will not be validated.\n   ** Warning ** ProcessScheduleInput: Schedule:Day:Interval=\"SCHEDULE DAY 21\", Blank Schedule Type Limits Name input -- will not be validated.\n   ** Warning ** ProcessScheduleInput: Schedule:Day:Interval=\"SCHEDULE DAY 22\", Blank Schedule Type Limits Name input -- will not be validated.\n   ** Warning ** ProcessScheduleInput: Schedule:Day:Interval=\"SCHEDULE DAY 23\", Blank Schedule Type Limits Name input -- will not be validated.\n   ** Warning ** ProcessScheduleInput: Schedule:Day:Interval=\"SCHEDULE DAY 24\", Blank Schedule Type Limits Name input -- will not be validated.\n   ** Warning ** ProcessScheduleInput: Schedule:Day:Interval=\"SCHEDULE DAY 25\", Blank Schedule Type Limits Name input -- will not be validated.\n   ** Warning ** ProcessScheduleInput: Schedule:Day:Interval=\"SCHEDULE DAY 26\", Blank Schedule Type Limits Name input -- will not be validated.\n   ** Warning ** ProcessScheduleInput: Schedule:Day:Interval=\"SCHEDULE DAY 27\", Blank Schedule Type Limits Name input -- will not be validated.\n   ** Warning ** ProcessScheduleInput: Schedule:Day:Interval=\"SCHEDULE DAY 28\", Blank Schedule Type Limits Name input -- will not be validated.\n   ** Warning ** ProcessScheduleInput: Schedule:Day:Interval=\"SCHEDULE DAY 29\", Blank Schedule Type Limits Name input -- will not be validated.\n   ** Warning ** ProcessScheduleInput: Schedule:Day:Interval=\"SCHEDULE DAY 30\", Blank Schedule Type Limits Name input -- will not be validated.\n   ** Warning ** ProcessScheduleInput: Schedule:Day:Interval=\"SCHEDULE DAY 31\", Blank Schedule Type Limits Name input -- will not be validated.\n   ** Warning ** ProcessScheduleInput: Schedule:Day:Interval=\"SCHEDULE DAY 32\", Blank Schedule Type Limits Name input -- will not be validated.\n   ** Warning ** ProcessScheduleInput: Schedule:Day:Interval=\"SCHEDULE DAY 33\", Blank Schedule Type Limits Name input -- will not be validated.\n   ** Warning ** ProcessScheduleInput: Schedule:Day:Interval=\"SCHEDULE DAY 34\", Blank Schedule Type Limits Name input -- will not be validated.\n   ** Warning ** ProcessScheduleInput: Schedule:Day:Interval=\"SCHEDULE DAY 35\", Blank Schedule Type Limits Name input -- will not be validated.\n   ** Warning ** ProcessScheduleInput: Schedule:Day:Interval=\"SCHEDULE DAY 36\", Blank Schedule Type Limits Name input -- will not be validated.\n   ** Warning ** ProcessScheduleInput: Schedule:Day:Interval=\"SCHEDULE DAY 37\", Blank Schedule Type Limits Name input -- will not be validated.\n   ** Warning ** ProcessScheduleInput: Schedule:Day:Interval=\"SCHEDULE DAY 38\", Blank Schedule Type Limits Name input -- will not be validated.\n   ** Warning ** ProcessScheduleInput: Schedule:Day:Interval=\"SCHEDULE DAY 39\", Blank Schedule Type Limits Name input -- will not be validated.\n   ** Warning ** ProcessScheduleInput: Schedule:Day:Interval=\"SCHEDULE DAY 40\", Blank Schedule Type Limits Name input -- will not be validated.\n   ** Warning ** ProcessScheduleInput: Schedule:Day:Interval=\"SCHEDULE DAY 41\", Blank Schedule Type Limits Name input -- will not be validated.\n   ** Warning ** ProcessScheduleInput: Schedule:Day:Interval=\"SCHEDULE DAY 42\", Blank Schedule Type Limits Name input -- will not be validated.\n   ** Warning ** ProcessScheduleInput: Schedule:Day:Interval=\"SCHEDULE DAY 43\", Blank Schedule Type Limits Name input -- will not be validated.\n   ** Warning ** ProcessScheduleInput: Schedule:Day:Interval=\"SCHEDULE DAY 44\", Blank Schedule Type Limits Name input -- will not be validated.\n   ** Warning ** ProcessScheduleInput: Schedule:Day:Interval=\"SCHEDULE DAY 45\", Blank Schedule Type Limits Name input -- will not be validated.\n   ** Warning ** ProcessScheduleInput: Schedule:Day:Interval=\"SCHEDULE DAY 46\", Blank Schedule Type Limits Name input -- will not be validated.\n   ** Warning ** ProcessScheduleInput: Schedule:Day:Interval=\"SCHEDULE DAY 47\", Blank Schedule Type Limits Name input -- will not be validated.\n   ** Warning ** ProcessScheduleInput: Schedule:Day:Interval=\"SCHEDULE DAY 48\", Blank Schedule Type Limits Name input -- will not be validated.\n   ** Warning ** ProcessScheduleInput: Schedule:Day:Interval=\"SCHEDULE DAY 49\", Blank Schedule Type Limits Name input -- will not be validated.\n   ** Warning ** ProcessScheduleInput: Schedule:Day:Interval=\"SCHEDULE DAY 50\", Blank Schedule Type Limits Name input -- will not be validated.\n   ** Warning ** ProcessScheduleInput: Schedule:Day:Interval=\"SCHEDULE DAY 51\", Blank Schedule Type Limits Name input -- will not be validated.\n   ** Warning ** ProcessScheduleInput: Schedule:Day:Interval=\"SCHEDULE DAY 52\", Blank Schedule Type Limits Name input -- will not be validated.\n   ** Warning ** ProcessScheduleInput: Schedule:Day:Interval=\"SCHEDULE DAY 53\", Blank Schedule Type Limits Name input -- will not be validated.\n   ** Warning ** ProcessScheduleInput: Schedule:Day:Interval=\"SCHEDULE DAY 54\", Blank Schedule Type Limits Name input -- will not be validated.\n   ** Warning ** ProcessScheduleInput: Schedule:Day:Interval=\"SCHEDULE DAY 55\", Blank Schedule Type Limits Name input -- will not be validated.\n   ** Warning ** ProcessScheduleInput: Schedule:Day:Interval=\"SCHEDULE DAY 56\", Blank Schedule Type Limits Name input -- will not be validated.\n   ** Warning ** ProcessScheduleInput: Schedule:Day:Interval=\"SCHEDULE DAY 57\", Blank Schedule Type Limits Name input -- will not be validated.\n   ** Warning ** ProcessScheduleInput: Schedule:Day:Interval=\"SCHEDULE DAY 58\", Blank Schedule Type Limits Name input -- will not be validated.\n   ** Warning ** ProcessScheduleInput: Schedule:Day:Interval=\"SCHEDULE DAY 59\", Blank Schedule Type Limits Name input -- will not be validated.\n   ** Warning ** ProcessScheduleInput: Schedule:Day:Interval=\"SCHEDULE DAY 6\", Blank Schedule Type Limits Name input -- will not be validated.\n   ** Warning ** ProcessScheduleInput: Schedule:Day:Interval=\"SCHEDULE DAY 60\", Blank Schedule Type Limits Name input -- will not be validated.\n   ** Warning ** ProcessScheduleInput: Schedule:Day:Interval=\"SCHEDULE DAY 61\", Blank Schedule Type Limits Name input -- will not be validated.\n   ** Warning ** ProcessScheduleInput: Schedule:Day:Interval=\"SCHEDULE DAY 62\", Blank Schedule Type Limits Name input -- will not be validated.\n   ** Warning ** ProcessScheduleInput: Schedule:Day:Interval=\"SCHEDULE DAY 63\", Blank Schedule Type Limits Name input -- will not be validated.\n   ** Warning ** ProcessScheduleInput: Schedule:Day:Interval=\"SCHEDULE DAY 64\", Blank Schedule Type Limits Name input -- will not be validated.\n   ** Warning ** ProcessScheduleInput: Schedule:Day:Interval=\"SCHEDULE DAY 65\", Blank Schedule Type Limits Name input -- will not be validated.\n   ** Warning ** ProcessScheduleInput: Schedule:Day:Interval=\"SCHEDULE DAY 66\", Blank Schedule Type Limits Name input -- will not be validated.\n   ** Warning ** ProcessScheduleInput: Schedule:Day:Interval=\"SCHEDULE DAY 67\", Blank Schedule Type Limits Name input -- will not be validated.\n   ** Warning ** ProcessScheduleInput: Schedule:Day:Interval=\"SCHEDULE DAY 68\", Blank Schedule Type Limits Name input -- will not be validated.\n   ** Warning ** ProcessScheduleInput: Schedule:Day:Interval=\"SCHEDULE DAY 69\", Blank Schedule Type Limits Name input -- will not be validated.\n   ** Warning ** ProcessScheduleInput: Schedule:Day:Interval=\"SCHEDULE DAY 7\", Blank Schedule Type Limits Name input -- will not be validated.\n   ** Warning ** ProcessScheduleInput: Schedule:Day:Interval=\"SCHEDULE DAY 70\", Blank Schedule Type Limits Name input -- will not be validated.\n   ** Warning ** ProcessScheduleInput: Schedule:Day:Interval=\"SCHEDULE DAY 71\", Blank Schedule Type Limits Name input -- will not be validated.\n   ** Warning ** ProcessScheduleInput: Schedule:Day:Interval=\"SCHEDULE DAY 72\", Blank Schedule Type Limits Name input -- will not be validated.\n   ** Warning ** ProcessScheduleInput: Schedule:Day:Interval=\"SCHEDULE DAY 73\", Blank Schedule Type Limits Name input -- will not be validated.\n   ** Warning ** ProcessScheduleInput: Schedule:Day:Interval=\"SCHEDULE DAY 74\", Blank Schedule Type Limits Name input -- will not be validated.\n   ** Warning ** ProcessScheduleInput: Schedule:Day:Interval=\"SCHEDULE DAY 75\", Blank Schedule Type Limits Name input -- will not be validated.\n   ** Warning ** ProcessScheduleInput: Schedule:Day:Interval=\"SCHEDULE DAY 76\", Blank Schedule Type Limits Name input -- will not be validated.\n   ** Warning ** ProcessScheduleInput: Schedule:Day:Interval=\"SCHEDULE DAY 77\", Blank Schedule Type Limits Name input -- will not be validated.\n   ** Warning ** ProcessScheduleInput: Schedule:Day:Interval=\"SCHEDULE DAY 78\", Blank Schedule Type Limits Name input -- will not be validated.\n   ** Warning ** ProcessScheduleInput: Schedule:Day:Interval=\"SCHEDULE DAY 79\", Blank Schedule Type Limits Name input -- will not be validated.\n   ** Warning ** ProcessScheduleInput: Schedule:Day:Interval=\"SCHEDULE DAY 8\", Blank Schedule Type Limits Name input -- will not be validated.\n   ** Warning ** ProcessScheduleInput: Schedule:Day:Interval=\"SCHEDULE DAY 9\", Blank Schedule Type Limits Name input -- will not be validated.\n   ** Warning ** ProcessScheduleInput: Schedule:Year=\"ECONOMIZER MAX OA FRACTION 100 PCT\", Blank Schedule Type Limits Name input -- will not be validated.\n   ** Warning ** ProcessScheduleInput: Schedule:Year=\"SCHEDULE RULESET 10\", Blank Schedule Type Limits Name input -- will not be validated.\n   ** Warning ** ProcessScheduleInput: Schedule:Year=\"SCHEDULE RULESET 11\", Blank Schedule Type Limits Name input -- will not be validated.\n   ** Warning ** ProcessScheduleInput: Schedule:Year=\"SCHEDULE RULESET 12\", Blank Schedule Type Limits Name input -- will not be validated.\n   ** Warning ** ProcessScheduleInput: Schedule:Year=\"SCHEDULE RULESET 13\", Blank Schedule Type Limits Name input -- will not be validated.\n   ** Warning ** ProcessScheduleInput: Schedule:Year=\"SCHEDULE RULESET 14\", Blank Schedule Type Limits Name input -- will not be validated.\n   ** Warning ** ProcessScheduleInput: Schedule:Year=\"SCHEDULE RULESET 15\", Blank Schedule Type Limits Name input -- will not be validated.\n   ** Warning ** ProcessScheduleInput: Schedule:Year=\"SCHEDULE RULESET 16\", Blank Schedule Type Limits Name input -- will not be validated.\n   ** Warning ** ProcessScheduleInput: Schedule:Year=\"SCHEDULE RULESET 17\", Blank Schedule Type Limits Name input -- will not be validated.\n   ** Warning ** ProcessScheduleInput: Schedule:Year=\"SCHEDULE RULESET 18\", Blank Schedule Type Limits Name input -- will not be validated.\n   ** Warning ** ProcessScheduleInput: Schedule:Year=\"SCHEDULE RULESET 19\", Blank Schedule Type Limits Name input -- will not be validated.\n   ** Warning ** ProcessScheduleInput: Schedule:Year=\"SCHEDULE RULESET 20\", Blank Schedule Type Limits Name input -- will not be validated.\n   ** Warning ** ProcessScheduleInput: Schedule:Year=\"SCHEDULE RULESET 21\", Blank Schedule Type Limits Name input -- will not be validated.\n   ** Warning ** ProcessScheduleInput: Schedule:Year=\"SCHEDULE RULESET 22\", Blank Schedule Type Limits Name input -- will not be validated.\n   ** Warning ** ProcessScheduleInput: Schedule:Year=\"SCHEDULE RULESET 23\", Blank Schedule Type Limits Name input -- will not be validated.\n   ** Warning ** ProcessScheduleInput: Schedule:Year=\"SCHEDULE RULESET 24\", Blank Schedule Type Limits Name input -- will not be validated.\n   ** Warning ** ProcessScheduleInput: Schedule:Year=\"SCHEDULE RULESET 25\", Blank Schedule Type Limits Name input -- will not be validated.\n   ** Warning ** ProcessScheduleInput: Schedule:Year=\"SCHEDULE RULESET 26\", Blank Schedule Type Limits Name input -- will not be validated.\n   ** Warning ** ProcessScheduleInput: Schedule:Year=\"SCHEDULE RULESET 27\", Blank Schedule Type Limits Name input -- will not be validated.\n   ** Warning ** ProcessScheduleInput: Schedule:Year=\"SCHEDULE RULESET 28\", Blank Schedule Type Limits Name input -- will not be validated.\n   ** Warning ** ProcessScheduleInput: Schedule:Year=\"SCHEDULE RULESET 29\", Blank Schedule Type Limits Name input -- will not be validated.\n   ** Warning ** ProcessScheduleInput: Schedule:Year=\"SCHEDULE RULESET 3\", Blank Schedule Type Limits Name input -- will not be validated.\n   ** Warning ** ProcessScheduleInput: Schedule:Year=\"SCHEDULE RULESET 30\", Blank Schedule Type Limits Name input -- will not be validated.\n   ** Warning ** ProcessScheduleInput: Schedule:Year=\"SCHEDULE RULESET 31\", Blank Schedule Type Limits Name input -- will not be validated.\n   ** Warning ** ProcessScheduleInput: Schedule:Year=\"SCHEDULE RULESET 32\", Blank Schedule Type Limits Name input -- will not be validated.\n   ** Warning ** ProcessScheduleInput: Schedule:Year=\"SCHEDULE RULESET 33\", Blank Schedule Type Limits Name input -- will not be validated.\n   ** Warning ** ProcessScheduleInput: Schedule:Year=\"SCHEDULE RULESET 34\", Blank Schedule Type Limits Name input -- will not be validated.\n   ** Warning ** ProcessScheduleInput: Schedule:Year=\"SCHEDULE RULESET 35\", Blank Schedule Type Limits Name input -- will not be validated.\n   ** Warning ** ProcessScheduleInput: Schedule:Year=\"SCHEDULE RULESET 36\", Blank Schedule Type Limits Name input -- will not be validated.\n   ** Warning ** ProcessScheduleInput: Schedule:Year=\"SCHEDULE RULESET 37\", Blank Schedule Type Limits Name input -- will not be validated.\n   ** Warning ** ProcessScheduleInput: Schedule:Year=\"SCHEDULE RULESET 38\", Blank Schedule Type Limits Name input -- will not be validated.\n   ** Warning ** ProcessScheduleInput: Schedule:Year=\"SCHEDULE RULESET 39\", Blank Schedule Type Limits Name input -- will not be validated.\n   ** Warning ** ProcessScheduleInput: Schedule:Year=\"SCHEDULE RULESET 4\", Blank Schedule Type Limits Name input -- will not be validated.\n   ** Warning ** ProcessScheduleInput: Schedule:Year=\"SCHEDULE RULESET 40\", Blank Schedule Type Limits Name input -- will not be validated.\n   ** Warning ** ProcessScheduleInput: Schedule:Year=\"SCHEDULE RULESET 41\", Blank Schedule Type Limits Name input -- will not be validated.\n   ** Warning ** ProcessScheduleInput: Schedule:Year=\"SCHEDULE RULESET 42\", Blank Schedule Type Limits Name input -- will not be validated.\n   ** Warning ** ProcessScheduleInput: Schedule:Year=\"SCHEDULE RULESET 43\", Blank Schedule Type Limits Name input -- will not be validated.\n   ** Warning ** ProcessScheduleInput: Schedule:Year=\"SCHEDULE RULESET 44\", Blank Schedule Type Limits Name input -- will not be validated.\n   ** Warning ** ProcessScheduleInput: Schedule:Year=\"SCHEDULE RULESET 45\", Blank Schedule Type Limits Name input -- will not be validated.\n   ** Warning ** ProcessScheduleInput: Schedule:Year=\"SCHEDULE RULESET 46\", Blank Schedule Type Limits Name input -- will not be validated.\n   ** Warning ** ProcessScheduleInput: Schedule:Year=\"SCHEDULE RULESET 47\", Blank Schedule Type Limits Name input -- will not be validated.\n   ** Warning ** ProcessScheduleInput: Schedule:Year=\"SCHEDULE RULESET 48\", Blank Schedule Type Limits Name input -- will not be validated.\n   ** Warning ** ProcessScheduleInput: Schedule:Year=\"SCHEDULE RULESET 49\", Blank Schedule Type Limits Name input -- will not be validated.\n   ** Warning ** ProcessScheduleInput: Schedule:Year=\"SCHEDULE RULESET 5\", Blank Schedule Type Limits Name input -- will not be validated.\n   ** Warning ** ProcessScheduleInput: Schedule:Year=\"SCHEDULE RULESET 50\", Blank Schedule Type Limits Name input -- will not be validated.\n   ** Warning ** ProcessScheduleInput: Schedule:Year=\"SCHEDULE RULESET 51\", Blank Schedule Type Limits Name input -- will not be validated.\n   ** Warning ** ProcessScheduleInput: Schedule:Year=\"SCHEDULE RULESET 52\", Blank Schedule Type Limits Name input -- will not be validated.\n   ** Warning ** ProcessScheduleInput: Schedule:Year=\"SCHEDULE RULESET 53\", Blank Schedule Type Limits Name input -- will not be validated.\n   ** Warning ** ProcessScheduleInput: Schedule:Year=\"SCHEDULE RULESET 54\", Blank Schedule Type Limits Name input -- will not be validated.\n   ** Warning ** ProcessScheduleInput: Schedule:Year=\"SCHEDULE RULESET 55\", Blank Schedule Type Limits Name input -- will not be validated.\n   ** Warning ** ProcessScheduleInput: Schedule:Year=\"SCHEDULE RULESET 56\", Blank Schedule Type Limits Name input -- will not be validated.\n   ** Warning ** ProcessScheduleInput: Schedule:Year=\"SCHEDULE RULESET 57\", Blank Schedule Type Limits Name input -- will not be validated.\n   ** Warning ** ProcessScheduleInput: Schedule:Year=\"SCHEDULE RULESET 58\", Blank Schedule Type Limits Name input -- will not be validated.\n   ** Warning ** ProcessScheduleInput: Schedule:Year=\"SCHEDULE RULESET 59\", Blank Schedule Type Limits Name input -- will not be validated.\n   ** Warning ** ProcessScheduleInput: Schedule:Year=\"SCHEDULE RULESET 6\", Blank Schedule Type Limits Name input -- will not be validated.\n   ** Warning ** ProcessScheduleInput: Schedule:Year=\"SCHEDULE RULESET 60\", Blank Schedule Type Limits Name input -- will not be validated.\n   ** Warning ** ProcessScheduleInput: Schedule:Year=\"SCHEDULE RULESET 61\", Blank Schedule Type Limits Name input -- will not be validated.\n   ** Warning ** ProcessScheduleInput: Schedule:Year=\"SCHEDULE RULESET 62\", Blank Schedule Type Limits Name input -- will not be validated.\n   ** Warning ** ProcessScheduleInput: Schedule:Year=\"SCHEDULE RULESET 63\", Blank Schedule Type Limits Name input -- will not be validated.\n   ** Warning ** ProcessScheduleInput: Schedule:Year=\"SCHEDULE RULESET 64\", Blank Schedule Type Limits Name input -- will not be validated.\n   ** Warning ** ProcessScheduleInput: Schedule:Year=\"SCHEDULE RULESET 65\", Blank Schedule Type Limits Name input -- will not be validated.\n   ** Warning ** ProcessScheduleInput: Schedule:Year=\"SCHEDULE RULESET 66\", Blank Schedule Type Limits Name input -- will not be validated.\n   ** Warning ** ProcessScheduleInput: Schedule:Year=\"SCHEDULE RULESET 67\", Blank Schedule Type Limits Name input -- will not be validated.\n   ** Warning ** ProcessScheduleInput: Schedule:Year=\"SCHEDULE RULESET 68\", Blank Schedule Type Limits Name input -- will not be validated.\n   ** Warning ** ProcessScheduleInput: Schedule:Year=\"SCHEDULE RULESET 69\", Blank Schedule Type Limits Name input -- will not be validated.\n   ** Warning ** ProcessScheduleInput: Schedule:Year=\"SCHEDULE RULESET 7\", Blank Schedule Type Limits Name input -- will not be validated.\n   ** Warning ** ProcessScheduleInput: Schedule:Year=\"SCHEDULE RULESET 70\", Blank Schedule Type Limits Name input -- will not be validated.\n   ** Warning ** ProcessScheduleInput: Schedule:Year=\"SCHEDULE RULESET 71\", Blank Schedule Type Limits Name input -- will not be validated.\n   ** Warning ** ProcessScheduleInput: Schedule:Year=\"SCHEDULE RULESET 72\", Blank Schedule Type Limits Name input -- will not be validated.\n   ** Warning ** ProcessScheduleInput: Schedule:Year=\"SCHEDULE RULESET 73\", Blank Schedule Type Limits Name input -- will not be validated.\n   ** Warning ** ProcessScheduleInput: Schedule:Year=\"SCHEDULE RULESET 74\", Blank Schedule Type Limits Name input -- will not be validated.\n   ** Warning ** ProcessScheduleInput: Schedule:Year=\"SCHEDULE RULESET 8\", Blank Schedule Type Limits Name input -- will not be validated.\n   ** Warning ** ProcessScheduleInput: Schedule:Year=\"SCHEDULE RULESET 9\", Blank Schedule Type Limits Name input -- will not be validated.\n   ** Warning ** ProcessScheduleInput: Schedule:Constant=\"ALWAYS OFF DISCRETE\", Blank Schedule Type Limits Name input -- will not be validated.\n   ** Warning ** ProcessScheduleInput: Schedule:Constant=\"ALWAYS ON CONTINUOUS\", Blank Schedule Type Limits Name input -- will not be validated.\n   ** Warning ** CheckUsedConstructions: There are 26 nominally unused constructions in input.\n   **   ~~~   ** For explicit details on each unused construction, use Output:Diagnostics,DisplayExtraWarnings;\n   ************* Beginning System Sizing Calculations\n   ** Warning ** GetDXCoils: Coil:Cooling:DX:SingleSpeed=\"COIL COOLING DX SINGLE SPEED 24 5KBTU/HR 11.0EER\", invalid\n   **   ~~~   ** ...Part Load Fraction Correlation Curve Name = DXCOOL-NECB2011-REF-COOLPLFFPLR 16 has out of range value.\n   **   ~~~   ** ...Curve maximum must be <= 1.0, curve max at PLR = 0.99 is 1.015\n   **   ~~~   ** ...Setting curve maximum to 1.0 and simulation continues.\n   ** Warning ** GetDXCoils: Coil:Cooling:DX:SingleSpeed=\"COIL COOLING DX SINGLE SPEED 22 3KBTU/HR 11.0EER\", invalid\n   **   ~~~   ** ...Part Load Fraction Correlation Curve Name = DXCOOL-NECB2011-REF-COOLPLFFPLR 14 has out of range value.\n   **   ~~~   ** ...Curve maximum must be <= 1.0, curve max at PLR = 0.99 is 1.015\n   **   ~~~   ** ...Setting curve maximum to 1.0 and simulation continues.\n   ** Warning ** GetDXCoils: Coil:Cooling:DX:SingleSpeed=\"COIL COOLING DX SINGLE SPEED 21 3KBTU/HR 11.0EER\", invalid\n   **   ~~~   ** ...Part Load Fraction Correlation Curve Name = DXCOOL-NECB2011-REF-COOLPLFFPLR 13 has out of range value.\n   **   ~~~   ** ...Curve maximum must be <= 1.0, curve max at PLR = 0.99 is 1.015\n   **   ~~~   ** ...Setting curve maximum to 1.0 and simulation continues.\n   ** Warning ** GetDXCoils: Coil:Cooling:DX:SingleSpeed=\"COIL COOLING DX SINGLE SPEED 23 7KBTU/HR 10.9EER\", invalid\n   **   ~~~   ** ...Part Load Fraction Correlation Curve Name = DXCOOL-NECB2011-REF-COOLPLFFPLR 15 has out of range value.\n   **   ~~~   ** ...Curve maximum must be <= 1.0, curve max at PLR = 0.99 is 1.015\n   **   ~~~   ** ...Setting curve maximum to 1.0 and simulation continues.\n   ** Warning ** GetDXCoils: Coil:Cooling:DX:SingleSpeed=\"COIL COOLING DX SINGLE SPEED 20 7KBTU/HR 11.0EER\", invalid\n   **   ~~~   ** ...Part Load Fraction Correlation Curve Name = DXCOOL-NECB2011-REF-COOLPLFFPLR 12 has out of range value.\n   **   ~~~   ** ...Curve maximum must be <= 1.0, curve max at PLR = 0.99 is 1.015\n   **   ~~~   ** ...Setting curve maximum to 1.0 and simulation continues.\n   ** Warning ** GetDXCoils: Coil:Cooling:DX:SingleSpeed=\"COIL COOLING DX SINGLE SPEED 25 9KBTU/HR 10.5EER\", invalid\n   **   ~~~   ** ...Part Load Fraction Correlation Curve Name = DXCOOL-NECB2011-REF-COOLPLFFPLR 17 has out of range value.\n   **   ~~~   ** ...Curve maximum must be <= 1.0, curve max at PLR = 0.99 is 1.015\n   **   ~~~   ** ...Setting curve maximum to 1.0 and simulation continues.\n   ** Warning ** GetDXCoils: Coil:Cooling:DX:SingleSpeed=\"COIL COOLING DX SINGLE SPEED 26 9KBTU/HR 10.5EER\", invalid\n   **   ~~~   ** ...Part Load Fraction Correlation Curve Name = DXCOOL-NECB2011-REF-COOLPLFFPLR 18 has out of range value.\n   **   ~~~   ** ...Curve maximum must be <= 1.0, curve max at PLR = 0.99 is 1.015\n   **   ~~~   ** ...Setting curve maximum to 1.0 and simulation continues.\n   ** Warning ** GetDXCoils: Coil:Cooling:DX:SingleSpeed=\"COIL COOLING DX SINGLE SPEED 27 11KBTU/HR 10.2EER\", invalid\n   **   ~~~   ** ...Part Load Fraction Correlation Curve Name = DXCOOL-NECB2011-REF-COOLPLFFPLR 19 has out of range value.\n   **   ~~~   ** ...Curve maximum must be <= 1.0, curve max at PLR = 0.99 is 1.015\n   **   ~~~   ** ...Setting curve maximum to 1.0 and simulation continues.\n   ** Warning ** GetDXCoils: Coil:Cooling:DX:SingleSpeed=\"COIL COOLING DX SINGLE SPEED 6 4KBTU/HR 11.0EER\", invalid\n   **   ~~~   ** ...Part Load Fraction Correlation Curve Name = DXCOOL-NECB2011-REF-COOLPLFFPLR 24 has out of range value.\n   **   ~~~   ** ...Curve maximum must be <= 1.0, curve max at PLR = 0.99 is 1.015\n   **   ~~~   ** ...Setting curve maximum to 1.0 and simulation continues.\n   ** Warning ** GetDXCoils: Coil:Cooling:DX:SingleSpeed=\"COIL COOLING DX SINGLE SPEED 4 3KBTU/HR 11.0EER\", invalid\n   **   ~~~   ** ...Part Load Fraction Correlation Curve Name = DXCOOL-NECB2011-REF-COOLPLFFPLR 22 has out of range value.\n   **   ~~~   ** ...Curve maximum must be <= 1.0, curve max at PLR = 0.99 is 1.015\n   **   ~~~   ** ...Setting curve maximum to 1.0 and simulation continues.\n   ** Warning ** GetDXCoils: Coil:Cooling:DX:SingleSpeed=\"COIL COOLING DX SINGLE SPEED 3 3KBTU/HR 11.0EER\", invalid\n   **   ~~~   ** ...Part Load Fraction Correlation Curve Name = DXCOOL-NECB2011-REF-COOLPLFFPLR 21 has out of range value.\n   **   ~~~   ** ...Curve maximum must be <= 1.0, curve max at PLR = 0.99 is 1.015\n   **   ~~~   ** ...Setting curve maximum to 1.0 and simulation continues.\n   ** Warning ** GetDXCoils: Coil:Cooling:DX:SingleSpeed=\"COIL COOLING DX SINGLE SPEED 2 8KBTU/HR 10.9EER\", invalid\n   **   ~~~   ** ...Part Load Fraction Correlation Curve Name = DXCOOL-NECB2011-REF-COOLPLFFPLR 11 has out of range value.\n   **   ~~~   ** ...Curve maximum must be <= 1.0, curve max at PLR = 0.99 is 1.015\n   **   ~~~   ** ...Setting curve maximum to 1.0 and simulation continues.\n   ** Warning ** GetDXCoils: Coil:Cooling:DX:SingleSpeed=\"COIL COOLING DX SINGLE SPEED 5 8KBTU/HR 10.8EER\", invalid\n   **   ~~~   ** ...Part Load Fraction Correlation Curve Name = DXCOOL-NECB2011-REF-COOLPLFFPLR 23 has out of range value.\n   **   ~~~   ** ...Curve maximum must be <= 1.0, curve max at PLR = 0.99 is 1.015\n   **   ~~~   ** ...Setting curve maximum to 1.0 and simulation continues.\n   ** Warning ** GetDXCoils: Coil:Cooling:DX:SingleSpeed=\"COIL COOLING DX SINGLE SPEED 7 10KBTU/HR 10.3EER\", invalid\n   **   ~~~   ** ...Part Load Fraction Correlation Curve Name = DXCOOL-NECB2011-REF-COOLPLFFPLR 25 has out of range value.\n   **   ~~~   ** ...Curve maximum must be <= 1.0, curve max at PLR = 0.99 is 1.015\n   **   ~~~   ** ...Setting curve maximum to 1.0 and simulation continues.\n   ** Warning ** GetDXCoils: Coil:Cooling:DX:SingleSpeed=\"COIL COOLING DX SINGLE SPEED 9 10KBTU/HR 10.3EER\", invalid\n   **   ~~~   ** ...Part Load Fraction Correlation Curve Name = DXCOOL-NECB2011-REF-COOLPLFFPLR 27 has out of range value.\n   **   ~~~   ** ...Curve maximum must be <= 1.0, curve max at PLR = 0.99 is 1.015\n   **   ~~~   ** ...Setting curve maximum to 1.0 and simulation continues.\n   ** Warning ** GetDXCoils: Coil:Cooling:DX:SingleSpeed=\"COIL COOLING DX SINGLE SPEED 8 12KBTU/HR 10.0EER\", invalid\n   **   ~~~   ** ...Part Load Fraction Correlation Curve Name = DXCOOL-NECB2011-REF-COOLPLFFPLR 26 has out of range value.\n   **   ~~~   ** ...Curve maximum must be <= 1.0, curve max at PLR = 0.99 is 1.015\n   **   ~~~   ** ...Setting curve maximum to 1.0 and simulation continues.\n   ** Warning ** GetDXCoils: Coil:Cooling:DX:SingleSpeed=\"COIL COOLING DX SINGLE SPEED 10 12KBTU/HR 9.9EER\", invalid\n   **   ~~~   ** ...Part Load Fraction Correlation Curve Name = DXCOOL-NECB2011-REF-COOLPLFFPLR 1 has out of range value.\n   **   ~~~   ** ...Curve maximum must be <= 1.0, curve max at PLR = 0.99 is 1.015\n   **   ~~~   ** ...Setting curve maximum to 1.0 and simulation continues.\n   ** Warning ** GetDXCoils: Coil:Cooling:DX:SingleSpeed=\"COIL COOLING DX SINGLE SPEED 15 8KBTU/HR 10.9EER\", invalid\n   **   ~~~   ** ...Part Load Fraction Correlation Curve Name = DXCOOL-NECB2011-REF-COOLPLFFPLR 6 has out of range value.\n   **   ~~~   ** ...Curve maximum must be <= 1.0, curve max at PLR = 0.99 is 1.015\n   **   ~~~   ** ...Setting curve maximum to 1.0 and simulation continues.\n   ** Warning ** GetDXCoils: Coil:Cooling:DX:SingleSpeed=\"COIL COOLING DX SINGLE SPEED 12 6KBTU/HR 11.0EER\", invalid\n   **   ~~~   ** ...Part Load Fraction Correlation Curve Name = DXCOOL-NECB2011-REF-COOLPLFFPLR 3 has out of range value.\n   **   ~~~   ** ...Curve maximum must be <= 1.0, curve max at PLR = 0.99 is 1.015\n   **   ~~~   ** ...Setting curve maximum to 1.0 and simulation continues.\n   ** Warning ** GetDXCoils: Coil:Cooling:DX:SingleSpeed=\"COIL COOLING DX SINGLE SPEED 13 6KBTU/HR 11.0EER\", invalid\n   **   ~~~   ** ...Part Load Fraction Correlation Curve Name = DXCOOL-NECB2011-REF-COOLPLFFPLR 4 has out of range value.\n   **   ~~~   ** ...Curve maximum must be <= 1.0, curve max at PLR = 0.99 is 1.015\n   **   ~~~   ** ...Setting curve maximum to 1.0 and simulation continues.\n   ** Warning ** GetDXCoils: Coil:Cooling:DX:SingleSpeed=\"COIL COOLING DX SINGLE SPEED 14 8KBTU/HR 10.9EER\", invalid\n   **   ~~~   ** ...Part Load Fraction Correlation Curve Name = DXCOOL-NECB2011-REF-COOLPLFFPLR 5 has out of range value.\n   **   ~~~   ** ...Curve maximum must be <= 1.0, curve max at PLR = 0.99 is 1.015\n   **   ~~~   ** ...Setting curve maximum to 1.0 and simulation continues.\n   ** Warning ** GetDXCoils: Coil:Cooling:DX:SingleSpeed=\"COIL COOLING DX SINGLE SPEED 11 9KBTU/HR 10.6EER\", invalid\n   **   ~~~   ** ...Part Load Fraction Correlation Curve Name = DXCOOL-NECB2011-REF-COOLPLFFPLR 2 has out of range value.\n   **   ~~~   ** ...Curve maximum must be <= 1.0, curve max at PLR = 0.99 is 1.015\n   **   ~~~   ** ...Setting curve maximum to 1.0 and simulation continues.\n   ** Warning ** GetDXCoils: Coil:Cooling:DX:SingleSpeed=\"COIL COOLING DX SINGLE SPEED 16 12KBTU/HR 9.9EER\", invalid\n   **   ~~~   ** ...Part Load Fraction Correlation Curve Name = DXCOOL-NECB2011-REF-COOLPLFFPLR 7 has out of range value.\n   **   ~~~   ** ...Curve maximum must be <= 1.0, curve max at PLR = 0.99 is 1.015\n   **   ~~~   ** ...Setting curve maximum to 1.0 and simulation continues.\n   ** Warning ** GetDXCoils: Coil:Cooling:DX:SingleSpeed=\"COIL COOLING DX SINGLE SPEED 19 12KBTU/HR 9.9EER\", invalid\n   **   ~~~   ** ...Part Load Fraction Correlation Curve Name = DXCOOL-NECB2011-REF-COOLPLFFPLR 10 has out of range value.\n   **   ~~~   ** ...Curve maximum must be <= 1.0, curve max at PLR = 0.99 is 1.015\n   **   ~~~   ** ...Setting curve maximum to 1.0 and simulation continues.\n   ** Warning ** GetDXCoils: Coil:Cooling:DX:SingleSpeed=\"COIL COOLING DX SINGLE SPEED 18 13KBTU/HR 9.7EER\", invalid\n   **   ~~~   ** ...Part Load Fraction Correlation Curve Name = DXCOOL-NECB2011-REF-COOLPLFFPLR 9 has out of range value.\n   **   ~~~   ** ...Curve maximum must be <= 1.0, curve max at PLR = 0.99 is 1.015\n   **   ~~~   ** ...Setting curve maximum to 1.0 and simulation continues.\n   ** Warning ** GetDXCoils: Coil:Cooling:DX:SingleSpeed=\"COIL COOLING DX SINGLE SPEED 17 14KBTU/HR 9.6EER\", invalid\n   **   ~~~   ** ...Part Load Fraction Correlation Curve Name = DXCOOL-NECB2011-REF-COOLPLFFPLR 8 has out of range value.\n   **   ~~~   ** ...Curve maximum must be <= 1.0, curve max at PLR = 0.99 is 1.015\n   **   ~~~   ** ...Setting curve maximum to 1.0 and simulation continues.\n   ** Warning ** GetDXCoils: Coil:Cooling:DX:SingleSpeed=\"COIL COOLING DX SINGLE SPEED 1 59KBTU/HR 14.0SEER\", invalid\n   **   ~~~   ** ...Part Load Fraction Correlation Curve Name = DXCOOL-NECB2011-REF-COOLPLFFPLR has out of range value.\n   **   ~~~   ** ...Curve maximum must be <= 1.0, curve max at PLR = 0.99 is 1.015\n   **   ~~~   ** ...Setting curve maximum to 1.0 and simulation continues.\n   ** Warning ** GetDXCoils: Coil:Cooling:DX:SingleSpeed=\"COIL COOLING DX SINGLE SPEED 28 17KBTU/HR 14.0SEER\", invalid\n   **   ~~~   ** ...Part Load Fraction Correlation Curve Name = DXCOOL-NECB2011-REF-COOLPLFFPLR 20 has out of range value.\n   **   ~~~   ** ...Curve maximum must be <= 1.0, curve max at PLR = 0.99 is 1.015\n   **   ~~~   ** ...Setting curve maximum to 1.0 and simulation continues.\n   ************* Beginning Plant Sizing Calculations\n   ** Warning ** The Standard Ratings is calculated for Coil:Cooling:DX:SingleSpeed = COIL COOLING DX SINGLE SPEED 24 5KBTU/HR 11.0EER but not at the AHRI test condition due to curve out of bound.\n   **   ~~~   **  Review the Standard Ratings calculations in the Engineering Reference for this coil type. Also, use Output:Diagnostics, DisplayExtraWarnings for further guidance.\n   ** Warning ** The Standard Ratings is calculated for Coil:Cooling:DX:SingleSpeed = COIL COOLING DX SINGLE SPEED 22 3KBTU/HR 11.0EER but not at the AHRI test condition due to curve out of bound.\n   **   ~~~   **  Review the Standard Ratings calculations in the Engineering Reference for this coil type. Also, use Output:Diagnostics, DisplayExtraWarnings for further guidance.\n   ** Warning ** The Standard Ratings is calculated for Coil:Cooling:DX:SingleSpeed = COIL COOLING DX SINGLE SPEED 21 3KBTU/HR 11.0EER but not at the AHRI test condition due to curve out of bound.\n   **   ~~~   **  Review the Standard Ratings calculations in the Engineering Reference for this coil type. Also, use Output:Diagnostics, DisplayExtraWarnings for further guidance.\n   ** Warning ** The Standard Ratings is calculated for Coil:Cooling:DX:SingleSpeed = COIL COOLING DX SINGLE SPEED 23 7KBTU/HR 10.9EER but not at the AHRI test condition due to curve out of bound.\n   **   ~~~   **  Review the Standard Ratings calculations in the Engineering Reference for this coil type. Also, use Output:Diagnostics, DisplayExtraWarnings for further guidance.\n   ** Warning ** The Standard Ratings is calculated for Coil:Cooling:DX:SingleSpeed = COIL COOLING DX SINGLE SPEED 20 7KBTU/HR 11.0EER but not at the AHRI test condition due to curve out of bound.\n   **   ~~~   **  Review the Standard Ratings calculations in the Engineering Reference for this coil type. Also, use Output:Diagnostics, DisplayExtraWarnings for further guidance.\n   ** Warning ** The Standard Ratings is calculated for Coil:Cooling:DX:SingleSpeed = COIL COOLING DX SINGLE SPEED 25 9KBTU/HR 10.5EER but not at the AHRI test condition due to curve out of bound.\n   **   ~~~   **  Review the Standard Ratings calculations in the Engineering Reference for this coil type. Also, use Output:Diagnostics, DisplayExtraWarnings for further guidance.\n   ** Warning ** The Standard Ratings is calculated for Coil:Cooling:DX:SingleSpeed = COIL COOLING DX SINGLE SPEED 26 9KBTU/HR 10.5EER but not at the AHRI test condition due to curve out of bound.\n   **   ~~~   **  Review the Standard Ratings calculations in the Engineering Reference for this coil type. Also, use Output:Diagnostics, DisplayExtraWarnings for further guidance.\n   ** Warning ** The Standard Ratings is calculated for Coil:Cooling:DX:SingleSpeed = COIL COOLING DX SINGLE SPEED 27 11KBTU/HR 10.2EER but not at the AHRI test condition due to curve out of bound.\n   **   ~~~   **  Review the Standard Ratings calculations in the Engineering Reference for this coil type. Also, use Output:Diagnostics, DisplayExtraWarnings for further guidance.\n   ** Warning ** The Standard Ratings is calculated for Coil:Cooling:DX:SingleSpeed = COIL COOLING DX SINGLE SPEED 6 4KBTU/HR 11.0EER but not at the AHRI test condition due to curve out of bound.\n   **   ~~~   **  Review the Standard Ratings calculations in the Engineering Reference for this coil type. Also, use Output:Diagnostics, DisplayExtraWarnings for further guidance.\n   ** Warning ** The Standard Ratings is calculated for Coil:Cooling:DX:SingleSpeed = COIL COOLING DX SINGLE SPEED 4 3KBTU/HR 11.0EER but not at the AHRI test condition due to curve out of bound.\n   **   ~~~   **  Review the Standard Ratings calculations in the Engineering Reference for this coil type. Also, use Output:Diagnostics, DisplayExtraWarnings for further guidance.\n   ** Warning ** The Standard Ratings is calculated for Coil:Cooling:DX:SingleSpeed = COIL COOLING DX SINGLE SPEED 3 3KBTU/HR 11.0EER but not at the AHRI test condition due to curve out of bound.\n   **   ~~~   **  Review the Standard Ratings calculations in the Engineering Reference for this coil type. Also, use Output:Diagnostics, DisplayExtraWarnings for further guidance.\n   ** Warning ** The Standard Ratings is calculated for Coil:Cooling:DX:SingleSpeed = COIL COOLING DX SINGLE SPEED 2 8KBTU/HR 10.9EER but not at the AHRI test condition due to curve out of bound.\n   **   ~~~   **  Review the Standard Ratings calculations in the Engineering Reference for this coil type. Also, use Output:Diagnostics, DisplayExtraWarnings for further guidance.\n   ** Warning ** The Standard Ratings is calculated for Coil:Cooling:DX:SingleSpeed = COIL COOLING DX SINGLE SPEED 5 8KBTU/HR 10.8EER but not at the AHRI test condition due to curve out of bound.\n   **   ~~~   **  Review the Standard Ratings calculations in the Engineering Reference for this coil type. Also, use Output:Diagnostics, DisplayExtraWarnings for further guidance.\n   ** Warning ** The Standard Ratings is calculated for Coil:Cooling:DX:SingleSpeed = COIL COOLING DX SINGLE SPEED 7 10KBTU/HR 10.3EER but not at the AHRI test condition due to curve out of bound.\n   **   ~~~   **  Review the Standard Ratings calculations in the Engineering Reference for this coil type. Also, use Output:Diagnostics, DisplayExtraWarnings for further guidance.\n   ** Warning ** The Standard Ratings is calculated for Coil:Cooling:DX:SingleSpeed = COIL COOLING DX SINGLE SPEED 9 10KBTU/HR 10.3EER but not at the AHRI test condition due to curve out of bound.\n   **   ~~~   **  Review the Standard Ratings calculations in the Engineering Reference for this coil type. Also, use Output:Diagnostics, DisplayExtraWarnings for further guidance.\n   ** Warning ** The Standard Ratings is calculated for Coil:Cooling:DX:SingleSpeed = COIL COOLING DX SINGLE SPEED 8 12KBTU/HR 10.0EER but not at the AHRI test condition due to curve out of bound.\n   **   ~~~   **  Review the Standard Ratings calculations in the Engineering Reference for this coil type. Also, use Output:Diagnostics, DisplayExtraWarnings for further guidance.\n   ** Warning ** The Standard Ratings is calculated for Coil:Cooling:DX:SingleSpeed = COIL COOLING DX SINGLE SPEED 10 12KBTU/HR 9.9EER but not at the AHRI test condition due to curve out of bound.\n   **   ~~~   **  Review the Standard Ratings calculations in the Engineering Reference for this coil type. Also, use Output:Diagnostics, DisplayExtraWarnings for further guidance.\n   ** Warning ** The Standard Ratings is calculated for Coil:Cooling:DX:SingleSpeed = COIL COOLING DX SINGLE SPEED 15 8KBTU/HR 10.9EER but not at the AHRI test condition due to curve out of bound.\n   **   ~~~   **  Review the Standard Ratings calculations in the Engineering Reference for this coil type. Also, use Output:Diagnostics, DisplayExtraWarnings for further guidance.\n   ** Warning ** The Standard Ratings is calculated for Coil:Cooling:DX:SingleSpeed = COIL COOLING DX SINGLE SPEED 12 6KBTU/HR 11.0EER but not at the AHRI test condition due to curve out of bound.\n   **   ~~~   **  Review the Standard Ratings calculations in the Engineering Reference for this coil type. Also, use Output:Diagnostics, DisplayExtraWarnings for further guidance.\n   ** Warning ** The Standard Ratings is calculated for Coil:Cooling:DX:SingleSpeed = COIL COOLING DX SINGLE SPEED 13 6KBTU/HR 11.0EER but not at the AHRI test condition due to curve out of bound.\n   **   ~~~   **  Review the Standard Ratings calculations in the Engineering Reference for this coil type. Also, use Output:Diagnostics, DisplayExtraWarnings for further guidance.\n   ** Warning ** The Standard Ratings is calculated for Coil:Cooling:DX:SingleSpeed = COIL COOLING DX SINGLE SPEED 14 8KBTU/HR 10.9EER but not at the AHRI test condition due to curve out of bound.\n   **   ~~~   **  Review the Standard Ratings calculations in the Engineering Reference for this coil type. Also, use Output:Diagnostics, DisplayExtraWarnings for further guidance.\n   ** Warning ** The Standard Ratings is calculated for Coil:Cooling:DX:SingleSpeed = COIL COOLING DX SINGLE SPEED 11 9KBTU/HR 10.6EER but not at the AHRI test condition due to curve out of bound.\n   **   ~~~   **  Review the Standard Ratings calculations in the Engineering Reference for this coil type. Also, use Output:Diagnostics, DisplayExtraWarnings for further guidance.\n   ** Warning ** The Standard Ratings is calculated for Coil:Cooling:DX:SingleSpeed = COIL COOLING DX SINGLE SPEED 16 12KBTU/HR 9.9EER but not at the AHRI test condition due to curve out of bound.\n   **   ~~~   **  Review the Standard Ratings calculations in the Engineering Reference for this coil type. Also, use Output:Diagnostics, DisplayExtraWarnings for further guidance.\n   ** Warning ** The Standard Ratings is calculated for Coil:Cooling:DX:SingleSpeed = COIL COOLING DX SINGLE SPEED 19 12KBTU/HR 9.9EER but not at the AHRI test condition due to curve out of bound.\n   **   ~~~   **  Review the Standard Ratings calculations in the Engineering Reference for this coil type. Also, use Output:Diagnostics, DisplayExtraWarnings for further guidance.\n   ** Warning ** The Standard Ratings is calculated for Coil:Cooling:DX:SingleSpeed = COIL COOLING DX SINGLE SPEED 18 13KBTU/HR 9.7EER but not at the AHRI test condition due to curve out of bound.\n   **   ~~~   **  Review the Standard Ratings calculations in the Engineering Reference for this coil type. Also, use Output:Diagnostics, DisplayExtraWarnings for further guidance.\n   ** Warning ** The Standard Ratings is calculated for Coil:Cooling:DX:SingleSpeed = COIL COOLING DX SINGLE SPEED 17 14KBTU/HR 9.6EER but not at the AHRI test condition due to curve out of bound.\n   **   ~~~   **  Review the Standard Ratings calculations in the Engineering Reference for this coil type. Also, use Output:Diagnostics, DisplayExtraWarnings for further guidance.\n   ** Warning ** The Standard Ratings is calculated for Coil:Cooling:DX:SingleSpeed = COIL COOLING DX SINGLE SPEED 1 59KBTU/HR 14.0SEER but not at the AHRI test condition due to curve out of bound.\n   **   ~~~   **  Review the Standard Ratings calculations in the Engineering Reference for this coil type. Also, use Output:Diagnostics, DisplayExtraWarnings for further guidance.\n   ** Warning ** The Standard Ratings is calculated for Coil:Cooling:DX:SingleSpeed = COIL COOLING DX SINGLE SPEED 28 17KBTU/HR 14.0SEER but not at the AHRI test condition due to curve out of bound.\n   **   ~~~   **  Review the Standard Ratings calculations in the Engineering Reference for this coil type. Also, use Output:Diagnostics, DisplayExtraWarnings for further guidance.\n   ** Warning ** Output:Meter: invalid Name=\"DISTRICTCOOLING:FACILITY\" - not found.\n   ** Warning ** Output:Meter: invalid Name=\"DISTRICTHEATING:FACILITY\" - not found.\n   ** Warning ** Output:Meter:MeterFileOnly requested for \"Electricity:Facility\" (TimeStep), already on \"Output:Meter\". Will report to both eplusout.eso and eplusout.mtr\n   ************* Testing Individual Branch Integrity\n   ************* All Branches passed integrity testing\n   ************* Testing Individual Supply Air Path Integrity\n   ************* All Supply Air Paths passed integrity testing\n   ************* Testing Individual Return Air Path Integrity\n   ************* All Return Air Paths passed integrity testing\n   ************* No node connection errors were found.\n   ************* Beginning Simulation\n   ** Warning ** CalcDoe2DXCoil: Coil:Cooling:DX:SingleSpeed \"COIL COOLING DX SINGLE SPEED 25 9KBTU/HR 10.5EER\" - Air-cooled condenser inlet dry-bulb temperature below 0 C. Outdoor dry-bulb temperature = -0.60\n   **   ~~~   **  ... Occurrence info = RUN PERIOD 1, 01/03 10:53 - 11:00\n   **   ~~~   ** ... Operation at low ambient temperatures may require special performance curves.\n   ** Warning ** CalcDoe2DXCoil: Coil:Cooling:DX:SingleSpeed \"COIL COOLING DX SINGLE SPEED 26 9KBTU/HR 10.5EER\" - Air-cooled condenser inlet dry-bulb temperature below 0 C. Outdoor dry-bulb temperature = -0.60\n   **   ~~~   **  ... Occurrence info = RUN PERIOD 1, 01/03 10:53 - 11:00\n   **   ~~~   ** ... Operation at low ambient temperatures may require special performance curves.\n   ** Warning ** CalcDoe2DXCoil: Coil:Cooling:DX:SingleSpeed \"COIL COOLING DX SINGLE SPEED 27 11KBTU/HR 10.2EER\" - Air-cooled condenser inlet dry-bulb temperature below 0 C. Outdoor dry-bulb temperature = -0.60\n   **   ~~~   **  ... Occurrence info = RUN PERIOD 1, 01/03 11:08 - 11:15\n   **   ~~~   ** ... Operation at low ambient temperatures may require special performance curves.\n   ** Warning ** CalcDoe2DXCoil: Coil:Cooling:DX:SingleSpeed \"COIL COOLING DX SINGLE SPEED 9 10KBTU/HR 10.3EER\" - Air-cooled condenser inlet dry-bulb temperature below 0 C. Outdoor dry-bulb temperature = -0.60\n   **   ~~~   **  ... Occurrence info = RUN PERIOD 1, 01/03 11:08 - 11:15\n   **   ~~~   ** ... Operation at low ambient temperatures may require special performance curves.\n   ** Warning ** CalcDoe2DXCoil: Coil:Cooling:DX:SingleSpeed \"COIL COOLING DX SINGLE SPEED 7 10KBTU/HR 10.3EER\" - Air-cooled condenser inlet dry-bulb temperature below 0 C. Outdoor dry-bulb temperature = -0.60\n   **   ~~~   **  ... Occurrence info = RUN PERIOD 1, 01/03 11:15 - 11:22\n   **   ~~~   ** ... Operation at low ambient temperatures may require special performance curves.\n   ** Warning ** CalcDoe2DXCoil: Coil:Cooling:DX:SingleSpeed \"COIL COOLING DX SINGLE SPEED 8 12KBTU/HR 10.0EER\" - Air-cooled condenser inlet dry-bulb temperature below 0 C. Outdoor dry-bulb temperature = -0.60\n   **   ~~~   **  ... Occurrence info = RUN PERIOD 1, 01/03 11:15 - 11:22\n   **   ~~~   ** ... Operation at low ambient temperatures may require special performance curves.\n   ** Warning ** CalcDoe2DXCoil: Coil:Cooling:DX:SingleSpeed \"COIL COOLING DX SINGLE SPEED 10 12KBTU/HR 9.9EER\" - Air-cooled condenser inlet dry-bulb temperature below 0 C. Outdoor dry-bulb temperature = -0.60\n   **   ~~~   **  ... Occurrence info = RUN PERIOD 1, 01/03 11:38 - 11:45\n   **   ~~~   ** ... Operation at low ambient temperatures may require special performance curves.\n   ** Warning ** CalcDoe2DXCoil: Coil:Cooling:DX:SingleSpeed \"COIL COOLING DX SINGLE SPEED 16 12KBTU/HR 9.9EER\" - Air-cooled condenser inlet dry-bulb temperature below 0 C. Outdoor dry-bulb temperature = -0.60\n   **   ~~~   **  ... Occurrence info = RUN PERIOD 1, 01/03 11:45 - 11:52\n   **   ~~~   ** ... Operation at low ambient temperatures may require special performance curves.\n   ** Warning ** CalcDoe2DXCoil: Coil:Cooling:DX:SingleSpeed \"COIL COOLING DX SINGLE SPEED 19 12KBTU/HR 9.9EER\" - Air-cooled condenser inlet dry-bulb temperature below 0 C. Outdoor dry-bulb temperature = -0.60\n   **   ~~~   **  ... Occurrence info = RUN PERIOD 1, 01/03 11:45 - 11:52\n   **   ~~~   ** ... Operation at low ambient temperatures may require special performance curves.\n   ** Warning ** CalcDoe2DXCoil: Coil:Cooling:DX:SingleSpeed \"COIL COOLING DX SINGLE SPEED 18 13KBTU/HR 9.7EER\" - Air-cooled condenser inlet dry-bulb temperature below 0 C. Outdoor dry-bulb temperature = -0.60\n   **   ~~~   **  ... Occurrence info = RUN PERIOD 1, 01/03 11:45 - 11:52\n   **   ~~~   ** ... Operation at low ambient temperatures may require special performance curves.\n   ** Warning ** CalcDoe2DXCoil: Coil:Cooling:DX:SingleSpeed \"COIL COOLING DX SINGLE SPEED 17 14KBTU/HR 9.6EER\" - Air-cooled condenser inlet dry-bulb temperature below 0 C. Outdoor dry-bulb temperature = -0.45\n   **   ~~~   **  ... Occurrence info = RUN PERIOD 1, 01/03 12:08 - 12:15\n   **   ~~~   ** ... Operation at low ambient temperatures may require special performance curves.\n   ** Warning ** CalcDoe2DXCoil: Coil:Cooling:DX:SingleSpeed \"COIL COOLING DX SINGLE SPEED 28 17KBTU/HR 14.0SEER\" - Full load outlet air dry-bulb temperature < 2C. This indicates the possibility of coil frost/freeze. Outlet temperature = -0.47 C.\n   **   ~~~   **  ...Occurrence info = RUN PERIOD 1, 01/05 12:30 - 12:45\n   **   ~~~   ** ... Possible reasons for low outlet air dry-bulb temperatures are: This DX coil\n   **   ~~~   **    1) may have a low inlet air dry-bulb temperature. Inlet air temperature = 12.138 C.\n   **   ~~~   **    2) may have a low air flow rate per watt of cooling capacity. Check inputs.\n   **   ~~~   **    3) is used as part of a HX assisted cooling coil which uses a high sensible effectiveness. Check inputs.\n   ** Warning ** CalcDoe2DXCoil: Coil:Cooling:DX:SingleSpeed \"COIL COOLING DX SINGLE SPEED 6 4KBTU/HR 11.0EER\" - Air-cooled condenser inlet dry-bulb temperature below 0 C. Outdoor dry-bulb temperature = -5.00E-002\n   **   ~~~   **  ... Occurrence info = RUN PERIOD 1, 02/03 18:00 - 18:15\n   **   ~~~   ** ... Operation at low ambient temperatures may require special performance curves.\n   ** Warning ** CalcDoe2DXCoil: Coil:Cooling:DX:SingleSpeed \"COIL COOLING DX SINGLE SPEED 4 3KBTU/HR 11.0EER\" - Full load outlet air dry-bulb temperature < 2C. This indicates the possibility of coil frost/freeze. Outlet temperature = 1.54 C.\n   **   ~~~   **  ...Occurrence info = RUN PERIOD 1, 03/05 19:30 - 19:38\n   **   ~~~   ** ... Possible reasons for low outlet air dry-bulb temperatures are: This DX coil\n   **   ~~~   **    1) may have a low inlet air dry-bulb temperature. Inlet air temperature = 13.011 C.\n   **   ~~~   **    2) may have a low air flow rate per watt of cooling capacity. Check inputs.\n   **   ~~~   **    3) is used as part of a HX assisted cooling coil which uses a high sensible effectiveness. Check inputs.\n   ** Warning ** CalcDoe2DXCoil: Coil:Cooling:DX:SingleSpeed \"COIL COOLING DX SINGLE SPEED 3 3KBTU/HR 11.0EER\" - Full load outlet air dry-bulb temperature < 2C. This indicates the possibility of coil frost/freeze. Outlet temperature = 0.52 C.\n   **   ~~~   **  ...Occurrence info = RUN PERIOD 1, 03/05 19:53 - 20:00\n   **   ~~~   ** ... Possible reasons for low outlet air dry-bulb temperatures are: This DX coil\n   **   ~~~   **    1) may have a low inlet air dry-bulb temperature. Inlet air temperature = 11.817 C.\n   **   ~~~   **    2) may have a low air flow rate per watt of cooling capacity. Check inputs.\n   **   ~~~   **    3) is used as part of a HX assisted cooling coil which uses a high sensible effectiveness. Check inputs.\n   ** Warning ** CalcDoe2DXCoil: Coil:Cooling:DX:SingleSpeed \"COIL COOLING DX SINGLE SPEED 4 3KBTU/HR 11.0EER\" - Air-cooled condenser inlet dry-bulb temperature below 0 C. Outdoor dry-bulb temperature = -0.50\n   **   ~~~   **  ... Occurrence info = RUN PERIOD 1, 03/05 21:45 - 22:00\n   **   ~~~   ** ... Operation at low ambient temperatures may require special performance curves.\n   ** Warning ** CalcDoe2DXCoil: Coil:Cooling:DX:SingleSpeed \"COIL COOLING DX SINGLE SPEED 3 3KBTU/HR 11.0EER\" - Air-cooled condenser inlet dry-bulb temperature below 0 C. Outdoor dry-bulb temperature = -0.50\n   **   ~~~   **  ... Occurrence info = RUN PERIOD 1, 03/05 21:45 - 22:00\n   **   ~~~   ** ... Operation at low ambient temperatures may require special performance curves.\n   ** Warning ** CalcDoe2DXCoil: Coil:Cooling:DX:SingleSpeed \"COIL COOLING DX SINGLE SPEED 21 3KBTU/HR 11.0EER\" - Full load outlet air dry-bulb temperature < 2C. This indicates the possibility of coil frost/freeze. Outlet temperature = 1.77 C.\n   **   ~~~   **  ...Occurrence info = RUN PERIOD 1, 04/11 20:00 - 20:15\n   **   ~~~   ** ... Possible reasons for low outlet air dry-bulb temperatures are: This DX coil\n   **   ~~~   **    1) may have a low inlet air dry-bulb temperature. Inlet air temperature = 11.513 C.\n   **   ~~~   **    2) may have a low air flow rate per watt of cooling capacity. Check inputs.\n   **   ~~~   **    3) is used as part of a HX assisted cooling coil which uses a high sensible effectiveness. Check inputs.\n   ** Warning ** CalcDoe2DXCoil: Coil:Cooling:DX:SingleSpeed \"COIL COOLING DX SINGLE SPEED 22 3KBTU/HR 11.0EER\" - Full load outlet air dry-bulb temperature < 2C. This indicates the possibility of coil frost/freeze. Outlet temperature = 1.97 C.\n   **   ~~~   **  ...Occurrence info = RUN PERIOD 1, 04/11 20:30 - 20:45\n   **   ~~~   ** ... Possible reasons for low outlet air dry-bulb temperatures are: This DX coil\n   **   ~~~   **    1) may have a low inlet air dry-bulb temperature. Inlet air temperature = 11.729 C.\n   **   ~~~   **    2) may have a low air flow rate per watt of cooling capacity. Check inputs.\n   **   ~~~   **    3) is used as part of a HX assisted cooling coil which uses a high sensible effectiveness. Check inputs.\n   ************* Simulation Error Summary *************\n   ************* There are 9 unused schedules in input.\n   ************* There are 9 unused week schedules in input.\n   ************* There are 17 unused day schedules in input.\n   ************* Use Output:Diagnostics,DisplayUnusedSchedules; to see them.\n   *************\n   ************* ===== Recurring Error Summary =====\n   ************* The following recurring error messages occurred.\n   *************\n   *************  ** Warning ** CalcDoe2DXCoil: Coil:Cooling:DX:SingleSpeed=\"COIL COOLING DX SINGLE SPEED 25 9KBTU/HR 10.5EER\" - Low condenser dry-bulb temperature error continues...\n   *************  **   ~~~   **   This error occurred 99 total times;\n   *************  **   ~~~   **   during Warmup 0 times;\n   *************  **   ~~~   **   during Sizing 0 times.\n   *************  **   ~~~   **   Max=-2.500000E-002 [C]  Min=-2.8 [C]\n   *************\n   *************  ** Warning ** CalcDoe2DXCoil: Coil:Cooling:DX:SingleSpeed=\"COIL COOLING DX SINGLE SPEED 26 9KBTU/HR 10.5EER\" - Low condenser dry-bulb temperature error continues...\n   *************  **   ~~~   **   This error occurred 100 total times;\n   *************  **   ~~~   **   during Warmup 0 times;\n   *************  **   ~~~   **   during Sizing 0 times.\n   *************  **   ~~~   **   Max=-2.500000E-002 [C]  Min=-3.75 [C]\n   *************\n   *************  ** Warning ** CalcDoe2DXCoil: Coil:Cooling:DX:SingleSpeed=\"COIL COOLING DX SINGLE SPEED 27 11KBTU/HR 10.2EER\" - Low condenser dry-bulb temperature error continues...\n   *************  **   ~~~   **   This error occurred 66 total times;\n   *************  **   ~~~   **   during Warmup 0 times;\n   *************  **   ~~~   **   during Sizing 0 times.\n   *************  **   ~~~   **   Max=-2.500000E-002 [C]  Min=-1.95 [C]\n   *************\n   *************  ** Warning ** CalcDoe2DXCoil: Coil:Cooling:DX:SingleSpeed=\"COIL COOLING DX SINGLE SPEED 9 10KBTU/HR 10.3EER\" - Low condenser dry-bulb temperature error continues...\n   *************  **   ~~~   **   This error occurred 485 total times;\n   *************  **   ~~~   **   during Warmup 0 times;\n   *************  **   ~~~   **   during Sizing 0 times.\n   *************  **   ~~~   **   Max=-2.500000E-002 [C]  Min=-6.7 [C]\n   *************\n   *************  ** Warning ** CalcDoe2DXCoil: Coil:Cooling:DX:SingleSpeed=\"COIL COOLING DX SINGLE SPEED 7 10KBTU/HR 10.3EER\" - Low condenser dry-bulb temperature error continues...\n   *************  **   ~~~   **   This error occurred 487 total times;\n   *************  **   ~~~   **   during Warmup 0 times;\n   *************  **   ~~~   **   during Sizing 0 times.\n   *************  **   ~~~   **   Max=-2.500000E-002 [C]  Min=-6.7 [C]\n   *************\n   *************  ** Warning ** CalcDoe2DXCoil: Coil:Cooling:DX:SingleSpeed=\"COIL COOLING DX SINGLE SPEED 8 12KBTU/HR 10.0EER\" - Low condenser dry-bulb temperature error continues...\n   *************  **   ~~~   **   This error occurred 176 total times;\n   *************  **   ~~~   **   during Warmup 0 times;\n   *************  **   ~~~   **   during Sizing 0 times.\n   *************  **   ~~~   **   Max=-2.500000E-002 [C]  Min=-5. [C]\n   *************\n   *************  ** Warning ** CalcDoe2DXCoil: Coil:Cooling:DX:SingleSpeed=\"COIL COOLING DX SINGLE SPEED 10 12KBTU/HR 9.9EER\" - Low condenser dry-bulb temperature error continues...\n   *************  **   ~~~   **   This error occurred 191 total times;\n   *************  **   ~~~   **   during Warmup 0 times;\n   *************  **   ~~~   **   during Sizing 0 times.\n   *************  **   ~~~   **   Max=-2.500000E-002 [C]  Min=-5. [C]\n   *************\n   *************  ** Warning ** CalcDoe2DXCoil: Coil:Cooling:DX:SingleSpeed=\"COIL COOLING DX SINGLE SPEED 16 12KBTU/HR 9.9EER\" - Low condenser dry-bulb temperature error continues...\n   *************  **   ~~~   **   This error occurred 40 total times;\n   *************  **   ~~~   **   during Warmup 0 times;\n   *************  **   ~~~   **   during Sizing 0 times.\n   *************  **   ~~~   **   Max=-2.500000E-002 [C]  Min=-1.95 [C]\n   *************\n   *************  ** Warning ** CalcDoe2DXCoil: Coil:Cooling:DX:SingleSpeed=\"COIL COOLING DX SINGLE SPEED 19 12KBTU/HR 9.9EER\" - Low condenser dry-bulb temperature error continues...\n   *************  **   ~~~   **   This error occurred 40 total times;\n   *************  **   ~~~   **   during Warmup 0 times;\n   *************  **   ~~~   **   during Sizing 0 times.\n   *************  **   ~~~   **   Max=-2.500000E-002 [C]  Min=-1.95 [C]\n   *************\n   *************  ** Warning ** CalcDoe2DXCoil: Coil:Cooling:DX:SingleSpeed=\"COIL COOLING DX SINGLE SPEED 18 13KBTU/HR 9.7EER\" - Low condenser dry-bulb temperature error continues...\n   *************  **   ~~~   **   This error occurred 40 total times;\n   *************  **   ~~~   **   during Warmup 0 times;\n   *************  **   ~~~   **   during Sizing 0 times.\n   *************  **   ~~~   **   Max=-2.500000E-002 [C]  Min=-1.95 [C]\n   *************\n   *************  ** Warning ** CalcDoe2DXCoil: Coil:Cooling:DX:SingleSpeed=\"COIL COOLING DX SINGLE SPEED 17 14KBTU/HR 9.6EER\" - Low condenser dry-bulb temperature error continues...\n   *************  **   ~~~   **   This error occurred 30 total times;\n   *************  **   ~~~   **   during Warmup 0 times;\n   *************  **   ~~~   **   during Sizing 0 times.\n   *************  **   ~~~   **   Max=-2.500000E-002 [C]  Min=-1.525 [C]\n   *************\n   *************  ** Warning ** CalcDoe2DXCoil: Coil:Cooling:DX:SingleSpeed=\"COIL COOLING DX SINGLE SPEED 28 17KBTU/HR 14.0SEER\" - Full load outlet temperature indicates a possibility of frost/freeze error continues. Outlet air temperature statistics follow:\n   *************  **   ~~~   **   This error occurred 135 total times;\n   *************  **   ~~~   **   during Warmup 0 times;\n   *************  **   ~~~   **   during Sizing 0 times.\n   *************  **   ~~~   **   Max=1.990378  Min=-0.510033\n   *************\n   *************  ** Warning ** CalcDoe2DXCoil: Coil:Cooling:DX:SingleSpeed=\"COIL COOLING DX SINGLE SPEED 6 4KBTU/HR 11.0EER\" - Low condenser dry-bulb temperature error continues...\n   *************  **   ~~~   **   This error occurred 56 total times;\n   *************  **   ~~~   **   during Warmup 0 times;\n   *************  **   ~~~   **   during Sizing 0 times.\n   *************  **   ~~~   **   Max=-5.000000E-002 [C]  Min=-2. [C]\n   *************\n   *************  ** Warning ** CalcDoe2DXCoil: Coil:Cooling:DX:SingleSpeed=\"COIL COOLING DX SINGLE SPEED 4 3KBTU/HR 11.0EER\" - Full load outlet temperature indicates a possibility of frost/freeze error continues. Outlet air temperature statistics follow:\n   *************  **   ~~~   **   This error occurred 52 total times;\n   *************  **   ~~~   **   during Warmup 0 times;\n   *************  **   ~~~   **   during Sizing 0 times.\n   *************  **   ~~~   **   Max=1.970535  Min=-0.386704\n   *************\n   *************  ** Warning ** CalcDoe2DXCoil: Coil:Cooling:DX:SingleSpeed=\"COIL COOLING DX SINGLE SPEED 3 3KBTU/HR 11.0EER\" - Full load outlet temperature indicates a possibility of frost/freeze error continues. Outlet air temperature statistics follow:\n   *************  **   ~~~   **   This error occurred 73 total times;\n   *************  **   ~~~   **   during Warmup 0 times;\n   *************  **   ~~~   **   during Sizing 0 times.\n   *************  **   ~~~   **   Max=1.978435  Min=-1.196789\n   *************\n   *************  ** Warning ** CalcDoe2DXCoil: Coil:Cooling:DX:SingleSpeed=\"COIL COOLING DX SINGLE SPEED 4 3KBTU/HR 11.0EER\" - Low condenser dry-bulb temperature error continues...\n   *************  **   ~~~   **   This error occurred 12 total times;\n   *************  **   ~~~   **   during Warmup 0 times;\n   *************  **   ~~~   **   during Sizing 0 times.\n   *************  **   ~~~   **   Max=-0.2 [C]  Min=-1.05 [C]\n   *************\n   *************  ** Warning ** CalcDoe2DXCoil: Coil:Cooling:DX:SingleSpeed=\"COIL COOLING DX SINGLE SPEED 3 3KBTU/HR 11.0EER\" - Low condenser dry-bulb temperature error continues...\n   *************  **   ~~~   **   This error occurred 10 total times;\n   *************  **   ~~~   **   during Warmup 0 times;\n   *************  **   ~~~   **   during Sizing 0 times.\n   *************  **   ~~~   **   Max=-0.45 [C]  Min=-1.05 [C]\n   *************\n   *************  ** Warning ** CalcDoe2DXCoil: Coil:Cooling:DX:SingleSpeed=\"COIL COOLING DX SINGLE SPEED 21 3KBTU/HR 11.0EER\" - Full load outlet temperature indicates a possibility of frost/freeze error continues. Outlet air temperature statistics follow:\n   *************  **   ~~~   **   This error occurred 19 total times;\n   *************  **   ~~~   **   during Warmup 0 times;\n   *************  **   ~~~   **   during Sizing 0 times.\n   *************  **   ~~~   **   Max=1.986562  Min=0.793512\n   *************\n   *************  ** Warning ** CalcDoe2DXCoil: Coil:Cooling:DX:SingleSpeed=\"COIL COOLING DX SINGLE SPEED 22 3KBTU/HR 11.0EER\" - Full load outlet temperature indicates a possibility of frost/freeze error continues. Outlet air temperature statistics follow:\n   *************  **   ~~~   **   This error occurred 2 total times;\n   *************  **   ~~~   **   during Warmup 0 times;\n   *************  **   ~~~   **   during Sizing 0 times.\n   *************  **   ~~~   **   Max=1.966848  Min=1.654819\n   *************\n   *************\n   ************* ===== Final Error Summary =====\n   ************* The following error categories occurred.  Consider correcting or noting.\n   ************* Nominally Unused Constructions\n   ************* ..The nominally unused constructions warning is provided to alert you to potential conditions that can cause\n   ************* ..extra time during simulation. Each construction is calculated by the algorithm indicated in the HeatBalanceAlgorithm\n   ************* ..object. You may remove the constructions indicated (when you use the DisplayExtraWarnings option).\n   *************\n   ************* EnergyPlus Warmup Error Summary. During Warmup: 0 Warning; 0 Severe Errors.\n   ************* EnergyPlus Sizing Error Summary. During Sizing: 181 Warning; 0 Severe Errors.\n   ************* EnergyPlus Completed Successfully-- 2326 Warning; 0 Severe Errors; Elapsed Time=00hr 03min  3.93sec\n",
   "file_format_version" : "0.0.1",
   "file_paths" : [ "../weather", "../seeds", "../seed" ],
   "hash" : "BE6EAF0F",
   "measure_paths" : [ "../measures" ],
   "name" : "LHS Autogenerated 261",
   "osa_id" : "4fef0e0f-5396-4c55-a6e1-2cd6803db3ab",
   "osd_id" : "343f2ebb-de5f-4fd4-9e40-e9023e02ea53",
   "run_directory" : "./run",
   "seed_file" : "seed.osm",
   "started_at" : "20170710T183317Z",
   "steps" : [
      {
         "arguments" : {
            "__SKIP__" : false,
            "building_type" : "MidriseApartment",
            "climate_zone" : "NECB HDD Method",
            "epw_file" : "CAN_BC_Port.Hardy.711090_CWEC.epw",
            "template" : "NECB 2011"
         },
         "measure_dir_name" : "create_prototype_building",
         "name" : "create_prototype_building",
         "result" : {
            "completed_at" : "20170710T183434Z",
            "measure_class_name" : "CreatePrototypeBuilding",
            "measure_display_name" : "Create Prototype Building",
            "measure_name" : "create_prototype_building",
            "measure_taxonomy" : "Whole Building.Space Types",
            "measure_type" : "ModelMeasure",
            "measure_uid" : "ae90fsd7-a651-467a-bc8d-29d310b0f937",
            "measure_version_id" : "c6ec5c18-5595-459f-a082-09a19c8c869c",
            "measure_version_modified" : "20170519T182315Z",
            "measure_xml_checksum" : "057E8D9D",
            "started_at" : "20170710T183319Z",
            "stderr" : "",
            "stdout" : "[OpenStudio.Measure] <0> OSArgumentVector is deprecated, use OpenStudio::Measure::OSArgumentVector instead.\n[openstudio.EpwFile] <0> Successive data points (1973-Jan-31 to 1985-Feb-01, ending on line 753) are greater than 1 day apart in EPW file '/usr/local/bundle/bundler/gems/openstudio-standards-f448df66933d/openstudio-standards/data/weather/CAN_BC_Port.Hardy.711090_CWEC.epw'. Data will be treated as typical (TMY)\n[openstudio.setFileExtension] <0> Path p, '/usr/local/bundle/bundler/gems/openstudio-standards-f448df66933d/openstudio-standards/data/weather/CAN_BC_Port.Hardy.711090_CWEC.ddy', has an unexpected file extension. Was expecting 'idf'.\n[openstudio.model.YearDescription] <1> 'UseWeatherFile' is not yet a supported option for YearDescription\n[openstudio.model.YearDescription] <1> 'UseWeatherFile' is not yet a supported option for YearDescription\n[openstudio.setFileExtension] <0> Path p, '/usr/local/bundle/bundler/gems/openstudio-standards-f448df66933d/openstudio-standards/data/weather/CAN_BC_Port.Hardy.711090_CWEC.ddy', has an unexpected file extension. Was expecting 'idf'.\n[openstudio.model.YearDescription] <1> 'UseWeatherFile' is not yet a supported option for YearDescription\n[openstudio.model.YearDescription] <1> 'UseWeatherFile' is not yet a supported option for YearDescription\n[openstudio.EpwFile] <0> Successive data points (1973-Jan-31 to 1985-Feb-01, ending on line 753) are greater than 1 day apart in EPW file '/usr/local/bundle/bundler/gems/openstudio-standards-f448df66933d/openstudio-standards/data/weather/CAN_BC_Port.Hardy.711090_CWEC.epw'. Data will be treated as typical (TMY)\n[openstudio.weather.Model] <0> Could not find ground temperatures; will use generic temperatures, which will skew results.\n[openstudio.setFileExtension] <0> Path p, '/usr/local/bundle/bundler/gems/openstudio-standards-f448df66933d/openstudio-standards/data/weather/CAN_BC_Port.Hardy.711090_CWEC.ddy', has an unexpected file extension. Was expecting 'idf'.\n[openstudio.model.YearDescription] <1> 'UseWeatherFile' is not yet a supported option for YearDescription\n[openstudio.model.YearDescription] <1> 'UseWeatherFile' is not yet a supported option for YearDescription\n[openstudio.EpwFile] <0> Successive data points (1973-Jan-31 to 1985-Feb-01, ending on line 753) are greater than 1 day apart in EPW file '/usr/local/bundle/bundler/gems/openstudio-standards-f448df66933d/openstudio-standards/data/weather/CAN_BC_Port.Hardy.711090_CWEC.epw'. Data will be treated as typical (TMY)\n[openstudio.setFileExtension] <0> Path p, '/usr/local/bundle/bundler/gems/openstudio-standards-f448df66933d/openstudio-standards/data/weather/CAN_BC_Port.Hardy.711090_CWEC.ddy', has an unexpected file extension. Was expecting 'idf'.\n[openstudio.model.YearDescription] <1> 'UseWeatherFile' is not yet a supported option for YearDescription\n[openstudio.model.YearDescription] <1> 'UseWeatherFile' is not yet a supported option for YearDescription\n[openstudio.setFileExtension] <0> Path p, '/usr/local/bundle/bundler/gems/openstudio-standards-f448df66933d/openstudio-standards/data/weather/CAN_BC_Port.Hardy.711090_CWEC.ddy', has an unexpected file extension. Was expecting 'idf'.\n[openstudio.model.YearDescription] <1> 'UseWeatherFile' is not yet a supported option for YearDescription\n[openstudio.model.YearDescription] <1> 'UseWeatherFile' is not yet a supported option for YearDescription\n[openstudio.EpwFile] <0> Successive data points (1973-Jan-31 to 1985-Feb-01, ending on line 753) are greater than 1 day apart in EPW file '/usr/local/bundle/bundler/gems/openstudio-standards-f448df66933d/openstudio-standards/data/weather/CAN_BC_Port.Hardy.711090_CWEC.epw'. Data will be treated as typical (TMY)\n[openstudio.setFileExtension] <0> Path p, '/usr/local/bundle/bundler/gems/openstudio-standards-f448df66933d/openstudio-standards/data/weather/CAN_BC_Port.Hardy.711090_CWEC.ddy', has an unexpected file extension. Was expecting 'idf'.\n[openstudio.model.YearDescription] <1> 'UseWeatherFile' is not yet a supported option for YearDescription\n[openstudio.model.YearDescription] <1> 'UseWeatherFile' is not yet a supported option for YearDescription\n[openstudio.setFileExtension] <0> Path p, '/usr/local/bundle/bundler/gems/openstudio-standards-f448df66933d/openstudio-standards/data/weather/CAN_BC_Port.Hardy.711090_CWEC.ddy', has an unexpected file extension. Was expecting 'idf'.\n[openstudio.model.YearDescription] <1> 'UseWeatherFile' is not yet a supported option for YearDescription\n[openstudio.model.YearDescription] <1> 'UseWeatherFile' is not yet a supported option for YearDescription\n[utilities.idf.WorkspaceObject] <0> Object of type 'Schedule:Constant' and named 'Always Off Discrete', points to an object named OnOff 1 from field 1, but that object cannot be located.\n[utilities.idf.WorkspaceObject] <0> Object of type 'Schedule:Constant' and named 'Always On Continuous', points to an object named Fractional 1 from field 1, but that object cannot be located.\n[utilities.idf.WorkspaceObject] <0> Object of type 'Schedule:Constant' and named 'Always Off Discrete', points to an object named OnOff 1 from field 1, but that object cannot be located.\n[utilities.idf.WorkspaceObject] <0> Object of type 'Schedule:Constant' and named 'Always On Continuous', points to an object named Fractional 1 from field 1, but that object cannot be located.\n[openstudio.standards.Fan] <0> For Fan Constant Volume 1, there is no greater nominal HP.  Use the efficiency of the largest motor category.\n[openstudio.standards.Fan] <0> For Fan Constant Volume 28, there is no greater nominal HP.  Use the efficiency of the largest motor category.\n[openstudio.EpwFile] <0> Successive data points (1973-Jan-31 to 1985-Feb-01, ending on line 753) are greater than 1 day apart in EPW file '/usr/local/bundle/bundler/gems/openstudio-standards-f448df66933d/openstudio-standards/data/weather/CAN_BC_Port.Hardy.711090_CWEC.epw'. Data will be treated as typical (TMY)\n[openstudio.setFileExtension] <0> Path p, '/usr/local/bundle/bundler/gems/openstudio-standards-f448df66933d/openstudio-standards/data/weather/CAN_BC_Port.Hardy.711090_CWEC.ddy', has an unexpected file extension. Was expecting 'idf'.\n[openstudio.model.YearDescription] <1> 'UseWeatherFile' is not yet a supported option for YearDescription\n[openstudio.model.YearDescription] <1> 'UseWeatherFile' is not yet a supported option for YearDescription\n[openstudio.setFileExtension] <0> Path p, '/usr/local/bundle/bundler/gems/openstudio-standards-f448df66933d/openstudio-standards/data/weather/CAN_BC_Port.Hardy.711090_CWEC.ddy', has an unexpected file extension. Was expecting 'idf'.\n[openstudio.model.YearDescription] <1> 'UseWeatherFile' is not yet a supported option for YearDescription\n[openstudio.model.YearDescription] <1> 'UseWeatherFile' is not yet a supported option for YearDescription\n[openstudio.EpwFile] <0> Successive data points (1973-Jan-31 to 1985-Feb-01, ending on line 753) are greater than 1 day apart in EPW file '/usr/local/bundle/bundler/gems/openstudio-standards-f448df66933d/openstudio-standards/data/weather/CAN_BC_Port.Hardy.711090_CWEC.epw'. Data will be treated as typical (TMY)\n[openstudio.setFileExtension] <0> Path p, '/usr/local/bundle/bundler/gems/openstudio-standards-f448df66933d/openstudio-standards/data/weather/CAN_BC_Port.Hardy.711090_CWEC.ddy', has an unexpected file extension. Was expecting 'idf'.\n[openstudio.model.YearDescription] <1> 'UseWeatherFile' is not yet a supported option for YearDescription\n[openstudio.model.YearDescription] <1> 'UseWeatherFile' is not yet a supported option for YearDescription\n[openstudio.setFileExtension] <0> Path p, '/usr/local/bundle/bundler/gems/openstudio-standards-f448df66933d/openstudio-standards/data/weather/CAN_BC_Port.Hardy.711090_CWEC.ddy', has an unexpected file extension. Was expecting 'idf'.\n[openstudio.model.YearDescription] <1> 'UseWeatherFile' is not yet a supported option for YearDescription\n[openstudio.model.YearDescription] <1> 'UseWeatherFile' is not yet a supported option for YearDescription\n[openstudio.standards.Fan] <0> For Fan Constant Volume 1, there is no greater nominal HP.  Use the efficiency of the largest motor category.\n[openstudio.standards.Fan] <0> For Fan Constant Volume 28, there is no greater nominal HP.  Use the efficiency of the largest motor category.\n",
            "step_errors" : [],
            "step_files" : [],
            "step_info" : [
               "Started adding geometry",
               "Finished adding geometry",
               "Intersection of 'm GFloor NEA' with 'g Ceilin NEA' results in (m GFloor NEA), (g Ceilin NEA),",
               "Intersection of 'g Ceilin NWA' with 'm GFloor NWA' results in (g Ceilin NWA), (m GFloor NWA),",
               "Intersection of 'm GFloor S1A' with 'g Ceilin S1A' results in (m GFloor S1A), (g Ceilin S1A),",
               "Intersection of 'g Ceilin S1A' with 'm GFloor S1A' results in (g Ceilin S1A), (m GFloor S1A),",
               "Intersection of 'g Ceilin N2A' with 'm GFloor N2A' results in (g Ceilin N2A), (m GFloor N2A),",
               "Intersection of 'm GFloor SEA' with 'g Ceilin SEA' results in (m GFloor SEA), (g Ceilin SEA),",
               "Intersection of 'm GFloor N2A' with 'g Ceilin N2A' results in (m GFloor N2A), (g Ceilin N2A),",
               "Intersection of 'g Ceilin N1A' with 'm GFloor N1A' results in (g Ceilin N1A), (m GFloor N1A),",
               "Intersection of 'g Ceilin NEA' with 'm GFloor NEA' results in (g Ceilin NEA), (m GFloor NEA),",
               "Intersection of 'm GFloor S2A' with 'g Ceilin S2A' results in (m GFloor S2A), (g Ceilin S2A),",
               "Intersection of 'g Ceilin S2A' with 'm GFloor S2A' results in (g Ceilin S2A), (m GFloor S2A),",
               "Intersection of 'm GFloor SWA' with 'g Ceilin SWA' results in (m GFloor SWA), (g Ceilin SWA),",
               "Intersection of 'g Ceilin SEA' with 'm GFloor SEA' results in (g Ceilin SEA), (m GFloor SEA),",
               "Intersection of 'g Ceiling C' with 'm Floor C' results in (g Ceiling C), (m Floor C),",
               "Intersection of 'm GFloor N1A' with 'g Ceilin N1A' results in (m GFloor N1A), (g Ceilin N1A),",
               "Intersection of 'm GFloor NWA' with 'g Ceilin NWA' results in (m GFloor NWA), (g Ceilin NWA),",
               "Intersection of 'g Ceilin SWA' with 'm GFloor SWA' results in (g Ceilin SWA), (m GFloor SWA),",
               "Intersection of 'm Floor C' with 'g Ceiling C' results in (m Floor C), (g Ceiling C),",
               "Started adding weather file for climate zone: NECB HDD Method.",
               "Template =",
               "Setting G Corridor to Space Function.Corr. < 2.4m wide-sch-G",
               "Setting M Corridor to Space Function.Corr. < 2.4m wide-sch-G",
               "Setting T Corridor to Space Function.Corr. < 2.4m wide-sch-G",
               "Setting G N1 Apartment to Space Function.Dwelling Unit(s)",
               "Setting G N2 Apartment to Space Function.Dwelling Unit(s)",
               "Setting G NE Apartment to Space Function.Dwelling Unit(s)",
               "Setting G NW Apartment to Space Function.Dwelling Unit(s)",
               "Setting G S1 Apartment to Space Function.Dwelling Unit(s)",
               "Setting G S2 Apartment to Space Function.Dwelling Unit(s)",
               "Setting G SW Apartment to Space Function.Dwelling Unit(s)",
               "Setting M N1 Apartment to Space Function.Dwelling Unit(s)",
               "Setting M N2 Apartment to Space Function.Dwelling Unit(s)",
               "Setting M NE Apartment to Space Function.Dwelling Unit(s)",
               "Setting M NW Apartment to Space Function.Dwelling Unit(s)",
               "Setting M S1 Apartment to Space Function.Dwelling Unit(s)",
               "Setting M S2 Apartment to Space Function.Dwelling Unit(s)",
               "Setting M SE Apartment to Space Function.Dwelling Unit(s)",
               "Setting M SW Apartment to Space Function.Dwelling Unit(s)",
               "Setting T N1 Apartment to Space Function.Dwelling Unit(s)",
               "Setting T N2 Apartment to Space Function.Dwelling Unit(s)",
               "Setting T NE Apartment to Space Function.Dwelling Unit(s)",
               "Setting T NW Apartment to Space Function.Dwelling Unit(s)",
               "Setting T S1 Apartment to Space Function.Dwelling Unit(s)",
[...]
Uo92G1Am4aCUr0eLDagTUM3Y6rZg60GtGkoKNXswUqb16Ytc4A2DQXVrwho01BQffiBNg0F1YcfaNNQUH34iTaNJcW6PdhsRJvGkmL1Hiw3ok1jSbGGD/Yb0aaxuzLW8cGKI9o0lhTr+GDLqU1Tm6Y27ROh2rT3UZumNk1t2mDUpqlNW/VXqU1bPH/F59WmPY7atPu84FtaG7MLiCOOOOKII4444ogjjjji7B5nY9IBaaSRRhpppJFGGmmkkUaa/dB8G9mBOOKII4444ogjjjjiiCPO/PPUpn2M2rS7Nq3tQ5t23oE27fxl2rS3Hz1iTSM5h1DOMZRzCuWcQzmXUM41lHML5Sx+dI+CUo1uqUq3VKdbqtQt1eqWqnVL9bqlit1Sze6pZvfYXZ1qdk81u69q9vN6tEXUvB0NxJRvaN6NBmLKcz9vRgMx5Zmf96KBmPK8AysayQn1uF5jQIlGckJVrncY8KGRnFCb6wUGZGjkHgz1ud5ewIRGckJ9rlfXvAZtEQMsaCSnfD3AgUZyyuMODGgkpzzuwH9GcsrjTuxnKCjV6HqDEfUZCkqVul5ixHuGglK9rvcYkZ6hmzHV7HqVEeMZCko1u95m6s7Unak7+0So7ux91J2pO1N3Nhh1Z+rOVv1V6s4Wz1/xeXVnj6Pu7D4v+HbVxqwA4ogjjjjiiCOOOOKII444u8fZmCxAGmmkkUYaaaSRRhpppJFmPzTfRlIgjjjiiCOOOOKII4444ogz/zx1Zx+j7uyuO+v70J1ddqA7u3yh7uztFPKdgaBDKuiYCjqlgs6poEsq6JoKuqWCfvm5PUmKdbvFyt1i7W6xerdYv1us4C3W8BareIt1vMc63nP3d6zjPdbxvq7jazRoj1nEgzafU78lYkKbz6lvAeJCm8+pbwBiQ5vPqU8/8qGBoFSjB+sNKdFAUKrUg92GrGggKNXrwWJDYjRwM6aaPdhqyI0GglLNHqw0okd7zEF+NBBUvyJkSANB9eFHjjQQVB9+ZEkDQfXhZ540khTr9mCzMVUaSYrVe7DcmC2NJMUaPthvTJhG7spYxwcrjjnTSFKs44MtpzZNbZratE+EatPeR22a2jS1aYNRm6Y2bdVfpTZt8fwVn1eb9jhq0+7zgm9pbcwuII444ogjjjjiiCOOOOKIs3ucjUkHpJFGGmmkkUYaaaSRRhpp9kPzbWQH4ogjjjjiiCOOOOKII444889Tm/YxatPu2rTDPrRp1x1o065fpk07//xR6KziJhV0SAUdU0GnVNA5FXRJBV1TQbdU0OLX9ywp1u0WK3eLtbvF6t1i/W6xgrdYw1us4i3W8R7reM/d37GO91jH+7qOP69NW2bNa9NITv2W5rVpJKe+Bea1aSSnvgHmtWkkpz79QJuGglKNHqw3oE1DQalSD3Yb0KahoFSvB4sNaNPQzZhq9mCrAW0aCko1e7DS5rVpyxygTUNB9SsC2jQUVB9+oE1DQfXhB9o0FFQffqJNY0mxbg82G9GmsaRYvQfLjWjTWFKs4YP9RrRp7K6MdXyw4og2jSXFOj7YcmrT1KapTftEqDbtfdSmqU1TmzYYtWlq01b9VWrTFs9f8Xm1aY+jNu0+L/iW1sbsAuKII4444ogjjjjiiCOOOLvH2Zh0QBpppJFGGmmkkUYaaaSRZj8030Z2II444ogjjjjiiCOOOOKIM/88tWkfozbtrk077kObdtuBNu32Zdq0tx89Yk0jOYdQzjGUcwrlnEM5l1DONZRzC+UsfnSPglKNbqlKt1SnW6rULdXqlqp1S/W6pYrdUs3uqWb32F2danZPNbuvavbzerRF1LwdDcSUb2jejQZiynM/b0YDMeWZn/eigZjyvAMrGskJ9bheY0CJRnJCVa53GPChkZxQm+sFBmRo5B4M9bneXsCERnJCfa5X17wGbREDLGgkp3w9wIFGcsrjDgxoJKc87sB/RnLK407sZygo1eh6gxH1GQpKlbpeYsR7hoJSva73GJGeoZsx1ex6lRHjGQpKNbveZurO1J2pO/tEqO7sfdSdqTtTdzYYdWfqzlb9VerOFs9f8Xl1Z4+j7uw+L/h21casAOKII4444ogjjjjiiCOOOLvH2ZgsQBpppJFGGmmkkUYaaaSRZj8030ZSII444ogjjjjiiCOOOOKIM/88dWcfo+7srjs77UJ3dnnbvu7sr4xfpzt7O4V8ZyDokAo6poJOqaBzKuiSCrqmgm6poF9+bk+SYt1usXK3WLtbrN4t1u8WK3iLNbzFKt5iHe+xjvfc/R3reI91vK/r+BoN2mMW8aDN59RviZjQ5nPqW4C40OZz6huA2NDmc+rTj3xoICjV6MF6Q0o0EJQq9WC3ISsaCEr1erDYkBgN3IypZg+2GnKjgaBUswcrjejRHnOQHw0E1a8IGdJAUH34kSMNBNWHH1nSQFB9+JknjSTFuj3YbEyVRpJi9R4sN2ZLI0mxhg/2GxOmkbsy1vHBimPONJIU6/hgy6lNU5umNu0Todq091GbpjZNbdpg1KapTVv1V6lNWzx/xefVpj2O2rT7vOBbWhuzC4gjjjjiiCOOOOKII4444uweZ2PSAWmkkUYaaaSRRhpppJFGmv3QfBvZgTjiiCOOOOKII4444ogjzvzz1KZ9jNq0uzbtvA9tWtuBNq19mTbt/PNHobOKm1TQIRV0TAWdUkHnVNAlFXRNBd1SQYtf37OkWLdbrNwt1u4Wq3eL9bvFCt5iDW+xirdYx3us4z13f8c63mMd7+s6/rw2bZk1r00jOfVbmtemkZz6FpjXppGc+gaY16aRnPr0A20aCko1erDegDYNBaVKPdhtQJuGglK9Hiw2oE1DN2Oq2YOtBrRpKCjV7MFKm9emLXOANg0F1a8IaNNQUH34gTYNBdWHH2jTUFB9+Ik2jSXFuj3YbESbxpJi9R4sN6JNY0mxhg/2G9Gmsbsy1vHBiiPaNJYU6/hgy6lNU5umNu0Todq091GbpjZNbdpg1KapTVv1V6lNWzx/xefVpj2O2rT7vOBbWhuzC4gjjjjiiCOOOOKII4444uweZ2PSAWmkkUYaaaSRRhpppJFGmv3QfBvZgTjiiCOOOOKII4444ogjzvzz1KZ9jNq0uzbtsg9tWt+BNq1/mTbt7UePWNNIziGUcwzlnEI551DOJZRzDeXcQjmLH92joFSjW6rSLdXplip1S7W6pWrdUr1uqWK3VLN7qtk9dlenmt1Tze6rmv28Hm0RNW9HAzHlG5p3o4GY8tzPm9FATHnm571oIKY878CKRnJCPa7XGFCikZxQlesdBnxoJCfU5nqBARkauQdDfa63FzChkZxQn+vVNa9BW8QACxrJKV8PcKCRnPK4AwMaySmPO/CfkZzyuBP7GQpKNbreYER9hoJSpa6XGPGeoaBUr+s9RqRn6GZMNbteZcR4hoJSza63mbozdWfqzj4Rqjt7H3Vn6s7UnQ1G3Zm6s1V/lbqzxfNXfF7d2eOoO7vPC75dtTErgDjiiCOOOOKII4444ogjzu5xNiYLkEYaaaSRRhpppJFGGmmk2Q/Nt5EUiCOOOOKII4444ogjjjjizD9P3dnHqDu7686u+9CdHXagOzt8oe7s7RTynYGgQyromAo6pYLOqaBLKuiaCrqlgn75uT1JinW7xcrdYu1usXq3WL9brOAt1vAWq3iLdbzHOt5z93es4z3W8b6u42s0aI9ZxIM2n1O/JWJCm8+pbwHiQpvPqW8AYkObz6lPP/KhgaBUowfrDSnRQFCq1IPdhqxoICjV68FiQ2I0cDOmmj3YasiNBoJSzR6sNKJHe8xBfjQQVL8iZEgDQfXhR440EFQffmRJA0H14WeeNJIU6/ZgszFVGkmK1Xuw3JgtjSTFGj7Yb0yYRu7KWMcHK44500hSrOODLac2TW2a2rRPhGrT3kdtmto0tWmDUZumNm3VX6U2bfH8FZ9Xm/Y4atPu84JvaW3MLiCOOOKII4444ogjjjjiiLN7nI1JB6SRRhpppJFGGmmkkUYaafZD821kB+KII4444ogjjjjiiCOOOPPPU5v2MWrT7tq02z60accdaNOOX6ZNO//8Ueis4iYVdEgFHVNBp1TQORV0SQVdU0G3VNDi1/csKdbtFit3i7W7xerdYv1usYK3WMNbrOIt1vEe63jP3d+xjvdYx/u6jj+vTVtmzWvTSE79lua1aSSnvgXmtWkkp74B5rVpJKc+/UCbhoJSjR6sN6BNQ0GpUg92G9CmoaBUrweLDWjT0M2YavZgqwFtGgpKNXuw0ua1acscoE1DQfUrAto0FFQffqBNQ0H14QfaNBRUH36iTWNJsW4PNhvRprGkWL0Hy41o01hSrOGD/Ua0aeyujHV8sOKINo0lxTo+2HJq09SmqU37RKg27X3UpqlNU5s2GLVpatNW/VVq0xbPX/F5tWmPozbtPi/4ltbG7ALiiCOOOOKII4444ogjjji7x9mYdEAaaaSRRhpppJFGGmmkkWY/NN9GdiCOOOKII4444ogjjjjiiDP/PLVpH6M27Xdt2mkf1rTTDqxpJ61pc0Fa0/44SGvaU0la07SmaU3TmqY1TWua1jStaVrT/ubNqDXtj4O0pv1hkNY0rWla07SmxZK0pj2XpDWthtGapjXt19Ga9ju+1rRfR2vaM6M1bd3ntaZpTVv1V2lNWzx/xee1pj2O1rT7vOBLWhuTC4gjjjjiiCOOOOKII4444uweZ2POAWmkkUYaaaSRRhpppJFGmv3QfBvXgTjiiCOOOOKII4444ogjzvzztKZ9jNa0uzXtbR/atPMOtGnnL9Omvf3oEWsayTmEco6hnFMo5xzKuYRyrqGcWyhn8aN7FJRqdEtVuqU63VKlbqlWt1StW6rXLVXslmp2TzW7x+7qVLN7qtl9VbOf16MtoubtaCCmfEPzbjQQU577eTMaiCnP/LwXDcSU5x1Y0UhOqMf1GgNKNJITqnK9w4APjeSE2lwvMCBDI/dgqM/19gImNJIT6nO9uuY1aIsYYEEjOeXrAQ40klMed2BAIznlcQf+M5JTHndiP0NBqUbXG4yoz1BQqtT1EiPeMxSU6nW9x4j0DN2MqWbXq4wYz1BQqtn1NlN3pu5M3dknQnVn76PuTN2ZurPBqDtTd7bqr1J3tnj+is+rO3scdWf3ecG3qzZmBRBHHHHEEUccccQRRxxxxNk9zsZkAdJII4000kgjjTTSSCONNPuh+TaSAnHEEUccccQRRxxxxBFHnPnnqTv7GHVnd91Z24fu7LID3dnlC3Vnb6eQ7wwEHVJBx1TQKRV0TgVdUkHXVNAtFfTLz+1JUqzbLVbuFmt3i9W7xfrdYgVvsYa3WMVbrOM91vGeu79jHe+xjvd1HV+jQXvMIh60+Zz6LRET2nxOfQsQF9p8Tn0DEBvafE59+pEPDQSlGj1Yb0iJBoJSpR7sNmRFA0GpXg8WGxKjgZsx1ezBVkNuNBCUavZgpRE92mMO8qOBoPoVIUMaCKoPP3KkgaD68CNLGgiqDz/zpJGkWLcHm42p0khSrN6D5cZsaSQp1vDBfmPCNHJXxjo+WHHMmUaSYh0fbDm1aWrT1KZ9IlSb9j5q09SmqU0bjNo0tWmr/iq1aYvnr/i82rTHUZt2nxd8S2tjdgFxxBFHHHHEEUccccQRR5zd42xMOiCNNNJII4000kgjjTTSSLMfmm8jOxBHHHHEEUccccQRRxxxxJl/ntq0j1Gbdtem9X1o06470KZdv0ybdv75o9BZxU0q6JAKOqaCTqmgcyrokgq6poJuqaDFr+9ZUqzbLVbuFmt3i9W7xfrdYgVvsYa3WMVbrOM91vGeu79jHe+xjvd1HX9em7bMmtemkZz6Lc1r00hOfQvMa9NITn0DzGvTSE59+oE2DQWlGj1Yb0CbhoJSpR7sNqBNQ0GpXg8WG9CmoZsx1ezBVgPaNBSUavZgpc1r05Y5QJuGgupXBLRpKKg+/ECbhoLqww+0aSioPvxEm8aSYt0ebDaiTWNJsXoPlhvRprGkWMMH+41o09hdGev4YMURbRpLinV8sOXUpqlNU5v2iVBt2vuoTVObpjZtMGrT1Kat+qvUpi2ev+LzatMeR23afV7wLa2N2QXEEUccccQRRxxxxBFHHHF2j7Mx6YA00kgjjTTSSCONNNJII81+aL6N7EAcccQRRxxxxBFHHHHEEWf+eWrTPkZt2l2bdtiHNu22A23a7cu0aW8/esSaRnIOoZxjKOcUyjmHci6hnGso5xbKWfzoHgWlGt1SlW6pTrdUqVuq1S1V65bqdUsVu6Wa3VPN7rG7OtXsnmp2X9Xs5/Voi6h5OxqIKd/QvBsNxJTnft6MBmLKMz/vRQMx5XkHVjSSE+pxvcaAEo3khKpc7zDgQyM5oTbXCwzI0Mg9GOpzvb2ACY3khPpcr655DdoiBljQSE75eoADjeSUxx0Y0EhOedyB/4zklMed2M9QUKrR9QYj6jMUlCp1vcSI9wwFpXpd7zEiPUM3Y6rZ9SojxjMUlGp2vc3Unak7U3f2iVDd2fuoO1N3pu5sMOrO1J2t+qvUnS2ev+Lz6s4eR93ZfV7w7aqNWQHEEUccccQRRxxxxBFHHHF2j7MxWYA00kgjjTTSSCONNNJII81+aL6NpEAcccQRRxxxxBFHHHHEEWf+eerOPkbd2V13dtyF7uz6tn3d2V8Zv0539nYK+c5A0CEVdEwFnVJB51TQJRV0TQXdUkG//NyeJMW63WLlbrF2t1i9W6zfLVbwFmt4i1W8xTreYx3vufs71vEe63hf1/E1GrTHLOJBm8+p3xIxoc3n1LcAcaHN59Q3ALGhzefUpx/50EBQqtGD9YaUaCAoVerBbkNWNBCU6vVgsSExGrgZU80ebDXkRgNBqWYPVhrRoz3mID8aCKpfETKkgaD68CNHGgiqDz+ypIGg+vAzTxpJinV7sNmYKo0kxeo9WG7MlkaSYg0f7DcmTCN3ZazjgxXHnGkkKdbxwZZTm6Y2TW3aJ0K1ae+jNk1tmtq0wahNU5u26q9Sm7Z4/orPq017HLVp93nBt7Q2ZhcQRxxxxBFHHHHEEUccccTZPc7GpAPSSCONNNJII4000kgjjTT7ofk2sgNxxBFHHHHEEUccccQRR5z556lN+xi1aXdt2mkf2rS2A21a+zJt2vnnj0JnFTepoEMq6JgKOqWCzqmgSyromgq6pYIWv75nSbFut1i5W6zdLVbvFut3ixW8xRreYhVvsY73WMd77v6OdbzHOt7Xdfx5bdoya16bRnLqtzSvTSM59S0wr00jOfUNMK9NIzn16QfaNBSUavRgvQFtGgpKlXqw24A2DQWlej1YbECbhm7GVLMHWw1o01BQqtmDlTavTVvmAG0aCqpfEdCmoaD68ANtGgqqDz/QpqGg+vATbRpLinV7sNmINo0lxeo9WG5Em8aSYg0f7DeiTWN3ZazjgxVHtGksKdbxwZZTm6Y2TW3aJ0K1ae+jNk1tmtq0wahNU5u26q9Sm7Z4/orPq017HLVp93nBt7Q2ZhcQRxxxxBFHHHHEEUccccTZPc7GpAPSSCONNNJII4000kgjjTT7ofk2sgNxxBFHHHHEEUccccQRR5z556lN+xi1aXdt2nkf2rS+A21a/zJt2tuPHrGmkZxDKOcYyjmFcs6hnEso5xrKuYVyFj+6R0GpRrdUpVuq0y1V6pZqdUvVuqV63VLFbqlm91Sze+yuTjW7p5rdVzX7eT3aImrejgZiyjc070YDMeW5nzejgZjyzM970UBMed6BFY3khHpcrzGgRCM5oSrXOwz40EhOqM31AgMyNHIPhvpcby9gQiM5oT7Xq2teg7aIARY0klO+HuBAIznlcQcGNJJTHnfgPyM55XEn9jMUlGp0vcGI+gwFpUpdLzHiPUNBqV7Xe4xIz9DNmGp2vcqI8QwFpZpdbzN1Z+rO1J19IlR39j7qztSdqTsbjLozdWer/ip1Z4vnr/i8urPHUXd2nxd8u2pjVgBxxBFHHHHEEUccccQRR5zd42xMFiCNNNJII4000kgjjTTSSLMfmm8jKRBHHHHEEUccccQRRxxxxJl/nrqzj1F3dtedXfahOzvsQHd2+ELd2dsp5DsDQYdU0DEVdEoFnVNBl1TQNRV0SwX98nN7khTrdouVu8Xa3WL1brF+t1jBW6zhLVbxFut4j3W85+7vWMd7rON9XcfXaNAes4gHbT6nfkvEhDafU98CxIU2n1PfAMSGNp9Tn37kQwNBqUYP1htSooGgVKkHuw1Z0UBQqteDxYbEaOBmTDV7sNWQGw0EpZo9WGlEj/aYg/xoIKh+RciQBoLqw48caSCoPvzIkgaC6sPPPGkkKdbtwWZjqjSSFKv3YLkxWxpJijV8sN+YMI3clbGOD1Ycc6aRpFjHB1tObZraNLVpnwjVpr2P2jS1aWrTBqM2TW3aqr9Kbdri+Ss+rzbtcdSm3ecF39LamF1AHHHEEUccccQRRxxxxBFn9zgbkw5II4000kgjjTTSSCONNNLsh+bbyA7EEUccccQRRxxxxBFHHHHmn6c27WPUpt21add9aNOOO9CmHb9Mm3b++aPQWcVNKuiQCjqmgk6poHMq6JIKuqaCbqmgxa/vWVKs2y1W7hZrd4vVu8X63WIFb7GGt1jFW6zjPdbxnru/Yx3vsY73dR1/Xpu2zJrXppGc+i3Na9NITn0LzGvTSE59A8xr00hOffqBNg0FpRo9WG9Am4aCUqUe7DagTUNBqV4PFhvQpqGbMdXswVYD2jQUlGr2YKXNa9OWOUCbhoLqVwS0aSioPvxAm4aC6sMPtGkoqD78RJvGkmLdHmw2ok1jSbF6D5Yb0aaxpFjDB/uNaNPYXRnr+GDFEW0aS4p1fLDl1KapTVOb9olQbdr7qE1Tm6Y2bTBq09Smrfqr1KYtnr/i82rTHkdt2n1e8C2tjdkFxBFHHHHEEUccccQRRxxxdo+zMemANNJII4000kgjjTTSSCPNfmi+jexAHHHEEUccccQRRxxxxBFn/nlq0z5Gbdpdm3bbhzbttANt2unLtGlvP3rEmkZyDqGcYyjnFMo5h3IuoZxrKOcWyln86B4FpRrdUpVuqU63VKlbqtUtVeuW6nVLFbulmt1Tze6xuzrV7J5qdl/V7Of1aIuoeTsaiCnf0LwbDcSU537ejAZiyjM/70UDMeV5B1Y0khPqcb3GgBKN5ISqXO8w4EMjOaE21wsMyNDIPRjqc729gAmN5IT6XK+ueQ3aIgZY0EhO+XqAA43klMcdGNBITnncgf+M5JTHndjPUFCq0fUGI+ozFJQqdb3EiPcMBaV6Xe8xIj1DN2Oq2fUqI8YzFJRqdr3N1J2pO1N39olQ3dn7qDtTd6bubDDqztSdrfqr1J0tnr/i8+rOHkfd2X1e8O2qjVkBxBFHHHHEEUccccQRRxxxdo+zMVmANNJII4000kgjjTTSSCPNfmi+jaRAHHHEEUccccQRRxxxxBFn/nnqzj5G3dnvurPzPmxn5x3Yzs7azrSd/fGP7LWdaTvTdqbt7JkgbWfazrSdaTvTdqbtTNuZtrNVi0vbmbazp4K0nf1xkLazPw7SdvbHQdrOKhhtZ9rOfh1tZ7/jazv7dbSdPTPaztZ9XtuZtrNVf5W2s8XzV3xe29njaDu7zwu+XLUxKYA44ogjjjjiiCOOOOKII87ucTbmCpBGGmmkkUYaaaSRRhpppNkPzbdxFIgjjjjiiCOOOOKII4444sw/T9vZx2g7u9vO3vahO7vsQHd2+ULd2dsp5DsDQYdU0DEVdEoFnVNBl1TQNRV0SwX98nN7khTrdouVu8Xa3WL1brF+t1jBW6zhLVbxFut4j3W85+7vWMd7rON9XcfXaNAes4gHbT6nfkvEhDafU98CxIU2n1PfAMSGNp9Tn37kQwNBqUYP1htSooGgVKkHuw1Z0UBQqteDxYbEaOBmTDV7sNWQGw0EpZo9WGlEj/aYg/xoIKh+RciQBoLqw48caSCoPvzIkgaC6sPPPGkkKdbtwWZjqjSSFKv3YLkxWxpJijV8sN+YMI3clbGOD1Ycc6aRpFjHB1tObZraNLVpnwjVpr2P2jS1aWrTBqM2TW3aqr9Kbdri+Ss+rzbtcdSm3ecF39LamF1AHHHEEUccccQRRxxxxBFn9zgbkw5II4000kgjjTTSSCONNNLsh+bbyA7EEUccccQRRxxxxBFHHHHmn6c27WPUpt21aW0f2rTrDrRp1y/Tpp1//ih0VnGTCjqkgo6poFMq6JwKuqSCrqmgWypo8et7lhTrdouVu8Xa3WL1brF+t1jBW6zhLVbxFut4j3W85+7vWMd7rON9Xcef16Yts+a1aSSnfkvz2jSSU98C89o0klPfAPPaNJJTn36gTUNBqUYP1hvQpqGgVKkHuw1o01BQqteDxQa0aehmTDV7sNWANg0FpZo9WGnz2rRlDtCmoaD6FQFtGgqqDz/QpqGg+vADbRoKqg8/0aaxpFi3B5uNaNNYUqzeg+VGtGksKdbwwX4j2jR2V8Y6PlhxRJvGkmIdH2w5tWlq09SmfSJUm/Y+atPUpqlNG4zaNLVpq/4qtWmL56/4vNq0x1Gbdp8XfEtrY3YBccQRRxxxxBFHHHHEEUec3eNsTDogjTTSSCONNNJII4000kizH5pvIzsQRxxxxBFHHHHEEUccccSZf57atI9Rm3bXpvV9aNNuO9Cm3b5Mm/b2o0esaSTnEMo5hnJOoZxzKOcSyrmGcm6hnMWP7lFQqtEtVemW6nRLlbqlWt1StW6pXrdUsVuq2T3V7B67q1PN7qlm91XNfl6Ptoiat6OBmPINzbvRQEx57ufNaCCmPPPzXjQQU553YEUjOaEe12sMKNFITqjK9Q4DPjSSE2pzvcCADI3cg6E+19sLmNBITqjP9eqa16AtYoAFjeSUrwc40EhOedyBAY3klMcd+M9ITnncif0MBaUaXW8woj5DQalS10uMeM9QUKrX9R4j0jN0M6aaXa8yYjxDQalm19tM3Zm6M3VnnwjVnb2PujN1Z+rOBqPuTN3Zqr9K3dni+Ss+r+7scdSd3ecF367amBVAHHHEEUccccQRRxxxxBFn9zgbkwVII4000kgjjTTSSCONNNLsh+bbSArEEUccccQRRxxxxBFHHHHmn6fu7GPUnd11Z4dd6M5ub9vXnf2V8et0Z2+nkO8MBB1SQcdU0CkVdE4FXVJB11TQLRX0y8/tSVKs2y1W7hZrd4vVu8X63WIFb7GGt1jFW6zjPdbxnru/Yx3vsY73dR1fo0F7zCIetPmc+i0RE9p8Tn0LEBfafE59AxAb2nxOffqRDw0EpRo9WG9IiQaCUqUe7DZkRQNBqV4PFhsSo4GbMdXswVZDbjQQlGr2YKURPdpjDvKjgaD6FSFDGgiqDz9ypIGg+vAjSxoIqg8/86SRpFi3B5uNqdJIUqzeg+XGbGkkKdbwwX5jwjRyV8Y6PlhxzJlGkmIdH2w5tWlq09SmfSJUm/Y+atPUpqlNG4zaNLVpq/4qtWmL56/4vNq0x1Gbdp8XfEtrY3YBccQRRxxxxBFHHHHEEUec3eNsTDogjTTSSCONNNJII4000kizH5pvIzsQRxxxxBFHHHHEEUccccSZf57atI9Rm3bXph33oU1rO9CmtS/Tpp1//ih0VnGTCjqkgo6poFMq6JwKuqSCrqmgWypo8et7lhTrdouVu8Xa3WL1brF+t1jBW6zhLVbxFut4j3W85+7vWMd7rON9Xcef16Yts+a1aSSnfkvz2jSSU98C89o0klPfAPPaNJJTn36gTUNBqUYP1hvQpqGgVKkHuw1o01BQqteDxQa0aehmTDV7sNWANg0FpZo9WGnz2rRlDtCmoaD6FQFtGgqqDz/QpqGg+vADbRoKqg8/0aaxpFi3B5uNaNNYUqzeg+VGtGksKdbwwX4j2jR2V8Y6PlhxRJvGkmIdH2w5tWlq09SmfSJUm/Y+atPUpqlNG4zaNLVpq/4qtWmL56/4vNq0x1Gbdp8XfEtrY3YBccQRRxxxxBFHHHHEEUec3eNsTDogjTTSSCONNNJII4000kizH5pvIzsQRxxxxBFHHHHEEUccccSZf57atI9Rm3bXpp32oU3rO9Cm9S/Tpr396BFrGsk5hHKOoZxTKOccyrmEcq6hnFsoZ/GjexSUanRLVbqlOt1SpW6pVrdUrVuq1y1V7JZqdk81u8fu6lSze6rZfVWzn9ejLaLm7WggpnxD8240EFOe+3kzGogpz/y8Fw3ElOcdWNFITqjH9RoDSjSSE6pyvcOAD43khNpcLzAgQyP3YKjP9fYCJjSSE+pzvbrmNWiLGGBBIznl6wEONJJTHndgQCM55XEH/jOSUx53Yj9DQalG1xuMqM9QUKrU9RIj3jMUlOp1vceI9AzdjKlm16uMGM9QUKrZ9TZTd6buTN3ZJ0J1Z++j7kzdmbqzwag7U3e26q9Sd7Z4/orPqzt7HHVn93nBt6s2ZgUQRxxxxBFHHHHEEUccccTZPc7GZAHSSCONNNJII4000kgjjTT7ofk2kgJxxBFHHHHEEUccccQRR5z556k7+xh1Z3fd2XkfurPDDnRnhy/Unb2dQr4zEHRIBR1TQadU0DkVdEkFXVNBt1TQLz+3J0mxbrdYuVus3S1W7xbrd4sVvMUa3mIVb7GO91jHe+7+jnW8xzre13V8jQbtMYt40OZz6rdETGjzOfUtQFxo8zn1DUBsaPM59elHPjQQlGr0YL0hJRoISpV6sNuQFQ0EpXo9WGxIjAZuxlSzB1sNudFAUKrZg5VG9GiPOciPBoLqV4QMaSCoPvzIkQaC6sOPLGkgqD78zJNGkmLdHmw2pkojSbF6D5Ybs6WRpFjDB/uNCdPIXRnr+GDFMWcaSYp1fLDl1KapTVOb9olQbdr7qE1Tm6Y2bTBq09Smrfqr1KYtnr/i82rTHkdt2n1e8C2tjdkFxBFHHHHEEUccccQRRxxxdo+zMemANNJII4000kgjjTTSSCPNfmi+jexAHHHEEUccccQRRxxxxBFn/nlq0z5Gbdpdm3bZhzbtuANt2vHLtGnnnz8KnVXcpIIOqaBjKuiUCjqngi6poGsq6JYKWvz6niXFut1i5W6xdrdYvVus3y1W8BZreItVvMU63mMd77n7O9bxHut4X9fx57Vpy6x5bRrJqd/SvDaN5NS3wLw2jeTUN8C8No3k1KcfaNNQUKrRg/UGtGkoKFXqwW4D2jQUlOr1YLEBbRq6GVPNHmw1oE1DQalmD1bavDZtmQO0aSiofkVAm4aC6sMPtGkoqD78QJuGgurDT7RpLCnW7cFmI9o0lhSr92C5EW0aS4o1fLDfiDaN3ZWxjg9WHNGmsaRYxwdbTm2a2jS1aZ8I1aa9j9o0tWlq0wajNk1t2qq/Sm3a4vkrPq827XHUpt3nBd/S2phdQBxxxBFHHHHEEUccccQRZ/c4G5MOSCONNNJII4000kgjjTTS7Ifm28gOxBFHHHHEEUccccQRRxxx5p+nNu1j1KbdtWnXfWjTTjvQpp2+TJv29qNHrGkk5xDKOYZyTqGccyjnEsq5hnJuoZzFj+5RUKrRLVXplup0S5W6pVrdUrVuqV63VLFbqtk91eweu6tTze6pZvdVzX5ej7aImrejgZjyDc270UBMee7nzWggpjzz8140EFOed2BFIzmhHtdrDCjRSE6oyvUOAz40khNqc73AgAyN3IOhPtfbC5jQSE6oz/XqmtegLWKABY3klK8HONBITnncgQGN5JTHHfjPSE553In9DAWlGl1vMKI+Q0GpUtdLjHjPUFCq1/UeI9IzdDOmml2vMmI8Q0GpZtfbTN2ZujN1Z58I1Z29j7ozdWfqzgaj7kzd2aq/St3Z4vkrPq/u7HHUnd3nBd+u2pgVQBxxxBFHHHHEEUccccQRZ/c4G5MFSCONNNJII4000kgjjTTS7Ifm20gKxBFHHHHEEUccccQRRxxx5p+n7uxj1J3ddWe3fejOzjvQnZ2/UHf2dgr5zkDQIRV0TAWdUkHnVNAlFXRNBd1SQb/83J4kxbrdYuVusXa3WL1brN8tVvAWa3iLVbzFOt5jHe+5+zvW8R7reF/X8TUatMcs4kGbz6nfEjGhzefUtwBxoc3n1DcAsaHN59SnH/nQQFCq0YP1hpRoIChV6sFuQ1Y0EJTq9WCxITEauBlTzR5sNeRGA0GpZg9WGtGjPeYgPxoIql8RMqSBoPrwI0caCKoPP7KkgaD68DNPGkmKdXuw2ZgqjSTF6j1YbsyWRpJiDR/sNyZMI3dlrOODFcecaSQp1vHBllObpjZNbdonQrVp76M2TW2a2rTBqE1Tm7bqr1Kbtnj+is+rTXsctWn3ecG3tDZmFxBHHHHEEUccccQRRxxxxNk9zsakA9JII4000kgjjTTSSCONNPuh+TayA3HEEUccccQRRxxxxBFHnPnnqU37GLVpv2vTLvuwpl12YE27aE2bC9Ka9sdBWtOeStKapjVNa5rWNK1pWtO0pmlN05r2N29GrWl/HKQ17Q+DtKZpTdOapjVNa9pTSVrTRqM17W/PM//3aa1p42itab/ja037dbSmPTNa09Z9Xmua1rRVf5XWtMXzV3xea9rjaE27zwu+pLUxuYA44ogjjjjiiCOOOOKII87ucTbmHJBGGmmkkUYaaaSRRhpppNkPzbdxHYgjjjjiiCOOOOKII4444sw/T2vax2hNu1vT3vahTbvuQJt2/TJt2vnnj0JnFTepoEMq6JgKOqWCzqmgSyromgq6pYIWv75nSbFut1i5W6zdLVbvFut3ixW8xRreYhVvsY73WMd77v6OdbzHOt7Xdfx5bdoya16bRnLqtzSvTSM59S0wr00jOfUNMK9NIzn16QfaNBSUavRgvQFtGgpKlXqw24A2DQWlej1YbECbhm7GVLMHWw1o01BQqtmDlTavTVvmAG0aCqpfEdCmoaD68ANtGgqqDz/QpqGg+vATbRpLinV7sNmINo0lxeo9WG5Em8aSYg0f7DeiTWN3ZazjgxVHtGksKdbxwZZTm6Y2TW3aJ0K1ae+jNk1tmtq0wahNU5u26q9Sm7Z4/orPq017HLVp93nBt7Q2ZhcQRxxxxBFHHHHEEUccccTZPc7GpAPSSCONNNJII4000kgjjTT7ofk2sgNxxBFHHHHEEUccccQRR5z556lN+xi1aXdtWtuHNu22A23a7cu0aW8/esSaRnIOoZxjKOcUyjmHci6hnGso5xbKWfzoHgWlGt1SlW6pTrdUqVuq1S1V65bqdUsVu6Wa3VPN7rG7OtXsnmp2X9Xs5/Voi6h5OxqIKd/QvBsNxJTnft6MBmLKMz/vRQMx5XkHVjSSE+pxvcaAEo3khKpc7zDgQyM5oTbXCwzI0Mg9GOpzvb2ACY3khPpcr655DdoiBljQSE75eoADjeSUxx0Y0EhOedyB/4zklMed2M9QUKrR9QYj6jMUlCp1vcSI9wwFpXpd7zEiPUM3Y6rZ9SojxjMUlGp2vc3Unak7U3f2iVDd2fuoO1N3pu5sMOrO1J2t+qvUnS2ev+Lz6s4eR93ZfV7w7aqNWQHEEUccccQRRxxxxBFHHHF2j7MxWYA00kgjjTTSSCONNNJII81+aL6NpEAcccQRRxxxxBFHHHHEEWf+eerOPkbd2V131nehO2tvb9v3nb1Dfp3w7O0UMp6BoEMq6JgKOqWCzqmgSyromgq6pYJ++cE9SYp1u8XK3WLtbrF6t1i/W6zgLdbwFqt4i3W8xzrec/d3rOM91vG+ruNrRGiPWcSENp9TvyXiQpvPqW8BYkObz6lvAOJDm8+pTz8yooGgVKMH6w1J0UBQqtSD3Ya8aCAo1evBYkNqNHAzppo92GrIjgaCUs0erDQiSHvMQYY0EFS/IuRIA0H14UeWNBBUH37kSQNB9eFnpjSSFOv2YLMxWRpJitV7sNyYL40kxRo+2G9MmUbuyljHByuOWdNIUqzjgy2nOE1xmuK0T4SK095HcZriNMVpg1Gcpjht1V+lOG3x/BWfV5z2OIrT7vOC72ltzC8gjjjiiCOOOOKII4444oize5yNaQekkUYaaaSRRhpppJFGGmn2Q/NtdAfiiCOOOOKII4444ogjjjjzz1Oc9jGK0+7itMNOxGltD+K09mXitPPPn4XOSm5SQYdU0DEVdEoFnVNBl1TQNRV0SwUtfn/PkmLdbrFyt1i7W6zeLdbvFit4izW8xSreYh3vsY733P0d63iPdbyv6/jz4rRl1rw4jeTUb2lenEZy6ltgXpxGcuobYF6cRnLq0w/EaSgo1ejBegPiNBSUKvVgtwFxGgpK9Xqw2IA4Dd2MqWYPthoQp6GgVLMHK21enLbMAeI0FFS/IiBOQ0H14QfiNBRUH34gTkNB9eEn4jSWFOv2YLMRcRpLitV7sNyIOI0lxRo+2G9EnMbuyljHByuOiNNYUqzjgy2nOE1xmuK0T4SK095HcZriNMVpg1Gcpjht1V+lOG3x/BWfV5z2OIrT7vOC72ltzC8gjjjiiCOOOOKII4444oize5yNaQekkUYaaaSRRhpppJFGGmn2Q/NtdAfiiCOOOOKII4444ogjjjjzz1Oc9jGK0+7itONOxGl9D+K0rjhtLkhx2h8HKU57KklxmuI0xWmK0xSnKU5TnKY4TXHa37wZFaf9cZDitD8MUpymOE1xmuK0WJLitOeSFKfVMIrTFKf9OorTfsdXnPbrKE57ZhSnrfu84jTFaav+KsVpi+ev+LzitMdRnHafF3xPa2N+AXHEEUccccQRRxxxxBFHnN3jbEw7II000kgjjTTSSCONNNJIsx+ab6M7EEccccQRRxxxxBFHHHHEmX+e4rSPUZz2uzjtuhNv2mEP3rTDl3nT3n70iDaN5BxCOcdQzimUcw7lXEI511DOLZSz+NU9Cko1uqUq3VKdbqlSt1SrW6rWLdXrlip2SzW7p5rdY3d1qtk91ey+qtnP+9EWUfN6NBBTvqF5ORqIKc/9vBoNxJRnfl6MBmLK8w60aCQn1ON6jQEnGskJVbneYUCIRnJCba4XGLChkXsw1Od6ewEVGskJ9bleXfMetEUM0KCRnPL1AAkaySmPO1CgkZzyuAMBGskpjzvRn6GgVKPrDUbcZygoVep6iRHxGQpK9breY8R6hm7GVLPrVUaUZygo1ex6m+k703em7+wTob6z99F3pu9M39lg9J3pO1v1V+k7Wzx/xef1nT2OvrP7vODrVRvTAogjjjjiiCOOOOKII4444uweZ2O2AGmkkUYaaaSRRhpppJFGmv3QfBtLgTjiiCOOOOKII4444ogjzvzz9J19jL6z331nt534zo578J0dv8x31o5vP94eph0j+rNg7OE1scfXxJ5eE3t+TezlNbHX18TeXhO7+LV/MvdF56y96KC1F5209qKj1l501tqLDlt70WlrLzpu7UXnrb/ovPVX7bUXnbf+ovPWyXl73is3Sp7XzOVSn3278xK6XOqzN9m8oi6X+uwtNi+wy6U+e4MBvV0w9jWn6+l/LgAXXjD2NQfs6X8rAHFeMPY1Z+zpfygAy15wK7zmlD39rwSg5AvGvuaUPf1PhHl/3ygV6PyCsc++WiD7C8Y+e4EBFWAw9tkLDIgCg7HPXmBEI5jMfdE5e/pfCsQ5mMx90VF7+h8LRFCYzH3RaXv63wvEZpjcEy86b0//k4GoD5O5LzpvT/+rQU+inkQ9iZ8I9SS+j55EPYl6EgejJ1FP4qq/Sk/i4vkrPq8n8XH0JN7nBV/L3JhORBxxxBFHHHHEEUccccQRZ/c4G7OMSCONNNJII4000kgjjTTS7Ifm29hNxBFHHHHEEUccccQRRxxx5p/338GT+P/89o//5be//P2//Ne//PZ3/+O/+5/UJm5Lm/jbX/7bn/7ht7/7f//+vXn/55///F/+7v3/w96/53x8+3c7USie9qBQPH2ZQvF8+3F7mOstYlDMpR5eknp8SerpJannl6ReXpJ6fUnq7SWpC8FBMPY1p6u95ni115yv9poD1l5zwtprjlh7zRlrrzlk7TWnrL/mlPUX7bDXnLL+mlPWwSl7XpU4CJ43JcZCn3yz857EWOiTd9e8JTEW+uS9Ne9IjIU+eWcBQ2Iu9SVn6tl/FgA9Yi71Jcfq2X8TADdiLvUlJ+vZfxAAMWJuB7zkbD37rwFgRcylvuRsPftPgXkl4iAUGBFzqU++VuBDzKU+eWUBG2Iu9ckrC7gQc6lPXlnEhBiMfc3pevZfBESDGIx9zQF79h8FxIEYjH3NGXv23wVEgBjcCq85Zc/+04DYD4Oxrzllz/7rQPWh6kPVh58IVR++j+pD1YeqDwej+lD14aq/SvXh4vkrPq/68HFUH97nBd+03JghRBxxxBFHHHHEEUccccQRZ/c4GxOHSCONNNJII4000kgjjTTS7Ifm2whLxBFHHHHEEUccccQRRxxx5p+n+vBvz7dVH/6b8vD/+O3n//hf//Hf/+m3f/qXf5Mf/t//8J9++w//9a/v/3/+u8tuJIjnPUgQz18mQfz509NZCVMo5xDKOYZyTqGccyjnEsq5hnJuoZyFXQAFpRrdUpVuqU63VKlbqtUtVeuW6nVLFbulmt1Tze6xuzrV7J5qdl/V7OelfYuoeU0fiCnf0LyKD8SU535etwdiyjM/r9QDMeV5B9o8khPqcb3GgAyP5ISqXO8woLgjOaE21wsMiOvIPRjqc729gI6O5IT6XK+uecncIgZo5UhO+XqAOo7klMcd6OFITnncgQKO5JTHnWjeUFCq0fUGI/I2FJQqdb3EiJINBaV6Xe8xIlpDN2Oq2fUqI/o0FJRqdr3NlKLtQormf/Y/+5/9z/5n/7P/2f/sf/Y/+5/9z/5n/7P/2f/sf97Sf/7XH3/+b7/95S9/+g+//V9///5/qGo/3pTiP/wlSvHvoxR/1SjFV4q/YpTi/zpK8X8dpfgrRym+Uvy/OUrxxRFHHHHEEUccccQRRxxxxNmDUlIaaaSRRhpppJFGGmmkkWY/NN9GZSmOOOKII4444ogjjjjiiDP/vP8OUvz/7U//+Ns//fOf/vxP//m3f/5nlfjbUuL/+S//39/97//xP/7pH/702z/9w7/eRfhfq8D/+PQv/+Xx//37//5v//Oe/vG/3P/Hv//zf/jX9//5n/7lH//z//I//P82Mt/h"
               },
               {
                  "name" : "annual_peak_electric_demand",
                  "units" : "kW",
                  "value" : 45.158809999999995
               },
               {
                  "name" : "first_year_capital_cost",
                  "units" : "$",
                  "value" : 0
               },
               {
                  "name" : "annual_utility_cost",
                  "units" : "$",
                  "value" : 18175.669999999998
               },
               {
                  "name" : "total_lifecycle_cost",
                  "units" : "$",
                  "value" : 312988.89000000001
               }
            ],
            "step_warnings" : []
         }
      }
   ],
   "updated_at" : "20170710T183838Z",
   "weather_file" : "USA_CO_Denver.Intl.AP.725650_TMY3.epw"
}
