{
   "completed_at" : "20170710T185829Z",
   "completed_status" : "Success",
   "created_at" : "2017-07-10 18:23:26 +0000",
   "current_step" : 5,
   "description" : "",
   "eplusout_err" : "Program Version,EnergyPlus, Version 8.7.0-78a111df4a, YMD=2017.07.10 18:34,IDD_Version 8.7.0\n   ************* IDF Context for following error/warning message:\n   ************* Note -- lines truncated at 300 characters, if necessary...\n   *************      5 Building,\n   ************* indicated Name=NECB 2011-Outpatient-NECB HDD Method-CAN_SK_North.Battleford.718760_CWEC.epw created: 2017-07-10 18:23:44 +0000\n   ************* Only last 1 lines before error line shown.....\n   *************      6   NECB 2011-Outpatient-NECB HDD Method-CAN_SK_North.Battleford.718760_CWEC.epw created: 2017-07-10 18:23:44 +0000, !- Name\n   ** Warning ** IP: IDF line~6 Alpha Argument length exceeds maximum, will be truncated=  NECB 2011-Outpatient-NECB HDD Method-CAN_SK_North.Battleford.718760_CWEC.epw created: 2017-07-10 18:23:44 +000\n   **   ~~~   ** Will be processed as Alpha=NECB 2011-OUTPATIENT-NECB HDD METHOD-CAN_SK_NORTH.BATTLEFORD.718760_CWEC.EPW CREATED: 2017-07-10 18:23:44 +0000\n   ************* IDF Context for following error/warning message:\n   ************* Note -- lines truncated at 300 characters, if necessary...\n   *************  33802 Schedule:Week:Daily,\n   ************* indicated Name=Schedule:Week:Daily {ef2898c4-6b83-42fc-bd8f-451331ccc322}\n   ************* Only last 10 lines before error line shown.....\n   *************  33803   Schedule:Week:Daily {ef2898c4-6b83-42fc-bd8f-451331ccc322}, !- Name\n   *************  33804   Sp-Floor 3 Physical Therapy 1 Sys-3 Flr-2 Sch-C HPlcmt-south ZN NECB System 3 PSZ Occ Sch Sunday, !- Sunday Schedule:Day Name\n   *************  33805   Sp-Floor 3 Physical Therapy 1 Sys-3 Flr-2 Sch-C HPlcmt-south ZN NECB System 3 PSZ Occ Sch Monday, !- Monday Schedule:Day Name\n   *************  33806   Sp-Floor 3 Physical Therapy 1 Sys-3 Flr-2 Sch-C HPlcmt-south ZN NECB System 3 PSZ Occ Sch Tuesday, !- Tuesday Schedule:Day Name\n   *************  33807   Sp-Floor 3 Physical Therapy 1 Sys-3 Flr-2 Sch-C HPlcmt-south ZN NECB System 3 PSZ Occ Sch Wednesday, !- Wednesday Schedule:Day Name\n   *************  33808   Sp-Floor 3 Physical Therapy 1 Sys-3 Flr-2 Sch-C HPlcmt-south ZN NECB System 3 PSZ Occ Sch Thursday, !- Thursday Schedule:Day Name\n   *************  33809   Sp-Floor 3 Physical Therapy 1 Sys-3 Flr-2 Sch-C HPlcmt-south ZN NECB System 3 PSZ Occ Sch Friday, !- Friday Schedule:Day Name\n   *************  33810   Sp-Floor 3 Physical Therapy 1 Sys-3 Flr-2 Sch-C HPlcmt-south ZN NECB System 3 PSZ Occ Sch Saturday, !- Saturday Schedule:Day Name\n   *************  33811   Sp-Floor 3 Physical Therapy 1 Sys-3 Flr-2 Sch-C HPlcmt-south ZN NECB System 3 PSZ Occ Sch Default, !- Holiday Schedule:Day Name\n   *************  33812   Sp-Floor 3 Physical Therapy 1 Sys-3 Flr-2 Sch-C HPlcmt-south ZN NECB System 3 PSZ Occ Sch Summer Design Day, !- SummerDesignDay Schedule:Day Name\n   ** Warning ** IP: IDF line~33812 Alpha Argument length exceeds maximum, will be truncated=  Sp-Floor 3 Physical Therapy 1 Sys-3 Flr-2 Sch-C HPlcmt-south ZN NECB System 3 PSZ Occ Sch Summer Design Da\n   **   ~~~   ** Will be processed as Alpha=SP-FLOOR 3 PHYSICAL THERAPY 1 SYS-3 FLR-2 SCH-C HPLCMT-SOUTH ZN NECB SYSTEM 3 PSZ OCC SCH SUMMER DESIGN DAY\n   ************* IDF Context for following error/warning message:\n   ************* Note -- lines truncated at 300 characters, if necessary...\n   *************  33802 Schedule:Week:Daily,\n   ************* indicated Name=Schedule:Week:Daily {ef2898c4-6b83-42fc-bd8f-451331ccc322}\n   ************* Only last 10 lines before error line shown.....\n   *************  33804   Sp-Floor 3 Physical Therapy 1 Sys-3 Flr-2 Sch-C HPlcmt-south ZN NECB System 3 PSZ Occ Sch Sunday, !- Sunday Schedule:Day Name\n   *************  33805   Sp-Floor 3 Physical Therapy 1 Sys-3 Flr-2 Sch-C HPlcmt-south ZN NECB System 3 PSZ Occ Sch Monday, !- Monday Schedule:Day Name\n   *************  33806   Sp-Floor 3 Physical Therapy 1 Sys-3 Flr-2 Sch-C HPlcmt-south ZN NECB System 3 PSZ Occ Sch Tuesday, !- Tuesday Schedule:Day Name\n   *************  33807   Sp-Floor 3 Physical Therapy 1 Sys-3 Flr-2 Sch-C HPlcmt-south ZN NECB System 3 PSZ Occ Sch Wednesday, !- Wednesday Schedule:Day Name\n   *************  33808   Sp-Floor 3 Physical Therapy 1 Sys-3 Flr-2 Sch-C HPlcmt-south ZN NECB System 3 PSZ Occ Sch Thursday, !- Thursday Schedule:Day Name\n   *************  33809   Sp-Floor 3 Physical Therapy 1 Sys-3 Flr-2 Sch-C HPlcmt-south ZN NECB System 3 PSZ Occ Sch Friday, !- Friday Schedule:Day Name\n   *************  33810   Sp-Floor 3 Physical Therapy 1 Sys-3 Flr-2 Sch-C HPlcmt-south ZN NECB System 3 PSZ Occ Sch Saturday, !- Saturday Schedule:Day Name\n   *************  33811   Sp-Floor 3 Physical Therapy 1 Sys-3 Flr-2 Sch-C HPlcmt-south ZN NECB System 3 PSZ Occ Sch Default, !- Holiday Schedule:Day Name\n   *************  33812   Sp-Floor 3 Physical Therapy 1 Sys-3 Flr-2 Sch-C HPlcmt-south ZN NECB System 3 PSZ Occ Sch Summer Design Day, !- SummerDesignDay Schedule:Day Name\n   *************  33813   Sp-Floor 3 Physical Therapy 1 Sys-3 Flr-2 Sch-C HPlcmt-south ZN NECB System 3 PSZ Occ Sch Winter Design Day, !- WinterDesignDay Schedule:Day Name\n   ** Warning ** IP: IDF line~33813 Alpha Argument length exceeds maximum, will be truncated=  Sp-Floor 3 Physical Therapy 1 Sys-3 Flr-2 Sch-C HPlcmt-south ZN NECB System 3 PSZ Occ Sch Winter Design Da\n   **   ~~~   ** Will be processed as Alpha=SP-FLOOR 3 PHYSICAL THERAPY 1 SYS-3 FLR-2 SCH-C HPLCMT-SOUTH ZN NECB SYSTEM 3 PSZ OCC SCH WINTER DESIGN DAY\n   ************* IDF Context for following error/warning message:\n   ************* Note -- lines truncated at 300 characters, if necessary...\n   *************  33833 Schedule:Day:Interval,\n   ************* indicated Name=Sp-Floor 3 Physical Therapy 1 Sys-3 Flr-2 Sch-C HPlcmt-south ZN NECB System 3 PSZ Occ Sch Summer Design Day\n   ************* Only last 1 lines before error line shown.....\n   *************  33834   Sp-Floor 3 Physical Therapy 1 Sys-3 Flr-2 Sch-C HPlcmt-south ZN NECB System 3 PSZ Occ Sch Summer Design Day, !- Name\n   ** Warning ** IP: IDF line~33834 Alpha Argument length exceeds maximum, will be truncated=  Sp-Floor 3 Physical Therapy 1 Sys-3 Flr-2 Sch-C HPlcmt-south ZN NECB System 3 PSZ Occ Sch Summer Design Da\n   **   ~~~   ** Will be processed as Alpha=SP-FLOOR 3 PHYSICAL THERAPY 1 SYS-3 FLR-2 SCH-C HPLCMT-SOUTH ZN NECB SYSTEM 3 PSZ OCC SCH SUMMER DESIGN DAY\n   ************* IDF Context for following error/warning message:\n   ************* Note -- lines truncated at 300 characters, if necessary...\n   *************  33840 Schedule:Day:Interval,\n   ************* indicated Name=Sp-Floor 3 Physical Therapy 1 Sys-3 Flr-2 Sch-C HPlcmt-south ZN NECB System 3 PSZ Occ Sch Winter Design Day\n   ************* Only last 1 lines before error line shown.....\n   *************  33841   Sp-Floor 3 Physical Therapy 1 Sys-3 Flr-2 Sch-C HPlcmt-south ZN NECB System 3 PSZ Occ Sch Winter Design Day, !- Name\n   ** Warning ** IP: IDF line~33841 Alpha Argument length exceeds maximum, will be truncated=  Sp-Floor 3 Physical Therapy 1 Sys-3 Flr-2 Sch-C HPlcmt-south ZN NECB System 3 PSZ Occ Sch Winter Design Da\n   **   ~~~   ** Will be processed as Alpha=SP-FLOOR 3 PHYSICAL THERAPY 1 SYS-3 FLR-2 SCH-C HPLCMT-SOUTH ZN NECB SYSTEM 3 PSZ OCC SCH WINTER DESIGN DAY\n   ************* IDF Context for following error/warning message:\n   ************* Note -- lines truncated at 300 characters, if necessary...\n   *************  35760 Schedule:Week:Daily,\n   ************* indicated Name=Schedule:Week:Daily {ed3fe55b-f6f2-422a-ab9e-fa9482f24730}\n   ************* Only last 10 lines before error line shown.....\n   *************  35761   Schedule:Week:Daily {ed3fe55b-f6f2-422a-ab9e-fa9482f24730}, !- Name\n   *************  35762   Sp-Floor 3 Undeveloped 1 Sys-4 Flr-2 Sch-E HPlcmt-south ZN NECB System 4 PSZ Occ Sch Sunday, !- Sunday Schedule:Day Name\n   *************  35763   Sp-Floor 3 Undeveloped 1 Sys-4 Flr-2 Sch-E HPlcmt-south ZN NECB System 4 PSZ Occ Sch Monday, !- Monday Schedule:Day Name\n   *************  35764   Sp-Floor 3 Undeveloped 1 Sys-4 Flr-2 Sch-E HPlcmt-south ZN NECB System 4 PSZ Occ Sch Tuesday, !- Tuesday Schedule:Day Name\n   *************  35765   Sp-Floor 3 Undeveloped 1 Sys-4 Flr-2 Sch-E HPlcmt-south ZN NECB System 4 PSZ Occ Sch Wednesday, !- Wednesday Schedule:Day Name\n   *************  35766   Sp-Floor 3 Undeveloped 1 Sys-4 Flr-2 Sch-E HPlcmt-south ZN NECB System 4 PSZ Occ Sch Thursday, !- Thursday Schedule:Day Name\n   *************  35767   Sp-Floor 3 Undeveloped 1 Sys-4 Flr-2 Sch-E HPlcmt-south ZN NECB System 4 PSZ Occ Sch Friday, !- Friday Schedule:Day Name\n   *************  35768   Sp-Floor 3 Undeveloped 1 Sys-4 Flr-2 Sch-E HPlcmt-south ZN NECB System 4 PSZ Occ Sch Saturday, !- Saturday Schedule:Day Name\n   *************  35769   Sp-Floor 3 Undeveloped 1 Sys-4 Flr-2 Sch-E HPlcmt-south ZN NECB System 4 PSZ Occ Sch Default, !- Holiday Schedule:Day Name\n   *************  35770   Sp-Floor 3 Undeveloped 1 Sys-4 Flr-2 Sch-E HPlcmt-south ZN NECB System 4 PSZ Occ Sch Summer Design Day, !- SummerDesignDay Schedule:Day Name\n   ** Warning ** IP: IDF line~35770 Alpha Argument length exceeds maximum, will be truncated=  Sp-Floor 3 Undeveloped 1 Sys-4 Flr-2 Sch-E HPlcmt-south ZN NECB System 4 PSZ Occ Sch Summer Design Da\n   **   ~~~   ** Will be processed as Alpha=SP-FLOOR 3 UNDEVELOPED 1 SYS-4 FLR-2 SCH-E HPLCMT-SOUTH ZN NECB SYSTEM 4 PSZ OCC SCH SUMMER DESIGN DAY\n   ************* IDF Context for following error/warning message:\n   ************* Note -- lines truncated at 300 characters, if necessary...\n   *************  35760 Schedule:Week:Daily,\n   ************* indicated Name=Schedule:Week:Daily {ed3fe55b-f6f2-422a-ab9e-fa9482f24730}\n   ************* Only last 10 lines before error line shown.....\n   *************  35762   Sp-Floor 3 Undeveloped 1 Sys-4 Flr-2 Sch-E HPlcmt-south ZN NECB System 4 PSZ Occ Sch Sunday, !- Sunday Schedule:Day Name\n   *************  35763   Sp-Floor 3 Undeveloped 1 Sys-4 Flr-2 Sch-E HPlcmt-south ZN NECB System 4 PSZ Occ Sch Monday, !- Monday Schedule:Day Name\n   *************  35764   Sp-Floor 3 Undeveloped 1 Sys-4 Flr-2 Sch-E HPlcmt-south ZN NECB System 4 PSZ Occ Sch Tuesday, !- Tuesday Schedule:Day Name\n   *************  35765   Sp-Floor 3 Undeveloped 1 Sys-4 Flr-2 Sch-E HPlcmt-south ZN NECB System 4 PSZ Occ Sch Wednesday, !- Wednesday Schedule:Day Name\n   *************  35766   Sp-Floor 3 Undeveloped 1 Sys-4 Flr-2 Sch-E HPlcmt-south ZN NECB System 4 PSZ Occ Sch Thursday, !- Thursday Schedule:Day Name\n   *************  35767   Sp-Floor 3 Undeveloped 1 Sys-4 Flr-2 Sch-E HPlcmt-south ZN NECB System 4 PSZ Occ Sch Friday, !- Friday Schedule:Day Name\n   *************  35768   Sp-Floor 3 Undeveloped 1 Sys-4 Flr-2 Sch-E HPlcmt-south ZN NECB System 4 PSZ Occ Sch Saturday, !- Saturday Schedule:Day Name\n   *************  35769   Sp-Floor 3 Undeveloped 1 Sys-4 Flr-2 Sch-E HPlcmt-south ZN NECB System 4 PSZ Occ Sch Default, !- Holiday Schedule:Day Name\n   *************  35770   Sp-Floor 3 Undeveloped 1 Sys-4 Flr-2 Sch-E HPlcmt-south ZN NECB System 4 PSZ Occ Sch Summer Design Day, !- SummerDesignDay Schedule:Day Name\n   *************  35771   Sp-Floor 3 Undeveloped 1 Sys-4 Flr-2 Sch-E HPlcmt-south ZN NECB System 4 PSZ Occ Sch Winter Design Day, !- WinterDesignDay Schedule:Day Name\n   ** Warning ** IP: IDF line~35771 Alpha Argument length exceeds maximum, will be truncated=  Sp-Floor 3 Undeveloped 1 Sys-4 Flr-2 Sch-E HPlcmt-south ZN NECB System 4 PSZ Occ Sch Winter Design Da\n   **   ~~~   ** Will be processed as Alpha=SP-FLOOR 3 UNDEVELOPED 1 SYS-4 FLR-2 SCH-E HPLCMT-SOUTH ZN NECB SYSTEM 4 PSZ OCC SCH WINTER DESIGN DAY\n   ************* IDF Context for following error/warning message:\n   ************* Note -- lines truncated at 300 characters, if necessary...\n   *************  35791 Schedule:Day:Interval,\n   ************* indicated Name=Sp-Floor 3 Undeveloped 1 Sys-4 Flr-2 Sch-E HPlcmt-south ZN NECB System 4 PSZ Occ Sch Summer Design Day\n   ************* Only last 1 lines before error line shown.....\n   *************  35792   Sp-Floor 3 Undeveloped 1 Sys-4 Flr-2 Sch-E HPlcmt-south ZN NECB System 4 PSZ Occ Sch Summer Design Day, !- Name\n   ** Warning ** IP: IDF line~35792 Alpha Argument length exceeds maximum, will be truncated=  Sp-Floor 3 Undeveloped 1 Sys-4 Flr-2 Sch-E HPlcmt-south ZN NECB System 4 PSZ Occ Sch Summer Design Da\n   **   ~~~   ** Will be processed as Alpha=SP-FLOOR 3 UNDEVELOPED 1 SYS-4 FLR-2 SCH-E HPLCMT-SOUTH ZN NECB SYSTEM 4 PSZ OCC SCH SUMMER DESIGN DAY\n   ************* IDF Context for following error/warning message:\n   ************* Note -- lines truncated at 300 characters, if necessary...\n   *************  35798 Schedule:Day:Interval,\n   ************* indicated Name=Sp-Floor 3 Undeveloped 1 Sys-4 Flr-2 Sch-E HPlcmt-south ZN NECB System 4 PSZ Occ Sch Winter Design Day\n   ************* Only last 1 lines before error line shown.....\n   *************  35799   Sp-Floor 3 Undeveloped 1 Sys-4 Flr-2 Sch-E HPlcmt-south ZN NECB System 4 PSZ Occ Sch Winter Design Day, !- Name\n   ** Warning ** IP: IDF line~35799 Alpha Argument length exceeds maximum, will be truncated=  Sp-Floor 3 Undeveloped 1 Sys-4 Flr-2 Sch-E HPlcmt-south ZN NECB System 4 PSZ Occ Sch Winter Design Da\n   **   ~~~   ** Will be processed as Alpha=SP-FLOOR 3 UNDEVELOPED 1 SYS-4 FLR-2 SCH-E HPLCMT-SOUTH ZN NECB SYSTEM 4 PSZ OCC SCH WINTER DESIGN DAY\n   ************* IDF Context for following error/warning message:\n   ************* Note -- lines truncated at 300 characters, if necessary...\n   *************  50507 AirLoopHVAC,\n   ************* indicated Name=Sp-Floor 1 Electrical Room Sys-4 Flr-3 Sch-H HPlcmt-east ZN NECB System 4 PSZ\n   ************* Only last 3 lines before error line shown.....\n   *************  50508   Sp-Floor 1 Electrical Room Sys-4 Flr-3 Sch-H HPlcmt-east ZN NECB System 4 PSZ, !- Name\n   *************  50509   ,                                       !- Controller List Name\n   *************  50510   Sp-Floor 1 Electrical Room Sys-4 Flr-3 Sch-H HPlcmt-east ZN NECB System 4 PSZAvailability Manager List, !- Availability Manager List Name\n   ** Warning ** IP: IDF line~50510 Alpha Argument length exceeds maximum, will be truncated=  Sp-Floor 1 Electrical Room Sys-4 Flr-3 Sch-H HPlcmt-east ZN NECB System 4 PSZAvailability Manager Lis\n   **   ~~~   ** Will be processed as Alpha=SP-FLOOR 1 ELECTRICAL ROOM SYS-4 FLR-3 SCH-H HPLCMT-EAST ZN NECB SYSTEM 4 PSZAVAILABILITY MANAGER LIST\n   ************* IDF Context for following error/warning message:\n   ************* Note -- lines truncated at 300 characters, if necessary...\n   *************  50566 AvailabilityManagerAssignmentList,\n   ************* indicated Name=Sp-Floor 1 Electrical Room Sys-4 Flr-3 Sch-H HPlcmt-east ZN NECB System 4 PSZAvailability Manager List\n   ************* Only last 1 lines before error line shown.....\n   *************  50567   Sp-Floor 1 Electrical Room Sys-4 Flr-3 Sch-H HPlcmt-east ZN NECB System 4 PSZAvailability Manager List, !- Name\n   ** Warning ** IP: IDF line~50567 Alpha Argument length exceeds maximum, will be truncated=  Sp-Floor 1 Electrical Room Sys-4 Flr-3 Sch-H HPlcmt-east ZN NECB System 4 PSZAvailability Manager Lis\n   **   ~~~   ** Will be processed as Alpha=SP-FLOOR 1 ELECTRICAL ROOM SYS-4 FLR-3 SCH-H HPLCMT-EAST ZN NECB SYSTEM 4 PSZAVAILABILITY MANAGER LIST\n   ************* IDF Context for following error/warning message:\n   ************* Note -- lines truncated at 300 characters, if necessary...\n   *************  50833 AirLoopHVAC,\n   ************* indicated Name=Sp-Floor 1 Elevator Pump Room Sys-3 Flr-3 Sch-H HPlcmt-north ZN NECB System 3 PSZ\n   ************* Only last 3 lines before error line shown.....\n   *************  50834   Sp-Floor 1 Elevator Pump Room Sys-3 Flr-3 Sch-H HPlcmt-north ZN NECB System 3 PSZ, !- Name\n   *************  50835   ,                                       !- Controller List Name\n   *************  50836   Sp-Floor 1 Elevator Pump Room Sys-3 Flr-3 Sch-H HPlcmt-north ZN NECB System 3 PSZAvailability Manager List, !- Availability Manager List Name\n   ** Warning ** IP: IDF line~50836 Alpha Argument length exceeds maximum, will be truncated=  Sp-Floor 1 Elevator Pump Room Sys-3 Flr-3 Sch-H HPlcmt-north ZN NECB System 3 PSZAvailability Manager Lis\n   **   ~~~   ** Will be processed as Alpha=SP-FLOOR 1 ELEVATOR PUMP ROOM SYS-3 FLR-3 SCH-H HPLCMT-NORTH ZN NECB SYSTEM 3 PSZAVAILABILITY MANAGER LIST\n   ************* IDF Context for following error/warning message:\n   ************* Note -- lines truncated at 300 characters, if necessary...\n   *************  50833 AirLoopHVAC,\n   ************* indicated Name=Sp-Floor 1 Elevator Pump Room Sys-3 Flr-3 Sch-H HPlcmt-north ZN NECB System 3 PSZ\n   ************* Only last 10 lines before error line shown.....\n   *************  50834   Sp-Floor 1 Elevator Pump Room Sys-3 Flr-3 Sch-H HPlcmt-north ZN NECB System 3 PSZ, !- Name\n   *************  50835   ,                                       !- Controller List Name\n   *************  50836   Sp-Floor 1 Elevator Pump Room Sys-3 Flr-3 Sch-H HPlcmt-north ZN NECB System 3 PSZAvailability Manager List, !- Availability Manager List Name\n   *************  50837   AutoSize,                               !- Design Supply Air Flow Rate {m3/s}\n   *************  50838   Sp-Floor 1 Elevator Pump Room Sys-3 Flr-3 Sch-H HPlcmt-north ZN NECB System 3 PSZ Supply Branches, !- Branch List Name\n   *************  50839   ,                                       !- Connector List Name\n   *************  50840   Node 677,                               !- Supply Side Inlet Node Name\n   *************  50841   Node 680,                               !- Demand Side Outlet Node Name\n   *************  50842   Sp-Floor 1 Elevator Pump Room Sys-3 Flr-3 Sch-H HPlcmt-north ZN NECB System 3 PSZ Demand Inlet Nodes, !- Demand Side Inlet Node Names\n   *************  50843   Sp-Floor 1 Elevator Pump Room Sys-3 Flr-3 Sch-H HPlcmt-north ZN NECB System 3 PSZ Supply Outlet Nodes; !- Supply Side Outlet Node Names\n   ** Warning ** IP: IDF line~50843 Alpha Argument length exceeds maximum, will be truncated=  Sp-Floor 1 Elevator Pump Room Sys-3 Flr-3 Sch-H HPlcmt-north ZN NECB System 3 PSZ Supply Outlet Node\n   **   ~~~   ** Will be processed as Alpha=SP-FLOOR 1 ELEVATOR PUMP ROOM SYS-3 FLR-3 SCH-H HPLCMT-NORTH ZN NECB SYSTEM 3 PSZ SUPPLY OUTLET NODES\n   ************* IDF Context for following error/warning message:\n   ************* Note -- lines truncated at 300 characters, if necessary...\n   *************  50845 NodeList,\n   ************* indicated Name=Sp-Floor 1 Elevator Pump Room Sys-3 Flr-3 Sch-H HPlcmt-north ZN NECB System 3 PSZ Supply Outlet Nodes\n   ************* Only last 1 lines before error line shown.....\n   *************  50846   Sp-Floor 1 Elevator Pump Room Sys-3 Flr-3 Sch-H HPlcmt-north ZN NECB System 3 PSZ Supply Outlet Nodes, !- Name\n   ** Warning ** IP: IDF line~50846 Alpha Argument length exceeds maximum, will be truncated=  Sp-Floor 1 Elevator Pump Room Sys-3 Flr-3 Sch-H HPlcmt-north ZN NECB System 3 PSZ Supply Outlet Node\n   **   ~~~   ** Will be processed as Alpha=SP-FLOOR 1 ELEVATOR PUMP ROOM SYS-3 FLR-3 SCH-H HPLCMT-NORTH ZN NECB SYSTEM 3 PSZ SUPPLY OUTLET NODES\n   ************* IDF Context for following error/warning message:\n   ************* Note -- lines truncated at 300 characters, if necessary...\n   *************  50892 AvailabilityManagerAssignmentList,\n   ************* indicated Name=Sp-Floor 1 Elevator Pump Room Sys-3 Flr-3 Sch-H HPlcmt-north ZN NECB System 3 PSZAvailability Manager List\n   ************* Only last 1 lines before error line shown.....\n   *************  50893   Sp-Floor 1 Elevator Pump Room Sys-3 Flr-3 Sch-H HPlcmt-north ZN NECB System 3 PSZAvailability Manager List, !- Name\n   ** Warning ** IP: IDF line~50893 Alpha Argument length exceeds maximum, will be truncated=  Sp-Floor 1 Elevator Pump Room Sys-3 Flr-3 Sch-H HPlcmt-north ZN NECB System 3 PSZAvailability Manager Lis\n   **   ~~~   ** Will be processed as Alpha=SP-FLOOR 1 ELEVATOR PUMP ROOM SYS-3 FLR-3 SCH-H HPLCMT-NORTH ZN NECB SYSTEM 3 PSZAVAILABILITY MANAGER LIST\n   ************* IDF Context for following error/warning message:\n   ************* Note -- lines truncated at 300 characters, if necessary...\n   *************  50892 AvailabilityManagerAssignmentList,\n   ************* indicated Name=Sp-Floor 1 Elevator Pump Room Sys-3 Flr-3 Sch-H HPlcmt-north ZN NECB System 3 PSZAvailability Manager List\n   ************* Only last 3 lines before error line shown.....\n   *************  50893   Sp-Floor 1 Elevator Pump Room Sys-3 Flr-3 Sch-H HPlcmt-north ZN NECB System 3 PSZAvailability Manager List, !- Name\n   *************  50894   AvailabilityManager:Scheduled,          !- Availability Manager Object Type 1\n   *************  50895   Sp-Floor 1 Elevator Pump Room Sys-3 Flr-3 Sch-H HPlcmt-north ZN NECB System 3 PSZ Availability Manager; !- Availability Manager Name 1\n   ** Warning ** IP: IDF line~50895 Alpha Argument length exceeds maximum, will be truncated=  Sp-Floor 1 Elevator Pump Room Sys-3 Flr-3 Sch-H HPlcmt-north ZN NECB System 3 PSZ Availability Manage\n   **   ~~~   ** Will be processed as Alpha=SP-FLOOR 1 ELEVATOR PUMP ROOM SYS-3 FLR-3 SCH-H HPLCMT-NORTH ZN NECB SYSTEM 3 PSZ AVAILABILITY MANAGER\n   ************* IDF Context for following error/warning message:\n   ************* Note -- lines truncated at 300 characters, if necessary...\n   *************  50897 AvailabilityManager:Scheduled,\n   ************* indicated Name=Sp-Floor 1 Elevator Pump Room Sys-3 Flr-3 Sch-H HPlcmt-north ZN NECB System 3 PSZ Availability Manager\n   ************* Only last 1 lines before error line shown.....\n   *************  50898   Sp-Floor 1 Elevator Pump Room Sys-3 Flr-3 Sch-H HPlcmt-north ZN NECB System 3 PSZ Availability Manager, !- Name\n   ** Warning ** IP: IDF line~50898 Alpha Argument length exceeds maximum, will be truncated=  Sp-Floor 1 Elevator Pump Room Sys-3 Flr-3 Sch-H HPlcmt-north ZN NECB System 3 PSZ Availability Manage\n   **   ~~~   ** Will be processed as Alpha=SP-FLOOR 1 ELEVATOR PUMP ROOM SYS-3 FLR-3 SCH-H HPLCMT-NORTH ZN NECB SYSTEM 3 PSZ AVAILABILITY MANAGER\n   ************* IDF Context for following error/warning message:\n   ************* Note -- lines truncated at 300 characters, if necessary...\n   *************  51137 AirLoopHVAC:SupplyPath,\n   ************* indicated Name=Sp-Floor 1 Elevator Pump Room Sys-3 Flr-3 Sch-H HPlcmt-north ZN NECB System 3 PSZ Node 679 Supply Path\n   ************* Only last 1 lines before error line shown.....\n   *************  51138   Sp-Floor 1 Elevator Pump Room Sys-3 Flr-3 Sch-H HPlcmt-north ZN NECB System 3 PSZ Node 679 Supply Path, !- Name\n   ** Warning ** IP: IDF line~51138 Alpha Argument length exceeds maximum, will be truncated=  Sp-Floor 1 Elevator Pump Room Sys-3 Flr-3 Sch-H HPlcmt-north ZN NECB System 3 PSZ Node 679 Supply Pat\n   **   ~~~   ** Will be processed as Alpha=SP-FLOOR 1 ELEVATOR PUMP ROOM SYS-3 FLR-3 SCH-H HPLCMT-NORTH ZN NECB SYSTEM 3 PSZ NODE 679 SUPPLY PATH\n   ************* IDF Context for following error/warning message:\n   ************* Note -- lines truncated at 300 characters, if necessary...\n   *************  52463 AirLoopHVAC,\n   ************* indicated Name=Sp-Floor 1 Locker Room Hall Sys-4 Flr-3 Sch-H HPlcmt-core ZN NECB System 4 PSZ\n   ************* Only last 3 lines before error line shown.....\n   *************  52464   Sp-Floor 1 Locker Room Hall Sys-4 Flr-3 Sch-H HPlcmt-core ZN NECB System 4 PSZ, !- Name\n   *************  52465   ,                                       !- Controller List Name\n   *************  52466   Sp-Floor 1 Locker Room Hall Sys-4 Flr-3 Sch-H HPlcmt-core ZN NECB System 4 PSZAvailability Manager List, !- Availability Manager List Name\n   ** Warning ** IP: IDF line~52466 Alpha Argument length exceeds maximum, will be truncated=  Sp-Floor 1 Locker Room Hall Sys-4 Flr-3 Sch-H HPlcmt-core ZN NECB System 4 PSZAvailability Manager Lis\n   **   ~~~   ** Will be processed as Alpha=SP-FLOOR 1 LOCKER ROOM HALL SYS-4 FLR-3 SCH-H HPLCMT-CORE ZN NECB SYSTEM 4 PSZAVAILABILITY MANAGER LIST\n   ************* IDF Context for following error/warning message:\n   ************* Note -- lines truncated at 300 characters, if necessary...\n   *************  52522 AvailabilityManagerAssignmentList,\n   ************* indicated Name=Sp-Floor 1 Locker Room Hall Sys-4 Flr-3 Sch-H HPlcmt-core ZN NECB System 4 PSZAvailability Manager List\n   ************* Only last 1 lines before error line shown.....\n   *************  52523   Sp-Floor 1 Locker Room Hall Sys-4 Flr-3 Sch-H HPlcmt-core ZN NECB System 4 PSZAvailability Manager List, !- Name\n   ** Warning ** IP: IDF line~52523 Alpha Argument length exceeds maximum, will be truncated=  Sp-Floor 1 Locker Room Hall Sys-4 Flr-3 Sch-H HPlcmt-core ZN NECB System 4 PSZAvailability Manager Lis\n   **   ~~~   ** Will be processed as Alpha=SP-FLOOR 1 LOCKER ROOM HALL SYS-4 FLR-3 SCH-H HPLCMT-CORE ZN NECB SYSTEM 4 PSZAVAILABILITY MANAGER LIST\n   ************* IDF Context for following error/warning message:\n   ************* Note -- lines truncated at 300 characters, if necessary...\n   *************  53441 AirLoopHVAC,\n   ************* indicated Name=Sp-Floor 1 MRI Control Room Sys-3 Flr-3 Sch-H HPlcmt-north ZN NECB System 3 PSZ\n   ************* Only last 3 lines before error line shown.....\n   *************  53442   Sp-Floor 1 MRI Control Room Sys-3 Flr-3 Sch-H HPlcmt-north ZN NECB System 3 PSZ, !- Name\n   *************  53443   ,                                       !- Controller List Name\n   *************  53444   Sp-Floor 1 MRI Control Room Sys-3 Flr-3 Sch-H HPlcmt-north ZN NECB System 3 PSZAvailability Manager List, !- Availability Manager List Name\n   ** Warning ** IP: IDF line~53444 Alpha Argument length exceeds maximum, will be truncated=  Sp-Floor 1 MRI Control Room Sys-3 Flr-3 Sch-H HPlcmt-north ZN NECB System 3 PSZAvailability Manager Lis\n   **   ~~~   ** Will be processed as Alpha=SP-FLOOR 1 MRI CONTROL ROOM SYS-3 FLR-3 SCH-H HPLCMT-NORTH ZN NECB SYSTEM 3 PSZAVAILABILITY MANAGER LIST\n   ************* IDF Context for following error/warning message:\n   ************* Note -- lines truncated at 300 characters, if necessary...\n   *************  53500 AvailabilityManagerAssignmentList,\n   ************* indicated Name=Sp-Floor 1 MRI Control Room Sys-3 Flr-3 Sch-H HPlcmt-north ZN NECB System 3 PSZAvailability Manager List\n   ************* Only last 1 lines before error line shown.....\n   *************  53501   Sp-Floor 1 MRI Control Room Sys-3 Flr-3 Sch-H HPlcmt-north ZN NECB System 3 PSZAvailability Manager List, !- Name\n   ** Warning ** IP: IDF line~53501 Alpha Argument length exceeds maximum, will be truncated=  Sp-Floor 1 MRI Control Room Sys-3 Flr-3 Sch-H HPlcmt-north ZN NECB System 3 PSZAvailability Manager Lis\n   **   ~~~   ** Will be processed as Alpha=SP-FLOOR 1 MRI CONTROL ROOM SYS-3 FLR-3 SCH-H HPLCMT-NORTH ZN NECB SYSTEM 3 PSZAVAILABILITY MANAGER LIST\n   ************* IDF Context for following error/warning message:\n   ************* Note -- lines truncated at 300 characters, if necessary...\n   *************  56049 AirLoopHVAC,\n   ************* indicated Name=Sp-Floor 1 Operating Room 1 Sys-3 Flr-3 Sch-H HPlcmt-east ZN NECB System 3 PSZ\n   ************* Only last 3 lines before error line shown.....\n   *************  56050   Sp-Floor 1 Operating Room 1 Sys-3 Flr-3 Sch-H HPlcmt-east ZN NECB System 3 PSZ, !- Name\n   *************  56051   ,                                       !- Controller List Name\n   *************  56052   Sp-Floor 1 Operating Room 1 Sys-3 Flr-3 Sch-H HPlcmt-east ZN NECB System 3 PSZAvailability Manager List, !- Availability Manager List Name\n   ** Warning ** IP: IDF line~56052 Alpha Argument length exceeds maximum, will be truncated=  Sp-Floor 1 Operating Room 1 Sys-3 Flr-3 Sch-H HPlcmt-east ZN NECB System 3 PSZAvailability Manager Lis\n   **   ~~~   ** Will be processed as Alpha=SP-FLOOR 1 OPERATING ROOM 1 SYS-3 FLR-3 SCH-H HPLCMT-EAST ZN NECB SYSTEM 3 PSZAVAILABILITY MANAGER LIST\n   ************* IDF Context for following error/warning message:\n   ************* Note -- lines truncated at 300 characters, if necessary...\n   *************  56108 AvailabilityManagerAssignmentList,\n   ************* indicated Name=Sp-Floor 1 Operating Room 1 Sys-3 Flr-3 Sch-H HPlcmt-east ZN NECB System 3 PSZAvailability Manager List\n   ************* Only last 1 lines before error line shown.....\n   *************  56109   Sp-Floor 1 Operating Room 1 Sys-3 Flr-3 Sch-H HPlcmt-east ZN NECB System 3 PSZAvailability Manager List, !- Name\n   ** Warning ** IP: IDF line~56109 Alpha Argument length exceeds maximum, will be truncated=  Sp-Floor 1 Operating Room 1 Sys-3 Flr-3 Sch-H HPlcmt-east ZN NECB System 3 PSZAvailability Manager Lis\n   **   ~~~   ** Will be processed as Alpha=SP-FLOOR 1 OPERATING ROOM 1 SYS-3 FLR-3 SCH-H HPLCMT-EAST ZN NECB SYSTEM 3 PSZAVAILABILITY MANAGER LIST\n   ************* IDF Context for following error/warning message:\n   ************* Note -- lines truncated at 300 characters, if necessary...\n   *************  56375 AirLoopHVAC,\n   ************* indicated Name=Sp-Floor 1 Operating Room 2 Sys-3 Flr-3 Sch-H HPlcmt-east ZN NECB System 3 PSZ\n   ************* Only last 3 lines before error line shown.....\n   *************  56376   Sp-Floor 1 Operating Room 2 Sys-3 Flr-3 Sch-H HPlcmt-east ZN NECB System 3 PSZ, !- Name\n   *************  56377   ,                                       !- Controller List Name\n   *************  56378   Sp-Floor 1 Operating Room 2 Sys-3 Flr-3 Sch-H HPlcmt-east ZN NECB System 3 PSZAvailability Manager List, !- Availability Manager List Name\n   ** Warning ** IP: IDF line~56378 Alpha Argument length exceeds maximum, will be truncated=  Sp-Floor 1 Operating Room 2 Sys-3 Flr-3 Sch-H HPlcmt-east ZN NECB System 3 PSZAvailability Manager Lis\n   **   ~~~   ** Will be processed as Alpha=SP-FLOOR 1 OPERATING ROOM 2 SYS-3 FLR-3 SCH-H HPLCMT-EAST ZN NECB SYSTEM 3 PSZAVAILABILITY MANAGER LIST\n   ************* IDF Context for following error/warning message:\n   ************* Note -- lines truncated at 300 characters, if necessary...\n   *************  56434 AvailabilityManagerAssignmentList,\n   ************* indicated Name=Sp-Floor 1 Operating Room 2 Sys-3 Flr-3 Sch-H HPlcmt-east ZN NECB System 3 PSZAvailability Manager List\n   ************* Only last 1 lines before error line shown.....\n   *************  56435   Sp-Floor 1 Operating Room 2 Sys-3 Flr-3 Sch-H HPlcmt-east ZN NECB System 3 PSZAvailability Manager List, !- Name\n   ** Warning ** IP: IDF line~56435 Alpha Argument length exceeds maximum, will be truncated=  Sp-Floor 1 Operating Room 2 Sys-3 Flr-3 Sch-H HPlcmt-east ZN NECB System 3 PSZAvailability Manager Lis\n   **   ~~~   ** Will be processed as Alpha=SP-FLOOR 1 OPERATING ROOM 2 SYS-3 FLR-3 SCH-H HPLCMT-EAST ZN NECB SYSTEM 3 PSZAVAILABILITY MANAGER LIST\n   ************* IDF Context for following error/warning message:\n   ************* Note -- lines truncated at 300 characters, if necessary...\n   *************  56701 AirLoopHVAC,\n   ************* indicated Name=Sp-Floor 1 Operating Room 3 Sys-3 Flr-3 Sch-H HPlcmt-core ZN NECB System 3 PSZ\n   ************* Only last 3 lines before error line shown.....\n   *************  56702   Sp-Floor 1 Operating Room 3 Sys-3 Flr-3 Sch-H HPlcmt-core ZN NECB System 3 PSZ, !- Name\n   *************  56703   ,                                       !- Controller List Name\n   *************  56704   Sp-Floor 1 Operating Room 3 Sys-3 Flr-3 Sch-H HPlcmt-core ZN NECB System 3 PSZAvailability Manager List, !- Availability Manager List Name\n   ** Warning ** IP: IDF line~56704 Alpha Argument length exceeds maximum, will be truncated=  Sp-Floor 1 Operating Room 3 Sys-3 Flr-3 Sch-H HPlcmt-core ZN NECB System 3 PSZAvailability Manager Lis\n   **   ~~~   ** Will be processed as Alpha=SP-FLOOR 1 OPERATING ROOM 3 SYS-3 FLR-3 SCH-H HPLCMT-CORE ZN NECB SYSTEM 3 PSZAVAILABILITY MANAGER LIST\n   ************* IDF Context for following error/warning message:\n   ************* Note -- lines truncated at 300 characters, if necessary...\n   *************  56760 AvailabilityManagerAssignmentList,\n   ************* indicated Name=Sp-Floor 1 Operating Room 3 Sys-3 Flr-3 Sch-H HPlcmt-core ZN NECB System 3 PSZAvailability Manager List\n   ************* Only last 1 lines before error line shown.....\n   *************  56761   Sp-Floor 1 Operating Room 3 Sys-3 Flr-3 Sch-H HPlcmt-core ZN NECB System 3 PSZAvailability Manager List, !- Name\n   ** Warning ** IP: IDF line~56761 Alpha Argument length exceeds maximum, will be truncated=  Sp-Floor 1 Operating Room 3 Sys-3 Flr-3 Sch-H HPlcmt-core ZN NECB System 3 PSZAvailability Manager Lis\n   **   ~~~   ** Will be processed as Alpha=SP-FLOOR 1 OPERATING ROOM 3 SYS-3 FLR-3 SCH-H HPLCMT-CORE ZN NECB SYSTEM 3 PSZAVAILABILITY MANAGER LIST\n   ************* IDF Context for following error/warning message:\n   ************* Note -- lines truncated at 300 characters, if necessary...\n   *************  58331 AirLoopHVAC,\n   ************* indicated Name=Sp-Floor 1 Procedure Room Sys-3 Flr-3 Sch-H HPlcmt-north ZN NECB System 3 PSZ\n   ************* Only last 3 lines before error line shown.....\n   *************  58332   Sp-Floor 1 Procedure Room Sys-3 Flr-3 Sch-H HPlcmt-north ZN NECB System 3 PSZ, !- Name\n   *************  58333   ,                                       !- Controller List Name\n   *************  58334   Sp-Floor 1 Procedure Room Sys-3 Flr-3 Sch-H HPlcmt-north ZN NECB System 3 PSZAvailability Manager List, !- Availability Manager List Name\n   ** Warning ** IP: IDF line~58334 Alpha Argument length exceeds maximum, will be truncated=  Sp-Floor 1 Procedure Room Sys-3 Flr-3 Sch-H HPlcmt-north ZN NECB System 3 PSZAvailability Manager Lis\n   **   ~~~   ** Will be processed as Alpha=SP-FLOOR 1 PROCEDURE ROOM SYS-3 FLR-3 SCH-H HPLCMT-NORTH ZN NECB SYSTEM 3 PSZAVAILABILITY MANAGER LIST\n   ************* IDF Context for following error/warning message:\n   ************* Note -- lines truncated at 300 characters, if necessary...\n   *************  58390 AvailabilityManagerAssignmentList,\n   ************* indicated Name=Sp-Floor 1 Procedure Room Sys-3 Flr-3 Sch-H HPlcmt-north ZN NECB System 3 PSZAvailability Manager List\n   ************* Only last 1 lines before error line shown.....\n   *************  58391   Sp-Floor 1 Procedure Room Sys-3 Flr-3 Sch-H HPlcmt-north ZN NECB System 3 PSZAvailability Manager List, !- Name\n   ** Warning ** IP: IDF line~58391 Alpha Argument length exceeds maximum, will be truncated=  Sp-Floor 1 Procedure Room Sys-3 Flr-3 Sch-H HPlcmt-north ZN NECB System 3 PSZAvailability Manager Lis\n   **   ~~~   ** Will be processed as Alpha=SP-FLOOR 1 PROCEDURE ROOM SYS-3 FLR-3 SCH-H HPLCMT-NORTH ZN NECB SYSTEM 3 PSZAVAILABILITY MANAGER LIST\n   ************* IDF Context for following error/warning message:\n   ************* Note -- lines truncated at 300 characters, if necessary...\n   *************  58983 AirLoopHVAC,\n   ************* indicated Name=Sp-Floor 1 Recovery Room Sys-3 Flr-3 Sch-H HPlcmt-south ZN NECB System 3 PSZ\n   ************* Only last 3 lines before error line shown.....\n   *************  58984   Sp-Floor 1 Recovery Room Sys-3 Flr-3 Sch-H HPlcmt-south ZN NECB System 3 PSZ, !- Name\n   *************  58985   ,                                       !- Controller List Name\n   *************  58986   Sp-Floor 1 Recovery Room Sys-3 Flr-3 Sch-H HPlcmt-south ZN NECB System 3 PSZAvailability Manager List, !- Availability Manager List Name\n   ** Warning ** IP: IDF line~58986 Alpha Argument length exceeds maximum, will be truncated=  Sp-Floor 1 Recovery Room Sys-3 Flr-3 Sch-H HPlcmt-south ZN NECB System 3 PSZAvailability Manager Lis\n   **   ~~~   ** Will be processed as Alpha=SP-FLOOR 1 RECOVERY ROOM SYS-3 FLR-3 SCH-H HPLCMT-SOUTH ZN NECB SYSTEM 3 PSZAVAILABILITY MANAGER LIST\n   ************* IDF Context for following error/warning message:\n   ************* Note -- lines truncated at 300 characters, if necessary...\n   *************  59042 AvailabilityManagerAssignmentList,\n   ************* indicated Name=Sp-Floor 1 Recovery Room Sys-3 Flr-3 Sch-H HPlcmt-south ZN NECB System 3 PSZAvailability Manager List\n   ************* Only last 1 lines before error line shown.....\n   *************  59043   Sp-Floor 1 Recovery Room Sys-3 Flr-3 Sch-H HPlcmt-south ZN NECB System 3 PSZAvailability Manager List, !- Name\n   ** Warning ** IP: IDF line~59043 Alpha Argument length exceeds maximum, will be truncated=  Sp-Floor 1 Recovery Room Sys-3 Flr-3 Sch-H HPlcmt-south ZN NECB System 3 PSZAvailability Manager Lis\n   **   ~~~   ** Will be processed as Alpha=SP-FLOOR 1 RECOVERY ROOM SYS-3 FLR-3 SCH-H HPLCMT-SOUTH ZN NECB SYSTEM 3 PSZAVAILABILITY MANAGER LIST\n   ************* IDF Context for following error/warning message:\n   ************* Note -- lines truncated at 300 characters, if necessary...\n   *************  61265 AirLoopHVAC,\n   ************* indicated Name=Sp-Floor 1 Sterile Storage Sys-4 Flr-3 Sch-E HPlcmt-core ZN NECB System 4 PSZ\n   ************* Only last 3 lines before error line shown.....\n   *************  61266   Sp-Floor 1 Sterile Storage Sys-4 Flr-3 Sch-E HPlcmt-core ZN NECB System 4 PSZ, !- Name\n   *************  61267   ,                                       !- Controller List Name\n   *************  61268   Sp-Floor 1 Sterile Storage Sys-4 Flr-3 Sch-E HPlcmt-core ZN NECB System 4 PSZAvailability Manager List, !- Availability Manager List Name\n   ** Warning ** IP: IDF line~61268 Alpha Argument length exceeds maximum, will be truncated=  Sp-Floor 1 Sterile Storage Sys-4 Flr-3 Sch-E HPlcmt-core ZN NECB System 4 PSZAvailability Manager Lis\n   **   ~~~   ** Will be processed as Alpha=SP-FLOOR 1 STERILE STORAGE SYS-4 FLR-3 SCH-E HPLCMT-CORE ZN NECB SYSTEM 4 PSZAVAILABILITY MANAGER LIST\n   ************* IDF Context for following error/warning message:\n   ************* Note -- lines truncated at 300 characters, if necessary...\n   *************  61324 AvailabilityManagerAssignmentList,\n   ************* indicated Name=Sp-Floor 1 Sterile Storage Sys-4 Flr-3 Sch-E HPlcmt-core ZN NECB System 4 PSZAvailability Manager List\n   ************* Only last 1 lines before error line shown.....\n   *************  61325   Sp-Floor 1 Sterile Storage Sys-4 Flr-3 Sch-E HPlcmt-core ZN NECB System 4 PSZAvailability Manager List, !- Name\n   ** Warning ** IP: IDF line~61325 Alpha Argument length exceeds maximum, will be truncated=  Sp-Floor 1 Sterile Storage Sys-4 Flr-3 Sch-E HPlcmt-core ZN NECB System 4 PSZAvailability Manager Lis\n   **   ~~~   ** Will be processed as Alpha=SP-FLOOR 1 STERILE STORAGE SYS-4 FLR-3 SCH-E HPLCMT-CORE ZN NECB SYSTEM 4 PSZAVAILABILITY MANAGER LIST\n   ************* IDF Context for following error/warning message:\n   ************* Note -- lines truncated at 300 characters, if necessary...\n   *************  62569 AirLoopHVAC,\n   ************* indicated Name=Sp-Floor 1 Utility Janitor Sys-4 Flr-3 Sch-E HPlcmt-core ZN NECB System 4 PSZ\n   ************* Only last 3 lines before error line shown.....\n   *************  62570   Sp-Floor 1 Utility Janitor Sys-4 Flr-3 Sch-E HPlcmt-core ZN NECB System 4 PSZ, !- Name\n   *************  62571   ,                                       !- Controller List Name\n   *************  62572   Sp-Floor 1 Utility Janitor Sys-4 Flr-3 Sch-E HPlcmt-core ZN NECB System 4 PSZAvailability Manager List, !- Availability Manager List Name\n   ** Warning ** IP: IDF line~62572 Alpha Argument length exceeds maximum, will be truncated=  Sp-Floor 1 Utility Janitor Sys-4 Flr-3 Sch-E HPlcmt-core ZN NECB System 4 PSZAvailability Manager Lis\n   **   ~~~   ** Will be processed as Alpha=SP-FLOOR 1 UTILITY JANITOR SYS-4 FLR-3 SCH-E HPLCMT-CORE ZN NECB SYSTEM 4 PSZAVAILABILITY MANAGER LIST\n   ************* IDF Context for following error/warning message:\n   ************* Note -- lines truncated at 300 characters, if necessary...\n   *************  62628 AvailabilityManagerAssignmentList,\n   ************* indicated Name=Sp-Floor 1 Utility Janitor Sys-4 Flr-3 Sch-E HPlcmt-core ZN NECB System 4 PSZAvailability Manager List\n   ************* Only last 1 lines before error line shown.....\n   *************  62629   Sp-Floor 1 Utility Janitor Sys-4 Flr-3 Sch-E HPlcmt-core ZN NECB System 4 PSZAvailability Manager List, !- Name\n   ** Warning ** IP: IDF line~62629 Alpha Argument length exceeds maximum, will be truncated=  Sp-Floor 1 Utility Janitor Sys-4 Flr-3 Sch-E HPlcmt-core ZN NECB System 4 PSZAvailability Manager Lis\n   **   ~~~   ** Will be processed as Alpha=SP-FLOOR 1 UTILITY JANITOR SYS-4 FLR-3 SCH-E HPLCMT-CORE ZN NECB SYSTEM 4 PSZAVAILABILITY MANAGER LIST\n   ************* IDF Context for following error/warning message:\n   ************* Note -- lines truncated at 300 characters, if necessary...\n   *************  63873 AirLoopHVAC,\n   ************* indicated Name=Sp-Floor 2 Conference Toilet Sys-4 Flr-1 Sch-H HPlcmt-core ZN NECB System 4 PSZ\n   ************* Only last 3 lines before error line shown.....\n   *************  63874   Sp-Floor 2 Conference Toilet Sys-4 Flr-1 Sch-H HPlcmt-core ZN NECB System 4 PSZ, !- Name\n   *************  63875   ,                                       !- Controller List Name\n   *************  63876   Sp-Floor 2 Conference Toilet Sys-4 Flr-1 Sch-H HPlcmt-core ZN NECB System 4 PSZAvailability Manager List, !- Availability Manager List Name\n   ** Warning ** IP: IDF line~63876 Alpha Argument length exceeds maximum, will be truncated=  Sp-Floor 2 Conference Toilet Sys-4 Flr-1 Sch-H HPlcmt-core ZN NECB System 4 PSZAvailability Manager Lis\n   **   ~~~   ** Will be processed as Alpha=SP-FLOOR 2 CONFERENCE TOILET SYS-4 FLR-1 SCH-H HPLCMT-CORE ZN NECB SYSTEM 4 PSZAVAILABILITY MANAGER LIST\n   ************* IDF Context for following error/warning message:\n   ************* Note -- lines truncated at 300 characters, if necessary...\n   *************  63932 AvailabilityManagerAssignmentList,\n   ************* indicated Name=Sp-Floor 2 Conference Toilet Sys-4 Flr-1 Sch-H HPlcmt-core ZN NECB System 4 PSZAvailability Manager List\n   ************* Only last 1 lines before error line shown.....\n   *************  63933   Sp-Floor 2 Conference Toilet Sys-4 Flr-1 Sch-H HPlcmt-core ZN NECB System 4 PSZAvailability Manager List, !- Name\n   ** Warning ** IP: IDF line~63933 Alpha Argument length exceeds maximum, will be truncated=  Sp-Floor 2 Conference Toilet Sys-4 Flr-1 Sch-H HPlcmt-core ZN NECB System 4 PSZAvailability Manager Lis\n   **   ~~~   ** Will be processed as Alpha=SP-FLOOR 2 CONFERENCE TOILET SYS-4 FLR-1 SCH-H HPLCMT-CORE ZN NECB SYSTEM 4 PSZAVAILABILITY MANAGER LIST\n   ************* IDF Context for following error/warning message:\n   ************* Note -- lines truncated at 300 characters, if necessary...\n   *************  64177 AirLoopHVAC:SupplyPath,\n   ************* indicated Name=Sp-Floor 2 Conference Toilet Sys-4 Flr-1 Sch-H HPlcmt-core ZN NECB System 4 PSZ Node 1004 Supply Path\n   ************* Only last 1 lines before error line shown.....\n   *************  64178   Sp-Floor 2 Conference Toilet Sys-4 Flr-1 Sch-H HPlcmt-core ZN NECB System 4 PSZ Node 1004 Supply Path, !- Name\n   ** Warning ** IP: IDF line~64178 Alpha Argument length exceeds maximum, will be truncated=  Sp-Floor 2 Conference Toilet Sys-4 Flr-1 Sch-H HPlcmt-core ZN NECB System 4 PSZ Node 1004 Supply Pat\n   **   ~~~   ** Will be processed as Alpha=SP-FLOOR 2 CONFERENCE TOILET SYS-4 FLR-1 SCH-H HPLCMT-CORE ZN NECB SYSTEM 4 PSZ NODE 1004 SUPPLY PATH\n   ************* IDF Context for following error/warning message:\n   ************* Note -- lines truncated at 300 characters, if necessary...\n   *************  69741 AirLoopHVAC,\n   ************* indicated Name=Sp-Floor 2 Nurse Station 1 Sys-3 Flr-1 Sch-H HPlcmt-core ZN NECB System 3 PSZ\n   ************* Only last 3 lines before error line shown.....\n   *************  69742   Sp-Floor 2 Nurse Station 1 Sys-3 Flr-1 Sch-H HPlcmt-core ZN NECB System 3 PSZ, !- Name\n   *************  69743   ,                                       !- Controller List Name\n   *************  69744   Sp-Floor 2 Nurse Station 1 Sys-3 Flr-1 Sch-H HPlcmt-core ZN NECB System 3 PSZAvailability Manager List, !- Availability Manager List Name\n   ** Warning ** IP: IDF line~69744 Alpha Argument length exceeds maximum, will be truncated=  Sp-Floor 2 Nurse Station 1 Sys-3 Flr-1 Sch-H HPlcmt-core ZN NECB System 3 PSZAvailability Manager Lis\n   **   ~~~   ** Will be processed as Alpha=SP-FLOOR 2 NURSE STATION 1 SYS-3 FLR-1 SCH-H HPLCMT-CORE ZN NECB SYSTEM 3 PSZAVAILABILITY MANAGER LIST\n   ************* IDF Context for following error/warning message:\n   ************* Note -- lines truncated at 300 characters, if necessary...\n   *************  69800 AvailabilityManagerAssignmentList,\n   ************* indicated Name=Sp-Floor 2 Nurse Station 1 Sys-3 Flr-1 Sch-H HPlcmt-core ZN NECB System 3 PSZAvailability Manager List\n   ************* Only last 1 lines before error line shown.....\n   *************  69801   Sp-Floor 2 Nurse Station 1 Sys-3 Flr-1 Sch-H HPlcmt-core ZN NECB System 3 PSZAvailability Manager List, !- Name\n   ** Warning ** IP: IDF line~69801 Alpha Argument length exceeds maximum, will be truncated=  Sp-Floor 2 Nurse Station 1 Sys-3 Flr-1 Sch-H HPlcmt-core ZN NECB System 3 PSZAvailability Manager Lis\n   **   ~~~   ** Will be processed as Alpha=SP-FLOOR 2 NURSE STATION 1 SYS-3 FLR-1 SCH-H HPLCMT-CORE ZN NECB SYSTEM 3 PSZAVAILABILITY MANAGER LIST\n   ************* IDF Context for following error/warning message:\n   ************* Note -- lines truncated at 300 characters, if necessary...\n   *************  70067 AirLoopHVAC,\n   ************* indicated Name=Sp-Floor 2 Nurse Station 2 Sys-3 Flr-1 Sch-H HPlcmt-core ZN NECB System 3 PSZ\n   ************* Only last 3 lines before error line shown.....\n   *************  70068   Sp-Floor 2 Nurse Station 2 Sys-3 Flr-1 Sch-H HPlcmt-core ZN NECB System 3 PSZ, !- Name\n   *************  70069   ,                                       !- Controller List Name\n   *************  70070   Sp-Floor 2 Nurse Station 2 Sys-3 Flr-1 Sch-H HPlcmt-core ZN NECB System 3 PSZAvailability Manager List, !- Availability Manager List Name\n   ** Warning ** IP: IDF line~70070 Alpha Argument length exceeds maximum, will be truncated=  Sp-Floor 2 Nurse Station 2 Sys-3 Flr-1 Sch-H HPlcmt-core ZN NECB System 3 PSZAvailability Manager Lis\n   **   ~~~   ** Will be processed as Alpha=SP-FLOOR 2 NURSE STATION 2 SYS-3 FLR-1 SCH-H HPLCMT-CORE ZN NECB SYSTEM 3 PSZAVAILABILITY MANAGER LIST\n   ************* IDF Context for following error/warning message:\n   ************* Note -- lines truncated at 300 characters, if necessary...\n   *************  70126 AvailabilityManagerAssignmentList,\n   ************* indicated Name=Sp-Floor 2 Nurse Station 2 Sys-3 Flr-1 Sch-H HPlcmt-core ZN NECB System 3 PSZAvailability Manager List\n   ************* Only last 1 lines before error line shown.....\n   *************  70127   Sp-Floor 2 Nurse Station 2 Sys-3 Flr-1 Sch-H HPlcmt-core ZN NECB System 3 PSZAvailability Manager List, !- Name\n   ** Warning ** IP: IDF line~70127 Alpha Argument length exceeds maximum, will be truncated=  Sp-Floor 2 Nurse Station 2 Sys-3 Flr-1 Sch-H HPlcmt-core ZN NECB System 3 PSZAvailability Manager Lis\n   **   ~~~   ** Will be processed as Alpha=SP-FLOOR 2 NURSE STATION 2 SYS-3 FLR-1 SCH-H HPLCMT-CORE ZN NECB SYSTEM 3 PSZAVAILABILITY MANAGER LIST\n   ************* IDF Context for following error/warning message:\n   ************* Note -- lines truncated at 300 characters, if necessary...\n   *************  70393 AirLoopHVAC,\n   ************* indicated Name=Sp-Floor 2 Reception Hall Sys-3 Flr-1 Sch-H HPlcmt-south ZN NECB System 3 PSZ\n   ************* Only last 3 lines before error line shown.....\n   *************  70394   Sp-Floor 2 Reception Hall Sys-3 Flr-1 Sch-H HPlcmt-south ZN NECB System 3 PSZ, !- Name\n   *************  70395   ,                                       !- Controller List Name\n   *************  70396   Sp-Floor 2 Reception Hall Sys-3 Flr-1 Sch-H HPlcmt-south ZN NECB System 3 PSZAvailability Manager List, !- Availability Manager List Name\n   ** Warning ** IP: IDF line~70396 Alpha Argument length exceeds maximum, will be truncated=  Sp-Floor 2 Reception Hall Sys-3 Flr-1 Sch-H HPlcmt-south ZN NECB System 3 PSZAvailability Manager Lis\n   **   ~~~   ** Will be processed as Alpha=SP-FLOOR 2 RECEPTION HALL SYS-3 FLR-1 SCH-H HPLCMT-SOUTH ZN NECB SYSTEM 3 PSZAVAILABILITY MANAGER LIST\n   ************* IDF Context for following error/warning message:\n   ************* Note -- lines truncated at 300 characters, if necessary...\n   *************  70452 AvailabilityManagerAssignmentList,\n   ************* indicated Name=Sp-Floor 2 Reception Hall Sys-3 Flr-1 Sch-H HPlcmt-south ZN NECB System 3 PSZAvailability Manager List\n   ************* Only last 1 lines before error line shown.....\n   *************  70453   Sp-Floor 2 Reception Hall Sys-3 Flr-1 Sch-H HPlcmt-south ZN NECB System 3 PSZAvailability Manager List, !- Name\n   ** Warning ** IP: IDF line~70453 Alpha Argument length exceeds maximum, will be truncated=  Sp-Floor 2 Reception Hall Sys-3 Flr-1 Sch-H HPlcmt-south ZN NECB System 3 PSZAvailability Manager Lis\n   **   ~~~   ** Will be processed as Alpha=SP-FLOOR 2 RECEPTION HALL SYS-3 FLR-1 SCH-H HPLCMT-SOUTH ZN NECB SYSTEM 3 PSZAVAILABILITY MANAGER LIST\n   ************* IDF Context for following error/warning message:\n   ************* Note -- lines truncated at 300 characters, if necessary...\n   *************  71045 AirLoopHVAC,\n   ************* indicated Name=Sp-Floor 2 Reception Toilet Sys-3 Flr-1 Sch-H HPlcmt-core ZN NECB System 3 PSZ\n   ************* Only last 3 lines before error line shown.....\n   *************  71046   Sp-Floor 2 Reception Toilet Sys-3 Flr-1 Sch-H HPlcmt-core ZN NECB System 3 PSZ, !- Name\n   *************  71047   ,                                       !- Controller List Name\n   *************  71048   Sp-Floor 2 Reception Toilet Sys-3 Flr-1 Sch-H HPlcmt-core ZN NECB System 3 PSZAvailability Manager List, !- Availability Manager List Name\n   ** Warning ** IP: IDF line~71048 Alpha Argument length exceeds maximum, will be truncated=  Sp-Floor 2 Reception Toilet Sys-3 Flr-1 Sch-H HPlcmt-core ZN NECB System 3 PSZAvailability Manager Lis\n   **   ~~~   ** Will be processed as Alpha=SP-FLOOR 2 RECEPTION TOILET SYS-3 FLR-1 SCH-H HPLCMT-CORE ZN NECB SYSTEM 3 PSZAVAILABILITY MANAGER LIST\n   ************* IDF Context for following error/warning message:\n   ************* Note -- lines truncated at 300 characters, if necessary...\n   *************  71104 AvailabilityManagerAssignmentList,\n   ************* indicated Name=Sp-Floor 2 Reception Toilet Sys-3 Flr-1 Sch-H HPlcmt-core ZN NECB System 3 PSZAvailability Manager List\n   ************* Only last 1 lines before error line shown.....\n   *************  71105   Sp-Floor 2 Reception Toilet Sys-3 Flr-1 Sch-H HPlcmt-core ZN NECB System 3 PSZAvailability Manager List, !- Name\n   ** Warning ** IP: IDF line~71105 Alpha Argument length exceeds maximum, will be truncated=  Sp-Floor 2 Reception Toilet Sys-3 Flr-1 Sch-H HPlcmt-core ZN NECB System 3 PSZAvailability Manager Lis\n   **   ~~~   ** Will be processed as Alpha=SP-FLOOR 2 RECEPTION TOILET SYS-3 FLR-1 SCH-H HPLCMT-CORE ZN NECB SYSTEM 3 PSZAVAILABILITY MANAGER LIST\n   ************* IDF Context for following error/warning message:\n   ************* Note -- lines truncated at 300 characters, if necessary...\n   *************  73979 AirLoopHVAC,\n   ************* indicated Name=Sp-Floor 3 Lounge Toilet Sys-3 Flr-2 Sch-H HPlcmt-north ZN NECB System 3 PSZ\n   ************* Only last 3 lines before error line shown.....\n   *************  73980   Sp-Floor 3 Lounge Toilet Sys-3 Flr-2 Sch-H HPlcmt-north ZN NECB System 3 PSZ, !- Name\n   *************  73981   ,                                       !- Controller List Name\n   *************  73982   Sp-Floor 3 Lounge Toilet Sys-3 Flr-2 Sch-H HPlcmt-north ZN NECB System 3 PSZAvailability Manager List, !- Availability Manager List Name\n   ** Warning ** IP: IDF line~73982 Alpha Argument length exceeds maximum, will be truncated=  Sp-Floor 3 Lounge Toilet Sys-3 Flr-2 Sch-H HPlcmt-north ZN NECB System 3 PSZAvailability Manager Lis\n   **   ~~~   ** Will be processed as Alpha=SP-FLOOR 3 LOUNGE TOILET SYS-3 FLR-2 SCH-H HPLCMT-NORTH ZN NECB SYSTEM 3 PSZAVAILABILITY MANAGER LIST\n   ************* IDF Context for following error/warning message:\n   ************* Note -- lines truncated at 300 characters, if necessary...\n   *************  74038 AvailabilityManagerAssignmentList,\n   ************* indicated Name=Sp-Floor 3 Lounge Toilet Sys-3 Flr-2 Sch-H HPlcmt-north ZN NECB System 3 PSZAvailability Manager List\n   ************* Only last 1 lines before error line shown.....\n   *************  74039   Sp-Floor 3 Lounge Toilet Sys-3 Flr-2 Sch-H HPlcmt-north ZN NECB System 3 PSZAvailability Manager List, !- Name\n   ** Warning ** IP: IDF line~74039 Alpha Argument length exceeds maximum, will be truncated=  Sp-Floor 3 Lounge Toilet Sys-3 Flr-2 Sch-H HPlcmt-north ZN NECB System 3 PSZAvailability Manager Lis\n   **   ~~~   ** Will be processed as Alpha=SP-FLOOR 3 LOUNGE TOILET SYS-3 FLR-2 SCH-H HPLCMT-NORTH ZN NECB SYSTEM 3 PSZAVAILABILITY MANAGER LIST\n   ************* IDF Context for following error/warning message:\n   ************* Note -- lines truncated at 300 characters, if necessary...\n   *************  74305 AirLoopHVAC,\n   ************* indicated Name=Sp-Floor 3 Mechanical Hall Sys-3 Flr-2 Sch-H HPlcmt-core ZN NECB System 3 PSZ\n   ************* Only last 3 lines before error line shown.....\n   *************  74306   Sp-Floor 3 Mechanical Hall Sys-3 Flr-2 Sch-H HPlcmt-core ZN NECB System 3 PSZ, !- Name\n   *************  74307   ,                                       !- Controller List Name\n   *************  74308   Sp-Floor 3 Mechanical Hall Sys-3 Flr-2 Sch-H HPlcmt-core ZN NECB System 3 PSZAvailability Manager List, !- Availability Manager List Name\n   ** Warning ** IP: IDF line~74308 Alpha Argument length exceeds maximum, will be truncated=  Sp-Floor 3 Mechanical Hall Sys-3 Flr-2 Sch-H HPlcmt-core ZN NECB System 3 PSZAvailability Manager Lis\n   **   ~~~   ** Will be processed as Alpha=SP-FLOOR 3 MECHANICAL HALL SYS-3 FLR-2 SCH-H HPLCMT-CORE ZN NECB SYSTEM 3 PSZAVAILABILITY MANAGER LIST\n   ************* IDF Context for following error/warning message:\n   ************* Note -- lines truncated at 300 characters, if necessary...\n   *************  74364 AvailabilityManagerAssignmentList,\n   ************* indicated Name=Sp-Floor 3 Mechanical Hall Sys-3 Flr-2 Sch-H HPlcmt-core ZN NECB System 3 PSZAvailability Manager List\n   ************* Only last 1 lines before error line shown.....\n   *************  74365   Sp-Floor 3 Mechanical Hall Sys-3 Flr-2 Sch-H HPlcmt-core ZN NECB System 3 PSZAvailability Manager List, !- Name\n   ** Warning ** IP: IDF line~74365 Alpha Argument length exceeds maximum, will be truncated=  Sp-Floor 3 Mechanical Hall Sys-3 Flr-2 Sch-H HPlcmt-core ZN NECB System 3 PSZAvailability Manager Lis\n   **   ~~~   ** Will be processed as Alpha=SP-FLOOR 3 MECHANICAL HALL SYS-3 FLR-2 SCH-H HPLCMT-CORE ZN NECB SYSTEM 3 PSZAVAILABILITY MANAGER LIST\n   ************* IDF Context for following error/warning message:\n   ************* Note -- lines truncated at 300 characters, if necessary...\n   *************  75283 AirLoopHVAC,\n   ************* indicated Name=Sp-Floor 3 Physical Therapy 1 Sys-3 Flr-2 Sch-C HPlcmt-south ZN NECB System 3 PSZ\n   ************* Only last 3 lines before error line shown.....\n   *************  75284   Sp-Floor 3 Physical Therapy 1 Sys-3 Flr-2 Sch-C HPlcmt-south ZN NECB System 3 PSZ, !- Name\n   *************  75285   ,                                       !- Controller List Name\n   *************  75286   Sp-Floor 3 Physical Therapy 1 Sys-3 Flr-2 Sch-C HPlcmt-south ZN NECB System 3 PSZAvailability Manager List, !- Availability Manager List Name\n   ** Warning ** IP: IDF line~75286 Alpha Argument length exceeds maximum, will be truncated=  Sp-Floor 3 Physical Therapy 1 Sys-3 Flr-2 Sch-C HPlcmt-south ZN NECB System 3 PSZAvailability Manager Lis\n   **   ~~~   ** Will be processed as Alpha=SP-FLOOR 3 PHYSICAL THERAPY 1 SYS-3 FLR-2 SCH-C HPLCMT-SOUTH ZN NECB SYSTEM 3 PSZAVAILABILITY MANAGER LIST\n   ************* IDF Context for following error/warning message:\n   ************* Note -- lines truncated at 300 characters, if necessary...\n   *************  75283 AirLoopHVAC,\n   ************* indicated Name=Sp-Floor 3 Physical Therapy 1 Sys-3 Flr-2 Sch-C HPlcmt-south ZN NECB System 3 PSZ\n   ************* Only last 10 lines before error line shown.....\n   *************  75284   Sp-Floor 3 Physical Therapy 1 Sys-3 Flr-2 Sch-C HPlcmt-south ZN NECB System 3 PSZ, !- Name\n   *************  75285   ,                                       !- Controller List Name\n   *************  75286   Sp-Floor 3 Physical Therapy 1 Sys-3 Flr-2 Sch-C HPlcmt-south ZN NECB System 3 PSZAvailability Manager List, !- Availability Manager List Name\n   *************  75287   AutoSize,                               !- Design Supply Air Flow Rate {m3/s}\n   *************  75288   Sp-Floor 3 Physical Therapy 1 Sys-3 Flr-2 Sch-C HPlcmt-south ZN NECB System 3 PSZ Supply Branches, !- Branch List Name\n   *************  75289   ,                                       !- Connector List Name\n   *************  75290   Node 430,                               !- Supply Side Inlet Node Name\n   *************  75291   Node 433,                               !- Demand Side Outlet Node Name\n   *************  75292   Sp-Floor 3 Physical Therapy 1 Sys-3 Flr-2 Sch-C HPlcmt-south ZN NECB System 3 PSZ Demand Inlet Nodes, !- Demand Side Inlet Node Names\n   *************  75293   Sp-Floor 3 Physical Therapy 1 Sys-3 Flr-2 Sch-C HPlcmt-south ZN NECB System 3 PSZ Supply Outlet Nodes; !- Supply Side Outlet Node Names\n   ** Warning ** IP: IDF line~75293 Alpha Argument length exceeds maximum, will be truncated=  Sp-Floor 3 Physical Therapy 1 Sys-3 Flr-2 Sch-C HPlcmt-south ZN NECB System 3 PSZ Supply Outlet Node\n   **   ~~~   ** Will be processed as Alpha=SP-FLOOR 3 PHYSICAL THERAPY 1 SYS-3 FLR-2 SCH-C HPLCMT-SOUTH ZN NECB SYSTEM 3 PSZ SUPPLY OUTLET NODES\n   ************* IDF Context for following error/warning message:\n   ************* Note -- lines truncated at 300 characters, if necessary...\n   *************  75295 NodeList,\n   ************* indicated Name=Sp-Floor 3 Physical Therapy 1 Sys-3 Flr-2 Sch-C HPlcmt-south ZN NECB System 3 PSZ Supply Outlet Nodes\n   ************* Only last 1 lines before error line shown.....\n   *************  75296   Sp-Floor 3 Physical Therapy 1 Sys-3 Flr-2 Sch-C HPlcmt-south ZN NECB System 3 PSZ Supply Outlet Nodes, !- Name\n   ** Warning ** IP: IDF line~75296 Alpha Argument length exceeds maximum, will be truncated=  Sp-Floor 3 Physical Therapy 1 Sys-3 Flr-2 Sch-C HPlcmt-south ZN NECB System 3 PSZ Supply Outlet Node\n   **   ~~~   ** Will be processed as Alpha=SP-FLOOR 3 PHYSICAL THERAPY 1 SYS-3 FLR-2 SCH-C HPLCMT-SOUTH ZN NECB SYSTEM 3 PSZ SUPPLY OUTLET NODES\n   ************* IDF Context for following error/warning message:\n   ************* Note -- lines truncated at 300 characters, if necessary...\n   *************  75342 AvailabilityManagerAssignmentList,\n   ************* indicated Name=Sp-Floor 3 Physical Therapy 1 Sys-3 Flr-2 Sch-C HPlcmt-south ZN NECB System 3 PSZAvailability Manager List\n   ************* Only last 1 lines before error line shown.....\n   *************  75343   Sp-Floor 3 Physical Therapy 1 Sys-3 Flr-2 Sch-C HPlcmt-south ZN NECB System 3 PSZAvailability Manager List, !- Name\n   ** Warning ** IP: IDF line~75343 Alpha Argument length exceeds maximum, will be truncated=  Sp-Floor 3 Physical Therapy 1 Sys-3 Flr-2 Sch-C HPlcmt-south ZN NECB System 3 PSZAvailability Manager Lis\n   **   ~~~   ** Will be processed as Alpha=SP-FLOOR 3 PHYSICAL THERAPY 1 SYS-3 FLR-2 SCH-C HPLCMT-SOUTH ZN NECB SYSTEM 3 PSZAVAILABILITY MANAGER LIST\n   ************* IDF Context for following error/warning message:\n   ************* Note -- lines truncated at 300 characters, if necessary...\n   *************  75591 AirLoopHVAC:SupplyPath,\n   ************* indicated Name=Sp-Floor 3 Physical Therapy 1 Sys-3 Flr-2 Sch-C HPlcmt-south ZN NECB System 3 PSZ Node 432 Supply Path\n   ************* Only last 1 lines before error line shown.....\n   *************  75592   Sp-Floor 3 Physical Therapy 1 Sys-3 Flr-2 Sch-C HPlcmt-south ZN NECB System 3 PSZ Node 432 Supply Path, !- Name\n   ** Warning ** IP: IDF line~75592 Alpha Argument length exceeds maximum, will be truncated=  Sp-Floor 3 Physical Therapy 1 Sys-3 Flr-2 Sch-C HPlcmt-south ZN NECB System 3 PSZ Node 432 Supply Pat\n   **   ~~~   ** Will be processed as Alpha=SP-FLOOR 3 PHYSICAL THERAPY 1 SYS-3 FLR-2 SCH-C HPLCMT-SOUTH ZN NECB SYSTEM 3 PSZ NODE 432 SUPPLY PATH\n   ************* IDF Context for following error/warning message:\n   ************* Note -- lines truncated at 300 characters, if necessary...\n   *************  75613 AirLoopHVAC,\n   ************* indicated Name=Sp-Floor 3 Physical Therapy 2 Sys-3 Flr-2 Sch-C HPlcmt-core ZN NECB System 3 PSZ\n   ************* Only last 3 lines before error line shown.....\n   *************  75614   Sp-Floor 3 Physical Therapy 2 Sys-3 Flr-2 Sch-C HPlcmt-core ZN NECB System 3 PSZ, !- Name\n   *************  75615   ,                                       !- Controller List Name\n   *************  75616   Sp-Floor 3 Physical Therapy 2 Sys-3 Flr-2 Sch-C HPlcmt-core ZN NECB System 3 PSZAvailability Manager List, !- Availability Manager List Name\n   ** Warning ** IP: IDF line~75616 Alpha Argument length exceeds maximum, will be truncated=  Sp-Floor 3 Physical Therapy 2 Sys-3 Flr-2 Sch-C HPlcmt-core ZN NECB System 3 PSZAvailability Manager Lis\n   **   ~~~   ** Will be processed as Alpha=SP-FLOOR 3 PHYSICAL THERAPY 2 SYS-3 FLR-2 SCH-C HPLCMT-CORE ZN NECB SYSTEM 3 PSZAVAILABILITY MANAGER LIST\n   ************* IDF Context for following error/warning message:\n   ************* Note -- lines truncated at 300 characters, if necessary...\n   *************  75672 AvailabilityManagerAssignmentList,\n   ************* indicated Name=Sp-Floor 3 Physical Therapy 2 Sys-3 Flr-2 Sch-C HPlcmt-core ZN NECB System 3 PSZAvailability Manager List\n   ************* Only last 1 lines before error line shown.....\n   *************  75673   Sp-Floor 3 Physical Therapy 2 Sys-3 Flr-2 Sch-C HPlcmt-core ZN NECB System 3 PSZAvailability Manager List, !- Name\n   ** Warning ** IP: IDF line~75673 Alpha Argument length exceeds maximum, will be truncated=  Sp-Floor 3 Physical Therapy 2 Sys-3 Flr-2 Sch-C HPlcmt-core ZN NECB System 3 PSZAvailability Manager Lis\n   **   ~~~   ** Will be processed as Alpha=SP-FLOOR 3 PHYSICAL THERAPY 2 SYS-3 FLR-2 SCH-C HPLCMT-CORE ZN NECB SYSTEM 3 PSZAVAILABILITY MANAGER LIST\n   ************* IDF Context for following error/warning message:\n   ************* Note -- lines truncated at 300 characters, if necessary...\n   *************  75672 AvailabilityManagerAssignmentList,\n   ************* indicated Name=Sp-Floor 3 Physical Therapy 2 Sys-3 Flr-2 Sch-C HPlcmt-core ZN NECB System 3 PSZAvailability Manager List\n   ************* Only last 3 lines before error line shown.....\n   *************  75673   Sp-Floor 3 Physical Therapy 2 Sys-3 Flr-2 Sch-C HPlcmt-core ZN NECB System 3 PSZAvailability Manager List, !- Name\n   *************  75674   AvailabilityManager:Scheduled,          !- Availability Manager Object Type 1\n   *************  75675   Sp-Floor 3 Physical Therapy 2 Sys-3 Flr-2 Sch-C HPlcmt-core ZN NECB System 3 PSZ Availability Manager; !- Availability Manager Name 1\n   ** Warning ** IP: IDF line~75675 Alpha Argument length exceeds maximum, will be truncated=  Sp-Floor 3 Physical Therapy 2 Sys-3 Flr-2 Sch-C HPlcmt-core ZN NECB System 3 PSZ Availability Manage\n   **   ~~~   ** Will be processed as Alpha=SP-FLOOR 3 PHYSICAL THERAPY 2 SYS-3 FLR-2 SCH-C HPLCMT-CORE ZN NECB SYSTEM 3 PSZ AVAILABILITY MANAGER\n   ************* IDF Context for following error/warning message:\n   ************* Note -- lines truncated at 300 characters, if necessary...\n   *************  75677 AvailabilityManager:Scheduled,\n   ************* indicated Name=Sp-Floor 3 Physical Therapy 2 Sys-3 Flr-2 Sch-C HPlcmt-core ZN NECB System 3 PSZ Availability Manager\n   ************* Only last 1 lines before error line shown.....\n   *************  75678   Sp-Floor 3 Physical Therapy 2 Sys-3 Flr-2 Sch-C HPlcmt-core ZN NECB System 3 PSZ Availability Manager, !- Name\n   ** Warning ** IP: IDF line~75678 Alpha Argument length exceeds maximum, will be truncated=  Sp-Floor 3 Physical Therapy 2 Sys-3 Flr-2 Sch-C HPlcmt-core ZN NECB System 3 PSZ Availability Manage\n   **   ~~~   ** Will be processed as Alpha=SP-FLOOR 3 PHYSICAL THERAPY 2 SYS-3 FLR-2 SCH-C HPLCMT-CORE ZN NECB SYSTEM 3 PSZ AVAILABILITY MANAGER\n   ************* IDF Context for following error/warning message:\n   ************* Note -- lines truncated at 300 characters, if necessary...\n   *************  75917 AirLoopHVAC:SupplyPath,\n   ************* indicated Name=Sp-Floor 3 Physical Therapy 2 Sys-3 Flr-2 Sch-C HPlcmt-core ZN NECB System 3 PSZ Node 445 Supply Path\n   ************* Only last 1 lines before error line shown.....\n   *************  75918   Sp-Floor 3 Physical Therapy 2 Sys-3 Flr-2 Sch-C HPlcmt-core ZN NECB System 3 PSZ Node 445 Supply Path, !- Name\n   ** Warning ** IP: IDF line~75918 Alpha Argument length exceeds maximum, will be truncated=  Sp-Floor 3 Physical Therapy 2 Sys-3 Flr-2 Sch-C HPlcmt-core ZN NECB System 3 PSZ Node 445 Supply Pat\n   **   ~~~   ** Will be processed as Alpha=SP-FLOOR 3 PHYSICAL THERAPY 2 SYS-3 FLR-2 SCH-C HPLCMT-CORE ZN NECB SYSTEM 3 PSZ NODE 445 SUPPLY PATH\n   ************* IDF Context for following error/warning message:\n   ************* Note -- lines truncated at 300 characters, if necessary...\n   *************  76917 AirLoopHVAC,\n   ************* indicated Name=Sp-Floor 3 Undeveloped 1 Sys-4 Flr-2 Sch-E HPlcmt-south ZN NECB System 4 PSZ\n   ************* Only last 3 lines before error line shown.....\n   *************  76918   Sp-Floor 3 Undeveloped 1 Sys-4 Flr-2 Sch-E HPlcmt-south ZN NECB System 4 PSZ, !- Name\n   *************  76919   ,                                       !- Controller List Name\n   *************  76920   Sp-Floor 3 Undeveloped 1 Sys-4 Flr-2 Sch-E HPlcmt-south ZN NECB System 4 PSZAvailability Manager List, !- Availability Manager List Name\n   ** Warning ** IP: IDF line~76920 Alpha Argument length exceeds maximum, will be truncated=  Sp-Floor 3 Undeveloped 1 Sys-4 Flr-2 Sch-E HPlcmt-south ZN NECB System 4 PSZAvailability Manager Lis\n   **   ~~~   ** Will be processed as Alpha=SP-FLOOR 3 UNDEVELOPED 1 SYS-4 FLR-2 SCH-E HPLCMT-SOUTH ZN NECB SYSTEM 4 PSZAVAILABILITY MANAGER LIST\n   ************* IDF Context for following error/warning message:\n   ************* Note -- lines truncated at 300 characters, if necessary...\n   *************  76976 AvailabilityManagerAssignmentList,\n   ************* indicated Name=Sp-Floor 3 Undeveloped 1 Sys-4 Flr-2 Sch-E HPlcmt-south ZN NECB System 4 PSZAvailability Manager List\n   ************* Only last 1 lines before error line shown.....\n   *************  76977   Sp-Floor 3 Undeveloped 1 Sys-4 Flr-2 Sch-E HPlcmt-south ZN NECB System 4 PSZAvailability Manager List, !- Name\n   ** Warning ** IP: IDF line~76977 Alpha Argument length exceeds maximum, will be truncated=  Sp-Floor 3 Undeveloped 1 Sys-4 Flr-2 Sch-E HPlcmt-south ZN NECB System 4 PSZAvailability Manager Lis\n   **   ~~~   ** Will be processed as Alpha=SP-FLOOR 3 UNDEVELOPED 1 SYS-4 FLR-2 SCH-E HPLCMT-SOUTH ZN NECB SYSTEM 4 PSZAVAILABILITY MANAGER LIST\n   ************* IDF Context for following error/warning message:\n   ************* Note -- lines truncated at 300 characters, if necessary...\n   *************  77247 AirLoopHVAC,\n   ************* indicated Name=Sp-Floor 3 Undeveloped 2 Sys-4 Flr-2 Sch-E HPlcmt-south ZN NECB System 4 PSZ\n   ************* Only last 3 lines before error line shown.....\n   *************  77248   Sp-Floor 3 Undeveloped 2 Sys-4 Flr-2 Sch-E HPlcmt-south ZN NECB System 4 PSZ, !- Name\n   *************  77249   ,                                       !- Controller List Name\n   *************  77250   Sp-Floor 3 Undeveloped 2 Sys-4 Flr-2 Sch-E HPlcmt-south ZN NECB System 4 PSZAvailability Manager List, !- Availability Manager List Name\n   ** Warning ** IP: IDF line~77250 Alpha Argument length exceeds maximum, will be truncated=  Sp-Floor 3 Undeveloped 2 Sys-4 Flr-2 Sch-E HPlcmt-south ZN NECB System 4 PSZAvailability Manager Lis\n   **   ~~~   ** Will be processed as Alpha=SP-FLOOR 3 UNDEVELOPED 2 SYS-4 FLR-2 SCH-E HPLCMT-SOUTH ZN NECB SYSTEM 4 PSZAVAILABILITY MANAGER LIST\n   ************* IDF Context for following error/warning message:\n   ************* Note -- lines truncated at 300 characters, if necessary...\n   *************  77306 AvailabilityManagerAssignmentList,\n   ************* indicated Name=Sp-Floor 3 Undeveloped 2 Sys-4 Flr-2 Sch-E HPlcmt-south ZN NECB System 4 PSZAvailability Manager List\n   ************* Only last 1 lines before error line shown.....\n   *************  77307   Sp-Floor 3 Undeveloped 2 Sys-4 Flr-2 Sch-E HPlcmt-south ZN NECB System 4 PSZAvailability Manager List, !- Name\n   ** Warning ** IP: IDF line~77307 Alpha Argument length exceeds maximum, will be truncated=  Sp-Floor 3 Undeveloped 2 Sys-4 Flr-2 Sch-E HPlcmt-south ZN NECB System 4 PSZAvailability Manager Lis\n   **   ~~~   ** Will be processed as Alpha=SP-FLOOR 3 UNDEVELOPED 2 SYS-4 FLR-2 SCH-E HPLCMT-SOUTH ZN NECB SYSTEM 4 PSZAVAILABILITY MANAGER LIST\n   ************* Beginning Zone Sizing Calculations\n   ** Warning ** ProcessScheduleInput: Schedule:Day:Interval=\"ECONOMIZER MAX OA FRACTION 100 PCT DEFAULT\", Blank Schedule Type Limits Name input -- will not be validated.\n   ** Warning ** ProcessScheduleInput: Schedule:Day:Interval=\"SCHEDULE DAY 1\", Blank Schedule Type Limits Name input -- will not be validated.\n   ** Warning ** ProcessScheduleInput: Schedule:Day:Interval=\"SCHEDULE DAY 10\", Blank Schedule Type Limits Name input -- will not be validated.\n   ** Warning ** ProcessScheduleInput: Schedule:Day:Interval=\"SCHEDULE DAY 100\", Blank Schedule Type Limits Name input -- will not be validated.\n   ** Warning ** ProcessScheduleInput: Schedule:Day:Interval=\"SCHEDULE DAY 101\", Blank Schedule Type Limits Name input -- will not be validated.\n   ** Warning ** ProcessScheduleInput: Schedule:Day:Interval=\"SCHEDULE DAY 102\", Blank Schedule Type Limits Name input -- will not be validated.\n   ** Warning ** ProcessScheduleInput: Schedule:Day:Interval=\"SCHEDULE DAY 103\", Blank Schedule Type Limits Name input -- will not be validated.\n   ** Warning ** ProcessScheduleInput: Schedule:Day:Interval=\"SCHEDULE DAY 104\", Blank Schedule Type Limits Name input -- will not be validated.\n   ** Warning ** ProcessScheduleInput: Schedule:Day:Interval=\"SCHEDULE DAY 105\", Blank Schedule Type Limits Name input -- will not be validated.\n   ** Warning ** ProcessScheduleInput: Schedule:Day:Interval=\"SCHEDULE DAY 106\", Blank Schedule Type Limits Name input -- will not be validated.\n   ** Warning ** ProcessScheduleInput: Schedule:Day:Interval=\"SCHEDULE DAY 107\", Blank Schedule Type Limits Name input -- will not be validated.\n   ** Warning ** ProcessScheduleInput: Schedule:Day:Interval=\"SCHEDULE DAY 108\", Blank Schedule Type Limits Name input -- will not be validated.\n   ** Warning ** ProcessScheduleInput: Schedule:Day:Interval=\"SCHEDULE DAY 109\", Blank Schedule Type Limits Name input -- will not be validated.\n   ** Warning ** ProcessScheduleInput: Schedule:Day:Interval=\"SCHEDULE DAY 11\", Blank Schedule Type Limits Name input -- will not be validated.\n   ** Warning ** ProcessScheduleInput: Schedule:Day:Interval=\"SCHEDULE DAY 110\", Blank Schedule Type Limits Name input -- will not be validated.\n   ** Warning ** ProcessScheduleInput: Schedule:Day:Interval=\"SCHEDULE DAY 111\", Blank Schedule Type Limits Name input -- will not be validated.\n   ** Warning ** ProcessScheduleInput: Schedule:Day:Interval=\"SCHEDULE DAY 112\", Blank Schedule Type Limits Name input -- will not be validated.\n   ** Warning ** ProcessScheduleInput: Schedule:Day:Interval=\"SCHEDULE DAY 113\", Blank Schedule Type Limits Name input -- will not be validated.\n   ** Warning ** ProcessScheduleInput: Schedule:Day:Interval=\"SCHEDULE DAY 114\", Blank Schedule Type Limits Name input -- will not be validated.\n   ** Warning ** ProcessScheduleInput: Schedule:Day:Interval=\"SCHEDULE DAY 115\", Blank Schedule Type Limits Name input -- will not be validated.\n   ** Warning ** ProcessScheduleInput: Schedule:Day:Interval=\"SCHEDULE DAY 116\", Blank Schedule Type Limits Name input -- will not be validated.\n   ** Warning ** ProcessScheduleInput: Schedule:Day:Interval=\"SCHEDULE DAY 117\", Blank Schedule Type Limits Name input -- will not be validated.\n   ** Warning ** ProcessScheduleInput: Schedule:Day:Interval=\"SCHEDULE DAY 118\", Blank Schedule Type Limits Name input -- will not be validated.\n   ** Warning ** ProcessScheduleInput: Schedule:Day:Interval=\"SCHEDULE DAY 119\", Blank Schedule Type Limits Name input -- will not be validated.\n   ** Warning ** ProcessScheduleInput: Schedule:Day:Interval=\"SCHEDULE DAY 12\", Blank Schedule Type Limits Name input -- will not be validated.\n   ** Warning ** ProcessScheduleInput: Schedule:Day:Interval=\"SCHEDULE DAY 120\", Blank Schedule Type Limits Name input -- will not be validated.\n   ** Warning ** ProcessScheduleInput: Schedule:Day:Interval=\"SCHEDULE DAY 121\", Blank Schedule Type Limits Name input -- will not be validated.\n   ** Warning ** ProcessScheduleInput: Schedule:Day:Interval=\"SCHEDULE DAY 122\", Blank Schedule Type Limits Name input -- will not be validated.\n   ** Warning ** ProcessScheduleInput: Schedule:Day:Interval=\"SCHEDULE DAY 123\", Blank Schedule Type Limits Name input -- will not be validated.\n   ** Warning ** ProcessScheduleInput: Schedule:Day:Interval=\"SCHEDULE DAY 124\", Blank Schedule Type Limits Name input -- will not be validated.\n   ** Warning ** ProcessScheduleInput: Schedule:Day:Interval=\"SCHEDULE DAY 125\", Blank Schedule Type Limits Name input -- will not be validated.\n   ** Warning ** ProcessScheduleInput: Schedule:Day:Interval=\"SCHEDULE DAY 126\", Blank Schedule Type Limits Name input -- will not be validated.\n   ** Warning ** ProcessScheduleInput: Schedule:Day:Interval=\"SCHEDULE DAY 127\", Blank Schedule Type Limits Name input -- will not be validated.\n   ** Warning ** ProcessScheduleInput: Schedule:Day:Interval=\"SCHEDULE DAY 128\", Blank Schedule Type Limits Name input -- will not be validated.\n   ** Warning ** ProcessScheduleInput: Schedule:Day:Interval=\"SCHEDULE DAY 129\", Blank Schedule Type Limits Name input -- will not be validated.\n   ** Warning ** ProcessScheduleInput: Schedule:Day:Interval=\"SCHEDULE DAY 13\", Blank Schedule Type Limits Name input -- will not be validated.\n   ** Warning ** ProcessScheduleInput: Schedule:Day:Interval=\"SCHEDULE DAY 130\", Blank Schedule Type Limits Name input -- will not be validated.\n   ** Warning ** ProcessScheduleInput: Schedule:Day:Interval=\"SCHEDULE DAY 131\", Blank Schedule Type Limits Name input -- will not be validated.\n   ** Warning ** ProcessScheduleInput: Schedule:Day:Interval=\"SCHEDULE DAY 132\", Blank Schedule Type Limits Name input -- will not be validated.\n   ** Warning ** ProcessScheduleInput: Schedule:Day:Interval=\"SCHEDULE DAY 133\", Blank Schedule Type Limits Name input -- will not be validated.\n   ** Warning ** ProcessScheduleInput: Schedule:Day:Interval=\"SCHEDULE DAY 134\", Blank Schedule Type Limits Name input -- will not be validated.\n   ** Warning ** ProcessScheduleInput: Schedule:Day:Interval=\"SCHEDULE DAY 135\", Blank Schedule Type Limits Name input -- will not be validated.\n   ** Warning ** ProcessScheduleInput: Schedule:Day:Interval=\"SCHEDULE DAY 136\", Blank Schedule Type Limits Name input -- will not be validated.\n   ** Warning ** ProcessScheduleInput: Schedule:Day:Interval=\"SCHEDULE DAY 137\", Blank Schedule Type Limits Name input -- will not be validated.\n   ** Warning ** ProcessScheduleInput: Schedule:Day:Interval=\"SCHEDULE DAY 138\", Blank Schedule Type Limits Name input -- will not be validated.\n   ** Warning ** ProcessScheduleInput: Schedule:Day:Interval=\"SCHEDULE DAY 139\", Blank Schedule Type Limits Name input -- will not be validated.\n   ** Warning ** ProcessScheduleInput: Schedule:Day:Interval=\"SCHEDULE DAY 14\", Blank Schedule Type Limits Name input -- will not be validated.\n   ** Warning ** ProcessScheduleInput: Schedule:Day:Interval=\"SCHEDULE DAY 140\", Blank Schedule Type Limits Name input -- will not be validated.\n   ** Warning ** ProcessScheduleInput: Schedule:Day:Interval=\"SCHEDULE DAY 141\", Blank Schedule Type Limits Name input -- will not be validated.\n   ** Warning ** ProcessScheduleInput: Schedule:Day:Interval=\"SCHEDULE DAY 142\", Blank Schedule Type Limits Name input -- will not be validated.\n   ** Warning ** ProcessScheduleInput: Schedule:Day:Interval=\"SCHEDULE DAY 143\", Blank Schedule Type Limits Name input -- will not be validated.\n   ** Warning ** ProcessScheduleInput: Schedule:Day:Interval=\"SCHEDULE DAY 144\", Blank Schedule Type Limits Name input -- will not be validated.\n   ** Warning ** ProcessScheduleInput: Schedule:Day:Interval=\"SCHEDULE DAY 145\", Blank Schedule Type Limits Name input -- will not be validated.\n   ** Warning ** ProcessScheduleInput: Schedule:Day:Interval=\"SCHEDULE DAY 146\", Blank Schedule Type Limits Name input -- will not be validated.\n   ** Warning ** ProcessScheduleInput: Schedule:Day:Interval=\"SCHEDULE DAY 147\", Blank Schedule Type Limits Name input -- will not be validated.\n   ** Warning ** ProcessScheduleInput: Schedule:Day:Interval=\"SCHEDULE DAY 148\", Blank Schedule Type Limits Name input -- will not be validated.\n   ** Warning ** ProcessScheduleInput: Schedule:Day:Interval=\"SCHEDULE DAY 149\", Blank Schedule Type Limits Name input -- will not be validated.\n   ** Warning ** ProcessScheduleInput: Schedule:Day:Interval=\"SCHEDULE DAY 15\", Blank Schedule Type Limits Name input -- will not be validated.\n   ** Warning ** ProcessScheduleInput: Schedule:Day:Interval=\"SCHEDULE DAY 150\", Blank Schedule Type Limits Name input -- will not be validated.\n   ** Warning ** ProcessScheduleInput: Schedule:Day:Interval=\"SCHEDULE DAY 151\", Blank Schedule Type Limits Name input -- will not be validated.\n   ** Warning ** ProcessScheduleInput: Schedule:Day:Interval=\"SCHEDULE DAY 152\", Blank Schedule Type Limits Name input -- will not be validated.\n   ** Warning ** ProcessScheduleInput: Schedule:Day:Interval=\"SCHEDULE DAY 153\", Blank Schedule Type Limits Name input -- will not be validated.\n   ** Warning ** ProcessScheduleInput: Schedule:Day:Interval=\"SCHEDULE DAY 154\", Blank Schedule Type Limits Name input -- will not be validated.\n   ** Warning ** ProcessScheduleInput: Schedule:Day:Interval=\"SCHEDULE DAY 155\", Blank Schedule Type Limits Name input -- will not be validated.\n   ** Warning ** ProcessScheduleInput: Schedule:Day:Interval=\"SCHEDULE DAY 156\", Blank Schedule Type Limits Name input -- will not be validated.\n   ** Warning ** ProcessScheduleInput: Schedule:Day:Interval=\"SCHEDULE DAY 157\", Blank Schedule Type Limits
[...]
efX6us74/vz0eP2Mtz+bry6efn56fn7Z6/f+/vrN1cmLo9Pe169nl0cX9X8/4qs3V0/7vc9PL59Wva9evH76rPenv5+++On66dX5ze0P5b//1vvb82d/qN92Pfupjvjqv3tfvHhRv/eDD3M/5t9/dPXi8uTi+v+F7/n9R8cnP7//5fDPxGG3Wb2T40/2XtRn4NntZTs6OZtdfleN+3u9+cX8ZO/45Ori9OjNxydnp7evPf3+9PzFj/++FwPepr79DL3rNxe3f76+nh/9cPTz0dt/mv2T9fr56LLua++T3vHJTxens4Oz2S9f/fxqf+9f3wP5pDc4PJz/nwcPYJ17fHR9dBv8zT/3To++n53ufbx3PHt5dHN63bu4PH95cjrbe/L2le9+3fs4HRw+2fv56PRmtvjfL+r71O2fub31PHv2/Pneb0/WyqlMOX1TzsCUMzTljEw5Y1POxJQzNeWkQ1eQq9HJVenk6nRylTq5Wp1ctU6uXidXsZOr2ZWr2ZXtXu1qduVqdtWq2b2rm59+avyHq9eaaJez4xYx4TVqFxNeoXYx4fVpFxOe+3Yx4alvFxOe+XYx4YlvFxOe93Yx8SBrmWPqcTzGWuaYmhwPsZY5pi7HI6xljqnN8QBrmWPqczy+Wua47sumPsezq2XO+n3+5eTsuv3Y+r7+R+vnhJenZU54eVrmhJenZU543FvmhMe9ZU543FvmhMe9ZU543FvmxPOrbZCr0fEEaxvk6nQ8w9oGuVodT7G2Qa5ex3OsbZCr2fEkaxtku1e7mh0Ps7ZB6zd7+TcZD/6XhqMxd9j4f/Te/qeIDVtUm9+iv/ktBpvfYrj5LUab32K8+S0mm99iuvktGpN9U3ts4XynLRzwtIUTnrZwxNMWznjawiFPWzjlaQvHPG3hnFdbOOfVNub4Fs55tYVzXpWd8wf/g47rPVa9/S8+GraIfxq2LeIfhm2L+Gdh2yK+5dq2iO+4ti3iG65ti/h+a9sivt3atsj8zbVvj/iv/nx7xH8r6Nsj/gtD3x5bOOKZxyrfHls45JnHKt8eWzjmmccq3/yLH6t8e2xjjm9hkGceq3x7lJ3zB/+7Wes9Vr39D2sZtoh/GrYt4h+GbYv4Z2HbIr7l2raI77i2LeIbrm2L+H5r2yL+3SjbFpnHKt8e8WOVb4/4scq3R/xY5dsj/hUt3x7x7yX69oh/ZdG3R/zbjL494l909O2xhXOeeazy7bGNOb6FQZ55rPLtUTbKH/zPk6z3WPX2v19i2CL+adi2iH8Yti3in4Vti/ixyrZF/Fhl2yJ+rLJtET9W2baIb7e2LTKPVb494scq3x7xY5Vvj/ixyrdH/Fjl2yN+rPLtET9W+faIH6t8e8SPVb49tnDOM49Vvj22Mce3MMgzj1W+PcpG+YMW+PUeq95q4g1bxD8N2xbxD8O2RfyzsG0RP1bZtogfq2xbxI9Vti3ixyrbFvHt1rZF5rHKt0f8WOXbI36s8u0RP1b59ogfq3x7xI9Vvj3ixyrfHvFjlW+P+LHKt8cWznnmscq3xzbm+BYGeeaxyrdH2Sh/ULa73mPVWxuvYYv4p2HbIv5h2LaIfxa2LeLHKtsW8WOVbYv4scq2RfxYZdsivt3atsg8Vvn2iB+rfHvEj1W+PeLHKt8e8WOVb4/4scq3R/xY5dsjfqzy7RE/Vvn22MI5zzxW+fbYxhzfwiDPPFb59igb5Q86Ddd7rHorPTRsEf80bFvEPwzbFvHPwrZF/Fhl2yJ+rLJtET9W2baIH6tsW+S8U6YtsrI11x45W5Vrj5zIyrVHznHl2iOnv3LtkXO+ufbI6eBce+RMca49chI51x5bOOeZxyrfHtuY41sY5JnHKt8eD4/yb9cxvC50zr1PemezX+4MsnNx7P7Vz6+ezA2wD6pi75zQV7PrP5zfnB1f7Q8Pn/RSGj7p9ev/VQ3X083+eouxVF0fHz87up69Or988+mvJ1dvncrLz7+GePo24IvL49nllze14njtP1hzvGly/HV2dHVzOXuLUVuaF9d9w9JvXuZlXuZlXuZlXuZlXuZlXuZlXuZlXuZlXuZlXuZlXuZlXuZlXuZlXuZlXuZlXuZlXuZlXuZlXuZlXuZlXuZlXuZlXuZlXuZlXuZlXuZlXuZlXuZlXv4/9fKbg/OfZ5eXJ8ezvx7VX6xNB4fi91Xrr8ZeNb8a+9Xs8mR2tfh67d6Tuy8QX5yeXx+cnpzNHvyK7NX7vqf78Ddrrw7m/+n5i/PTo+uT87NbqL2r69nF0+9nL88vZ3vrffP5L7NXs7Pj5gd6+8/2R4dPev36m8uH9ReZ6/+zdzp7eV2DPRB9F3vw3avZ9fOz6/r63G7x8ubsxZx0/8PePx+IuCOcLf/0Nw9+l7teJy97+9evT64OruY/lfU2qtfKHzq4vX7Pj1683v8f4LZpd/j1V8dv2Re5312cX53UgZ/d/uN1Ps3dqmPeQ3V5/ks7pDusk7PjWX0enqYnLf/03fqh9A++PJmd1n3bX1zTt+fk1eX5zcXsuPe73/X+ZfHPfz347vXR1eL77/UB+3D11TfvffX2ghwcvXr1eb3Hwens7NX1697ve1XvP3p7n56e7vU+br7j6vTkxWz/afrwm8NvP3zwvN37JOeXvf0fbj/K4b/3frjdZlHVxb71P/u32ztO+x9QveoaL/K++eHbgx9nb3qffPLJ24tXljhPXfzYf2j7Ue/W95ezox9L/vBvLf9M2/fX12vx6T6pa12XYdGUucjh4Lujq6uTV2ez42e1IuLqm/mV/LbsUt79oC9url7vl/4sbn+kH7/9eZafpNPTj9f5lAf1O0t3ubq+PP9xtt4+b99butP5xdGLk+s36221eHPxp5pvcbdVacrdjaR5Wyk5Hq1vPvW6O87NG0/vaS+1TWtz3NZn/e3JfKqu9f7fHnqmqNdHH/X+/o+ve//1xT++7H31xZdf//lvf+z95Ys//vlZ70/Pv3y+XsDnt3ft2a9H9SNa7/q8d3V+ed07u/nptgcvenOlyVXv6OrF7cPLydmrNRLvrn2dszKZj570vl//5nI5u765POtdHF1ezT4/PT+63j+qb/kf3v4oV/7Z9/N/ttbFfPgRbWXbxUd4KPi3zZpels+f8+M+P+z7HxzPXh7dnF73Li7Pb+9hsw+e9D7418nk2bPnzz/YsHgGHHDAAQcccMABBxxwwAHn/yZO7+rmp9v/F7h3PKv/Ye/46E1NdDk7hgYaaKCBBhpooIEGGmiggSZP88v8V7Peofn+9GYGDjjggAMOOOCAAw444IADTgnO8r8bmOr/buBXN9F/N7Cf5n/D9umng8F0CimkkEIKKaSQQgoppJBCCimkkHaDtJqTHl1HpIdz0n6/qiYjSCGFFFJIIYUUUkghhRRSSCGFtBuk/Zr088uTgLSazklTGo/7fUghhRRSSCGFFFJIIYUUUkghhbQbpIOa9OvXNxHpZE46vV3DP0AKKaSQQgoppJBCCimkkEIKKaTdIB3WpP85O45Ix3PSzz579mw8hhRSSCGFFFJIIYUUUkghhRRSSLtBOpr/m4mbWUQ6mpM+ezYaQQoppJBCCimkkEIKKaSQQgoppF0hHdekfz2PzILVcE46mVTVcAgppJBCCimkkEIKKaSQQgoppJBujfQO5fjy6Jf9B8N+Pbg+uT6dffX66GJ2cD379Xr/gz+d31xePYzx5v6f/Ozkp9nZ1cn52ensap7wQMRHH/U+PT7uHfXmSb1fTq5f967Of5r1jvsP/Mmrn18dHF1czM6O9/fqvfc+fOAP3K2Do+vry/29X/ee9EaHLf/Qm9s/VK3/h66u35zO3uI9PTp78fr88vbP753OXragXWS8PD+7fvrL7OTV6+s64/vz0+P1M97+bL66ePr56fn5Za/f+8fZ8ezn2en5xey4l3pfvbl6Ouh9fnr5tOp99eL10+e9P/399MVP10+vzm9ufx7//bfe354/+0P9tuvZT71B7+9f/Xfvixcv6vd+8GHuJ/z7j65eXJ5cXP+/8D2//+j45Of3vxz+mTjsNqt3cvzJ3ou6/s9ur9jRydns8rtqPNjrza/jJ3vHJ1cXp0dvPj45O7197en3p+cvfvz3vRjwNvXtZ+hdv7m4/fP1pfzoh6Ofj97+0+yfrNfPR5d1VXuf9I5Pfro4nR2czX756udX+3v/+h7IJ73B4eH8/zx49urc46Pro9vgb/65d3r0/ex07+O949nLo5vT697F5fnLk9PZ3pO3r3z3697H6eDwyd7PR6c3s72Ph8OD/nRl9YdP9l7Ud6zbiNub0LNnz5/v/fZkrdhqM7H9zcQONhM73EzsaDOx483ETjYTO91MbDrcUO6Gzlna0EFLGzppaUNHLW3orKUNHba0odOWNnTc0obOW7Wh81Ztaq5t6LxVGzpvlXLeelc3P/3U+G+Dlzw5XM6OW6Sue33bpa57ddulrntt26Wueydrl7rufaxd6rp3sXap697D2qWuewdrl7r2A0PL2M2crrUfF1rGbuZ8rf2w0DJ2Myds7UeFlrGbOWNrPyi0jN3MKVv7MaFl7IZm2GZO2drPCC1ji0/ZLydn1/Ljwff1O9aPXffStoxd99K2jF330raMXfcG1jJ23RtYy9h1b2AtY9e9gbWMXfcG1jJ27eeEtrkbOmdrPym0zd3QSVv7WaFt7obO2tpPC21zN3Ta1n5eaJu7ofO29hND29xNzbUNnbe1Hxra5rY7b9+u8xcXi7+g7H3SO5v9cvcXI/O/D9m/+vnVk/lfbDz4NyB3f8t5Nbv+w/nN2fHV/vDwSS+l4ZNev/5f1XC9v0X59RZj+Ze3x8fPjq5nr84v33z668nV278lXF6LNf4q9Tbgi8vj2eWXN/Vf2q39B2uON02Ov86Orm4uZ28x6r93XPwM1L8cnv+FVHOrr2aXJ7OrBe7tTosfyMXp+fVB/bdkD2559b7P/TDp1cG8eBfnp0fXJ+dnt1B7V9ezi6ffz16eX8721mvSX2avZmfHzQ/09p/tj25b0K+bUP+lWqr/z+LvXh/8a+m72IPvXs2un59d19fndouXN2cv5qT7H/b+ucZfvtaEs+Wf/ubBs1Gvk5e9/evXJ1e3va7/3Hob1WvlDx3cXr/nRy9e7/8PcNu0O/zF3zEucr+7OL86qQM/u/3H63yau1XHvIfq8vyXdkh3WCdnx7P64D5NT1r+6bv1Q+kffHkyO637tr+4pm/PyavL85v6b9N/97vevyz++a8H370+ulrcT+oD9uHqq2/e++rtBTk4evXq83qPg9PZ2avr173f96ref/T2Pj093et93HzH1enJi9n+0/ThN4fffvjgebv3Sc4ve/s/3H6Uw3/v/XC7zaKqi33rf/Zvn/RS+x9QveoaL/K++eHbgx9nt7e3Tz55e/HKEuepix/7D20/6t36/nJ29GPJH/6t5Z9p+/76ei0+3Sd1resyLJoyH4wH3739xaLZ8fxXi66+mV/Jb8su5d0P+uLm6vV+6c/i9kf68dufZ/lJOj39eJ1PeVC/s3SXq+vL8x9n6+3z9r2lO51fHL04uX6z3laLNxd/qvkWd1uVptzdSJq3lZLj0frmU6+749y88fSe9lLbtDbHbX3W357Mp+pa7//toWeKen30Ue/v//i6919f/OPL3ldffPn1n//2x95fvvjjn5/1/vT8y+frBXx+e9ee/XpUP6L1rs97V+e3D9JnNz/d9uBFb/6IeNU7unpx+/BycvZqjcS7a1/nrEzmoye979e/uVzOrm8uz3oXR5dXs89Pz4+u94/qW/6Htz/KlX/2/fyfrXUxH35EW9l28REeCv7tf+EXQN/5G9vFb3nWfwH7v/L7qOCAAw444IADDjjggAMOOJ3Huf+bLzXR5ewYGmiggQYaaKCBBhpooIEGmjzNvd8JrGnqX/EDBxxwwAEHHHDAAQcccMAB539Ru/j17KeL2eXR9c3lrLf/+YeIF3dLvHhzcXH6pvfpyWWv/kF1xJk47IIzcYgzsbXaAGdi+1iciTgT26sNcCaW5eJMxJmIMxFnIs5EnInvi8WZiDMRZ2LrxwScie1jcSbiTMSZ2PYxAWdiWS7ORJyJOBNxJr7nLy5wJr6HA2cizsQezsT1sHAm4kwsWTgT64UzEWfifOFMzL8TZ+LDAfXCmdgNtQg44IADDjjggAMOOOCAA07ncXbMOAINNNBAAw000EADDTTQQNMdmkdjOgEHHHDAAQcccMABBxxwwCnfD2fi+xfOxLfOxF7qiDVx1AVr4ghrYmu5AdbE9rFYE7EmtpcbYE0sy8WaiDURayLWRKyJWBPfF4s1EWsi1sTWjwlYE9vHYk3Emog1se1jAtbEslysiVgTsSZiTXzPX1xgTXwPB9ZErIk9rInrYWFNxJpYsrAm1gtrItbE+cKamH8n1sSHA+qFNbEbchFwwAEHHHDAAQcccMABB5zO4+yYcwQaaKCBBhpooIEGGmiggaY7NI/GdQIOOOCAAw444IADDjjggFO+H9bE9y+siQtrYtURa+K4C9bE8dasifP/XapnMuX0TTkDU87QlDMy5YxNORNTztSU07AKSEGuRidXpZOr08lV6uRqdXLVOrl6nVzFTq5mV65mV7Z7tavZlavZVatmr2/za0SV6/uEmPAKlQv6hJjw3Jcr+ISY8MyXS/aEmPC8Cxo9JcfU43iMCWY8JcdU5XiGCbI7JcfU5niACf465T5o6nM8vQQlnZJj6nM8usotc40YQSun5ISXRxDHKTnhcRfUcEpOeNwF+ZuSEx53Re8mBbkaHU8wxdgmBblKHQ8xRcImBbl6Hc8xxav2/7d3vk2tG0m4f38/xaxSFUytEZaMzZ8cdosYSHIrZ0nBSVJb1ClKWGNbHCG5JBlwpfjuVyPLLM6hJY3c1i65j16cELfVz08z0z0NltprZUaulU1vZeu0SlvLEdfKpnezrxz9Enlh5CVzYYkd0bqaBduqD1V/5/86wU7H2sl+PpXDna5FbXOdlV/0Tk729g4PGSTszUt0Ny+xt3mJ3uYl+puX2N+8xMHmJQ43L7Gys29Ko4H4thoIcKuBCLcaCHGrgRi3Gghyq4EotxoIc6uBOLcbiHO7iX28gTi3G4hzu16c25mGk1AanWplVbdr2wd9Bgl6Ntgk6Mlgk6Dngk2CTrlsEnTGZZOgEy6bBJ1v2STodMsmUVBW8Wk0EN8FZRWfRgMRXlBW8Wk0EOMFZRWfRgNRXlBW8Wk0EOcFZRWfRhP7eANxXlBW8WnUi/Ou0jiPPELDPqxWVlnW/n63yyBBzwabBD0ZbBL0XLBJ0CmXTYLOuGwSdMJlk6DvgGKToO+NYpMouCGQT4O+o4pPg77Zik+Dvg+LT4O+RYtPg74vkU+DvmWRT4O+m5FPo4EwL7gHkm//ayDOC+6c5NNoIM4L7rfk06i3le8pjU+TGaVxUK2sUt+51PueQYIuq9gk6LKKTYKeCzYJuqxik6DLKjYJuqxik6DzLZsEnW7ZJArKKj4NOt3yadDplk+DTrd8GnRZxadBl1V8GnRZxadBl1V8Gg2EeUFZxbf/NRDnBWUVn0YDcV5QVvFp1NvKe0rjd+lSGvvVyqrT08Fgf59Bgi6r2CTosopNgp4LNgm6rGKToMsqNgm6rGKToPMtmwSdbtkkCsoqPg063fJp0OmWT4NOt3wadFnFp0GXVXwadFnFp0GXVXwaDYR5QVnFt/81EOcFZRWfRgNxXlBW8WnU28r7Wek2k5RGv1pZNRj0+ywSdFnFJkGXVWwS9FywSdBlFZsEXVaxSdBlFZsEnW/ZJOh0yyZRUFbxadDplk+DTrd8GnS65dOgyyo+Dbqs4tOgyyo+Dbqs4tNoIMwLyiq+/a+BOC8oq/g0GojzgrKKT6PeVr6vND6G1G3xdq9aWXVwYNu9HoMEXVaxSdBlFZsEPRdsEnRZxSZBl1VsEnRZxSZR1F2KSaKo7xSTRGGzNS4NOt3yaRQ1suLSKOpxxaVR1P6KS6Oo5xuXRlE7OC6Nok5xXBoNhHlhfzmu/a+BOC/sSsel0UCcF/ay49Io38o/V+nwmjdiFscikI/LDrJZ49hW/DBuZx1gS1vFLrs5xzL5PpwFbtzqddrCsnpt0VU/2b1q7WafUoyXTtSuO3ASOQ6j+cmTFy96Ib9cf4WW0amDi8iV0eVMtSaufKLimK9yfJROPIvkAkN1V87HfcM9uWGGGWaYYYYZZphhhhlmmGGGGWaYYYYZZphhhhlmmGGGGWaYYYYZZphhhhlmmGGGGWaYYYYZZphhhhlmmGGGGWaYYYYZZphh/kuZ52b4IKPIc+VHRz1Ya5mdNZ9XVY/GxquPxl7JyJNx/nit0V4+QDz1w8T0vUCWPiIbv/WcbvmTtbGZffX8NPSdxAuDFMqIEznduZWjMJJGtSeff5ZjGbirF7R4rdXvtEVXPbncUQ8yq38MX44SBVbieunWvBnL5CxI1PikEqNZMMxIW9vijxIXS0L5cvZ16bPc6vBGopVMvNiMs1mpJqSOVyeZ6fidOcNJ6z/Aut6W+OrR8ZQ993szDWNPOTxNX65yNctDuXmDKgof9ZCWWF7gShUPO1Zb8+zlcVf3xJEnfbXeWvmYLuJkHIWzqXTFt9+Kv+WvP5k3EyfOn39XAbb92jp/05oOiOmMx+dKw/RlME4m4oOwxT+FceL7hjhafUfse0PZ2rG2rzuft0vj7asrCSPRuksvpfOduEtl8qWa66rX/p5mHP0JUodaxrm/67vP5hc5F8fHx4vBq+cx85pP+53upS6P20g6X+qc/Kx5ju771XjlV3eslrVaDPlKyRo5mDdOHHvjQLoD1SIivs5G8nO9oVxO9HQWT1p15yKd0qPFfNaPJN8/qnKVpnpnXZU4icIvsprO4r11lcKpM/SSeTWp/M21ryqTWErV9bJMJKtppU54aCcfdSzDeTXxiB1h6XrTCbfqrM/tbFet9P7nsppCHbu74pdfP4l/X/x6Ka4uLj/99K8fxM8XP/w0ED+eXZ5Vc3CeZm355KgSTSShiMMoEcHsPl0HQ5G1NImFEw/T4sULxhU8Lsde+Xm1MzttcVs9uUQymUWBmDpRLM/90Elajkr52+lUvnrtNnut0mCWl2ivZPNLKHP8vNlOLy/1ZxbuWbC3tlw5cmZ+IqZRmOYwudUWW98cHAwGZ2dbG248AxzgAAc4wAEOcIADHOAABzh/TRwRz+7TX4GFK9WLwnXmiiiSLmhAAxrQgAY0oAENaEADGtCAppjmMbs16080t/5MAgc4wAEOcIADHOAABzjAAQ5w6uC8fG+gpb438GpGfW9g18o+YTs52ds7PAQpSEEKUpCCFKQgBSlIQQpSkIIUpO+D1M5InYQi7WSk3a5tH/RBClKQghSkIAUpSEEKUpCCFKQgBen7IO0q0vPII0jtw4zUsvb3u12QghSkIAUpSEEKUpCCFKQgBSlIQfo+SPcU6afJjCI9yEgP06P3PUhBClKQghSkIAUpSEEKUpCCFKQgfR+kPUX6u3Qp0v2M9PR0MNjfBylIQQpSkIIUpCAFKUhBClKQghSk74O0n/1lYiYp0n5GOhj0+yAFKUhBClKQghSkIAUpSEEKUpCC9L2Q7ivSjyHVWdDuZaQHB7bd64EUpCAFKUhBClKQghSkIAUpSEEK0sZIlyhu5Dy2Sp09mYmX+PJq4kylmcinpLX1YziL4nKM+ddnnnr3Moi9MPBlnHkocbG7K05cVzgi8yQevWQi4vBeCrdbcmb8MDad6VQGbstQ2sZ2yQnLw3SSJGoZT0Zb9DuaJ83Tk+zqJ8XJ3JcLvB0nGE7CKD3f8OVIgzb3MQqDZOdReuNJonzchr5b3cdibn47+W0xwJdyIp1EWOJiOBRXw8nWdtE0fdiNh5E3Tf5BvufDrus9vG0mz6Gdpb6E5x4bQ7WGB+llO14goxt7/8AQ2WAcG64XT31nfuQFfmrbufXD4ZfvDBow9bq4BpHMp+n5ajx275wHZ/Fq4ZnqeHAitd7EsXC9+6kvzUA+Xj2MW8Y3b0C2xV6nk/1TGkDKr+skTur4+g/Dd26lbxwZrhw5Mz8R0ygceb402gvLzZNxZJmdtvHg+DOZ/zxUeSY9J00dg8HZmfHcruTHZvLTZfKzx+Snx+Snz+Rnn8nPAZOfQyY/VofLEdeKtriWtMW1pi2uRW1xrWqLa1lbXOva4lrYFtfKtrlWts2Wq7lWts21sm2tlS3i2f39yhdPV9rRIulquCHHSM8NOUJ6bsjx0XNDxr2eGzLq9dyQMa/nhox4PTdkvOu5oTcyTT9M65jexjT9MK1kehPT9MO0luktTNMP02qmNzBNP0zrmd6+NP1w5WWm9UzvXZp+qq/nRy9I9LetW/VSdT/k8Gj6IYdH0w85PJp+yHDX9EOGu6YfMtw1/ZDhrumHDHdNP/T+peuIa0XTO5iuI641Te9huo64VjW9i+k64lrX9D6m64hrZdM7ma4jtlzNtbLpzUzXUfWV/fJJROk3BVPbXGflF73FVwkzSNibl+huXmJv8xK9zUv0Ny+xv3mJg81LHG5eYmVn35RGA/FtNRDgVgMRbjUQ4lYDMW41EORWA1FuNRDmVgNxbjcQ53YT+3gDcW43EOd2vTgv/ULGamXV4hsbGSTo2WCToCeDTYKeCzYJOuWySdAZl02CTrhsEnS+ZZOg0y2bREFZxafRQHwXlFV8Gg1EeEFZxafRQIwXlFV8Gg1EeUFZxafRQJwXlFV8Gk3s4w3EeUFZxadRL85Lv/eqWlm1+GIsBgl6Ntgk6Mlgk6Dngk2CTrlsEnTGZZOgEy6bBH0HFJsEfW8Um0TBDYF8GvQdVXwa9M1WfBr0fVh8GvQtWnwa9H2JfBr0LYt8GvTdjHwaDYR5wT2QfPtfA3FecOckn0YDcV5wvyWfRr2tvPTrRaqVVYvvH2GQoMsqNgm6rGKToOeCTYIuq9gk6LKKTYIuq9gk6HzLJkGnWzaJgrKKT4NOt3wadLrl06DTLZ8GXVbxadBlFZ8GXVbxadBlFZ9GA2FeUFbx7X8NxHlBWcWn0UCcF5RVfBr1tvLSLu7VyqpFm3cGCbqsYpOgyyo2CXou2CTosopNgi6r2CTosopNgs63bBJ0umWTKCir+DTodMunQadbPg063fJp0GUVnwZdVvFp0GUVnwZdVvFpNBDmBWUV3/7XQJwXlFV8Gg3EeUFZxadRbysvbZZbraxadNNlkKDLKjYJuqxik6Dngk2CLqvYJOiyik2CLqvYJOh8yyZBp1s2iYKyik+DTrd8GnS65dOg0y2fBl1W8WnQZRWfBl1W8WnQZRWfRgNhXlBW8e1/DcR5QVnFp9FAnBeUVXwa9bby0p6E1cqqRdNCBgm6rGKToMsqNgl6Ltgk6LKKTYIuq9gk6LKKTaKouxSTRFHfKSaJwmZrXBp0uuXTKGpkxaVR1OOKS6Oo/RWXRlHPNy6NonZwXBpFneK4NBoI88L+clz7XwNxXtiVjkujgTgv7GXHpVG+lX+u0uE1b8csjkUgH5cdZLPGsa34YdzOOsCWtopd9nSOZfJ9OAvcuNXrtIVl9dqiq36ye9XazT6lGC+tql134CRyHEbzkycvXvREfrn+Co2jUwcXkSujy5lqUVz5RMUxX+X4KJ14FskFhuqynI/7hpt2wwwzzDDDDDPMMMMMM8wwwwwzzDDDDDPMMMMMM8wwwwwzzDDDDDPMMMMMM8wwwwwzzDDDDDPMMMMMM8wwwwwzzDDDDDPMMMP8lzLPzfBBRpHnyo+OerDWMjtrPq+qHo2NVx+NvZKRJ+P88VqjvXyAeOqHiel7gSx9RDZ+6znd8idrYzP76vlp6DuJFwYplBEncrpzK0dhJI1qTz7/LMcycFcvaPFaq99pi656crmjHmRW/xi+HCUKrMT10q15M5bJWZCo8UklRrNgmJG2tsUfJS6WhPLl7OvSZ7nV4Y1EK5l4sRlns1JNSB2vTjLT8TtzhpPWf4B1vS3x1aPjKXvu92Yaxp5yeJq+XOVqlody8wZVFD7qIS2xvMCVKh52rLbm2cvjru6JI0/6ar218jFdxMk4CmdT6YpvvxV/y19/Mm8mTpw//64CbPu1df6mNR0Q0xmPz5WG6ctgnEzEB2GLfwrjxPcNcbT6jtj3hrK1Y21fdz5vl8bbV1cSRqJ1l15K5ztxl8rkSzXXVa/9Pc04+hOkDrWMc3/Xd5/NL3Iujo+PF4NXz2PmNZ/2O91LXR63kXS+1Dn5WfMc3fer8cqv7lgta7UY8pWSNXIwb5w49saBdAeqRUR8nY3k53pDuZzo6SyetOrORTqlR4v5rB9Jvn9U5SpN9c66KnEShV9kNZ3Fe+sqhVNn6CXzalL5m2tfVSaxlKrrZZlIVtNKnfDQTj7qWIbzauIRO8LS9aYTbtVZn9vZrlrp/c9lNYU6dnfFL79+Ev+++PVSXF1cfvrpXz+Iny9++Gkgfjy7PKvm4DzN2vLJUSWaSEIRh1Eigtl9ug6GImtpEgsnHqbFixeMK3hcjr3y82pndtritnpyiWQyiwIxdaJYnvuhk7QclfK306l89dpt9lqlwSwv0V7J5pdQ5vh5s51eXurPLNyzYG9tuXLkzPxETKMwzWFyqy22vjk4GAzOzrY23HgGOMABDnCAAxzgAAc4wAEOcP6aOCKe3ae/AgtXqheF68wVUSRd0IAGNKABDWhAAxrQgAY0oAFNMc1jdmvWn2hu/ZkEDnCAAxzgAAc4wAEOcIADHODUwXn53kBLfW/g1Yz63sCulX3CdnKyt3d4CFKQghSkIAUpSEEKUpCCFKQgBSlI3wepnZE6CUXayUi7Xds+6IMUpCAFKUhBClKQghSkIAUpSEEK0vdB2lWk55FHkNqHGall7e93uyAFKUhBClKQghSkIAUpSEEKUpCC9H2Q7inST5MZRXqQkR6mR+97kIIUpCAFKUhBClKQghSkIAUpSEH6Pkh7ivR36VKk+xnp6elgsL8PUpCCFKQgBSlIQQpSkIIUpCAFKUjfB2k/+8vETFKk/Yx0MOj3QQpSkIIUpCAFKUhBClKQghSkIAXpeyHdV6QfQ6qzoN3LSA8ObLvXAylIQQpSkIIUpCAFKUhBClKQghSkjZEuUdzIeWyVOnsyEy/x5dXEmUozkU9Ja+vHcBbF5Rjzr8889e5lEHth4Ms481DiYndXnLiucETmSTx6yUTE4b0UbrfkzPhhbDrTqQzclqG0je2SE5aH6SRJ1DKejLbodzRPmqcn2dVPipO5Lxd4O04wnIRRer7hy5EGbe5jFAbJzqP0xpNE+bgNfbe6j8Xc/Hby22KAL+VEOomwxcVwKK6Gk63tomn6sBsPI2+a/IN8z4dd13t420yeQztLfQnPPTaGag0P0st2vEBGN/b+oSGywTg2XC+e+s78yAv81LZz64fDL98ZNGDqdXENIplP0/PVeOzeOQ/O4tXCM9Xx4ERqvYlj4Xr3U1+agXy8ehi3jG/egGyLvU4n+6c0gJRf10mc1PH1H4bv3ErfODJcOXJmfiKmUTjyfGm0F5abJ+PIMjtt48HxZzL/eajyTHpOmjoGg7Mz47ldyY/N5KfL5GePyU+PyU+fyc8+k58DJj+HTH6sDpcjrhVtcS1pi2tNW1yL2uJa1RbXsra41rXFtbAtrpVtc61smy1Xc61sm2tl21orW8Sz+/uVL56utKNF0tVwQ46RnhtyhPTckOOj54aMez03ZNTruSFjXs8NGfF6bsh413NDb2SafpjWMb2NafphWsn0Jqbph2kt01uYph+m1UxvYJp+mNYzvX1p+uHKy0zrmd67NP1UX8+PXpDob1u36qXqfsjh0fRDDo+mH3J4NP2Q4a7phwx3TT9kuGv6IcNd0w8Z7pp+6P1L1xHXiqZ3MF1HXGua3sN0HXGtanoX03XEta7pfUzXEdfKpncyXUdsuZprZdObma6j6iv75ZOI0m8Krvb3xsVXCTNI0L/dsknQv/eySdC/EbNJ0H8FYpOg/z7EJkH/5YhNgv6bEpsE/dcmNomCP7HyaTQQ3wV/mOXTaCDCC/6cy6fRQIwX/BGYT6OBKC/40zGfRgNxXvAHZz6NJvbxBuK84C/YfBr14rz0CxmrlVWLb2xkkKBng02Cngw2CXou2CTolMsmQWdcNgk64bJJ0PmWTYJOt2wSBWUVn0YD8V1QVvFpNBDhBWUVn0YDMV5QVvFpNBDlBWUVn0YDcV5QVvFpNLGPNxDnBWUVn0a9OC/93qtqZdXii7EYJOjZYJOgJ4NNgp4LNgk65bJJ0BmXTYJOuGwSdL5lk6DTLZtEQVnFp9FAfBeUVXwaDUR4QVnFp9FAjBeUVXwaDUR5QVnFp9FAnBeUVXwaTezjDcR5QVnFp1Evzku/XqRaWbX4/hEGCXo22CToyWCToOeCTYJOuWwSdMZlk6ATLpsEnW/ZJOh0yyZRUFbxaTQQ3wVlFZ9GAxFeUFbxaTQQ4wVlFZ9GA1FeUFbxaTQQ5wVlFZ9GE/t4A3FeUFbxadSL89Iu7tXKqkWbdwYJejbYJOjJYJOg54JNgk65bBJ0xmWToBMumwSdb9kk6HTLJlFQVvFpNBDfBWUVn0YDEV5QVvFpNBDjBWUVn0YDUV5QVvFpNBDnBWUVn0YT+3gDcV5QVvFp1Ivz0ma51cqqRTddBgl6Ntgk6Mlgk6Dngk2CTrlsEnTGZZOgEy6bBJ1v2STodMsmUVBW8Wk0EN8FZRWfRgMRXlBW8Wk0EOMFZRWfRgNRXlBW8Wk0EOcFZRWfRhP7eANxXlBW8WnUi/PSnoTVyqpF00IGiaI+N0wSRR1wmCSKeuMwSRT1g2KSKOoUxSRR1EOKSaKouxSTRFHfKSaJwmZrXBoNxHdhizYujQYivLCxG5dGAzFe2A6OS6OBKC9sIsel0UCcF7ae49JoYh9vIM4Le9lxaZTH+ecqHV7zdsziWATycdlBNmsc24ofxu2sA2xpq9hlT+dYJt+Hs8CNW71OW1hWry266ie7V63d7FOK8dKq2nUHTiLHYTQ/efLiRU/kl+uv0Dg6dXARuTK6nKkWxZVPVBzzVY6P0olnkVxgqC7L+bhvuGk3zDDDDDPMMMMMM8wwwwwzzDDDDDPMMMMMM8wwwwwzzDDDDDPMMMMMM8wwwwwzzDDDDDPMMMMMM8wwwwwzzDDDDDPMMMMMM8x/KfPcDB9kFHmu/OioB2sts7Pm86rq0dh49dHYKxl5Ms4frzXayweIp36YmL4XyNJHZOO3ntMtf7I2NrOvnp+GvpN4YZBCGXEipzu3chRG0qj25PPPciwDd/WCFq+1+p226KonlzvqQWb1j+HLUaLASlwv3Zo3Y5mcBYkan1RiNAuGGWlrW/xR4mJJKF/Ovi59llsd3ki0kokXm3E2K9WE1PHqJDMdvzNnOGn9B1jX2xJfPTqesud+b6Zh7CmHp+nLVa5meSg3b1BF4aMe0hLLC1yp4mHHamuevTzu6p448qSv1lsrH9NFnIyjcDaVrvj2W/G3/PUn82bixPnz7yrAtl9b529a0wExnfH4XGmYvgzGyUR8ELb4pzBOfN8QR6vviH1vKFs71vZ15/N2abx9dSVhJFp36aV0vhN3qUy+VHNd9drf04yjP0HqUMs493d999n8Iufi+Ph4MXj1PGZe82m/073U5XEbSedLnZOfNc/Rfb8ar/zqjtWyVoshXylZIwfzxoljbxxId6BaRMTX2Uh+rjeUy4mezuJJq+5cpFN6tJjP+pHk+0dVrtJU76yrEidR+EVW01m8t65SOHWGXjKvJpW/ufZVZRJLqbpelolkNa3UCQ/t5KOOZTivJh6xIyxdbzrhVp31uZ3tqpXe/1xWU6hjd1f88usn8e+LXy/F1cXlp5/+9YP4+eKHnwbix7PLs2oOztOsLZ8cVaKJJBRxGCUimN2n62AospYmsXDiYVq8eMG4gsfl2Cs/r3Zmpy1uqyeXSCazKBBTJ4rluR86SctRKX87ncpXr91mr1UazPIS7ZVsfglljp832+nlpf7Mwj0L9taWK0fOzE/ENArTHCa32mLrm4ODweDsbGvDjWeAAxzgAAc4wAEOcIADHOAA56+JI+LZfforsHClelG4zlwRRdIFDWhAAxrQgAY0oAENaEADGtAU0zxmt2b9iebWn0ngAAc4wAEOcIADHOAABzjAAU4dnJfvDbTU9wZezajvDexa2SdsJyd7e4eHIAUpSEEKUpCCFKQgBSlIQQpSkIL0fZDaGamTUKSdjLTbte2DPkhBClKQghSkIAUpSEEKUpCCFKQgfR+kXUV6HnkEqX2YkVrW/n63C1KQghSkIAUpSEEKUpCCFKQgBSlI3wfpniL9NJlRpAcZ6WF69L4HKUhBClKQghSkIAUpSEEKUpCCFKTvg7SnSH+XLkW6n5Geng4G+/sgBSlIQQpSkIIUpCAFKUhBClKQgvR9kPazv0zMJEXaz0gHg34fpCAFKUhBClKQghSkIAUpSEEKUpC+F9J9RfoxpDoL2r2M9ODAtns9kIIUpCAFKUhBClKQghSkIAUpSEHaGOkSxY2cx1apsycz8RJfXk2cqTQT+ZS0tn4MZ1FcjjH/+sxT714GsRcGvowzDyUudnfFiesKR2SexKOXTEQc3kvhdkvOjB/GpjOdysBtGUrb2C45YXmYTpJELePJaIt+R/OkeXqSXf2kOJn7coG34wTDSRil5xu+HGnQ5j5GYZDsPEpvPEmUj9vQd6v7WMzNbye/LQb4Uk6kk4iL4VBcDSdb20WT9GE3HkbeNPkH+Z4Pu6738LaZPId2lvoSnntsDNUKHqQX7XiBjG7sg44hsqE4NlwvnvrO/MgL/NS2c+uHwy/fGTRg6nVxDSKZT9Pz1Wjs3jkPzuLVwjPV8eBEarWJY+F691NfmoF8vHoYt4xv3oBsi71OJ/unNHyUX9dJnNTx9R+G79xK3zgyXDlyZn4iplE48nxptBeWmyfjyDI7bePB8WfSOOofmoevjoPDtjFUOSf1kKaRweDszHhuV/Jqb8RrdyNe9zbitbcRr/2NeN3fiNeDjXg93IhXq7MZt5uJLmsz4WVtJr6szQSYtZkIszYTYtZmYszaTJBZm4kyezNRZm9oD9tMlNmbiTJ7jSgT8ez+fuVrvGtUCJF0NZxWHFs9pxVHVs9pxXHVc1oxd+k5rZi59JxWzFt6TitmLT2nFXOWntOqhYGm143EVNWyQNPrRqKqalGg6XUjcVW1JND0upHIqloQaHrdSGxVLQc0vW5mv9pIbFWtBTS91o2tRy9I1i0DbtUbqnutOKyaXisOq6bXisOq6bViytL0WjFlaXqtmLI0vVZMWZpeK6YsTa9V6wFdt5uJrqoVga7bzcRX1ZpA1+1mIqxqVaDrdjMxVrUu0HW7mSirWhnout3QHraZKKtaHOi61Yqyz1U+cMg/GxTHIpCPyw80ss8xWvHDuJ19IFH6ycXyA8ZYJt+Hs8CNW71OW1hWry266ie7V+3Tj6cU4+VzU9cdOIkch9H85MmLFx/QvQxFhU8xUwcXkSujy5n6vKzyiYpjvsrxUTrxLJILDPWRXz4F634um32QtCp1JSNPxjluqpRPyNQPE1N9ulUqGb913eWksZmtu2noO4kXBimUESdyunMrR2EkjWor6Wc5loG7ekGL11r9dBV01UpQH4ZZ6p/8Y8/ST4SXbs2bsUzOgkSNTyoxmgXDjLS1Lf6o8LmnIpQvZ1+XxoY6vJFoJRMvTte1Oq+akDpenWSm43fmDCet/wDrelvi558N5n5vpmHsKYen6ctVrmZ5KDdvUEXhox7SEssLXKkCd8dqa569PO7qnjjypK/WWysf00WcjKNwNpWu+PZb8bf89SfzZuLEeT5RAbb92jp/05oOiOmMx+dKw/RlME4m4oOwxT+FceL7hjhafUfse0PZ2rG2rzuft0vj7asrCSPRuksvpfOduEtl8qWa66rX/n4sLP0JUodaxrm/67vP5heZprfj48Xg1fOYec2n/U73UpfHbSSdL3VOftY8R/f9arzyqztWy1othnylZBujebO4p0e62V098XU2kp/rDeVyoqezeNKqOxfplB4t5rN+JPn+UZWrNNU766rESRR+kdV0Fu+tqxROnaGXzKtJ5W+ufVWZxFKqrpdlIllNK3XCQzv5qGMZzquJR+wIS9ebTrhVZ31uZ7tqpfc/l9UU6tjdFb/8+kn8++LXS3F1cfnpp3/9IH6++OGngfjx7PKsmoPzNGvLJ0eVaCIJRRymhXQwu0/XwVBkJWIsnHiYFi9eMK7gcTn2ys+rndlpi9vqySWSySwKxNSJYnnuh07SclTK306n8tVrt9lrlQazvER7JZtfQpnj5//CvZd/+gA2v8FSfaD6X7kVFDjAAQ5wgAMc4AAHOMABDnDePc7XN7gooki6oAENaEADGtCABjSgAQ1oQAOaYpqvbglUNOoWP+AABzjAAQ5wgAMc4AAHOMABzn+x4+EneT+VkZPMIila59voefg/1fPwd0etuB9l9p+T+1tPBolQU6Y6H0p3lo7/jtjvnL+TJojWe2iCaDXWBDF79LRuEyYmP10mP3tMfnpMfvpMfvaZ/Bww+Tlk8rPSXWAtR1wr2uJa0hbXmra4FrXFtaotrmVtca1ri2thW1wr2+Za2TZbruZa2TbXyra1Vnb1pn0rruq36VvDDTlC9VvxreGGjPv67fbWcEPGfP2Wemu4IeN9jbZ56/hhWsf0NrZGM7x1/DAtZXoPW6PF3Tp+mFYzvYGt0bhunTzItJ7p3WuNdnTr+GFaz/TWVb/J3IqbNdrKreOHHJ41Wset44cM9zXaw63jhwz3NVrAreOHDPd12ryt5YhrRdM72DrN29ZyxLWo6U1snZZsazniWtf0PrZOo7W1MiPXyqa3snXap63liGtl07sZmqK9i6ZoMMMMM8wwwwwzzDDDDDPMMMMMM8ww/y+Z52b4IKPIc+VHR/2hyjI7aIr/6krQFP/lQFN8rQNN8dEUX+NAU/w/H2iK/+cDTfE1DzTFR1P8Nw80xQcOcIADHOAABzjAAQ5wgAMc4LyHlpKgAQ1oQAMa0IAGNKABDWhA835o/r9pZQkc4AAHOMABDnCAAxzgAAc49fX+C03xT717GcReGPgyjtES/3+rJX4YfRFno5E39GQwnL80wm+2BX7+7j9ZXv//8ufFf1+85z+8/Oc2dOfqv5Pk3v/H//l/M2an+Q=="
               },
               {
                  "name" : "annual_peak_electric_demand",
                  "units" : "kW",
                  "value" : 117.97431
               },
               {
                  "name" : "first_year_capital_cost",
                  "units" : "$",
                  "value" : 0
               },
               {
                  "name" : "annual_utility_cost",
                  "units" : "$",
                  "value" : 66195.589999999997
               },
               {
                  "name" : "total_lifecycle_cost",
                  "units" : "$",
                  "value" : 1135546.45
               }
            ],
            "step_warnings" : []
         }
      }
   ],
   "updated_at" : "20170710T185829Z",
   "weather_file" : "USA_CO_Denver.Intl.AP.725650_TMY3.epw"
}
