{
   "completed_at" : "20170710T191257Z",
   "completed_status" : "Success",
   "created_at" : "2017-07-10 18:43:15 +0000",
   "current_step" : 5,
   "description" : "",
   "eplusout_err" : "Program Version,EnergyPlus, Version 8.7.0-78a111df4a, YMD=2017.07.10 18:53,IDD_Version 8.7.0\n   ************* IDF Context for following error/warning message:\n   ************* Note -- lines truncated at 300 characters, if necessary...\n   *************      5 Building,\n   ************* indicated Name=NECB 2011-Outpatient-NECB HDD Method-CAN_PQ_Sherbrooke.716100_CWEC.epw created: 2017-07-10 18:43:33 +0000\n   ************* Only last 1 lines before error line shown.....\n   *************      6   NECB 2011-Outpatient-NECB HDD Method-CAN_PQ_Sherbrooke.716100_CWEC.epw created: 2017-07-10 18:43:33 +0000, !- Name\n   ** Warning ** IP: IDF line~6 Alpha Argument length exceeds maximum, will be truncated=  NECB 2011-Outpatient-NECB HDD Method-CAN_PQ_Sherbrooke.716100_CWEC.epw created: 2017-07-10 18:43:33 +000\n   **   ~~~   ** Will be processed as Alpha=NECB 2011-OUTPATIENT-NECB HDD METHOD-CAN_PQ_SHERBROOKE.716100_CWEC.EPW CREATED: 2017-07-10 18:43:33 +0000\n   ************* IDF Context for following error/warning message:\n   ************* Note -- lines truncated at 300 characters, if necessary...\n   *************  33219 Schedule:Week:Daily,\n   ************* indicated Name=Schedule:Week:Daily {be6e8ff3-260c-492c-8643-238c3156b85f}\n   ************* Only last 10 lines before error line shown.....\n   *************  33220   Schedule:Week:Daily {be6e8ff3-260c-492c-8643-238c3156b85f}, !- Name\n   *************  33221   Sp-Floor 3 Physical Therapy 1 Sys-3 Flr-2 Sch-C HPlcmt-south ZN NECB System 3 PSZ Occ Sch Sunday, !- Sunday Schedule:Day Name\n   *************  33222   Sp-Floor 3 Physical Therapy 1 Sys-3 Flr-2 Sch-C HPlcmt-south ZN NECB System 3 PSZ Occ Sch Monday, !- Monday Schedule:Day Name\n   *************  33223   Sp-Floor 3 Physical Therapy 1 Sys-3 Flr-2 Sch-C HPlcmt-south ZN NECB System 3 PSZ Occ Sch Tuesday, !- Tuesday Schedule:Day Name\n   *************  33224   Sp-Floor 3 Physical Therapy 1 Sys-3 Flr-2 Sch-C HPlcmt-south ZN NECB System 3 PSZ Occ Sch Wednesday, !- Wednesday Schedule:Day Name\n   *************  33225   Sp-Floor 3 Physical Therapy 1 Sys-3 Flr-2 Sch-C HPlcmt-south ZN NECB System 3 PSZ Occ Sch Thursday, !- Thursday Schedule:Day Name\n   *************  33226   Sp-Floor 3 Physical Therapy 1 Sys-3 Flr-2 Sch-C HPlcmt-south ZN NECB System 3 PSZ Occ Sch Friday, !- Friday Schedule:Day Name\n   *************  33227   Sp-Floor 3 Physical Therapy 1 Sys-3 Flr-2 Sch-C HPlcmt-south ZN NECB System 3 PSZ Occ Sch Saturday, !- Saturday Schedule:Day Name\n   *************  33228   Sp-Floor 3 Physical Therapy 1 Sys-3 Flr-2 Sch-C HPlcmt-south ZN NECB System 3 PSZ Occ Sch Default, !- Holiday Schedule:Day Name\n   *************  33229   Sp-Floor 3 Physical Therapy 1 Sys-3 Flr-2 Sch-C HPlcmt-south ZN NECB System 3 PSZ Occ Sch Summer Design Day, !- SummerDesignDay Schedule:Day Name\n   ** Warning ** IP: IDF line~33229 Alpha Argument length exceeds maximum, will be truncated=  Sp-Floor 3 Physical Therapy 1 Sys-3 Flr-2 Sch-C HPlcmt-south ZN NECB System 3 PSZ Occ Sch Summer Design Da\n   **   ~~~   ** Will be processed as Alpha=SP-FLOOR 3 PHYSICAL THERAPY 1 SYS-3 FLR-2 SCH-C HPLCMT-SOUTH ZN NECB SYSTEM 3 PSZ OCC SCH SUMMER DESIGN DAY\n   ************* IDF Context for following error/warning message:\n   ************* Note -- lines truncated at 300 characters, if necessary...\n   *************  33219 Schedule:Week:Daily,\n   ************* indicated Name=Schedule:Week:Daily {be6e8ff3-260c-492c-8643-238c3156b85f}\n   ************* Only last 10 lines before error line shown.....\n   *************  33221   Sp-Floor 3 Physical Therapy 1 Sys-3 Flr-2 Sch-C HPlcmt-south ZN NECB System 3 PSZ Occ Sch Sunday, !- Sunday Schedule:Day Name\n   *************  33222   Sp-Floor 3 Physical Therapy 1 Sys-3 Flr-2 Sch-C HPlcmt-south ZN NECB System 3 PSZ Occ Sch Monday, !- Monday Schedule:Day Name\n   *************  33223   Sp-Floor 3 Physical Therapy 1 Sys-3 Flr-2 Sch-C HPlcmt-south ZN NECB System 3 PSZ Occ Sch Tuesday, !- Tuesday Schedule:Day Name\n   *************  33224   Sp-Floor 3 Physical Therapy 1 Sys-3 Flr-2 Sch-C HPlcmt-south ZN NECB System 3 PSZ Occ Sch Wednesday, !- Wednesday Schedule:Day Name\n   *************  33225   Sp-Floor 3 Physical Therapy 1 Sys-3 Flr-2 Sch-C HPlcmt-south ZN NECB System 3 PSZ Occ Sch Thursday, !- Thursday Schedule:Day Name\n   *************  33226   Sp-Floor 3 Physical Therapy 1 Sys-3 Flr-2 Sch-C HPlcmt-south ZN NECB System 3 PSZ Occ Sch Friday, !- Friday Schedule:Day Name\n   *************  33227   Sp-Floor 3 Physical Therapy 1 Sys-3 Flr-2 Sch-C HPlcmt-south ZN NECB System 3 PSZ Occ Sch Saturday, !- Saturday Schedule:Day Name\n   *************  33228   Sp-Floor 3 Physical Therapy 1 Sys-3 Flr-2 Sch-C HPlcmt-south ZN NECB System 3 PSZ Occ Sch Default, !- Holiday Schedule:Day Name\n   *************  33229   Sp-Floor 3 Physical Therapy 1 Sys-3 Flr-2 Sch-C HPlcmt-south ZN NECB System 3 PSZ Occ Sch Summer Design Day, !- SummerDesignDay Schedule:Day Name\n   *************  33230   Sp-Floor 3 Physical Therapy 1 Sys-3 Flr-2 Sch-C HPlcmt-south ZN NECB System 3 PSZ Occ Sch Winter Design Day, !- WinterDesignDay Schedule:Day Name\n   ** Warning ** IP: IDF line~33230 Alpha Argument length exceeds maximum, will be truncated=  Sp-Floor 3 Physical Therapy 1 Sys-3 Flr-2 Sch-C HPlcmt-south ZN NECB System 3 PSZ Occ Sch Winter Design Da\n   **   ~~~   ** Will be processed as Alpha=SP-FLOOR 3 PHYSICAL THERAPY 1 SYS-3 FLR-2 SCH-C HPLCMT-SOUTH ZN NECB SYSTEM 3 PSZ OCC SCH WINTER DESIGN DAY\n   ************* IDF Context for following error/warning message:\n   ************* Note -- lines truncated at 300 characters, if necessary...\n   *************  33250 Schedule:Day:Interval,\n   ************* indicated Name=Sp-Floor 3 Physical Therapy 1 Sys-3 Flr-2 Sch-C HPlcmt-south ZN NECB System 3 PSZ Occ Sch Summer Design Day\n   ************* Only last 1 lines before error line shown.....\n   *************  33251   Sp-Floor 3 Physical Therapy 1 Sys-3 Flr-2 Sch-C HPlcmt-south ZN NECB System 3 PSZ Occ Sch Summer Design Day, !- Name\n   ** Warning ** IP: IDF line~33251 Alpha Argument length exceeds maximum, will be truncated=  Sp-Floor 3 Physical Therapy 1 Sys-3 Flr-2 Sch-C HPlcmt-south ZN NECB System 3 PSZ Occ Sch Summer Design Da\n   **   ~~~   ** Will be processed as Alpha=SP-FLOOR 3 PHYSICAL THERAPY 1 SYS-3 FLR-2 SCH-C HPLCMT-SOUTH ZN NECB SYSTEM 3 PSZ OCC SCH SUMMER DESIGN DAY\n   ************* IDF Context for following error/warning message:\n   ************* Note -- lines truncated at 300 characters, if necessary...\n   *************  33257 Schedule:Day:Interval,\n   ************* indicated Name=Sp-Floor 3 Physical Therapy 1 Sys-3 Flr-2 Sch-C HPlcmt-south ZN NECB System 3 PSZ Occ Sch Winter Design Day\n   ************* Only last 1 lines before error line shown.....\n   *************  33258   Sp-Floor 3 Physical Therapy 1 Sys-3 Flr-2 Sch-C HPlcmt-south ZN NECB System 3 PSZ Occ Sch Winter Design Day, !- Name\n   ** Warning ** IP: IDF line~33258 Alpha Argument length exceeds maximum, will be truncated=  Sp-Floor 3 Physical Therapy 1 Sys-3 Flr-2 Sch-C HPlcmt-south ZN NECB System 3 PSZ Occ Sch Winter Design Da\n   **   ~~~   ** Will be processed as Alpha=SP-FLOOR 3 PHYSICAL THERAPY 1 SYS-3 FLR-2 SCH-C HPLCMT-SOUTH ZN NECB SYSTEM 3 PSZ OCC SCH WINTER DESIGN DAY\n   ************* IDF Context for following error/warning message:\n   ************* Note -- lines truncated at 300 characters, if necessary...\n   *************  35144 Schedule:Week:Daily,\n   ************* indicated Name=Schedule:Week:Daily {c0bd49a4-b5f8-4105-9e0f-e00f5dc06291}\n   ************* Only last 10 lines before error line shown.....\n   *************  35145   Schedule:Week:Daily {c0bd49a4-b5f8-4105-9e0f-e00f5dc06291}, !- Name\n   *************  35146   Sp-Floor 3 Undeveloped 1 Sys-4 Flr-2 Sch-E HPlcmt-south ZN NECB System 4 PSZ Occ Sch Sunday, !- Sunday Schedule:Day Name\n   *************  35147   Sp-Floor 3 Undeveloped 1 Sys-4 Flr-2 Sch-E HPlcmt-south ZN NECB System 4 PSZ Occ Sch Monday, !- Monday Schedule:Day Name\n   *************  35148   Sp-Floor 3 Undeveloped 1 Sys-4 Flr-2 Sch-E HPlcmt-south ZN NECB System 4 PSZ Occ Sch Tuesday, !- Tuesday Schedule:Day Name\n   *************  35149   Sp-Floor 3 Undeveloped 1 Sys-4 Flr-2 Sch-E HPlcmt-south ZN NECB System 4 PSZ Occ Sch Wednesday, !- Wednesday Schedule:Day Name\n   *************  35150   Sp-Floor 3 Undeveloped 1 Sys-4 Flr-2 Sch-E HPlcmt-south ZN NECB System 4 PSZ Occ Sch Thursday, !- Thursday Schedule:Day Name\n   *************  35151   Sp-Floor 3 Undeveloped 1 Sys-4 Flr-2 Sch-E HPlcmt-south ZN NECB System 4 PSZ Occ Sch Friday, !- Friday Schedule:Day Name\n   *************  35152   Sp-Floor 3 Undeveloped 1 Sys-4 Flr-2 Sch-E HPlcmt-south ZN NECB System 4 PSZ Occ Sch Saturday, !- Saturday Schedule:Day Name\n   *************  35153   Sp-Floor 3 Undeveloped 1 Sys-4 Flr-2 Sch-E HPlcmt-south ZN NECB System 4 PSZ Occ Sch Default, !- Holiday Schedule:Day Name\n   *************  35154   Sp-Floor 3 Undeveloped 1 Sys-4 Flr-2 Sch-E HPlcmt-south ZN NECB System 4 PSZ Occ Sch Summer Design Day, !- SummerDesignDay Schedule:Day Name\n   ** Warning ** IP: IDF line~35154 Alpha Argument length exceeds maximum, will be truncated=  Sp-Floor 3 Undeveloped 1 Sys-4 Flr-2 Sch-E HPlcmt-south ZN NECB System 4 PSZ Occ Sch Summer Design Da\n   **   ~~~   ** Will be processed as Alpha=SP-FLOOR 3 UNDEVELOPED 1 SYS-4 FLR-2 SCH-E HPLCMT-SOUTH ZN NECB SYSTEM 4 PSZ OCC SCH SUMMER DESIGN DAY\n   ************* IDF Context for following error/warning message:\n   ************* Note -- lines truncated at 300 characters, if necessary...\n   *************  35144 Schedule:Week:Daily,\n   ************* indicated Name=Schedule:Week:Daily {c0bd49a4-b5f8-4105-9e0f-e00f5dc06291}\n   ************* Only last 10 lines before error line shown.....\n   *************  35146   Sp-Floor 3 Undeveloped 1 Sys-4 Flr-2 Sch-E HPlcmt-south ZN NECB System 4 PSZ Occ Sch Sunday, !- Sunday Schedule:Day Name\n   *************  35147   Sp-Floor 3 Undeveloped 1 Sys-4 Flr-2 Sch-E HPlcmt-south ZN NECB System 4 PSZ Occ Sch Monday, !- Monday Schedule:Day Name\n   *************  35148   Sp-Floor 3 Undeveloped 1 Sys-4 Flr-2 Sch-E HPlcmt-south ZN NECB System 4 PSZ Occ Sch Tuesday, !- Tuesday Schedule:Day Name\n   *************  35149   Sp-Floor 3 Undeveloped 1 Sys-4 Flr-2 Sch-E HPlcmt-south ZN NECB System 4 PSZ Occ Sch Wednesday, !- Wednesday Schedule:Day Name\n   *************  35150   Sp-Floor 3 Undeveloped 1 Sys-4 Flr-2 Sch-E HPlcmt-south ZN NECB System 4 PSZ Occ Sch Thursday, !- Thursday Schedule:Day Name\n   *************  35151   Sp-Floor 3 Undeveloped 1 Sys-4 Flr-2 Sch-E HPlcmt-south ZN NECB System 4 PSZ Occ Sch Friday, !- Friday Schedule:Day Name\n   *************  35152   Sp-Floor 3 Undeveloped 1 Sys-4 Flr-2 Sch-E HPlcmt-south ZN NECB System 4 PSZ Occ Sch Saturday, !- Saturday Schedule:Day Name\n   *************  35153   Sp-Floor 3 Undeveloped 1 Sys-4 Flr-2 Sch-E HPlcmt-south ZN NECB System 4 PSZ Occ Sch Default, !- Holiday Schedule:Day Name\n   *************  35154   Sp-Floor 3 Undeveloped 1 Sys-4 Flr-2 Sch-E HPlcmt-south ZN NECB System 4 PSZ Occ Sch Summer Design Day, !- SummerDesignDay Schedule:Day Name\n   *************  35155   Sp-Floor 3 Undeveloped 1 Sys-4 Flr-2 Sch-E HPlcmt-south ZN NECB System 4 PSZ Occ Sch Winter Design Day, !- WinterDesignDay Schedule:Day Name\n   ** Warning ** IP: IDF line~35155 Alpha Argument length exceeds maximum, will be truncated=  Sp-Floor 3 Undeveloped 1 Sys-4 Flr-2 Sch-E HPlcmt-south ZN NECB System 4 PSZ Occ Sch Winter Design Da\n   **   ~~~   ** Will be processed as Alpha=SP-FLOOR 3 UNDEVELOPED 1 SYS-4 FLR-2 SCH-E HPLCMT-SOUTH ZN NECB SYSTEM 4 PSZ OCC SCH WINTER DESIGN DAY\n   ************* IDF Context for following error/warning message:\n   ************* Note -- lines truncated at 300 characters, if necessary...\n   *************  35175 Schedule:Day:Interval,\n   ************* indicated Name=Sp-Floor 3 Undeveloped 1 Sys-4 Flr-2 Sch-E HPlcmt-south ZN NECB System 4 PSZ Occ Sch Summer Design Day\n   ************* Only last 1 lines before error line shown.....\n   *************  35176   Sp-Floor 3 Undeveloped 1 Sys-4 Flr-2 Sch-E HPlcmt-south ZN NECB System 4 PSZ Occ Sch Summer Design Day, !- Name\n   ** Warning ** IP: IDF line~35176 Alpha Argument length exceeds maximum, will be truncated=  Sp-Floor 3 Undeveloped 1 Sys-4 Flr-2 Sch-E HPlcmt-south ZN NECB System 4 PSZ Occ Sch Summer Design Da\n   **   ~~~   ** Will be processed as Alpha=SP-FLOOR 3 UNDEVELOPED 1 SYS-4 FLR-2 SCH-E HPLCMT-SOUTH ZN NECB SYSTEM 4 PSZ OCC SCH SUMMER DESIGN DAY\n   ************* IDF Context for following error/warning message:\n   ************* Note -- lines truncated at 300 characters, if necessary...\n   *************  35182 Schedule:Day:Interval,\n   ************* indicated Name=Sp-Floor 3 Undeveloped 1 Sys-4 Flr-2 Sch-E HPlcmt-south ZN NECB System 4 PSZ Occ Sch Winter Design Day\n   ************* Only last 1 lines before error line shown.....\n   *************  35183   Sp-Floor 3 Undeveloped 1 Sys-4 Flr-2 Sch-E HPlcmt-south ZN NECB System 4 PSZ Occ Sch Winter Design Day, !- Name\n   ** Warning ** IP: IDF line~35183 Alpha Argument length exceeds maximum, will be truncated=  Sp-Floor 3 Undeveloped 1 Sys-4 Flr-2 Sch-E HPlcmt-south ZN NECB System 4 PSZ Occ Sch Winter Design Da\n   **   ~~~   ** Will be processed as Alpha=SP-FLOOR 3 UNDEVELOPED 1 SYS-4 FLR-2 SCH-E HPLCMT-SOUTH ZN NECB SYSTEM 4 PSZ OCC SCH WINTER DESIGN DAY\n   ************* IDF Context for following error/warning message:\n   ************* Note -- lines truncated at 300 characters, if necessary...\n   *************  49834 AirLoopHVAC,\n   ************* indicated Name=Sp-Floor 1 Electrical Room Sys-4 Flr-3 Sch-H HPlcmt-east ZN NECB System 4 PSZ\n   ************* Only last 3 lines before error line shown.....\n   *************  49835   Sp-Floor 1 Electrical Room Sys-4 Flr-3 Sch-H HPlcmt-east ZN NECB System 4 PSZ, !- Name\n   *************  49836   ,                                       !- Controller List Name\n   *************  49837   Sp-Floor 1 Electrical Room Sys-4 Flr-3 Sch-H HPlcmt-east ZN NECB System 4 PSZAvailability Manager List, !- Availability Manager List Name\n   ** Warning ** IP: IDF line~49837 Alpha Argument length exceeds maximum, will be truncated=  Sp-Floor 1 Electrical Room Sys-4 Flr-3 Sch-H HPlcmt-east ZN NECB System 4 PSZAvailability Manager Lis\n   **   ~~~   ** Will be processed as Alpha=SP-FLOOR 1 ELECTRICAL ROOM SYS-4 FLR-3 SCH-H HPLCMT-EAST ZN NECB SYSTEM 4 PSZAVAILABILITY MANAGER LIST\n   ************* IDF Context for following error/warning message:\n   ************* Note -- lines truncated at 300 characters, if necessary...\n   *************  49893 AvailabilityManagerAssignmentList,\n   ************* indicated Name=Sp-Floor 1 Electrical Room Sys-4 Flr-3 Sch-H HPlcmt-east ZN NECB System 4 PSZAvailability Manager List\n   ************* Only last 1 lines before error line shown.....\n   *************  49894   Sp-Floor 1 Electrical Room Sys-4 Flr-3 Sch-H HPlcmt-east ZN NECB System 4 PSZAvailability Manager List, !- Name\n   ** Warning ** IP: IDF line~49894 Alpha Argument length exceeds maximum, will be truncated=  Sp-Floor 1 Electrical Room Sys-4 Flr-3 Sch-H HPlcmt-east ZN NECB System 4 PSZAvailability Manager Lis\n   **   ~~~   ** Will be processed as Alpha=SP-FLOOR 1 ELECTRICAL ROOM SYS-4 FLR-3 SCH-H HPLCMT-EAST ZN NECB SYSTEM 4 PSZAVAILABILITY MANAGER LIST\n   ************* IDF Context for following error/warning message:\n   ************* Note -- lines truncated at 300 characters, if necessary...\n   *************  50156 AirLoopHVAC,\n   ************* indicated Name=Sp-Floor 1 Elevator Pump Room Sys-3 Flr-3 Sch-H HPlcmt-north ZN NECB System 3 PSZ\n   ************* Only last 3 lines before error line shown.....\n   *************  50157   Sp-Floor 1 Elevator Pump Room Sys-3 Flr-3 Sch-H HPlcmt-north ZN NECB System 3 PSZ, !- Name\n   *************  50158   ,                                       !- Controller List Name\n   *************  50159   Sp-Floor 1 Elevator Pump Room Sys-3 Flr-3 Sch-H HPlcmt-north ZN NECB System 3 PSZAvailability Manager List, !- Availability Manager List Name\n   ** Warning ** IP: IDF line~50159 Alpha Argument length exceeds maximum, will be truncated=  Sp-Floor 1 Elevator Pump Room Sys-3 Flr-3 Sch-H HPlcmt-north ZN NECB System 3 PSZAvailability Manager Lis\n   **   ~~~   ** Will be processed as Alpha=SP-FLOOR 1 ELEVATOR PUMP ROOM SYS-3 FLR-3 SCH-H HPLCMT-NORTH ZN NECB SYSTEM 3 PSZAVAILABILITY MANAGER LIST\n   ************* IDF Context for following error/warning message:\n   ************* Note -- lines truncated at 300 characters, if necessary...\n   *************  50156 AirLoopHVAC,\n   ************* indicated Name=Sp-Floor 1 Elevator Pump Room Sys-3 Flr-3 Sch-H HPlcmt-north ZN NECB System 3 PSZ\n   ************* Only last 10 lines before error line shown.....\n   *************  50157   Sp-Floor 1 Elevator Pump Room Sys-3 Flr-3 Sch-H HPlcmt-north ZN NECB System 3 PSZ, !- Name\n   *************  50158   ,                                       !- Controller List Name\n   *************  50159   Sp-Floor 1 Elevator Pump Room Sys-3 Flr-3 Sch-H HPlcmt-north ZN NECB System 3 PSZAvailability Manager List, !- Availability Manager List Name\n   *************  50160   AutoSize,                               !- Design Supply Air Flow Rate {m3/s}\n   *************  50161   Sp-Floor 1 Elevator Pump Room Sys-3 Flr-3 Sch-H HPlcmt-north ZN NECB System 3 PSZ Supply Branches, !- Branch List Name\n   *************  50162   ,                                       !- Connector List Name\n   *************  50163   Node 570,                               !- Supply Side Inlet Node Name\n   *************  50164   Node 573,                               !- Demand Side Outlet Node Name\n   *************  50165   Sp-Floor 1 Elevator Pump Room Sys-3 Flr-3 Sch-H HPlcmt-north ZN NECB System 3 PSZ Demand Inlet Nodes, !- Demand Side Inlet Node Names\n   *************  50166   Sp-Floor 1 Elevator Pump Room Sys-3 Flr-3 Sch-H HPlcmt-north ZN NECB System 3 PSZ Supply Outlet Nodes; !- Supply Side Outlet Node Names\n   ** Warning ** IP: IDF line~50166 Alpha Argument length exceeds maximum, will be truncated=  Sp-Floor 1 Elevator Pump Room Sys-3 Flr-3 Sch-H HPlcmt-north ZN NECB System 3 PSZ Supply Outlet Node\n   **   ~~~   ** Will be processed as Alpha=SP-FLOOR 1 ELEVATOR PUMP ROOM SYS-3 FLR-3 SCH-H HPLCMT-NORTH ZN NECB SYSTEM 3 PSZ SUPPLY OUTLET NODES\n   ************* IDF Context for following error/warning message:\n   ************* Note -- lines truncated at 300 characters, if necessary...\n   *************  50168 NodeList,\n   ************* indicated Name=Sp-Floor 1 Elevator Pump Room Sys-3 Flr-3 Sch-H HPlcmt-north ZN NECB System 3 PSZ Supply Outlet Nodes\n   ************* Only last 1 lines before error line shown.....\n   *************  50169   Sp-Floor 1 Elevator Pump Room Sys-3 Flr-3 Sch-H HPlcmt-north ZN NECB System 3 PSZ Supply Outlet Nodes, !- Name\n   ** Warning ** IP: IDF line~50169 Alpha Argument length exceeds maximum, will be truncated=  Sp-Floor 1 Elevator Pump Room Sys-3 Flr-3 Sch-H HPlcmt-north ZN NECB System 3 PSZ Supply Outlet Node\n   **   ~~~   ** Will be processed as Alpha=SP-FLOOR 1 ELEVATOR PUMP ROOM SYS-3 FLR-3 SCH-H HPLCMT-NORTH ZN NECB SYSTEM 3 PSZ SUPPLY OUTLET NODES\n   ************* IDF Context for following error/warning message:\n   ************* Note -- lines truncated at 300 characters, if necessary...\n   *************  50215 AvailabilityManagerAssignmentList,\n   ************* indicated Name=Sp-Floor 1 Elevator Pump Room Sys-3 Flr-3 Sch-H HPlcmt-north ZN NECB System 3 PSZAvailability Manager List\n   ************* Only last 1 lines before error line shown.....\n   *************  50216   Sp-Floor 1 Elevator Pump Room Sys-3 Flr-3 Sch-H HPlcmt-north ZN NECB System 3 PSZAvailability Manager List, !- Name\n   ** Warning ** IP: IDF line~50216 Alpha Argument length exceeds maximum, will be truncated=  Sp-Floor 1 Elevator Pump Room Sys-3 Flr-3 Sch-H HPlcmt-north ZN NECB System 3 PSZAvailability Manager Lis\n   **   ~~~   ** Will be processed as Alpha=SP-FLOOR 1 ELEVATOR PUMP ROOM SYS-3 FLR-3 SCH-H HPLCMT-NORTH ZN NECB SYSTEM 3 PSZAVAILABILITY MANAGER LIST\n   ************* IDF Context for following error/warning message:\n   ************* Note -- lines truncated at 300 characters, if necessary...\n   *************  50215 AvailabilityManagerAssignmentList,\n   ************* indicated Name=Sp-Floor 1 Elevator Pump Room Sys-3 Flr-3 Sch-H HPlcmt-north ZN NECB System 3 PSZAvailability Manager List\n   ************* Only last 3 lines before error line shown.....\n   *************  50216   Sp-Floor 1 Elevator Pump Room Sys-3 Flr-3 Sch-H HPlcmt-north ZN NECB System 3 PSZAvailability Manager List, !- Name\n   *************  50217   AvailabilityManager:Scheduled,          !- Availability Manager Object Type 1\n   *************  50218   Sp-Floor 1 Elevator Pump Room Sys-3 Flr-3 Sch-H HPlcmt-north ZN NECB System 3 PSZ Availability Manager; !- Availability Manager Name 1\n   ** Warning ** IP: IDF line~50218 Alpha Argument length exceeds maximum, will be truncated=  Sp-Floor 1 Elevator Pump Room Sys-3 Flr-3 Sch-H HPlcmt-north ZN NECB System 3 PSZ Availability Manage\n   **   ~~~   ** Will be processed as Alpha=SP-FLOOR 1 ELEVATOR PUMP ROOM SYS-3 FLR-3 SCH-H HPLCMT-NORTH ZN NECB SYSTEM 3 PSZ AVAILABILITY MANAGER\n   ************* IDF Context for following error/warning message:\n   ************* Note -- lines truncated at 300 characters, if necessary...\n   *************  50220 AvailabilityManager:Scheduled,\n   ************* indicated Name=Sp-Floor 1 Elevator Pump Room Sys-3 Flr-3 Sch-H HPlcmt-north ZN NECB System 3 PSZ Availability Manager\n   ************* Only last 1 lines before error line shown.....\n   *************  50221   Sp-Floor 1 Elevator Pump Room Sys-3 Flr-3 Sch-H HPlcmt-north ZN NECB System 3 PSZ Availability Manager, !- Name\n   ** Warning ** IP: IDF line~50221 Alpha Argument length exceeds maximum, will be truncated=  Sp-Floor 1 Elevator Pump Room Sys-3 Flr-3 Sch-H HPlcmt-north ZN NECB System 3 PSZ Availability Manage\n   **   ~~~   ** Will be processed as Alpha=SP-FLOOR 1 ELEVATOR PUMP ROOM SYS-3 FLR-3 SCH-H HPLCMT-NORTH ZN NECB SYSTEM 3 PSZ AVAILABILITY MANAGER\n   ************* IDF Context for following error/warning message:\n   ************* Note -- lines truncated at 300 characters, if necessary...\n   *************  50456 AirLoopHVAC:SupplyPath,\n   ************* indicated Name=Sp-Floor 1 Elevator Pump Room Sys-3 Flr-3 Sch-H HPlcmt-north ZN NECB System 3 PSZ Node 572 Supply Path\n   ************* Only last 1 lines before error line shown.....\n   *************  50457   Sp-Floor 1 Elevator Pump Room Sys-3 Flr-3 Sch-H HPlcmt-north ZN NECB System 3 PSZ Node 572 Supply Path, !- Name\n   ** Warning ** IP: IDF line~50457 Alpha Argument length exceeds maximum, will be truncated=  Sp-Floor 1 Elevator Pump Room Sys-3 Flr-3 Sch-H HPlcmt-north ZN NECB System 3 PSZ Node 572 Supply Pat\n   **   ~~~   ** Will be processed as Alpha=SP-FLOOR 1 ELEVATOR PUMP ROOM SYS-3 FLR-3 SCH-H HPLCMT-NORTH ZN NECB SYSTEM 3 PSZ NODE 572 SUPPLY PATH\n   ************* IDF Context for following error/warning message:\n   ************* Note -- lines truncated at 300 characters, if necessary...\n   *************  51766 AirLoopHVAC,\n   ************* indicated Name=Sp-Floor 1 Locker Room Hall Sys-4 Flr-3 Sch-H HPlcmt-core ZN NECB System 4 PSZ\n   ************* Only last 3 lines before error line shown.....\n   *************  51767   Sp-Floor 1 Locker Room Hall Sys-4 Flr-3 Sch-H HPlcmt-core ZN NECB System 4 PSZ, !- Name\n   *************  51768   ,                                       !- Controller List Name\n   *************  51769   Sp-Floor 1 Locker Room Hall Sys-4 Flr-3 Sch-H HPlcmt-core ZN NECB System 4 PSZAvailability Manager List, !- Availability Manager List Name\n   ** Warning ** IP: IDF line~51769 Alpha Argument length exceeds maximum, will be truncated=  Sp-Floor 1 Locker Room Hall Sys-4 Flr-3 Sch-H HPlcmt-core ZN NECB System 4 PSZAvailability Manager Lis\n   **   ~~~   ** Will be processed as Alpha=SP-FLOOR 1 LOCKER ROOM HALL SYS-4 FLR-3 SCH-H HPLCMT-CORE ZN NECB SYSTEM 4 PSZAVAILABILITY MANAGER LIST\n   ************* IDF Context for following error/warning message:\n   ************* Note -- lines truncated at 300 characters, if necessary...\n   *************  51825 AvailabilityManagerAssignmentList,\n   ************* indicated Name=Sp-Floor 1 Locker Room Hall Sys-4 Flr-3 Sch-H HPlcmt-core ZN NECB System 4 PSZAvailability Manager List\n   ************* Only last 1 lines before error line shown.....\n   *************  51826   Sp-Floor 1 Locker Room Hall Sys-4 Flr-3 Sch-H HPlcmt-core ZN NECB System 4 PSZAvailability Manager List, !- Name\n   ** Warning ** IP: IDF line~51826 Alpha Argument length exceeds maximum, will be truncated=  Sp-Floor 1 Locker Room Hall Sys-4 Flr-3 Sch-H HPlcmt-core ZN NECB System 4 PSZAvailability Manager Lis\n   **   ~~~   ** Will be processed as Alpha=SP-FLOOR 1 LOCKER ROOM HALL SYS-4 FLR-3 SCH-H HPLCMT-CORE ZN NECB SYSTEM 4 PSZAVAILABILITY MANAGER LIST\n   ************* IDF Context for following error/warning message:\n   ************* Note -- lines truncated at 300 characters, if necessary...\n   *************  52732 AirLoopHVAC,\n   ************* indicated Name=Sp-Floor 1 MRI Control Room Sys-3 Flr-3 Sch-H HPlcmt-north ZN NECB System 3 PSZ\n   ************* Only last 3 lines before error line shown.....\n   *************  52733   Sp-Floor 1 MRI Control Room Sys-3 Flr-3 Sch-H HPlcmt-north ZN NECB System 3 PSZ, !- Name\n   *************  52734   ,                                       !- Controller List Name\n   *************  52735   Sp-Floor 1 MRI Control Room Sys-3 Flr-3 Sch-H HPlcmt-north ZN NECB System 3 PSZAvailability Manager List, !- Availability Manager List Name\n   ** Warning ** IP: IDF line~52735 Alpha Argument length exceeds maximum, will be truncated=  Sp-Floor 1 MRI Control Room Sys-3 Flr-3 Sch-H HPlcmt-north ZN NECB System 3 PSZAvailability Manager Lis\n   **   ~~~   ** Will be processed as Alpha=SP-FLOOR 1 MRI CONTROL ROOM SYS-3 FLR-3 SCH-H HPLCMT-NORTH ZN NECB SYSTEM 3 PSZAVAILABILITY MANAGER LIST\n   ************* IDF Context for following error/warning message:\n   ************* Note -- lines truncated at 300 characters, if necessary...\n   *************  52791 AvailabilityManagerAssignmentList,\n   ************* indicated Name=Sp-Floor 1 MRI Control Room Sys-3 Flr-3 Sch-H HPlcmt-north ZN NECB System 3 PSZAvailability Manager List\n   ************* Only last 1 lines before error line shown.....\n   *************  52792   Sp-Floor 1 MRI Control Room Sys-3 Flr-3 Sch-H HPlcmt-north ZN NECB System 3 PSZAvailability Manager List, !- Name\n   ** Warning ** IP: IDF line~52792 Alpha Argument length exceeds maximum, will be truncated=  Sp-Floor 1 MRI Control Room Sys-3 Flr-3 Sch-H HPlcmt-north ZN NECB System 3 PSZAvailability Manager Lis\n   **   ~~~   ** Will be processed as Alpha=SP-FLOOR 1 MRI CONTROL ROOM SYS-3 FLR-3 SCH-H HPLCMT-NORTH ZN NECB SYSTEM 3 PSZAVAILABILITY MANAGER LIST\n   ************* IDF Context for following error/warning message:\n   ************* Note -- lines truncated at 300 characters, if necessary...\n   *************  55308 AirLoopHVAC,\n   ************* indicated Name=Sp-Floor 1 Operating Room 1 Sys-3 Flr-3 Sch-H HPlcmt-east ZN NECB System 3 PSZ\n   ************* Only last 3 lines before error line shown.....\n   *************  55309   Sp-Floor 1 Operating Room 1 Sys-3 Flr-3 Sch-H HPlcmt-east ZN NECB System 3 PSZ, !- Name\n   *************  55310   ,                                       !- Controller List Name\n   *************  55311   Sp-Floor 1 Operating Room 1 Sys-3 Flr-3 Sch-H HPlcmt-east ZN NECB System 3 PSZAvailability Manager List, !- Availability Manager List Name\n   ** Warning ** IP: IDF line~55311 Alpha Argument length exceeds maximum, will be truncated=  Sp-Floor 1 Operating Room 1 Sys-3 Flr-3 Sch-H HPlcmt-east ZN NECB System 3 PSZAvailability Manager Lis\n   **   ~~~   ** Will be processed as Alpha=SP-FLOOR 1 OPERATING ROOM 1 SYS-3 FLR-3 SCH-H HPLCMT-EAST ZN NECB SYSTEM 3 PSZAVAILABILITY MANAGER LIST\n   ************* IDF Context for following error/warning message:\n   ************* Note -- lines truncated at 300 characters, if necessary...\n   *************  55367 AvailabilityManagerAssignmentList,\n   ************* indicated Name=Sp-Floor 1 Operating Room 1 Sys-3 Flr-3 Sch-H HPlcmt-east ZN NECB System 3 PSZAvailability Manager List\n   ************* Only last 1 lines before error line shown.....\n   *************  55368   Sp-Floor 1 Operating Room 1 Sys-3 Flr-3 Sch-H HPlcmt-east ZN NECB System 3 PSZAvailability Manager List, !- Name\n   ** Warning ** IP: IDF line~55368 Alpha Argument length exceeds maximum, will be truncated=  Sp-Floor 1 Operating Room 1 Sys-3 Flr-3 Sch-H HPlcmt-east ZN NECB System 3 PSZAvailability Manager Lis\n   **   ~~~   ** Will be processed as Alpha=SP-FLOOR 1 OPERATING ROOM 1 SYS-3 FLR-3 SCH-H HPLCMT-EAST ZN NECB SYSTEM 3 PSZAVAILABILITY MANAGER LIST\n   ************* IDF Context for following error/warning message:\n   ************* Note -- lines truncated at 300 characters, if necessary...\n   *************  55630 AirLoopHVAC,\n   ************* indicated Name=Sp-Floor 1 Operating Room 2 Sys-3 Flr-3 Sch-H HPlcmt-east ZN NECB System 3 PSZ\n   ************* Only last 3 lines before error line shown.....\n   *************  55631   Sp-Floor 1 Operating Room 2 Sys-3 Flr-3 Sch-H HPlcmt-east ZN NECB System 3 PSZ, !- Name\n   *************  55632   ,                                       !- Controller List Name\n   *************  55633   Sp-Floor 1 Operating Room 2 Sys-3 Flr-3 Sch-H HPlcmt-east ZN NECB System 3 PSZAvailability Manager List, !- Availability Manager List Name\n   ** Warning ** IP: IDF line~55633 Alpha Argument length exceeds maximum, will be truncated=  Sp-Floor 1 Operating Room 2 Sys-3 Flr-3 Sch-H HPlcmt-east ZN NECB System 3 PSZAvailability Manager Lis\n   **   ~~~   ** Will be processed as Alpha=SP-FLOOR 1 OPERATING ROOM 2 SYS-3 FLR-3 SCH-H HPLCMT-EAST ZN NECB SYSTEM 3 PSZAVAILABILITY MANAGER LIST\n   ************* IDF Context for following error/warning message:\n   ************* Note -- lines truncated at 300 characters, if necessary...\n   *************  55689 AvailabilityManagerAssignmentList,\n   ************* indicated Name=Sp-Floor 1 Operating Room 2 Sys-3 Flr-3 Sch-H HPlcmt-east ZN NECB System 3 PSZAvailability Manager List\n   ************* Only last 1 lines before error line shown.....\n   *************  55690   Sp-Floor 1 Operating Room 2 Sys-3 Flr-3 Sch-H HPlcmt-east ZN NECB System 3 PSZAvailability Manager List, !- Name\n   ** Warning ** IP: IDF line~55690 Alpha Argument length exceeds maximum, will be truncated=  Sp-Floor 1 Operating Room 2 Sys-3 Flr-3 Sch-H HPlcmt-east ZN NECB System 3 PSZAvailability Manager Lis\n   **   ~~~   ** Will be processed as Alpha=SP-FLOOR 1 OPERATING ROOM 2 SYS-3 FLR-3 SCH-H HPLCMT-EAST ZN NECB SYSTEM 3 PSZAVAILABILITY MANAGER LIST\n   ************* IDF Context for following error/warning message:\n   ************* Note -- lines truncated at 300 characters, if necessary...\n   *************  55952 AirLoopHVAC,\n   ************* indicated Name=Sp-Floor 1 Operating Room 3 Sys-3 Flr-3 Sch-H HPlcmt-core ZN NECB System 3 PSZ\n   ************* Only last 3 lines before error line shown.....\n   *************  55953   Sp-Floor 1 Operating Room 3 Sys-3 Flr-3 Sch-H HPlcmt-core ZN NECB System 3 PSZ, !- Name\n   *************  55954   ,                                       !- Controller List Name\n   *************  55955   Sp-Floor 1 Operating Room 3 Sys-3 Flr-3 Sch-H HPlcmt-core ZN NECB System 3 PSZAvailability Manager List, !- Availability Manager List Name\n   ** Warning ** IP: IDF line~55955 Alpha Argument length exceeds maximum, will be truncated=  Sp-Floor 1 Operating Room 3 Sys-3 Flr-3 Sch-H HPlcmt-core ZN NECB System 3 PSZAvailability Manager Lis\n   **   ~~~   ** Will be processed as Alpha=SP-FLOOR 1 OPERATING ROOM 3 SYS-3 FLR-3 SCH-H HPLCMT-CORE ZN NECB SYSTEM 3 PSZAVAILABILITY MANAGER LIST\n   ************* IDF Context for following error/warning message:\n   ************* Note -- lines truncated at 300 characters, if necessary...\n   *************  56011 AvailabilityManagerAssignmentList,\n   ************* indicated Name=Sp-Floor 1 Operating Room 3 Sys-3 Flr-3 Sch-H HPlcmt-core ZN NECB System 3 PSZAvailability Manager List\n   ************* Only last 1 lines before error line shown.....\n   *************  56012   Sp-Floor 1 Operating Room 3 Sys-3 Flr-3 Sch-H HPlcmt-core ZN NECB System 3 PSZAvailability Manager List, !- Name\n   ** Warning ** IP: IDF line~56012 Alpha Argument length exceeds maximum, will be truncated=  Sp-Floor 1 Operating Room 3 Sys-3 Flr-3 Sch-H HPlcmt-core ZN NECB System 3 PSZAvailability Manager Lis\n   **   ~~~   ** Will be processed as Alpha=SP-FLOOR 1 OPERATING ROOM 3 SYS-3 FLR-3 SCH-H HPLCMT-CORE ZN NECB SYSTEM 3 PSZAVAILABILITY MANAGER LIST\n   ************* IDF Context for following error/warning message:\n   ************* Note -- lines truncated at 300 characters, if necessary...\n   *************  57562 AirLoopHVAC,\n   ************* indicated Name=Sp-Floor 1 Procedure Room Sys-3 Flr-3 Sch-H HPlcmt-north ZN NECB System 3 PSZ\n   ************* Only last 3 lines before error line shown.....\n   *************  57563   Sp-Floor 1 Procedure Room Sys-3 Flr-3 Sch-H HPlcmt-north ZN NECB System 3 PSZ, !- Name\n   *************  57564   ,                                       !- Controller List Name\n   *************  57565   Sp-Floor 1 Procedure Room Sys-3 Flr-3 Sch-H HPlcmt-north ZN NECB System 3 PSZAvailability Manager List, !- Availability Manager List Name\n   ** Warning ** IP: IDF line~57565 Alpha Argument length exceeds maximum, will be truncated=  Sp-Floor 1 Procedure Room Sys-3 Flr-3 Sch-H HPlcmt-north ZN NECB System 3 PSZAvailability Manager Lis\n   **   ~~~   ** Will be processed as Alpha=SP-FLOOR 1 PROCEDURE ROOM SYS-3 FLR-3 SCH-H HPLCMT-NORTH ZN NECB SYSTEM 3 PSZAVAILABILITY MANAGER LIST\n   ************* IDF Context for following error/warning message:\n   ************* Note -- lines truncated at 300 characters, if necessary...\n   *************  57621 AvailabilityManagerAssignmentList,\n   ************* indicated Name=Sp-Floor 1 Procedure Room Sys-3 Flr-3 Sch-H HPlcmt-north ZN NECB System 3 PSZAvailability Manager List\n   ************* Only last 1 lines before error line shown.....\n   *************  57622   Sp-Floor 1 Procedure Room Sys-3 Flr-3 Sch-H HPlcmt-north ZN NECB System 3 PSZAvailability Manager List, !- Name\n   ** Warning ** IP: IDF line~57622 Alpha Argument length exceeds maximum, will be truncated=  Sp-Floor 1 Procedure Room Sys-3 Flr-3 Sch-H HPlcmt-north ZN NECB System 3 PSZAvailability Manager Lis\n   **   ~~~   ** Will be processed as Alpha=SP-FLOOR 1 PROCEDURE ROOM SYS-3 FLR-3 SCH-H HPLCMT-NORTH ZN NECB SYSTEM 3 PSZAVAILABILITY MANAGER LIST\n   ************* IDF Context for following error/warning message:\n   ************* Note -- lines truncated at 300 characters, if necessary...\n   *************  58206 AirLoopHVAC,\n   ************* indicated Name=Sp-Floor 1 Recovery Room Sys-3 Flr-3 Sch-H HPlcmt-south ZN NECB System 3 PSZ\n   ************* Only last 3 lines before error line shown.....\n   *************  58207   Sp-Floor 1 Recovery Room Sys-3 Flr-3 Sch-H HPlcmt-south ZN NECB System 3 PSZ, !- Name\n   *************  58208   ,                                       !- Controller List Name\n   *************  58209   Sp-Floor 1 Recovery Room Sys-3 Flr-3 Sch-H HPlcmt-south ZN NECB System 3 PSZAvailability Manager List, !- Availability Manager List Name\n   ** Warning ** IP: IDF line~58209 Alpha Argument length exceeds maximum, will be truncated=  Sp-Floor 1 Recovery Room Sys-3 Flr-3 Sch-H HPlcmt-south ZN NECB System 3 PSZAvailability Manager Lis\n   **   ~~~   ** Will be processed as Alpha=SP-FLOOR 1 RECOVERY ROOM SYS-3 FLR-3 SCH-H HPLCMT-SOUTH ZN NECB SYSTEM 3 PSZAVAILABILITY MANAGER LIST\n   ************* IDF Context for following error/warning message:\n   ************* Note -- lines truncated at 300 characters, if necessary...\n   *************  58265 AvailabilityManagerAssignmentList,\n   ************* indicated Name=Sp-Floor 1 Recovery Room Sys-3 Flr-3 Sch-H HPlcmt-south ZN NECB System 3 PSZAvailability Manager List\n   ************* Only last 1 lines before error line shown.....\n   *************  58266   Sp-Floor 1 Recovery Room Sys-3 Flr-3 Sch-H HPlcmt-south ZN NECB System 3 PSZAvailability Manager List, !- Name\n   ** Warning ** IP: IDF line~58266 Alpha Argument length exceeds maximum, will be truncated=  Sp-Floor 1 Recovery Room Sys-3 Flr-3 Sch-H HPlcmt-south ZN NECB System 3 PSZAvailability Manager Lis\n   **   ~~~   ** Will be processed as Alpha=SP-FLOOR 1 RECOVERY ROOM SYS-3 FLR-3 SCH-H HPLCMT-SOUTH ZN NECB SYSTEM 3 PSZAVAILABILITY MANAGER LIST\n   ************* IDF Context for following error/warning message:\n   ************* Note -- lines truncated at 300 characters, if necessary...\n   *************  60460 AirLoopHVAC,\n   ************* indicated Name=Sp-Floor 1 Sterile Storage Sys-4 Flr-3 Sch-E HPlcmt-core ZN NECB System 4 PSZ\n   ************* Only last 3 lines before error line shown.....\n   *************  60461   Sp-Floor 1 Sterile Storage Sys-4 Flr-3 Sch-E HPlcmt-core ZN NECB System 4 PSZ, !- Name\n   *************  60462   ,                                       !- Controller List Name\n   *************  60463   Sp-Floor 1 Sterile Storage Sys-4 Flr-3 Sch-E HPlcmt-core ZN NECB System 4 PSZAvailability Manager List, !- Availability Manager List Name\n   ** Warning ** IP: IDF line~60463 Alpha Argument length exceeds maximum, will be truncated=  Sp-Floor 1 Sterile Storage Sys-4 Flr-3 Sch-E HPlcmt-core ZN NECB System 4 PSZAvailability Manager Lis\n   **   ~~~   ** Will be processed as Alpha=SP-FLOOR 1 STERILE STORAGE SYS-4 FLR-3 SCH-E HPLCMT-CORE ZN NECB SYSTEM 4 PSZAVAILABILITY MANAGER LIST\n   ************* IDF Context for following error/warning message:\n   ************* Note -- lines truncated at 300 characters, if necessary...\n   *************  60519 AvailabilityManagerAssignmentList,\n   ************* indicated Name=Sp-Floor 1 Sterile Storage Sys-4 Flr-3 Sch-E HPlcmt-core ZN NECB System 4 PSZAvailability Manager List\n   ************* Only last 1 lines before error line shown.....\n   *************  60520   Sp-Floor 1 Sterile Storage Sys-4 Flr-3 Sch-E HPlcmt-core ZN NECB System 4 PSZAvailability Manager List, !- Name\n   ** Warning ** IP: IDF line~60520 Alpha Argument length exceeds maximum, will be truncated=  Sp-Floor 1 Sterile Storage Sys-4 Flr-3 Sch-E HPlcmt-core ZN NECB System 4 PSZAvailability Manager Lis\n   **   ~~~   ** Will be processed as Alpha=SP-FLOOR 1 STERILE STORAGE SYS-4 FLR-3 SCH-E HPLCMT-CORE ZN NECB SYSTEM 4 PSZAVAILABILITY MANAGER LIST\n   ************* IDF Context for following error/warning message:\n   ************* Note -- lines truncated at 300 characters, if necessary...\n   *************  61748 AirLoopHVAC,\n   ************* indicated Name=Sp-Floor 1 Utility Janitor Sys-4 Flr-3 Sch-E HPlcmt-core ZN NECB System 4 PSZ\n   ************* Only last 3 lines before error line shown.....\n   *************  61749   Sp-Floor 1 Utility Janitor Sys-4 Flr-3 Sch-E HPlcmt-core ZN NECB System 4 PSZ, !- Name\n   *************  61750   ,                                       !- Controller List Name\n   *************  61751   Sp-Floor 1 Utility Janitor Sys-4 Flr-3 Sch-E HPlcmt-core ZN NECB System 4 PSZAvailability Manager List, !- Availability Manager List Name\n   ** Warning ** IP: IDF line~61751 Alpha Argument length exceeds maximum, will be truncated=  Sp-Floor 1 Utility Janitor Sys-4 Flr-3 Sch-E HPlcmt-core ZN NECB System 4 PSZAvailability Manager Lis\n   **   ~~~   ** Will be processed as Alpha=SP-FLOOR 1 UTILITY JANITOR SYS-4 FLR-3 SCH-E HPLCMT-CORE ZN NECB SYSTEM 4 PSZAVAILABILITY MANAGER LIST\n   ************* IDF Context for following error/warning message:\n   ************* Note -- lines truncated at 300 characters, if necessary...\n   *************  61807 AvailabilityManagerAssignmentList,\n   ************* indicated Name=Sp-Floor 1 Utility Janitor Sys-4 Flr-3 Sch-E HPlcmt-core ZN NECB System 4 PSZAvailability Manager List\n   ************* Only last 1 lines before error line shown.....\n   *************  61808   Sp-Floor 1 Utility Janitor Sys-4 Flr-3 Sch-E HPlcmt-core ZN NECB System 4 PSZAvailability Manager List, !- Name\n   ** Warning ** IP: IDF line~61808 Alpha Argument length exceeds maximum, will be truncated=  Sp-Floor 1 Utility Janitor Sys-4 Flr-3 Sch-E HPlcmt-core ZN NECB System 4 PSZAvailability Manager Lis\n   **   ~~~   ** Will be processed as Alpha=SP-FLOOR 1 UTILITY JANITOR SYS-4 FLR-3 SCH-E HPLCMT-CORE ZN NECB SYSTEM 4 PSZAVAILABILITY MANAGER LIST\n   ************* IDF Context for following error/warning message:\n   ************* Note -- lines truncated at 300 characters, if necessary...\n   *************  63036 AirLoopHVAC,\n   ************* indicated Name=Sp-Floor 2 Conference Toilet Sys-3 Flr-1 Sch-H HPlcmt-core ZN NECB System 3 PSZ\n   ************* Only last 3 lines before error line shown.....\n   *************  63037   Sp-Floor 2 Conference Toilet Sys-3 Flr-1 Sch-H HPlcmt-core ZN NECB System 3 PSZ, !- Name\n   *************  63038   ,                                       !- Controller List Name\n   *************  63039   Sp-Floor 2 Conference Toilet Sys-3 Flr-1 Sch-H HPlcmt-core ZN NECB System 3 PSZAvailability Manager List, !- Availability Manager List Name\n   ** Warning ** IP: IDF line~63039 Alpha Argument length exceeds maximum, will be truncated=  Sp-Floor 2 Conference Toilet Sys-3 Flr-1 Sch-H HPlcmt-core ZN NECB System 3 PSZAvailability Manager Lis\n   **   ~~~   ** Will be processed as Alpha=SP-FLOOR 2 CONFERENCE TOILET SYS-3 FLR-1 SCH-H HPLCMT-CORE ZN NECB SYSTEM 3 PSZAVAILABILITY MANAGER LIST\n   ************* IDF Context for following error/warning message:\n   ************* Note -- lines truncated at 300 characters, if necessary...\n   *************  63095 AvailabilityManagerAssignmentList,\n   ************* indicated Name=Sp-Floor 2 Conference Toilet Sys-3 Flr-1 Sch-H HPlcmt-core ZN NECB System 3 PSZAvailability Manager List\n   ************* Only last 1 lines before error line shown.....\n   *************  63096   Sp-Floor 2 Conference Toilet Sys-3 Flr-1 Sch-H HPlcmt-core ZN NECB System 3 PSZAvailability Manager List, !- Name\n   ** Warning ** IP: IDF line~63096 Alpha Argument length exceeds maximum, will be truncated=  Sp-Floor 2 Conference Toilet Sys-3 Flr-1 Sch-H HPlcmt-core ZN NECB System 3 PSZAvailability Manager Lis\n   **   ~~~   ** Will be processed as Alpha=SP-FLOOR 2 CONFERENCE TOILET SYS-3 FLR-1 SCH-H HPLCMT-CORE ZN NECB SYSTEM 3 PSZAVAILABILITY MANAGER LIST\n   ************* IDF Context for following error/warning message:\n   ************* Note -- lines truncated at 300 characters, if necessary...\n   *************  68832 AirLoopHVAC,\n   ************* indicated Name=Sp-Floor 2 Nurse Station 1 Sys-3 Flr-1 Sch-H HPlcmt-core ZN NECB System 3 PSZ\n   ************* Only last 3 lines before error line shown.....\n   *************  68833   Sp-Floor 2 Nurse Station 1 Sys-3 Flr-1 Sch-H HPlcmt-core ZN NECB System 3 PSZ, !- Name\n   *************  68834   ,                                       !- Controller List Name\n   *************  68835   Sp-Floor 2 Nurse Station 1 Sys-3 Flr-1 Sch-H HPlcmt-core ZN NECB System 3 PSZAvailability Manager List, !- Availability Manager List Name\n   ** Warning ** IP: IDF line~68835 Alpha Argument length exceeds maximum, will be truncated=  Sp-Floor 2 Nurse Station 1 Sys-3 Flr-1 Sch-H HPlcmt-core ZN NECB System 3 PSZAvailability Manager Lis\n   **   ~~~   ** Will be processed as Alpha=SP-FLOOR 2 NURSE STATION 1 SYS-3 FLR-1 SCH-H HPLCMT-CORE ZN NECB SYSTEM 3 PSZAVAILABILITY MANAGER LIST\n   ************* IDF Context for following error/warning message:\n   ************* Note -- lines truncated at 300 characters, if necessary...\n   *************  68891 AvailabilityManagerAssignmentList,\n   ************* indicated Name=Sp-Floor 2 Nurse Station 1 Sys-3 Flr-1 Sch-H HPlcmt-core ZN NECB System 3 PSZAvailability Manager List\n   ************* Only last 1 lines before error line shown.....\n   *************  68892   Sp-Floor 2 Nurse Station 1 Sys-3 Flr-1 Sch-H HPlcmt-core ZN NECB System 3 PSZAvailability Manager List, !- Name\n   ** Warning ** IP: IDF line~68892 Alpha Argument length exceeds maximum, will be truncated=  Sp-Floor 2 Nurse Station 1 Sys-3 Flr-1 Sch-H HPlcmt-core ZN NECB System 3 PSZAvailability Manager Lis\n   **   ~~~   ** Will be processed as Alpha=SP-FLOOR 2 NURSE STATION 1 SYS-3 FLR-1 SCH-H HPLCMT-CORE ZN NECB SYSTEM 3 PSZAVAILABILITY MANAGER LIST\n   ************* IDF Context for following error/warning message:\n   ************* Note -- lines truncated at 300 characters, if necessary...\n   *************  69154 AirLoopHVAC,\n   ************* indicated Name=Sp-Floor 2 Nurse Station 2 Sys-3 Flr-1 Sch-H HPlcmt-core ZN NECB System 3 PSZ\n   ************* Only last 3 lines before error line shown.....\n   *************  69155   Sp-Floor 2 Nurse Station 2 Sys-3 Flr-1 Sch-H HPlcmt-core ZN NECB System 3 PSZ, !- Name\n   *************  69156   ,                                       !- Controller List Name\n   *************  69157   Sp-Floor 2 Nurse Station 2 Sys-3 Flr-1 Sch-H HPlcmt-core ZN NECB System 3 PSZAvailability Manager List, !- Availability Manager List Name\n   ** Warning ** IP: IDF line~69157 Alpha Argument length exceeds maximum, will be truncated=  Sp-Floor 2 Nurse Station 2 Sys-3 Flr-1 Sch-H HPlcmt-core ZN NECB System 3 PSZAvailability Manager Lis\n   **   ~~~   ** Will be processed as Alpha=SP-FLOOR 2 NURSE STATION 2 SYS-3 FLR-1 SCH-H HPLCMT-CORE ZN NECB SYSTEM 3 PSZAVAILABILITY MANAGER LIST\n   ************* IDF Context for following error/warning message:\n   ************* Note -- lines truncated at 300 characters, if necessary...\n   *************  69213 AvailabilityManagerAssignmentList,\n   ************* indicated Name=Sp-Floor 2 Nurse Station 2 Sys-3 Flr-1 Sch-H HPlcmt-core ZN NECB System 3 PSZAvailability Manager List\n   ************* Only last 1 lines before error line shown.....\n   *************  69214   Sp-Floor 2 Nurse Station 2 Sys-3 Flr-1 Sch-H HPlcmt-core ZN NECB System 3 PSZAvailability Manager List, !- Name\n   ** Warning ** IP: IDF line~69214 Alpha Argument length exceeds maximum, will be truncated=  Sp-Floor 2 Nurse Station 2 Sys-3 Flr-1 Sch-H HPlcmt-core ZN NECB System 3 PSZAvailability Manager Lis\n   **   ~~~   ** Will be processed as Alpha=SP-FLOOR 2 NURSE STATION 2 SYS-3 FLR-1 SCH-H HPLCMT-CORE ZN NECB SYSTEM 3 PSZAVAILABILITY MANAGER LIST\n   ************* IDF Context for following error/warning message:\n   ************* Note -- lines truncated at 300 characters, if necessary...\n   *************  69476 AirLoopHVAC,\n   ************* indicated Name=Sp-Floor 2 Reception Hall Sys-3 Flr-1 Sch-H HPlcmt-south ZN NECB System 3 PSZ\n   ************* Only last 3 lines before error line shown.....\n   *************  69477   Sp-Floor 2 Reception Hall Sys-3 Flr-1 Sch-H HPlcmt-south ZN NECB System 3 PSZ, !- Name\n   *************  69478   ,                                       !- Controller List Name\n   *************  69479   Sp-Floor 2 Reception Hall Sys-3 Flr-1 Sch-H HPlcmt-south ZN NECB System 3 PSZAvailability Manager List, !- Availability Manager List Name\n   ** Warning ** IP: IDF line~69479 Alpha Argument length exceeds maximum, will be truncated=  Sp-Floor 2 Reception Hall Sys-3 Flr-1 Sch-H HPlcmt-south ZN NECB System 3 PSZAvailability Manager Lis\n   **   ~~~   ** Will be processed as Alpha=SP-FLOOR 2 RECEPTION HALL SYS-3 FLR-1 SCH-H HPLCMT-SOUTH ZN NECB SYSTEM 3 PSZAVAILABILITY MANAGER LIST\n   ************* IDF Context for following error/warning message:\n   ************* Note -- lines truncated at 300 characters, if necessary...\n   *************  69535 AvailabilityManagerAssignmentList,\n   ************* indicated Name=Sp-Floor 2 Reception Hall Sys-3 Flr-1 Sch-H HPlcmt-south ZN NECB System 3 PSZAvailability Manager List\n   ************* Only last 1 lines before error line shown.....\n   *************  69536   Sp-Floor 2 Reception Hall Sys-3 Flr-1 Sch-H HPlcmt-south ZN NECB System 3 PSZAvailability Manager List, !- Name\n   ** Warning ** IP: IDF line~69536 Alpha Argument length exceeds maximum, will be truncated=  Sp-Floor 2 Reception Hall Sys-3 Flr-1 Sch-H HPlcmt-south ZN NECB System 3 PSZAvailability Manager Lis\n   **   ~~~   ** Will be processed as Alpha=SP-FLOOR 2 RECEPTION HALL SYS-3 FLR-1 SCH-H HPLCMT-SOUTH ZN NECB SYSTEM 3 PSZAVAILABILITY MANAGER LIST\n   ************* IDF Context for following error/warning message:\n   ************* Note -- lines truncated at 300 characters, if necessary...\n   *************  72696 AirLoopHVAC,\n   ************* indicated Name=Sp-Floor 3 Mechanical Hall Sys-3 Flr-2 Sch-H HPlcmt-core ZN NECB System 3 PSZ\n   ************* Only last 3 lines before error line shown.....\n   *************  72697   Sp-Floor 3 Mechanical Hall Sys-3 Flr-2 Sch-H HPlcmt-core ZN NECB System 3 PSZ, !- Name\n   *************  72698   ,                                       !- Controller List Name\n   *************  72699   Sp-Floor 3 Mechanical Hall Sys-3 Flr-2 Sch-H HPlcmt-core ZN NECB System 3 PSZAvailability Manager List, !- Availability Manager List Name\n   ** Warning ** IP: IDF line~72699 Alpha Argument length exceeds maximum, will be truncated=  Sp-Floor 3 Mechanical Hall Sys-3 Flr-2 Sch-H HPlcmt-core ZN NECB System 3 PSZAvailability Manager Lis\n   **   ~~~   ** Will be processed as Alpha=SP-FLOOR 3 MECHANICAL HALL SYS-3 FLR-2 SCH-H HPLCMT-CORE ZN NECB SYSTEM 3 PSZAVAILABILITY MANAGER LIST\n   ************* IDF Context for following error/warning message:\n   ************* Note -- lines truncated at 300 characters, if necessary...\n   *************  72755 AvailabilityManagerAssignmentList,\n   ************* indicated Name=Sp-Floor 3 Mechanical Hall Sys-3 Flr-2 Sch-H HPlcmt-core ZN NECB System 3 PSZAvailability Manager List\n   ************* Only last 1 lines before error line shown.....\n   *************  72756   Sp-Floor 3 Mechanical Hall Sys-3 Flr-2 Sch-H HPlcmt-core ZN NECB System 3 PSZAvailability Manager List, !- Name\n   ** Warning ** IP: IDF line~72756 Alpha Argument length exceeds maximum, will be truncated=  Sp-Floor 3 Mechanical Hall Sys-3 Flr-2 Sch-H HPlcmt-core ZN NECB System 3 PSZAvailability Manager Lis\n   **   ~~~   ** Will be processed as Alpha=SP-FLOOR 3 MECHANICAL HALL SYS-3 FLR-2 SCH-H HPLCMT-CORE ZN NECB SYSTEM 3 PSZAVAILABILITY MANAGER LIST\n   ************* IDF Context for following error/warning message:\n   ************* Note -- lines truncated at 300 characters, if necessary...\n   *************  73662 AirLoopHVAC,\n   ************* indicated Name=Sp-Floor 3 Physical Therapy 1 Sys-3 Flr-2 Sch-C HPlcmt-south ZN NECB System 3 PSZ\n   ************* Only last 3 lines before error line shown.....\n   *************  73663   Sp-Floor 3 Physical Therapy 1 Sys-3 Flr-2 Sch-C HPlcmt-south ZN NECB System 3 PSZ, !- Name\n   *************  73664   ,                                       !- Controller List Name\n   *************  73665   Sp-Floor 3 Physical Therapy 1 Sys-3 Flr-2 Sch-C HPlcmt-south ZN NECB System 3 PSZAvailability Manager List, !- Availability Manager List Name\n   ** Warning ** IP: IDF line~73665 Alpha Argument length exceeds maximum, will be truncated=  Sp-Floor 3 Physical Therapy 1 Sys-3 Flr-2 Sch-C HPlcmt-south ZN NECB System 3 PSZAvailability Manager Lis\n   **   ~~~   ** Will be processed as Alpha=SP-FLOOR 3 PHYSICAL THERAPY 1 SYS-3 FLR-2 SCH-C HPLCMT-SOUTH ZN NECB SYSTEM 3 PSZAVAILABILITY MANAGER LIST\n   ************* IDF Context for following error/warning message:\n   ************* Note -- lines truncated at 300 characters, if necessary...\n   *************  73662 AirLoopHVAC,\n   ************* indicated Name=Sp-Floor 3 Physical Therapy 1 Sys-3 Flr-2 Sch-C HPlcmt-south ZN NECB System 3 PSZ\n   ************* Only last 10 lines before error line shown.....\n   *************  73663   Sp-Floor 3 Physical Therapy 1 Sys-3 Flr-2 Sch-C HPlcmt-south ZN NECB System 3 PSZ, !- Name\n   *************  73664   ,                                       !- Controller List Name\n   *************  73665   Sp-Floor 3 Physical Therapy 1 Sys-3 Flr-2 Sch-C HPlcmt-south ZN NECB System 3 PSZAvailability Manager List, !- Availability Manager List Name\n   *************  73666   AutoSize,                               !- Design Supply Air Flow Rate {m3/s}\n   *************  73667   Sp-Floor 3 Physical Therapy 1 Sys-3 Flr-2 Sch-C HPlcmt-south ZN NECB System 3 PSZ Supply Branches, !- Branch List Name\n   *************  73668   ,                                       !- Connector List Name\n   *************  73669   Node 372,                               !- Supply Side Inlet Node Name\n   *************  73670   Node 375,                               !- Demand Side Outlet Node Name\n   *************  73671   Sp-Floor 3 Physical Therapy 1 Sys-3 Flr-2 Sch-C HPlcmt-south ZN NECB System 3 PSZ Demand Inlet Nodes, !- Demand Side Inlet Node Names\n   *************  73672   Sp-Floor 3 Physical Therapy 1 Sys-3 Flr-2 Sch-C HPlcmt-south ZN NECB System 3 PSZ Supply Outlet Nodes; !- Supply Side Outlet Node Names\n   ** Warning ** IP: IDF line~73672 Alpha Argument length exceeds maximum, will be truncated=  Sp-Floor 3 Physical Therapy 1 Sys-3 Flr-2 Sch-C HPlcmt-south ZN NECB System 3 PSZ Supply Outlet Node\n   **   ~~~   ** Will be processed as Alpha=SP-FLOOR 3 PHYSICAL THERAPY 1 SYS-3 FLR-2 SCH-C HPLCMT-SOUTH ZN NECB SYSTEM 3 PSZ SUPPLY OUTLET NODES\n   ************* IDF Context for following error/warning message:\n   ************* Note -- lines truncated at 300 characters, if necessary...\n   *************  73674 NodeList,\n   ************* indicated Name=Sp-Floor 3 Physical Therapy 1 Sys-3 Flr-2 Sch-C HPlcmt-south ZN NECB System 3 PSZ Supply Outlet Nodes\n   ************* Only last 1 lines before error line shown.....\n   *************  73675   Sp-Floor 3 Physical Therapy 1 Sys-3 Flr-2 Sch-C HPlcmt-south ZN NECB System 3 PSZ Supply Outlet Nodes, !- Name\n   ** Warning ** IP: IDF line~73675 Alpha Argument length exceeds maximum, will be truncated=  Sp-Floor 3 Physical Therapy 1 Sys-3 Flr-2 Sch-C HPlcmt-south ZN NECB System 3 PSZ Supply Outlet Node\n   **   ~~~   ** Will be processed as Alpha=SP-FLOOR 3 PHYSICAL THERAPY 1 SYS-3 FLR-2 SCH-C HPLCMT-SOUTH ZN NECB SYSTEM 3 PSZ SUPPLY OUTLET NODES\n   ************* IDF Context for following error/warning message:\n   ************* Note -- lines truncated at 300 characters, if necessary...\n   *************  73721 AvailabilityManagerAssignmentList,\n   ************* indicated Name=Sp-Floor 3 Physical Therapy 1 Sys-3 Flr-2 Sch-C HPlcmt-south ZN NECB System 3 PSZAvailability Manager List\n   ************* Only last 1 lines before error line shown.....\n   *************  73722   Sp-Floor 3 Physical Therapy 1 Sys-3 Flr-2 Sch-C HPlcmt-south ZN NECB System 3 PSZAvailability Manager List, !- Name\n   ** Warning ** IP: IDF line~73722 Alpha Argument length exceeds maximum, will be truncated=  Sp-Floor 3 Physical Therapy 1 Sys-3 Flr-2 Sch-C HPlcmt-south ZN NECB System 3 PSZAvailability Manager Lis\n   **   ~~~   ** Will be processed as Alpha=SP-FLOOR 3 PHYSICAL THERAPY 1 SYS-3 FLR-2 SCH-C HPLCMT-SOUTH ZN NECB SYSTEM 3 PSZAVAILABILITY MANAGER LIST\n   ************* IDF Context for following error/warning message:\n   ************* Note -- lines truncated at 300 characters, if necessary...\n   *************  73966 AirLoopHVAC:SupplyPath,\n   ************* indicated Name=Sp-Floor 3 Physical Therapy 1 Sys-3 Flr-2 Sch-C HPlcmt-south ZN NECB System 3 PSZ Node 374 Supply Path\n   ************* Only last 1 lines before error line shown.....\n   *************  73967   Sp-Floor 3 Physical Therapy 1 Sys-3 Flr-2 Sch-C HPlcmt-south ZN NECB System 3 PSZ Node 374 Supply Path, !- Name\n   ** Warning ** IP: IDF line~73967 Alpha Argument length exceeds maximum, will be truncated=  Sp-Floor 3 Physical Therapy 1 Sys-3 Flr-2 Sch-C HPlcmt-south ZN NECB System 3 PSZ Node 374 Supply Pat\n   **   ~~~   ** Will be processed as Alpha=SP-FLOOR 3 PHYSICAL THERAPY 1 SYS-3 FLR-2 SCH-C HPLCMT-SOUTH ZN NECB SYSTEM 3 PSZ NODE 374 SUPPLY PATH\n   ************* IDF Context for following error/warning message:\n   ************* Note -- lines truncated at 300 characters, if necessary...\n   *************  73988 AirLoopHVAC,\n   ************* indicated Name=Sp-Floor 3 Physical Therapy 2 Sys-3 Flr-2 Sch-C HPlcmt-core ZN NECB System 3 PSZ\n   ************* Only last 3 lines before error line shown.....\n   *************  73989   Sp-Floor 3 Physical Therapy 2 Sys-3 Flr-2 Sch-C HPlcmt-core ZN NECB System 3 PSZ, !- Name\n   *************  73990   ,                                       !- Controller List Name\n   *************  73991   Sp-Floor 3 Physical Therapy 2 Sys-3 Flr-2 Sch-C HPlcmt-core ZN NECB System 3 PSZAvailability Manager List, !- Availability Manager List Name\n   ** Warning ** IP: IDF line~73991 Alpha Argument length exceeds maximum, will be truncated=  Sp-Floor 3 Physical Therapy 2 Sys-3 Flr-2 Sch-C HPlcmt-core ZN NECB System 3 PSZAvailability Manager Lis\n   **   ~~~   ** Will be processed as Alpha=SP-FLOOR 3 PHYSICAL THERAPY 2 SYS-3 FLR-2 SCH-C HPLCMT-CORE ZN NECB SYSTEM 3 PSZAVAILABILITY MANAGER LIST\n   ************* IDF Context for following error/warning message:\n   ************* Note -- lines truncated at 300 characters, if necessary...\n   *************  74047 AvailabilityManagerAssignmentList,\n   ************* indicated Name=Sp-Floor 3 Physical Therapy 2 Sys-3 Flr-2 Sch-C HPlcmt-core ZN NECB System 3 PSZAvailability Manager List\n   ************* Only last 1 lines before error line shown.....\n   *************  74048   Sp-Floor 3 Physical Therapy 2 Sys-3 Flr-2 Sch-C HPlcmt-core ZN NECB System 3 PSZAvailability Manager List, !- Name\n   ** Warning ** IP: IDF line~74048 Alpha Argument length exceeds maximum, will be truncated=  Sp-Floor 3 Physical Therapy 2 Sys-3 Flr-2 Sch-C HPlcmt-core ZN NECB System 3 PSZAvailability Manager Lis\n   **   ~~~   ** Will be processed as Alpha=SP-FLOOR 3 PHYSICAL THERAPY 2 SYS-3 FLR-2 SCH-C HPLCMT-CORE ZN NECB SYSTEM 3 PSZAVAILABILITY MANAGER LIST\n   ************* IDF Context for following error/warning message:\n   ************* Note -- lines truncated at 300 characters, if necessary...\n   *************  74047 AvailabilityManagerAssignmentList,\n   ************* indicated Name=Sp-Floor 3 Physical Therapy 2 Sys-3 Flr-2 Sch-C HPlcmt-core ZN NECB System 3 PSZAvailability Manager List\n   ************* Only last 3 lines before error line shown.....\n   *************  74048   Sp-Floor 3 Physical Therapy 2 Sys-3 Flr-2 Sch-C HPlcmt-core ZN NECB System 3 PSZAvailability Manager List, !- Name\n   *************  74049   AvailabilityManager:Scheduled,          !- Availability Manager Object Type 1\n   *************  74050   Sp-Floor 3 Physical Therapy 2 Sys-3 Flr-2 Sch-C HPlcmt-core ZN NECB System 3 PSZ Availability Manager; !- Availability Manager Name 1\n   ** Warning ** IP: IDF line~74050 Alpha Argument length exceeds maximum, will be truncated=  Sp-Floor 3 Physical Therapy 2 Sys-3 Flr-2 Sch-C HPlcmt-core ZN NECB System 3 PSZ Availability Manage\n   **   ~~~   ** Will be processed as Alpha=SP-FLOOR 3 PHYSICAL THERAPY 2 SYS-3 FLR-2 SCH-C HPLCMT-CORE ZN NECB SYSTEM 3 PSZ AVAILABILITY MANAGER\n   ************* IDF Context for following error/warning message:\n   ************* Note -- lines truncated at 300 characters, if necessary...\n   *************  74052 AvailabilityManager:Scheduled,\n   ************* indicated Name=Sp-Floor 3 Physical Therapy 2 Sys-3 Flr-2 Sch-C HPlcmt-core ZN NECB System 3 PSZ Availability Manager\n   ************* Only last 1 lines before error line shown.....\n   *************  74053   Sp-Floor 3 Physical Therapy 2 Sys-3 Flr-2 Sch-C HPlcmt-core ZN NECB System 3 PSZ Availability Manager, !- Name\n   ** Warning ** IP: IDF line~74053 Alpha Argument length exceeds maximum, will be truncated=  Sp-Floor 3 Physical Therapy 2 Sys-3 Flr-2 Sch-C HPlcmt-core ZN NECB System 3 PSZ Availability Manage\n   **   ~~~   ** Will be processed as Alpha=SP-FLOOR 3 PHYSICAL THERAPY 2 SYS-3 FLR-2 SCH-C HPLCMT-CORE ZN NECB SYSTEM 3 PSZ AVAILABILITY MANAGER\n   ************* IDF Context for following error/warning message:\n   ************* Note -- lines truncated at 300 characters, if necessary...\n   *************  74288 AirLoopHVAC:SupplyPath,\n   ************* indicated Name=Sp-Floor 3 Physical Therapy 2 Sys-3 Flr-2 Sch-C HPlcmt-core ZN NECB System 3 PSZ Node 385 Supply Path\n   ************* Only last 1 lines before error line shown.....\n   *************  74289   Sp-Floor 3 Physical Therapy 2 Sys-3 Flr-2 Sch-C HPlcmt-core ZN NECB System 3 PSZ Node 385 Supply Path, !- Name\n   ** Warning ** IP: IDF line~74289 Alpha Argument length exceeds maximum, will be truncated=  Sp-Floor 3 Physical Therapy 2 Sys-3 Flr-2 Sch-C HPlcmt-core ZN NECB System 3 PSZ Node 385 Supply Pat\n   **   ~~~   ** Will be processed as Alpha=SP-FLOOR 3 PHYSICAL THERAPY 2 SYS-3 FLR-2 SCH-C HPLCMT-CORE ZN NECB SYSTEM 3 PSZ NODE 385 SUPPLY PATH\n   ************* IDF Context for following error/warning message:\n   ************* Note -- lines truncated at 300 characters, if necessary...\n   *************  75276 AirLoopHVAC,\n   ************* indicated Name=Sp-Floor 3 Undeveloped 1 Sys-4 Flr-2 Sch-E HPlcmt-south ZN NECB System 4 PSZ\n   ************* Only last 3 lines before error line shown.....\n   *************  75277   Sp-Floor 3 Undeveloped 1 Sys-4 Flr-2 Sch-E HPlcmt-south ZN NECB System 4 PSZ, !- Name\n   *************  75278   ,                                       !- Controller List Name\n   *************  75279   Sp-Floor 3 Undeveloped 1 Sys-4 Flr-2 Sch-E HPlcmt-south ZN NECB System 4 PSZAvailability Manager List, !- Availability Manager List Name\n   ** Warning ** IP: IDF line~75279 Alpha Argument length exceeds maximum, will be truncated=  Sp-Floor 3 Undeveloped 1 Sys-4 Flr-2 Sch-E HPlcmt-south ZN NECB System 4 PSZAvailability Manager Lis\n   **   ~~~   ** Will be processed as Alpha=SP-FLOOR 3 UNDEVELOPED 1 SYS-4 FLR-2 SCH-E HPLCMT-SOUTH ZN NECB SYSTEM 4 PSZAVAILABILITY MANAGER LIST\n   ************* IDF Context for following error/warning message:\n   ************* Note -- lines truncated at 300 characters, if necessary...\n   *************  75335 AvailabilityManagerAssignmentList,\n   ************* indicated Name=Sp-Floor 3 Undeveloped 1 Sys-4 Flr-2 Sch-E HPlcmt-south ZN NECB System 4 PSZAvailability Manager List\n   ************* Only last 1 lines before error line shown.....\n   *************  75336   Sp-Floor 3 Undeveloped 1 Sys-4 Flr-2 Sch-E HPlcmt-south ZN NECB System 4 PSZAvailability Manager List, !- Name\n   ** Warning ** IP: IDF line~75336 Alpha Argument length exceeds maximum, will be truncated=  Sp-Floor 3 Undeveloped 1 Sys-4 Flr-2 Sch-E HPlcmt-south ZN NECB System 4 PSZAvailability Manager Lis\n   **   ~~~   ** Will be processed as Alpha=SP-FLOOR 3 UNDEVELOPED 1 SYS-4 FLR-2 SCH-E HPLCMT-SOUTH ZN NECB SYSTEM 4 PSZAVAILABILITY MANAGER LIST\n   ************* IDF Context for following error/warning message:\n   ************* Note -- lines truncated at 300 characters, if necessary...\n   *************  75602 AirLoopHVAC,\n   ************* indicated Name=Sp-Floor 3 Undeveloped 2 Sys-4 Flr-2 Sch-E HPlcmt-south ZN NECB System 4 PSZ\n   ************* Only last 3 lines before error line shown.....\n   *************  75603   Sp-Floor 3 Undeveloped 2 Sys-4 Flr-2 Sch-E HPlcmt-south ZN NECB System 4 PSZ, !- Name\n   *************  75604   ,                                       !- Controller List Name\n   *************  75605   Sp-Floor 3 Undeveloped 2 Sys-4 Flr-2 Sch-E HPlcmt-south ZN NECB System 4 PSZAvailability Manager List, !- Availability Manager List Name\n   ** Warning ** IP: IDF line~75605 Alpha Argument length exceeds maximum, will be truncated=  Sp-Floor 3 Undeveloped 2 Sys-4 Flr-2 Sch-E HPlcmt-south ZN NECB System 4 PSZAvailability Manager Lis\n   **   ~~~   ** Will be processed as Alpha=SP-FLOOR 3 UNDEVELOPED 2 SYS-4 FLR-2 SCH-E HPLCMT-SOUTH ZN NECB SYSTEM 4 PSZAVAILABILITY MANAGER LIST\n   ************* IDF Context for following error/warning message:\n   ************* Note -- lines truncated at 300 characters, if necessary...\n   *************  75661 AvailabilityManagerAssignmentList,\n   ************* indicated Name=Sp-Floor 3 Undeveloped 2 Sys-4 Flr-2 Sch-E HPlcmt-south ZN NECB System 4 PSZAvailability Manager List\n   ************* Only last 1 lines before error line shown.....\n   *************  75662   Sp-Floor 3 Undeveloped 2 Sys-4 Flr-2 Sch-E HPlcmt-south ZN NECB System 4 PSZAvailability Manager List, !- Name\n   ** Warning ** IP: IDF line~75662 Alpha Argument length exceeds maximum, will be truncated=  Sp-Floor 3 Undeveloped 2 Sys-4 Flr-2 Sch-E HPlcmt-south ZN NECB System 4 PSZAvailability Manager Lis\n   **   ~~~   ** Will be processed as Alpha=SP-FLOOR 3 UNDEVELOPED 2 SYS-4 FLR-2 SCH-E HPLCMT-SOUTH ZN NECB SYSTEM 4 PSZAVAILABILITY MANAGER LIST\n   ************* Beginning Zone Sizing Calculations\n   ** Warning ** ProcessScheduleInput: Schedule:Day:Interval=\"ECONOMIZER MAX OA FRACTION 100 PCT DEFAULT\", Blank Schedule Type Limits Name input -- will not be validated.\n   ** Warning ** ProcessScheduleInput: Schedule:Day:Interval=\"SCHEDULE DAY 1\", Blank Schedule Type Limits Name input -- will not be validated.\n   ** Warning ** ProcessScheduleInput: Schedule:Day:Interval=\"SCHEDULE DAY 10\", Blank Schedule Type Limits Name input -- will not be validated.\n   ** Warning ** ProcessScheduleInput: Schedule:Day:Interval=\"SCHEDULE DAY 100\", Blank Schedule Type Limits Name input -- will not be validated.\n   ** Warning ** ProcessScheduleInput: Schedule:Day:Interval=\"SCHEDULE DAY 101\", Blank Schedule Type Limits Name input -- will not be validated.\n   ** Warning ** ProcessScheduleInput: Schedule:Day:Interval=\"SCHEDULE DAY 102\", Blank Schedule Type Limits Name input -- will not be validated.\n   ** Warning ** ProcessScheduleInput: Schedule:Day:Interval=\"SCHEDULE DAY 103\", Blank Schedule Type Limits Name input -- will not be validated.\n   ** Warning ** ProcessScheduleInput: Schedule:Day:Interval=\"SCHEDULE DAY 104\", Blank Schedule Type Limits Name input -- will not be validated.\n   ** Warning ** ProcessScheduleInput: Schedule:Day:Interval=\"SCHEDULE DAY 105\", Blank Schedule Type Limits Name input -- will not be validated.\n   ** Warning ** ProcessScheduleInput: Schedule:Day:Interval=\"SCHEDULE DAY 106\", Blank Schedule Type Limits Name input -- will not be validated.\n   ** Warning ** ProcessScheduleInput: Schedule:Day:Interval=\"SCHEDULE DAY 107\", Blank Schedule Type Limits Name input -- will not be validated.\n   ** Warning ** ProcessScheduleInput: Schedule:Day:Interval=\"SCHEDULE DAY 108\", Blank Schedule Type Limits Name input -- will not be validated.\n   ** Warning ** ProcessScheduleInput: Schedule:Day:Interval=\"SCHEDULE DAY 109\", Blank Schedule Type Limits Name input -- will not be validated.\n   ** Warning ** ProcessScheduleInput: Schedule:Day:Interval=\"SCHEDULE DAY 11\", Blank Schedule Type Limits Name input -- will not be validated.\n   ** Warning ** ProcessScheduleInput: Schedule:Day:Interval=\"SCHEDULE DAY 110\", Blank Schedule Type Limits Name input -- will not be validated.\n   ** Warning ** ProcessScheduleInput: Schedule:Day:Interval=\"SCHEDULE DAY 111\", Blank Schedule Type Limits Name input -- will not be validated.\n   ** Warning ** ProcessScheduleInput: Schedule:Day:Interval=\"SCHEDULE DAY 112\", Blank Schedule Type Limits Name input -- will not be validated.\n   ** Warning ** ProcessScheduleInput: Schedule:Day:Interval=\"SCHEDULE DAY 113\", Blank Schedule Type Limits Name input -- will not be validated.\n   ** Warning ** ProcessScheduleInput: Schedule:Day:Interval=\"SCHEDULE DAY 114\", Blank Schedule Type Limits Name input -- will not be validated.\n   ** Warning ** ProcessScheduleInput: Schedule:Day:Interval=\"SCHEDULE DAY 115\", Blank Schedule Type Limits Name input -- will not be validated.\n   ** Warning ** ProcessScheduleInput: Schedule:Day:Interval=\"SCHEDULE DAY 116\", Blank Schedule Type Limits Name input -- will not be validated.\n   ** Warning ** ProcessScheduleInput: Schedule:Day:Interval=\"SCHEDULE DAY 117\", Blank Schedule Type Limits Name input -- will not be validated.\n   ** Warning ** ProcessScheduleInput: Schedule:Day:Interval=\"SCHEDULE DAY 118\", Blank Schedule Type Limits Name input -- will not be validated.\n   ** Warning ** ProcessScheduleInput: Schedule:Day:Interval=\"SCHEDULE DAY 119\", Blank Schedule Type Limits Name input -- will not be validated.\n   ** Warning ** ProcessScheduleInput: Schedule:Day:Interval=\"SCHEDULE DAY 12\", Blank Schedule Type Limits Name input -- will not be validated.\n   ** Warning ** ProcessScheduleInput: Schedule:Day:Interval=\"SCHEDULE DAY 120\", Blank Schedule Type Limits Name input -- will not be validated.\n   ** Warning ** ProcessScheduleInput: Schedule:Day:Interval=\"SCHEDULE DAY 121\", Blank Schedule Type Limits Name input -- will not be validated.\n   ** Warning ** ProcessScheduleInput: Schedule:Day:Interval=\"SCHEDULE DAY 122\", Blank Schedule Type Limits Name input -- will not be validated.\n   ** Warning ** ProcessScheduleInput: Schedule:Day:Interval=\"SCHEDULE DAY 123\", Blank Schedule Type Limits Name input -- will not be validated.\n   ** Warning ** ProcessScheduleInput: Schedule:Day:Interval=\"SCHEDULE DAY 124\", Blank Schedule Type Limits Name input -- will not be validated.\n   ** Warning ** ProcessScheduleInput: Schedule:Day:Interval=\"SCHEDULE DAY 125\", Blank Schedule Type Limits Name input -- will not be validated.\n   ** Warning ** ProcessScheduleInput: Schedule:Day:Interval=\"SCHEDULE DAY 126\", Blank Schedule Type Limits Name input -- will not be validated.\n   ** Warning ** ProcessScheduleInput: Schedule:Day:Interval=\"SCHEDULE DAY 127\", Blank Schedule Type Limits Name input -- will not be validated.\n   ** Warning ** ProcessScheduleInput: Schedule:Day:Interval=\"SCHEDULE DAY 128\", Blank Schedule Type Limits Name input -- will not be validated.\n   ** Warning ** ProcessScheduleInput: Schedule:Day:Interval=\"SCHEDULE DAY 129\", Blank Schedule Type Limits Name input -- will not be validated.\n   ** Warning ** ProcessScheduleInput: Schedule:Day:Interval=\"SCHEDULE DAY 13\", Blank Schedule Type Limits Name input -- will not be validated.\n   ** Warning ** ProcessScheduleInput: Schedule:Day:Interval=\"SCHEDULE DAY 130\", Blank Schedule Type Limits Name input -- will not be validated.\n   ** Warning ** ProcessScheduleInput: Schedule:Day:Interval=\"SCHEDULE DAY 131\", Blank Schedule Type Limits Name input -- will not be validated.\n   ** Warning ** ProcessScheduleInput: Schedule:Day:Interval=\"SCHEDULE DAY 132\", Blank Schedule Type Limits Name input -- will not be validated.\n   ** Warning ** ProcessScheduleInput: Schedule:Day:Interval=\"SCHEDULE DAY 133\", Blank Schedule Type Limits Name input -- will not be validated.\n   ** Warning ** ProcessScheduleInput: Schedule:Day:Interval=\"SCHEDULE DAY 134\", Blank Schedule Type Limits Name input -- will not be validated.\n   ** Warning ** ProcessScheduleInput: Schedule:Day:Interval=\"SCHEDULE DAY 135\", Blank Schedule Type Limits Name input -- will not be validated.\n   ** Warning ** ProcessScheduleInput: Schedule:Day:Interval=\"SCHEDULE DAY 136\", Blank Schedule Type Limits Name input -- will not be validated.\n   ** Warning ** ProcessScheduleInput: Schedule:Day:Interval=\"SCHEDULE DAY 137\", Blank Schedule Type Limits Name input -- will not be validated.\n   ** Warning ** ProcessScheduleInput: Schedule:Day:Interval=\"SCHEDULE DAY 138\", Blank Schedule Type Limits Name input -- will not be validated.\n   ** Warning ** ProcessScheduleInput: Schedule:Day:Interval=\"SCHEDULE DAY 139\", Blank Schedule Type Limits Name input -- will not be validated.\n   ** Warning ** ProcessScheduleInput: Schedule:Day:Interval=\"SCHEDULE DAY 14\", Blank Schedule Type Limits Name input -- will not be validated.\n   ** Warning ** ProcessScheduleInput: Schedule:Day:Interval=\"SCHEDULE DAY 140\", Blank Schedule Type Limits Name input -- will not be validated.\n   ** Warning ** ProcessScheduleInput: Schedule:Day:Interval=\"SCHEDULE DAY 141\", Blank Schedule Type Limits Name input -- will not be validated.\n   ** Warning ** ProcessScheduleInput: Schedule:Day:Interval=\"SCHEDULE DAY 142\", Blank Schedule Type Limits Name input -- will not be validated.\n   ** Warning ** ProcessScheduleInput: Schedule:Day:Interval=\"SCHEDULE DAY 143\", Blank Schedule Type Limits Name input -- will not be validated.\n   ** Warning ** ProcessScheduleInput: Schedule:Day:Interval=\"SCHEDULE DAY 144\", Blank Schedule Type Limits Name input -- will not be validated.\n   ** Warning ** ProcessScheduleInput: Schedule:Day:Interval=\"SCHEDULE DAY 145\", Blank Schedule Type Limits Name input -- will not be validated.\n   ** Warning ** ProcessScheduleInput: Schedule:Day:Interval=\"SCHEDULE DAY 146\", Blank Schedule Type Limits Name input -- will not be validated.\n   ** Warning ** ProcessScheduleInput: Schedule:Day:Interval=\"SCHEDULE DAY 147\", Blank Schedule Type Limits Name input -- will not be validated.\n   ** Warning ** ProcessScheduleInput: Schedule:Day:Interval=\"SCHEDULE DAY 148\", Blank Schedule Type Limits Name input -- will not be validated.\n   ** Warning ** ProcessScheduleInput: Schedule:Day:Interval=\"SCHEDULE DAY 149\", Blank Schedule Type Limits Name input -- will not be validated.\n   ** Warning ** ProcessScheduleInput: Schedule:Day:Interval=\"SCHEDULE DAY 15\", Blank Schedule Type Limits Name input -- will not be validated.\n   ** Warning ** ProcessScheduleInput: Schedule:Day:Interval=\"SCHEDULE DAY 150\", Blank Schedule Type Limits Name input -- will not be validated.\n   ** Warning ** ProcessScheduleInput: Schedule:Day:Interval=\"SCHEDULE DAY 151\", Blank Schedule Type Limits Name input -- will not be validated.\n   ** Warning ** ProcessScheduleInput: Schedule:Day:Interval=\"SCHEDULE DAY 152\", Blank Schedule Type Limits Name input -- will not be validated.\n   ** Warning ** ProcessScheduleInput: Schedule:Day:Interval=\"SCHEDULE DAY 153\", Blank Schedule Type Limits Name input -- will not be validated.\n   ** Warning ** ProcessScheduleInput: Schedule:Day:Interval=\"SCHEDULE DAY 154\", Blank Schedule Type Limits Name input -- will not be validated.\n   ** Warning ** ProcessScheduleInput: Schedule:Day:Interval=\"SCHEDULE DAY 155\", Blank Schedule Type Limits Name input -- will not be validated.\n   ** Warning ** ProcessScheduleInput: Schedule:Day:Interval=\"SCHEDULE DAY 156\", Blank Schedule Type Limits Name input -- will not be validated.\n   ** Warning ** ProcessScheduleInput: Schedule:Day:Interval=\"SCHEDULE DAY 157\", Blank Schedule Type Limits Name input -- will not be validated.\n   ** Warning ** ProcessScheduleInput: Schedule:Day:Interval=\"SCHEDULE DAY 158\", Blank Schedule Type Limits Name input -- will not be validated.\n   ** Warning ** ProcessScheduleInput: Schedule:Day:Interval=\"SCHEDULE DAY 159\", Blank Schedule Type Limits Name input -- will not be validated.\n   ** Warning ** ProcessScheduleInput: Schedule:Day:Interval=\"SCHEDULE DAY 16\", Blank Schedule Type Limits Name input -- will not be validated.\n   ** Warning ** ProcessScheduleInput: Schedule:Day:Interval=\"SCHEDULE DAY 160\", Blank Schedule Type Limits Name input -- will not be validated.\n   ** Warning ** ProcessScheduleInput: Schedule:Day:Interval=\"SCHEDULE DAY 161\", Blank Schedule Type Limits Name input -- will not be validated.\n   ** Warning ** ProcessScheduleInput: Schedule:Day:Interval=\"SCHEDULE DAY 162\", Blank Schedule Type Limits Name input -- will not be validated.\n   ** Warning ** ProcessScheduleInput: Schedule:Day:Interval=\"SCHEDULE DAY 163\", Blank Schedule Type Limits Name input -- will not be validated.\n   ** Warning ** ProcessScheduleInput: Schedule:Day:Interval=\"SCHEDULE DAY 164\", Blank Schedule Type Limits Name input -- will not be validated.\n   ** Warning ** ProcessScheduleInput: Schedule:Day:Interval=\"SCHEDULE DAY 165\", Blank Schedule Type Limits Name input -- will not be validated.\n   ** Warning ** ProcessScheduleInput: Schedule:Day:Interval=\"SCHEDULE DAY 166\", Blank Schedule Type Limits Name input -- will not be validated.\n   ** Warning ** ProcessScheduleInput: Schedule:Day:Interval=\"SCHEDULE DAY 167\", Blank Schedule Type Limits Name input -- will not be validated.\n   ** Warning ** ProcessScheduleInput: Schedule:Day:Interval=\"SCHEDULE DAY 168\", Blank Schedule Type Limits Name input -- will not be validated.\n   ** Warning ** ProcessScheduleInput: Schedule:Day:Interval=\"SCHEDULE DAY 169\", Blank Schedule Type Limits Name input -- will not be validated.\n   ** Warning ** ProcessScheduleInput: Schedule:Day:Interval=\"SCHEDULE DAY 17\", Blank Schedule Type Limits Name input -- will not be validated.\n   ** Warning ** ProcessScheduleInput: Schedule:Day:Interval=\"SCHEDULE DAY 170\", Blank Schedule Type Limits Name input -- will not be validated.\n   ** Warning ** ProcessScheduleInput: Schedule:Day:Interval=\"SCHEDULE DAY 171\", Blank Schedule Type Limits Name input -- will not be validated.\n   ** Warning ** ProcessScheduleInput: Schedule:Day:Interval=\"SCHEDULE DAY 172\", Blank Schedule Type Limits Name input -- will not be validated.\n   ** Warning ** ProcessScheduleInput: Schedule:Day:Interval=\"SCHEDULE DAY 173\", Blank Schedule Type Limits Name input -- will not be validated.\n   ** Warning ** ProcessScheduleInput: Schedule:Day:Interval=\"SCHEDULE DAY 174\", Blank Schedule Type Limits Name input -- will not be validated.\n   ** Warning ** ProcessScheduleInput: Schedule:Day:Interval=\"SCHEDULE DAY 175\", Blank Schedule Type Limits Name input -- will not be validated.\n   ** Warning ** ProcessScheduleInput: Schedule:Day:Interval=\"SCHEDULE DAY 176\", Blank Schedule Type Limits Name input -- will not be validated.\n   ** Warning ** ProcessScheduleInput: Schedule:Day:Interval=\"SCHEDULE DAY 177\", Blank Schedule Type Limits Name input -- will not be validated.\n   ** Warning ** ProcessScheduleInput: Schedule:Day:Interval=\"SCHEDULE DAY 178\", Blank Schedule Type Limits Name input -- will not be validated.\n   ** Warning ** ProcessScheduleInput: Schedule:Day:Interval=\"SCHEDULE DAY 179\", Blank Schedule Type Limits Name input -- will not be validated.\n   ** Warning ** ProcessScheduleInput: Schedule:Day:Interval=\"SCHEDULE DAY 18\", Blank Schedule Type Limits Name input -- will not be validated.\n   ** Warning ** ProcessScheduleInput: Schedule:Day:Interval=\"SCHEDULE DAY 180\", Blank Schedule Type Limits Name input -- will not be validated.\n   ** Warning ** ProcessScheduleInput: Schedule:Day:Interval=\"SCHEDULE DAY 181\", Blank Schedule Type Limits Name input -- will not be validated.\n   ** Warning ** ProcessScheduleInput: Schedule:Day:Interval=\"SCHEDULE DAY 182\", Blank Schedule Type Limits Name input -- will not be validated.\n   ** Warning ** ProcessScheduleInput: Schedule:Day:Interval=\"SCHEDULE DAY 183\", Blank Schedule Type Limits Name input -- will not be validated.\n   ** Warning ** ProcessScheduleInput: Schedule:Day:Interval=\"SCHEDULE DAY 184\", Blank Schedule Type Limits Name input -- will not be validated.\n   ** Warning ** ProcessScheduleInput: Schedule:Day:Interval=\"SCHEDULE DAY 185\", Blank Schedule Type Limits Name input -- will not be validated.\n   ** Warning ** ProcessScheduleInput: Schedule:Day:Interval=\"SCHEDULE DAY 186\", Blank Schedule Type Limits Name input -- will not be validated.\n   ** Warning ** ProcessScheduleInput: Schedule:Day:Int
[...]
KSkpSktZEuUQZx9LG5UeymlQ7TkX1xHU1tK7U3afPBj5NZnGzGuP38yCfD93acDCfjkU1yhQ0SDx8GjweDIApypeDjML0Oksl7Gww6G45MPly1ounUjgfNhovd2NtwwHK0ojSNm42bxn7Qa5c86DY7KCx+UJLejuwc7yAaX1xP4uz4xshelqBdaFxOxunBRzu8uk6dxvlkNCiuMb83L6YHT0eTSRx0gt+ub5PhRTQKXl7bOJq63494cZscdIKno/ggDF5cXB+cBj/+Nrp4nx4kk1l2U/7v1+DXs9Pv3dtS+95JvPi/4NnFhXvvgz3fbf7uYXIRD6fp38X3fPdwMPzw5WnxGFks0wqGg5PGhauB0+yyRcOxjd+E/XYjyC/mSWMwTKaj6PbRcDzK5g7OR5OLd982ZMBMdX4OQXo7zY531/Ph2+hDNH/Ve6QbH6LY5WtwEgyG76cj2xrbjy8+XDUbf/0C5H5w2G7n/7OxAJ3uIEqjTPjVH41RdG5HjUeNgb2MZqM0mMaTy+HINvbnM29uGo9Mq73f+BCNZnbx7wu3TmXHZEvP6enZWePTfiGdEKTTAekcgnS6IJ0eSKcP0jkC6RyDdEwbJYTKaINKaYPKaYNKaoPKaoNKa4PKa4NKbIPK7BCV2SFsrUZldojK7LBUZgfJ7P37tR+uLtTRYjsoISNeo3Iy4hUqJyNen3IyYt2XkxGrvpyMWPPlZMSKLycj1ns5GbmRldQB5bHcxkrqgDJZbmIldUC5LLewkjqgbJYbWEkdUD7L7aukDmpdBuWz3LtK6hTP54/DcVq+bZ27l4rriJenpI54eUrqiJenpI5Y7iV1xHIvqSOWe0kdsdxL6ojlXlJH7l9lhVAZLXewskKonJZ7WFkhVFbLXaysECqv5T5WVgiV2XInKysEW6tRmS03s7JCxTN79UnGxl8altpce+0/9OY/RQwIEW4/RGf7IQ63H6K7/RC97Yfobz/E0fZDHG8/xFpn31aMGurb1FDgpoYKNzWUuKmhxk0NRW5qqHJTQ5mbGuo8rKHOwzr6eA11HtZQ52G1Ot/4g47FtlXzX3wEhJDvBiyEfDNgIeR7AQshL7mwEPKKCwshL7iwEPJ6CwshL7ewEJ5PrnEx5I/+cDHkTwVxMeQPDHExaihxz7YKF6OGIvdsq3Axaihzz7YK1//kbRUuRh19vIZG7tlW4WJUq/ONv5tVbFs1/2EtQAj5bsBCyDcDFkK+F7AQ8pILCyGvuLAQ8oILCyGvt7AQ8nejYCE82ypcDHlbhYshb6twMeRtFS6G/BUtXAz5e4m4GPJXFnEx5G8z4mLIX3TExaihzj3bKlyMOvp4DY3cs63CxajWyjf+PEmxbdX890sAIeS7AQsh3wxYCPlewELI2ypYCHlbBQshb6tgIeRtFSyEvNzCQni2VbgY8rYKF0PeVuFiyNsqXAx5W4WLIW+rcDHkbRUuhrytwsWQt1W4GDXUuWdbhYtRRx+voZF7tlW4GNVa+UYX+GLbqrlNPCCEfDdgIeSbAQsh3wtYCHlbBQshb6tgIeRtFSyEvK2ChZCXW1gIz7YKF0PeVuFiyNsqXAx5W4WLIW+rcDHkbRUuhrytwsWQt1W4GPK2Chejhjr3bKtwMero4zU0cs+2ChejWivfaLZbbFs1d+MFhJDvBiyEfDNgIeR7AQshb6tgIeRtFSyEvK2ChZC3VbAQ8nILC+HZVuFiyNsqXAx5W4WLIW+rcDHkbRUuhrytwsWQt1W4GPK2ChdD3lbhYtRQ555tFS5GHX28hkbu2VbhYlRr5Rs9DYttq+amh4AQ8t2AhZBvBiyEfC9gIeRtFSyEvK2ChZC3VbAQ8rYKFsLnOwUK4TVbQ8XwuVWhYviMrFAxfB5XqBg++ytUDJ/nGyqGzw4OFcPnFIeK4TORQ8Wooc492ypcjDr6eA2N3LOtwsXY3MpfF3F4Xdg5ByfB2H5cOsjmxrHN5MPVfu4Au9EqdukJndj0+8lsPEia3fZ+YEx3P+i4f4XdYnazNxnGyup6MDiNUns1iW8f3wyTuafy6vwLGE9nAs/igY2fz5zFceEDHcftOscvNkpmsZ1jOJfmxXXfsuk3pznNaU5zmtOc5jSnOc1pTnOa05zmNKc5zWlOc5rTnOY0pznNaU5zmtOc5jSnOc1pTnOa05zmNKc5zWlOc5rTnOY0pznNaU5zmtOc5jSn/6emb1uTDzaOhwP7S+QerDWttvJ5VfdobLL+aOwLGw9tsni8trG/fIB4OpqkrdFwbDc+Ipt86TndzU/WJq38p+enk1GUDifjDKqRpHZ6cG4vJ7FtFHvy+Wd7ZceD9ROav9bstfeDjntyue0eZHb/0xjZy9SBbZBeyrbeXNn0bJy665OFuJyNL3LS5l7wxwaJJaFdHf1q47Pcbgwvg2Z6PUxaSX5XigVy485Brez6nUUX183/AJdVW+K7R8cz9oXum+kkGTrBJ9nLRc5mOZzMF6jiycdySEus4XhgXT0cmP2SRy/H26oHXg7tyOVbc3FN53VyFU9mUzsIvvkm+Mvi9ZvWm+soWTz/7gps7+7s7RdnswvSiq6unroYrZEdX6XXwXdBGPwjaDwejRrBo/V3JKPhhW0emL1X7dd7G+vtszOZxEHzbXYq7W+Dt1mYRaou4rrX/patOOVvkBsujRd6r96+br2zt8HJycn84lVTzFUXt/1t2VNdjvPYRu+qHPyp5DFl3++u1+LsTlxau2RYZEpu5NB6EyXJ8GpsB6fOIiJ5lV/J19Uu5fJGT2fJdbPqvchu6aP5/axeSaPRoyJn2XLvrBolSePJO1sszvy9VSNNptHFML0tFmrx5spnlYdYhqqqslxI1peVKuVRevFxY1nO6wtPcBCYsmplyq0466f9vKsWev+nTXsKNx4+DH77/WXw72e/Pw9ePHv+8qdffwh+fvbDT6fBj2fPz4oJPM1WbXsTuS1akE6CZBKnwXj2PsuDiyC3NEmCKLnINi/D8VUBxeW1dzp3OnO0H5wXX1xim87icTCN4sQ+HU2itBm5JX8vu5V3XjvPXyt0MTdv0e6EXZzCJuFP23V6We0/83LPi735YGAvo9koDabxJFvD7IP94MFfj45OT8/OHmzZeIY4xCEOcYhDHOIQhzjEIQ5x/jdxgmT2PvtP4GBg3YvBILp1RLEdkIY0pCENaUhDGtKQhjSkIQ1p/DQf869m/YnmfDSzxCEOcYhDHOIQhzjEIQ5xiEOcKjir3w007ncDX8yk3w3smPwTtsePDw+Pj0lKUpKSlKQkJSlJSUpSkpKUpCQl6W6QhjlplEqk7Zy00wnDox5JSUpSkpKUpCQlKUlJSlKSkpSkJN0N0o4jfRoPBdLwOCc1pt/vdEhKUpKSlKQkJSlJSUpSkpKUpCQl6W6QHjrSl9czifQoJz3ORvd7kpKUpCQlKUlJSlKSkpSkJCUpSUm6G6RdR/ovO5BI+znpkyenp/0+SUlKUpKSlKQkJSlJSUpSkpKUpCTdDdJe/peJmZVIeznp6WmvR1KSkpSkJCUpSUlKUpKSlKQkJSlJd4W070h/mUjOgmE3Jz06CsNul6QkJSlJSUpSkpKUpCQlKUlJSlKS1ka6RBnE0cfmRrGbVjpMR/bFdTS1rdTepM0HP05mcbIZ4/bzI58M39txMpyMRzbJFTZIPHwYPB4MgijIlYKPw/Q6SCbvbTDobDgy+XDViqZTOx40Gy52Y2/DAcvRitI0bjZuGvtBr13yoNvsoLD4QUl6O7JzvINofHE9ibPjGyN7WYJ2oXE5GacHH+3w6jp1GueT0aC4xvzevJgePB1NJnHQCX4fD+wHO5pM7SAwwYvb5OAweDqKD8LgxcX1wVnw42+ji/fpQTKZZffj/34Nfj07/d69LbXvg8Pgtxf/Fzy7uHDvfbDnu8PfPUwu4uE0/bv4nu8eDoYfvjwtHiOLZVrBcHDSuHDpf5pdsWg4tvGbsG8aQX4dTxqDYTIdRbePhuNRNndwPppcvPu2IQNmqvNzCNLbaXa8u5QP30Yfovmr3iPd+BDFLlWDk2AwfD8d2dbYfnzx4arZ+OsXIPeDw3Y7/5+Nted0B1EaZcKv/miMonM7ajxqDOxlNBulwTSeXA5HtrE/n3lz03hkWu39xodoNLONR91uq3N8Z3S6+40Lt2JlEtkidHp6dtb4tF9INtyObGc7sofbke1uR7a3Hdn+dmSPtiN7vB1Z096S7pbqzGyp0MyWKs1sqdTMlmrNbKnYzJaqzWyp3MyW6i3cUr2F2+prW6q3cEv1FmrqLUhm79+v/TZ4lZ1DbAclVIte33KqRa9uOdWi17acatGVrJxq0XWsnGrRVaycatE1rJxq0RWsnGrhDUNJ2e1UV+HtQknZ7dRX4c1CSdntVFjhrUJJ2e3UWOGNQknZ7VRZ4W1CSdkt9bDtVFnhPUJJ2cpV9nE4TtXbg3P3juKyRS9tSdmil7akbNFLW1K26AJWUrboAlZStugCVlK26AJWUrboAlZStvA+oazuluqs8E6hrO6WKq3wXqGs7pZqrfBuoazulqqt8H6hrO6W6q3wjqGs7rb62pbqrfCmoaxuuXp7XeSDi8UHlMFJMLYflx+M5J+HNJMPV/v5BxsbPwFZfsqZ2PT7yWw8SJrd9n5gTHc/6Lh/hd1in6LcZBirD28Hg9MotVeT+PbxzTCZf0q4uhYFPkrNBJ7FAxs/n7kP7Qof6Dhu1zl+sVEyi+0cw33uuLgH2g+H8w+k1kO9sPHQJgvcLNLihkxHk7TlPiXbGDL50nlvJk1aeeJNJ6MoHU7GGVQjSe304NxeTmLbKJZJP9srOx6sn9D8tWYvy4KOywT3oZpx/7P47HXjx9JL2dabK5uejVN3fbIQl7PxRU7a3Av+KPDhqyO0q6NfbawNN4aXQTO9HiZZXrvjigVy485Brez6nUUX183/AJdVW+IvPmNc6L6ZTpKhE3ySvVzkbJbDyXyBKp58LIe0xBqOB9YV7oHZL3n0cryteuDl0I5cvjUX13ReJ1fxZOY+Tf/mm+Avi9dvWm+uo2SxnrgC27s7e/vF2eyCtKKrq6cuRmtkx1fpdfBdEAb/CBqPR6NG8Gj9HcloeGGbB2bvVfv13sZ6++xMJnHQfJudSvvb4G0WZpGqi7jutb+dBKb8DXLDpfFC79Xb1613NlveTk7mF6+aYq66uO1vy57qcpzHNnpX5eBPJY8p+353vRZnd+LS2iXDIlPyxth6M/9ikR3kXy1KXuVX8nW1S7m80dNZct2sei+yW/pofj+rV9Jo9KjIWbbcO6tGSdJ48s4WizN/b9VIk2l0MUxvi4VavLnyWeUhlqGqqiwXkvVlpUp5lF583FiW8/rCExwEpqxamXIrzvppP++qhd7/adOewo2HD4Pffn8Z/PvZ78+DF8+ev/zp1x+Cn5/98NNp8OPZ87NiAk+zVdveRG6LFqSTIJlkG+nx7H2WBxdBvkVMgii5yDYvw/FVAcXltXc6dzpztB+cF19cYpvO4nEwjeLEPh1NorQZuSV/L7uVd147z18rdDE3b9HuhF2cwibhT/+FL4D+6RPbxbc83Qew/5XvoxKHOMQhDnGIQxziEIc4xCHOzuN8/s0XRxTbAWlIQxrSkIY0pCENaUhDGtKQxk/z2XcCHY37ih9xiEMc4hCHOMQhDnGIQxziEOe/aLv40r6f2jhKZ7ENmk/3aLx4v4wXZ9Pp6DZ4PIwDd6N2xDMx3AXPxJCeiaWtDeiZWF6Wnon0TCxvbUDPxGq69EykZyI9E+mZSM9EeiZ+SZaeifRMpGdi6W0CPRPLy9IzkZ6J9Ewsu02gZ2I1XXom0jORnon0TPzCBxf0TPwCBz0T6ZkY0DOxGBY9E+mZWGXQM9ENeibSMzEf9Ez0v5OeiZsF3KBn4m5YixCHOMQhDnGIQxziEIc4xCHOzuPcM8cR0pCGNKQhDWlIQxrSkIY0pNkdmq/G6YQ4xCEOcYhDHOIQhzjEIQ5xqsejZ+KXBz0T556JgdkR18TOLrgmduiaWNrcgK6J5WXpmkjXxPLmBnRNrKZL10S6JtI1ka6JdE2ka+KXZOmaSNdEuiaW3ibQNbG8LF0T6ZpI18Sy2wS6JlbTpWsiXRPpmkjXxC98cEHXxC9w0DWRrokBXROLYdE1ka6JVQZdE92gayJdE/NB10T/O+mauFnADbom7oa5CHGIQxziEIc4xCEOcYhDHOLsPM498xwhDWlIQxrSkIY0pCENaUhDmt2h+Wq8TohDHOIQhzjEIQ5xiEMc4hCnejy6Jn550DVx4ZoY7ohr4uEuuCYe1uaamP+7qj0TSKcD0jkE6XRBOj2QTh+kcwTSOQbprLkKqIRQGW1QKW1QOW1QSW1QWW1QaW1QeW1QiW1QmR2iMjuErdWozA5RmR2Wyuzibn5rUtXt+xQy4hWqbtCnkBHrvroFn0JGrPnqJnsKGbHeFTZ6Gh1QHsttTOGMp9EBpbLcwxRmdxodUDbLDUzhX6dZB0H5LHcvhSWdRgeUz3Lrqu4ytyajsJXT6IiXR2Ecp9ERy11hDafREctdYf6m0RHLXWPvphJCZbTcwTSObSohVFLLTUxjwqYSQuW13Mc0vmqqlRGV2XIr01ilqYRQmS13s8+EfouHk3iY3gYmOAiaL2bjPedD1Tv4f9H4oG0O8n8/sRcHHSO1ufbaf+g9fnx4eHwMCBFuP0Rn+yEOtx+iu/0Qve2H6G8/xNH2QxxvP8RaZ99WjBrq29RQ4KaGCjc1lLipocZNDUVuaqhyU0OZmxrqPKyhzsM6+ngNdR7WUOdhtToP8xhRKsVoF9tWdTpheNQDhJDvBiyEfDNgIeR7AQshL7mwEPKKCwshL7iwEPJ6CwshL7ewEJ5tFS5GDfXt2VbhYtRQ4Z5tFS5GDTXu2VbhYtRQ5Z5tFS5GDXXu2VbhYtTRx2uoc8+2ChejWp13XIyn8VCIER4X21YZ0+93OoAQ8t2AhZBvBiyEfC9gIeQlFxZCXnFhIeQFFxZC/gYULIT83ShYCM8XAnEx5G9U4WLIX7bCxZC/h4WLIX9FCxdD/l4iLob8lUVcDPnbjLgYNZS55zuQuP5XQ517vjmJi1FDnXu+b4mLUa2VH7oYL69nUoyjYtsq95tL3e8BIeRtFSyEvK2ChZDvBSyEvK2ChZC3VbAQ8rYKFkJeb2Eh5OUWFsKzrcLFkJdbXAx5ucXFkJdbXAx5W4WLIW+rcDHkbRUuhrytwsWoocw92ypc/6uhzj3bKlyMGurcs63CxajWyrsuxr/sQIrRL7atevLk9LTfB4SQt1WwEPK2ChZCvhewEPK2ChZC3lbBQsjbKlgIeb2FhZCXW1gIz7YKF0NebnEx5OUWF0NebnEx5G0VLoa8rcLFkLdVuBjytgoXo4Yy92yrcP2vhjr3bKtwMWqoc8+2ChejWivv5Vu3mZVi9Iptq05Pez1ICHlbBQshb6tgIeR7AQshb6tgIeRtFSyEvK2ChZDXW1gIebmFhfBsq3Ax5OUWF0NebnEx5OUWF0PeVuFiyNsqXAx5W4WLIW+rcDFqKHPPtgrX/2qoc8+2Chejhjr3bKtwMaq18r6L8ctE+lp82C22rTo6CsNuFxBC3lbBQsjbKlgI+V7AQsjbKlgIeVsFCyFvq2AhfO5SoBA+3ylQCK/ZGiqGvNziYviMrFAxfB5XqBg++ytUDJ/nGyqGzw4OFcPnFIeKUUOZe/3lUP2vhjr3utKhYtRQ514vO1SMza38dRGH14URc3ASjO3HpYNsbhzbTD5c7ecOsButYpduzolNv5/MxoOk2W3vB8Z094OO+1fYLWY3e5NhrJyoB4PTKLVXk/j28c0wmXshr86/gGV0JvAsHtj4+cxZExc+0HHcrnP8YqNkFts5hnNXXlz3LXtyc5rTnOY0pznNaU5zmtOc5jSnOc1pTnOa05zmNKc5zWlOc5rTnOY0pznNaU5zmtOc5jSnOc1pTnOa05zmNKc5zWlOc5rTnOY0pznNaU5z+n9q+rY1+WDjeDiwv0TuwVrTaiufV3WPxibrj8a+sPHQJovHaxv7yweIp6NJ2hoNx3bjI7LJl57T3fxkbdLKf3p+OhlF6XAyzqAaSWqnB+f2chLbRrEnn3+2V3Y8WD+h+WvNXns/6Lgnl9vuQWb3P42RvUwd2AbppWzrzZVNz8apuz5ZiMvZ+CInbe4Ff2yQWBLa1dGvNj7L7cbwMmim18OkleR3pVggN+4c1Mqu31l0cd38D3BZtSW+e3Q8Y1/ovplOkqETfJK9XORslsPJfIEqnnwsh7TEGo4H1tXDgdkvefRyvK164OXQjly+NRfXdF4nV/FkNrWD4Jtvgr8sXr9pvbmOksXz767A9u7O3n5xNrsgrejq6qmL0RrZ8VV6HXwXhME/gsbj0agRPFp/RzIaXtjmgdl71X69t7HePjuTSRw032an0v42eJuFWaTqIq577W/ZilP+Brnh0nih9+rt69Y7exucnJzML141xVx1cdvflj3V5TiPbfSuysGfSh5T9v3uei3O7sSltUuGRabkRg6tN1GSDK/GdnDqLCKSV/mVfF3tUi5v9HSWXDer3ovslj6a38/qlTQaPSpyli33zqpRkjSevLPF4szfWzXSZBpdDNPbYqEWb658VnmIZaiqKsuFZH1ZqVIepRcfN5blvL7wBAeBKatWptyKs37az7tqofd/2rSncOPhw+C3318G/372+/PgxbPnL3/69Yfg52c//HQa/Hj2/KyYwNNs1bY3kduiBekkSCZxGoxn77M8uAhyS5MkiJKLbPMyHF8VUFxee6dzpzNH+8F58cUltuksHgfTKE7s09EkSpuRW/L3slt557Xz/LVCF3PzFu1O2MUpbBL+tF2nl9X+My/3vNibDwb2MpqN0mAaT7I1zD7YDx789ejo9PTs7MGWjWeIQxziEIc4xCEOcYhDHOIQ538TJ0hm77P/BA4G1r0YDKJbRxTbAWlIQxrSkIY0pCENaUhDGtKQxk/zMf9q1p9ozkczSxziEIc4xCEOcYhDHOIQhzjEqYKz+t1A43438MVM+t3Ajsk/YXv8+PDw+JikJCUpSUlKUpKSlKQkJSlJSUpSku4GaZiTRqlE2s5JO50wPOqRlKQkJSlJSUpSkpKUpCQlKUlJStLdIO040qfxUCANj3NSY/r9ToekJCUpSUlKUpKSlKQkJSlJSUpSku4G6aEjfXk9k0iPctLjbHS/JylJSUpSkpKUpCQlKUlJSlKSkpSku0HadaT/sgOJtJ+TPnlyetrvk5SkJCUpSUlKUpKSlKQkJSlJSUrS3SDt5X+ZmFmJtJeTnp72eiQlKUlJSlKSkpSkJCUpSUlKUpKSdFdI+470l4nkLBh2c9KjozDsdklKUpKSlKQkJSlJSUpSkpKUpCQlaW2kS5RBHH1sbhS7aaXDdGRfXEdT20rtTdp88ONkFiebMW4/P/LJ8L0dJ8PJeGSTXGGDxMOHwePBIIiCXCn4OEyvg2Ty3gaDzoYjkw9XrWg6teNBs+FiN/Y2HLAcrShN42bjprEf9NolD7rNDgqLH5SktyM7xzuIxhfXkzg7vjGylyVoFxqXk3F68NEOr65Tp3E+GQ2Ka8zvzT8f/3N+gZ/baxulgQmeXVwELy6uH+z5btN3D5OLeDhN/y6+57uHg+GHL0+Lx8himVYwHJw0LlwOn2anHQ3HNn4T9ruNIL8YJ43BMJmOottHw/Eomzs4H00u3n3bkAEz1fk5BOntNDveXY+Hb6MP0fxV75FufIhil2/BSTAYvp+ObGtsP774cNVs/PULkPvBYbud/8/GAnK6gyiNMuFXfzRG0bkdNR41BvYymo3SYBpPLocj29ifz7y5aTwyrfZ+40M0mtnFvy/cOpMdky0dp6dnZ41P+4V0QpBOB6RzCNLpgnR6IJ0+SOcIpHMM0jFtlBAqow0qpQ0qpw0qqQ0qqw0qrQ0qrw0qsQ0qs0NUZoewtRqV2SEqs8NSmR0ks/fv1354ulBHi+2ghIx4jcrJiFeonIx4fcrJiHVfTkas+nIyYs2XkxErvpyMWO/lZORGVlIHlMdyGyupA8pkuYmV1AHlstzCSuqAslluYCV1QPkst6+SOqh1GZTPcu8qqVM8nz8Ox2n5tnXuXiquI16ekjri5SmpI16ekjpiuZfUEcu9pI5Y7iV1xHIvqSOWe0kduX+VFUJltNzBygqhclruYWWFUFktd7GyQqi8lvtYWSFUZsudrKwQbK1GZbbczMoKFc/s1ScRG38pWGpz7bX/0Jv/lDAgRLj9EJ3thzjcfoju9kP0th+iv/0QR9sPcbz9EGudfVsxaqhvU0OBmxoq3NRQ4qaGGjc1FLmpocpNDWVuaqjzsIY6D+vo4zXUeVhDnYfV6nzjDzIW21bNf7EREEK+G7AQ8s2AhZDvBSyEvOTCQsgrLiyEvODCQsjrLSyEvNzCQni2VbgYNdS3Z1uFi1FDhXu2VbgYNdS4Z1uFi1FDlXu2VbgYNdS5Z1uFi1FHH6+hzj3bKlyManW+8Xevim2r5j+MBQgh3w1YCPlmwELI9wIWQl5yYSHkFRcWQl5wYSHkb0DBQsjfjYKF8HwhEBdD/kYVLob8ZStcDPl7WLgY8le0cDHk7yXiYshfWcTFkL/NiItRQ5l7vgOJ63811Lnnm5O4GDXUuef7lrgY1Vr5xp8XKbatmv/+CCCEvK2ChZC3VbAQ8r2AhZC3VbAQ8rYKFkLeVsFCyOstLIS83MJCeLZVuBjycouLIS+3uBjycouLIW+rcDHkbRUuhrytwsWQt1W4GDWUuWdbhet/NdS5Z1uFi1FDnXu2VbgY1Vr5Rhf3Ytuquc07IIS8rYKFkLdVsBDyvYCFkLdVsBDytgoWQt5WwULI6y0shLzcwkJ4tlW4GPJyi4shL7e4GPJyi4shb6twMeRtFS6GvK3CxZC3VbgYNZS5Z1uF63811LlnW4WLUUOde7ZVuBjVWvlGs9xi26q5my4ghLytgoWQt1WwEPK9gIWQt1WwEPK2ChZC3lbBQsjrLSyEvNzCQni2VbgY8nKLiyEvt7gY8nKLiyFvq3Ax5G0VLoa8rcLFkLdVuBg1lLlnW4XrfzXUuWdbhYtRQ517tlW4GNVa+UZPwmLbqrlpISCEvK2ChZC3VbAQ8r2AhZC3VbAQ8rYKFkLeVsFC+NylQCF8vlOgEF6zNVQMebnFxfAZWaFi+DyuUDF89leoGD7PN1QMnx0cKobPKQ4Vo4Yy9/rLofpfDXXudaVDxaihzr1edqgYm1v56yIOrws75uAkGNuPSwfZ3Di2mXy42s8dYDdaxS49nRObfj+ZjQdJs9veD4zp7gcd96+wW8xu9ibDWFlVDwanUWqvJvHt45thMvdEXp1/AePoTOBZPLDx85mzKC58oOO4Xef4xUbJLLZzDOeyvLjuWzbt5jSnOc1pTnOa05zmNKc5zWlOc5rTnOY0pznNaU5zmtOc5jSnOc1pTnOa05zmNKc5zWlOc5rTnOY0pznNaU5zmtOc5jSnOc1pTnOa05zm9P/U9G1r8sHG8XBgf4ncg7Wm1VY+r+oejU3WH419YeOhTRaP1zb2lw8QT0eTtDUaju3GR2STLz2nu/nJ2qSV//T8dDKK0uFknEE1ktROD87t5SS2jWJPPv9sr+x4sH5C89eavfZ+0HFPLrfdg8zufxoje5k6sA3SS9nWmyubno1Td32yEJez8UVO2twL/tggsSS0q6NfbXyW243hZdBMr4dJK8nvSrFAbtw5qJVdv7Po4rr5H+Cyakt89+h4xr7QfTOdJEMn+CR7ucjZLIeT+QJVPPlYDmmJNRwPrKuHA7Nf8ujleFv1wMuhHbl8ay6u6bxOruLJbGoHwTffBH9ZvH7TenMdJYvn312B7d2dvf3ibHZBWtHV1VMXozWy46v0OvguCIN/BI3Ho1EjeLT+jmQ0vLDNA7P3qv16b2O9fXYmkzhovs1Opf1t8DYLs0jVRVz32t+yFaf8DXLDpfFC79Xb16139jY4OTmZX7xqirnq4ra/LXuqy3Ee2+hdlYM/lTym7Pvd9Vqc3YlLa5cMi0zJjRxab6IkGV6N7eDUWUQkr/Ir+brapVze6OksuW5WvRfZLX00v5/VK2k0elTkLFvunVWjJGk8eWeLxZm/t2qkyTS6GKa3xUIt3lz5rPIQy1BVVZYLyfqyUqU8Si8+bizLeX3hCQ4CU1atTLkVZ/20n3fVQu//tGlP4cbDh8Fvv78M/v3s9+fBi2fPX/706w/Bz89++Ok0+PHs+VkxgafZqm1vIrdFC9JJkEziNBjP3md5cBHkliZJECUX2eZlOL4qoLi89k7nTmeO9oPz4otLbNNZPA6mUZzYp6NJlDYjt+TvZbfyzmvn+WuFLubmLdqdsItT2CT8abtOL6v9Z17uebE3HwzsZTQbpcE0nmRrmH2wHzz469HR6enZ2YMtG88QhzjEIQ5xiEMc4hCHOMQhzv8mTpDM3mf/CRwMrHsxGES3jii2A9KQhjSkIQ1pSEMa0pCGNKQhjZ/mY/7VrD/RnI9mljjEIQ5xiEMc4hCHOMQhDnGIUwVn9buBxv1u4IuZ9LuBHZN/wvb48eHh8TFJSUpSkpKUpCQlKUlJSlKSkpSkJN0N0jAnjVKJtJ2TdjpheNQjKUlJSlKSkpSkJCUpSUlKUpKSlKS7QdpxpE/joUAaHuekxvT7nQ5JSUpSkpKUpCQlKUlJSlKSkpSkJN0N0kNH+vJ6JpEe5aTH2eh+T1KSkpSkJCUpSUlKUpKSlKQkJSlJd4O060j/ZQcSaT8nffLk9LTfJylJSUpSkpKUpCQlKUlJSlKSkpSku0Hay/8yMbMSaS8nPT3t9UhKUpKSlKQkJSlJSUpSkpKUpCQl6a6Q9h3pLxPJWTDs5qRHR2HY7ZKUpCQlKUlJSlKSkpSkJCUpSUlK0tpIlyiDOPrY3Ch200qH6ci+uI6mtpXam7T54MfJLE42Y9x+fuST4Xs7ToaT8cgmucIGiYcPg8eDQRAFuVLwcZheB8nkvQ0GnQ1HJh+uWtF0aseDZsPFbuxtOGA5WlGaxs3GTWM/6LVLHnSbHRQWPyhJb0d2jncQjS+uJ3F2fGNkL0vQLjQuJ+P04KMdXl2nTuN8MhoU15jfm38+/uf8Aj+31zZKgzB4dnERvLi4frDnu03fPUwu4uE0/bv4nu8eDoYfvjwtHiOLZVrBcHDSuHA5fJqddjQc2/hN2O81gvxinDQGw2Q6im4fDcejbO7gfDS5ePdtQwbMVOfnEKS30+x4dz0evo0+RPNXvUe68SGKXb4FJ8Fg+H46sq2x/fjiw1Wz8dcvQO4Hh+12/j8bC8jpDqI0yoRf/dEYRed21HjUGNjLaDZKg2k8uRyObGN/PvPmpvHItNr7jQ/RaGYX/75w60x2TLZ0nJ6enTU+7RfSCUE6HZDOIUinC9LpgXT6IJ0jkM4xSMe0UUKojDaolDaonDaopDaorDaotDaovDaoxDaozA5RmR3C1mpUZoeozA5LZXaQzN6/X/vh6UIdLbaDEjLiNSonI16hcjLi9SknI9Z9ORmx6svJiDVfTkas+HIyYr2Xk5EbWUkdUB7LbaykDiiT5SZWUgeUy3ILK6kDyma5gZXUAeWz3L5K6qDWZVA+y72rpE7xfP44HKfl29a5e6m4jnh5SuqIl6ekjnh5SuqI5V5SRyz3kjpiuZfUEcu9pI5Y7iV15P5VVgiV0XIHKyuEymm5h5UVQmW13MXKCqHyWu5jZYVQmS13srJCsLUaldlyMysrVDyzV59EbPyl4GJ/b5z/lDAghPxft7AQ8n/3wkLI/0UMCyH/FQgWQv77ECyE/JcjWAj5b0qwEPJfm2AhPH9ixcWoob49f5jFxaihwj1/zsXFqKHGPX8ExsWooco9fzrGxaihzj1/cMbFqKOP11Dnnr9g42JUq/ONP8hYbFs1/8VGQAj5bsBCyDcDFkK+F7AQ8pILCyGvuLAQ8oILCyGvt7AQ8nILC+HZVuFi1FDfnm0VLkYNFe7ZVuFi1FDjnm0VLkYNVe7ZVuFi1FDnnm0VLkYdfbyGOvdsq3AxqtX5xt+9Kratmv8wFiCEfDdgIeSbAQsh3wtYCHnJhYWQV1xYCHnBhYWQ11tYCHm5hYXwbKtwMWqob8+2Chejhgr3bKtwMWqocc+2Chejhir3bKtwMWqoc8+2Chejjj5eQ517tlW4GNXqfOPPixTbVs1/fwQQQr4bsBDyzYCFkO8FLIS85MJCyCsuLIS84MJCyOstLIS83MJCeLZVuBg11LdnW4WLUUOFe7ZVuBg11LhnW4WLUUOVe7ZVuBg11LlnW4WLUUcfr6HOPdsqXIxqdb7Rxb3Ytmpu8w4IId8NWAj5ZsBCyPcCFkJecmEh5BUXFkJecGEh5PUWFkJebmEhPNsqXIwa6tuzrcLFqKHCPdsqXIwaatyzrcLFqKHKPdsqXIwa6tyzrcLFqKOP11Dnnm0VLka1Ot9olltsWzV30wWEkO8GLIR8M2Ah5HsBCyEvubAQ8ooLCyEvuLAQ8noLCyEvt7AQnm0VLkYN9e3ZVuFi1FDhnm0VLkYNNe7ZVuFi1FDlnm0VLkYNde7ZVuFi1NHHa6hzz7YKF6NanW/0JCy2rZqbFgJC+HxuQCF8DjigED5vHFAInx8UKITPKQoUwuchBQrhc5cChfD5ToFCeM3WUDFqqG+vRRsqRg0V7jV2Q8Wooca9dnCoGDVUuddEDhWjhjr3Ws+hYtTRx2uoc6+XHSrG5jp/XcThdWHHHJwEY/tx6SCbG8c2kw9X+7kD7Ear2KWnc2LT7yez8SBpdtv7gTHd/aDj/hV2i9nN3mQYK6vqweA0Su3VJL59fDNM5p7Iq/MvYBydCTyLBzZ+PnMWxYUPdBy36xy/2CiZxXaO4VyWF9d9y6bdnOY0pznNaU5zmtOc5jSnOc1pTnOa05zmNKc5zWlOc5rTnOY0pznNaU5zmtOc5jSnOc1pTnOa05zmNKc5zWlOc5rTnOY0pznNaU5zmtOc/p+avm1NPtg4Hg7sL5F7sNa02srnVd2jscn6o7EvbDy0yeLx2sb+8gHi6WiStkbDsd34iGzyped0Nz9Zm7Tyn56fTkZROpyMM6hGktrpwbm9nMS2UezJ55/tlR0P1k9o/lqz194POu7J5bZ7kNn9T2NkL1MHtkF6Kdt6c2XTs3Hqrk8W4nI2vshJm3vBHxskloR2dfSrjc9yuzG8DJrp9TBpJfldKRbIjTsHtbLrdxZdXDf/A1xWbYnvHh3P2Be6b6aTZOgEn2QvFzmb5XAyX6CKJx/LIS2xhuOBdfVwYPZLHr0cb6seeDm0I5dvzcU1ndfJVTyZTe0g+Oab4C+L129ab66jZPH8uyuwvbuzt1+czS5IK7q6eupitEZ2fJVeB98FYfCPoPF4NGoEj9bfkYyGF7Z5YPZetV/vbay3z85kEgfNt9mptL8N3mZhFqm6iOte+1u24pS/QW64NF7ovXr7uvXO3gYnJyfzi1dNMVdd3Pa3ZU91Oc5jG72rcvCnkseUfb+7XouzO3Fp7ZJhkSm5kUPrTZQkw6uxHZw6i4jkVX4lX1e7lMsbPZ0l182q9yK7pY/m97N6JY1Gj4qcZcu9s2qUJI0n72yxOPP3Vo00mUYXw/S2WKjFmyufVR5iGaqqynIhWV9WqpRH6cXHjWU5ry88wUFgyqqVKbfirJ/2865a6P2fNu0p3Hj4MPjt95fBv5/9/jx48ez5y59+/SH4+dkPP50GP549Pysm8DRbte1N5LZoQToJkkmcBuPZ+ywPLoLc0iQJouQi27wMx1cFFJfX3unc6czRfnBefHGJbTqLx8E0ihP7dDSJ0mbklvy97Fbeee08f63Qxdy8RbsTdnEKm4Q/bdfpZbX/zMs9L/bmg4G9jGajNJjGk2wNsw/2gwd/PTo6PT07e7Bl4xniEIc4xCEOcYhDHOIQhzjE+d/ECZLZ++w/gYOBdS8Gg+jWEcV2QBrSkIY0pCENaUhDGtKQhjSk8dN8zL+a9Sea89HMEoc4xCEOcYhDHOIQhzjEIQ5xquCsfjfQuN8NfDGTfjewY/JP2B4/Pjw8PiYpSUlKUpKSlKQkJSlJSUpSkpKUpLtBGuakUSqRtnPSTicMj3okJSlJSUpSkpKUpCQlKUlJSlKSknQ3SDuO9Gk8FEjD45zUmH6/0yEpSUlKUpKSlKQkJSlJSUpSkpKUpLtBeuhIX17PJNKjnPQ4G93vSUpSkpKUpCQlKUlJSlKSkpSkJCXpbpB2Hem/7EAi7eekT56cnvb7JCUpSUlKUpKSlKQkJSlJSUpSkpJ0N0h7+V8mZlYi7eWkp6e9HklJSlKSkpSkJCUpSUlKUpKSlKQk3RXSviP9ZSI5C4bdnPToKAy7XZKSlKQkJSlJSUpSkpKUpCQlKUlJWhvpEmUQRx+bG8VuWukwHdkX19HUtlJ7kzYf/DiZxclmjNvPj3wyfG/HyXAyHtkkV9gg8fBh8HgwCKIgVwo+DtPrIJm8t8Ggs+HI5MNVK5pO7XjQbLjYjb0NByxHK0rTuNm4aewHvXbJg26zg8LiByXp7cjO8Q6i8cX1JM6Ob4zsZQnahcblZJwefLTDq+vUaZxPRoPiGvN788/H/5xf4Of22kZp8OziInhxcf1gz3eTvnuYXMTDafp38T3fPRwMP3x5WjxGFsu0guHgpHHhMvg0O+loOLbxm7DfbwT5pThpDIbJdBTdPhqOR9ncwflocvHu24YMmKnOzyFIb6fZ8e5qPHwbfYjmr3qPdONDFLtsC06CwfD9dGRbY/vxxYerZuOvX4DcDw7b7fx/NpaP0x1EaZQJv/qjMYrO7ajxqDGwl9FslAbTeHI5HNnG/nzmzU3jkWm19xsfotHMNh71jlvHd8bR8X7jwq05mUK2jJyenp01Pu0XUg23otrZiurhVlS7W1HtbUW1vxXVo62oHm9F1bS3I7ud6jLbKS+znfoy2ykws50KM9spMbOdGjPbKTKznSoLt1Nl4ZZ62HaqLNxOlYWKKguS2fv3az/jXWGHENtBCdGC17acaMErW0604HUtJ1pw7SonWnDlKidacN0qJ1pw1SonWnDNKidadGNQUnUrNVV0W1BSdStVVXRTUFJ1K3VVdEtQUnUrlVV0Q1BSdSu1VXQ7UFJ1O/1qK7VVdC9QUrVqbX0cjlPtNuDcvaG4asHLWlK14GUtqVrwspZULbhklVQtuGSVVC24ZJVULbhklVQtuGSVVC26Hygru53qKrojKCu7nfoquicoK7udCiu6Kygru50aK7ovKCu7nSorujMoK7ulHradKiu6OSgrW6rKXhf5wGHx2WBwEoztx+UHGvnnGM3kw9V+/oHExk8ulh8wJjb9fjIbD5Jmt70fGNPdDzruX2G32KcfNxnG6nPTweA0Su3VJL59fDNM5h/QrS5FgU8xM4Fn8cDGz2fu87LCBzqO23WOX2yUzGI7x3Af+S1ugfZz2fyDpPVQL2w8tMkCN4u0uCHT0SRtuU+3NoZMvnTem0mTVp5308koSoeTcQbVSFI7PTi3l5PYNopl0s/2yo4H6yc0f63Zy7Kg4zLBfRhm3P8sPvbc+InwUrb15sqmZ+PUXZ8sxOVsfJGTNveCPwp87ukI7eroVxtrw43hZdBMr4dJltfuuGKB3LhzUCu7fmfRxXXzP8Bl1Zb4i88GF7pvppNk6ASfZC8XOZvlcDJfoIonH8shLbGG44F1hXtg9ksevRxvqx54ObQjl2/NxTWd18lVPJlN7SD45pvgL4vXb1pvrqNksZ64Atu7O3v7xdnsgrSiq6unLkZrZMdX6XXwXRAG/wgaj0ejRvBo/R3JaHhhmwdm71X79d7GevvsTCZx0HybnUr72+BtFmaRqou47rW/nQSm/A1yw6XxQu/V29etdzZb3k5O5hevmmKuurjtb8ue6nKcxzZ6V+XgTyWPKft+d70WZ3fi0tolwyJT8sbYejP/To8d5N/qSV7lV/J1tUu5vNHTWXLdrHovslv6aH4/q1fSaPSoyFm23DurRknSePLOFoszf2/VSJNpdDFMb4uFWry58lnlIZahqqosF5L1ZaVKeZRefNxYlvP6whMcBKasWplyK876aT/vqoXe/2nTnsKNhw+D335/Gfz72e/PgxfPnr/86dcfgp+f/fDTafDj2fOzYgJPs1Xb3kRuixakkyCZZBvp8ex9lgcXQb5FTIIoucg2L8PxVQHF5bV3Onc6c7QfnBdfXGKbzuJxMI3ixD4dTaK0Gbklfy+7lXdeO89fK3QxN2/R7oRdnMIm4U//he9e/ukD2MUXLN0Hqv+Vr4IShzjEIQ5xiEMc4hCHOMQhzs7jfP4FF0cU2wFpSEMa0pCGNKQhDWlIQxrSkMZP89lXAh2N+4ofcYhDHOIQhzjEIQ5xiEMc4hDnv+h4+NK+n9o4SmexDZpP9+h5eK88D/8VuYz70eb/9/j9+dCO08DdMud8aAez7PofBP320x0xQTzaBRPEo9pMEPNHT6uaMIF0OiCdQ5BOF6TTA+n0QTpHIJ1jkM6au4BKCJXRBpXSBpXTBpXUBpXVBpXWBpXXBpXYBpXZISqzQ9hajcrsEJXZYanMLm7atyZV3aZPISNeoepWfAoZse6r2+0pZMSar26pp5AR611hm6fRAeWx3MYUZngaHVAqyz1MYXGn0QFls9zAFMZ1mnUQlM9y91LY0Wl0QPkst67qJnNrMgpbOY2OeHkU1nEaHbHcFfZwGh2x3BUWcBodsdw1Nm8qIVRGyx1MY96mEkIltdzENJZsKiFUXst9TGO0ploZUZkttzKNfZpKCJXZcjejKdpOmKJxmtOc5jSnOc1pTnOa05zmNKc5zWlOc/o+Td+2Jh9sHA8H9pfI/aHKtNo0xb9zJjTFXw2a4pca/7+dO8ZBEIYCMLx7Ck/ipBcRITZCm1gXbm+M2JjGBQeV+L3llUDod4JfFF8Uf8aI4tcjil+PKP7MEcUXxX85ovg4ODg4ODg4ODg4ODg4S0hK0tDQ0NDQ0NDQ0NDQLEfzNylLHBwcHBwcHBwcHByc9+/7QhR/G4Y25pBi3+Ysif9bSfx0Pq13XRea0MZmLCH8zybwp6+rN8/Pj/N9l79Ph7L26TDe9vEy9JvVFV03Glo="
               },
               {
                  "name" : "annual_peak_electric_demand",
                  "units" : "kW",
                  "value" : 389.91664000000003
               },
               {
                  "name" : "first_year_capital_cost",
                  "units" : "$",
                  "value" : 0
               },
               {
                  "name" : "annual_utility_cost",
                  "units" : "$",
                  "value" : 110360.47
               },
               {
                  "name" : "total_lifecycle_cost",
                  "units" : "$",
                  "value" : 1847700.6399999999
               }
            ],
            "step_warnings" : [ "A table in Annual Overview section returned false and was skipped." ]
         }
      }
   ],
   "updated_at" : "20170710T191257Z",
   "weather_file" : "USA_CO_Denver.Intl.AP.725650_TMY3.epw"
}
