{
   "completed_at" : "20170710T185906Z",
   "completed_status" : "Success",
   "created_at" : "2017-07-10 18:51:38 +0000",
   "current_step" : 5,
   "description" : "",
   "eplusout_err" : "Program Version,EnergyPlus, Version 8.7.0-78a111df4a, YMD=2017.07.10 18:55,IDD_Version 8.7.0\n   ************* IDF Context for following error/warning message:\n   ************* Note -- lines truncated at 300 characters, if necessary...\n   *************      5 Building,\n   ************* indicated Name=NECB 2011-PrimarySchool-NECB HDD Method-CAN_BC_Sandspit.711010_CWEC.epw created: 2017-07-10 18:51:44 +0000\n   ************* Only last 1 lines before error line shown.....\n   *************      6   NECB 2011-PrimarySchool-NECB HDD Method-CAN_BC_Sandspit.711010_CWEC.epw created: 2017-07-10 18:51:44 +0000, !- Name\n   ** Warning ** IP: IDF line~6 Alpha Argument length exceeds maximum, will be truncated=  NECB 2011-PrimarySchool-NECB HDD Method-CAN_BC_Sandspit.711010_CWEC.epw created: 2017-07-10 18:51:44 +000\n   **   ~~~   ** Will be processed as Alpha=NECB 2011-PRIMARYSCHOOL-NECB HDD METHOD-CAN_BC_SANDSPIT.711010_CWEC.EPW CREATED: 2017-07-10 18:51:44 +0000\n   ************* IDF Context for following error/warning message:\n   ************* Note -- lines truncated at 300 characters, if necessary...\n   *************   1058 Schedule:Week:Daily,\n   ************* indicated Name=Schedule:Week:Daily {e2b484a7-d2ca-4fc5-a085-31412e07e7e0}\n   ************* Only last 10 lines before error line shown.....\n   *************   1059   Schedule:Week:Daily {e2b484a7-d2ca-4fc5-a085-31412e07e7e0}, !- Name\n   *************   1060   Sp-Cafeteria_ZN_1_FLR_1 Sys-3 Flr-1 Sch-C HPlcmt-north ZN NECB System 3 PSZ Occ Sch Sunday, !- Sunday Schedule:Day Name\n   *************   1061   Sp-Cafeteria_ZN_1_FLR_1 Sys-3 Flr-1 Sch-C HPlcmt-north ZN NECB System 3 PSZ Occ Sch Monday, !- Monday Schedule:Day Name\n   *************   1062   Sp-Cafeteria_ZN_1_FLR_1 Sys-3 Flr-1 Sch-C HPlcmt-north ZN NECB System 3 PSZ Occ Sch Tuesday, !- Tuesday Schedule:Day Name\n   *************   1063   Sp-Cafeteria_ZN_1_FLR_1 Sys-3 Flr-1 Sch-C HPlcmt-north ZN NECB System 3 PSZ Occ Sch Wednesday, !- Wednesday Schedule:Day Name\n   *************   1064   Sp-Cafeteria_ZN_1_FLR_1 Sys-3 Flr-1 Sch-C HPlcmt-north ZN NECB System 3 PSZ Occ Sch Thursday, !- Thursday Schedule:Day Name\n   *************   1065   Sp-Cafeteria_ZN_1_FLR_1 Sys-3 Flr-1 Sch-C HPlcmt-north ZN NECB System 3 PSZ Occ Sch Friday, !- Friday Schedule:Day Name\n   *************   1066   Sp-Cafeteria_ZN_1_FLR_1 Sys-3 Flr-1 Sch-C HPlcmt-north ZN NECB System 3 PSZ Occ Sch Saturday, !- Saturday Schedule:Day Name\n   *************   1067   Sp-Cafeteria_ZN_1_FLR_1 Sys-3 Flr-1 Sch-C HPlcmt-north ZN NECB System 3 PSZ Occ Sch Default, !- Holiday Schedule:Day Name\n   *************   1068   Sp-Cafeteria_ZN_1_FLR_1 Sys-3 Flr-1 Sch-C HPlcmt-north ZN NECB System 3 PSZ Occ Sch Summer Design Day, !- SummerDesignDay Schedule:Day Name\n   ** Warning ** IP: IDF line~1068 Alpha Argument length exceeds maximum, will be truncated=  Sp-Cafeteria_ZN_1_FLR_1 Sys-3 Flr-1 Sch-C HPlcmt-north ZN NECB System 3 PSZ Occ Sch Summer Design Da\n   **   ~~~   ** Will be processed as Alpha=SP-CAFETERIA_ZN_1_FLR_1 SYS-3 FLR-1 SCH-C HPLCMT-NORTH ZN NECB SYSTEM 3 PSZ OCC SCH SUMMER DESIGN DAY\n   ************* IDF Context for following error/warning message:\n   ************* Note -- lines truncated at 300 characters, if necessary...\n   *************   1058 Schedule:Week:Daily,\n   ************* indicated Name=Schedule:Week:Daily {e2b484a7-d2ca-4fc5-a085-31412e07e7e0}\n   ************* Only last 10 lines before error line shown.....\n   *************   1060   Sp-Cafeteria_ZN_1_FLR_1 Sys-3 Flr-1 Sch-C HPlcmt-north ZN NECB System 3 PSZ Occ Sch Sunday, !- Sunday Schedule:Day Name\n   *************   1061   Sp-Cafeteria_ZN_1_FLR_1 Sys-3 Flr-1 Sch-C HPlcmt-north ZN NECB System 3 PSZ Occ Sch Monday, !- Monday Schedule:Day Name\n   *************   1062   Sp-Cafeteria_ZN_1_FLR_1 Sys-3 Flr-1 Sch-C HPlcmt-north ZN NECB System 3 PSZ Occ Sch Tuesday, !- Tuesday Schedule:Day Name\n   *************   1063   Sp-Cafeteria_ZN_1_FLR_1 Sys-3 Flr-1 Sch-C HPlcmt-north ZN NECB System 3 PSZ Occ Sch Wednesday, !- Wednesday Schedule:Day Name\n   *************   1064   Sp-Cafeteria_ZN_1_FLR_1 Sys-3 Flr-1 Sch-C HPlcmt-north ZN NECB System 3 PSZ Occ Sch Thursday, !- Thursday Schedule:Day Name\n   *************   1065   Sp-Cafeteria_ZN_1_FLR_1 Sys-3 Flr-1 Sch-C HPlcmt-north ZN NECB System 3 PSZ Occ Sch Friday, !- Friday Schedule:Day Name\n   *************   1066   Sp-Cafeteria_ZN_1_FLR_1 Sys-3 Flr-1 Sch-C HPlcmt-north ZN NECB System 3 PSZ Occ Sch Saturday, !- Saturday Schedule:Day Name\n   *************   1067   Sp-Cafeteria_ZN_1_FLR_1 Sys-3 Flr-1 Sch-C HPlcmt-north ZN NECB System 3 PSZ Occ Sch Default, !- Holiday Schedule:Day Name\n   *************   1068   Sp-Cafeteria_ZN_1_FLR_1 Sys-3 Flr-1 Sch-C HPlcmt-north ZN NECB System 3 PSZ Occ Sch Summer Design Day, !- SummerDesignDay Schedule:Day Name\n   *************   1069   Sp-Cafeteria_ZN_1_FLR_1 Sys-3 Flr-1 Sch-C HPlcmt-north ZN NECB System 3 PSZ Occ Sch Winter Design Day, !- WinterDesignDay Schedule:Day Name\n   ** Warning ** IP: IDF line~1069 Alpha Argument length exceeds maximum, will be truncated=  Sp-Cafeteria_ZN_1_FLR_1 Sys-3 Flr-1 Sch-C HPlcmt-north ZN NECB System 3 PSZ Occ Sch Winter Design Da\n   **   ~~~   ** Will be processed as Alpha=SP-CAFETERIA_ZN_1_FLR_1 SYS-3 FLR-1 SCH-C HPLCMT-NORTH ZN NECB SYSTEM 3 PSZ OCC SCH WINTER DESIGN DAY\n   ************* IDF Context for following error/warning message:\n   ************* Note -- lines truncated at 300 characters, if necessary...\n   *************   1089 Schedule:Day:Interval,\n   ************* indicated Name=Sp-Cafeteria_ZN_1_FLR_1 Sys-3 Flr-1 Sch-C HPlcmt-north ZN NECB System 3 PSZ Occ Sch Summer Design Day\n   ************* Only last 1 lines before error line shown.....\n   *************   1090   Sp-Cafeteria_ZN_1_FLR_1 Sys-3 Flr-1 Sch-C HPlcmt-north ZN NECB System 3 PSZ Occ Sch Summer Design Day, !- Name\n   ** Warning ** IP: IDF line~1090 Alpha Argument length exceeds maximum, will be truncated=  Sp-Cafeteria_ZN_1_FLR_1 Sys-3 Flr-1 Sch-C HPlcmt-north ZN NECB System 3 PSZ Occ Sch Summer Design Da\n   **   ~~~   ** Will be processed as Alpha=SP-CAFETERIA_ZN_1_FLR_1 SYS-3 FLR-1 SCH-C HPLCMT-NORTH ZN NECB SYSTEM 3 PSZ OCC SCH SUMMER DESIGN DAY\n   ************* IDF Context for following error/warning message:\n   ************* Note -- lines truncated at 300 characters, if necessary...\n   *************   1096 Schedule:Day:Interval,\n   ************* indicated Name=Sp-Cafeteria_ZN_1_FLR_1 Sys-3 Flr-1 Sch-C HPlcmt-north ZN NECB System 3 PSZ Occ Sch Winter Design Day\n   ************* Only last 1 lines before error line shown.....\n   *************   1097   Sp-Cafeteria_ZN_1_FLR_1 Sys-3 Flr-1 Sch-C HPlcmt-north ZN NECB System 3 PSZ Occ Sch Winter Design Day, !- Name\n   ** Warning ** IP: IDF line~1097 Alpha Argument length exceeds maximum, will be truncated=  Sp-Cafeteria_ZN_1_FLR_1 Sys-3 Flr-1 Sch-C HPlcmt-north ZN NECB System 3 PSZ Occ Sch Winter Design Da\n   **   ~~~   ** Will be processed as Alpha=SP-CAFETERIA_ZN_1_FLR_1 SYS-3 FLR-1 SCH-C HPLCMT-NORTH ZN NECB SYSTEM 3 PSZ OCC SCH WINTER DESIGN DAY\n   ************* IDF Context for following error/warning message:\n   ************* Note -- lines truncated at 300 characters, if necessary...\n   *************   1450 Schedule:Week:Daily,\n   ************* indicated Name=Schedule:Week:Daily {707db47b-ba22-444a-9762-39ba3ffd144f}\n   ************* Only last 10 lines before error line shown.....\n   *************   1451   Schedule:Week:Daily {707db47b-ba22-444a-9762-39ba3ffd144f}, !- Name\n   *************   1452   Sp-Computer_Class_ZN_1_FLR_1 Sys-3 Flr-1 Sch-D HPlcmt-north ZN NECB System 3 PSZ Occ Sch Sunday, !- Sunday Schedule:Day Name\n   *************   1453   Sp-Computer_Class_ZN_1_FLR_1 Sys-3 Flr-1 Sch-D HPlcmt-north ZN NECB System 3 PSZ Occ Sch Monday, !- Monday Schedule:Day Name\n   *************   1454   Sp-Computer_Class_ZN_1_FLR_1 Sys-3 Flr-1 Sch-D HPlcmt-north ZN NECB System 3 PSZ Occ Sch Tuesday, !- Tuesday Schedule:Day Name\n   *************   1455   Sp-Computer_Class_ZN_1_FLR_1 Sys-3 Flr-1 Sch-D HPlcmt-north ZN NECB System 3 PSZ Occ Sch Wednesday, !- Wednesday Schedule:Day Name\n   *************   1456   Sp-Computer_Class_ZN_1_FLR_1 Sys-3 Flr-1 Sch-D HPlcmt-north ZN NECB System 3 PSZ Occ Sch Thursday, !- Thursday Schedule:Day Name\n   *************   1457   Sp-Computer_Class_ZN_1_FLR_1 Sys-3 Flr-1 Sch-D HPlcmt-north ZN NECB System 3 PSZ Occ Sch Friday, !- Friday Schedule:Day Name\n   *************   1458   Sp-Computer_Class_ZN_1_FLR_1 Sys-3 Flr-1 Sch-D HPlcmt-north ZN NECB System 3 PSZ Occ Sch Saturday, !- Saturday Schedule:Day Name\n   *************   1459   Sp-Computer_Class_ZN_1_FLR_1 Sys-3 Flr-1 Sch-D HPlcmt-north ZN NECB System 3 PSZ Occ Sch Default, !- Holiday Schedule:Day Name\n   *************   1460   Sp-Computer_Class_ZN_1_FLR_1 Sys-3 Flr-1 Sch-D HPlcmt-north ZN NECB System 3 PSZ Occ Sch Summer Design Day, !- SummerDesignDay Schedule:Day Name\n   ** Warning ** IP: IDF line~1460 Alpha Argument length exceeds maximum, will be truncated=  Sp-Computer_Class_ZN_1_FLR_1 Sys-3 Flr-1 Sch-D HPlcmt-north ZN NECB System 3 PSZ Occ Sch Summer Design Da\n   **   ~~~   ** Will be processed as Alpha=SP-COMPUTER_CLASS_ZN_1_FLR_1 SYS-3 FLR-1 SCH-D HPLCMT-NORTH ZN NECB SYSTEM 3 PSZ OCC SCH SUMMER DESIGN DAY\n   ************* IDF Context for following error/warning message:\n   ************* Note -- lines truncated at 300 characters, if necessary...\n   *************   1450 Schedule:Week:Daily,\n   ************* indicated Name=Schedule:Week:Daily {707db47b-ba22-444a-9762-39ba3ffd144f}\n   ************* Only last 10 lines before error line shown.....\n   *************   1452   Sp-Computer_Class_ZN_1_FLR_1 Sys-3 Flr-1 Sch-D HPlcmt-north ZN NECB System 3 PSZ Occ Sch Sunday, !- Sunday Schedule:Day Name\n   *************   1453   Sp-Computer_Class_ZN_1_FLR_1 Sys-3 Flr-1 Sch-D HPlcmt-north ZN NECB System 3 PSZ Occ Sch Monday, !- Monday Schedule:Day Name\n   *************   1454   Sp-Computer_Class_ZN_1_FLR_1 Sys-3 Flr-1 Sch-D HPlcmt-north ZN NECB System 3 PSZ Occ Sch Tuesday, !- Tuesday Schedule:Day Name\n   *************   1455   Sp-Computer_Class_ZN_1_FLR_1 Sys-3 Flr-1 Sch-D HPlcmt-north ZN NECB System 3 PSZ Occ Sch Wednesday, !- Wednesday Schedule:Day Name\n   *************   1456   Sp-Computer_Class_ZN_1_FLR_1 Sys-3 Flr-1 Sch-D HPlcmt-north ZN NECB System 3 PSZ Occ Sch Thursday, !- Thursday Schedule:Day Name\n   *************   1457   Sp-Computer_Class_ZN_1_FLR_1 Sys-3 Flr-1 Sch-D HPlcmt-north ZN NECB System 3 PSZ Occ Sch Friday, !- Friday Schedule:Day Name\n   *************   1458   Sp-Computer_Class_ZN_1_FLR_1 Sys-3 Flr-1 Sch-D HPlcmt-north ZN NECB System 3 PSZ Occ Sch Saturday, !- Saturday Schedule:Day Name\n   *************   1459   Sp-Computer_Class_ZN_1_FLR_1 Sys-3 Flr-1 Sch-D HPlcmt-north ZN NECB System 3 PSZ Occ Sch Default, !- Holiday Schedule:Day Name\n   *************   1460   Sp-Computer_Class_ZN_1_FLR_1 Sys-3 Flr-1 Sch-D HPlcmt-north ZN NECB System 3 PSZ Occ Sch Summer Design Day, !- SummerDesignDay Schedule:Day Name\n   *************   1461   Sp-Computer_Class_ZN_1_FLR_1 Sys-3 Flr-1 Sch-D HPlcmt-north ZN NECB System 3 PSZ Occ Sch Winter Design Day, !- WinterDesignDay Schedule:Day Name\n   ** Warning ** IP: IDF line~1461 Alpha Argument length exceeds maximum, will be truncated=  Sp-Computer_Class_ZN_1_FLR_1 Sys-3 Flr-1 Sch-D HPlcmt-north ZN NECB System 3 PSZ Occ Sch Winter Design Da\n   **   ~~~   ** Will be processed as Alpha=SP-COMPUTER_CLASS_ZN_1_FLR_1 SYS-3 FLR-1 SCH-D HPLCMT-NORTH ZN NECB SYSTEM 3 PSZ OCC SCH WINTER DESIGN DAY\n   ************* IDF Context for following error/warning message:\n   ************* Note -- lines truncated at 300 characters, if necessary...\n   *************   1481 Schedule:Day:Interval,\n   ************* indicated Name=Sp-Computer_Class_ZN_1_FLR_1 Sys-3 Flr-1 Sch-D HPlcmt-north ZN NECB System 3 PSZ Occ Sch Summer Design Day\n   ************* Only last 1 lines before error line shown.....\n   *************   1482   Sp-Computer_Class_ZN_1_FLR_1 Sys-3 Flr-1 Sch-D HPlcmt-north ZN NECB System 3 PSZ Occ Sch Summer Design Day, !- Name\n   ** Warning ** IP: IDF line~1482 Alpha Argument length exceeds maximum, will be truncated=  Sp-Computer_Class_ZN_1_FLR_1 Sys-3 Flr-1 Sch-D HPlcmt-north ZN NECB System 3 PSZ Occ Sch Summer Design Da\n   **   ~~~   ** Will be processed as Alpha=SP-COMPUTER_CLASS_ZN_1_FLR_1 SYS-3 FLR-1 SCH-D HPLCMT-NORTH ZN NECB SYSTEM 3 PSZ OCC SCH SUMMER DESIGN DAY\n   ************* IDF Context for following error/warning message:\n   ************* Note -- lines truncated at 300 characters, if necessary...\n   *************   1488 Schedule:Day:Interval,\n   ************* indicated Name=Sp-Computer_Class_ZN_1_FLR_1 Sys-3 Flr-1 Sch-D HPlcmt-north ZN NECB System 3 PSZ Occ Sch Winter Design Day\n   ************* Only last 1 lines before error line shown.....\n   *************   1489   Sp-Computer_Class_ZN_1_FLR_1 Sys-3 Flr-1 Sch-D HPlcmt-north ZN NECB System 3 PSZ Occ Sch Winter Design Day, !- Name\n   ** Warning ** IP: IDF line~1489 Alpha Argument length exceeds maximum, will be truncated=  Sp-Computer_Class_ZN_1_FLR_1 Sys-3 Flr-1 Sch-D HPlcmt-north ZN NECB System 3 PSZ Occ Sch Winter Design Da\n   **   ~~~   ** Will be processed as Alpha=SP-COMPUTER_CLASS_ZN_1_FLR_1 SYS-3 FLR-1 SCH-D HPLCMT-NORTH ZN NECB SYSTEM 3 PSZ OCC SCH WINTER DESIGN DAY\n   ************* IDF Context for following error/warning message:\n   ************* Note -- lines truncated at 300 characters, if necessary...\n   *************   1769 Schedule:Day:Interval,\n   ************* indicated Name=Sp-Corner_Class_1_Pod_1_ZN_1_FLR_1 Sys-3 Flr-1 Sch-D HPlcmt-south ZN NECB System 3 PSZ Occ Sch Sunday\n   ************* Only last 1 lines before error line shown.....\n   *************   1770   Sp-Corner_Class_1_Pod_1_ZN_1_FLR_1 Sys-3 Flr-1 Sch-D HPlcmt-south ZN NECB System 3 PSZ Occ Sch Sunday, !- Name\n   ** Warning ** IP: IDF line~1770 Alpha Argument length exceeds maximum, will be truncated=  Sp-Corner_Class_1_Pod_1_ZN_1_FLR_1 Sys-3 Flr-1 Sch-D HPlcmt-south ZN NECB System 3 PSZ Occ Sch Sunda\n   **   ~~~   ** Will be processed as Alpha=SP-CORNER_CLASS_1_POD_1_ZN_1_FLR_1 SYS-3 FLR-1 SCH-D HPLCMT-SOUTH ZN NECB SYSTEM 3 PSZ OCC SCH SUNDAY\n   ************* IDF Context for following error/warning message:\n   ************* Note -- lines truncated at 300 characters, if necessary...\n   *************   1776 Schedule:Day:Interval,\n   ************* indicated Name=Sp-Corner_Class_1_Pod_1_ZN_1_FLR_1 Sys-3 Flr-1 Sch-D HPlcmt-south ZN NECB System 3 PSZ Occ Sch Monday\n   ************* Only last 1 lines before error line shown.....\n   *************   1777   Sp-Corner_Class_1_Pod_1_ZN_1_FLR_1 Sys-3 Flr-1 Sch-D HPlcmt-south ZN NECB System 3 PSZ Occ Sch Monday, !- Name\n   ** Warning ** IP: IDF line~1777 Alpha Argument length exceeds maximum, will be truncated=  Sp-Corner_Class_1_Pod_1_ZN_1_FLR_1 Sys-3 Flr-1 Sch-D HPlcmt-south ZN NECB System 3 PSZ Occ Sch Monda\n   **   ~~~   ** Will be processed as Alpha=SP-CORNER_CLASS_1_POD_1_ZN_1_FLR_1 SYS-3 FLR-1 SCH-D HPLCMT-SOUTH ZN NECB SYSTEM 3 PSZ OCC SCH MONDAY\n   ************* IDF Context for following error/warning message:\n   ************* Note -- lines truncated at 300 characters, if necessary...\n   *************   1791 Schedule:Day:Interval,\n   ************* indicated Name=Sp-Corner_Class_1_Pod_1_ZN_1_FLR_1 Sys-3 Flr-1 Sch-D HPlcmt-south ZN NECB System 3 PSZ Occ Sch Tuesday\n   ************* Only last 1 lines before error line shown.....\n   *************   1792   Sp-Corner_Class_1_Pod_1_ZN_1_FLR_1 Sys-3 Flr-1 Sch-D HPlcmt-south ZN NECB System 3 PSZ Occ Sch Tuesday, !- Name\n   ** Warning ** IP: IDF line~1792 Alpha Argument length exceeds maximum, will be truncated=  Sp-Corner_Class_1_Pod_1_ZN_1_FLR_1 Sys-3 Flr-1 Sch-D HPlcmt-south ZN NECB System 3 PSZ Occ Sch Tuesda\n   **   ~~~   ** Will be processed as Alpha=SP-CORNER_CLASS_1_POD_1_ZN_1_FLR_1 SYS-3 FLR-1 SCH-D HPLCMT-SOUTH ZN NECB SYSTEM 3 PSZ OCC SCH TUESDAY\n   ************* IDF Context for following error/warning message:\n   ************* Note -- lines truncated at 300 characters, if necessary...\n   *************   1806 Schedule:Day:Interval,\n   ************* indicated Name=Sp-Corner_Class_1_Pod_1_ZN_1_FLR_1 Sys-3 Flr-1 Sch-D HPlcmt-south ZN NECB System 3 PSZ Occ Sch Wednesday\n   ************* Only last 1 lines before error line shown.....\n   *************   1807   Sp-Corner_Class_1_Pod_1_ZN_1_FLR_1 Sys-3 Flr-1 Sch-D HPlcmt-south ZN NECB System 3 PSZ Occ Sch Wednesday, !- Name\n   ** Warning ** IP: IDF line~1807 Alpha Argument length exceeds maximum, will be truncated=  Sp-Corner_Class_1_Pod_1_ZN_1_FLR_1 Sys-3 Flr-1 Sch-D HPlcmt-south ZN NECB System 3 PSZ Occ Sch Wednesda\n   **   ~~~   ** Will be processed as Alpha=SP-CORNER_CLASS_1_POD_1_ZN_1_FLR_1 SYS-3 FLR-1 SCH-D HPLCMT-SOUTH ZN NECB SYSTEM 3 PSZ OCC SCH WEDNESDAY\n   ************* IDF Context for following error/warning message:\n   ************* Note -- lines truncated at 300 characters, if necessary...\n   *************   1821 Schedule:Day:Interval,\n   ************* indicated Name=Sp-Corner_Class_1_Pod_1_ZN_1_FLR_1 Sys-3 Flr-1 Sch-D HPlcmt-south ZN NECB System 3 PSZ Occ Sch Thursday\n   ************* Only last 1 lines before error line shown.....\n   *************   1822   Sp-Corner_Class_1_Pod_1_ZN_1_FLR_1 Sys-3 Flr-1 Sch-D HPlcmt-south ZN NECB System 3 PSZ Occ Sch Thursday, !- Name\n   ** Warning ** IP: IDF line~1822 Alpha Argument length exceeds maximum, will be truncated=  Sp-Corner_Class_1_Pod_1_ZN_1_FLR_1 Sys-3 Flr-1 Sch-D HPlcmt-south ZN NECB System 3 PSZ Occ Sch Thursda\n   **   ~~~   ** Will be processed as Alpha=SP-CORNER_CLASS_1_POD_1_ZN_1_FLR_1 SYS-3 FLR-1 SCH-D HPLCMT-SOUTH ZN NECB SYSTEM 3 PSZ OCC SCH THURSDAY\n   ************* IDF Context for following error/warning message:\n   ************* Note -- lines truncated at 300 characters, if necessary...\n   *************   1836 Schedule:Day:Interval,\n   ************* indicated Name=Sp-Corner_Class_1_Pod_1_ZN_1_FLR_1 Sys-3 Flr-1 Sch-D HPlcmt-south ZN NECB System 3 PSZ Occ Sch Friday\n   ************* Only last 1 lines before error line shown.....\n   *************   1837   Sp-Corner_Class_1_Pod_1_ZN_1_FLR_1 Sys-3 Flr-1 Sch-D HPlcmt-south ZN NECB System 3 PSZ Occ Sch Friday, !- Name\n   ** Warning ** IP: IDF line~1837 Alpha Argument length exceeds maximum, will be truncated=  Sp-Corner_Class_1_Pod_1_ZN_1_FLR_1 Sys-3 Flr-1 Sch-D HPlcmt-south ZN NECB System 3 PSZ Occ Sch Frida\n   **   ~~~   ** Will be processed as Alpha=SP-CORNER_CLASS_1_POD_1_ZN_1_FLR_1 SYS-3 FLR-1 SCH-D HPLCMT-SOUTH ZN NECB SYSTEM 3 PSZ OCC SCH FRIDAY\n   ************* IDF Context for following error/warning message:\n   ************* Note -- lines truncated at 300 characters, if necessary...\n   *************   1851 Schedule:Day:Interval,\n   ************* indicated Name=Sp-Corner_Class_1_Pod_1_ZN_1_FLR_1 Sys-3 Flr-1 Sch-D HPlcmt-south ZN NECB System 3 PSZ Occ Sch Saturday\n   ************* Only last 1 lines before error line shown.....\n   *************   1852   Sp-Corner_Class_1_Pod_1_ZN_1_FLR_1 Sys-3 Flr-1 Sch-D HPlcmt-south ZN NECB System 3 PSZ Occ Sch Saturday, !- Name\n   ** Warning ** IP: IDF line~1852 Alpha Argument length exceeds maximum, will be truncated=  Sp-Corner_Class_1_Pod_1_ZN_1_FLR_1 Sys-3 Flr-1 Sch-D HPlcmt-south ZN NECB System 3 PSZ Occ Sch Saturda\n   **   ~~~   ** Will be processed as Alpha=SP-CORNER_CLASS_1_POD_1_ZN_1_FLR_1 SYS-3 FLR-1 SCH-D HPLCMT-SOUTH ZN NECB SYSTEM 3 PSZ OCC SCH SATURDAY\n   ************* IDF Context for following error/warning message:\n   ************* Note -- lines truncated at 300 characters, if necessary...\n   *************   1858 Schedule:Week:Daily,\n   ************* indicated Name=Schedule:Week:Daily {312cf629-3afb-4e8d-9d84-513ad17d790c}\n   ************* Only last 2 lines before error line shown.....\n   *************   1859   Schedule:Week:Daily {312cf629-3afb-4e8d-9d84-513ad17d790c}, !- Name\n   *************   1860   Sp-Corner_Class_1_Pod_1_ZN_1_FLR_1 Sys-3 Flr-1 Sch-D HPlcmt-south ZN NECB System 3 PSZ Occ Sch Sunday, !- Sunday Schedule:Day Name\n   ** Warning ** IP: IDF line~1860 Alpha Argument length exceeds maximum, will be truncated=  Sp-Corner_Class_1_Pod_1_ZN_1_FLR_1 Sys-3 Flr-1 Sch-D HPlcmt-south ZN NECB System 3 PSZ Occ Sch Sunda\n   **   ~~~   ** Will be processed as Alpha=SP-CORNER_CLASS_1_POD_1_ZN_1_FLR_1 SYS-3 FLR-1 SCH-D HPLCMT-SOUTH ZN NECB SYSTEM 3 PSZ OCC SCH SUNDAY\n   ************* IDF Context for following error/warning message:\n   ************* Note -- lines truncated at 300 characters, if necessary...\n   *************   1858 Schedule:Week:Daily,\n   ************* indicated Name=Schedule:Week:Daily {312cf629-3afb-4e8d-9d84-513ad17d790c}\n   ************* Only last 3 lines before error line shown.....\n   *************   1859   Schedule:Week:Daily {312cf629-3afb-4e8d-9d84-513ad17d790c}, !- Name\n   *************   1860   Sp-Corner_Class_1_Pod_1_ZN_1_FLR_1 Sys-3 Flr-1 Sch-D HPlcmt-south ZN NECB System 3 PSZ Occ Sch Sunday, !- Sunday Schedule:Day Name\n   *************   1861   Sp-Corner_Class_1_Pod_1_ZN_1_FLR_1 Sys-3 Flr-1 Sch-D HPlcmt-south ZN NECB System 3 PSZ Occ Sch Monday, !- Monday Schedule:Day Name\n   ** Warning ** IP: IDF line~1861 Alpha Argument length exceeds maximum, will be truncated=  Sp-Corner_Class_1_Pod_1_ZN_1_FLR_1 Sys-3 Flr-1 Sch-D HPlcmt-south ZN NECB System 3 PSZ Occ Sch Monda\n   **   ~~~   ** Will be processed as Alpha=SP-CORNER_CLASS_1_POD_1_ZN_1_FLR_1 SYS-3 FLR-1 SCH-D HPLCMT-SOUTH ZN NECB SYSTEM 3 PSZ OCC SCH MONDAY\n   ************* IDF Context for following error/warning message:\n   ************* Note -- lines truncated at 300 characters, if necessary...\n   *************   1858 Schedule:Week:Daily,\n   ************* indicated Name=Schedule:Week:Daily {312cf629-3afb-4e8d-9d84-513ad17d790c}\n   ************* Only last 4 lines before error line shown.....\n   *************   1859   Schedule:Week:Daily {312cf629-3afb-4e8d-9d84-513ad17d790c}, !- Name\n   *************   1860   Sp-Corner_Class_1_Pod_1_ZN_1_FLR_1 Sys-3 Flr-1 Sch-D HPlcmt-south ZN NECB System 3 PSZ Occ Sch Sunday, !- Sunday Schedule:Day Name\n   *************   1861   Sp-Corner_Class_1_Pod_1_ZN_1_FLR_1 Sys-3 Flr-1 Sch-D HPlcmt-south ZN NECB System 3 PSZ Occ Sch Monday, !- Monday Schedule:Day Name\n   *************   1862   Sp-Corner_Class_1_Pod_1_ZN_1_FLR_1 Sys-3 Flr-1 Sch-D HPlcmt-south ZN NECB System 3 PSZ Occ Sch Tuesday, !- Tuesday Schedule:Day Name\n   ** Warning ** IP: IDF line~1862 Alpha Argument length exceeds maximum, will be truncated=  Sp-Corner_Class_1_Pod_1_ZN_1_FLR_1 Sys-3 Flr-1 Sch-D HPlcmt-south ZN NECB System 3 PSZ Occ Sch Tuesda\n   **   ~~~   ** Will be processed as Alpha=SP-CORNER_CLASS_1_POD_1_ZN_1_FLR_1 SYS-3 FLR-1 SCH-D HPLCMT-SOUTH ZN NECB SYSTEM 3 PSZ OCC SCH TUESDAY\n   ************* IDF Context for following error/warning message:\n   ************* Note -- lines truncated at 300 characters, if necessary...\n   *************   1858 Schedule:Week:Daily,\n   ************* indicated Name=Schedule:Week:Daily {312cf629-3afb-4e8d-9d84-513ad17d790c}\n   ************* Only last 5 lines before error line shown.....\n   *************   1859   Schedule:Week:Daily {312cf629-3afb-4e8d-9d84-513ad17d790c}, !- Name\n   *************   1860   Sp-Corner_Class_1_Pod_1_ZN_1_FLR_1 Sys-3 Flr-1 Sch-D HPlcmt-south ZN NECB System 3 PSZ Occ Sch Sunday, !- Sunday Schedule:Day Name\n   *************   1861   Sp-Corner_Class_1_Pod_1_ZN_1_FLR_1 Sys-3 Flr-1 Sch-D HPlcmt-south ZN NECB System 3 PSZ Occ Sch Monday, !- Monday Schedule:Day Name\n   *************   1862   Sp-Corner_Class_1_Pod_1_ZN_1_FLR_1 Sys-3 Flr-1 Sch-D HPlcmt-south ZN NECB System 3 PSZ Occ Sch Tuesday, !- Tuesday Schedule:Day Name\n   *************   1863   Sp-Corner_Class_1_Pod_1_ZN_1_FLR_1 Sys-3 Flr-1 Sch-D HPlcmt-south ZN NECB System 3 PSZ Occ Sch Wednesday, !- Wednesday Schedule:Day Name\n   ** Warning ** IP: IDF line~1863 Alpha Argument length exceeds maximum, will be truncated=  Sp-Corner_Class_1_Pod_1_ZN_1_FLR_1 Sys-3 Flr-1 Sch-D HPlcmt-south ZN NECB System 3 PSZ Occ Sch Wednesda\n   **   ~~~   ** Will be processed as Alpha=SP-CORNER_CLASS_1_POD_1_ZN_1_FLR_1 SYS-3 FLR-1 SCH-D HPLCMT-SOUTH ZN NECB SYSTEM 3 PSZ OCC SCH WEDNESDAY\n   ************* IDF Context for following error/warning message:\n   ************* Note -- lines truncated at 300 characters, if necessary...\n   *************   1858 Schedule:Week:Daily,\n   ************* indicated Name=Schedule:Week:Daily {312cf629-3afb-4e8d-9d84-513ad17d790c}\n   ************* Only last 6 lines before error line shown.....\n   *************   1859   Schedule:Week:Daily {312cf629-3afb-4e8d-9d84-513ad17d790c}, !- Name\n   *************   1860   Sp-Corner_Class_1_Pod_1_ZN_1_FLR_1 Sys-3 Flr-1 Sch-D HPlcmt-south ZN NECB System 3 PSZ Occ Sch Sunday, !- Sunday Schedule:Day Name\n   *************   1861   Sp-Corner_Class_1_Pod_1_ZN_1_FLR_1 Sys-3 Flr-1 Sch-D HPlcmt-south ZN NECB System 3 PSZ Occ Sch Monday, !- Monday Schedule:Day Name\n   *************   1862   Sp-Corner_Class_1_Pod_1_ZN_1_FLR_1 Sys-3 Flr-1 Sch-D HPlcmt-south ZN NECB System 3 PSZ Occ Sch Tuesday, !- Tuesday Schedule:Day Name\n   *************   1863   Sp-Corner_Class_1_Pod_1_ZN_1_FLR_1 Sys-3 Flr-1 Sch-D HPlcmt-south ZN NECB System 3 PSZ Occ Sch Wednesday, !- Wednesday Schedule:Day Name\n   *************   1864   Sp-Corner_Class_1_Pod_1_ZN_1_FLR_1 Sys-3 Flr-1 Sch-D HPlcmt-south ZN NECB System 3 PSZ Occ Sch Thursday, !- Thursday Schedule:Day Name\n   ** Warning ** IP: IDF line~1864 Alpha Argument length exceeds maximum, will be truncated=  Sp-Corner_Class_1_Pod_1_ZN_1_FLR_1 Sys-3 Flr-1 Sch-D HPlcmt-south ZN NECB System 3 PSZ Occ Sch Thursda\n   **   ~~~   ** Will be processed as Alpha=SP-CORNER_CLASS_1_POD_1_ZN_1_FLR_1 SYS-3 FLR-1 SCH-D HPLCMT-SOUTH ZN NECB SYSTEM 3 PSZ OCC SCH THURSDAY\n   ************* IDF Context for following error/warning message:\n   ************* Note -- lines truncated at 300 characters, if necessary...\n   *************   1858 Schedule:Week:Daily,\n   ************* indicated Name=Schedule:Week:Daily {312cf629-3afb-4e8d-9d84-513ad17d790c}\n   ************* Only last 7 lines before error line shown.....\n   *************   1859   Schedule:Week:Daily {312cf629-3afb-4e8d-9d84-513ad17d790c}, !- Name\n   *************   1860   Sp-Corner_Class_1_Pod_1_ZN_1_FLR_1 Sys-3 Flr-1 Sch-D HPlcmt-south ZN NECB System 3 PSZ Occ Sch Sunday, !- Sunday Schedule:Day Name\n   *************   1861   Sp-Corner_Class_1_Pod_1_ZN_1_FLR_1 Sys-3 Flr-1 Sch-D HPlcmt-south ZN NECB System 3 PSZ Occ Sch Monday, !- Monday Schedule:Day Name\n   *************   1862   Sp-Corner_Class_1_Pod_1_ZN_1_FLR_1 Sys-3 Flr-1 Sch-D HPlcmt-south ZN NECB System 3 PSZ Occ Sch Tuesday, !- Tuesday Schedule:Day Name\n   *************   1863   Sp-Corner_Class_1_Pod_1_ZN_1_FLR_1 Sys-3 Flr-1 Sch-D HPlcmt-south ZN NECB System 3 PSZ Occ Sch Wednesday, !- Wednesday Schedule:Day Name\n   *************   1864   Sp-Corner_Class_1_Pod_1_ZN_1_FLR_1 Sys-3 Flr-1 Sch-D HPlcmt-south ZN NECB System 3 PSZ Occ Sch Thursday, !- Thursday Schedule:Day Name\n   *************   1865   Sp-Corner_Class_1_Pod_1_ZN_1_FLR_1 Sys-3 Flr-1 Sch-D HPlcmt-south ZN NECB System 3 PSZ Occ Sch Friday, !- Friday Schedule:Day Name\n   ** Warning ** IP: IDF line~1865 Alpha Argument length exceeds maximum, will be truncated=  Sp-Corner_Class_1_Pod_1_ZN_1_FLR_1 Sys-3 Flr-1 Sch-D HPlcmt-south ZN NECB System 3 PSZ Occ Sch Frida\n   **   ~~~   ** Will be processed as Alpha=SP-CORNER_CLASS_1_POD_1_ZN_1_FLR_1 SYS-3 FLR-1 SCH-D HPLCMT-SOUTH ZN NECB SYSTEM 3 PSZ OCC SCH FRIDAY\n   ************* IDF Context for following error/warning message:\n   ************* Note -- lines truncated at 300 characters, if necessary...\n   *************   1858 Schedule:Week:Daily,\n   ************* indicated Name=Schedule:Week:Daily {312cf629-3afb-4e8d-9d84-513ad17d790c}\n   ************* Only last 8 lines before error line shown.....\n   *************   1859   Schedule:Week:Daily {312cf629-3afb-4e8d-9d84-513ad17d790c}, !- Name\n   *************   1860   Sp-Corner_Class_1_Pod_1_ZN_1_FLR_1 Sys-3 Flr-1 Sch-D HPlcmt-south ZN NECB System 3 PSZ Occ Sch Sunday, !- Sunday Schedule:Day Name\n   *************   1861   Sp-Corner_Class_1_Pod_1_ZN_1_FLR_1 Sys-3 Flr-1 Sch-D HPlcmt-south ZN NECB System 3 PSZ Occ Sch Monday, !- Monday Schedule:Day Name\n   *************   1862   Sp-Corner_Class_1_Pod_1_ZN_1_FLR_1 Sys-3 Flr-1 Sch-D HPlcmt-south ZN NECB System 3 PSZ Occ Sch Tuesday, !- Tuesday Schedule:Day Name\n   *************   1863   Sp-Corner_Class_1_Pod_1_ZN_1_FLR_1 Sys-3 Flr-1 Sch-D HPlcmt-south ZN NECB System 3 PSZ Occ Sch Wednesday, !- Wednesday Schedule:Day Name\n   *************   1864   Sp-Corner_Class_1_Pod_1_ZN_1_FLR_1 Sys-3 Flr-1 Sch-D HPlcmt-south ZN NECB System 3 PSZ Occ Sch Thursday, !- Thursday Schedule:Day Name\n   *************   1865   Sp-Corner_Class_1_Pod_1_ZN_1_FLR_1 Sys-3 Flr-1 Sch-D HPlcmt-south ZN NECB System 3 PSZ Occ Sch Friday, !- Friday Schedule:Day Name\n   *************   1866   Sp-Corner_Class_1_Pod_1_ZN_1_FLR_1 Sys-3 Flr-1 Sch-D HPlcmt-south ZN NECB System 3 PSZ Occ Sch Saturday, !- Saturday Schedule:Day Name\n   ** Warning ** IP: IDF line~1866 Alpha Argument length exceeds maximum, will be truncated=  Sp-Corner_Class_1_Pod_1_ZN_1_FLR_1 Sys-3 Flr-1 Sch-D HPlcmt-south ZN NECB System 3 PSZ Occ Sch Saturda\n   **   ~~~   ** Will be processed as Alpha=SP-CORNER_CLASS_1_POD_1_ZN_1_FLR_1 SYS-3 FLR-1 SCH-D HPLCMT-SOUTH ZN NECB SYSTEM 3 PSZ OCC SCH SATURDAY\n   ************* IDF Context for following error/warning message:\n   ************* Note -- lines truncated at 300 characters, if necessary...\n   *************   1858 Schedule:Week:Daily,\n   ************* indicated Name=Schedule:Week:Daily {312cf629-3afb-4e8d-9d84-513ad17d790c}\n   ************* Only last 9 lines before error line shown.....\n   *************   1859   Schedule:Week:Daily {312cf629-3afb-4e8d-9d84-513ad17d790c}, !- Name\n   *************   1860   Sp-Corner_Class_1_Pod_1_ZN_1_FLR_1 Sys-3 Flr-1 Sch-D HPlcmt-south ZN NECB System 3 PSZ Occ Sch Sunday, !- Sunday Schedule:Day Name\n   *************   1861   Sp-Corner_Class_1_Pod_1_ZN_1_FLR_1 Sys-3 Flr-1 Sch-D HPlcmt-south ZN NECB System 3 PSZ Occ Sch Monday, !- Monday Schedule:Day Name\n   *************   1862   Sp-Corner_Class_1_Pod_1_ZN_1_FLR_1 Sys-3 Flr-1 Sch-D HPlcmt-south ZN NECB System 3 PSZ Occ Sch Tuesday, !- Tuesday Schedule:Day Name\n   *************   1863   Sp-Corner_Class_1_Pod_1_ZN_1_FLR_1 Sys-3 Flr-1 Sch-D HPlcmt-south ZN NECB System 3 PSZ Occ Sch Wednesday, !- Wednesday Schedule:Day Name\n   *************   1864   Sp-Corner_Class_1_Pod_1_ZN_1_FLR_1 Sys-3 Flr-1 Sch-D HPlcmt-south ZN NECB System 3 PSZ Occ Sch Thursday, !- Thursday Schedule:Day Name\n   *************   1865   Sp-Corner_Class_1_Pod_1_ZN_1_FLR_1 Sys-3 Flr-1 Sch-D HPlcmt-south ZN NECB System 3 PSZ Occ Sch Friday, !- Friday Schedule:Day Name\n   *************   1866   Sp-Corner_Class_1_Pod_1_ZN_1_FLR_1 Sys-3 Flr-1 Sch-D HPlcmt-south ZN NECB System 3 PSZ Occ Sch Saturday, !- Saturday Schedule:Day Name\n   *************   1867   Sp-Corner_Class_1_Pod_1_ZN_1_FLR_1 Sys-3 Flr-1 Sch-D HPlcmt-south ZN NECB System 3 PSZ Occ Sch Default, !- Holiday Schedule:Day Name\n   ** Warning ** IP: IDF line~1867 Alpha Argument length exceeds maximum, will be truncated=  Sp-Corner_Class_1_Pod_1_ZN_1_FLR_1 Sys-3 Flr-1 Sch-D HPlcmt-south ZN NECB System 3 PSZ Occ Sch Defaul\n   **   ~~~   ** Will be processed as Alpha=SP-CORNER_CLASS_1_POD_1_ZN_1_FLR_1 SYS-3 FLR-1 SCH-D HPLCMT-SOUTH ZN NECB SYSTEM 3 PSZ OCC SCH DEFAULT\n   ************* IDF Context for following error/warning message:\n   ************* Note -- lines truncated at 300 characters, if necessary...\n   *************   1858 Schedule:Week:Daily,\n   ************* indicated Name=Schedule:Week:Daily {312cf629-3afb-4e8d-9d84-513ad17d790c}\n   ************* Only last 10 lines before error line shown.....\n   *************   1859   Schedule:Week:Daily {312cf629-3afb-4e8d-9d84-513ad17d790c}, !- Name\n   *************   1860   Sp-Corner_Class_1_Pod_1_ZN_1_FLR_1 Sys-3 Flr-1 Sch-D HPlcmt-south ZN NECB System 3 PSZ Occ Sch Sunday, !- Sunday Schedule:Day Name\n   *************   1861   Sp-Corner_Class_1_Pod_1_ZN_1_FLR_1 Sys-3 Flr-1 Sch-D HPlcmt-south ZN NECB System 3 PSZ Occ Sch Monday, !- Monday Schedule:Day Name\n   *************   1862   Sp-Corner_Class_1_Pod_1_ZN_1_FLR_1 Sys-3 Flr-1 Sch-D HPlcmt-south ZN NECB System 3 PSZ Occ Sch Tuesday, !- Tuesday Schedule:Day Name\n   *************   1863   Sp-Corner_Class_1_Pod_1_ZN_1_FLR_1 Sys-3 Flr-1 Sch-D HPlcmt-south ZN NECB System 3 PSZ Occ Sch Wednesday, !- Wednesday Schedule:Day Name\n   *************   1864   Sp-Corner_Class_1_Pod_1_ZN_1_FLR_1 Sys-3 Flr-1 Sch-D HPlcmt-south ZN NECB System 3 PSZ Occ Sch Thursday, !- Thursday Schedule:Day Name\n   *************   1865   Sp-Corner_Class_1_Pod_1_ZN_1_FLR_1 Sys-3 Flr-1 Sch-D HPlcmt-south ZN NECB System 3 PSZ Occ Sch Friday, !- Friday Schedule:Day Name\n   *************   1866   Sp-Corner_Class_1_Pod_1_ZN_1_FLR_1 Sys-3 Flr-1 Sch-D HPlcmt-south ZN NECB System 3 PSZ Occ Sch Saturday, !- Saturday Schedule:Day Name\n   *************   1867   Sp-Corner_Class_1_Pod_1_ZN_1_FLR_1 Sys-3 Flr-1 Sch-D HPlcmt-south ZN NECB System 3 PSZ Occ Sch Default, !- Holiday Schedule:Day Name\n   *************   1868   Sp-Corner_Class_1_Pod_1_ZN_1_FLR_1 Sys-3 Flr-1 Sch-D HPlcmt-south ZN NECB System 3 PSZ Occ Sch Summer Design Day, !- SummerDesignDay Schedule:Day Name\n   ** Warning ** IP: IDF line~1868 Alpha Argument length exceeds maximum, will be truncated=  Sp-Corner_Class_1_Pod_1_ZN_1_FLR_1 Sys-3 Flr-1 Sch-D HPlcmt-south ZN NECB System 3 PSZ Occ Sch Summer Design Da\n   **   ~~~   ** Will be processed as Alpha=SP-CORNER_CLASS_1_POD_1_ZN_1_FLR_1 SYS-3 FLR-1 SCH-D HPLCMT-SOUTH ZN NECB SYSTEM 3 PSZ OCC SCH SUMMER DESIGN DAY\n   ************* IDF Context for following error/warning message:\n   ************* Note -- lines truncated at 300 characters, if necessary...\n   *************   1858 Schedule:Week:Daily,\n   ************* indicated Name=Schedule:Week:Daily {312cf629-3afb-4e8d-9d84-513ad17d790c}\n   ************* Only last 10 lines before error line shown.....\n   *************   1860   Sp-Corner_Class_1_Pod_1_ZN_1_FLR_1 Sys-3 Flr-1 Sch-D HPlcmt-south ZN NECB System 3 PSZ Occ Sch Sunday, !- Sunday Schedule:Day Name\n   *************   1861   Sp-Corner_Class_1_Pod_1_ZN_1_FLR_1 Sys-3 Flr-1 Sch-D HPlcmt-south ZN NECB System 3 PSZ Occ Sch Monday, !- Monday Schedule:Day Name\n   *************   1862   Sp-Corner_Class_1_Pod_1_ZN_1_FLR_1 Sys-3 Flr-1 Sch-D HPlcmt-south ZN NECB System 3 PSZ Occ Sch Tuesday, !- Tuesday Schedule:Day Name\n   *************   1863   Sp-Corner_Class_1_Pod_1_ZN_1_FLR_1 Sys-3 Flr-1 Sch-D HPlcmt-south ZN NECB System 3 PSZ Occ Sch Wednesday, !- Wednesday Schedule:Day Name\n   *************   1864   Sp-Corner_Class_1_Pod_1_ZN_1_FLR_1 Sys-3 Flr-1 Sch-D HPlcmt-south ZN NECB System 3 PSZ Occ Sch Thursday, !- Thursday Schedule:Day Name\n   *************   1865   Sp-Corner_Class_1_Pod_1_ZN_1_FLR_1 Sys-3 Flr-1 Sch-D HPlcmt-south ZN NECB System 3 PSZ Occ Sch Friday, !- Friday Schedule:Day Name\n   *************   1866   Sp-Corner_Class_1_Pod_1_ZN_1_FLR_1 Sys-3 Flr-1 Sch-D HPlcmt-south ZN NECB System 3 PSZ Occ Sch Saturday, !- Saturday Schedule:Day Name\n   *************   1867   Sp-Corner_Class_1_Pod_1_ZN_1_FLR_1 Sys-3 Flr-1 Sch-D HPlcmt-south ZN NECB System 3 PSZ Occ Sch Default, !- Holiday Schedule:Day Name\n   *************   1868   Sp-Corner_Class_1_Pod_1_ZN_1_FLR_1 Sys-3 Flr-1 Sch-D HPlcmt-south ZN NECB System 3 PSZ Occ Sch Summer Design Day, !- SummerDesignDay Schedule:Day Name\n   *************   1869   Sp-Corner_Class_1_Pod_1_ZN_1_FLR_1 Sys-3 Flr-1 Sch-D HPlcmt-south ZN NECB System 3 PSZ Occ Sch Winter Design Day, !- WinterDesignDay Schedule:Day Name\n   ** Warning ** IP: IDF line~1869 Alpha Argument length exceeds maximum, will be truncated=  Sp-Corner_Class_1_Pod_1_ZN_1_FLR_1 Sys-3 Flr-1 Sch-D HPlcmt-south ZN NECB System 3 PSZ Occ Sch Winter Design Da\n   **   ~~~   ** Will be processed as Alpha=SP-CORNER_CLASS_1_POD_1_ZN_1_FLR_1 SYS-3 FLR-1 SCH-D HPLCMT-SOUTH ZN NECB SYSTEM 3 PSZ OCC SCH WINTER DESIGN DAY\n   ************* IDF Context for following error/warning message:\n   ************* Note -- lines truncated at 300 characters, if necessary...\n   *************   1858 Schedule:Week:Daily,\n   ************* indicated Name=Schedule:Week:Daily {312cf629-3afb-4e8d-9d84-513ad17d790c}\n   ************* Only last 10 lines before error line shown.....\n   *************   1861   Sp-Corner_Class_1_Pod_1_ZN_1_FLR_1 Sys-3 Flr-1 Sch-D HPlcmt-south ZN NECB System 3 PSZ Occ Sch Monday, !- Monday Schedule:Day Name\n   *************   1862   Sp-Corner_Class_1_Pod_1_ZN_1_FLR_1 Sys-3 Flr-1 Sch-D HPlcmt-south ZN NECB System 3 PSZ Occ Sch Tuesday, !- Tuesday Schedule:Day Name\n   *************   1863   Sp-Corner_Class_1_Pod_1_ZN_1_FLR_1 Sys-3 Flr-1 Sch-D HPlcmt-south ZN NECB System 3 PSZ Occ Sch Wednesday, !- Wednesday Schedule:Day Name\n   *************   1864   Sp-Corner_Class_1_Pod_1_ZN_1_FLR_1 Sys-3 Flr-1 Sch-D HPlcmt-south ZN NECB System 3 PSZ Occ Sch Thursday, !- Thursday Schedule:Day Name\n   *************   1865   Sp-Corner_Class_1_Pod_1_ZN_1_FLR_1 Sys-3 Flr-1 Sch-D HPlcmt-south ZN NECB System 3 PSZ Occ Sch Friday, !- Friday Schedule:Day Name\n   *************   1866   Sp-Corner_Class_1_Pod_1_ZN_1_FLR_1 Sys-3 Flr-1 Sch-D HPlcmt-south ZN NECB System 3 PSZ Occ Sch Saturday, !- Saturday Schedule:Day Name\n   *************   1867   Sp-Corner_Class_1_Pod_1_ZN_1_FLR_1 Sys-3 Flr-1 Sch-D HPlcmt-south ZN NECB System 3 PSZ Occ Sch Default, !- Holiday Schedule:Day Name\n   *************   1868   Sp-Corner_Class_1_Pod_1_ZN_1_FLR_1 Sys-3 Flr-1 Sch-D HPlcmt-south ZN NECB System 3 PSZ Occ Sch Summer Design Day, !- SummerDesignDay Schedule:Day Name\n   *************   1869   Sp-Corner_Class_1_Pod_1_ZN_1_FLR_1 Sys-3 Flr-1 Sch-D HPlcmt-south ZN NECB System 3 PSZ Occ Sch Winter Design Day, !- WinterDesignDay Schedule:Day Name\n   *************   1870   Sp-Corner_Class_1_Pod_1_ZN_1_FLR_1 Sys-3 Flr-1 Sch-D HPlcmt-south ZN NECB System 3 PSZ Occ Sch Default, !- CustomDay1 Schedule:Day Name\n   ** Warning ** IP: IDF line~1870 Alpha Argument length exceeds maximum, will be truncated=  Sp-Corner_Class_1_Pod_1_ZN_1_FLR_1 Sys-3 Flr-1 Sch-D HPlcmt-south ZN NECB System 3 PSZ Occ Sch Defaul\n   **   ~~~   ** Will be processed as Alpha=SP-CORNER_CLASS_1_POD_1_ZN_1_FLR_1 SYS-3 FLR-1 SCH-D HPLCMT-SOUTH ZN NECB SYSTEM 3 PSZ OCC SCH DEFAULT\n   ************* IDF Context for following error/warning message:\n   ************* Note -- lines truncated at 300 characters, if necessary...\n   *************   1858 Schedule:Week:Daily,\n   ************* indicated Name=Schedule:Week:Daily {312cf629-3afb-4e8d-9d84-513ad17d790c}\n   ************* Only last 10 lines before error line shown.....\n   *************   1862   Sp-Corner_Class_1_Pod_1_ZN_1_FLR_1 Sys-3 Flr-1 Sch-D HPlcmt-south ZN NECB System 3 PSZ Occ Sch Tuesday, !- Tuesday Schedule:Day Name\n   *************   1863   Sp-Corner_Class_1_Pod_1_ZN_1_FLR_1 Sys-3 Flr-1 Sch-D HPlcmt-south ZN NECB System 3 PSZ Occ Sch Wednesday, !- Wednesday Schedule:Day Name\n   *************   1864   Sp-Corner_Class_1_Pod_1_ZN_1_FLR_1 Sys-3 Flr-1 Sch-D HPlcmt-south ZN NECB System 3 PSZ Occ Sch Thursday, !- Thursday Schedule:Day Name\n   *************   1865   Sp-Corner_Class_1_Pod_1_ZN_1_FLR_1 Sys-3 Flr-1 Sch-D HPlcmt-south ZN NECB System 3 PSZ Occ Sch Friday, !- Friday Schedule:Day Name\n   *************   1866   Sp-Corner_Class_1_Pod_1_ZN_1_FLR_1 Sys-3 Flr-1 Sch-D HPlcmt-south ZN NECB System 3 PSZ Occ Sch Saturday, !- Saturday Schedule:Day Name\n   *************   1867   Sp-Corner_Class_1_Pod_1_ZN_1_FLR_1 Sys-3 Flr-1 Sch-D HPlcmt-south ZN NECB System 3 PSZ Occ Sch Default, !- Holiday Schedule:Day Name\n   *************   1868   Sp-Corner_Class_1_Pod_1_ZN_1_FLR_1 Sys-3 Flr-1 Sch-D HPlcmt-south ZN NECB System 3 PSZ Occ Sch Summer Design Day, !- SummerDesignDay Schedule:Day Name\n   *************   1869   Sp-Corner_Class_1_Pod_1_ZN_1_FLR_1 Sys-3 Flr-1 Sch-D HPlcmt-south ZN NECB System 3 PSZ Occ Sch Winter Design Day, !- WinterDesignDay Schedule:Day Name\n   *************   1870   Sp-Corner_Class_1_Pod_1_ZN_1_FLR_1 Sys-3 Flr-1 Sch-D HPlcmt-south ZN NECB System 3 PSZ Occ Sch Default, !- CustomDay1 Schedule:Day Name\n   *************   1871   Sp-Corner_Class_1_Pod_1_ZN_1_FLR_1 Sys-3 Flr-1 Sch-D HPlcmt-south ZN NECB System 3 PSZ Occ Sch Default; !- CustomDay2 Schedule:Day Name\n   ** Warning ** IP: IDF line~1871 Alpha Argument length exceeds maximum, will be truncated=  Sp-Corner_Class_1_Pod_1_ZN_1_FLR_1 Sys-3 Flr-1 Sch-D HPlcmt-south ZN NECB System 3 PSZ Occ Sch Defaul\n   **   ~~~   ** Will be processed as Alpha=SP-CORNER_CLASS_1_POD_1_ZN_1_FLR_1 SYS-3 FLR-1 SCH-D HPLCMT-SOUTH ZN NECB SYSTEM 3 PSZ OCC SCH DEFAULT\n   ************* IDF Context for following error/warning message:\n   ************* Note -- lines truncated at 300 characters, if necessary...\n   *************   1882 Schedule:Day:Interval,\n   ************* indicated Name=Sp-Corner_Class_1_Pod_1_ZN_1_FLR_1 Sys-3 Flr-1 Sch-D HPlcmt-south ZN NECB System 3 PSZ Occ Sch Default\n   ************* Only last 1 lines before error line shown.....\n   *************   1883   Sp-Corner_Class_1_Pod_1_ZN_1_FLR_1 Sys-3 Flr-1 Sch-D HPlcmt-south ZN NECB System 3 PSZ Occ Sch Default, !- Name\n   ** Warning ** IP: IDF line~1883 Alpha Argument length exceeds maximum, will be truncated=  Sp-Corner_Class_1_Pod_1_ZN_1_FLR_1 Sys-3 Flr-1 Sch-D HPlcmt-south ZN NECB System 3 PSZ Occ Sch Defaul\n   **   ~~~   ** Will be processed as Alpha=SP-CORNER_CLASS_1_POD_1_ZN_1_FLR_1 SYS-3 FLR-1 SCH-D HPLCMT-SOUTH ZN NECB SYSTEM 3 PSZ OCC SCH DEFAULT\n   ************* IDF Context for following error/warning message:\n   ************* Note -- lines truncated at 300 characters, if necessary...\n   *************   1889 Schedule:Day:Interval,\n   ************* indicated Name=Sp-Corner_Class_1_Pod_1_ZN_1_FLR_1 Sys-3 Flr-1 Sch-D HPlcmt-south ZN NECB System 3 PSZ Occ Sch Summer Design Day\n   ************* Only last 1 lines before error line shown.....\n   *************   1890   Sp-Corner_Class_1_Pod_1_ZN_1_FLR_1 Sys-3 Flr-1 Sch-D HPlcmt-south ZN NECB System 3 PSZ Occ Sch Summer Design Day, !- Name\n   ** Warning ** IP: IDF line~1890 Alpha Argument length exceeds maximum, will be truncated=  Sp-Corner_Class_1_Pod_1_ZN_1_FLR_1 Sys-3 Flr-1 Sch-D HPlcmt-south ZN NECB System 3 PSZ Occ Sch Summer Design Da\n   **   ~~~   ** Will be processed as Alpha=SP-CORNER_CLASS_1_POD_1_ZN_1_FLR_1 SYS-3 FLR-1 SCH-D HPLCMT-SOUTH ZN NECB SYSTEM 3 PSZ OCC SCH SUMMER DESIGN DAY\n   ************* IDF Context for following error/warning message:\n   ************* Note -- lines truncated at 300 characters, if necessary...\n   *************   1896 Schedule:Day:Interval,\n   ************* indicated Name=Sp-Corner_Class_1_Pod_1_ZN_1_FLR_1 Sys-3 Flr-1 Sch-D HPlcmt-south ZN NECB System 3 PSZ Occ Sch Winter Design Day\n   ************* Only last 1 lines before error line shown.....\n   *************   1897   Sp-Corner_Class_1_Pod_1_ZN_1_FLR_1 Sys-3 Flr-1 Sch-D HPlcmt-south ZN NECB System 3 PSZ Occ Sch Winter Design Day, !- Name\n   ** Warning ** IP: IDF line~1897 Alpha Argument length exceeds maximum, will be truncated=  Sp-Corner_Class_1_Pod_1_ZN_1_FLR_1 Sys-3 Flr-1 Sch-D HPlcmt-south ZN NECB System 3 PSZ Occ Sch Winter Design Da\n   **   ~~~   ** Will be processed as Alpha=SP-CORNER_CLASS_1_POD_1_ZN_1_FLR_1 SYS-3 FLR-1 SCH-D HPLCMT-SOUTH ZN NECB SYSTEM 3 PSZ OCC SCH WINTER DESIGN DAY\n   ************* IDF Context for following error/warning message:\n   ************* Note -- lines truncated at 300 characters, if necessary...\n   *************   2169 Schedule:Day:Interval,\n   ************* indicated Name=Sp-Corner_Class_1_Pod_2_ZN_1_FLR_1 Sys-3 Flr-1 Sch-D HPlcmt-south ZN NECB System 3 PSZ Occ Sch Sunday\n   ************* Only last 1 lines before error line shown.....\n   *************   2170   Sp-Corner_Class_1_Pod_2_ZN_1_FLR_1 Sys-3 Flr-1 Sch-D HPlcmt-south ZN NECB System 3 PSZ Occ Sch Sunday, !- Name\n   ** Warning ** IP: IDF line~2170 Alpha Argument length exceeds maximum, will be truncated=  Sp-Corner_Class_1_Pod_2_ZN_1_FLR_1 Sys-3 Flr-1 Sch-D HPlcmt-south ZN NECB System 3 PSZ Occ Sch Sunda\n   **   ~~~   ** Will be processed as Alpha=SP-CORNER_CLASS_1_POD_2_ZN_1_FLR_1 SYS-3 FLR-1 SCH-D HPLCMT-SOUTH ZN NECB SYSTEM 3 PSZ OCC SCH SUNDAY\n   ************* IDF Context for following error/warning message:\n   ************* Note -- lines truncated at 300 characters, if necessary...\n   *************   2176 Schedule:Day:Interval,\n   ************* indicated Name=Sp-Corner_Class_1_Pod_2_ZN_1_FLR_1 Sys-3 Flr-1 Sch-D HPlcmt-south ZN NECB System 3 PSZ Occ Sch Monday\n   ************* Only last 1 lines before error line shown.....\n   *************   2177   Sp-Corner_Class_1_Pod_2_ZN_1_FLR_1 Sys-3 Flr-1 Sch-D HPlcmt-south ZN NECB System 3 PSZ Occ Sch Monday, !- Name\n   ** Warning ** IP: IDF line~2177 Alpha Argument length exceeds maximum, will be truncated=  Sp-Corner_Class_1_Pod_2_ZN_1_FLR_1 Sys-3 Flr-1 Sch-D HPlcmt-south ZN NECB System 3 PSZ Occ Sch Monda\n   **   ~~~   ** Will be processed as Alpha=SP-CORNER_CLASS_1_POD_2_ZN_1_FLR_1 SYS-3 FLR-1 SCH-D HPLCMT-SOUTH ZN NECB SYSTEM 3 PSZ OCC SCH MONDAY\n   ************* IDF Context for following error/warning message:\n   ************* Note -- lines truncated at 300 characters, if necessary...\n   *************   2191 Schedule:Day:Interval,\n   ************* indicated Name=Sp-Corner_Class_1_Pod_2_ZN_1_FLR_1 Sys-3 Flr-1 Sch-D HPlcmt-south ZN NECB System 3 PSZ Occ Sch Tuesday\n   ************* Only last 1 lines before error line shown.....\n   *************   2192   Sp-Corner_Class_1_Pod_2_ZN_1_FLR_1 Sys-3 Flr-1 Sch-D HPlcmt-south ZN NECB System 3 PSZ Occ Sch Tuesday, !- Name\n   ** Warning ** IP: IDF line~2192 Alpha Argument length exceeds maximum, will be truncated=  Sp-Corner_Class_1_Pod_2_ZN_1_FLR_1 Sys-3 Flr-1 Sch-D HPlcmt-south ZN NECB System 3 PSZ Occ Sch Tuesda\n   **   ~~~   ** Will be processed as Alpha=SP-CORNER_CLASS_1_POD_2_ZN_1_FLR_1 SYS-3 FLR-1 SCH-D HPLCMT-SOUTH ZN NECB SYSTEM 3 PSZ OCC SCH TUESDAY\n   ************* IDF Context for following error/warning message:\n   ************* Note -- lines truncated at 300 characters, if necessary...\n   *************   2206 Schedule:Day:Interval,\n   ************* indicated Name=Sp-Corner_Class_1_Pod_2_ZN_1_FLR_1 Sys-3 Flr-1 Sch-D HPlcmt-south ZN NECB System 3 PSZ Occ Sch Wednesday\n   ************* Only last 1 lines before error line shown.....\n   *************   2207   Sp-Corner_Class_1_Pod_2_ZN_1_FLR_1 Sys-3 Flr-1 Sch-D HPlcmt-south ZN NECB System 3 PSZ Occ Sch Wednesday, !- Name\n   ** Warning ** IP: IDF line~2207 Alpha Argument length exceeds maximum, will be truncated=  Sp-Corner_Class_1_Pod_2_ZN_1_FLR_1 Sys-3 Flr-1 Sch-D HPlcmt-south ZN NECB System 3 PSZ Occ Sch Wednesda\n   **   ~~~   ** Will be processed as Alpha=SP-CORNER_CLASS_1_POD_2_ZN_1_FLR_1 SYS-3 FLR-1 SCH-D HPLCMT-SOUTH ZN NECB SYSTEM 3 PSZ OCC SCH WEDNESDAY\n   ************* IDF Context for following error/warning message:\n   ************* Note -- lines truncated at 300 characters, if necessary...\n   *************   2221 Schedule:Day:Interval,\n   ************* indicated Name=Sp-Corner_Class_1_Pod_2_ZN_1_FLR_1 Sys-3 Flr-1 Sch-D HPlcmt-south ZN NECB System 3 PSZ Occ Sch Thursday\n   ************* Only last 1 lines before error line shown.....\n   *************   2222   Sp-Corner_Class_1_Pod_2_ZN_1_FLR_1 Sys-3 Flr-1 Sch-D HPlcmt-south ZN NECB System 3 PSZ Occ Sch Thursday, !- Name\n   ** Warning ** IP: IDF line~2222 Alpha Argument length exceeds maximum, will be truncated=  Sp-Corner_Class_1_Pod_2_ZN_1_FLR_1 Sys-3 Flr-1 Sch-D HPlcmt-south ZN NECB System 3 PSZ Occ Sch Thursda\n   **   ~~~   ** Will be processed as Alpha=SP-CORNER_CLASS_1_POD_2_ZN_1_FLR_1 SYS-3 FLR-1 SCH-D HPLCMT-SOUTH ZN NECB SYSTEM 3 PSZ OCC SCH THURSDAY\n   ************* IDF Context for following error/warning message:\n   ************* Note -- lines truncated at 300 characters, if necessary...\n   *************   2236 Schedule:Day:Interval,\n   ************* indicated Name=Sp-Corner_Class_1_Pod_2_ZN_1_FLR_1 Sys-3 Flr-1 Sch-D HPlcmt-south ZN NECB System 3 PSZ Occ Sch Friday\n   ************* Only last 1 lines before error line shown.....\n   *************   2237   Sp-Corner_Class_1_Pod_2_ZN_1_FLR_1 Sys-3 Flr-1 Sch-D HPlcmt-south ZN NECB System 3 PSZ Occ Sch Friday, !- Name\n   ** Warning ** IP: IDF line~2237 Alpha Argument length exceeds maximum, will be truncated=  Sp-Corner_Class_1_Pod_2_ZN_1_FLR_1 Sys-3 Flr-1 Sch-D HPlcmt-south ZN NECB System 3 PSZ Occ Sch Frida\n   **   ~~~   ** Will be processed as Alpha=SP-CORNER_CLASS_1_POD_2_ZN_1_FLR_1 SYS-3 FLR-1 SCH-D HPLCMT-SOUTH ZN NECB SYSTEM 3 PSZ OCC SCH FRIDAY\n   ************* IDF Context for following error/warning message:\n   ************* Note -- lines truncated at 300 characters, if necessary...\n   *************   2251 Schedule:Day:Interval,\n   ************* indicated Name=Sp-Corner_Class_1_Pod_2_ZN_1_FLR_1 Sys-3 Flr-1 Sch-D HPlcmt-south ZN NECB System 3 PSZ Occ Sch Saturday\n   ************* Only last 1 lines before error line shown.....\n   *************   2252   Sp-Corner_Class_1_Pod_2_ZN_1_FLR_1 Sys-3 Flr-1 Sch-D HPlcmt-south ZN NECB System 3 PSZ Occ Sch Saturday, !- Name\n   ** Warning ** IP: IDF line~2252 Alpha Argument length exceeds maximum, will be truncated=  Sp-Corner_Class_1_Pod_2_ZN_1_FLR_1 Sys-3 Flr-1 Sch-D HPlcmt-south ZN NECB System 3 PSZ Occ Sch Saturda\n   **   ~~~   ** Will be processed as Alpha=SP-CORNER_CLASS_1_POD_2_ZN_1_FLR_1 SYS-3 FLR-1 SCH-D HPLCMT-SOUTH ZN NECB SYSTEM 3 PSZ OCC SCH SATURDAY\n   ************* IDF Context for following error/warning message:\n   ************* Note -- lines truncated at 300 characters, if necessary...\n   *************   2258 Schedule:Week:Daily,\n   ************* indicated Name=Schedule:Week:Daily {d8e0c7d6-fc81-4f42-a2e9-66909b651298}\n   ************* Only last 2 lines before error line shown.....\n   *************   2259   Schedule:Week:Daily {d8e0c7d6-fc81-4f42-a2e9-66909b651298}, !- Name\n   *************   2260   Sp-Corner_Class_1_Pod_2_ZN_1_FLR_1 Sys-3 Flr-1 Sch-D HPlcmt-south ZN NECB System 3 PSZ Occ Sch Sunday, !- Sunday Schedule:Day Name\n   ** Warning ** IP: IDF line~2260 Alpha Argument length exceeds maximum, will be truncated=  Sp-Corner_Class_1_Pod_2_ZN_1_FLR_1 Sys-3 Flr-1 Sch-D HPlcmt-south ZN NECB System 3 PSZ Occ Sch Sunda\n   **   ~~~   ** Will be processed as Alpha=SP-CORNER_CLASS_1_POD_2_ZN_1_FLR_1 SYS-3 FLR-1 SCH-D HPLCMT-SOUTH ZN NECB SYSTEM 3 PSZ OCC SCH SUNDAY\n   ************* IDF Context for following error/warning message:\n   ************* Note -- lines truncated at 300 characters, if necessary...\n   *************   2258 Schedule:Week:Daily,\n   ************* indicated Name=Schedule:Week:Daily {d8e0c7d6-fc81-4f42-a2e9-66909b651298}\n   ************* Only last 3 lines before error line shown.....\n   *************   2259   Schedule:Week:Daily {d8e0c7d6-fc81-4f42-a2e9-66909b651298}, !- Name\n   *************   2260   Sp-Corner_Class_1_Pod_2_ZN_1_FLR_1 Sys-3 Flr-1 Sch-D HPlcmt-south ZN NECB System 3 PSZ Occ Sch Sunday, !- Sunday Schedule:Day Name\n   *************   2261   Sp-Corner_Class_1_Pod_2_ZN_1_FLR_1 Sys-3 Flr-1 Sch-D HPlcmt-south ZN NECB System 3 PSZ Occ Sch Monday, !- Monday Schedule:Day Name\n   ** Warning ** IP: IDF line~2261 Alpha Argument length exceeds maximum, will be truncated=  Sp-Corner_Class_1_Pod_2_ZN_1_FLR_1 Sys-3 Flr-1 Sch-D HPlcmt-south ZN NECB System 3 PSZ Occ Sch Monda\n   **   ~~~   ** Will be processed as Alpha=SP-CORNER_CLASS_1_POD_2_ZN_1_FLR_1 SYS-3 FLR-1 SCH-D HPLCMT-SOUTH ZN NECB SYSTEM 3 PSZ OCC SCH MONDAY\n   ************* IDF Context for following error/warning message:\n   ************* Note -- lines truncated at 300 characters, if necessary...\n   *************   2258 Schedule:Week:Daily,\n   ************* indicated Name=Schedule:Week:Daily {d8e0c7d6-fc81-4f42-a2e9-66909b651298}\n   ************* Only last 4 lines before error line shown.....\n   *************   2259   Schedule:Week:Daily {d8e0c7d6-fc81-4f42-a2e9-66909b651298}, !- Name\n   *************   2260   Sp-Corner_Class_1_Pod_2_ZN_1_FLR_1 Sys-3 Flr-1 Sch-D HPlcmt-south ZN NECB System 3 PSZ Occ Sch Sunday, !- Sunday Schedule:Day Name\n   *************   2261   Sp-Corner_Class_1_Pod_2_ZN_1_FLR_1 Sys-3 Flr-1 Sch-D HPlcmt-south ZN NECB System 3 PSZ Occ Sch Monday, !- Monday Schedule:Day Name\n   *************   2262   Sp-Corner_Class_1_Pod_2_ZN_1_FLR_1 Sys-3 Flr-1 Sch-D HPlcmt-south ZN NECB System 3 PSZ Occ Sch Tuesday, !- Tuesday Schedule:Day Name\n   ** Warning ** IP: IDF line~2262 Alpha Argument length exceeds maximum, will be truncated=  Sp-Corner_Class_1_Pod_2_ZN_1_FLR_1 Sys-3 Flr-1 Sch-D HPlcmt-south ZN NECB System 3 PSZ Occ Sch Tuesda\n   **   ~~~   ** Will be processed as Alpha=SP-CORNER_CLASS_1_POD_2_ZN_1_FLR_1 SYS-3 FLR-1 SCH-D HPLCMT-SOUTH ZN NECB SYSTEM 3 PSZ OCC SCH TUESDAY\n   ************* IDF Context for following error/warning message:\n   ************* Note -- lines truncated at 300 characters, if necessary...\n   *************   2258 Schedule:Week:Daily,\n   ************* indicated Name=Schedule:Week:Daily {d8e0c7d6-fc81-4f42-a2e9-66909b651298}\n   ************* Only last 5 lines before error line shown.....\n   *************   2259   Schedule:Week:Daily {d8e0c7d6-fc81-4f42-a2e9-66909b651298}, !- Name\n   *************   2260   Sp-Corner_Class_1_Pod_2_ZN_1_FLR_1 Sys-3 Flr-1 Sch-D HPlcmt-south ZN NECB System 3 PSZ Occ Sch Sunday, !- Sunday Schedule:Day Name\n   *************   2261   Sp-Corner_Class_1_Pod_2_ZN_1_FLR_1 Sys-3 Flr-1 Sch-D HPlcmt-south ZN NECB System 3 PSZ Occ Sch Monday, !- Monday Schedule:Day Name\n   *************   2262   Sp-Corner_Class_1_Pod_2_ZN_1_FLR_1 Sys-3 Flr-1 Sch-D HPlcmt-south ZN NECB System 3 PSZ Occ Sch Tuesday, !- Tuesday Schedule:Day Name\n   *************   2263   Sp-Corner_Class_1_Pod_2_ZN_1_FLR_1 Sys-3 Flr-1 Sch-D HPlcmt-south ZN NECB System 3 PSZ Occ Sch Wednesday, !- Wednesday Schedule:Day Name\n   ** Warning ** IP: IDF line~2263 Alpha Argument length exceeds maximum, will be truncated=  Sp-Corner_Class_1_Pod_2_ZN_1_FLR_1 Sys-3 Flr-1 Sch-D HPlcmt-south ZN NECB System 3 PSZ Occ Sch Wednesda\n   **   ~~~   ** Will be processed as Alpha=SP-CORNER_CLASS_1_POD_2_ZN_1_FLR_1 SYS-3 FLR-1 SCH-D HPLCMT-SOUTH ZN NECB SYSTEM 3 PSZ OCC SCH WEDNESDAY\n   ************* IDF Context for following error/warning message:\n   ************* Note -- lines truncated at 300 characters, if necessary...\n   *************   2258 Schedule:Week:Daily,\n   ************* indicated Name=Schedule:Week:Daily {d8e0c7d6-fc81-4f42-a2e9-66909b651298}\n   ************* Only last 6 lines before error line shown.....\n   *************   2259   Schedule:Week:Daily {d8e0c7d6-fc81-4f42-a2e9-66909b651298}, !- Name\n   *************   2260   Sp-Corner_Class_1_Pod_2_ZN_1_FLR_1 Sys-3 Flr-1 Sch-D HPlcmt-south ZN NECB System 3 PSZ Occ Sch Sunday, !- Sunday Schedule:Day Name\n   *************   2261   Sp-Corner_Class_1_Pod_2_ZN_1_FLR_1 Sys-3 Flr-1 Sch-D HPlcmt-south ZN NECB System 3 PSZ Occ Sch Monday, !- Monday Schedule:Day Name\n   *************   2262   Sp-Corner_Class_1_Pod_2_ZN_1_FLR_1 Sys-3 Flr-1 Sch-D HPlcmt-south ZN NECB System 3 PSZ Occ Sch Tuesday, !- Tuesday Schedule:Day Name\n   *************   2263   Sp-Corner_Class_1_Pod_2_ZN_1_FLR_1 Sys-3 Flr-1 Sch-D HPlcmt-south ZN NECB System 3 PSZ Occ Sch Wednesday, !- Wednesday Schedule:Day Name\n   *************   2264   Sp-Corner_Class_1_Pod_2_ZN_1_FLR_1 Sys-3 Flr-1 Sch-D HPlcmt-south ZN NECB System 3 PSZ Occ Sch Thursday, !- Thursday Schedule:Day Name\n   ** Warning ** IP: IDF line~2264 Alpha Argument length exceeds maximum, will be truncated=  Sp-Corner_Class_1_Pod_2_ZN_1_FLR_1 Sys-3 Flr-1 Sch-D HPlcmt-south ZN NECB System 3 PSZ Occ Sch Thursda\n   **   ~~~   ** Will be processed as Alpha=SP-CORNER_CLASS_1_POD_2_ZN_1_FLR_1 SYS-3 FLR-1 SCH-D HPLCMT-SOUTH ZN NECB SYSTEM 3 PSZ OCC SCH THURSDAY\n   ************* IDF Context for following error/warning message:\n   ************* Note -- lines truncated at 300 characters, if necessary...\n   *************   2258 Schedule:Week:Daily,\n   ************* indicated Name=Schedule:Week:Daily {d8e0c7d6-fc81-4f42-a2e9-66909b651298}\n   ************* Only last 7 lines before error line shown.....\n   *************   2259   Schedule:Week:Daily {d8e0c7d6-fc81-4f42-a2e9-66909b651298}, !- Name\n   *************   2260   Sp-Corner_Class_1_Pod_2_ZN_1_FLR_1 Sys-3 Flr-1 Sch-D HPlcmt-south ZN NECB System 3 PSZ Occ Sch Sunday, !- Sunday Schedule:Day Name\n   *************   2261   Sp-Corner_Class_1_Pod_2_ZN_1_FLR_1 Sys-3 Flr-1 Sch-D HPlcmt-south ZN NECB System 3 PSZ Occ Sch Monday, !- Monday Schedule:Day Name\n   *************   2262   Sp-Corner_Class_1_Pod_2_ZN_1_FLR_1 Sys-3 Flr-1 Sch-D HPlcmt-south ZN NECB System 3 PSZ Occ Sch Tuesday, !- Tuesday Schedule:Day Name\n   *************   2263   Sp-Corner_Class_1_Pod_2_ZN_1_FLR_1 Sys-3 Flr-1 Sch-D HPlcmt-south ZN NECB System 3 PSZ Occ Sch Wednesday, !- Wednesday Schedule:Day Name\n   *************   2264   Sp-Corner_Class_1_Pod_2_ZN_1_FLR_1 Sys-3 Flr-1 Sch-D HPlcmt-south ZN NECB System 3 PSZ Occ Sch Thursday, !- Thursday Schedule:Day Name\n   *************   2265   Sp-Corner_Class_1_Pod_2_ZN_1_FLR_1 Sys-3 Flr-1 Sch-D HPlcmt-south ZN NECB System 3 PSZ Occ Sch Friday, !- Friday Schedule:Day Name\n   ** Warning ** IP: IDF line~2265 Alpha Argument length exceeds maximum, will be truncated=  Sp-Corner_Class_1_Pod_2_ZN_1_FLR_1 Sys-3 Flr-1 Sch-D HPlcmt-south ZN NECB System 3 PSZ Occ Sch Frida\n   **   ~~~   ** Will be processed as Alpha=SP-CORNER_CLASS_1_POD_2_ZN_1_FLR_1 SYS-3 FLR-1 SCH-D HPLCMT-SOUTH ZN NECB SYSTEM 3 PSZ OCC SCH FRIDAY\n   ************* IDF Context for following error/warning message:\n   ************* Note -- lines truncated at 300 characters, if necessary...\n   *************   2258 Schedule:Week:Daily,\n   ************* indicated Name=Schedule:Week:Daily {d8e0c7d6-fc81-4f42-a2e9-66909b651298}\n   ************* Only last 8 lines before error line shown.....\n   *************   2259   Schedule:Week:Daily {d8e0c7d6-fc81-4f42-a2e9-66909b651298}, !- Name\n   *************   2260   Sp-Corner_Class_1_Pod_2_ZN_1_FLR_1 Sys-3 Flr-1 Sch-D HPlcmt-south ZN NECB System 3 PSZ Occ Sch Sunday, !- Sunday Schedule:Day Name\n   *************   2261   Sp-Corner_Class_1_Pod_2_ZN_1_FLR_1 Sys-3 Flr-1 Sch-D HPlcmt-south ZN NECB System 3 PSZ Occ Sch Monday, !- Monday Schedule:Day Name\n   *************   2262   Sp-Corner_Class_1_Pod_2_ZN_1_FLR_1 Sys-3 Flr-1 Sch-D HPlcmt-south ZN NECB System 3 PSZ Occ Sch Tuesday, !- Tuesday Schedule:Day Name\n   *************   2263   Sp-Corner_Class_1_Pod_2_ZN_1_FLR_1 Sys-3 Flr-1 Sch-D HPlcmt-south ZN NECB System 3 PSZ Occ Sch Wednesday, !- Wednesday Schedule:Day Name\n   *************   2264   Sp-Corner_Class_1_Pod_2_ZN_1_FLR_1 Sys-3 Flr-1 Sch-D HPlcmt-south ZN NECB System 3 PSZ Occ Sch Thursday, !- Thursday Schedule:Day Name\n   *************   2265   Sp-Corner_Class_1_Pod_2_ZN_1_FLR_1 Sys-3 Flr-1 Sch-D HPlcmt-south ZN NECB System 3 PSZ Occ Sch Friday, !- Friday Schedule:Day Name\n   *************   2266   Sp-Corner_Class_1_Pod_2_ZN_1_FLR_1 Sys-3 Flr-1 Sch-D HPlcmt-south ZN NECB System 3 PSZ Occ Sch Saturday, !- Saturday Schedule:Day Name\n   ** Warning ** IP: IDF line~2266 Alpha Argument length exceeds maximum, will be truncated=  Sp-Corner_Class_1_Pod_2_ZN_1_FLR_1 Sys-3 Flr-1 Sch-D HPlcmt-south ZN NECB System 3 PSZ Occ Sch Saturda\n   **   ~~~   ** Will be processed as Alpha=SP-CORNER_CLASS_1_POD_2_ZN_1_FLR_1 SYS-3 FLR-1 SCH-D HPLCMT-SOUTH ZN NECB SYSTEM 3 PSZ OCC SCH SATURDAY\n   ************* IDF Context for following error/warning message:\n   ************* Note -- lines truncated at 300 characters, if necessary...\n   *************   2258 Schedule:Week:Daily,\n   ************* indicated Name=Schedule:Week:Daily {d8e0c7d6-fc81-4f42-a2e9-66909b651298}\n   ************* Only last 9 lines before error line shown.....\n   *************   2259   Schedule:Week:Daily {d8e0c7d6-fc81-4f42-a2e9-66909b651298}, !- Name\n   *************   2260   Sp-Corner_Class_1_Pod_2_ZN_1_FLR_1 Sys-3 Flr-1 Sch-D HPlcmt-south ZN NECB System 3 PSZ Occ Sch Sunday, !- Sunday Schedule:Day Name\n   *************   2261   Sp-Corner_Class_1_Pod_2_ZN_1_FLR_1 Sys-3 Flr-1 Sch-D HPlcmt-south ZN NECB System 3 PSZ Occ Sch Monday, !- Monday Schedule:Day Name\n   *************   2262   Sp-Corner_Class_1_Pod_2_ZN_1_FLR_1 Sys-3 Flr-1 Sch-D HPlcmt-south ZN NECB System 3 PSZ Occ Sch Tuesday, !- Tuesday Schedule:Day Name\n   *************   2263   Sp-Corner_Class_1_Pod_2_ZN_1_FLR_1 Sys-3 Flr-1 Sch-D HPlcmt-south ZN NECB System 3 PSZ Occ Sch Wednesday, !- Wednesday Schedule:Day Name\n   *************   2264   Sp-Corner_Class_1_Pod_2_ZN_1_FLR_1 Sys-3 Flr-1 Sch-D HPlcmt-south ZN NECB System 3 PSZ Occ Sch Thursday, !- Thursday Schedule:Day Name\n   *************   2265   Sp-Corner_Class_1_Pod_2_ZN_1_FLR_1 Sys-3 Flr-1 Sch-D HPlcmt-south ZN NECB System 3 PSZ Occ Sch Friday, !- Friday Schedule:Day Name\n   *************   2266   Sp-Corner_Class_1_Pod_2_ZN_1_FLR_1 Sys-3 Flr-1 Sch-D HPlcmt-south ZN NECB System 3 PSZ Occ Sch Saturday, !- Saturday Schedule:Day Name\n   *************   2267   Sp-Corner_Class_1_Pod_2_ZN_1_FLR_1 Sys-3 Flr-1 Sch-D HPlcmt-south ZN NECB System 3 PSZ Occ Sch Default, !- Holiday Schedule:Day Name\n   ** Warning ** IP: IDF line~2267 Alpha Argument length exceeds maximum, will be truncated=  Sp-Corner_Class_1_Pod_2_ZN_1_FLR_1 Sys-3 Flr-1 Sch-D HPlcmt-south ZN NECB System 3 PSZ Occ Sch Defaul\n   **   ~~~   ** Will be processed as Alpha=SP-CORNER_CLASS_1_POD_2_ZN_1_FLR_1 SYS-3 FLR-1 SCH-D HPLCMT-SOUTH ZN NECB SYSTEM 3 PSZ OCC SCH DEFAULT\n   ************* IDF Context for following error/warning message:\n   ************* Note -- lines truncated at 300 characters, if necessary...\n   *************   2258 Schedule:Week:Daily,\n   ************* indicated Name=Schedule:Week:Daily {d8e0c7d6-fc81-4f42-a2e9-66909b651298}\n   ************* Only last 10 lines before error line shown.....\n   *************   2259   Schedule:Week:Daily {d8e0c7d6-fc81-4f42-a2e9-66909b651298}, !- Name\n   *************   2260   Sp-Corner_Class_1_Pod_2_ZN_1_FLR_1 Sys-3 Flr-1 Sch-D HPlcmt-south ZN NECB System 3 PSZ Occ Sch Sunday, !- Sunday Schedule:Day Name\n   *************   2261   Sp-Corner_Class_1_Pod_2_ZN_1_FLR_1 Sys-3 Flr-1 Sch-D HPlcmt-south ZN NECB System 3 PSZ Occ Sch Monday, !- Monday Schedule:Day Name\n   *************   2262   Sp-Corner_Class_1_Pod_2_ZN_1_FLR_1 Sys-3 Flr-1 Sch-D HPlcmt-south ZN NECB System 3 PSZ Occ Sch Tuesday, !- Tuesday Schedule:Day Name\n   *************   2263   Sp-Corner_Class_1_Pod_2_ZN_1_FLR_1 Sys-3 Flr-1 Sch-D HPlcmt-south ZN NECB System 3 PSZ Occ Sch Wednesday, !- Wednesday Schedule:Day Name\n   *************   2264   Sp-Corner_Class_1_Pod_2_ZN_1_FLR_1 Sys-3 Flr-1 Sch-D HPlcmt-south ZN NECB System 3 PSZ Occ Sch Thursday, !- Thursday Schedule:Day Name\n   *************   2265   Sp-Corner_Class_1_Pod_2_ZN_1_FLR_1 Sys-3 Flr-1 Sch-D HPlcmt-south ZN NECB System 3 PSZ Occ Sch Friday, !- Friday Schedule:Day Name\n   *************   2266   Sp-Corner_Class_1_Pod_2_ZN_1_FLR_1 Sys-3 Flr-1 Sch-D HPlcmt-south ZN NECB System 3 PSZ Occ Sch Saturday, !- Saturday Schedule:Day Name\n   *************   2267   Sp-Corner_Class_1_Pod_2_ZN_1_FLR_1 Sys-3 Flr-1 Sch-D HPlcmt-south ZN NECB System 3 PSZ Occ Sch Default, !- Holiday Schedule:Day Name\n   *************   2268   Sp-Corner_Class_1_Pod_2_ZN_1_FLR_1 Sys-3 Flr-1 Sch-D HPlcmt-south ZN NECB System 3 PSZ Occ Sch Summer Design Day, !- SummerDesignDay Schedule:Day Name\n   ** Warning ** IP: IDF line~2268 Alpha Argument length exceeds maximum, will be truncated=  Sp-Corner_Class_1_Pod_2_ZN_1_FLR_1 Sys-3 Flr-1 Sch-D HPlcmt-south ZN NECB System 3 PSZ Occ Sch Summer Design Da\n   **   ~~~   ** Will be processed as Alpha=SP-CORNER_CLASS_1_POD_2_ZN_1_FLR_1 SYS-3 FLR-1 SCH-D HPLCMT-SOUTH ZN NECB SYSTEM 3 PSZ OCC SCH SUMMER DESIGN DAY\n   ************* IDF Context for following error/warning message:\n   ************* Note -- lines truncated at 300 characters, if necessary...\n   *************   2258 Schedule:Week:Daily,\n   ************* indicated Name=Schedule:Week:Daily {d8e0c7d6-fc81-4f42-a2e9-66909b651298}\n   ************* Only last 10 lines before error line shown.....\n   *************   2260   Sp-Corner_Class_1_Pod_2_ZN_1_FLR_1 Sys-3 Flr-1 Sch-D HPlcmt-south ZN NECB System 3 PSZ Occ Sch Sunday, !- Sunday Schedule:Day Name\n   *************   2261   Sp-Corner_Class_1_Pod_2_ZN_1_FLR_1 Sys-3 Flr-1 Sch-D HPlcmt-south ZN NECB System 3 PSZ Occ Sch Monday, !- Monday Schedule:Day Name\n   *************   2262   Sp-Corner_Class_1_Pod_2_ZN_1_FLR_1 Sys-3 Flr-1 Sch-D HPlcmt-south ZN NECB System 3 PSZ Occ Sch Tuesday, !- Tuesday Schedule:Day Name\n   *************   2263   Sp-Corner_Class_1_Pod_2_ZN_1_FLR_1 Sys-3 Flr-1 Sch-D HPlcmt-south ZN NECB System 3 PSZ Occ Sch Wednesday, !- Wednesday Schedule:Day Name\n   *************   2264   Sp-Corner_Class_1_Pod_2_ZN_1_FLR_1 Sys-3 Flr-1 Sch-D HPlcmt-south ZN NECB System 3 PSZ Occ Sch Thursday, !- Thursday Schedule:Day Name\n   *************   2265   Sp-Corner_Class_1_Pod_2_ZN_1_FLR_1 Sys-3 Flr-1 Sch-D HPlcmt-south ZN NECB System 3 PSZ Occ Sch Friday, !- Friday Schedule:Day Name\n   *************   2266   Sp-Corner_Class_1_Pod_2_ZN_1_FLR_1 Sys-3 Flr-1 Sch-D HPlcmt-south ZN NECB System 3 PSZ Occ Sch Saturday, !- Saturday Schedule:Day Name\n   *************   2267   Sp-Corner_Class_1_Pod_2_ZN_1_FLR_1 Sys-3 Flr-1 Sch-D HPlcmt-south ZN NECB System 3 PSZ Occ Sch Default, !- Holiday Schedule:Day Name\n   *************   2268   Sp-Corner_Class_1_Pod_2_ZN_1_FLR_1 Sys-3 Flr-1 Sch-D HPlcmt-south ZN NECB System 3 PSZ Occ Sch Summer Design Day, !- SummerDesignDay Schedule:Day Name\n   *************   2269   Sp-Corner_Class_1_Pod_2_ZN_1_FLR_1 Sys-3 Flr-1 Sch-D HPlcmt-south ZN NECB System 3 PSZ Occ Sch Winter Design Day, !- WinterDesignDay Schedule:Day Name\n   ** Warning ** IP: IDF line~2269 Alpha Argument length exceeds maximum, will be truncated=  Sp-Corner_Class_1_Pod_2_ZN_1_FLR_1 Sys-3 Flr-1 Sch-D HPlcmt-south ZN NECB System 3 PSZ Occ Sch Winter Design Da\n   **   ~~~   ** Will be processed as Alpha=SP-CORNER_CLASS_1_POD_2_ZN_1_FLR_1 SYS-3 FLR-1 SCH-D HPLCMT-SOUTH ZN NECB SYSTEM 3 PSZ OCC SCH WINTER DESIGN DAY\n   ************* IDF Context for following error/warning message:\n   ************* Note -- lines truncated at 300 characters, if necessary...\n   *************   2258 Schedule:Week:Daily,\n   ************* indicated Name=Schedule:Week:Daily {d8e0c7d6-fc81-4f42-a2e9-66909b651298}\n   ************* Only last 10 lines before error line shown.....\n   *************   2261   Sp-Corner_Class_1_Pod_2_ZN_1_FLR_1 Sys-3 Flr-1 Sch-D HPlcmt-south ZN NECB System 3 PSZ Occ Sch Monday, !- Monday Schedule:Day Name\n   *************   2262   Sp-Corner_Class_1_Pod_2_ZN_1_FLR_1 Sys-3 Flr-1 Sch-D HPlcmt-south ZN NECB System 3 PSZ Occ Sch Tuesday, !- Tuesday Schedule:Day Name\n   *************   2263   Sp-Corner_Class_1_Pod_2_ZN_1_FLR_1 Sys-3 Flr-1 Sch-D HPlcmt-south ZN NECB System 3 PSZ Occ Sch Wednesday, !- Wednesday Schedule:Day Name\n   *************   2264   Sp-Corner_Class_1_Pod_2_ZN_1_FLR_1 Sys-3 Flr-1 Sch-D HPlcmt-south ZN NECB System 3 PSZ Occ Sch Thursday, !- Thursday Schedule:Day Name\n   *************   2265   Sp-Corner_Class_1_Pod_2_ZN_1_FLR_1 Sys-3 Flr-1 Sch-D HPlcmt-south ZN NECB System 3 PSZ Occ Sch Friday, !- Friday Schedule:Day Name\n   *************   2266   Sp-Corner_Class_1_Pod_2_ZN_1_FLR_1 Sys-3 Flr-1 Sch-D HPlcmt-south ZN NECB System 3 PSZ Occ Sch Saturday, !- Saturday Schedule:Day Name\n   *************   2267   Sp-Corner_Class_1_Pod_2_ZN_1_FLR_1 Sys-3 Flr-1 Sch-D HPlcmt-south ZN NECB System 3 PSZ Occ Sch Default, !- Holiday Schedule:Day Name\n   *************   2268   Sp-Corner_Class_1_Pod_2_ZN_1_FLR_1 Sys-3 Flr-1 Sch-D HPlcmt-south ZN NECB System 3 PSZ Occ Sch Summer Design Day, !- SummerDesignDay Schedule:Day Name\n   *************   2269   Sp-Corner_Class_1_Pod_2_ZN_1_FLR_1 Sys-3 Flr-1 Sch-D HPlcmt-south ZN NECB System 3 PSZ Occ Sch Winter Design Day, !- WinterDesignDay Schedule:Day Name\n   *************   2270   Sp-Corner_Class_1_Pod_2_ZN_1_FLR_1 Sys-3 Flr-1 Sch-D HPlcmt-south ZN NECB System 3 PSZ Occ Sch Default, !- CustomDay1 Schedule:Day Name\n   ** Warning ** IP: IDF line~2270 Alpha Argument length exceeds maximum, will be truncated=  Sp-Corner_Class_1_Pod_2_ZN_1_FLR_1 Sys-3 Flr-1 Sch-D HPlcmt-south ZN NECB System 3 PSZ Occ Sch Defaul\n   **   ~~~   ** Will be processed as Alpha=SP-CORNER_CLASS_1_POD_2_ZN_1_FLR_1 SYS-3 FLR-1 SCH-D HPLCMT-SOUTH ZN NECB SYSTEM 3 PSZ OCC SCH DEFAULT\n   ************* IDF Context for following error/warning message:\n   ************* Note -- lines truncated at 300 characters, if necessary...\n   *************   2258 Schedule:Week:Daily,\n   ************* indicated Name=Schedule:Week:Daily {d8e0c7d6-fc81-4f42-a2e9-66909b651298}\n   ************* Only last 10 lines before error line shown.....\n   *************   2262   Sp-Corner_Class_1_Pod_2_ZN_1_FLR_1 Sys-3 Flr-1 Sch-D HPlcmt-south ZN NECB System 3 PSZ Occ Sch Tuesday, !- Tuesday Schedule:Day Name\n   *************   2263   Sp-Corner_Class_1_Pod_2_ZN_1_FLR_1 Sys-3 Flr-1 Sch-D HPlcmt-south ZN NECB System 3 PSZ Occ Sch Wednesday, !- Wednesday Schedule:Day Name\n   *************   2264   Sp-Corner_Class_1_Pod_2_ZN_1_FLR_1 Sys-3 Flr-1 Sch-D HPlcmt-south ZN NECB System 3 PSZ Occ Sch Thursday, !- Thursday Schedule:Day Name\n   *************   2265   Sp-Corner_Class_1_Pod_2_ZN_1_FLR_1 Sys-3 Flr-1 Sch-D HPlcmt-south ZN NECB System 3 PSZ Occ Sch Friday, !- Friday Schedule:Day Name\n   *************   2266   Sp-Corner_Class_1_Pod_2_ZN_1_FLR_1 Sys-3 Flr-1 Sch-D HPlcmt-south ZN NECB System 3 PSZ Occ Sch Saturday, !- Saturday Schedule:Day Name\n   *************   2267   Sp-Corner_Class_1_Pod_2_ZN_1_FLR_1 Sys-3 Flr-1 Sch-D HPlcmt-south ZN NECB System 3 PSZ Occ Sch Default, !- Holiday Schedule:Day Name\n   *************   2268   Sp-Corner_Class_1_Pod_2_ZN_1_FLR_1 Sys-3 Flr-1 Sch-D HPlcmt-south ZN NECB System 3 PSZ Occ Sch Summer Design Day, !- SummerDesignDay Schedule:Day Name\n   *************   2269   Sp-Corner_Class_1_Pod_2_ZN_1_FLR_1 Sys-3 Flr-1 Sch-D HPlcmt-south ZN NECB System 3 PSZ Occ Sch Winter Design Day, !- WinterDesignDay Schedule:Day Name\n   *************   2270   Sp-Corner_Class_1_Pod_2_ZN_1_FLR_1 Sys-3 Flr-1 Sch-D HPlcmt-south ZN NECB System 3 PSZ Occ Sch Default, !- CustomDay1 Schedule:Day Name\n   *************   2271   Sp-Corner_Class_1_Pod_2_ZN_1_FLR_1 Sys-3 Flr-1 Sch-D HPlcmt-south ZN NECB System 3 PSZ Occ Sch Default; !- CustomDay2 Schedule:Day Name\n   ** Warning ** IP: IDF line~2271 Alpha Argument length exceeds maximum, will be truncated=  Sp-Corner_Class_1_Pod_2_ZN_1_FLR_1 Sys-3 Flr-1 Sch-D HPlcmt-south ZN NECB System 3 PSZ Occ Sch Defaul\n   **   ~~~   ** Will be processed as Alpha=SP-CORNER_CLASS_1_POD_2_ZN_1_FLR_1 SYS-3 FLR-1 SCH-D HPLCMT-SOUTH ZN NECB SYSTEM 3 PSZ OCC SCH DEFAULT\n   ************* IDF Context for following error/warning message:\n   ************* Note -- lines truncated at 300 characters, if necessary...\n   *************   2282 Schedule:Day:Interval,\n   ************* indicated Name=Sp-Corner_Class_1_Pod_2_ZN_1_FLR_1 Sys-3 Flr-1 Sch-D HPlcmt-south ZN NECB System 3 PSZ Occ Sch Default\n   ************* Only last 1 lines before error line shown.....\n   *************   2283   Sp-Corner_Class_1_Pod_2_ZN_1_FLR_1 Sys-3 Flr-1 Sch-D HPlcmt-south ZN NECB System 3 PSZ Occ Sch Default, !- Name\n   ** Warning ** IP: IDF line~2283 Alpha Argument length exceeds maximum, will be truncated=  Sp-Corner_Class_1_Pod_2_ZN_1_FLR_1 Sys-3 Flr-1 Sch-D HPlcmt-south ZN NECB System 3 PSZ Occ Sch Defaul\n   **   ~~~   ** Will be processed as Alpha=SP-CORNER_CLASS_1_POD_2_ZN_1_FLR_1 SYS-3 FLR-1 SCH-D HPLCMT-SOUTH ZN NECB SYSTEM 3 PSZ OCC SCH DEFAULT\n   ************* IDF Context for following error/warning message:\n   ************* Note -- lines truncated at 300 characters, if necessary...\n   *************   2289 Schedule:Day:Interval,\n   ************* indicated Name=Sp-Corner_Class_1_Pod_2_ZN_1_FLR_1 Sys-3 Flr-1 Sch-D HPlcmt-south ZN NECB System 3 PSZ Occ Sch Summer Design Day\n   ************* Only last 1 lines before error line shown.....\n   *************   2290   Sp-Corner_Class_1_Pod_2_ZN_1_FLR_1 Sys-3 Flr-1 Sch-D HPlcmt-south ZN NECB System 3 PSZ Occ Sch Summer Design Day, !- Name\n   ** Warning ** IP: IDF line~2290 Alpha Argument length exceeds maximum, will be truncated=  Sp-Corner_Class_1_Pod_2_ZN_1_FLR_1 Sys-3 Flr-1 Sch-D HPlcmt-south ZN NECB System 3 PSZ Occ Sch Summer Design Da\n   **   ~~~   ** Will be processed as Alpha=SP-CORNER_CLASS_1_POD_2_ZN_1_FLR_1 SYS-3 FLR-1 SCH-D HPLCMT-SOUTH ZN NECB SYSTEM 3 PSZ OCC SCH SUMMER DESIGN DAY\n   ************* IDF Context for following error/warning message:\n   ************* Note -- lines truncated at 300 characters, if necessary...\n   *************   2296 Schedule:Day:Interval,\n   ************* indicated Name=Sp-Corner_Class_1_Pod_2_ZN_1_FLR_1 Sys-3 Flr-1 Sch-D HPlcmt-south ZN NECB System 3 PSZ Occ Sch Winter Design Day\n   ************* Only last 1 lines before error line shown.....\n   *************   2297   Sp-Corner_Class_1_Pod_2_ZN_1_FLR_1 Sys-3 Flr-1 Sch-D HPlcmt-south ZN NECB System 3 PSZ Occ Sch Winter Design Day, !- Name\n   ** Warning ** IP: IDF line~2297 Alpha Argument length exceeds maximum, will be truncated=  Sp-Corner_Class_1_Pod_2_ZN_1_FLR_1 Sys-3 Flr-1 Sch-D HPlcmt-south ZN NECB System 3 PSZ Occ Sch Winter Design Da\n   **   ~~~   ** Will be processed as Alpha=SP-CORNER_CLASS_1_POD_2_ZN_1_FLR_1 SYS-3 FLR-1 SCH-D HPLCMT-SOUTH ZN NECB SYSTEM 3 PSZ OCC SCH WINTER DESIGN DAY\n   ************* IDF Context for following error/warning message:\n   ************* Note -- lines truncated at 300 characters, if necessary...\n   *************   2569 Schedule:Day:Interval,\n   ************* indicated Name=Sp-Corner_Class_1_Pod_3_ZN_1_FLR_1 Sys-3 Flr-1 Sch-D HPlcmt-south ZN NECB System 3 PSZ Occ Sch Sunday\n   ************* Only last 1 lines before error line shown.....\n   *************   2570   Sp-Corner_Class_1_Pod_3_ZN_1_FLR_1 Sys-3 Flr-1 Sch-D HPlcmt-south ZN NECB System 3 PSZ Occ Sch Sunday, !- Name\n   ** Warning ** IP: IDF line~2570 Alpha Argument length exceeds maximum, will be truncated=  Sp-Corner_Class_1_Pod_3_ZN_1_FLR_1 Sys-3 Flr-1 Sch-D HPlcmt-south ZN NECB System 3 PSZ Occ Sch Sunda\n   **   ~~~   ** Will be processed as Alpha=SP-CORNER_CLASS_1_POD_3_ZN_1_FLR_1 SYS-3 FLR-1 SCH-D HPLCMT-SOUTH ZN NECB SYSTEM 3 PSZ OCC SCH SUNDAY\n   ************* IDF Context for following error/warning message:\n   ************* Note -- lines truncated at 300 characters, if necessary...\n   *************   2576 Schedule:Day:Interval,\n   ************* indicated Name=Sp-Corner_Class_1_Pod_3_ZN_1_FLR_1 Sys-3 Flr-1 Sch-D HPlcmt-south ZN NECB System 3 PSZ Occ Sch Monday\n   ************* Only last 1 lines before error line shown.....\n   *************   2577   Sp-Corner_Class_1_Pod_3_ZN_1_FLR_1 Sys-3 Flr-1 Sch-D HPlcmt-south ZN NECB System 3 PSZ Occ Sch Monday, !- Name\n   ** Warning ** IP: IDF line~2577 Alpha Argument length exceeds maximum, will be truncated=  Sp-Corner_Class_1_Pod_3_ZN_1_FLR_1 Sys-3 Flr-1 Sch-D HPlcmt-south ZN NECB System 3 PSZ Occ Sch Monda\n   **   ~~~   ** Will be processed as Alpha=SP-CORNER_CLASS_1_POD_3_ZN_1_FLR_1 SYS-3 FLR-1 SCH-D HPLCMT-SOUTH ZN NECB SYSTEM 3 PSZ OCC SCH MONDAY\n   ************* IDF Context for following error/warning message:\n   ************* Note -- lines truncated at 300 characters, if necessary...\n   *************   2591 Schedule:Day:Interval,\n   ************* indicated Name=Sp-Corner_Class_1_Pod_3_ZN_1_FLR_1 Sys-3 Flr-1 Sch-D HPlcmt-south ZN NECB System 3 PSZ Occ Sch Tuesday\n   ************* Only last 1 lines before error line shown.....\n   *************   2592   Sp-Corner_Class_1_Pod_3_ZN_1_FLR_1 Sys-3 Flr-1 Sch-D HPlcmt-south ZN NECB System 3 PSZ Occ Sch Tuesday, !- Name\n   ** Warning ** IP: IDF line~2592 Alpha Argument length exceeds maximum, will be truncated=  Sp-Corner_Class_1_Pod_3_ZN_1_FLR_1 Sys-3 Flr-1 Sch-D HPlcmt-south ZN NECB System 3 PSZ Occ Sch Tuesda\n   **   ~~~   ** Will be processed as Alpha=SP-CORNER_CLASS_1_POD_3_ZN_1_FLR_1 SYS-3 FLR-1 SCH-D HPLCMT-SOUTH ZN NECB SYSTEM 3 PSZ OCC SCH TUESDAY\n   ************* IDF Context for following error/warning message:\n   ************* Note -- lines truncated at 300 characters, if necessary...\n   *************   2606 Schedule:Day:Interval,\n   ************* indicated Name=Sp-Corner_Class_1_Pod_3_ZN_1_FLR_1 Sys-3 Flr-1 Sch-D HPlcmt-south ZN NECB System 3 PSZ Occ Sch Wednesday\n   ************* Only last 1 lines before error line shown.....\n   *************   2607   Sp-Corner_Class_1_Pod_3_ZN_1_FLR_1 Sys-3 Flr-1 Sch-D HPlcmt-south ZN NECB System 3 PSZ Occ Sch Wednesday, !- Name\n   ** Warning ** IP: IDF line~2607 Alpha Argument length exceeds maximum, will be truncated=  Sp-Corner_Class_1_Pod_3_ZN_1_FLR_1 Sys-3 Flr-1 Sch-D HPlcmt-south ZN NECB System 3 PSZ Occ Sch Wednesda\n   **   ~~~   ** Will be processed as Alpha=SP-CORNER_CLASS_1_POD_3_ZN_1_FLR_1 SYS-3 FLR-1 SCH-D HPLCMT-SOUTH ZN NECB SYSTEM 3 PSZ OCC SCH WEDNESDAY\n   ************* IDF Context for following error/warning message:\n   ************* Note -- lines truncated at 300 characters, if necessary...\n   *************   2621 Schedule:Day:Interval,\n   ************* indicated Name=Sp-Corner_Class_1_Pod_3_ZN_1_FLR_1 Sys-3 Flr-1 Sch-D HPlcmt-south ZN NECB System 3 PSZ Occ Sch Thursday\n   ************* Only last 1 lines before error line shown.....\n   *************   2622   Sp-Corner_Class_1_Pod_3_ZN_1_FLR_1 Sys-3 Flr-1 Sch-D HPlcmt-south ZN NECB System 3 PSZ Occ Sch Thursday, !- Name\n   ** Warning ** IP: IDF line~2622 Alpha Argument length exceeds maximum, will be truncated=  Sp-Corner_Class_1_Pod_3_ZN_1_FLR_1 Sys-3 Flr-1 Sch-D HPlcmt-south ZN NECB System 3 PSZ Occ Sch Thursda\n   **   ~~~   ** Will be processed as Alpha=SP-CORNER_CLASS_1_POD_3_ZN_1_FLR_1 SYS-3 FLR-1 SCH-D HPLCMT-SOUTH ZN NECB SYSTEM 3 PSZ OCC SCH THURSDAY\n   ************* IDF Context for following error/warning message:\n   ************* Note -- lines truncated at 300 characters, if necessary...\n   *************   2636 Schedule:Day:Interval,\n   ************* indicated Name=Sp-Corner_Class_1_Pod_3_ZN_1_FLR_1 Sys-3 Flr-1 Sch-D HPlcmt-south ZN NECB System 3 PSZ Occ Sch Friday\n   ************* Only last 1 lines before error line shown.....\n   *************   2637   Sp-Corner_Class_1_Pod_3_ZN_1_FLR_1 Sys-3 Flr-1 Sch-D HPlcmt-south ZN NECB System 3 PSZ Occ Sch Friday, !- Name\n   ** Warning ** IP: IDF line~2637 Alpha Argument length exceeds maximum, will be truncated=  Sp-Corner_Class_1_Pod_3_ZN_1_FLR_1 Sys-3 Flr-1 Sch-D HPlcmt-south ZN NECB System 3 PSZ Occ Sch Frida\n   **   ~~~   ** Will be processed as Alpha=SP-CORNER_CLASS_1_POD_3_ZN_1_FLR_1 SYS-3 FLR-1 SCH-D HPLCMT-SOUTH ZN NECB SYSTEM 3 PSZ OCC SCH FRIDAY\n   ************* IDF Context for following error/warning message:\n   ************* Note -- lines truncated at 300 characters, if necessary...\n   *************   2651 Schedule:Day:Interval,\n   ************* indicated Name=Sp-Corner_Class_1_Pod_3_ZN_1_FLR_1 Sys-3 Flr-1 Sch-D HPlcmt-south ZN NECB System 3 PSZ Occ Sch Saturday\n   ************* Only last 1 lines before error line shown.....\n   *************   2652   Sp-Corner_Class_1_Pod_3_ZN_1_FLR_1 Sys-3 Flr-1 Sch-D HPlcmt-south ZN NECB System 3 PSZ Occ Sch Saturday, !- Name\n   ** Warning ** IP: IDF line~2652 Alpha Argument length exceeds maximum, will be truncated=  Sp-Corner_Class_1_Pod_3_ZN_1_FLR_1 Sys-3 Flr-1 Sch-D HPlcmt-south ZN NECB System 3 PSZ Occ Sch Saturda\n   **   ~~~   ** Will be processed as Alpha=SP-CORNER_CLA
[...]
CfBn1HFZ8GfbMVnwZ9HxafBn2LFp8GfV8inwZ9yyKfBn03I58GfaMjn0YNda65PZJPo4Y619xUyadRw0qusVU6jdI3lFSzVYtXmDBI0LaKTYLuDDYJui/YJGhbxSZB2yo2CdpWsUnQtopNgp5u2SQ0topPg55u+TTo6ZZPg7ZVfBq0reLToG0VnwZtq/g0aFvFp0HbKj6NGupcY6v4NGqoc42t4tOoYSXX2CqdRulG8NVs1WKneAYJ2laxSdCdwSZB9wWbBG2r2CRoW8UmQdsqNgnaVrFJ0NMtm4TGVvFp0NMtnwY93fJp0LaKT4O2VXwatK3i06BtFZ8Gbav4NGhbxadRQ51rbBWfRg11rrFVfBo1rOQaW6XTKN1vt5qtWmzIyyBB2yo2Cboz2CTovmCToG0VmwRtq9gkaFvFJkHbKjYJerplk9DYKj4Nerrl06CnWz4N2lbxadC2ik+DtlV8GrSt4tOgbRWfBm2r+DRqqHONreLTqKHONbaKT6OGlVxjq3QapdsaVrNVi30PGSRoW8UmQXcGmwTdF2wStK1ik6BtFZsEbavYJGhbxSZBT7dsEtrN1rg0dLtVcWnoNrLi0tDtccWlodv+iktDt+cbl4ZuOzguDd1OcVwauk3kuDRqqHPt1nNcGjXUuXbDOi6NGlZyja1aaXyvssPrckdncSwieb/aQbbYOLaR3o2bxQ6wpVvFrraFTmX2Pp5FftrotpvCcbpN0VE/ud1q280+5BhPu137fs/L5DhO5icPQbrYVvnp+ivsPZ0nuEh8mVzO1C7HlU9UHPOXHJ+kl84SucBQGzUv233D+34jjDDCCCOMMMIII4wwwggjjDDCCCOMMMIII4wwwggjjDDCCCOMMMIII4wwwggjjDDCCCOMMMIII4wwwggjjDDCCCOMMMIII/yXCs/t+E4mSeDLT556sNax2//j86rq0dj05aOxVzIJZLp8vNZqrh4gnoZxZodBJEsfkU1fe063/Mna1C5ePT+NQy8L4iiHstJMTlsDOYoTaVV78vmjHMvIf3lBi88ae+2m6Kgnl9vqQWb1jxXKUabASlKv0tr9sczOoky1Ty4xmkXDgrSxLf4oSbEilE9nX5c+y62OYCQa2SRI7bTolWpC6nh2kp2335k3nDT+A2yabYWvHh3P2Zd5+9M4DVTC0/zjKlezOlSaV6iS+N4MaYUVRL5U9dBymoZnr46bdU8cBTJU462xbNNFnYyTeDaVvvj5Z/G35ecPdn/ipcvn31WBbT+Pzl+N5g1ie+PxudKwQxmNs4l4J1zxT2GdhKEljl5+Iw2DoWy0nO3r9vft0nr705XEiWjc5JfS/kXc5DLLobrUVZ/9PZ9xzDtIHWoYL/Nd33y3f8i5OD4+XjTeehmLrMtuvzG91NUxSKT3Y52THw3PMf2+aq/l1R2rYa0Gw3KkFBs52H0vTYNxJP2e2iIivS5a8vt6Tbnq6OksnTTW7Yu8S48W/bl+JYXhUZWrtNU311VJsyT+IavpLL67rlI89YZBNq8mtfzy2ldVSKyk1s2ymkheTivrlIfx5KOOVTm/nHhESzim2UzKrTrrY7NYVSt9/7HMU6hjZ0d8+f2r+PfF75fi6uLy62+ffxUfL379rSc+nF2eVUtwns/a8sFTFk1ksUjjJBPR7DYfB0NRbGmSCi8d5uYliMYVMq7aXuV5tjJ7TTGoPrkkMpslkZh6SSrPw9jLGp6a8rfzrnz22aD4rFJjllu0Z7LLSyhL/LjZnV6e/GdR7kWxN7Z8OfJmYSamSZzPYXKrKbZ+Ojjo9c7Otja88QxwgAMc4AAHOMABDnCAAxzg/DVxRDq7zf8LLHypPhS+N1dEifRBAxrQgAY0oAENaEADGtCABjR6mvvi1qz/ohmEMwkc4AAHOMABDnCAAxzgAAc4wFkH5+m9gY56b+DVjHpvYMcp/sJ2crK7e3gIUpCCFKQgBSlIQQpSkIIUpCAFKUjfBqlbkHoZRdouSDsd1z3YAylIQQpSkIIUpCAFKUhBClKQghSkb4O0o0jPk4AgdQ8LUsfZ3+90QApSkIIUpCAFKUhBClKQghSkIAXp2yDdVaRfJzOK9KAgPcyP7nuQghSkIAUpSEEKUpCCFKQgBSlIQfo2SLuK9F/Sp0j3C9LT015vfx+kIAUpSEEKUpCCFKQgBSlIQQpSkL4N0r3iNxMzSZHuFaS93t4eSEEKUpCCFKQgBSlIQQpSkIIUpCB9K6T7ivRTTO0s6HYL0oMD1+12QQpSkIIUpCAFKUhBClKQghSkIAVpbaQrFD/x7hulyR7sLMhCeTXxptLO5EPW2PoQz5K0HGP+5zNPg1sZpUEchTItMpSk2NkRJ74vPFFkEvdBNhFpfCuF3yk5M70b2950KiO/YSlta7vkhNVhe1mWNKwHqyn22oYnzfOT3Oonpdk8lAu8lhcNJ3GSn2+FcmRAu8wxiqOsdS+D8SRTOQZx6FfPseibq2nr0yzM+r0wH6N9p/8l9vud/rfP+Y/nHy/7jriap62OOA+TVv7zcNI6FR++hMPbrJXGs7xfvn0Wn89679XXMnkrOuLL1TdxMRyq725t63r63U46TIJp9g/yO+92/ODu9TB5Dp0szyUC/9gaqjLo5S3nBZFM+o7TtUTRnseWH6TT0JsfBVGYx1qDMB7++MWiAfOsi2sQ2Xyan6+adOfGu/MWn2rPVMedl6ghK46FH9xOQ2lH8v7qbtywfnoFsil22+3in9IaVHl9L/PyxNd/WKE3kKF1ZPly5OVdLaZJPApCaTUXkf6DdeTY7aZ154Uzufx5qKaq/Jx89un1zs6sx2alPC5Tng5Tnl2mPF2mPHtMefaZ8hww5TlkyuO0uRJxjWiHa0g7XGPa4RrUDteodriGtcM1rh2uge1wjWyXa2S7bHM118h2uUa2azSyRTq7vX3x7upKK1oifYM0ZBuZpSFbyCwN2T5maci6N0tDVr1ZGrLmzdKQFW+Whqx3szT0QmaYh2kc08uYYR6mkUwvYoZ5mMYyvYQZ5mEazfQCZpiHaTzTy5dhHq55mWk802uXYZ7q4/k+iDLzZWugPqqeh2wewzxk8xjmIZvHMA9Z7oZ5yHI3zEOWu2EestwN85DlbpiHXr9ME3GNaHoFM03ENabpNcw0Edeoplcx00Rc45pex0wTcY1seiUzTcQ2V3ONbHoxM01UfWQ//TGj9GXD1DLXfvEfvcXbiBkk3M1LdDYvsbt5ie7mJfY2L7G/eYmDzUscbl7ixcq+KY0a6tupocCdGircqaHEnRpq3KmhyJ0aqtypocydGurcraHO3TrW8Rrq3K2hzt316rz0nY7VbNXipY8MEnRvsEnQncEmQfcFmwQ95bJJ0DMumwQ94bJJ0PMtmwQ93bJJaGwVn0YN9a2xVXwaNVS4xlbxadRQ4xpbxadRQ5VrbBWfRg11rrFVfBp1rOM11LnGVvFprFfnpa/OqmarFu/WYpCge4NNgu4MNgm6L9gk6CmXTYKecdkk6AmXTYKeb9kk6OmWTUJzQyCfBn1HFZ8GfbMVnwZ9HxafBn2LFp8GfV8inwZ9yyKfBn03I58GfaMjn0YNda65PZJPo4Y619xUyadRw0qusVU6jdI3lFSzVYtXmDBI0LaKTYLuDDYJui/YJGhbxSZB2yo2CdpWsUnQtopNgp5u2SQ0topPg55u+TTo6ZZPg7ZVfBq0reLToG0VnwZtq/g0aFvFp0HbKj6NGupcY6v4NGqoc42t4tOoYSXX2CqdRulG8NVs1WKneAYJ2laxSdCdwSZB9wWbBG2r2CRoW8UmQdsqNgnaVrFJ0NMtm4TGVvFp0NMtnwY93fJp0LaKT4O2VXwatK3i06BtFZ8Gbav4NGhbxadRQ51rbBWfRg11rrFVfBo1rOQaW6XTKN1vt5qtWmzIyyBB2yo2Cboz2CTovmCToG0VmwRtq9gkaFvFJkHbKjYJerplk9DYKj4Nerrl06CnWz4N2lbxadC2ik+DtlV8GrSt4tOgbRWfBm2r+DRqqHONreLTqKHONbaKT6OGlVxjq3QapdsaVrNVi30PGSRoW8UmQXcGmwTdF2wStK1ik6BtFZsEbavYJGhbxSZBT7dsEtrN1rg0dLtVcWnoNrLi0tDtccWlodv+iktDt+cbl4ZuOzguDd1OcVwauk3kuDRqqHPt1nNcGjXUuXbDOi6NGlZyja1aaXyvssPrckdncSwieb/aQbbYOLaR3o2bxQ6wpVvFrraFTmX2Pp5FftrotpvCcbpN0VE/ud1q280+5BhPu137fs/L5DhO5icPQbrYVvnp+ivsPZ0nuEh8mVzO1C7HlU9UHPOXHJ+kl84SucBQGzUv233D+34jjDDCCCOMMMIII4wwwggjjDDCCCOMMMIII4wwwggjjDDCCCOMMMIII4wwwggjjDDCCCOMMMIII4wwwggjjDDCCCOMMMIII/yXCs/t+E4mSeDLT556sNax2//j86rq0dj05aOxVzIJZLp8vNZqrh4gnoZxZodBJEsfkU1fe063/Mna1C5ePT+NQy8L4iiHstJMTlsDOYoTaVV78vmjHMvIf3lBi88ae+2m6Kgnl9vqQWb1jxXKUabASlKv0tr9sczOoky1Ty4xmkXDgrSxLf4oSbEilE9nX5c+y62OYCQa2SRI7bTolWpC6nh2kp2335k3nDT+A2yabYWvHh3P2Zd5+9M4DVTC0/zjKlezOlSaV6iS+N4MaYUVRL5U9dBymoZnr46bdU8cBTJU462xbNNFnYyTeDaVvvj5Z/G35ecPdn/ipcvn31WBbT+Pzl+N5g1ie+PxudKwQxmNs4l4J1zxT2GdhKEljl5+Iw2DoWy0nO3r9vft0nr705XEiWjc5JfS/kXc5DLLobrUVZ/9PZ9xzDtIHWoYL/Nd33y3f8i5OD4+XjTeehmLrMtuvzG91NUxSKT3Y52THw3PMf2+aq/l1R2rYa0Gw3KkFBs52H0vTYNxJP2e2iIivS5a8vt6Tbnq6OksnTTW7Yu8S48W/bl+JYXhUZWrtNU311VJsyT+IavpLL67rlI89YZBNq8mtfzy2ldVSKyk1s2ymkheTivrlIfx5KOOVTm/nHhESzim2UzKrTrrY7NYVSt9/7HMU6hjZ0d8+f2r+PfF75fi6uLy62+ffxUfL379rSc+nF2eVUtwns/a8sFTFk1ksUjjJBPR7DYfB0NRbGmSCi8d5uYliMYVMq7aXuV5tjJ7TTGoPrkkMpslkZh6SSrPw9jLGp6a8rfzrnz22aD4rFJjllu0Z7LLSyhL/LjZnV6e/GdR7kWxN7Z8OfJmYSamSZzPYXKrKbZ+Ojjo9c7Otja88QxwgAMc4AAHOMABDnCAAxzg/DVxRDq7zf8LLHypPhS+N1dEifRBAxrQgAY0oAENaEADGtCABjR6mvvi1qz/ohmEMwkc4AAHOMABDnCAAxzgAAc4wFkH5+m9gY56b+DVjHpvYMcp/sJ2crK7e3gIUpCCFKQgBSlIQQpSkIIUpCAFKUjfBqlbkHoZRdouSDsd1z3YAylIQQpSkIIUpCAFKUhBClKQghSkb4O0o0jPk4AgdQ8LUsfZ3+90QApSkIIUpCAFKUhBClKQghSkIAXp2yDdVaRfJzOK9KAgPcyP7nuQghSkIAUpSEEKUpCCFKQgBSlIQfo2SLuK9F/Sp0j3C9LT015vfx+kIAUpSEEKUpCCFKQgBSlIQQpSkL4N0r3iNxMzSZHuFaS93t4eSEEKUpCCFKQgBSlIQQpSkIIUpCB9K6T7ivRTTO0s6HYL0oMD1+12QQpSkIIUpCAFKUhBClKQghSkIAVpbaQrFD/x7hulyR7sLMhCeTXxptLO5EPW2PoQz5K0HGP+5zNPg1sZpUEchTItMpSk2NkRJ74vPFFkEvdBNhFpfCuF3yk5M70b2950KiO/YSlta7vkhNVhe1mWNKwHqyn22oYnzfOT3Oonpdk8lAu8lhcNJ3GSn2+FcmRAu8wxiqOsdS+D8SRTOQZx6FfPseibq2nr0yzM+r0wH6N9t/8l9vtO/9vn/J/zj5d9R1zN01ZHnIdJK/95OGmdig9fwuFt1oriJO+Xb5/F57Pee/W1TN6Kjvhy9U1cDIfqu1vbup5+t5MOk2Ca/YP8zrsdP7h7PUyeQyfLc4nAP7aGqgx6ect5QSSTvuPsWaJoz2PLD9Jp6M2PgijMY61BGA9//GLRgHnWxTWIbD7Nz1dNunPj3XmLT7VnquPOS9SQFcfCD26nobQjeX91N25YP70C2RS77XbxT2kNqry+l3l54us/rNAbyNA6snw58vKuFtMkHgWhtJqLSP/BOnLsdtO688KZXP48VFNVfk4++/R6Z2fWY7NSHpcpT4cpzy5Tni5Tnj2mPPtMeQ6Y8hwy5XHaXIm4RrTDNaQdrjHtcA1qh2tUO1zD2uEa1w7XwHa4RrbLNbJdtrmaa2S7XCPbNRrZIp3d3r54d3WlFS2RvkEaso3M0pAtZJaGbB+zNGTdm6Uhq94sDVnzZmnIijdLQ9a7WRp6ITPMwzSO6WXMMA/TSKYXMcM8TGOZXsIM8zCNZnoBM8zDNJ7p5cswD9e8zDSe6bXLME/18XwfRJn5sjVQH1XPQzaPYR6yeQzzkM1jmIcsd8M8ZLkb5iHL3TAPWe6GechyN8xDr1+mibhGNL2CmSbiGtP0GmaaiGtU06uYaSKucU2vY6aJuEY2vZKZJmKbq7lGNr2YmSaqPrKf/phR+rJhaplrv/iP3uJtxAwS7uYlOpuX2N28RHfzEnubl9jfvMTB5iUONy/xYmXflEYN9e3UUOBODRXu1FDiTg017tRQ5E4NVe7UUOZODXXu1lDnbh3reA117tZQ5+56dV76Tsdqtmrx0kcGCbo32CTozmCToPuCTYKectkk6BmXTYKecNkk6PmWTYKebtkkNLaKT6OG+tbYKj6NGipcY6v4NGqocY2t4tOooco1topPo4Y619gqPo061vEa6lxjq/g01qvz0ldnVbNVi3drMUjQvcEmQXcGmwTdF2wS9JTLJkHPuGwS9ITLJkHPt2wS9HTLJqG5IZBPg76jik+DvtmKT4O+D4tPg75Fi0+Dvi+RT4O+ZZFPg76bkU+DvtGRT6OGOtfcHsmnUUOda26q5NOoYSXX2CqdRukbSqrZqsUrTBgkaFvFJkF3BpsE3RdsErStYpOgbRWbBG2r2CRoW8UmQU+3bBIaW8WnQU+3fBr0dMunQdsqPg3aVvFp0LaKT4O2VXwatK3i06BtFZ9GDXWusVV8GjXUucZW8WnUsJJrbJVOo3Qj+Gq2arFTPIMEbavYJOjOYJOg+4JNgrZVbBK0rWKToG0VmwRtq9gk6OmWTUJjq/g06OmWT4Oebvk0aFvFp0HbKj4N2lbxadC2ik+DtlV8GrSt4tOooc41topPo4Y619gqPo0aVnKNrdJplO63W81WLTbkZZCgbRWbBN0ZbBJ0X7BJ0LaKTYK2VWwStK1ik6BtFZsEPd2ySWhsFZ8GPd3yadDTLZ8Gbav4NGhbxadB2yo+DdpW8WnQtopPg7ZVfBo11LnGVvFp1FDnGlvFp1HDSq6xVTqN0m0Nq9mqxb6HDBK0rWKToDuDTYLuCzYJ2laxSdC2ik2CtlVsErStYpOgp1s2Ce1ma1waut2quDR0G1lxaej2uOLS0G1/xaWh2/ONS0O3HRyXhm6nOC4N3SZyXBo11Ll26zkujRrqXLthHZdGDSu5xlatNL5X2eF1uaOzOBaRvF/tIFtsHNtI78bNYgfY0q1iV9tCpzJ7H88iP210203hON2m6Kif3G617WYfcoyn3a59v+dlchwn85OHIF1sq/x0/RX2ns4TXCS+TC5napfjyicqjvlLjk/SS2eJXGCojZqX7b7hfb8RRhhhhBFGGGGEEUYYYYQRRhhhhBFGGGGEEUYYYYQRRhhhhBFGGGGEEUYYYYQRRhhhhBFGGGGEEUYYYYQRRhhhhBFGGGGEEf5Lhed2fCeTJPDlJ089WOvY7f/xeVX1aGz68tHYK5kEMl0+Xms1Vw8QT8M4s8MgkqWPyKavPadb/mRtahevnp/GoZcFcZRDWWkmp62BHMWJtKo9+fxRjmXkv7ygxWeNvXZTdNSTy231ILP6xwrlKFNgJalXae3+WGZnUabaJ5cYzaJhQdrYFn+UpFgRyqezr0uf5VZHMBKNbBKkdlr0SjUhdTw7yc7b78wbThr/ATbNtsJXj47n7Mu8/WmcBirhaf5xlatZHSrNK1RJfG+GtMIKIl+qemg5TcOzV8fNuieOAhmq8dZYtumiTsZJPJtKX/z8s/jb8vMHuz/x0uXz76rAtp9H569G8waxvfH4XGnYoYzG2US8E674p7BOwtASRy+/kYbBUDZazvZ1+/t2ab396UriRDRu8ktp/yJucpnlUF3qqs/+ns845h2kDjWMl/mub77bP+RcHB8fLxpvvYxF1mW335he6uoYJNL7sc7Jj4bnmH5ftdfy6o7VsFaDYTlSio0c7L6XpsE4kn5PbRGRXhct+X29plx19HSWThrr9kXepUeL/ly/ksLwqMpV2uqb66qkWRL/kNV0Ft9dVymeesMgm1eTWn557asqJFZS62ZZTSQvp5V1ysN48lHHqpxfTjyiJRzTbCblVp31sVmsqpW+/1jmKdSxsyO+/P5V/Pvi90txdXH59bfPv4qPF7/+1hMfzi7PqiU4z2dt+eApiyayWKRxkolodpuPg6EotjRJhZcOc/MSROMKGVdtr/I8W5m9phhUn1wSmc2SSEy9JJXnYexlDU9N+dt5Vz77bFB8Vqkxyy3aM9nlJZQlftzsTi9P/rMo96LYG1u+HHmzMBPTJM7nMLnVFFs/HRz0emdnWxveeAY4wAEOcIADHOAABzjAAQ5w/po4Ip3d5v8FFr5UHwrfmyuiRPqgAQ1oQAMa0IAGNKABDWhAAxo9zX1xa9Z/0QzCmQQOcIADHOAABzjAAQ5wgAMc4KyD8/TeQEe9N/BqRr03sOMUf2E7OdndPTwEKUhBClKQghSkIAUpSEEKUpCCFKRvg9QtSL2MIm0XpJ2O6x7sgRSkIAUpSEEKUpCCFKQgBSlIQQrSt0HaUaTnSUCQuocFqePs73c6IAUpSEEKUpCCFKQgBSlIQQpSkIL0bZDuKtKvkxlFelCQHuZH9z1IQQpSkIIUpCAFKUhBClKQghSkIH0bpF1F+i/pU6T7Benpaa+3vw9SkIIUpCAFKUhBClKQghSkIAUpSN8G6V7xm4mZpEj3CtJeb28PpCAFKUhBClKQghSkIAUpSEEKUpC+FdJ9RfoppnYWdLsF6cGB63a7IAUpSEEKUpCCFKQgBSlIQQpSkIK0NtIVip94943SZA92FmShvJp4U2ln8iFrbH2IZ0lajjH/85mnwa2M0iCOQpkWGUpS7OyIE98Xnigyifsgm4g0vpXC75Scmd6NbW86lZHfsJS2tV1ywuqwvSxLGtaD1RR7bcOT5vlJbvWT0mweygVey4uGkzjJz7dCOTKgXeYYxVHWupfBeJKpHIM49KvnWPTN1bT1aRZm/V6Yj9G+2/8S+/m/3z73nf7/t3e+vW0bWRd//3yKWRaoZVSSRcn/G3fhKHZTIIkDO8ViYwQCJY4k2hQpkJRtofB3Xw5Fea3Gl+RIl+y6z+GLNNUlz/lxZu7MbUWOzj9c9kxxNQ8bHXHuBo3474Nx4514/9kdTKKG5wdxv3z9JD6ddd+q0yI5ER3x+eqruBgM1Llb21k9/WYnHATONPqFPOfNju3cvRwmr6HFYi3h2CfGQKVBN245y/Fk0DPNA0Mk7Xli2E44da35seO5cazRd/3B7c8GDRirLu5BRPNpfL1q0p0b685afJp5pTrurEANWXEibGcydWXTk/dXd6Oa8cMLkHWx22olf+TmoNK1rciKha//MFyrL13j2LDl0Iq7WkwDf+i40qgvIr0H49hsturGneXOZPr3gZqq4mvi2afbPTszHuuFdNpMOh0mnV0mnT0mnX0mnQMmnUMmnSMmHbPFJcQ1ok2uIW1yjWmTa1CbXKPa5BrWJte4NrkGtsk1sttcI7vNNldzjew218hua41sEc4mk5Xfri60ogXS1pAh20hPhmwhPRmyffRkyLzXkyGzXk+GzHk9GTLj9WTIfNeToRcyTR2mcUwvY5o6TCOZXsQ0dZjGMr2EaeowjWZ6AdPUYRrP9PKlqcM1LzONZ3rt0tQpPp7vHS/SX7b66qPiOmTzaOqQzaOpQzaPpg6Z7po6ZLpr6pDprqlDprumDpnumjr0+qUrxDWi6RVMV4hrTNNrmK4Q16imVzFdIa5xTa9jukJcI5teyXSF2OZqrpFNL2a6QsVH9tOXGbk/Nkwtc62V/9Bb/Boxg0W7fItO+Ra75VvslW+xX77FQfkWh+VbHJVvsbKyl+VRQX6bFSS4WUGGmxWkuFlBjpsVJLlZQZabFaS5WUGetyvI83YV63gFed6uIM/b6+V57m86FiurFj/6yGBB9wabBd0ZbBZ0X7BZ0FMumwU947JZ0BMumwU937JZ0NMtm0VGWcXnUUF+Z5RVfB4VZHhGWcXnUUGOZ5RVfB4VZHlGWcXnUUGeZ5RVfB5VrOMV5HlGWcXnsV6e5/50VrGyavHbWgwWdG+wWdCdwWZB9wWbBT3lslnQMy6bBT3hslnQ8y2bBT3dsllkPBDI50E/UcXnQT9sxedBP4fF50E/osXnQT+XyOdBP7LI50E/zcjnQT/oyOdRQZ5nPB7J51FBnmc8VMnnUcFKnlFWZXnk/kJJsbJq8RMmDBZ0WcVmQXcGmwXdF2wWdFnFZkGXVWwWdFnFZkGXVWwW9HTLZpFRVvF50NMtnwc93fJ50GUVnwddVvF50GUVnwddVvF50GUVnwddVvF5VJDnGWUVn0cFeZ5RVvF5VLCSZ5RVWR65G8EXK6sWO8UzWNBlFZsF3RlsFnRfsFnQZRWbBV1WsVnQZRWbBV1WsVnQ0y2bRUZZxedBT7d8HvR0y+dBl1V8HnRZxedBl1V8HnRZxedBl1V8HnRZxedRQZ5nlFV8HhXkeUZZxedRwUqeUVZleeTut1usrFpsyMtgQZdVbBZ0Z7BZ0H3BZkGXVWwWdFnFZkGXVWwWdFnFZkFPt2wWGWUVnwc93fJ50NMtnwddVvF50GUVnwddVvF50GUVnwddVvF50GUVn0cFeZ5RVvF5VJDnGWUVn0cFK3lGWZXlkbutYbGyarHvIYMFXVaxWdCdwWZB9wWbBV1WsVnQZRWbBV1WsVnQZRWbBT3dsllkbrbG5ZG1WxWXR9ZGVlweWXtccXlkbX/F5ZG15xuXR9Z2cFweWTvFcXlkbSLH5VFBnmduPcflUUGeZ25Yx+VRwUqeUVYtPb4V2eE13dFZnAhP3i93kE02jq2Fd6N6sgNs7laxy22hQxm99WeeHdb2WnVhmnt10VF/a+8V2272IcZ42u3atrtWJEd+MD99cMLFtspP919g7+lY4CKwZXA5U7scF75QccxXOT5KK5wFcoGhNmpO273kfb8RRhhhhBFGGGGEEUYYYYQRRhhhhBFGGGGEEUYYYYQRRhhhhBFGGGGEEUYYYYQRRhhhhBFGGGGEEUYYYYQRRhhhhBFGGGGEEf5bhedN/04GgWPLj5Z6sdZstjZ8X1W9Ghuuvhp7JQNHhunrtUZ9+QLx1PWjput4MvcV2fCl93Tz36wNm8lPz09914oc34uhjDCS00ZfDv1AGsXefP4gR9KzV29o8Vltv1UXHfXmcku9yKz+MFw5jBRYjvRSttkbyejMi1T7xBbDmTdISGvb4o8ciSWhfLr6OvddbnU4Q1GLxk7YDJNeKWakjmcXNeP2O7MG49p/gXXVlvjq1fGYPdXtTf3QUYLv4o+L3M3yUDIvUAX+vR7SEsvxbKnyoWHWNa9eHjfrXjh0pKvGWy1t00WejAJ/NpW2+PFH8Y/084dmb2yF6fvvKsG2n0fnL0bjBmlao9G58mi60htFY/FGtMU/hXHquoY4Xj0jdJ2BrDXM7evWt+3cfPvuTvxA1G7iW2n9LG5im3Sopr7qs5/iGUe/g9ShhnGqd33zrXkr5+Lk5GTReOspJqppt9/o3ury6AfSul3n4kfNa3TPV+2V3t2JGtZqMKQjJdnIodmzwtAZedLuqi0iwuukJb+t15TLjp7OwnFt3b6Iu/R40Z/rZ5LrHhe5y6Y6c12XMAr8W1nMZ3Huuk7+1Bo40byYVXry2neVWCyt1lVZTiSr08o66aE9+ahjmc6rE49oCFNXTSfdirM+1pNVtdD5j3k1hTp2dsTn37+If1/8fimuLi6//PbpV/Hh4tffuuL92eVZMYHzeNaWD5Yq0UTki9APIuHNJvE4GIhkS5NQWOEgLl4cb1RAcdn2SufZymzVRb/45BLIaBZ4YmoFoTx3fSuqWWrK34678tln/eSzQo2ZX6I9s01vIU/4sdydXp7qzyTdk2SvbdlyaM3cSEwDP57D5FZdbP1weNjtnp1tlbzxDHCAAxzgAAc4wAEOcIADHOD8PXFEOJvE/wksbKk+FLY1V0SBtEEDGtCABjSgAQ1oQAMa0IAGNNk098mjWX+i6bszCRzgAAc4wAEOcIADHOAABzjAWQfn6XcDTfW7gVcz6ncDO2byDdvp6e7u0RFIQQpSkIIUpCAFKUhBClKQghSkIH0dpO2E1Ioo0lZC2um024f7IAUpSEEKUpCCFKQgBSlIQQpSkIL0dZB2FOl54BCk7aOE1DQPDjodkIIUpCAFKUhBClKQghSkIAUpSEH6Okh3FemX8YwiPUxIj+Jj7y1IQQpSkIIUpCAFKUhBClKQghSkIH0dpHuK9F/SpkgPEtJ377rdgwOQghSkIAUpSEEKUpCCFKQgBSlIQfo6SPeT/zMxkxTpfkLa7e7vgxSkIAUpSEEKUpCCFKQgBSlIQQrS10J6oEg/+tTOgu29hPTwsN3e2wMpSEEKUpCCFKQgBSlIQQpSkIIUpJWRLlHswLqv5Yo9NCMncuXV2JrKZiQfotrWe38WhPkY8++vfOdMpBc6vufKMFHIkdjZEae2LSyRKIl7JxqL0J9IYXdyrgzvRk1rOpWeXTOUt7Gdc8HyaFpRFNSMB6Mu9luaF83ji9rFLwqjuSsXeA3LG4z9IL7ecOVQgzbVGPpe1LiXzmgcKY2+79rFNRZ9czVtfJy5Ua/rxmO01+599u1ep/f1U8/snX+47Jniah42OuLcDRrx3wfjxjvx/rM7mEQNzw/ifvn6SXw6675Vp0VyIjri89VXcTEYqHO3trN6+s1OOAicafQLec6bHdu5ezlMXkOLxVrCsU+MgUqDbtxyluPJoGeah4ZI2vPEsJ1w6lrzY8dz41ij7/qD258NGjBWXdyDiObT+HrVpDs31p21+DTzSnXcWYEasuJE2M5k6sqmJ++v7kY144cXIOtit9VK/sjNQaVrW5EVC1//YbhWX7rGsWHLoRV3tZgG/tBxpVFfRHoPxrHZbNWNO8udyfTvAzVVxdfEs0+3e3ZmPNYL6bSZdDpMOrtMOntMOvtMOgdMOodMOkdMOmaLS4hrRJtcQ9rkGtMm16A2uUa1yTWsTa5xbXINbJNrZLe5Rnabba7mGtltrpHd1hrZIpxNJiu/XV1oRQukrSFDtpGeDNlCejJk++jJkHmvJ0NmvZ4MmfN6MmTG68mQ+a4nQy9kmjpM45hexjR1mEYyvYhp6jCNZXoJ09RhGs30AqapwzSe6eVLU4drXmYaz/TapalTfDzfO16kv2z11UfFdcjm0dQhm0dTh2weTR0y3TV1yHTX1CHTXVOHTHdNHTLdNXXo9UtXiGtE0yuYrhDXmKbXMF0hrlFNr2K6Qlzjml7HdIW4Rja9kukKsc3VXCObXsx0hYqP7KcvM3J/bJha5lor/6G3+DViBot2+Rad8i12y7fYK99iv3yLg/ItDsu3OCrfYmVlL8ujgvw2K0hws4IMNytIcbOCHDcrSHKzgiw3K0hzs4I8b1eQ5+0q1vEK8rxdQZ6318vz3N90LFZWLX70kcGC7g02C7oz2CzovmCzoKdcNgt6xmWzoCdcNgt6vmWzoKdbNouMsorPo4L8ziir+DwqyPCMsorPo4Iczyir+DwqyPKMsorPo4I8zyir+DyqWMcryPOMsorPY708z/3prGJl1eK3tRgs6N5gs6A7g82C7gs2C3rKZbOgZ1w2C3rCZbOg51s2C/rZKDaLjAcC+TzoJ6r4POiHrfg86Oew+DzoR7T4POjnEvk86EcW+Tzopxn5POgHHfk8KsjzjLKKz6OKdbyChTyjrOLzWG8pz/2FkmJl1eInTBgs6N5gs6A7g82C7gs2C7qsYrOgyyo2C7qsYrOgyyo2C3q6ZbPIKKv4POiyis+DLqv4POiyis+DLqv4POiyis+DLqv4POiyis+DLqv4PCrI84yyis+jinW8goU8o6zi81hvKc/dCL5YWbXYKZ7Bgu4NNgu6M9gs6L5gs6DLKjYLuqxis6DLKjYLuqxis6CnWzaLjLKKz4Muq/g86LKKz4Muq/g86LKKz4Muq/g86LKKz4Muq/g86LKKz6OCPM8oq/g8qljHK1jIM8oqPo/1lvLc/XaLlVWLDXkZLOjeYLOgO4PNgu4LNgu6rGKzoMsqNgu6rGKzoMsqNgt6umWzyCir+DzosorPgy6r+DzosorPgy6r+DzosorPgy6r+DzosorPgy6r+DwqyPOMsorPo4p1vIKFPKOs4vNYbynP3dawWFm12PeQwYLuDTYLujPYLOi+YLOgyyo2C7qsYrOgyyo2C7qsYrPI2neKySJzszUuj6zdqrg8sjay4vLI2uOKyyNr+ysuj6w937g8sraD4/LI2imOyyNrEzkujwryPKOs4vOoYh2vYCHPKKv4PPKX8m9FdnhNd3QWJ8KT98sdZJONY2vh3aie7ACbu1XsclvoUEZv/Zlnh7W9Vl2Y5l5ddNTf2nvFtpt9iDGedru27a4VyZEfzE8fnHCxrfLT/RfYezoWuAhsGVzO1C7HhS9UHPNVjo/SCmeBXGCojZrTdi9532+EEUYYYYQRRhhhhBFGGGGEEUYYYYQRRhhhhBFGGGGEEUYYYYQRRhhhhBFGGGGEEUYYYYQRRhhhhBFGGGGEEUYYYYQRRhhhhP9W4XnTv5NB4Njyo6VerDWbrQ3fV1Wvxoarr8ZeycCRYfp6rVFfvkA8df2o6TqezH1FNnzpPd38N2vDZvLT81PftSLH92IoI4zktNGXQz+QRrE3nz/IkfTs1RtafFbbb9VFR7253FIvMqs/DFcOIwWWI72UbfZGMjrzItU+scVw5g0S0tq2+CNHYkkon66+zn2XWx3OUNSisRM2w6RXihmp49lFzbj9zqzBuPZfYF21Jb56dTxmT3V7Uz90lOC7+OMid7M8lMwLVIF/r4e0xHI8W6p8aJh1zauXx826Fw4d6arxVkvbdJEno8CfTaUtfvxR/CP9/KHZG1th+v67SrDt59H5i9G4QZrWaHSuPJqu9EbRWLwRbfFPYZy6riGOV88IXWcgaw1z+7r1bTs33767Ez8QtZv4Vlo/i5vYJh2qqa/67Kd4xtHvIHWoYZzqXd98a97KuTg5OVk03nqKiWra7Te6t7o8+oG0bte5+FHzGt3zVXuld3eihrUaDOlISTZyaPasMHRGnrS7aouI8DppyW/rNeWyo6ezcFxbty/iLj1e9Of6meS6x0XusqnOXNcljAL/VhbzWZy7rpM/tQZONC9mlZ689l0lFkurdVWWE8nqtLJOemhPPupYpvPqxCMawtRV00m34qyP9WRVLXT+Y15NoY6dHfH59y/i3xe/X4qri8svv336VXy4+PW3rnh/dnlWTOA8nrXlg6VKNBH5IvSDSHizSTwOBiLZ0iQUVjiIixfHGxVQXLa90nm2Mlt10S8+uQQymgWemFpBKM9d34pqlpryt+OufPZZP/msUGPml2jPbNNbyBN+LHenl6f6M0n3JNlrW7YcWjM3EtPAj+cwuVUXWz8cHna7Z2dbJW88AxzgAAc4wAEOcIADHOAABzh/TxwRzibxfwILW6oPhW3NFVEgbdCABjSgAQ1oQAMa0IAGNKABTTbNffJo1p9o+u5MAgc4wAEOcIADHOAABzjAAQ5w1sF5+t1AU/1u4NWM+t3Ajpl8w3Z6urt7dARSkIIUpCAFKUhBClKQghSkIAUpSF8HaTshtSKKtJWQdjrt9uE+SEEKUpCCFKQgBSlIQQpSkIIUpCB9HaQdRXoeOARp+yghNc2Dg04HpCAFKUhBClKQghSkIAUpSEEKUpC+DtJdRfplPKNIDxPSo/jYewtSkIIUpCAFKUhBClKQghSkIAUpSF8H6Z4i/Ze0KdKDhPTdu2734ACkIAUpSEEKUpCCFKQgBSlIQQpSkL4O0v3k/0zMJEW6n5B2u/v7IAUpSEEKUpCCFKQgBSlIQQpSkIL0tZAeKNKPPrWzYHsvIT08bLf39kAKUpCCFKQgBSlIQQpSkIIUpCAFaWWkSxQ7sO5ruWIPzciJXHk1tqayGcmHqLb13p8FYT7G/Psr3zkT6YWO77kyTBRyJHZ2xKltC0skSuLeicYi9CdS2J2cK8O7UdOaTqVn1wzlbWznXLA8mlYUBTXjwaiL/ZbmRfP4onbxi8Jo7soFXsPyBmM/iK83XDnUoE01hr4XNe6lMxpHSqPvu3ZxjUXfXE0bF8OhM5Bh7+unntk7/3DZM8XVPGx0xLkbNOK/D8aNU/H+szuYRA1phZH4+kl8Ouu+VWdFciI64vPVV3ExGKhTt7azevfNTjgInGn0C3nOmx3buXs5TF5Di8VawrFPjIEa+t24tSzHk0HPNI8MkbThiWE74dS15seO58axRt/1B7c/GzRgrLq4BxHNp/H1qhl3bqw7a/Fp5pXquLMCNUzFibCdydSVTU/eX92NasYPL0DWxW6rlfyRm3dK17YiKxa+/sNwrb50jWPDlkNr5kZiGvhDx5VGfRHpPRjHZrNVN+4sdyaN4/2j5tGz4/CobgzUZBUrxPNPt3t2ZjzWC6m2S1HtlKK6W4rqXimq+6WoHpSieliK6lEpqmarHNlyssssJ73McvLLLCfBzHIyzCwnxcxycswsJ8nMcrKsXU6WtUtaw8rJsnY5WdbeIMtEOJtMVn7/e40KIZC2hmjBttUTLdiyeqIF21VPtODcpSdacObSEy04b+mJFpy19EQLzll6okULA03VUnKqaFmgqVpKVhUtCjRVS8mroiWBpmopmVW0INBULSW3ipYDmqrlrFel5FbRWkBTdd3cune8aNMyoK9OKK5asFk1VQs2q6ZqwWbVVC04ZWmqFpyyNFULTlmaqgWnLE3VglOWpmrRekBXtpzsKloR6MqWk19FawJd2XIyrGhVoCtbTo4VrQt0ZcvJsqKVga5sSWtYOVlWtDjQldXKsm9FvnBIv1QUJ8KT98svNJLvMWrh3aiefCGR+83F8pvJUEZv/Zlnh7W9Vl2Y5l5ddNTf2nvFvv14iDGevnC17a4VyZEfzE8fnHDxzd5TUxT4+jMWuAhsGVzO1BdthS9UHPNVjo/SCmeBXGCo7wrTLtj0C93ki6RVqysZODJMcWOntEOmrh811bdbuZbhS/edTxo2k3E39V0rcnwvhjLCSE4bfTn0A2kUG0kf5Eh69uoNLT6r7cejoKNGgvoyzFR/pN+X5n6VvJRt9kYyOvMi1T6xxXDmDRLS2rb4o8AXpopQPl19nZsb6nCGohaNnTAe1+q6YkbqeHZRM26/M2swrv0XWFdtiZ9+N5jq9qZ+6CjBd/HHRe5meSiZF6gC/14PaYnleLZUidsw65pXL4+bdS8cOtJV462WtukiT0aBP5tKW/z4o/hH+vlDsze2wnQ+UQm2/Tw6fzEaN0jTGo3OlUfTld4oGos3oi3+KYxT1zXE8eoZoesMZK1hbl+3vm3n5tt3d+IHonYT30rrZ3ET26RDNfVVn/10Ikz9DlKHGsap3vXNt+atjKe3k5NF462nmKim3X6je6vLox9I63adix81r9E9X7VXencnalirwZCOlGRhbPYWDwNJO3kcKLxOWvLbek257OjpLBzX1u2LuEuPF/25fia57nGRu2yqM9d1CaPAv5XFfBbnruvkT62BE82LWaUnr31XicXSal2V5USyOq2skx7ak486lum8OvGIhjB11XTSrTjrYz1ZVQud/5hXU6hjZ0d8/v2L+PfF75fi6uLyy2+ffhUfLn79rSven12eFRM4j2dt+WCpEk1Evgj9uJD2ZpN4HAxEUiKGwgoHcfHieKMCisu2VzrPVmarLvrFJ5dARrPAE1MrCOW561tRzVJT/nbclc8+6yefFWrM/BLtmW16C3nCj3/BQ5t/+gI2fTJTfaH6lzxDChzgAAc4wAEOcIADHOAABzivHuf7B1wUUSBt0IAGNKABDWhAAxrQgAY0oAFNNs13jwQqGvWIH3CAAxzgAAc4wAEOcIADHOAA5y/cKvGLnExlYEWzQIra+TY2S/yf2izxX5Yace9l8o/TSd+RXiRUl6mdD6U9i9u/IQ5a569jE8R26xVsghhDVrUJYvLq6bqbMDHpdJh0dpl09ph09pl0Dph0Dpl0jph0VnYX2EiIa0SbXEPa5BrTJtegNrlGtck1rE2ucW1yDWyTa2S3uUZ2m22u5hrZba6R3dYa2cU37VuRWn+bvg1kyBZafyu+DWTIvF9/u70NZMicX39LvQ1kyHzfYNu8TXSYxjG9jG2wGd4mOkxDmV7DNtjibhMdptFML2AbbFy3yTzINJ7p1WuD7eg20WEaz/TStf4mcysyG2wrt4kO2TwbbB23iQ6Z7htsD7eJDpnuG2wBt4kOme6bbPO2kRDXiKZXsE02b9tIiGtQ04vYJluybSTENa7pdWyTjdY2mhm5Rja9lG2yfdpGQlwjm17NsCnaq9gUDWGEEUYYYYQRRhhhhBFGGGGEEUYY4f+l8Lzp38kgcGz50VL/o8pstrAp/rM7wab4Twc2xdc6sCk+NsXXOLAp/p8PbIr/5wOb4mse2BQfm+K/eGBTfOAABzjAAQ5wgAMc4AAHOMABzmvYUhI0oAENaEADGtCABjSgAQ1oXg/N/5utLIEDHOAABzjAAQ5wgAMc4ABnfb+/YFP8d85EeqHje64MQ2yJ/7+1Jb4f3Iqz4dAZONIbzJ82wq92C/z07D9Fnv/78u+Lfz6pp395+kfft+fqn+No4v7yf/8BWwdf0g=="
               },
               {
                  "name" : "annual_peak_electric_demand",
                  "units" : "kW",
                  "value" : 210.10083
               },
               {
                  "name" : "first_year_capital_cost",
                  "units" : "$",
                  "value" : 0
               },
               {
                  "name" : "annual_utility_cost",
                  "units" : "$",
                  "value" : 0
               },
               {
                  "name" : "total_lifecycle_cost",
                  "units" : "$",
                  "value" : 0
               }
            ],
            "step_warnings" : []
         }
      }
   ],
   "updated_at" : "20170710T185907Z",
   "weather_file" : "USA_CO_Denver.Intl.AP.725650_TMY3.epw"
}
