{
   "completed_at" : "20170710T193052Z",
   "completed_status" : "Success",
   "created_at" : "2017-07-10 19:26:12 +0000",
   "current_step" : 5,
   "description" : "",
   "eplusout_err" : "Program Version,EnergyPlus, Version 8.7.0-78a111df4a, YMD=2017.07.10 19:27,IDD_Version 8.7.0\n   ************* IDF Context for following error/warning message:\n   ************* Note -- lines truncated at 300 characters, if necessary...\n   *************      5 Building,\n   ************* indicated Name=NECB 2011-MidriseApartment-NECB HDD Method-CAN_PQ_Riviere.du.Loup.717150_CWEC.epw created: 2017-07-10 19:26:19 +0000\n   ************* Only last 1 lines before error line shown.....\n   *************      6   NECB 2011-MidriseApartment-NECB HDD Method-CAN_PQ_Riviere.du.Loup.717150_CWEC.epw created: 2017-07-10 19:26:19 +0000, !- Name\n   ** Warning ** IP: IDF line~6 Alpha Argument length exceeds maximum, will be truncated=  NECB 2011-MidriseApartment-NECB HDD Method-CAN_PQ_Riviere.du.Loup.717150_CWEC.epw created: 2017-07-10 19:26:19 +000\n   **   ~~~   ** Will be processed as Alpha=NECB 2011-MIDRISEAPARTMENT-NECB HDD METHOD-CAN_PQ_RIVIERE.DU.LOUP.717150_CWEC.EPW CREATED: 2017-07-10 19:26:19 +0000\n   ************* Beginning Zone Sizing Calculations\n   ** Warning ** ProcessScheduleInput: Schedule:Day:Interval=\"ECONOMIZER MAX OA FRACTION 100 PCT DEFAULT\", Blank Schedule Type Limits Name input -- will not be validated.\n   ** Warning ** ProcessScheduleInput: Schedule:Day:Interval=\"SCHEDULE DAY 1\", Blank Schedule Type Limits Name input -- will not be validated.\n   ** Warning ** ProcessScheduleInput: Schedule:Day:Interval=\"SCHEDULE DAY 10\", Blank Schedule Type Limits Name input -- will not be validated.\n   ** Warning ** ProcessScheduleInput: Schedule:Day:Interval=\"SCHEDULE DAY 11\", Blank Schedule Type Limits Name input -- will not be validated.\n   ** Warning ** ProcessScheduleInput: Schedule:Day:Interval=\"SCHEDULE DAY 12\", Blank Schedule Type Limits Name input -- will not be validated.\n   ** Warning ** ProcessScheduleInput: Schedule:Day:Interval=\"SCHEDULE DAY 13\", Blank Schedule Type Limits Name input -- will not be validated.\n   ** Warning ** ProcessScheduleInput: Schedule:Day:Interval=\"SCHEDULE DAY 14\", Blank Schedule Type Limits Name input -- will not be validated.\n   ** Warning ** ProcessScheduleInput: Schedule:Day:Interval=\"SCHEDULE DAY 15\", Blank Schedule Type Limits Name input -- will not be validated.\n   ** Warning ** ProcessScheduleInput: Schedule:Day:Interval=\"SCHEDULE DAY 16\", Blank Schedule Type Limits Name input -- will not be validated.\n   ** Warning ** ProcessScheduleInput: Schedule:Day:Interval=\"SCHEDULE DAY 17\", Blank Schedule Type Limits Name input -- will not be validated.\n   ** Warning ** ProcessScheduleInput: Schedule:Day:Interval=\"SCHEDULE DAY 18\", Blank Schedule Type Limits Name input -- will not be validated.\n   ** Warning ** ProcessScheduleInput: Schedule:Day:Interval=\"SCHEDULE DAY 19\", Blank Schedule Type Limits Name input -- will not be validated.\n   ** Warning ** ProcessScheduleInput: Schedule:Day:Interval=\"SCHEDULE DAY 2\", Blank Schedule Type Limits Name input -- will not be validated.\n   ** Warning ** ProcessScheduleInput: Schedule:Day:Interval=\"SCHEDULE DAY 20\", Blank Schedule Type Limits Name input -- will not be validated.\n   ** Warning ** ProcessScheduleInput: Schedule:Day:Interval=\"SCHEDULE DAY 21\", Blank Schedule Type Limits Name input -- will not be validated.\n   ** Warning ** ProcessScheduleInput: Schedule:Day:Interval=\"SCHEDULE DAY 22\", Blank Schedule Type Limits Name input -- will not be validated.\n   ** Warning ** ProcessScheduleInput: Schedule:Day:Interval=\"SCHEDULE DAY 23\", Blank Schedule Type Limits Name input -- will not be validated.\n   ** Warning ** ProcessScheduleInput: Schedule:Day:Interval=\"SCHEDULE DAY 24\", Blank Schedule Type Limits Name input -- will not be validated.\n   ** Warning ** ProcessScheduleInput: Schedule:Day:Interval=\"SCHEDULE DAY 25\", Blank Schedule Type Limits Name input -- will not be validated.\n   ** Warning ** ProcessScheduleInput: Schedule:Day:Interval=\"SCHEDULE DAY 26\", Blank Schedule Type Limits Name input -- will not be validated.\n   ** Warning ** ProcessScheduleInput: Schedule:Day:Interval=\"SCHEDULE DAY 27\", Blank Schedule Type Limits Name input -- will not be validated.\n   ** Warning ** ProcessScheduleInput: Schedule:Day:Interval=\"SCHEDULE DAY 28\", Blank Schedule Type Limits Name input -- will not be validated.\n   ** Warning ** ProcessScheduleInput: Schedule:Day:Interval=\"SCHEDULE DAY 29\", Blank Schedule Type Limits Name input -- will not be validated.\n   ** Warning ** ProcessScheduleInput: Schedule:Day:Interval=\"SCHEDULE DAY 30\", Blank Schedule Type Limits Name input -- will not be validated.\n   ** Warning ** ProcessScheduleInput: Schedule:Day:Interval=\"SCHEDULE DAY 31\", Blank Schedule Type Limits Name input -- will not be validated.\n   ** Warning ** ProcessScheduleInput: Schedule:Day:Interval=\"SCHEDULE DAY 32\", Blank Schedule Type Limits Name input -- will not be validated.\n   ** Warning ** ProcessScheduleInput: Schedule:Day:Interval=\"SCHEDULE DAY 33\", Blank Schedule Type Limits Name input -- will not be validated.\n   ** Warning ** ProcessScheduleInput: Schedule:Day:Interval=\"SCHEDULE DAY 34\", Blank Schedule Type Limits Name input -- will not be validated.\n   ** Warning ** ProcessScheduleInput: Schedule:Day:Interval=\"SCHEDULE DAY 35\", Blank Schedule Type Limits Name input -- will not be validated.\n   ** Warning ** ProcessScheduleInput: Schedule:Day:Interval=\"SCHEDULE DAY 36\", Blank Schedule Type Limits Name input -- will not be validated.\n   ** Warning ** ProcessScheduleInput: Schedule:Day:Interval=\"SCHEDULE DAY 37\", Blank Schedule Type Limits Name input -- will not be validated.\n   ** Warning ** ProcessScheduleInput: Schedule:Day:Interval=\"SCHEDULE DAY 38\", Blank Schedule Type Limits Name input -- will not be validated.\n   ** Warning ** ProcessScheduleInput: Schedule:Day:Interval=\"SCHEDULE DAY 39\", Blank Schedule Type Limits Name input -- will not be validated.\n   ** Warning ** ProcessScheduleInput: Schedule:Day:Interval=\"SCHEDULE DAY 40\", Blank Schedule Type Limits Name input -- will not be validated.\n   ** Warning ** ProcessScheduleInput: Schedule:Day:Interval=\"SCHEDULE DAY 41\", Blank Schedule Type Limits Name input -- will not be validated.\n   ** Warning ** ProcessScheduleInput: Schedule:Day:Interval=\"SCHEDULE DAY 42\", Blank Schedule Type Limits Name input -- will not be validated.\n   ** Warning ** ProcessScheduleInput: Schedule:Day:Interval=\"SCHEDULE DAY 43\", Blank Schedule Type Limits Name input -- will not be validated.\n   ** Warning ** ProcessScheduleInput: Schedule:Day:Interval=\"SCHEDULE DAY 44\", Blank Schedule Type Limits Name input -- will not be validated.\n   ** Warning ** ProcessScheduleInput: Schedule:Day:Interval=\"SCHEDULE DAY 45\", Blank Schedule Type Limits Name input -- will not be validated.\n   ** Warning ** ProcessScheduleInput: Schedule:Day:Interval=\"SCHEDULE DAY 46\", Blank Schedule Type Limits Name input -- will not be validated.\n   ** Warning ** ProcessScheduleInput: Schedule:Day:Interval=\"SCHEDULE DAY 47\", Blank Schedule Type Limits Name input -- will not be validated.\n   ** Warning ** ProcessScheduleInput: Schedule:Day:Interval=\"SCHEDULE DAY 48\", Blank Schedule Type Limits Name input -- will not be validated.\n   ** Warning ** ProcessScheduleInput: Schedule:Day:Interval=\"SCHEDULE DAY 49\", Blank Schedule Type Limits Name input -- will not be validated.\n   ** Warning ** ProcessScheduleInput: Schedule:Day:Interval=\"SCHEDULE DAY 50\", Blank Schedule Type Limits Name input -- will not be validated.\n   ** Warning ** ProcessScheduleInput: Schedule:Day:Interval=\"SCHEDULE DAY 51\", Blank Schedule Type Limits Name input -- will not be validated.\n   ** Warning ** ProcessScheduleInput: Schedule:Day:Interval=\"SCHEDULE DAY 52\", Blank Schedule Type Limits Name input -- will not be validated.\n   ** Warning ** ProcessScheduleInput: Schedule:Day:Interval=\"SCHEDULE DAY 53\", Blank Schedule Type Limits Name input -- will not be validated.\n   ** Warning ** ProcessScheduleInput: Schedule:Day:Interval=\"SCHEDULE DAY 54\", Blank Schedule Type Limits Name input -- will not be validated.\n   ** Warning ** ProcessScheduleInput: Schedule:Day:Interval=\"SCHEDULE DAY 55\", Blank Schedule Type Limits Name input -- will not be validated.\n   ** Warning ** ProcessScheduleInput: Schedule:Day:Interval=\"SCHEDULE DAY 56\", Blank Schedule Type Limits Name input -- will not be validated.\n   ** Warning ** ProcessScheduleInput: Schedule:Day:Interval=\"SCHEDULE DAY 57\", Blank Schedule Type Limits Name input -- will not be validated.\n   ** Warning ** ProcessScheduleInput: Schedule:Day:Interval=\"SCHEDULE DAY 58\", Blank Schedule Type Limits Name input -- will not be validated.\n   ** Warning ** ProcessScheduleInput: Schedule:Day:Interval=\"SCHEDULE DAY 59\", Blank Schedule Type Limits Name input -- will not be validated.\n   ** Warning ** ProcessScheduleInput: Schedule:Day:Interval=\"SCHEDULE DAY 6\", Blank Schedule Type Limits Name input -- will not be validated.\n   ** Warning ** ProcessScheduleInput: Schedule:Day:Interval=\"SCHEDULE DAY 60\", Blank Schedule Type Limits Name input -- will not be validated.\n   ** Warning ** ProcessScheduleInput: Schedule:Day:Interval=\"SCHEDULE DAY 61\", Blank Schedule Type Limits Name input -- will not be validated.\n   ** Warning ** ProcessScheduleInput: Schedule:Day:Interval=\"SCHEDULE DAY 62\", Blank Schedule Type Limits Name input -- will not be validated.\n   ** Warning ** ProcessScheduleInput: Schedule:Day:Interval=\"SCHEDULE DAY 63\", Blank Schedule Type Limits Name input -- will not be validated.\n   ** Warning ** ProcessScheduleInput: Schedule:Day:Interval=\"SCHEDULE DAY 64\", Blank Schedule Type Limits Name input -- will not be validated.\n   ** Warning ** ProcessScheduleInput: Schedule:Day:Interval=\"SCHEDULE DAY 65\", Blank Schedule Type Limits Name input -- will not be validated.\n   ** Warning ** ProcessScheduleInput: Schedule:Day:Interval=\"SCHEDULE DAY 66\", Blank Schedule Type Limits Name input -- will not be validated.\n   ** Warning ** ProcessScheduleInput: Schedule:Day:Interval=\"SCHEDULE DAY 67\", Blank Schedule Type Limits Name input -- will not be validated.\n   ** Warning ** ProcessScheduleInput: Schedule:Day:Interval=\"SCHEDULE DAY 68\", Blank Schedule Type Limits Name input -- will not be validated.\n   ** Warning ** ProcessScheduleInput: Schedule:Day:Interval=\"SCHEDULE DAY 69\", Blank Schedule Type Limits Name input -- will not be validated.\n   ** Warning ** ProcessScheduleInput: Schedule:Day:Interval=\"SCHEDULE DAY 7\", Blank Schedule Type Limits Name input -- will not be validated.\n   ** Warning ** ProcessScheduleInput: Schedule:Day:Interval=\"SCHEDULE DAY 70\", Blank Schedule Type Limits Name input -- will not be validated.\n   ** Warning ** ProcessScheduleInput: Schedule:Day:Interval=\"SCHEDULE DAY 71\", Blank Schedule Type Limits Name input -- will not be validated.\n   ** Warning ** ProcessScheduleInput: Schedule:Day:Interval=\"SCHEDULE DAY 72\", Blank Schedule Type Limits Name input -- will not be validated.\n   ** Warning ** ProcessScheduleInput: Schedule:Day:Interval=\"SCHEDULE DAY 73\", Blank Schedule Type Limits Name input -- will not be validated.\n   ** Warning ** ProcessScheduleInput: Schedule:Day:Interval=\"SCHEDULE DAY 74\", Blank Schedule Type Limits Name input -- will not be validated.\n   ** Warning ** ProcessScheduleInput: Schedule:Day:Interval=\"SCHEDULE DAY 75\", Blank Schedule Type Limits Name input -- will not be validated.\n   ** Warning ** ProcessScheduleInput: Schedule:Day:Interval=\"SCHEDULE DAY 76\", Blank Schedule Type Limits Name input -- will not be validated.\n   ** Warning ** ProcessScheduleInput: Schedule:Day:Interval=\"SCHEDULE DAY 77\", Blank Schedule Type Limits Name input -- will not be validated.\n   ** Warning ** ProcessScheduleInput: Schedule:Day:Interval=\"SCHEDULE DAY 78\", Blank Schedule Type Limits Name input -- will not be validated.\n   ** Warning ** ProcessScheduleInput: Schedule:Day:Interval=\"SCHEDULE DAY 79\", Blank Schedule Type Limits Name input -- will not be validated.\n   ** Warning ** ProcessScheduleInput: Schedule:Day:Interval=\"SCHEDULE DAY 8\", Blank Schedule Type Limits Name input -- will not be validated.\n   ** Warning ** ProcessScheduleInput: Schedule:Day:Interval=\"SCHEDULE DAY 9\", Blank Schedule Type Limits Name input -- will not be validated.\n   ** Warning ** ProcessScheduleInput: Schedule:Year=\"ECONOMIZER MAX OA FRACTION 100 PCT\", Blank Schedule Type Limits Name input -- will not be validated.\n   ** Warning ** ProcessScheduleInput: Schedule:Year=\"SCHEDULE RULESET 10\", Blank Schedule Type Limits Name input -- will not be validated.\n   ** Warning ** ProcessScheduleInput: Schedule:Year=\"SCHEDULE RULESET 11\", Blank Schedule Type Limits Name input -- will not be validated.\n   ** Warning ** ProcessScheduleInput: Schedule:Year=\"SCHEDULE RULESET 12\", Blank Schedule Type Limits Name input -- will not be validated.\n   ** Warning ** ProcessScheduleInput: Schedule:Year=\"SCHEDULE RULESET 13\", Blank Schedule Type Limits Name input -- will not be validated.\n   ** Warning ** ProcessScheduleInput: Schedule:Year=\"SCHEDULE RULESET 14\", Blank Schedule Type Limits Name input -- will not be validated.\n   ** Warning ** ProcessScheduleInput: Schedule:Year=\"SCHEDULE RULESET 15\", Blank Schedule Type Limits Name input -- will not be validated.\n   ** Warning ** ProcessScheduleInput: Schedule:Year=\"SCHEDULE RULESET 16\", Blank Schedule Type Limits Name input -- will not be validated.\n   ** Warning ** ProcessScheduleInput: Schedule:Year=\"SCHEDULE RULESET 17\", Blank Schedule Type Limits Name input -- will not be validated.\n   ** Warning ** ProcessScheduleInput: Schedule:Year=\"SCHEDULE RULESET 18\", Blank Schedule Type Limits Name input -- will not be validated.\n   ** Warning ** ProcessScheduleInput: Schedule:Year=\"SCHEDULE RULESET 19\", Blank Schedule Type Limits Name input -- will not be validated.\n   ** Warning ** ProcessScheduleInput: Schedule:Year=\"SCHEDULE RULESET 20\", Blank Schedule Type Limits Name input -- will not be validated.\n   ** Warning ** ProcessScheduleInput: Schedule:Year=\"SCHEDULE RULESET 21\", Blank Schedule Type Limits Name input -- will not be validated.\n   ** Warning ** ProcessScheduleInput: Schedule:Year=\"SCHEDULE RULESET 22\", Blank Schedule Type Limits Name input -- will not be validated.\n   ** Warning ** ProcessScheduleInput: Schedule:Year=\"SCHEDULE RULESET 23\", Blank Schedule Type Limits Name input -- will not be validated.\n   ** Warning ** ProcessScheduleInput: Schedule:Year=\"SCHEDULE RULESET 24\", Blank Schedule Type Limits Name input -- will not be validated.\n   ** Warning ** ProcessScheduleInput: Schedule:Year=\"SCHEDULE RULESET 25\", Blank Schedule Type Limits Name input -- will not be validated.\n   ** Warning ** ProcessScheduleInput: Schedule:Year=\"SCHEDULE RULESET 26\", Blank Schedule Type Limits Name input -- will not be validated.\n   ** Warning ** ProcessScheduleInput: Schedule:Year=\"SCHEDULE RULESET 27\", Blank Schedule Type Limits Name input -- will not be validated.\n   ** Warning ** ProcessScheduleInput: Schedule:Year=\"SCHEDULE RULESET 28\", Blank Schedule Type Limits Name input -- will not be validated.\n   ** Warning ** ProcessScheduleInput: Schedule:Year=\"SCHEDULE RULESET 29\", Blank Schedule Type Limits Name input -- will not be validated.\n   ** Warning ** ProcessScheduleInput: Schedule:Year=\"SCHEDULE RULESET 3\", Blank Schedule Type Limits Name input -- will not be validated.\n   ** Warning ** ProcessScheduleInput: Schedule:Year=\"SCHEDULE RULESET 30\", Blank Schedule Type Limits Name input -- will not be validated.\n   ** Warning ** ProcessScheduleInput: Schedule:Year=\"SCHEDULE RULESET 31\", Blank Schedule Type Limits Name input -- will not be validated.\n   ** Warning ** ProcessScheduleInput: Schedule:Year=\"SCHEDULE RULESET 32\", Blank Schedule Type Limits Name input -- will not be validated.\n   ** Warning ** ProcessScheduleInput: Schedule:Year=\"SCHEDULE RULESET 33\", Blank Schedule Type Limits Name input -- will not be validated.\n   ** Warning ** ProcessScheduleInput: Schedule:Year=\"SCHEDULE RULESET 34\", Blank Schedule Type Limits Name input -- will not be validated.\n   ** Warning ** ProcessScheduleInput: Schedule:Year=\"SCHEDULE RULESET 35\", Blank Schedule Type Limits Name input -- will not be validated.\n   ** Warning ** ProcessScheduleInput: Schedule:Year=\"SCHEDULE RULESET 36\", Blank Schedule Type Limits Name input -- will not be validated.\n   ** Warning ** ProcessScheduleInput: Schedule:Year=\"SCHEDULE RULESET 37\", Blank Schedule Type Limits Name input -- will not be validated.\n   ** Warning ** ProcessScheduleInput: Schedule:Year=\"SCHEDULE RULESET 38\", Blank Schedule Type Limits Name input -- will not be validated.\n   ** Warning ** ProcessScheduleInput: Schedule:Year=\"SCHEDULE RULESET 39\", Blank Schedule Type Limits Name input -- will not be validated.\n   ** Warning ** ProcessScheduleInput: Schedule:Year=\"SCHEDULE RULESET 4\", Blank Schedule Type Limits Name input -- will not be validated.\n   ** Warning ** ProcessScheduleInput: Schedule:Year=\"SCHEDULE RULESET 40\", Blank Schedule Type Limits Name input -- will not be validated.\n   ** Warning ** ProcessScheduleInput: Schedule:Year=\"SCHEDULE RULESET 41\", Blank Schedule Type Limits Name input -- will not be validated.\n   ** Warning ** ProcessScheduleInput: Schedule:Year=\"SCHEDULE RULESET 42\", Blank Schedule Type Limits Name input -- will not be validated.\n   ** Warning ** ProcessScheduleInput: Schedule:Year=\"SCHEDULE RULESET 43\", Blank Schedule Type Limits Name input -- will not be validated.\n   ** Warning ** ProcessScheduleInput: Schedule:Year=\"SCHEDULE RULESET 44\", Blank Schedule Type Limits Name input -- will not be validated.\n   ** Warning ** ProcessScheduleInput: Schedule:Year=\"SCHEDULE RULESET 45\", Blank Schedule Type Limits Name input -- will not be validated.\n   ** Warning ** ProcessScheduleInput: Schedule:Year=\"SCHEDULE RULESET 46\", Blank Schedule Type Limits Name input -- will not be validated.\n   ** Warning ** ProcessScheduleInput: Schedule:Year=\"SCHEDULE RULESET 47\", Blank Schedule Type Limits Name input -- will not be validated.\n   ** Warning ** ProcessScheduleInput: Schedule:Year=\"SCHEDULE RULESET 48\", Blank Schedule Type Limits Name input -- will not be validated.\n   ** Warning ** ProcessScheduleInput: Schedule:Year=\"SCHEDULE RULESET 49\", Blank Schedule Type Limits Name input -- will not be validated.\n   ** Warning ** ProcessScheduleInput: Schedule:Year=\"SCHEDULE RULESET 5\", Blank Schedule Type Limits Name input -- will not be validated.\n   ** Warning ** ProcessScheduleInput: Schedule:Year=\"SCHEDULE RULESET 50\", Blank Schedule Type Limits Name input -- will not be validated.\n   ** Warning ** ProcessScheduleInput: Schedule:Year=\"SCHEDULE RULESET 51\", Blank Schedule Type Limits Name input -- will not be validated.\n   ** Warning ** ProcessScheduleInput: Schedule:Year=\"SCHEDULE RULESET 52\", Blank Schedule Type Limits Name input -- will not be validated.\n   ** Warning ** ProcessScheduleInput: Schedule:Year=\"SCHEDULE RULESET 53\", Blank Schedule Type Limits Name input -- will not be validated.\n   ** Warning ** ProcessScheduleInput: Schedule:Year=\"SCHEDULE RULESET 54\", Blank Schedule Type Limits Name input -- will not be validated.\n   ** Warning ** ProcessScheduleInput: Schedule:Year=\"SCHEDULE RULESET 55\", Blank Schedule Type Limits Name input -- will not be validated.\n   ** Warning ** ProcessScheduleInput: Schedule:Year=\"SCHEDULE RULESET 56\", Blank Schedule Type Limits Name input -- will not be validated.\n   ** Warning ** ProcessScheduleInput: Schedule:Year=\"SCHEDULE RULESET 57\", Blank Schedule Type Limits Name input -- will not be validated.\n   ** Warning ** ProcessScheduleInput: Schedule:Year=\"SCHEDULE RULESET 58\", Blank Schedule Type Limits Name input -- will not be validated.\n   ** Warning ** ProcessScheduleInput: Schedule:Year=\"SCHEDULE RULESET 59\", Blank Schedule Type Limits Name input -- will not be validated.\n   ** Warning ** ProcessScheduleInput: Schedule:Year=\"SCHEDULE RULESET 6\", Blank Schedule Type Limits Name input -- will not be validated.\n   ** Warning ** ProcessScheduleInput: Schedule:Year=\"SCHEDULE RULESET 60\", Blank Schedule Type Limits Name input -- will not be validated.\n   ** Warning ** ProcessScheduleInput: Schedule:Year=\"SCHEDULE RULESET 61\", Blank Schedule Type Limits Name input -- will not be validated.\n   ** Warning ** ProcessScheduleInput: Schedule:Year=\"SCHEDULE RULESET 62\", Blank Schedule Type Limits Name input -- will not be validated.\n   ** Warning ** ProcessScheduleInput: Schedule:Year=\"SCHEDULE RULESET 63\", Blank Schedule Type Limits Name input -- will not be validated.\n   ** Warning ** ProcessScheduleInput: Schedule:Year=\"SCHEDULE RULESET 64\", Blank Schedule Type Limits Name input -- will not be validated.\n   ** Warning ** ProcessScheduleInput: Schedule:Year=\"SCHEDULE RULESET 65\", Blank Schedule Type Limits Name input -- will not be validated.\n   ** Warning ** ProcessScheduleInput: Schedule:Year=\"SCHEDULE RULESET 66\", Blank Schedule Type Limits Name input -- will not be validated.\n   ** Warning ** ProcessScheduleInput: Schedule:Year=\"SCHEDULE RULESET 67\", Blank Schedule Type Limits Name input -- will not be validated.\n   ** Warning ** ProcessScheduleInput: Schedule:Year=\"SCHEDULE RULESET 68\", Blank Schedule Type Limits Name input -- will not be validated.\n   ** Warning ** ProcessScheduleInput: Schedule:Year=\"SCHEDULE RULESET 69\", Blank Schedule Type Limits Name input -- will not be validated.\n   ** Warning ** ProcessScheduleInput: Schedule:Year=\"SCHEDULE RULESET 7\", Blank Schedule Type Limits Name input -- will not be validated.\n   ** Warning ** ProcessScheduleInput: Schedule:Year=\"SCHEDULE RULESET 70\", Blank Schedule Type Limits Name input -- will not be validated.\n   ** Warning ** ProcessScheduleInput: Schedule:Year=\"SCHEDULE RULESET 71\", Blank Schedule Type Limits Name input -- will not be validated.\n   ** Warning ** ProcessScheduleInput: Schedule:Year=\"SCHEDULE RULESET 72\", Blank Schedule Type Limits Name input -- will not be validated.\n   ** Warning ** ProcessScheduleInput: Schedule:Year=\"SCHEDULE RULESET 73\", Blank Schedule Type Limits Name input -- will not be validated.\n   ** Warning ** ProcessScheduleInput: Schedule:Year=\"SCHEDULE RULESET 74\", Blank Schedule Type Limits Name input -- will not be validated.\n   ** Warning ** ProcessScheduleInput: Schedule:Year=\"SCHEDULE RULESET 8\", Blank Schedule Type Limits Name input -- will not be validated.\n   ** Warning ** ProcessScheduleInput: Schedule:Year=\"SCHEDULE RULESET 9\", Blank Schedule Type Limits Name input -- will not be validated.\n   ** Warning ** ProcessScheduleInput: Schedule:Constant=\"ALWAYS OFF DISCRETE\", Blank Schedule Type Limits Name input -- will not be validated.\n   ** Warning ** ProcessScheduleInput: Schedule:Constant=\"ALWAYS ON CONTINUOUS\", Blank Schedule Type Limits Name input -- will not be validated.\n   ** Warning ** CheckUsedConstructions: There are 26 nominally unused constructions in input.\n   **   ~~~   ** For explicit details on each unused construction, use Output:Diagnostics,DisplayExtraWarnings;\n   ************* Beginning System Sizing Calculations\n   ** Warning ** GetDXCoils: Coil:Cooling:DX:SingleSpeed=\"COIL COOLING DX SINGLE SPEED 24 6KBTU/HR 11.0EER\", invalid\n   **   ~~~   ** ...Part Load Fraction Correlation Curve Name = DXCOOL-NECB2011-REF-COOLPLFFPLR 16 has out of range value.\n   **   ~~~   ** ...Curve maximum must be <= 1.0, curve max at PLR = 0.99 is 1.015\n   **   ~~~   ** ...Setting curve maximum to 1.0 and simulation continues.\n   ** Warning ** GetDXCoils: Coil:Cooling:DX:SingleSpeed=\"COIL COOLING DX SINGLE SPEED 22 5KBTU/HR 11.0EER\", invalid\n   **   ~~~   ** ...Part Load Fraction Correlation Curve Name = DXCOOL-NECB2011-REF-COOLPLFFPLR 14 has out of range value.\n   **   ~~~   ** ...Curve maximum must be <= 1.0, curve max at PLR = 0.99 is 1.015\n   **   ~~~   ** ...Setting curve maximum to 1.0 and simulation continues.\n   ** Warning ** GetDXCoils: Coil:Cooling:DX:SingleSpeed=\"COIL COOLING DX SINGLE SPEED 21 5KBTU/HR 11.0EER\", invalid\n   **   ~~~   ** ...Part Load Fraction Correlation Curve Name = DXCOOL-NECB2011-REF-COOLPLFFPLR 13 has out of range value.\n   **   ~~~   ** ...Curve maximum must be <= 1.0, curve max at PLR = 0.99 is 1.015\n   **   ~~~   ** ...Setting curve maximum to 1.0 and simulation continues.\n   ** Warning ** GetDXCoils: Coil:Cooling:DX:SingleSpeed=\"COIL COOLING DX SINGLE SPEED 23 9KBTU/HR 10.6EER\", invalid\n   **   ~~~   ** ...Part Load Fraction Correlation Curve Name = DXCOOL-NECB2011-REF-COOLPLFFPLR 15 has out of range value.\n   **   ~~~   ** ...Curve maximum must be <= 1.0, curve max at PLR = 0.99 is 1.015\n   **   ~~~   ** ...Setting curve maximum to 1.0 and simulation continues.\n   ** Warning ** GetDXCoils: Coil:Cooling:DX:SingleSpeed=\"COIL COOLING DX SINGLE SPEED 20 8KBTU/HR 10.7EER\", invalid\n   **   ~~~   ** ...Part Load Fraction Correlation Curve Name = DXCOOL-NECB2011-REF-COOLPLFFPLR 12 has out of range value.\n   **   ~~~   ** ...Curve maximum must be <= 1.0, curve max at PLR = 0.99 is 1.015\n   **   ~~~   ** ...Setting curve maximum to 1.0 and simulation continues.\n   ** Warning ** GetDXCoils: Coil:Cooling:DX:SingleSpeed=\"COIL COOLING DX SINGLE SPEED 25 6KBTU/HR 11.0EER\", invalid\n   **   ~~~   ** ...Part Load Fraction Correlation Curve Name = DXCOOL-NECB2011-REF-COOLPLFFPLR 17 has out of range value.\n   **   ~~~   ** ...Curve maximum must be <= 1.0, curve max at PLR = 0.99 is 1.015\n   **   ~~~   ** ...Setting curve maximum to 1.0 and simulation continues.\n   ** Warning ** GetDXCoils: Coil:Cooling:DX:SingleSpeed=\"COIL COOLING DX SINGLE SPEED 26 7KBTU/HR 11.0EER\", invalid\n   **   ~~~   ** ...Part Load Fraction Correlation Curve Name = DXCOOL-NECB2011-REF-COOLPLFFPLR 18 has out of range value.\n   **   ~~~   ** ...Curve maximum must be <= 1.0, curve max at PLR = 0.99 is 1.015\n   **   ~~~   ** ...Setting curve maximum to 1.0 and simulation continues.\n   ** Warning ** GetDXCoils: Coil:Cooling:DX:SingleSpeed=\"COIL COOLING DX SINGLE SPEED 27 9KBTU/HR 10.5EER\", invalid\n   **   ~~~   ** ...Part Load Fraction Correlation Curve Name = DXCOOL-NECB2011-REF-COOLPLFFPLR 19 has out of range value.\n   **   ~~~   ** ...Curve maximum must be <= 1.0, curve max at PLR = 0.99 is 1.015\n   **   ~~~   ** ...Setting curve maximum to 1.0 and simulation continues.\n   ** Warning ** GetDXCoils: Coil:Cooling:DX:SingleSpeed=\"COIL COOLING DX SINGLE SPEED 6 6KBTU/HR 11.0EER\", invalid\n   **   ~~~   ** ...Part Load Fraction Correlation Curve Name = DXCOOL-NECB2011-REF-COOLPLFFPLR 24 has out of range value.\n   **   ~~~   ** ...Curve maximum must be <= 1.0, curve max at PLR = 0.99 is 1.015\n   **   ~~~   ** ...Setting curve maximum to 1.0 and simulation continues.\n   ** Warning ** GetDXCoils: Coil:Cooling:DX:SingleSpeed=\"COIL COOLING DX SINGLE SPEED 4 5KBTU/HR 11.0EER\", invalid\n   **   ~~~   ** ...Part Load Fraction Correlation Curve Name = DXCOOL-NECB2011-REF-COOLPLFFPLR 22 has out of range value.\n   **   ~~~   ** ...Curve maximum must be <= 1.0, curve max at PLR = 0.99 is 1.015\n   **   ~~~   ** ...Setting curve maximum to 1.0 and simulation continues.\n   ** Warning ** GetDXCoils: Coil:Cooling:DX:SingleSpeed=\"COIL COOLING DX SINGLE SPEED 3 5KBTU/HR 11.0EER\", invalid\n   **   ~~~   ** ...Part Load Fraction Correlation Curve Name = DXCOOL-NECB2011-REF-COOLPLFFPLR 21 has out of range value.\n   **   ~~~   ** ...Curve maximum must be <= 1.0, curve max at PLR = 0.99 is 1.015\n   **   ~~~   ** ...Setting curve maximum to 1.0 and simulation continues.\n   ** Warning ** GetDXCoils: Coil:Cooling:DX:SingleSpeed=\"COIL COOLING DX SINGLE SPEED 2 10KBTU/HR 10.4EER\", invalid\n   **   ~~~   ** ...Part Load Fraction Correlation Curve Name = DXCOOL-NECB2011-REF-COOLPLFFPLR 11 has out of range value.\n   **   ~~~   ** ...Curve maximum must be <= 1.0, curve max at PLR = 0.99 is 1.015\n   **   ~~~   ** ...Setting curve maximum to 1.0 and simulation continues.\n   ** Warning ** GetDXCoils: Coil:Cooling:DX:SingleSpeed=\"COIL COOLING DX SINGLE SPEED 5 10KBTU/HR 10.5EER\", invalid\n   **   ~~~   ** ...Part Load Fraction Correlation Curve Name = DXCOOL-NECB2011-REF-COOLPLFFPLR 23 has out of range value.\n   **   ~~~   ** ...Curve maximum must be <= 1.0, curve max at PLR = 0.99 is 1.015\n   **   ~~~   ** ...Setting curve maximum to 1.0 and simulation continues.\n   ** Warning ** GetDXCoils: Coil:Cooling:DX:SingleSpeed=\"COIL COOLING DX SINGLE SPEED 7 7KBTU/HR 11.0EER\", invalid\n   **   ~~~   ** ...Part Load Fraction Correlation Curve Name = DXCOOL-NECB2011-REF-COOLPLFFPLR 25 has out of range value.\n   **   ~~~   ** ...Curve maximum must be <= 1.0, curve max at PLR = 0.99 is 1.015\n   **   ~~~   ** ...Setting curve maximum to 1.0 and simulation continues.\n   ** Warning ** GetDXCoils: Coil:Cooling:DX:SingleSpeed=\"COIL COOLING DX SINGLE SPEED 9 7KBTU/HR 10.9EER\", invalid\n   **   ~~~   ** ...Part Load Fraction Correlation Curve Name = DXCOOL-NECB2011-REF-COOLPLFFPLR 27 has out of range value.\n   **   ~~~   ** ...Curve maximum must be <= 1.0, curve max at PLR = 0.99 is 1.015\n   **   ~~~   ** ...Setting curve maximum to 1.0 and simulation continues.\n   ** Warning ** GetDXCoils: Coil:Cooling:DX:SingleSpeed=\"COIL COOLING DX SINGLE SPEED 8 10KBTU/HR 10.3EER\", invalid\n   **   ~~~   ** ...Part Load Fraction Correlation Curve Name = DXCOOL-NECB2011-REF-COOLPLFFPLR 26 has out of range value.\n   **   ~~~   ** ...Curve maximum must be <= 1.0, curve max at PLR = 0.99 is 1.015\n   **   ~~~   ** ...Setting curve maximum to 1.0 and simulation continues.\n   ** Warning ** GetDXCoils: Coil:Cooling:DX:SingleSpeed=\"COIL COOLING DX SINGLE SPEED 10 11KBTU/HR 10.2EER\", invalid\n   **   ~~~   ** ...Part Load Fraction Correlation Curve Name = DXCOOL-NECB2011-REF-COOLPLFFPLR 1 has out of range value.\n   **   ~~~   ** ...Curve maximum must be <= 1.0, curve max at PLR = 0.99 is 1.015\n   **   ~~~   ** ...Setting curve maximum to 1.0 and simulation continues.\n   ** Warning ** GetDXCoils: Coil:Cooling:DX:SingleSpeed=\"COIL COOLING DX SINGLE SPEED 15 10KBTU/HR 10.4EER\", invalid\n   **   ~~~   ** ...Part Load Fraction Correlation Curve Name = DXCOOL-NECB2011-REF-COOLPLFFPLR 6 has out of range value.\n   **   ~~~   ** ...Curve maximum must be <= 1.0, curve max at PLR = 0.99 is 1.015\n   **   ~~~   ** ...Setting curve maximum to 1.0 and simulation continues.\n   ** Warning ** GetDXCoils: Coil:Cooling:DX:SingleSpeed=\"COIL COOLING DX SINGLE SPEED 12 9KBTU/HR 10.6EER\", invalid\n   **   ~~~   ** ...Part Load Fraction Correlation Curve Name = DXCOOL-NECB2011-REF-COOLPLFFPLR 3 has out of range value.\n   **   ~~~   ** ...Curve maximum must be <= 1.0, curve max at PLR = 0.99 is 1.015\n   **   ~~~   ** ...Setting curve maximum to 1.0 and simulation continues.\n   ** Warning ** GetDXCoils: Coil:Cooling:DX:SingleSpeed=\"COIL COOLING DX SINGLE SPEED 13 9KBTU/HR 10.6EER\", invalid\n   **   ~~~   ** ...Part Load Fraction Correlation Curve Name = DXCOOL-NECB2011-REF-COOLPLFFPLR 4 has out of range value.\n   **   ~~~   ** ...Curve maximum must be <= 1.0, curve max at PLR = 0.99 is 1.015\n   **   ~~~   ** ...Setting curve maximum to 1.0 and simulation continues.\n   ** Warning ** GetDXCoils: Coil:Cooling:DX:SingleSpeed=\"COIL COOLING DX SINGLE SPEED 14 11KBTU/HR 10.1EER\", invalid\n   **   ~~~   ** ...Part Load Fraction Correlation Curve Name = DXCOOL-NECB2011-REF-COOLPLFFPLR 5 has out of range value.\n   **   ~~~   ** ...Curve maximum must be <= 1.0, curve max at PLR = 0.99 is 1.015\n   **   ~~~   ** ...Setting curve maximum to 1.0 and simulation continues.\n   ** Warning ** GetDXCoils: Coil:Cooling:DX:SingleSpeed=\"COIL COOLING DX SINGLE SPEED 11 11KBTU/HR 10.1EER\", invalid\n   **   ~~~   ** ...Part Load Fraction Correlation Curve Name = DXCOOL-NECB2011-REF-COOLPLFFPLR 2 has out of range value.\n   **   ~~~   ** ...Curve maximum must be <= 1.0, curve max at PLR = 0.99 is 1.015\n   **   ~~~   ** ...Setting curve maximum to 1.0 and simulation continues.\n   ** Warning ** GetDXCoils: Coil:Cooling:DX:SingleSpeed=\"COIL COOLING DX SINGLE SPEED 16 10KBTU/HR 10.4EER\", invalid\n   **   ~~~   ** ...Part Load Fraction Correlation Curve Name = DXCOOL-NECB2011-REF-COOLPLFFPLR 7 has out of range value.\n   **   ~~~   ** ...Curve maximum must be <= 1.0, curve max at PLR = 0.99 is 1.015\n   **   ~~~   ** ...Setting curve maximum to 1.0 and simulation continues.\n   ** Warning ** GetDXCoils: Coil:Cooling:DX:SingleSpeed=\"COIL COOLING DX SINGLE SPEED 19 10KBTU/HR 10.4EER\", invalid\n   **   ~~~   ** ...Part Load Fraction Correlation Curve Name = DXCOOL-NECB2011-REF-COOLPLFFPLR 10 has out of range value.\n   **   ~~~   ** ...Curve maximum must be <= 1.0, curve max at PLR = 0.99 is 1.015\n   **   ~~~   ** ...Setting curve maximum to 1.0 and simulation continues.\n   ** Warning ** GetDXCoils: Coil:Cooling:DX:SingleSpeed=\"COIL COOLING DX SINGLE SPEED 18 12KBTU/HR 10.0EER\", invalid\n   **   ~~~   ** ...Part Load Fraction Correlation Curve Name = DXCOOL-NECB2011-REF-COOLPLFFPLR 9 has out of range value.\n   **   ~~~   ** ...Curve maximum must be <= 1.0, curve max at PLR = 0.99 is 1.015\n   **   ~~~   ** ...Setting curve maximum to 1.0 and simulation continues.\n   ** Warning ** GetDXCoils: Coil:Cooling:DX:SingleSpeed=\"COIL COOLING DX SINGLE SPEED 17 13KBTU/HR 9.8EER\", invalid\n   **   ~~~   ** ...Part Load Fraction Correlation Curve Name = DXCOOL-NECB2011-REF-COOLPLFFPLR 8 has out of range value.\n   **   ~~~   ** ...Curve maximum must be <= 1.0, curve max at PLR = 0.99 is 1.015\n   **   ~~~   ** ...Setting curve maximum to 1.0 and simulation continues.\n   ** Warning ** GetDXCoils: Coil:Cooling:DX:SingleSpeed=\"COIL COOLING DX SINGLE SPEED 1 79KBTU/HR 9.7EER\", invalid\n   **   ~~~   ** ...Part Load Fraction Correlation Curve Name = DXCOOL-NECB2011-REF-COOLPLFFPLR has out of range value.\n   **   ~~~   ** ...Curve maximum must be <= 1.0, curve max at PLR = 0.99 is 1.015\n   **   ~~~   ** ...Setting curve maximum to 1.0 and simulation continues.\n   ** Warning ** GetDXCoils: Coil:Cooling:DX:SingleSpeed=\"COIL COOLING DX SINGLE SPEED 28 18KBTU/HR 14.0SEER\", invalid\n   **   ~~~   ** ...Part Load Fraction Correlation Curve Name = DXCOOL-NECB2011-REF-COOLPLFFPLR 20 has out of range value.\n   **   ~~~   ** ...Curve maximum must be <= 1.0, curve max at PLR = 0.99 is 1.015\n   **   ~~~   ** ...Setting curve maximum to 1.0 and simulation continues.\n   ************* Beginning Plant Sizing Calculations\n   ** Warning ** The Standard Ratings is calculated for Coil:Cooling:DX:SingleSpeed = COIL COOLING DX SINGLE SPEED 24 6KBTU/HR 11.0EER but not at the AHRI test condition due to curve out of bound.\n   **   ~~~   **  Review the Standard Ratings calculations in the Engineering Reference for this coil type. Also, use Output:Diagnostics, DisplayExtraWarnings for further guidance.\n   ** Warning ** The Standard Ratings is calculated for Coil:Cooling:DX:SingleSpeed = COIL COOLING DX SINGLE SPEED 22 5KBTU/HR 11.0EER but not at the AHRI test condition due to curve out of bound.\n   **   ~~~   **  Review the Standard Ratings calculations in the Engineering Reference for this coil type. Also, use Output:Diagnostics, DisplayExtraWarnings for further guidance.\n   ** Warning ** The Standard Ratings is calculated for Coil:Cooling:DX:SingleSpeed = COIL COOLING DX SINGLE SPEED 21 5KBTU/HR 11.0EER but not at the AHRI test condition due to curve out of bound.\n   **   ~~~   **  Review the Standard Ratings calculations in the Engineering Reference for this coil type. Also, use Output:Diagnostics, DisplayExtraWarnings for further guidance.\n   ** Warning ** The Standard Ratings is calculated for Coil:Cooling:DX:SingleSpeed = COIL COOLING DX SINGLE SPEED 23 9KBTU/HR 10.6EER but not at the AHRI test condition due to curve out of bound.\n   **   ~~~   **  Review the Standard Ratings calculations in the Engineering Reference for this coil type. Also, use Output:Diagnostics, DisplayExtraWarnings for further guidance.\n   ** Warning ** The Standard Ratings is calculated for Coil:Cooling:DX:SingleSpeed = COIL COOLING DX SINGLE SPEED 20 8KBTU/HR 10.7EER but not at the AHRI test condition due to curve out of bound.\n   **   ~~~   **  Review the Standard Ratings calculations in the Engineering Reference for this coil type. Also, use Output:Diagnostics, DisplayExtraWarnings for further guidance.\n   ** Warning ** The Standard Ratings is calculated for Coil:Cooling:DX:SingleSpeed = COIL COOLING DX SINGLE SPEED 25 6KBTU/HR 11.0EER but not at the AHRI test condition due to curve out of bound.\n   **   ~~~   **  Review the Standard Ratings calculations in the Engineering Reference for this coil type. Also, use Output:Diagnostics, DisplayExtraWarnings for further guidance.\n   ** Warning ** The Standard Ratings is calculated for Coil:Cooling:DX:SingleSpeed = COIL COOLING DX SINGLE SPEED 26 7KBTU/HR 11.0EER but not at the AHRI test condition due to curve out of bound.\n   **   ~~~   **  Review the Standard Ratings calculations in the Engineering Reference for this coil type. Also, use Output:Diagnostics, DisplayExtraWarnings for further guidance.\n   ** Warning ** The Standard Ratings is calculated for Coil:Cooling:DX:SingleSpeed = COIL COOLING DX SINGLE SPEED 27 9KBTU/HR 10.5EER but not at the AHRI test condition due to curve out of bound.\n   **   ~~~   **  Review the Standard Ratings calculations in the Engineering Reference for this coil type. Also, use Output:Diagnostics, DisplayExtraWarnings for further guidance.\n   ** Warning ** The Standard Ratings is calculated for Coil:Cooling:DX:SingleSpeed = COIL COOLING DX SINGLE SPEED 6 6KBTU/HR 11.0EER but not at the AHRI test condition due to curve out of bound.\n   **   ~~~   **  Review the Standard Ratings calculations in the Engineering Reference for this coil type. Also, use Output:Diagnostics, DisplayExtraWarnings for further guidance.\n   ** Warning ** The Standard Ratings is calculated for Coil:Cooling:DX:SingleSpeed = COIL COOLING DX SINGLE SPEED 4 5KBTU/HR 11.0EER but not at the AHRI test condition due to curve out of bound.\n   **   ~~~   **  Review the Standard Ratings calculations in the Engineering Reference for this coil type. Also, use Output:Diagnostics, DisplayExtraWarnings for further guidance.\n   ** Warning ** The Standard Ratings is calculated for Coil:Cooling:DX:SingleSpeed = COIL COOLING DX SINGLE SPEED 3 5KBTU/HR 11.0EER but not at the AHRI test condition due to curve out of bound.\n   **   ~~~   **  Review the Standard Ratings calculations in the Engineering Reference for this coil type. Also, use Output:Diagnostics, DisplayExtraWarnings for further guidance.\n   ** Warning ** The Standard Ratings is calculated for Coil:Cooling:DX:SingleSpeed = COIL COOLING DX SINGLE SPEED 2 10KBTU/HR 10.4EER but not at the AHRI test condition due to curve out of bound.\n   **   ~~~   **  Review the Standard Ratings calculations in the Engineering Reference for this coil type. Also, use Output:Diagnostics, DisplayExtraWarnings for further guidance.\n   ** Warning ** The Standard Ratings is calculated for Coil:Cooling:DX:SingleSpeed = COIL COOLING DX SINGLE SPEED 5 10KBTU/HR 10.5EER but not at the AHRI test condition due to curve out of bound.\n   **   ~~~   **  Review the Standard Ratings calculations in the Engineering Reference for this coil type. Also, use Output:Diagnostics, DisplayExtraWarnings for further guidance.\n   ** Warning ** The Standard Ratings is calculated for Coil:Cooling:DX:SingleSpeed = COIL COOLING DX SINGLE SPEED 7 7KBTU/HR 11.0EER but not at the AHRI test condition due to curve out of bound.\n   **   ~~~   **  Review the Standard Ratings calculations in the Engineering Reference for this coil type. Also, use Output:Diagnostics, DisplayExtraWarnings for further guidance.\n   ** Warning ** The Standard Ratings is calculated for Coil:Cooling:DX:SingleSpeed = COIL COOLING DX SINGLE SPEED 9 7KBTU/HR 10.9EER but not at the AHRI test condition due to curve out of bound.\n   **   ~~~   **  Review the Standard Ratings calculations in the Engineering Reference for this coil type. Also, use Output:Diagnostics, DisplayExtraWarnings for further guidance.\n   ** Warning ** The Standard Ratings is calculated for Coil:Cooling:DX:SingleSpeed = COIL COOLING DX SINGLE SPEED 8 10KBTU/HR 10.3EER but not at the AHRI test condition due to curve out of bound.\n   **   ~~~   **  Review the Standard Ratings calculations in the Engineering Reference for this coil type. Also, use Output:Diagnostics, DisplayExtraWarnings for further guidance.\n   ** Warning ** The Standard Ratings is calculated for Coil:Cooling:DX:SingleSpeed = COIL COOLING DX SINGLE SPEED 10 11KBTU/HR 10.2EER but not at the AHRI test condition due to curve out of bound.\n   **   ~~~   **  Review the Standard Ratings calculations in the Engineering Reference for this coil type. Also, use Output:Diagnostics, DisplayExtraWarnings for further guidance.\n   ** Warning ** The Standard Ratings is calculated for Coil:Cooling:DX:SingleSpeed = COIL COOLING DX SINGLE SPEED 15 10KBTU/HR 10.4EER but not at the AHRI test condition due to curve out of bound.\n   **   ~~~   **  Review the Standard Ratings calculations in the Engineering Reference for this coil type. Also, use Output:Diagnostics, DisplayExtraWarnings for further guidance.\n   ** Warning ** The Standard Ratings is calculated for Coil:Cooling:DX:SingleSpeed = COIL COOLING DX SINGLE SPEED 12 9KBTU/HR 10.6EER but not at the AHRI test condition due to curve out of bound.\n   **   ~~~   **  Review the Standard Ratings calculations in the Engineering Reference for this coil type. Also, use Output:Diagnostics, DisplayExtraWarnings for further guidance.\n   ** Warning ** The Standard Ratings is calculated for Coil:Cooling:DX:SingleSpeed = COIL COOLING DX SINGLE SPEED 13 9KBTU/HR 10.6EER but not at the AHRI test condition due to curve out of bound.\n   **   ~~~   **  Review the Standard Ratings calculations in the Engineering Reference for this coil type. Also, use Output:Diagnostics, DisplayExtraWarnings for further guidance.\n   ** Warning ** The Standard Ratings is calculated for Coil:Cooling:DX:SingleSpeed = COIL COOLING DX SINGLE SPEED 14 11KBTU/HR 10.1EER but not at the AHRI test condition due to curve out of bound.\n   **   ~~~   **  Review the Standard Ratings calculations in the Engineering Reference for this coil type. Also, use Output:Diagnostics, DisplayExtraWarnings for further guidance.\n   ** Warning ** The Standard Ratings is calculated for Coil:Cooling:DX:SingleSpeed = COIL COOLING DX SINGLE SPEED 11 11KBTU/HR 10.1EER but not at the AHRI test condition due to curve out of bound.\n   **   ~~~   **  Review the Standard Ratings calculations in the Engineering Reference for this coil type. Also, use Output:Diagnostics, DisplayExtraWarnings for further guidance.\n   ** Warning ** The Standard Ratings is calculated for Coil:Cooling:DX:SingleSpeed = COIL COOLING DX SINGLE SPEED 16 10KBTU/HR 10.4EER but not at the AHRI test condition due to curve out of bound.\n   **   ~~~   **  Review the Standard Ratings calculations in the Engineering Reference for this coil type. Also, use Output:Diagnostics, DisplayExtraWarnings for further guidance.\n   ** Warning ** The Standard Ratings is calculated for Coil:Cooling:DX:SingleSpeed = COIL COOLING DX SINGLE SPEED 19 10KBTU/HR 10.4EER but not at the AHRI test condition due to curve out of bound.\n   **   ~~~   **  Review the Standard Ratings calculations in the Engineering Reference for this coil type. Also, use Output:Diagnostics, DisplayExtraWarnings for further guidance.\n   ** Warning ** The Standard Ratings is calculated for Coil:Cooling:DX:SingleSpeed = COIL COOLING DX SINGLE SPEED 18 12KBTU/HR 10.0EER but not at the AHRI test condition due to curve out of bound.\n   **   ~~~   **  Review the Standard Ratings calculations in the Engineering Reference for this coil type. Also, use Output:Diagnostics, DisplayExtraWarnings for further guidance.\n   ** Warning ** The Standard Ratings is calculated for Coil:Cooling:DX:SingleSpeed = COIL COOLING DX SINGLE SPEED 17 13KBTU/HR 9.8EER but not at the AHRI test condition due to curve out of bound.\n   **   ~~~   **  Review the Standard Ratings calculations in the Engineering Reference for this coil type. Also, use Output:Diagnostics, DisplayExtraWarnings for further guidance.\n   ** Warning ** The Standard Ratings is calculated for Coil:Cooling:DX:SingleSpeed = COIL COOLING DX SINGLE SPEED 1 79KBTU/HR 9.7EER but not at the AHRI test condition due to curve out of bound.\n   **   ~~~   **  Review the Standard Ratings calculations in the Engineering Reference for this coil type. Also, use Output:Diagnostics, DisplayExtraWarnings for further guidance.\n   ** Warning ** The Standard Ratings is calculated for Coil:Cooling:DX:SingleSpeed = COIL COOLING DX SINGLE SPEED 28 18KBTU/HR 14.0SEER but not at the AHRI test condition due to curve out of bound.\n   **   ~~~   **  Review the Standard Ratings calculations in the Engineering Reference for this coil type. Also, use Output:Diagnostics, DisplayExtraWarnings for further guidance.\n   ** Warning ** Output:Meter: invalid Name=\"GAS:FACILITY\" - not found.\n   ** Warning ** Output:Meter: invalid Name=\"DISTRICTCOOLING:FACILITY\" - not found.\n   ** Warning ** Output:Meter: invalid Name=\"DISTRICTHEATING:FACILITY\" - not found.\n   ** Warning ** Output:Meter:MeterFileOnly: invalid Name=\"GAS:FACILITY\" - not found.\n   ** Warning ** Output:Meter:MeterFileOnly: invalid Name=\"GAS:FACILITY\" - not found.\n   ** Warning ** Output:Meter:MeterFileOnly requested for \"Electricity:Facility\" (TimeStep), already on \"Output:Meter\". Will report to both eplusout.eso and eplusout.mtr\n   ************* Testing Individual Branch Integrity\n   ************* All Branches passed integrity testing\n   ************* Testing Individual Supply Air Path Integrity\n   ************* All Supply Air Paths passed integrity testing\n   ************* Testing Individual Return Air Path Integrity\n   ************* All Return Air Paths passed integrity testing\n   ************* No node connection errors were found.\n   ************* Beginning Simulation\n   ** Warning ** GetInputEconomicsTariff: UtilityCost:Tariff=\"GASMETRO\" missing meter\n   **   ~~~   ** Meter referenced is not present due to a lack of equipment that uses that energy source/meter:\"GAS:FACILITY\".\n   ** Warning ** CalcDoe2DXCoil: Coil:Cooling:DX:SingleSpeed \"COIL COOLING DX SINGLE SPEED 25 6KBTU/HR 11.0EER\" - Air-cooled condenser inlet dry-bulb temperature below 0 C. Outdoor dry-bulb temperature = -20.63\n   **   ~~~   **  ... Occurrence info = RUN PERIOD 1, 01/01 10:13 - 10:15\n   **   ~~~   ** ... Operation at low ambient temperatures may require special performance curves.\n   ** Warning ** CalcDoe2DXCoil: Coil:Cooling:DX:SingleSpeed \"COIL COOLING DX SINGLE SPEED 25 6KBTU/HR 11.0EER\" - Full load outlet air dry-bulb temperature < 2C. This indicates the possibility of coil frost/freeze. Outlet temperature = -0.98 C.\n   **   ~~~   **  ...Occurrence info = RUN PERIOD 1, 01/01 10:13 - 10:15\n   **   ~~~   ** ... Possible reasons for low outlet air dry-bulb temperatures are: This DX coil\n   **   ~~~   **    1) may have a low inlet air dry-bulb temperature. Inlet air temperature = 11.859 C.\n   **   ~~~   **    2) may have a low air flow rate per watt of cooling capacity. Check inputs.\n   **   ~~~   **    3) is used as part of a HX assisted cooling coil which uses a high sensible effectiveness. Check inputs.\n   ** Warning ** CalcDoe2DXCoil: Coil:Cooling:DX:SingleSpeed \"COIL COOLING DX SINGLE SPEED 26 7KBTU/HR 11.0EER\" - Air-cooled condenser inlet dry-bulb temperature below 0 C. Outdoor dry-bulb temperature = -20.55\n   **   ~~~   **  ... Occurrence info = RUN PERIOD 1, 01/01 10:23 - 10:30\n   **   ~~~   ** ... Operation at low ambient temperatures may require special performance curves.\n   ** Warning ** CalcDoe2DXCoil: Coil:Cooling:DX:SingleSpeed \"COIL COOLING DX SINGLE SPEED 26 7KBTU/HR 11.0EER\" - Full load outlet air dry-bulb temperature < 2C. This indicates the possibility of coil frost/freeze. Outlet temperature = -0.60 C.\n   **   ~~~   **  ...Occurrence info = RUN PERIOD 1, 01/01 10:23 - 10:30\n   **   ~~~   ** ... Possible reasons for low outlet air dry-bulb temperatures are: This DX coil\n   **   ~~~   **    1) may have a low inlet air dry-bulb temperature. Inlet air temperature = 12.240 C.\n   **   ~~~   **    2) may have a low air flow rate per watt of cooling capacity. Check inputs.\n   **   ~~~   **    3) is used as part of a HX assisted cooling coil which uses a high sensible effectiveness. Check inputs.\n   ** Warning ** CalcDoe2DXCoil: Coil:Cooling:DX:SingleSpeed \"COIL COOLING DX SINGLE SPEED 27 9KBTU/HR 10.5EER\" - Air-cooled condenser inlet dry-bulb temperature below 0 C. Outdoor dry-bulb temperature = -20.48\n   **   ~~~   **  ... Occurrence info = RUN PERIOD 1, 01/01 10:38 - 10:45\n   **   ~~~   ** ... Operation at low ambient temperatures may require special performance curves.\n   ** Warning ** CalcDoe2DXCoil: Coil:Cooling:DX:SingleSpeed \"COIL COOLING DX SINGLE SPEED 7 7KBTU/HR 11.0EER\" - Air-cooled condenser inlet dry-bulb temperature below 0 C. Outdoor dry-bulb temperature = -20.48\n   **   ~~~   **  ... Occurrence info = RUN PERIOD 1, 01/01 10:38 - 10:45\n   **   ~~~   ** ... Operation at low ambient temperatures may require special performance curves.\n   ** Warning ** CalcDoe2DXCoil: Coil:Cooling:DX:SingleSpeed \"COIL COOLING DX SINGLE SPEED 7 7KBTU/HR 11.0EER\" - Full load outlet air dry-bulb temperature < 2C. This indicates the possibility of coil frost/freeze. Outlet temperature = 0.35 C.\n   **   ~~~   **  ...Occurrence info = RUN PERIOD 1, 01/01 10:38 - 10:45\n   **   ~~~   ** ... Possible reasons for low outlet air dry-bulb temperatures are: This DX coil\n   **   ~~~   **    1) may have a low inlet air dry-bulb temperature. Inlet air temperature = 13.184 C.\n   **   ~~~   **    2) may have a low air flow rate per watt of cooling capacity. Check inputs.\n   **   ~~~   **    3) is used as part of a HX assisted cooling coil which uses a high sensible effectiveness. Check inputs.\n   ** Warning ** CalcDoe2DXCoil: Coil:Cooling:DX:SingleSpeed \"COIL COOLING DX SINGLE SPEED 9 7KBTU/HR 10.9EER\" - Air-cooled condenser inlet dry-bulb temperature below 0 C. Outdoor dry-bulb temperature = -20.48\n   **   ~~~   **  ... Occurrence info = RUN PERIOD 1, 01/01 10:38 - 10:45\n   **   ~~~   ** ... Operation at low ambient temperatures may require special performance curves.\n   ** Warning ** CalcDoe2DXCoil: Coil:Cooling:DX:SingleSpeed \"COIL COOLING DX SINGLE SPEED 9 7KBTU/HR 10.9EER\" - Full load outlet air dry-bulb temperature < 2C. This indicates the possibility of coil frost/freeze. Outlet temperature = 0.54 C.\n   **   ~~~   **  ...Occurrence info = RUN PERIOD 1, 01/01 10:38 - 10:45\n   **   ~~~   ** ... Possible reasons for low outlet air dry-bulb temperatures are: This DX coil\n   **   ~~~   **    1) may have a low inlet air dry-bulb temperature. Inlet air temperature = 13.379 C.\n   **   ~~~   **    2) may have a low air flow rate per watt of cooling capacity. Check inputs.\n   **   ~~~   **    3) is used as part of a HX assisted cooling coil which uses a high sensible effectiveness. Check inputs.\n   ** Warning ** CalcDoe2DXCoil: Coil:Cooling:DX:SingleSpeed \"COIL COOLING DX SINGLE SPEED 8 10KBTU/HR 10.3EER\" - Air-cooled condenser inlet dry-bulb temperature below 0 C. Outdoor dry-bulb temperature = -20.40\n   **   ~~~   **  ... Occurrence info = RUN PERIOD 1, 01/01 10:45 - 10:52\n   **   ~~~   ** ... Operation at low ambient temperatures may require special performance curves.\n   ** Warning ** CalcDoe2DXCoil: Coil:Cooling:DX:SingleSpeed \"COIL COOLING DX SINGLE SPEED 19 10KBTU/HR 10.4EER\" - Air-cooled condenser inlet dry-bulb temperature below 0 C. Outdoor dry-bulb temperature = -20.40\n   **   ~~~   **  ... Occurrence info = RUN PERIOD 1, 01/01 10:53 - 11:00\n   **   ~~~   ** ... Operation at low ambient temperatures may require special performance curves.\n   ** Warning ** CalcDoe2DXCoil: Coil:Cooling:DX:SingleSpeed \"COIL COOLING DX SINGLE SPEED 18 12KBTU/HR 10.0EER\" - Air-cooled condenser inlet dry-bulb temperature below 0 C. Outdoor dry-bulb temperature = -20.40\n   **   ~~~   **  ... Occurrence info = RUN PERIOD 1, 01/01 10:53 - 11:00\n   **   ~~~   ** ... Operation at low ambient temperatures may require special performance curves.\n   ** Warning ** CalcDoe2DXCoil: Coil:Cooling:DX:SingleSpeed \"COIL COOLING DX SINGLE SPEED 16 10KBTU/HR 10.4EER\" - Air-cooled condenser inlet dry-bulb temperature below 0 C. Outdoor dry-bulb temperature = -19.93\n   **   ~~~   **  ... Occurrence info = RUN PERIOD 1, 01/01 11:00 - 11:08\n   **   ~~~   ** ... Operation at low ambient temperatures may require special performance curves.\n   ** Warning ** CalcDoe2DXCoil: Coil:Cooling:DX:SingleSpeed \"COIL COOLING DX SINGLE SPEED 10 11KBTU/HR 10.2EER\" - Air-cooled condenser inlet dry-bulb temperature below 0 C. Outdoor dry-bulb temperature = -19.93\n   **   ~~~   **  ... Occurrence info = RUN PERIOD 1, 01/01 11:08 - 11:15\n   **   ~~~   ** ... Operation at low ambient temperatures may require special performance curves.\n   ** Warning ** CalcDoe2DXCoil: Coil:Cooling:DX:SingleSpeed \"COIL COOLING DX SINGLE SPEED 17 13KBTU/HR 9.8EER\" - Air-cooled condenser inlet dry-bulb temperature below 0 C. Outdoor dry-bulb temperature = -18.98\n   **   ~~~   **  ... Occurrence info = RUN PERIOD 1, 01/01 11:30 - 11:45\n   **   ~~~   ** ... Operation at low ambient temperatures may require special performance curves.\n   ** Warning ** CalcDoe2DXCoil: Coil:Cooling:DX:SingleSpeed \"COIL COOLING DX SINGLE SPEED 28 18KBTU/HR 14.0SEER\" - Full load outlet air dry-bulb temperature < 2C. This indicates the possibility of coil frost/freeze. Outlet temperature = -1.22 C.\n   **   ~~~   **  ...Occurrence info = RUN PERIOD 1, 01/09 08:02 - 08:04\n   **   ~~~   ** ... Possible reasons for low outlet air dry-bulb temperatures are: This DX coil\n   **   ~~~   **    1) may have a low inlet air dry-bulb temperature. Inlet air temperature = 11.960 C.\n   **   ~~~   **    2) may have a low air flow rate per watt of cooling capacity. Check inputs.\n   **   ~~~   **    3) is used as part of a HX assisted cooling coil which uses a high sensible effectiveness. Check inputs.\n   ** Warning ** CalcDoe2DXCoil: Coil:Cooling:DX:SingleSpeed \"COIL COOLING DX SINGLE SPEED 6 6KBTU/HR 11.0EER\" - Air-cooled condenser inlet dry-bulb temperature below 0 C. Outdoor dry-bulb temperature = -9.40\n   **   ~~~   **  ... Occurrence info = RUN PERIOD 1, 02/09 14:30 - 14:45\n   **   ~~~   ** ... Operation at low ambient temperatures may require special performance curves.\n   ** Warning ** CalcDoe2DXCoil: Coil:Cooling:DX:SingleSpeed \"COIL COOLING DX SINGLE SPEED 24 6KBTU/HR 11.0EER\" - Air-cooled condenser inlet dry-bulb temperature below 0 C. Outdoor dry-bulb temperature = -9.40\n   **   ~~~   **  ... Occurrence info = RUN PERIOD 1, 02/28 14:30 - 14:45\n   **   ~~~   ** ... Operation at low ambient temperatures may require special performance curves.\n   ** Warning ** CalcDoe2DXCoil: Coil:Cooling:DX:SingleSpeed \"COIL COOLING DX SINGLE SPEED 20 8KBTU/HR 10.7EER\" - Air-cooled condenser inlet dry-bulb temperature below 0 C. Outdoor dry-bulb temperature = -5.60\n   **   ~~~   **  ... Occurrence info = RUN PERIOD 1, 03/05 15:38 - 15:45\n   **   ~~~   ** ... Operation at low ambient temperatures may require special performance curves.\n   ** Warning ** CalcDoe2DXCoil: Coil:Cooling:DX:SingleSpeed \"COIL COOLING DX SINGLE SPEED 5 10KBTU/HR 10.5EER\" - Air-cooled condenser inlet dry-bulb temperature below 0 C. Outdoor dry-bulb temperature = -5.60\n   **   ~~~   **  ... Occurrence info = RUN PERIOD 1, 03/05 15:45 - 15:52\n   **   ~~~   ** ... Operation at low ambient temperatures may require special performance curves.\n   ** Warning ** CalcDoe2DXCoil: Coil:Cooling:DX:SingleSpeed \"COIL COOLING DX SINGLE SPEED 11 11KBTU/HR 10.1EER\" - Air-cooled condenser inlet dry-bulb temperature below 0 C. Outdoor dry-bulb temperature = -0.60\n   **   ~~~   **  ... Occurrence info = RUN PERIOD 1, 03/07 15:30 - 15:45\n   **   ~~~   ** ... Operation at low ambient temperatures may require special performance curves.\n   ** Warning ** CalcDoe2DXCoil: Coil:Cooling:DX:SingleSpeed \"COIL COOLING DX SINGLE SPEED 15 10KBTU/HR 10.4EER\" - Air-cooled condenser inlet dry-bulb temperature below 0 C. Outdoor dry-bulb temperature = -5.25\n   **   ~~~   **  ... Occurrence info = RUN PERIOD 1, 03/11 12:15 - 12:30\n   **   ~~~   ** ... Operation at low ambient temperatures may require special performance curves.\n   ** Warning ** CalcDoe2DXCoil: Coil:Cooling:DX:SingleSpeed \"COIL COOLING DX SINGLE SPEED 2 10KBTU/HR 10.4EER\" - Air-cooled condenser inlet dry-bulb temperature below 0 C. Outdoor dry-bulb temperature = -5.00\n   **   ~~~   **  ... Occurrence info = RUN PERIOD 1, 03/12 11:15 - 11:30\n   **   ~~~   ** ... Operation at low ambient temperatures may require special performance curves.\n   ** Warning ** CalcDoe2DXCoil: Coil:Cooling:DX:SingleSpeed \"COIL COOLING DX SINGLE SPEED 14 11KBTU/HR 10.1EER\" - Air-cooled condenser inlet dry-bulb temperature below 0 C. Outdoor dry-bulb temperature = -4.70\n   **   ~~~   **  ... Occurrence info = RUN PERIOD 1, 03/12 11:30 - 11:45\n   **   ~~~   ** ... Operation at low ambient temperatures may require special performance curves.\n   ** Warning ** CalcDoe2DXCoil: Coil:Cooling:DX:SingleSpeed \"COIL COOLING DX SINGLE SPEED 4 5KBTU/HR 11.0EER\" - Air-cooled condenser inlet dry-bulb temperature below 0 C. Outdoor dry-bulb temperature = -0.98\n   **   ~~~   **  ... Occurrence info = RUN PERIOD 1, 03/17 19:30 - 19:45\n   **   ~~~   ** ... Operation at low ambient temperatures may require special performance curves.\n   ** Warning ** CalcDoe2DXCoil: Coil:Cooling:DX:SingleSpeed \"COIL COOLING DX SINGLE SPEED 23 9KBTU/HR 10.6EER\" - Air-cooled condenser inlet dry-bulb temperature below 0 C. Outdoor dry-bulb temperature = -5.00\n   **   ~~~   **  ... Occurrence info = RUN PERIOD 1, 03/29 08:23 - 08:26\n   **   ~~~   ** ... Operation at low ambient temperatures may require special performance curves.\n   ** Warning ** CalcDoe2DXCoil: Coil:Cooling:DX:SingleSpeed \"COIL COOLING DX SINGLE SPEED 4 5KBTU/HR 11.0EER\" - Full load outlet air dry-bulb temperature < 2C. This indicates the possibility of coil frost/freeze. Outlet temperature = 1.93 C.\n   **   ~~~   **  ...Occurrence info = RUN PERIOD 1, 03/29 19:00 - 19:15\n   **   ~~~   ** ... Possible reasons for low outlet air dry-bulb temperatures are: This DX coil\n   **   ~~~   **    1) may have a low inlet air dry-bulb temperature. Inlet air temperature = 14.229 C.\n   **   ~~~   **    2) may have a low air flow rate per watt of cooling capacity. Check inputs.\n   **   ~~~   **    3) is used as part of a HX assisted cooling coil which uses a high sensible effectiveness. Check inputs.\n   ** Warning ** CalcDoe2DXCoil: Coil:Cooling:DX:SingleSpeed \"COIL COOLING DX SINGLE SPEED 3 5KBTU/HR 11.0EER\" - Air-cooled condenser inlet dry-bulb temperature below 0 C. Outdoor dry-bulb temperature = -3.30\n   **   ~~~   **  ... Occurrence info = RUN PERIOD 1, 03/29 19:00 - 19:15\n   **   ~~~   ** ... Operation at low ambient temperatures may require special performance curves.\n   ** Warning ** CalcDoe2DXCoil: Coil:Cooling:DX:SingleSpeed \"COIL COOLING DX SINGLE SPEED 3 5KBTU/HR 11.0EER\" - Full load outlet air dry-bulb temperature < 2C. This indicates the possibility of coil frost/freeze. Outlet temperature = 1.85 C.\n   **   ~~~   **  ...Occurrence info = RUN PERIOD 1, 03/29 19:00 - 19:15\n   **   ~~~   ** ... Possible reasons for low outlet air dry-bulb temperatures are: This DX coil\n   **   ~~~   **    1) may have a low inlet air dry-bulb temperature. Inlet air temperature = 14.226 C.\n   **   ~~~   **    2) may have a low air flow rate per watt of cooling capacity. Check inputs.\n   **   ~~~   **    3) is used as part of a HX assisted cooling coil which uses a high sensible effectiveness. Check inputs.\n   ** Warning ** CalcDoe2DXCoil: Coil:Cooling:DX:SingleSpeed \"COIL COOLING DX SINGLE SPEED 1 79KBTU/HR 9.7EER\" - Full load outlet air dry-bulb temperature < 2C. This indicates the possibility of coil frost/freeze. Outlet temperature = 2.00 C.\n   **   ~~~   **  ...Occurrence info = RUN PERIOD 1, 05/14 14:30 - 14:45\n   **   ~~~   ** ... Possible reasons for low outlet air dry-bulb temperatures are: This DX coil\n   **   ~~~   **    1) may have a low inlet air dry-bulb temperature. Inlet air temperature = 19.175 C.\n   **   ~~~   **    2) may have a low air flow rate per watt of cooling capacity. Check inputs.\n   **   ~~~   **    3) is used as part of a HX assisted cooling coil which uses a high sensible effectiveness. Check inputs.\n   ************* Simulation Error Summary *************\n   ************* There are 9 unused schedules in input.\n   ************* There are 9 unused week schedules in input.\n   ************* There are 17 unused day schedules in input.\n   ************* Use Output:Diagnostics,DisplayUnusedSchedules; to see them.\n   *************\n   ************* ===== Recurring Error Summary =====\n   ************* The following recurring error messages occurred.\n   *************\n   *************  ** Warning ** CalcDoe2DXCoil: Coil:Cooling:DX:SingleSpeed=\"COIL COOLING DX SINGLE SPEED 25 6KBTU/HR 11.0EER\" - Low condenser dry-bulb temperature error continues...\n   *************  **   ~~~   **   This error occurred 1961 total times;\n   *************  **   ~~~   **   during Warmup 0 times;\n   *************  **   ~~~   **   during Sizing 0 times.\n   *************  **   ~~~   **   Max=-0.15 [C]  Min=-23.325 [C]\n   *************\n   *************  ** Warning ** CalcDoe2DXCoil: Coil:Cooling:DX:SingleSpeed=\"COIL COOLING DX SINGLE SPEED 25 6KBTU/HR 11.0EER\" - Full load outlet temperature indicates a possibility of frost/freeze error continues. Outlet air temperature statistics follow:\n   *************  **   ~~~   **   This error occurred 779 total times;\n   *************  **   ~~~   **   during Warmup 0 times;\n   *************  **   ~~~   **   during Sizing 0 times.\n   *************  **   ~~~   **   Max=1.98491  Min=-1.795524\n   *************\n   *************  ** Warning ** CalcDoe2DXCoil: Coil:Cooling:DX:SingleSpeed=\"COIL COOLING DX SINGLE SPEED 26 7KBTU/HR 11.0EER\" - Low condenser dry-bulb temperature error continues...\n   *************  **   ~~~   **   This error occurred 1933 total times;\n   *************  **   ~~~   **   during Warmup 0 times;\n   *************  **   ~~~   **   during Sizing 0 times.\n   *************  **   ~~~   **   Max=-0.15 [C]  Min=-23.45 [C]\n   *************\n   *************  ** Warning ** CalcDoe2DXCoil: Coil:Cooling:DX:SingleSpeed=\"COIL COOLING DX SINGLE SPEED 26 7KBTU/HR 11.0EER\" - Full load outlet temperature indicates a possibility of frost/freeze error continues. Outlet air temperature statistics follow:\n   *************  **   ~~~   **   This error occurred 627 total times;\n   *************  **   ~~~   **   during Warmup 0 times;\n   *************  **   ~~~   **   during Sizing 0 times.\n   *************  **   ~~~   **   Max=1.997661  Min=-1.434027\n   *************\n   *************  ** Warning ** CalcDoe2DXCoil: Coil:Cooling:DX:SingleSpeed=\"COIL COOLING DX SINGLE SPEED 27 9KBTU/HR 10.5EER\" - Low condenser dry-bulb temperature error continues...\n   *************  **   ~~~   **   This error occurred 1706 total times;\n   *************  **   ~~~   **   during Warmup 0 times;\n   *************  **   ~~~   **   during Sizing 0 times.\n   *************  **   ~~~   **   Max=-0.15 [C]  Min=-22.45 [C]\n   *************\n   *************  ** Warning ** CalcDoe2DXCoil: Coil:Cooling:DX:SingleSpeed=\"COIL COOLING DX SINGLE SPEED 7 7KBTU/HR 11.0EER\" - Low condenser dry-bulb temperature error continues...\n   *************  **   ~~~   **   This error occurred 3287 total times;\n   *************  **   ~~~   **   during Warmup 0 times;\n   *************  **   ~~~   **   during Sizing 0 times.\n   *************  **   ~~~   **   Max=-2.500000E-002 [C]  Min=-22.475 [C]\n   *************\n   *************  ** Warning ** CalcDoe2DXCoil: Coil:Cooling:DX:SingleSpeed=\"COIL COOLING DX SINGLE SPEED 7 7KBTU/HR 11.0EER\" - Full load outlet temperature indicates a possibility of frost/freeze error continues. Outlet air temperature statistics follow:\n   *************  **   ~~~   **   This error occurred 387 total times;\n   *************  **   ~~~   **   during Warmup 0 times;\n   *************  **   ~~~   **   during Sizing 0 times.\n   *************  **   ~~~   **   Max=1.99971  Min=-3.490324E-002\n   *************\n   *************  ** Warning ** CalcDoe2DXCoil: Coil:Cooling:DX:SingleSpeed=\"COIL COOLING DX SINGLE SPEED 9 7KBTU/HR 10.9EER\" - Low condenser dry-bulb temperature error continues...\n   *************  **   ~~~   **   This error occurred 3265 total times;\n   *************  **   ~~~   **   during Warmup 0 times;\n   *************  **   ~~~   **   during Sizing 0 times.\n   *************  **   ~~~   **   Max=-2.500000E-002 [C]  Min=-22.75 [C]\n   *************\n   *************  ** Warning ** CalcDoe2DXCoil: Coil:Cooling:DX:SingleSpeed=\"COIL COOLING DX SINGLE SPEED 9 7KBTU/HR 10.9EER\" - Full load outlet temperature indicates a possibility of frost/freeze error continues. Outlet air temperature statistics follow:\n   *************  **   ~~~   **   This error occurred 358 total times;\n   *************  **   ~~~   **   during Warmup 0 times;\n   *************  **   ~~~   **   during Sizing 0 times.\n   *************  **   ~~~   **   Max=1.975531  Min=0.119514\n   *************\n   *************  ** Warning ** CalcDoe2DXCoil: Coil:Cooling:DX:SingleSpeed=\"COIL COOLING DX SINGLE SPEED 8 10KBTU/HR 10.3EER\" - Low condenser dry-bulb temperature error continues...\n   *************  **   ~~~   **   This error occurred 2161 total times;\n   *************  **   ~~~   **   during Warmup 0 times;\n   *************  **   ~~~   **   during Sizing 0 times.\n   *************  **   ~~~   **   Max=-0.15 [C]  Min=-22.475 [C]\n   *************\n   *************  ** Warning ** CalcDoe2DXCoil: Coil:Cooling:DX:SingleSpeed=\"COIL COOLING DX SINGLE SPEED 19 10KBTU/HR 10.4EER\" - Low condenser dry-bulb temperature error continues...\n   *************  **   ~~~   **   This error occurred 1050 total times;\n   *************  **   ~~~   **   during Warmup 0 times;\n   *************  **   ~~~   **   during Sizing 0 times.\n   *************  **   ~~~   **   Max=-0.15 [C]  Min=-21.575 [C]\n   *************\n   *************  ** Warning ** CalcDoe2DXCoil: Coil:Cooling:DX:SingleSpeed=\"COIL COOLING DX SINGLE SPEED 18 12KBTU/HR 10.0EER\" - Low condenser dry-bulb temperature error continues...\n   *************  **   ~~~   **   This error occurred 1114 total times;\n   *************  **   ~~~   **   during Warmup 0 times;\n   *************  **   ~~~   **   during Sizing 0 times.\n   *************  **   ~~~   **   Max=-0.15 [C]  Min=-21.575 [C]\n   *************\n   *************  ** Warning ** CalcDoe2DXCoil: Coil:Cooling:DX:SingleSpeed=\"COIL COOLING DX SINGLE SPEED 16 10KBTU/HR 10.4EER\" - Low condenser dry-bulb temperature error continues...\n   *************  **   ~~~   **   This error occurred 1030 total times;\n   *************  **   ~~~   **   during Warmup 0 times;\n   *************  **   ~~~   **   during Sizing 0 times.\n   *************  **   ~~~   **   Max=-0.15 [C]  Min=-21.575 [C]\n   *************\n   *************  ** Warning ** CalcDoe2DXCoil: Coil:Cooling:DX:SingleSpeed=\"COIL COOLING DX SINGLE SPEED 10 11KBTU/HR 10.2EER\" - Low condenser dry-bulb temperature error continues...\n   *************  **   ~~~   **   This error occurred 2135 total times;\n   *************  **   ~~~   **   during Warmup 0 times;\n   *************  **   ~~~   **   during Sizing 0 times.\n   *************  **   ~~~   **   Max=-0.15 [C]  Min=-20.7 [C]\n   *************\n   *************  ** Warning ** CalcDoe2DXCoil: Coil:Cooling:DX:SingleSpeed=\"COIL COOLING DX SINGLE SPEED 17 13KBTU/HR 9.8EER\" - Low condenser dry-bulb temperature error continues...\n   *************  **   ~~~   **   This error occurred 987 total times;\n   *************  **   ~~~   **   during Warmup 0 times;\n   *************  **   ~~~   **   during Sizing 0 times.\n   *************  **   ~~~   **   Max=-0.15 [C]  Min=-20.7 [C]\n   *************\n   *************  ** Warning ** CalcDoe2DXCoil: Coil:Cooling:DX:SingleSpeed=\"COIL COOLING DX SINGLE SPEED 28 18KBTU/HR 14.0SEER\" - Full load outlet temperature indicates a possibility of frost/freeze error continues. Outlet air temperature statistics follow:\n   *************  **   ~~~   **   This error occurred 605 total times;\n   *************  **   ~~~   **   during Warmup 0 times;\n   *************  **   ~~~   **   during Sizing 0 times.\n   *************  **   ~~~   **   Max=1.993879  Min=-4.22976\n   *************\n   *************  ** Warning ** CalcDoe2DXCoil: Coil:Cooling:DX:SingleSpeed=\"COIL COOLING DX SINGLE SPEED 6 6KBTU/HR 11.0EER\" - Low condenser dry-bulb temperature error continues...\n   *************  **   ~~~   **   This error occurred 937 total times;\n   *************  **   ~~~   **   during Warmup 0 times;\n   *************  **   ~~~   **   during Sizing 0 times.\n   *************  **   ~~~   **   Max=-2.500000E-002 [C]  Min=-11.1 [C]\n   *************\n   *************  ** Warning ** CalcDoe2DXCoil: Coil:Cooling:DX:SingleSpeed=\"COIL COOLING DX SINGLE SPEED 24 6KBTU/HR 11.0EER\" - Low condenser dry-bulb temperature error continues...\n   *************  **   ~~~   **   This error occurred 99 total times;\n   *************  **   ~~~   **   during Warmup 0 times;\n   *************  **   ~~~   **   during Sizing 0 times.\n   *************  **   ~~~   **   Max=-0.15 [C]  Min=-9.4 [C]\n   *************\n   *************  ** Warning ** CalcDoe2DXCoil: Coil:Cooling:DX:SingleSpeed=\"COIL COOLING DX SINGLE SPEED 20 8KBTU/HR 10.7EER\" - Low condenser dry-bulb temperature error continues...\n   *************  **   ~~~   **   This error occurred 105 total times;\n   *************  **   ~~~   **   during Warmup 0 times;\n   *************  **   ~~~   **   during Sizing 0 times.\n   *************  **   ~~~   **   Max=-0.15 [C]  Min=-6.1 [C]\n   *************\n   *************  ** Warning ** CalcDoe2DXCoil: Coil:Cooling:DX:SingleSpeed=\"COIL COOLING DX SINGLE SPEED 5 10KBTU/HR 10.5EER\" - Low condenser dry-bulb temperature error continues...\n   *************  **   ~~~   **   This error occurred 224 total times;\n   *************  **   ~~~   **   during Warmup 0 times;\n   *************  **   ~~~   **   during Sizing 0 times.\n   *************  **   ~~~   **   Max=-0.15 [C]  Min=-9.85 [C]\n   *************\n   *************  ** Warning ** CalcDoe2DXCoil: Coil:Cooling:DX:SingleSpeed=\"COIL COOLING DX SINGLE SPEED 11 11KBTU/HR 10.1EER\" - Low condenser dry-bulb temperature error continues...\n   *************  **   ~~~   **   This error occurred 69 total times;\n   *************  **   ~~~   **   during Warmup 0 times;\n   *************  **   ~~~   **   during Sizing 0 times.\n   *************  **   ~~~   **   Max=-0.15 [C]  Min=-6.1 [C]\n   *************\n   *************  ** Warning ** CalcDoe2DXCoil: Coil:Cooling:DX:SingleSpeed=\"COIL COOLING DX SINGLE SPEED 15 10KBTU/HR 10.4EER\" - Low condenser dry-bulb temperature error continues...\n   *************  **   ~~~   **   This error occurred 86 total times;\n   *************  **   ~~~   **   during Warmup 0 times;\n   *************  **   ~~~   **   during Sizing 0 times.\n   *************  **   ~~~   **   Max=-0.15 [C]  Min=-5.975 [C]\n   *************\n   *************  ** Warning ** CalcDoe2DXCoil: Coil:Cooling:DX:SingleSpeed=\"COIL COOLING DX SINGLE SPEED 2 10KBTU/HR 10.4EER\" - Low condenser dry-bulb temperature error continues...\n   *************  **   ~~~   **   This error occurred 181 total times;\n   *************  **   ~~~   **   during Warmup 0 times;\n   *************  **   ~~~   **   during Sizing 0 times.\n   *************  **   ~~~   **   Max=-0.275 [C]  Min=-5. [C]\n   *************\n   *************  ** Warning ** CalcDoe2DXCoil: Coil:Cooling:DX:SingleSpeed=\"COIL COOLING DX SINGLE SPEED 14 11KBTU/HR 10.1EER\" - Low condenser dry-bulb temperature error continues...\n   *************  **   ~~~   **   This error occurred 42 total times;\n   *************  **   ~~~   **   during Warmup 0 times;\n   *************  **   ~~~   **   during Sizing 0 times.\n   *************  **   ~~~   **   Max=-0.3 [C]  Min=-4.7 [C]\n   *************\n   *************  ** Warning ** CalcDoe2DXCoil: Coil:Cooling:DX:SingleSpeed=\"COIL COOLING DX SINGLE SPEED 4 5KBTU/HR 11.0EER\" - Low condenser dry-bulb temperature error continues...\n   *************  **   ~~~   **   This error occurred 126 total times;\n   *************  **   ~~~   **   during Warmup 0 times;\n   *************  **   ~~~   **   during Sizing 0 times.\n   *************  **   ~~~   **   Max=-0.15 [C]  Min=-3.9 [C]\n   *************\n   *************  ** Warning ** CalcDoe2DXCoil: Coil:Cooling:DX:SingleSpeed=\"COIL COOLING DX SINGLE SPEED 23 9KBTU/HR 10.6EER\" - Low condenser dry-bulb temperature error continues...\n   *************  **   ~~~   **   This error occurred 144 total times;\n   *************  **   ~~~   **   during Warmup 0 times;\n   *************  **   ~~~   **   during Sizing 0 times.\n   *************  **   ~~~   **   Max=-0.275 [C]  Min=-5. [C]\n   *************\n   *************  ** Warning ** CalcDoe2DXCoil: Coil:Cooling:DX:SingleSpeed=\"COIL COOLING DX SINGLE SPEED 4 5KBTU/HR 11.0EER\" - Full load outlet temperature indicates a possibility of frost/freeze error continues. Outlet air temperature statistics follow:\n   *************  **   ~~~   **   This error occurred 6 total times;\n   *************  **   ~~~   **   during Warmup 0 times;\n   *************  **   ~~~   **   during Sizing 0 times.\n   *************  **   ~~~   **   Max=1.993203  Min=1.870655\n   *************\n   *************  ** Warning ** CalcDoe2DXCoil: Coil:Cooling:DX:SingleSpeed=\"COIL COOLING DX SINGLE SPEED 3 5KBTU/HR 11.0EER\" - Low condenser dry-bulb temperature error continues...\n   *************  **   ~~~   **   This error occurred 100 total times;\n   *************  **   ~~~   **   during Warmup 0 times;\n   *************  **   ~~~   **   during Sizing 0 times.\n   *************  **   ~~~   **   Max=-0.15 [C]  Min=-3.9 [C]\n   *************\n   *************  ** Warning ** CalcDoe2DXCoil: Coil:Cooling:DX:SingleSpeed=\"COIL COOLING DX SINGLE SPEED 3 5KBTU/HR 11.0EER\" - Full load outlet temperature indicates a possibility of frost/freeze error continues. Outlet air temperature statistics follow:\n   *************  **   ~~~   **   This error occurred 9 total times;\n   *************  **   ~~~   **   during Warmup 0 times;\n   *************  **   ~~~   **   during Sizing 0 times.\n   *************  **   ~~~   **   Max=1.969252  Min=1.780552\n   *************\n   *************  ** Warning ** CalcDoe2DXCoil: Coil:Cooling:DX:SingleSpeed=\"COIL COOLING DX SINGLE SPEED 1 79KBTU/HR 9.7EER\" - Full load outlet temperature indicates a possibility of frost/freeze error continues. Outlet air temperature statistics follow:\n   *************  **   ~~~   **   This error occurred 5 total times;\n   *************  **   ~~~   **   during Warmup 0 times;\n   *************  **   ~~~   **   during Sizing 0 times.\n   *************  **   ~~~   **   Max=1.998957  Min=1.597104\n   *************\n   *************\n   ************* ===== Final Error Summary =====\n   ************* The following error categories occurred.  Consider correcting or noting.\n   ************* Nominally Unused Constructions\n   ************* ..The nominally unused constructions warning is provided to alert you to potential conditions that can cause\n   ************* ..extra time during simulation. Each construction is calculated by the algorithm indicated in the HeatBalanceAlgorithm\n   ************* ..object. You may remove the constructions indicated (when you use the DisplayExtraWarnings option).\n   *************\n   ************* EnergyPlus Warmup Error Summary. During Warmup: 0 Warning; 0 Severe Errors.\n   ************* EnergyPlus Sizing Error Summary. During Sizing: 181 Warning; 0 Severe Errors.\n   ************* EnergyPlus Completed Successfully-- 25735 Warning; 0 Severe Errors; Elapsed Time=00hr 02min 22.22sec\n",
   "file_format_version" : "0.0.1",
   "file_paths" : [ "../weather", "../seeds", "../seed" ],
   "hash" : "4F14CD14",
   "measure_paths" : [ "../measures" ],
   "name" : "LHS Autogenerated 982",
   "osa_id" : "4fef0e0f-5396-4c55-a6e1-2cd6803db3ab",
   "osd_id" : "38c32c79-65a1-432b-9a13-6b9cadfa466c",
   "run_directory" : "./run",
   "seed_file" : "seed.osm",
   "started_at" : "20170710T192615Z",
   "steps" : [
      {
         "arguments" : {
            "__SKIP__" : false,
            "building_type" : "MidriseApartment",
            "climate_zone" : "NECB HDD Method",
            "epw_file" : "CAN_PQ_Riviere.du.Loup.717150_CWEC.epw",
            "template" : "NECB 2011"
         },
         "measure_dir_name" : "create_prototype_building",
         "name" : "create_prototype_building",
         "result" : {
            "completed_at" : "20170710T192731Z",
            "measure_class_name" : "CreatePrototypeBuilding",
            "measure_display_name" : "Create Prototype Building",
            "measure_name" : "create_prototype_building",
            "measure_taxonomy" : "Whole Building.Space Types",
            "measure_type" : "ModelMeasure",
            "measure_uid" : "ae90fsd7-a651-467a-bc8d-29d310b0f937",
            "measure_version_id" : "c6ec5c18-5595-459f-a082-09a19c8c869c",
            "measure_version_modified" : "20170519T182315Z",
            "measure_xml_checksum" : "057E8D9D",
            "started_at" : "20170710T192618Z",
            "stderr" : "",
[...]
lSUP4RCdo0KSg//II2TQrKD7+gTZOC8sOvaNO0JFu3K5tN0aZpSbZ6V5abok3TkmwNr+w3RZum3ZW2jldWnKJN05JsHa9sObRpaNPQpj0Rok27Ddo0tGlo0yqDNg1tWtO7Qps2e37D69GmPQ7atGlW+JbWxuwC4IADDjjggAMOOOCAAw44w+NsTDoADTTQQAMNNNBAAw000EAzDs3byA7AAQcccMABBxxwwAEHHHD6n4c27T5o0yZtWoyhTdsPoE3bv0ybtvsoFmuakrM35RxMOUdTzsmUczblXEw5V1PO7Ef3UpCr0eGqdLg6Ha5Sh6vV4ap1uHodrmKHq9nF1exiu6tdzS6uZpemZi/Xo82i+u1oQkz6CfW70YSY9Nz3m9GEmPTM93vRhJj0vAtWNCXH1ON8jQlKNCXHVOV8hwk+NCXH1OZ8gQkyNOUeNPU5316CCU3JMfU5X139GrRZjGBBU3LSj0dwoCk56XEXDGhKTnrcBf+ZkpMed8V+JgW5Gp1vMEV9JgW5Sp0vMcV7JgW5ep3vMUV6Jt2Mrmbnq0wxnklBrmbn2wzdGbozdGdPhOjOboPuDN0ZurPKoDtDd9b0rtCdzZ7f8Hp0Z4+D7myaFb5dtTErADjggAMOOOCAAw444IADzvA4G5MFQAMNNNBAAw000EADDTTQjEPzNpICcMABBxxwwAEHHHDAAQec/uehO7sPurNJd1bG0J0dBtCdHV6oO9sdTb4zIWjvCjq4go6uoJMr6OwKuriCrq6gTz+3V5Js3Q5bucPW7rDVO2z9DlvBw9bwsFU8bB0vto4X3/1t63ixdby0dbxFg/aYpXjQ+nPyT0kxofXn5LeA4kLrz8lvAMWG1p+Tn37JhyYEuRpdWW+SEk0IcpW6stskK5oQ5Op1ZbFJYjThZnQ1u7LVJDeaEORqdmWlKXq0xxzJjyYE5R+RZEgTgvLDLznShKD88EuWNCEoP/yaJ01JsnW7stk0VZqSZKt3ZblptjQlydbwyn7ThGnKXWnreGXFac40JcnW8cqWQ5uGNg1t2hMh2rTboE1Dm4Y2rTJo09CmNb0rtGmz5ze8Hm3a46BNm2aFb2ltzC4ADjjggAMOOOCAAw444IAzPM7GpAPQQAMNNNBAAw000EADDTTj0LyN7AAccMABBxxwwAEHHHDAAaf/eWjT7oM2bdKm7cfQph0H0KYdX6ZNO339UWiv4sYVtHcFHVxBR1fQyRV0dgVdXEFXV9Ds1/dakq3bYSt32NodtnqHrd9hK3jYGh62ioet48XW8eK7v20dL7aOl7aOL9emzbP6tWlKTv4p9WvTlJz8FujXpik5+Q3Qr01TcvLTL2jTpCBXoyvrTdCmSUGuUld2m6BNk4Jcva4sNkGbJt2MrmZXtpqgTZOCXM2urLR+bdo8R9CmSUH5RyRo06Sg/PAL2jQpKD/8gjZNCsoPv6JN05Js3a5sNkWbpiXZ6l1Zboo2TUuyNbyy3xRtmnZX2jpeWXGKNk1LsnW8suXQpqFNQ5v2RIg27TZo09CmoU2rDNo0tGlN7wpt2uz5Da9Hm/Y4aNOmWeFbWhuzC4ADDjjggAMOOOCAAw444AyPszHpADTQQAMNNNBAAw000EADzTg0byM7AAcccMABBxxwwAEHHHDA6X8e2rT7oE2btGmHMbRppwG0aaeXadN2H8ViTVNy9qacgynnaMo5mXLOppyLKedqypn96F4KcjU6XJUOV6fDVepwtTpctQ5Xr8NV7HA1u7iaXWx3tavZxdXs0tTs5Xq0WVS/HU2IST+hfjeaEJOe+34zmhCTnvl+L5oQk553wYqm5Jh6nK8xQYmm5JiqnO8wwYem5JjanC8wQYam3IOmPufbSzChKTmmPuerq1+DNosRLGhKTvrxCA40JSc97oIBTclJj7vgP1Ny0uOu2M+kIFej8w2mqM+kIFep8yWmeM+kIFev8z2mSM+km9HV7HyVKcYzKcjV7HyboTtDd4bu7IkQ3dlt0J2hO0N3Vhl0Z+jOmt4VurPZ8xtej+7scdCdTbPCt6s2ZgUABxxwwAEHHHDAAQcccMAZHmdjsgBooIEGGmiggQYaaKCBBppxaN5GUgAOOOCAAw444IADDjjggNP/PHRn90F3NunOjmPozs4D6M7OL9Sd7Y4m35kQtHcFHVxBR1fQyRV0dgVdXEFXV9Cnn9srSbZuh63cYWt32Oodtn6HreBha3jYKh62jhdbx4vv/rZ1vNg6Xto63qJBe8xSPGj9OfmnpJjQ+nPyW0BxofXn5DeAYkPrz8lPv+RDE4Jcja6sN0mJJgS5Sl3ZbZIVTQhy9bqy2CQxmnAzuppd2WqSG00IcjW7stIUPdpjjuRHE4Lyj0gypAlB+eGXHGlCUH74JUuaEJQffs2TpiTZul3ZbJoqTUmy1buy3DRbmpJka3hlv2nCNOWutHW8suI0Z5qSZOt4ZcuhTUObhjbtiRBt2m3QpqFNQ5tWGbRpaNOa3hXatNnzG16PNu1x0KZNs8K3tDZmFwAHHHDAAQcccMABBxxwwBkeZ2PSAWiggQYaaKCBBhpooIEGmnFo3kZ2AA444IADDjjggAMOOOCA0/88tGn3QZs2adNOY2jTLgNo0y4v06advv4otFdx4wrau4IOrqCjK+jkCjq7gi6uoKsraPbrey3J1u2wlTts7Q5bvcPW77AVPGwND1vFw9bxYut48d3fto4XW8dLW8eXa9PmWf3aNCUn/5T6tWlKTn4L9GvTlJz8BujXpik5+ekXtGlSkKvRlfUmaNOkIFepK7tN0KZJQa5eVxaboE2TbkZXsytbTdCmSUGuZldWWr82bZ4jaNOkoPwjErRpUlB++AVtmhSUH35BmyYF5Ydf0aZpSbZuVzabok3Tkmz1riw3RZumJdkaXtlvijZNuyttHa+sOEWbpiXZOl7ZcmjT0KahTXsiRJt2G7RpaNPQplUGbRratKZ3hTZt9vyG16NNexy0adOs8C2tjdkFwAEHHHDAAQcccMABBxxwhsfZmHQAGmiggQYaaKCBBhpooIFmHJq3kR2AAw444IADDjjggAMOOOD0Pw9t2n3Qpk3atPMY2rTrANq068u0abuPYrGmKTl7U87BlHM05ZxMOWdTzsWUczXlzH50LwW5Gh2uSoer0+EqdbhaHa5ah6vX4Sp2uJpdXM0utrva1ezianZpavZyPdosqt+OJsSkn1C/G02ISc99vxlNiEnPfL8XTYhJz7tgRVNyTD3O15igRFNyTFXOd5jgQ1NyTG3OF5ggQ1PuQVOf8+0lmNCUHFOf89XVr0GbxQgWNCUn/XgEB5qSkx53wYCm5KTHXfCfKTnpcVfsZ1KQq9H5BlPUZ1KQq9T5ElO8Z1KQq9f5HlOkZ9LN6Gp2vsoU45kU5Gp2vs3QnaE7Q3f2RIju7DboztCdoTurDLozdGdN7wrd2ez5Da9Hd/Y46M6mWeHbVRuzAoADDjjggAMOOOCAAw444AyPszFZADTQQAMNNNBAAw000EADzTg0byMpAAcccMABBxxwwAEHHHDA6X8eurP7oDubdGeXIXRn5932dWe/ML5Od7Y7mnxnQtDeFXRwBR1dQSdX0NkVdHEFXV1Bn35uryTZuh22coet3WGrd9j6HbaCh63hYat42DpebB0vvvvb1vFi63hp63iLBu0xS/Gg9efkn5JiQuvPyW8BxYXWn5PfAIoNrT8nP/2SD00IcjW6st4kJZoQ5Cp1ZbdJVjQhyNXrymKTxGjCzehqdmWrSW40IcjV7MpKU/RojzmSH00Iyj8iyZAmBOWHX3KkCUH54ZcsaUJQfvg1T5qSZOt2ZbNpqjQlyVbvynLTbGlKkq3hlf2mCdOUu9LW8cqK05xpSpKt45UthzYNbRratCdCtGm3QZuGNg1tWmXQpqFNa3pXaNNmz294Pdq0x0GbNs0K39LamF0AHHDAAQcccMABBxxwwAFneJyNSQeggQYaaKCBBhpooIEGGmjGoXkb2QE44IADDjjggAMOOOCAA07/89Cm3Qdt2qRNu46hTYsBtGnxMm3a6euPQnsVN66gvSvo4Ao6uoJOrqCzK+jiCrq6gma/vteSbN0OW7nD1u6w1Tts/Q5bwcPW8LBVPGwdL7aOF9/9bet4sXW8tHV8uTZtntWvTVNy8k+pX5um5OS3QL82TcnJb4B+bZqSk59+QZsmBbkaXVlvgjZNCnKVurLbBG2aFOTqdWWxCdo06WZ0Nbuy1QRtmhTkanZlpfVr0+Y5gjZNCso/IkGbJgXlh1/QpklB+eEXtGlSUH74FW2almTrdmWzKdo0LclW78pyU7RpWpKt4ZX9pmjTtLvS1vHKilO0aVqSreOVLYc2DW0a2rQnQrRpt0GbhjYNbVpl0KahTWt6V2jTZs9veD3atMdBmzbNCt/S2phdABxwwAEHHHDAAQcccMABZ3icjUkHoIEGGmiggQYaaKCBBhpoxqF5G9kBOOCAAw444IADDjjggANO//PQpt0Hbdo3bdpxDGtaGcCaVrCm9QVhTft+ENa0RUlY07CmYU3DmoY1DWsa1jSsaVjTfvVmxJr2/SCsad8NwpqGNQ1rGtY0WxLWtGVJWNNyGKxpWNM+D9a0b/hY0z4P1rQlgzWt7fVY07CmNb0rrGmz5ze8Hmva42BNm2aFL2ltTC4ADjjggAMOOOCAAw444IAzPM7GnAPQQAMNNNBAAw000EADDTTj0LyN6wAccMABBxxwwAEHHHDAAaf/eVjT7oM1bbKm7cbQpu0H0KbtX6ZN230UizVNydmbcg6mnKMp52TKOZtyLqacqyln9qN7KcjV6HBVOlydDlepw9XqcNU6XL0OV7HD1ezianax3dWuZhdXs0tTs5fr0WZR/XY0ISb9hPrdaEJMeu77zWhCTHrm+71oQkx63gUrmpJj6nG+xgQlmpJjqnK+wwQfmpJjanO+wAQZmnIPmvqcby/BhKbkmPqcr65+DdosRrCgKTnpxyM40JSc9LgLBjQlJz3ugv9MyUmPu2I/k4Jcjc43mKI+k4Jcpc6XmOI9k4Jcvc73mCI9k25GV7PzVaYYz6QgV7PzbYbuDN0ZurMnQnRnt0F3hu4M3Vll0J2hO2t6V+jOZs9veD26s8dBdzbNCt+u2pgVABxwwAEHHHDAAQcccMABZ3icjckCoIEGGmiggQYaaKCBBhpoxqF5G0kBOOCAAw444IADDjjggANO//PQnd0H3dmkO4sxdGeHAXRnhxfqznZHk+9MCNq7gg6uoKMr6OQKOruCLq6gqyvo08/tlSRbt8NW7rC1O2z1Dlu/w1bwsDU8bBUPW8eLrePFd3/bOl5sHS9tHW/RoD1mKR60/pz8U1JMaP05+S2guND6c/IbQLGh9efkp1/yoQlBrkZX1pukRBOCXKWu7DbJiiYEuXpdWWySGE24GV3Nrmw1yY0mBLmaXVlpih7tMUfyowlB+UckGdKEoPzwS440ISg//JIlTQjKD7/mSVOSbN2ubDZNlaYk2epdWW6aLU1JsjW8st80YZpyV9o6XllxmjNNSbJ1vLLl0KahTUOb9kSINu02aNPQpqFNqwzaNLRpTe8Kbdrs+Q2vR5v2OGjTplnhW1obswuAAw444IADDjjggAMOOOAMj7Mx6QA00EADDTTQQAMNNNBAA804NG8jOwAHHHDAAQcccMABBxxwwOl/Htq0+6BNm7RpZQxt2nEAbdrxZdq009cfhfYqblxBe1fQwRV0dAWdXEFnV9DFFXR1Bc1+fa8l2bodtnKHrd1hq3fY+h22goet4WGreNg6XmwdL77729bxYut4aev4cm3aPKtfm6bk5J9SvzZNyclvgX5tmpKT3wD92jQlJz/9gjZNCnI1urLeBG2aFOQqdWW3Cdo0KcjV68piE7Rp0s3oanZlqwnaNCnI1ezKSuvXps1zBG2aFJR/RII2TQrKD7+gTZOC8sMvaNOkoPzwK9o0LcnW7cpmU7RpWpKt3pXlpmjTtCRbwyv7TdGmaXelreOVFado07QkW8crWw5tGto0tGlPhGjTboM2DW0a2rTKoE1Dm9b0rtCmzZ7f8Hq0aY+DNm2aFb6ltTG7ADjggAMOOOCAAw444IADzvA4G5MOQAMNNNBAAw000EADDTTQjEPzNrIDcMABBxxwwAEHHHDAAQec/uehTbsP2rRJm7YfQ5t2GkCbdnqZNm33USzWNCVnb8o5mHKOppyTKedsyrmYcq6mnNmP7qUgV6PDVelwdTpcpQ5Xq8NV63D1OlzFDlezi6vZxXZXu5pdXM0uTc1erkebRfXb0YSY9BPqd6MJMem57zejCTHpme/3ogkx6XkXrGhKjqnH+RoTlGhKjqnK+Q4TfGhKjqnN+QITZGjKPWjqc769BBOakmPqc766+jVosxjBgqbkpB+P4EBTctLjLhjQlJz0uAv+MyUnPe6K/UwKcjU632CK+kwKcpU6X2KK90wKcvU632OK9Ey6GV3NzleZYjyTglzNzrcZujN0Z+jOngjRnd0G3Rm6M3RnlUF3hu6s6V2hO5s9v+H16M4eB93ZNCt8u2pjVgBwwAEHHHDAAQcccMABB5zhcTYmC4AGGmiggQYaaKCBBhpooBmH5m0kBeCAAw444IADDjjggAMOOP3PQ3d2H3Rnk+7sMIbu7DyA7uz8Qt3Z7mjynQlBe1fQwRV0dAWdXEFnV9DFFXR1BX36ub2SZOt22ModtnaHrd5h63fYCh62hoet4mHreLF1vPjub1vHi63jpa3jLRq0xyzFg9afk39KigmtPye/BRQXWn9OfgMoNrT+nPz0Sz40IcjV6Mp6k5RoQpCr1JXdJlnRhCBXryuLTRKjCTejq9mVrSa50YQgV7MrK03Roz3mSH40ISj/iCRDmhCUH37JkSYE5YdfsqQJQfnh1zxpSpKt25XNpqnSlCRbvSvLTbOlKUm2hlf2myZMU+5KW8crK05zpilJto5XthzaNLRpaNOeCNGm3QZtGto0tGmVQZuGNq3pXaFNmz2/4fVo0x4Hbdo0K3xLa2N2AXDAAQcccMABBxxwwAEHnOFxNiYdgAYaaKCBBhpooIEGGmigGYfmbWQH4IADDjjggAMOOOCAAw44/c9Dm3YftGmTNu04hjbtMoA27fIybdrp649CexU3rqC9K+jgCjq6gk6uoLMr6OIKurqCZr++15Js3Q5bucPW7rDVO2z9DlvBw9bwsFU8bB0vto4X3/1t63ixdby0dXy5Nm2e1a9NU3LyT6lfm6bk5LdAvzZNyclvgH5tmpKTn35BmyYFuRpdWW+CNk0KcpW6stsEbZoU5Op1ZbEJ2jTpZnQ1u7LVBG2aFORqdmWl9WvT5jmCNk0Kyj8iQZsmBeWHX9CmSUH54Re0aVJQfvgVbZqWZOt2ZbMp2jQtyVbvynJTtGlakq3hlf2maNO0u9LW8cqKU7RpWpKt45UthzYNbRratCdCtGm3QZuGNg1tWmXQpqFNa3pXaNNmz294Pdq0x0GbNs0K39LamF0AHHDAAQcccMABBxxwwAFneJyNSQeggQYaaKCBBhpooIEGGmjGoXkb2QE44IADDjjggAMOOOCAA07/89Cm3Qdt2qRNO42hTbsOoE27vkybtvsoFmuakrM35RxMOUdTzsmUczblXEw5V1PO7Ef3UpCr0eGqdLg6Ha5Sh6vV4ap1uHodrmKHq9nF1exiu6tdzS6uZpemZi/Xo82i+u1oQkz6CfW70YSY9Nz3m9GEmPTM93vRhJj0vAtWNCXH1ON8jQlKNCXHVOV8hwk+NCXH1OZ8gQkyNOUeNPU5316CCU3JMfU5X139GrRZjGBBU3LSj0dwoCk56XEXDGhKTnrcBf+ZkpMed8V+JgW5Gp1vMEV9JgW5Sp0vMcV7JgW5ep3vMUV6Jt2Mrmbnq0wxnklBrmbn2wzdGbozdGdPhOjOboPuDN0ZurPKoDtDd9b0rtCdzZ7f8Hp0Z4+D7myaFb5dtTErADjggAMOOOCAAw444IADzvA4G5MFQAMNNNBAAw000EADDTTQjEPzNpICcMABBxxwwAEHHHDAAQec/uehO7sPurNJd3YeQnd22W1fd/YL4+t0Z7ujyXcmBO1dQQdX0NEVdHIFnV1BF1fQ1RX06ef2SpKt22Erd9jaHbZ6h63fYSt42BoetoqHrePF1vHiu79tHS+2jpe2jrdo0B6zFA9af07+KSkmtP6c/BZQXGj9OfkNoNjQ+nPy0y/50IQgV6Mr601SoglBrlJXdptkRROCXL2uLDZJjCbcjK5mV7aa5EYTglzNrqw0RY/2mCP50YSg/COSDGlCUH74JUeaEJQffsmSJgTlh1/zpClJtm5XNpumSlOSbPWuLDfNlqYk2Rpe2W+aME25K20dr6w4zZmmJNk6XtlyaNPQpqFNeyJEm3YbtGlo09CmVQZtGtq0pneFNm32/IbXo017HLRp06zwLa2N2QXAAQcccMABBxxwwAEHHHCGx9mYdAAaaKCBBhpooIEGGmiggWYcmreRHYADDjjggAMOOOCAAw444PQ/D23afdCmTdq0yxjatBhAmxYv06advv4otFdx4wrau4IOrqCjK+jkCjq7gi6uoKsraPbrey3J1u2wlTts7Q5bvcPW77AVPGwND1vFw9bxYut48d3fto4XW8dLW8eXa9PmWf3aNCUn/5T6tWlKTn4L9GvTlJz8BujXpik5+ekXtGlSkKvRlfUmaNOkIFepK7tN0KZJQa5eVxaboE2TbkZXsytbTdCmSUGuZldWWr82bZ4jaNOkoPwjErRpUlB++AVtmhSUH35BmyYF5Ydf0aZpSbZuVzabok3Tkmz1riw3RZumJdkaXtlvijZNuyttHa+sOEWbpiXZOl7ZcmjT0KahTXsiRJt2G7RpaNPQplUGbRratKZ3hTZt9vyG16NNexy0adOs8C2tjdkFwAEHHHDAAQcccMABBxxwhsfZmHQAGmiggQYaaKCBBhpooIFmHJq3kR2AAw444IADDjjggAMOOOD0Pw9t2n3Qpk3atOsY2rQygDatvEybtvsoFmuakrM35RxMOUdTzsmUczblXEw5V1PO7Ef3UpCr0eGqdLg6Ha5Sh6vV4ap1uHodrmKHq9nF1exiu6tdzS6uZpemZi/Xo82i+u1oQkz6CfW70YSY9Nz3m9GEmPTM93vRhJj0vAtWNCXH1ON8jQlKNCXHVOV8hwk+NCXH1OZ8gQkyNOUeNPU5316CCU3JMfU5X139GrRZjGBBU3LSj0dwoCk56XEXDGhKTnrcBf+ZkpMed8V+JgW5Gp1vMEV9JgW5Sp0vMcV7JgW5ep3vMUV6Jt2Mrmbnq0wxnklBrmbn2wzdGbozdGdPhOjOboPuDN0ZurPKoDtDd9b0rtCdzZ7f8Hp0Z4+D7myaFb5dtTErADjggAMOOOCAAw444IADzvA4G5MFQAMNNNBAAw000EADDTTQjEPzNpICcMABBxxwwAEHHHDAAQec/uehO7sPurNvurPTGLaz/QC2sz22M2xn3/+RPbYzbGfYzrCdLQnCdobtDNsZtjNsZ9jOsJ1hO2taXNjOsJ0tCsJ29v0gbGffD8J29v0gbGcZDLYzbGefB9vZN3xsZ58H29mSwXbW9npsZ9jOmt4VtrPZ8xtej+3scbCdTbPCl6s2JgUABxxwwAEHHHDAAQcccMAZHmdjrgBooIEGGmiggQYaaKCBBppxaN7GUQAOOOCAAw444IADDjjggNP/PGxn98F2NtnOdmPozg4D6M4OL9Sd7Y4m35kQtHcFHVxBR1fQyRV0dgVdXEFXV9Cnn9srSbZuh63cYWt32Oodtn6HreBha3jYKh62jhdbx4vv/rZ1vNg6Xto63qJBe8xSPGj9OfmnpJjQ+nPyW0BxofXn5DeAYkPrz8lPv+RDE4Jcja6sN0mJJgS5Sl3ZbZIVTQhy9bqy2CQxmnAzuppd2WqSG00IcjW7stIUPdpjjuRHE4Lyj0gypAlB+eGXHGlCUH74JUuaEJQffs2TpiTZul3ZbJoqTUmy1buy3DRbmpJka3hlv2nCNOWutHW8suI0Z5qSZOt4ZcuhTUObhjbtiRBt2m3QpqFNQ5tWGbRpaNOa3hXatNnzG16PNu1x0KZNs8K3tDZmFwAHHHDAAQcccMABBxxwwBkeZ2PSAWiggQYaaKCBBhpooIEGmnFo3kZ2AA444IADDjjggAMOOOCA0/88tGn3QZs2adNiDG3acQBt2vFl2rTT1x+F9ipuXEF7V9DBFXR0BZ1cQWdX0MUVdHUFzX59ryXZuh22coet3WGrd9j6HbaCh63hYat42DpebB0vvvvb1vFi63hp6/hybdo8q1+bpuTkn1K/Nk3JyW+Bfm2akpPfAP3aNCUnP/2CNk0KcjW6st4EbZoU5Cp1ZbcJ2jQpyNXrymITtGnSzehqdmWrCdo0KcjV7MpK69emzXMEbZoUlH9EgjZNCsoPv6BNk4Lywy9o06Sg/PAr2jQtydbtymZTtGlakq3eleWmaNO0JFvDK/tN0aZpd6Wt45UVp2jTtCRbxytbDm0a2jS0aU+EaNNugzYNbRratMqgTUOb1vSu0KbNnt/werRpj4M2bZoVvqW1MbsAOOCAAw444IADDjjggAPO8Dgbkw5AAw000EADDTTQQAMNNNCMQ/M2sgNwwAEHHHDAAQcccMABB5z+56FNuw/atEmbVsbQpp0G0KadXqZN230UizVNydmbcg6mnKMp52TKOZtyLqacqyln9qN7KcjV6HBVOlydDlepw9XqcNU6XL0OV7HD1ezianax3dWuZhdXs0tTs5fr0WZR/XY0ISb9hPrdaEJMeu77zWhCTHrm+71oQkx63gUrmpJj6nG+xgQlmpJjqnK+wwQfmpJjanO+wAQZmnIPmvqcby/BhKbkmPqcr65+DdosRrCgKTnpxyM40JSc9LgLBjQlJz3ugv9MyUmPu2I/k4Jcjc43mKI+k4Jcpc6XmOI9k4Jcvc73mCI9k25GV7PzVaYYz6QgV7PzbYbuDN0ZurMnQnRnt0F3hu4M3Vll0J2hO2t6V+jOZs9veD26s8dBdzbNCt+u2pgVABxwwAEHHHDAAQcccMABZ3icjckCoIEGGmiggQYaaKCBBhpoxqF5G0kBOOCAAw444IADDjjggANO//PQnd0H3dmkO9uPoTs7D6A7O79Qd7Y7mnxnQtDeFXRwBR1dQSdX0NkVdHEFXV1Bn35uryTZuh22coet3WGrd9j6HbaCh63hYat42DpebB0vvvvb1vFi63hp63iLBu0xS/Gg9efkn5JiQuvPyW8BxYXWn5PfAIoNrT8nP/2SD00IcjW6st4kJZoQ5Cp1ZbdJVjQhyNXrymKTxGjCzehqdmWrSW40IcjV7MpKU/RojzmSH00Iyj8iyZAmBOWHX3KkCUH54ZcsaUJQfvg1T5qSZOt2ZbNpqjQlyVbvynLTbGlKkq3hlf2mCdOUu9LW8cqK05xpSpKt45UthzYNbRratCdCtGm3QZuGNg1tWmXQpqFNa3pXaNNmz294Pdq0x0GbNs0K39LamF0AHHDAAQcccMABBxxwwAFneJyNSQeggQYaaKCBBhpooIEGGmjGoXkb2QE44IADDjjggAMOOOCAA07/89Cm3Qdt2qRNO4yhTbsMoE27vEybdvr6o9BexY0raO8KOriCjq6gkyvo7Aq6uIKurqDZr++1JFu3w1busLU7bPUOW7/DVvCwNTxsFQ9bx4ut48V3f9s6XmwdL20dX65Nm2f1a9OUnPxT6temKTn5LdCvTVNy8hugX5um5OSnX9CmSUGuRlfWm6BNk4Jcpa7sNkGbJgW5el1ZbII2TboZXc2ubDVBmyYFuZpdWWn92rR5jqBNk4Lyj0jQpklB+eEXtGlSUH74BW2aFJQffkWbpiXZul3ZbIo2TUuy1buy3BRtmpZka3hlvynaNO2utHW8suIUbZqWZOt4ZcuhTUObhjbtiRBt2m3QpqFNQ5tWGbRpaNOa3hXatNnzG16PNu1x0KZNs8K3tDZmFwAHHHDAAQcccMABBxxwwBkeZ2PSAWiggQYaaKCBBhpooIEGmnFo3kZ2AA444IADDjjggAMOOOCA0/88tGn3QZs2adOOY2jTrgNo064v06btPorFmqbk7E05B1PO0ZRzMuWcTTkXU87VlDP70b0U5Gp0uCodrk6Hq9ThanW4ah2uXoer2OFqdnE1u9jualezi6vZpanZy/Vos6h+O5oQk35C/W40ISY99/1mNCEmPfP9XjQhJj3vghVNyTH1OF9jghJNyTFVOd9hgg9NyTG1OV9gggxNuQdNfc63l2BCU3JMfc5XV78GbRYjWNCUnPTjERxoSk563AUDmpKTHnfBf6bkpMddsZ9JQa5G5xtMUZ9JQa5S50tM8Z5JQa5e53tMkZ5JN6Or2fkqU4xnUpCr2fk2Q3eG7gzd2RMhurPboDtDd4burDLoztCdNb0rdGez5ze8Ht3Z46A7m2aFb1dtzAoADjjggAMOOOCAAw444IAzPM7GZAHQQAMNNNBAAw000EADDTTj0LyNpAAccMABBxxwwAEHHHDAAaf/eejO7oPubNKdnYbQnV1329ed/cL4Ot3Z7mjynQlBe1fQwRV0dAWdXEFnV9DFFXR1BX36ub2SZOt22ModtnaHrd5h63fYCh62hoet4mHreLF1vPjub1vHi63jpa3jLRq0xyzFg9afk39KigmtPye/BRQXWn9OfgMoNrT+nPz0Sz40IcjV6Mp6k5RoQpCr1JXdJlnRhCBXryuLTRKjCTejq9mVrSa50YQgV7MrK03Roz3mSH40ISj/iCRDmhCUH37JkSYE5YdfsqQJQfnh1zxpSpKt25XNpqnSlCRbvSvLTbOlKUm2hlf2myZMU+5KW8crK05zpilJto5XthzaNLRpaNOeCNGm3QZtGto0tGmVQZuGNq3pXaFNmz2/4fVo0x4Hbdo0K3xLa2N2AXDAAQcccMABBxxwwAEHnOFxNiYdgAYaaKCBBhpooIEGGmigGYfmbWQH4IADDjjggAMOOOCAAw44/c9Dm3YftGmTNu08hjYtBtCmxcu0aaevPwrtVdy4gvauoIMr6OgKOrmCzq6giyvo6gqa/fpeS7J1O2zlDlu7w1bvsPU7bAUPW8PDVvGwdbzYOl5897et48XW8dLW8eXatHlWvzZNyck/pX5tmpKT3wL92jQlJ78B+rVpSk5++gVtmhTkanRlvQnaNCnIVerKbhO0aVKQq9eVxSZo06Sb0dXsylYTtGlSkKvZlZXWr02b5wjaNCko/4gEbZoUlB9+QZsmBeWHX9CmSUH54Ve0aVqSrduVzaZo07QkW70ry03RpmlJtoZX9puiTdPuSlvHKytO0aZpSbaOV7Yc2jS0aWjTngjRpt0GbRraNLRplUGbhjat6V2hTZs9v+H1aNMeB23aNCt8S2tjdgFwwAEHHHDAAQcccMABB5zhcTYmHYAGGmiggQYaaKCBBhpooBmH5m1kB+CAAw444IADDjjggAMOOP3PQ5t2H7RpkzbtMoY2rQygTSsv06btPorFmqbk7E05B1PO0ZRzMuWcTTkXU87VlDP70b0U5Gp0uCodrk6Hq9ThanW4ah2uXoer2OFqdnE1u9jualezi6vZpanZy/Vos6h+O5oQk35C/W40ISY99/1mNCEmPfP9XjQhJj3vghVNyTH1OF9jghJNyTFVOd9hgg9NyTG1OV9gggxNuQdNfc63l2BCU3JMfc5XV78GbRYjWNCUnPTjERxoSk563AUDmpKTHnfBf6bkpMddsZ9JQa5G5xtMUZ9JQa5S50tM8Z5JQa5e53tMkZ5JN6Or2fkqU4xnUpCr2fk2Q3eG7gzd2RMhurPboDtDd4burDLoztCdNb0rdGez5ze8Ht3Z46A7m2aFb1dtzAoADjjggAMOOOCAAw444IAzPM7GZAHQQAMNNNBAAw000EADDTTj0LyNpAAccMABBxxwwAEHHHDAAaf/eejO7oPubNKdXcfQne0H0J3tX6g72x1NvjMhaO8KOriCjq6gkyvo7Aq6uIKurqBPP7dXkmzdDlu5w9busNU7bP0OW8HD1vCwVTxsHS+2jhff/W3reLF1vLR1vEWD9pileND6c/JPSTGh9efkt4DiQuvPyW8AxYbWn5OffsmHJgS5Gl1Zb5ISTQhylbqy2yQrmhDk6nVlsUliNOFmdDW7stUkN5oQ5Gp2ZaUperTHHMmPJgTlH5FkSBOC8sMvOdKEoPzwS5Y0ISg//JonTUmydbuy2TRVmpJkq3dluWm2NCXJ1vDKftOEacpdaet4ZcVpzjQlydbxypZDm4Y2DW3aEyHatNugTUObhjatMmjT0KY1vSu0abPnN7webdrjoE2bZoVvaW3MLgAOOOCAAw444IADDjjggDM8zsakA9BAAw000EADDTTQQAMNNOPQvI3sABxwwAEHHHDAAQcccMABp/95aNPugzbtmzbtPIY17TCANe2ANa0vCGva94Owpi1KwpqGNQ1rGtY0rGlY07CmYU3DmvarNyPWtO8HYU37bhDWNKxpWNOwpmFNW5SENa02WNN+fZb879NY0+rRWNO+4WNN+zxY05YM1rS212NNw5rW9K6wps2e3/B6rGmPgzVtmhW+pLUxuQA44IADDjjggAMOOOCAA87wOBtzDkADDTTQQAMNNNBAAw000IxD8zauA3DAAQcccMABBxxwwAEHnP7nYU27D9a0yZq2G0ObdhxAm3Z8mTbt9PVHob2KG1fQ3hV0cAUdXUEnV9DZFXRxBV1dQbNf32tJtm6Hrdxha3fY6h22foet4GFreNgqHraOF1vHi+/+tnW82Dpe2jq+XJs2z+rXpik5+afUr01TcvJboF+bpuTkN0C/Nk3JyU+/oE2TglyNrqw3QZsmBblKXdltgjZNCnL1urLYBG2adDO6ml3ZaoI2TQpyNbuy0vq1afMcQZsmBeUfkaBNk4Lywy9o06Sg/PAL2jQpKD/8ijZNS7J1u7LZFG2almSrd2W5Kdo0LcnW8Mp+U7Rp2l1p63hlxSnaNC3J1vHKlkObhjYNbdoTIdq026BNQ5uGNq0yaNPQpjW9K7Rps+c3vB5t2uOgTZtmhW9pbcwuAA444IADDjjggAMOOOCAMzzOxqQD0EADDTTQQAMNNNBAAw0049C8jewAHHDAAQcccMABBxxwwAGn/3lo0+6DNm3SpsUY2rTTANq008u0abuPYrGmKTl7U87BlHM05ZxMOWdTzsWUczXlzH50LwW5Gh2uSoer0+EqdbhaHa5ah6vX4Sp2uJpdXM0utrva1ezianZpavZyPdosqt+OJsSkn1C/G02ISc99vxlNiEnPfL8XTYhJz7tgRVNyTD3O15igRFNyTFXOd5jgQ1NyTG3OF5ggQ1PuQVOf8+0lmNCUHFOf89XVr0GbxQgWNCUn/XgEB5qSkx53wYCm5KTHXfCfKTnpcVfsZ1KQq9H5BlPUZ1KQq9T5ElO8Z1KQq9f5HlOkZ9LN6Gp2vsoU45kU5Gp2vs3QnaE7Q3f2RIju7DboztCdoTurDLozdGdN7wrd2ez5Da9Hd/Y46M6mWeHbVRuzAoADDjjggAMOOOCAAw444AyPszFZADTQQAMNNNBAAw000EADzTg0byMpAAcccMABBxxwwAEHHHDA6X8eurP7oDubdGdlDN3ZeQDd2fmFurPd0eQ7E4L2rqCDK+joCjq5gs6uoIsr6OoK+vRzeyXJ1u2wlTts7Q5bvcPW77AVPGwND1vFw9bxYut48d3fto4XW8dLW8dbNGiPWYoHrT8n/5QUE1p/Tn4LKC60/pz8BlBsaP05+emXfGhCkKvRlfUmKdGEIFepK7tNsqIJQa5eVxabJEYTbkZXsytbTXKjCUGuZldWmqJHe8yR/GhCUP4RSYY0ISg//JIjTQjKD79kSROC8sOvedKUJFu3K5tNU6UpSbZ6V5abZktTkmwNr+w3TZim3JW2jldWnOZMU5JsHa9sObRpaNPQpj0Rok27Ddo0tGlo0yqDNg1tWtO7Qps2e37D69GmPQ7atGlW+JbWxuwC4IADDjjggAMOOOCAAw44w+NsTDoADTTQQAMNNNBAAw000EAzDs3byA7AAQcccMABBxxwwAEHHHD6n4c27T5o0yZt2n4MbdplAG3a5WXatNPXH4X2Km5cQXtX0MEVdHQFnVxBZ1fQxRV0dQXNfn2vJdm6HbZyh63dYat32PodtoKHreFhq3jYOl5sHS+++9vW8WLreGnr+HJt2jyrX5um5OSfUr82TcnJb4F+bZqSk98A/do0JSc//YI2TQpyNbqy3gRtmhTkKnVltwnaNCnI1evKYhO0adLN6Gp2ZasJ2jQpyNXsykrr16bNcwRtmhSUf0SCNk0Kyg+/oE2TgvLDL2jTpKD88CvaNC3J1u3KZlO0aVqSrd6V5aZo07QkW8Mr+03Rpml3pa3jlRWnaNO0JFvHK1sObRraNLRpT4Ro026DNg1tGtq0yqBNQ5vW9K7Qps2e3/B6tGmPgzZtmhW+pbUxuwA44IADDjjggAMOOOCAA87wOBuTDkADDTTQQAMNNNBAAw000IxD8zayA3DAAQcccMABBxxwwAEHnP7noU27D9q0SZt2GEObdh1Am3ZFm9YXhDbt+0Fo0xYloU1Dm4Y2DW0a2jS0aWjT0KahTfvVmxFt2veD0KZ9NwhtGto0tGlo02xJaNOWJaFNy2HQpqFN+zxo077ho037PGjTlgzatLbXo01Dm9b0rtCmzZ7f8Hq0aY+DNm2aFb6ltTG7ADjggAMOOOCAAw444IADzvA4G5MOQAMNNNBAAw000EADDTTQjEPzNrIDcMABBxxwwAEHHHDAAQec/uehTbsP2rRv2rTLENa02O22r027Qb7Km7b7KBZtmpKzN+UcTDlHU87JlHM25VxMOVdTzuxX91KQq9HhqnS4Oh2uUoer1eGqdbh6Ha5ih6vZxdXsYrurXc0urmaXpmYv96PNovr1aEJM+gn1y9GEmPTc96vRhJj0zPeL0YSY9LwLWjQlx9TjfI0JTjQlx1TlfIcJQjQlx9TmfIEJNjTlHjT1Od9eggpNyTH1OV9d/R60WYygQVNy0o9HkKApOelxFxRoSk563AUBmpKTHndFfyYFuRqdbzDFfSYFuUqdLzFFfCYFuXqd7zHFeibdjK5m56tMUZ5JQa5m59sM3xm+M3xnT4T4zm6D7wzfGb6zyuA7w3fW9K7wnc2e3/B6fGePg+9smhW+XrUxLQA44IADDjjggAMOOOCAA87wOBuzBUADDTTQQAMNNNBAAw000IxD8zaWAnDAAQcccMABBxxwwAEHnP7n4Tu7D76zb76z6yC+sxjBdxYv853FYfexe5g4WPRnxtj9OrGHdWKP68Se1ok9rxN7WSf2uk7s7Nf+ztyVzlmsdNBipZMWKx21WOmsxUqHLVY6bbHScYuVzltZ6byVtfbaSuetrHTeinLelnvlasn9mjlf6tJPt19C50tdepP1K+p8qUtvsX6BnS916Q0m6O2MseucrsV/LgguPGPsOgds8d8KgjjPGLvOGVv8h4Jg2TNuhXVO2eK/EgQlnzF2nVO2+E+Efn9fLVXQ+Rljl360guzPGLv0AhNUgMbYpReYIAo0xi69wBSNoDN3pXO2+C8FxTnozF3pqC3+Y0ERFDpzVzpti/9eUGyGzj2x0nlb/CeDoj505q503hb/1YAnEU8insQnQjyJt8GTiCcRT2Jl8CTiSWx6V3gSZ89veD2exMfBkzjNCl/L3JhOBBxwwAEHHHDAAQcccMABZ3icjVlGoIEGGmiggQYaaKCBBhpoxqF5G7sJOOCAAw444IADDjjggANO//P+GzyJ//TlD//x5eff/Pk/f/7yw//82/+FNnFb2sQvP//Xj7/98sM//+bWvL//6af/+OH2/7Db95wPu78dRKFYRlAolpcpFE/Xj+vDXK4Wg6Ivdb9K6mGV1OMqqadVUs+rpF5WSb2ukjoTHBhj1zldsc7xinXOV6xzwGKdExbrHLFY54zFOocs1jllZZ1TVlbaYeucsrLOKSvCKVuuSqwE95sSbaELP9l+T6ItdOHd1W9JtIUuvLf6HYm20IV3lmBI9KWucqaW/lkg6BF9qascq6V/EwhuRF/qKidr6R8EghjRtwNWOVtL/xoQrIi+1FXO1tI/BfqViJVQwYjoS134sQo+RF/qwitLsCH6UhdeWYIL0Ze68MpSTIjG2HVO19K/CBQNojF2nQO29I8CxYFojF3njC39u0ARIBq3wjqnbOmfBor90Bi7zilb+tcB6kPUh6gPnwhRH94G9SHqQ9SHlUF9iPqw6V2hPpw9v+H1qA8fB/XhNCt803JjhhBwwAEHHHDAAQcccMABB5zhcTYmDoEGGmiggQYaaKCBBhpooBmH5m2EJeCAAw444IADDjjggAMOOP3PQ3346/O26sO/Kg//7svX//g/f/iXH7/88c9/lR/+42//9cvv/vOXz/9//3AeRoK4H0GCuH+ZBPHrT097JUymnL0p52DKOZpyTqacsynnYsq5mnJmdgEpyNXocFU6XJ0OV6nD1epw1TpcvQ5XscPV7OJqdrHd1a5mF1ezS1Ozl0v7ZlH9mj4hJv2E+lV8Qkx67vt1e0JMeub7lXpCTHreBW2ekmPqcb7GBBmekmOqcr7DBMWdkmNqc77ABHGdcg+a+pxvL0FHp+SY+pyvrn7J3CxG0MopOenHI6jjlJz0uAt6OCUnPe6CAk7JSY+7onmTglyNzjeYIm+TglylzpeYomSTgly9zveYIlqTbkZXs/NVpujTpCBXs/NthhRtCCka/8w/88/8M//MP/PP/DP/zD/zz/wz/8w/88/8M/+8pX/+y8dP//Xl559//N2Xf/jN7X+oio8dUvyHd4IUfxqk+E2DFB8pfsMgxf88SPE/D1L8xkGKjxT/VwcpPjjggAMOOOCAAw444IADDjgjKCWhgQYaaKCBBhpooIEGGmjGoXkblSU44IADDjjggAMOOOCAA07/8/4bpPj/98c/fPnjn3786Y///uVPf0KJvy0l/k8//9sP/+/3v//xtz9++eNv/zKJ8F+rwL+/+tO/PP7f3/77X/9zSr//l+k//uWn3/3l9p//+uc//Pvf/I//D5EBLN4="
               },
               {
                  "name" : "annual_peak_electric_demand",
                  "units" : "kW",
                  "value" : 219.90832
               },
               {
                  "name" : "first_year_capital_cost",
                  "units" : "$",
                  "value" : 0
               },
               {
                  "name" : "annual_utility_cost",
                  "units" : "$",
                  "value" : 56420.599999999999
               },
               {
                  "name" : "total_lifecycle_cost",
                  "units" : "$",
                  "value" : 944616.92000000004
               }
            ],
            "step_warnings" : [ "A table in Annual Overview section returned false and was skipped." ]
         }
      }
   ],
   "updated_at" : "20170710T193053Z",
   "weather_file" : "USA_CO_Denver.Intl.AP.725650_TMY3.epw"
}
