{
   "completed_at" : "20170710T192034Z",
   "completed_status" : "Success",
   "created_at" : "2017-07-10 18:56:38 +0000",
   "current_step" : 5,
   "description" : "",
   "eplusout_err" : "Program Version,EnergyPlus, Version 8.7.0-78a111df4a, YMD=2017.07.10 19:08,IDD_Version 8.7.0\n   ************* IDF Context for following error/warning message:\n   ************* Note -- lines truncated at 300 characters, if necessary...\n   *************      5 Building,\n   ************* indicated Name=NECB 2011-Hospital-NECB HDD Method-CAN_NB_Miramichi.717440_CWEC.epw created: 2017-07-10 18:56:48 +0000\n   ************* Only last 1 lines before error line shown.....\n   *************      6   NECB 2011-Hospital-NECB HDD Method-CAN_NB_Miramichi.717440_CWEC.epw created: 2017-07-10 18:56:48 +0000, !- Name\n   ** Warning ** IP: IDF line~6 Alpha Argument length exceeds maximum, will be truncated=  NECB 2011-Hospital-NECB HDD Method-CAN_NB_Miramichi.717440_CWEC.epw created: 2017-07-10 18:56:48 +000\n   **   ~~~   ** Will be processed as Alpha=NECB 2011-HOSPITAL-NECB HDD METHOD-CAN_NB_MIRAMICHI.717440_CWEC.EPW CREATED: 2017-07-10 18:56:48 +0000\n   ************* IDF Context for following error/warning message:\n   ************* Note -- lines truncated at 300 characters, if necessary...\n   *************   5704 Schedule:Week:Daily,\n   ************* indicated Name=Schedule:Week:Daily {4d61ac77-01cd-480d-801f-e83bf7fc4acc}\n   ************* Only last 10 lines before error line shown.....\n   *************   5705   Schedule:Week:Daily {4d61ac77-01cd-480d-801f-e83bf7fc4acc}, !- Name\n   *************   5706   Sp-ER_NurseStn_Lobby_Flr_1 Sys-3 Flr-1 Sch-H HPlcmt-east ZN NECB System 3 PSZ Occ Sch Sunday, !- Sunday Schedule:Day Name\n   *************   5707   Sp-ER_NurseStn_Lobby_Flr_1 Sys-3 Flr-1 Sch-H HPlcmt-east ZN NECB System 3 PSZ Occ Sch Monday, !- Monday Schedule:Day Name\n   *************   5708   Sp-ER_NurseStn_Lobby_Flr_1 Sys-3 Flr-1 Sch-H HPlcmt-east ZN NECB System 3 PSZ Occ Sch Tuesday, !- Tuesday Schedule:Day Name\n   *************   5709   Sp-ER_NurseStn_Lobby_Flr_1 Sys-3 Flr-1 Sch-H HPlcmt-east ZN NECB System 3 PSZ Occ Sch Wednesday, !- Wednesday Schedule:Day Name\n   *************   5710   Sp-ER_NurseStn_Lobby_Flr_1 Sys-3 Flr-1 Sch-H HPlcmt-east ZN NECB System 3 PSZ Occ Sch Thursday, !- Thursday Schedule:Day Name\n   *************   5711   Sp-ER_NurseStn_Lobby_Flr_1 Sys-3 Flr-1 Sch-H HPlcmt-east ZN NECB System 3 PSZ Occ Sch Friday, !- Friday Schedule:Day Name\n   *************   5712   Sp-ER_NurseStn_Lobby_Flr_1 Sys-3 Flr-1 Sch-H HPlcmt-east ZN NECB System 3 PSZ Occ Sch Saturday, !- Saturday Schedule:Day Name\n   *************   5713   Sp-ER_NurseStn_Lobby_Flr_1 Sys-3 Flr-1 Sch-H HPlcmt-east ZN NECB System 3 PSZ Occ Sch Default, !- Holiday Schedule:Day Name\n   *************   5714   Sp-ER_NurseStn_Lobby_Flr_1 Sys-3 Flr-1 Sch-H HPlcmt-east ZN NECB System 3 PSZ Occ Sch Summer Design Day, !- SummerDesignDay Schedule:Day Name\n   ** Warning ** IP: IDF line~5714 Alpha Argument length exceeds maximum, will be truncated=  Sp-ER_NurseStn_Lobby_Flr_1 Sys-3 Flr-1 Sch-H HPlcmt-east ZN NECB System 3 PSZ Occ Sch Summer Design Da\n   **   ~~~   ** Will be processed as Alpha=SP-ER_NURSESTN_LOBBY_FLR_1 SYS-3 FLR-1 SCH-H HPLCMT-EAST ZN NECB SYSTEM 3 PSZ OCC SCH SUMMER DESIGN DAY\n   ************* IDF Context for following error/warning message:\n   ************* Note -- lines truncated at 300 characters, if necessary...\n   *************   5704 Schedule:Week:Daily,\n   ************* indicated Name=Schedule:Week:Daily {4d61ac77-01cd-480d-801f-e83bf7fc4acc}\n   ************* Only last 10 lines before error line shown.....\n   *************   5706   Sp-ER_NurseStn_Lobby_Flr_1 Sys-3 Flr-1 Sch-H HPlcmt-east ZN NECB System 3 PSZ Occ Sch Sunday, !- Sunday Schedule:Day Name\n   *************   5707   Sp-ER_NurseStn_Lobby_Flr_1 Sys-3 Flr-1 Sch-H HPlcmt-east ZN NECB System 3 PSZ Occ Sch Monday, !- Monday Schedule:Day Name\n   *************   5708   Sp-ER_NurseStn_Lobby_Flr_1 Sys-3 Flr-1 Sch-H HPlcmt-east ZN NECB System 3 PSZ Occ Sch Tuesday, !- Tuesday Schedule:Day Name\n   *************   5709   Sp-ER_NurseStn_Lobby_Flr_1 Sys-3 Flr-1 Sch-H HPlcmt-east ZN NECB System 3 PSZ Occ Sch Wednesday, !- Wednesday Schedule:Day Name\n   *************   5710   Sp-ER_NurseStn_Lobby_Flr_1 Sys-3 Flr-1 Sch-H HPlcmt-east ZN NECB System 3 PSZ Occ Sch Thursday, !- Thursday Schedule:Day Name\n   *************   5711   Sp-ER_NurseStn_Lobby_Flr_1 Sys-3 Flr-1 Sch-H HPlcmt-east ZN NECB System 3 PSZ Occ Sch Friday, !- Friday Schedule:Day Name\n   *************   5712   Sp-ER_NurseStn_Lobby_Flr_1 Sys-3 Flr-1 Sch-H HPlcmt-east ZN NECB System 3 PSZ Occ Sch Saturday, !- Saturday Schedule:Day Name\n   *************   5713   Sp-ER_NurseStn_Lobby_Flr_1 Sys-3 Flr-1 Sch-H HPlcmt-east ZN NECB System 3 PSZ Occ Sch Default, !- Holiday Schedule:Day Name\n   *************   5714   Sp-ER_NurseStn_Lobby_Flr_1 Sys-3 Flr-1 Sch-H HPlcmt-east ZN NECB System 3 PSZ Occ Sch Summer Design Day, !- SummerDesignDay Schedule:Day Name\n   *************   5715   Sp-ER_NurseStn_Lobby_Flr_1 Sys-3 Flr-1 Sch-H HPlcmt-east ZN NECB System 3 PSZ Occ Sch Winter Design Day, !- WinterDesignDay Schedule:Day Name\n   ** Warning ** IP: IDF line~5715 Alpha Argument length exceeds maximum, will be truncated=  Sp-ER_NurseStn_Lobby_Flr_1 Sys-3 Flr-1 Sch-H HPlcmt-east ZN NECB System 3 PSZ Occ Sch Winter Design Da\n   **   ~~~   ** Will be processed as Alpha=SP-ER_NURSESTN_LOBBY_FLR_1 SYS-3 FLR-1 SCH-H HPLCMT-EAST ZN NECB SYSTEM 3 PSZ OCC SCH WINTER DESIGN DAY\n   ************* IDF Context for following error/warning message:\n   ************* Note -- lines truncated at 300 characters, if necessary...\n   *************   5735 Schedule:Day:Interval,\n   ************* indicated Name=Sp-ER_NurseStn_Lobby_Flr_1 Sys-3 Flr-1 Sch-H HPlcmt-east ZN NECB System 3 PSZ Occ Sch Summer Design Day\n   ************* Only last 1 lines before error line shown.....\n   *************   5736   Sp-ER_NurseStn_Lobby_Flr_1 Sys-3 Flr-1 Sch-H HPlcmt-east ZN NECB System 3 PSZ Occ Sch Summer Design Day, !- Name\n   ** Warning ** IP: IDF line~5736 Alpha Argument length exceeds maximum, will be truncated=  Sp-ER_NurseStn_Lobby_Flr_1 Sys-3 Flr-1 Sch-H HPlcmt-east ZN NECB System 3 PSZ Occ Sch Summer Design Da\n   **   ~~~   ** Will be processed as Alpha=SP-ER_NURSESTN_LOBBY_FLR_1 SYS-3 FLR-1 SCH-H HPLCMT-EAST ZN NECB SYSTEM 3 PSZ OCC SCH SUMMER DESIGN DAY\n   ************* IDF Context for following error/warning message:\n   ************* Note -- lines truncated at 300 characters, if necessary...\n   *************   5742 Schedule:Day:Interval,\n   ************* indicated Name=Sp-ER_NurseStn_Lobby_Flr_1 Sys-3 Flr-1 Sch-H HPlcmt-east ZN NECB System 3 PSZ Occ Sch Winter Design Day\n   ************* Only last 1 lines before error line shown.....\n   *************   5743   Sp-ER_NurseStn_Lobby_Flr_1 Sys-3 Flr-1 Sch-H HPlcmt-east ZN NECB System 3 PSZ Occ Sch Winter Design Day, !- Name\n   ** Warning ** IP: IDF line~5743 Alpha Argument length exceeds maximum, will be truncated=  Sp-ER_NurseStn_Lobby_Flr_1 Sys-3 Flr-1 Sch-H HPlcmt-east ZN NECB System 3 PSZ Occ Sch Winter Design Da\n   **   ~~~   ** Will be processed as Alpha=SP-ER_NURSESTN_LOBBY_FLR_1 SYS-3 FLR-1 SCH-H HPLCMT-EAST ZN NECB SYSTEM 3 PSZ OCC SCH WINTER DESIGN DAY\n   ************* IDF Context for following error/warning message:\n   ************* Note -- lines truncated at 300 characters, if necessary...\n   *************   7141 Schedule:Week:Daily,\n   ************* indicated Name=Schedule:Week:Daily {85187cf1-6345-4d8e-b0dd-75480bb90b17}\n   ************* Only last 10 lines before error line shown.....\n   *************   7142   Schedule:Week:Daily {85187cf1-6345-4d8e-b0dd-75480bb90b17}, !- Name\n   *************   7143   Sp-ICU_NurseStn_Lobby_Flr_2 Sys-3 Flr-4 Sch-H HPlcmt-core ZN NECB System 3 PSZ Occ Sch Sunday, !- Sunday Schedule:Day Name\n   *************   7144   Sp-ICU_NurseStn_Lobby_Flr_2 Sys-3 Flr-4 Sch-H HPlcmt-core ZN NECB System 3 PSZ Occ Sch Monday, !- Monday Schedule:Day Name\n   *************   7145   Sp-ICU_NurseStn_Lobby_Flr_2 Sys-3 Flr-4 Sch-H HPlcmt-core ZN NECB System 3 PSZ Occ Sch Tuesday, !- Tuesday Schedule:Day Name\n   *************   7146   Sp-ICU_NurseStn_Lobby_Flr_2 Sys-3 Flr-4 Sch-H HPlcmt-core ZN NECB System 3 PSZ Occ Sch Wednesday, !- Wednesday Schedule:Day Name\n   *************   7147   Sp-ICU_NurseStn_Lobby_Flr_2 Sys-3 Flr-4 Sch-H HPlcmt-core ZN NECB System 3 PSZ Occ Sch Thursday, !- Thursday Schedule:Day Name\n   *************   7148   Sp-ICU_NurseStn_Lobby_Flr_2 Sys-3 Flr-4 Sch-H HPlcmt-core ZN NECB System 3 PSZ Occ Sch Friday, !- Friday Schedule:Day Name\n   *************   7149   Sp-ICU_NurseStn_Lobby_Flr_2 Sys-3 Flr-4 Sch-H HPlcmt-core ZN NECB System 3 PSZ Occ Sch Saturday, !- Saturday Schedule:Day Name\n   *************   7150   Sp-ICU_NurseStn_Lobby_Flr_2 Sys-3 Flr-4 Sch-H HPlcmt-core ZN NECB System 3 PSZ Occ Sch Default, !- Holiday Schedule:Day Name\n   *************   7151   Sp-ICU_NurseStn_Lobby_Flr_2 Sys-3 Flr-4 Sch-H HPlcmt-core ZN NECB System 3 PSZ Occ Sch Summer Design Day, !- SummerDesignDay Schedule:Day Name\n   ** Warning ** IP: IDF line~7151 Alpha Argument length exceeds maximum, will be truncated=  Sp-ICU_NurseStn_Lobby_Flr_2 Sys-3 Flr-4 Sch-H HPlcmt-core ZN NECB System 3 PSZ Occ Sch Summer Design Da\n   **   ~~~   ** Will be processed as Alpha=SP-ICU_NURSESTN_LOBBY_FLR_2 SYS-3 FLR-4 SCH-H HPLCMT-CORE ZN NECB SYSTEM 3 PSZ OCC SCH SUMMER DESIGN DAY\n   ************* IDF Context for following error/warning message:\n   ************* Note -- lines truncated at 300 characters, if necessary...\n   *************   7141 Schedule:Week:Daily,\n   ************* indicated Name=Schedule:Week:Daily {85187cf1-6345-4d8e-b0dd-75480bb90b17}\n   ************* Only last 10 lines before error line shown.....\n   *************   7143   Sp-ICU_NurseStn_Lobby_Flr_2 Sys-3 Flr-4 Sch-H HPlcmt-core ZN NECB System 3 PSZ Occ Sch Sunday, !- Sunday Schedule:Day Name\n   *************   7144   Sp-ICU_NurseStn_Lobby_Flr_2 Sys-3 Flr-4 Sch-H HPlcmt-core ZN NECB System 3 PSZ Occ Sch Monday, !- Monday Schedule:Day Name\n   *************   7145   Sp-ICU_NurseStn_Lobby_Flr_2 Sys-3 Flr-4 Sch-H HPlcmt-core ZN NECB System 3 PSZ Occ Sch Tuesday, !- Tuesday Schedule:Day Name\n   *************   7146   Sp-ICU_NurseStn_Lobby_Flr_2 Sys-3 Flr-4 Sch-H HPlcmt-core ZN NECB System 3 PSZ Occ Sch Wednesday, !- Wednesday Schedule:Day Name\n   *************   7147   Sp-ICU_NurseStn_Lobby_Flr_2 Sys-3 Flr-4 Sch-H HPlcmt-core ZN NECB System 3 PSZ Occ Sch Thursday, !- Thursday Schedule:Day Name\n   *************   7148   Sp-ICU_NurseStn_Lobby_Flr_2 Sys-3 Flr-4 Sch-H HPlcmt-core ZN NECB System 3 PSZ Occ Sch Friday, !- Friday Schedule:Day Name\n   *************   7149   Sp-ICU_NurseStn_Lobby_Flr_2 Sys-3 Flr-4 Sch-H HPlcmt-core ZN NECB System 3 PSZ Occ Sch Saturday, !- Saturday Schedule:Day Name\n   *************   7150   Sp-ICU_NurseStn_Lobby_Flr_2 Sys-3 Flr-4 Sch-H HPlcmt-core ZN NECB System 3 PSZ Occ Sch Default, !- Holiday Schedule:Day Name\n   *************   7151   Sp-ICU_NurseStn_Lobby_Flr_2 Sys-3 Flr-4 Sch-H HPlcmt-core ZN NECB System 3 PSZ Occ Sch Summer Design Day, !- SummerDesignDay Schedule:Day Name\n   *************   7152   Sp-ICU_NurseStn_Lobby_Flr_2 Sys-3 Flr-4 Sch-H HPlcmt-core ZN NECB System 3 PSZ Occ Sch Winter Design Day, !- WinterDesignDay Schedule:Day Name\n   ** Warning ** IP: IDF line~7152 Alpha Argument length exceeds maximum, will be truncated=  Sp-ICU_NurseStn_Lobby_Flr_2 Sys-3 Flr-4 Sch-H HPlcmt-core ZN NECB System 3 PSZ Occ Sch Winter Design Da\n   **   ~~~   ** Will be processed as Alpha=SP-ICU_NURSESTN_LOBBY_FLR_2 SYS-3 FLR-4 SCH-H HPLCMT-CORE ZN NECB SYSTEM 3 PSZ OCC SCH WINTER DESIGN DAY\n   ************* IDF Context for following error/warning message:\n   ************* Note -- lines truncated at 300 characters, if necessary...\n   *************   7172 Schedule:Day:Interval,\n   ************* indicated Name=Sp-ICU_NurseStn_Lobby_Flr_2 Sys-3 Flr-4 Sch-H HPlcmt-core ZN NECB System 3 PSZ Occ Sch Summer Design Day\n   ************* Only last 1 lines before error line shown.....\n   *************   7173   Sp-ICU_NurseStn_Lobby_Flr_2 Sys-3 Flr-4 Sch-H HPlcmt-core ZN NECB System 3 PSZ Occ Sch Summer Design Day, !- Name\n   ** Warning ** IP: IDF line~7173 Alpha Argument length exceeds maximum, will be truncated=  Sp-ICU_NurseStn_Lobby_Flr_2 Sys-3 Flr-4 Sch-H HPlcmt-core ZN NECB System 3 PSZ Occ Sch Summer Design Da\n   **   ~~~   ** Will be processed as Alpha=SP-ICU_NURSESTN_LOBBY_FLR_2 SYS-3 FLR-4 SCH-H HPLCMT-CORE ZN NECB SYSTEM 3 PSZ OCC SCH SUMMER DESIGN DAY\n   ************* IDF Context for following error/warning message:\n   ************* Note -- lines truncated at 300 characters, if necessary...\n   *************   7179 Schedule:Day:Interval,\n   ************* indicated Name=Sp-ICU_NurseStn_Lobby_Flr_2 Sys-3 Flr-4 Sch-H HPlcmt-core ZN NECB System 3 PSZ Occ Sch Winter Design Day\n   ************* Only last 1 lines before error line shown.....\n   *************   7180   Sp-ICU_NurseStn_Lobby_Flr_2 Sys-3 Flr-4 Sch-H HPlcmt-core ZN NECB System 3 PSZ Occ Sch Winter Design Day, !- Name\n   ** Warning ** IP: IDF line~7180 Alpha Argument length exceeds maximum, will be truncated=  Sp-ICU_NurseStn_Lobby_Flr_2 Sys-3 Flr-4 Sch-H HPlcmt-core ZN NECB System 3 PSZ Occ Sch Winter Design Da\n   **   ~~~   ** Will be processed as Alpha=SP-ICU_NURSESTN_LOBBY_FLR_2 SYS-3 FLR-4 SCH-H HPLCMT-CORE ZN NECB SYSTEM 3 PSZ OCC SCH WINTER DESIGN DAY\n   ************* IDF Context for following error/warning message:\n   ************* Note -- lines truncated at 300 characters, if necessary...\n   *************   7990 Schedule:Week:Daily,\n   ************* indicated Name=Schedule:Week:Daily {2f8f0b9e-11ce-44af-9a9b-1ed9714d3657}\n   ************* Only last 10 lines before error line shown.....\n   *************   7991   Schedule:Week:Daily {2f8f0b9e-11ce-44af-9a9b-1ed9714d3657}, !- Name\n   *************   7992   Sp-IC_PatRoom3_Mult6_Flr_2 Sys-3 Flr-4 Sch-H HPlcmt-west ZN NECB System 3 PSZ Occ Sch Sunday, !- Sunday Schedule:Day Name\n   *************   7993   Sp-IC_PatRoom3_Mult6_Flr_2 Sys-3 Flr-4 Sch-H HPlcmt-west ZN NECB System 3 PSZ Occ Sch Monday, !- Monday Schedule:Day Name\n   *************   7994   Sp-IC_PatRoom3_Mult6_Flr_2 Sys-3 Flr-4 Sch-H HPlcmt-west ZN NECB System 3 PSZ Occ Sch Tuesday, !- Tuesday Schedule:Day Name\n   *************   7995   Sp-IC_PatRoom3_Mult6_Flr_2 Sys-3 Flr-4 Sch-H HPlcmt-west ZN NECB System 3 PSZ Occ Sch Wednesday, !- Wednesday Schedule:Day Name\n   *************   7996   Sp-IC_PatRoom3_Mult6_Flr_2 Sys-3 Flr-4 Sch-H HPlcmt-west ZN NECB System 3 PSZ Occ Sch Thursday, !- Thursday Schedule:Day Name\n   *************   7997   Sp-IC_PatRoom3_Mult6_Flr_2 Sys-3 Flr-4 Sch-H HPlcmt-west ZN NECB System 3 PSZ Occ Sch Friday, !- Friday Schedule:Day Name\n   *************   7998   Sp-IC_PatRoom3_Mult6_Flr_2 Sys-3 Flr-4 Sch-H HPlcmt-west ZN NECB System 3 PSZ Occ Sch Saturday, !- Saturday Schedule:Day Name\n   *************   7999   Sp-IC_PatRoom3_Mult6_Flr_2 Sys-3 Flr-4 Sch-H HPlcmt-west ZN NECB System 3 PSZ Occ Sch Default, !- Holiday Schedule:Day Name\n   *************   8000   Sp-IC_PatRoom3_Mult6_Flr_2 Sys-3 Flr-4 Sch-H HPlcmt-west ZN NECB System 3 PSZ Occ Sch Summer Design Day, !- SummerDesignDay Schedule:Day Name\n   ** Warning ** IP: IDF line~8000 Alpha Argument length exceeds maximum, will be truncated=  Sp-IC_PatRoom3_Mult6_Flr_2 Sys-3 Flr-4 Sch-H HPlcmt-west ZN NECB System 3 PSZ Occ Sch Summer Design Da\n   **   ~~~   ** Will be processed as Alpha=SP-IC_PATROOM3_MULT6_FLR_2 SYS-3 FLR-4 SCH-H HPLCMT-WEST ZN NECB SYSTEM 3 PSZ OCC SCH SUMMER DESIGN DAY\n   ************* IDF Context for following error/warning message:\n   ************* Note -- lines truncated at 300 characters, if necessary...\n   *************   7990 Schedule:Week:Daily,\n   ************* indicated Name=Schedule:Week:Daily {2f8f0b9e-11ce-44af-9a9b-1ed9714d3657}\n   ************* Only last 10 lines before error line shown.....\n   *************   7992   Sp-IC_PatRoom3_Mult6_Flr_2 Sys-3 Flr-4 Sch-H HPlcmt-west ZN NECB System 3 PSZ Occ Sch Sunday, !- Sunday Schedule:Day Name\n   *************   7993   Sp-IC_PatRoom3_Mult6_Flr_2 Sys-3 Flr-4 Sch-H HPlcmt-west ZN NECB System 3 PSZ Occ Sch Monday, !- Monday Schedule:Day Name\n   *************   7994   Sp-IC_PatRoom3_Mult6_Flr_2 Sys-3 Flr-4 Sch-H HPlcmt-west ZN NECB System 3 PSZ Occ Sch Tuesday, !- Tuesday Schedule:Day Name\n   *************   7995   Sp-IC_PatRoom3_Mult6_Flr_2 Sys-3 Flr-4 Sch-H HPlcmt-west ZN NECB System 3 PSZ Occ Sch Wednesday, !- Wednesday Schedule:Day Name\n   *************   7996   Sp-IC_PatRoom3_Mult6_Flr_2 Sys-3 Flr-4 Sch-H HPlcmt-west ZN NECB System 3 PSZ Occ Sch Thursday, !- Thursday Schedule:Day Name\n   *************   7997   Sp-IC_PatRoom3_Mult6_Flr_2 Sys-3 Flr-4 Sch-H HPlcmt-west ZN NECB System 3 PSZ Occ Sch Friday, !- Friday Schedule:Day Name\n   *************   7998   Sp-IC_PatRoom3_Mult6_Flr_2 Sys-3 Flr-4 Sch-H HPlcmt-west ZN NECB System 3 PSZ Occ Sch Saturday, !- Saturday Schedule:Day Name\n   *************   7999   Sp-IC_PatRoom3_Mult6_Flr_2 Sys-3 Flr-4 Sch-H HPlcmt-west ZN NECB System 3 PSZ Occ Sch Default, !- Holiday Schedule:Day Name\n   *************   8000   Sp-IC_PatRoom3_Mult6_Flr_2 Sys-3 Flr-4 Sch-H HPlcmt-west ZN NECB System 3 PSZ Occ Sch Summer Design Day, !- SummerDesignDay Schedule:Day Name\n   *************   8001   Sp-IC_PatRoom3_Mult6_Flr_2 Sys-3 Flr-4 Sch-H HPlcmt-west ZN NECB System 3 PSZ Occ Sch Winter Design Day, !- WinterDesignDay Schedule:Day Name\n   ** Warning ** IP: IDF line~8001 Alpha Argument length exceeds maximum, will be truncated=  Sp-IC_PatRoom3_Mult6_Flr_2 Sys-3 Flr-4 Sch-H HPlcmt-west ZN NECB System 3 PSZ Occ Sch Winter Design Da\n   **   ~~~   ** Will be processed as Alpha=SP-IC_PATROOM3_MULT6_FLR_2 SYS-3 FLR-4 SCH-H HPLCMT-WEST ZN NECB SYSTEM 3 PSZ OCC SCH WINTER DESIGN DAY\n   ************* IDF Context for following error/warning message:\n   ************* Note -- lines truncated at 300 characters, if necessary...\n   *************   8021 Schedule:Day:Interval,\n   ************* indicated Name=Sp-IC_PatRoom3_Mult6_Flr_2 Sys-3 Flr-4 Sch-H HPlcmt-west ZN NECB System 3 PSZ Occ Sch Summer Design Day\n   ************* Only last 1 lines before error line shown.....\n   *************   8022   Sp-IC_PatRoom3_Mult6_Flr_2 Sys-3 Flr-4 Sch-H HPlcmt-west ZN NECB System 3 PSZ Occ Sch Summer Design Day, !- Name\n   ** Warning ** IP: IDF line~8022 Alpha Argument length exceeds maximum, will be truncated=  Sp-IC_PatRoom3_Mult6_Flr_2 Sys-3 Flr-4 Sch-H HPlcmt-west ZN NECB System 3 PSZ Occ Sch Summer Design Da\n   **   ~~~   ** Will be processed as Alpha=SP-IC_PATROOM3_MULT6_FLR_2 SYS-3 FLR-4 SCH-H HPLCMT-WEST ZN NECB SYSTEM 3 PSZ OCC SCH SUMMER DESIGN DAY\n   ************* IDF Context for following error/warning message:\n   ************* Note -- lines truncated at 300 characters, if necessary...\n   *************   8028 Schedule:Day:Interval,\n   ************* indicated Name=Sp-IC_PatRoom3_Mult6_Flr_2 Sys-3 Flr-4 Sch-H HPlcmt-west ZN NECB System 3 PSZ Occ Sch Winter Design Day\n   ************* Only last 1 lines before error line shown.....\n   *************   8029   Sp-IC_PatRoom3_Mult6_Flr_2 Sys-3 Flr-4 Sch-H HPlcmt-west ZN NECB System 3 PSZ Occ Sch Winter Design Day, !- Name\n   ** Warning ** IP: IDF line~8029 Alpha Argument length exceeds maximum, will be truncated=  Sp-IC_PatRoom3_Mult6_Flr_2 Sys-3 Flr-4 Sch-H HPlcmt-west ZN NECB System 3 PSZ Occ Sch Winter Design Da\n   **   ~~~   ** Will be processed as Alpha=SP-IC_PATROOM3_MULT6_FLR_2 SYS-3 FLR-4 SCH-H HPLCMT-WEST ZN NECB SYSTEM 3 PSZ OCC SCH WINTER DESIGN DAY\n   ************* IDF Context for following error/warning message:\n   ************* Note -- lines truncated at 300 characters, if necessary...\n   *************  10685 Schedule:Week:Daily,\n   ************* indicated Name=Schedule:Week:Daily {fd138414-3a77-4ae7-9095-3a5c727b8c99}\n   ************* Only last 10 lines before error line shown.....\n   *************  10686   Schedule:Week:Daily {fd138414-3a77-4ae7-9095-3a5c727b8c99}, !- Name\n   *************  10687   Sp-NurseStn_Lobby_Flr_5 Sys-3 Flr-6 Sch-H HPlcmt-south ZN NECB System 3 PSZ Occ Sch Sunday, !- Sunday Schedule:Day Name\n   *************  10688   Sp-NurseStn_Lobby_Flr_5 Sys-3 Flr-6 Sch-H HPlcmt-south ZN NECB System 3 PSZ Occ Sch Monday, !- Monday Schedule:Day Name\n   *************  10689   Sp-NurseStn_Lobby_Flr_5 Sys-3 Flr-6 Sch-H HPlcmt-south ZN NECB System 3 PSZ Occ Sch Tuesday, !- Tuesday Schedule:Day Name\n   *************  10690   Sp-NurseStn_Lobby_Flr_5 Sys-3 Flr-6 Sch-H HPlcmt-south ZN NECB System 3 PSZ Occ Sch Wednesday, !- Wednesday Schedule:Day Name\n   *************  10691   Sp-NurseStn_Lobby_Flr_5 Sys-3 Flr-6 Sch-H HPlcmt-south ZN NECB System 3 PSZ Occ Sch Thursday, !- Thursday Schedule:Day Name\n   *************  10692   Sp-NurseStn_Lobby_Flr_5 Sys-3 Flr-6 Sch-H HPlcmt-south ZN NECB System 3 PSZ Occ Sch Friday, !- Friday Schedule:Day Name\n   *************  10693   Sp-NurseStn_Lobby_Flr_5 Sys-3 Flr-6 Sch-H HPlcmt-south ZN NECB System 3 PSZ Occ Sch Saturday, !- Saturday Schedule:Day Name\n   *************  10694   Sp-NurseStn_Lobby_Flr_5 Sys-3 Flr-6 Sch-H HPlcmt-south ZN NECB System 3 PSZ Occ Sch Default, !- Holiday Schedule:Day Name\n   *************  10695   Sp-NurseStn_Lobby_Flr_5 Sys-3 Flr-6 Sch-H HPlcmt-south ZN NECB System 3 PSZ Occ Sch Summer Design Day, !- SummerDesignDay Schedule:Day Name\n   ** Warning ** IP: IDF line~10695 Alpha Argument length exceeds maximum, will be truncated=  Sp-NurseStn_Lobby_Flr_5 Sys-3 Flr-6 Sch-H HPlcmt-south ZN NECB System 3 PSZ Occ Sch Summer Design Da\n   **   ~~~   ** Will be processed as Alpha=SP-NURSESTN_LOBBY_FLR_5 SYS-3 FLR-6 SCH-H HPLCMT-SOUTH ZN NECB SYSTEM 3 PSZ OCC SCH SUMMER DESIGN DAY\n   ************* IDF Context for following error/warning message:\n   ************* Note -- lines truncated at 300 characters, if necessary...\n   *************  10685 Schedule:Week:Daily,\n   ************* indicated Name=Schedule:Week:Daily {fd138414-3a77-4ae7-9095-3a5c727b8c99}\n   ************* Only last 10 lines before error line shown.....\n   *************  10687   Sp-NurseStn_Lobby_Flr_5 Sys-3 Flr-6 Sch-H HPlcmt-south ZN NECB System 3 PSZ Occ Sch Sunday, !- Sunday Schedule:Day Name\n   *************  10688   Sp-NurseStn_Lobby_Flr_5 Sys-3 Flr-6 Sch-H HPlcmt-south ZN NECB System 3 PSZ Occ Sch Monday, !- Monday Schedule:Day Name\n   *************  10689   Sp-NurseStn_Lobby_Flr_5 Sys-3 Flr-6 Sch-H HPlcmt-south ZN NECB System 3 PSZ Occ Sch Tuesday, !- Tuesday Schedule:Day Name\n   *************  10690   Sp-NurseStn_Lobby_Flr_5 Sys-3 Flr-6 Sch-H HPlcmt-south ZN NECB System 3 PSZ Occ Sch Wednesday, !- Wednesday Schedule:Day Name\n   *************  10691   Sp-NurseStn_Lobby_Flr_5 Sys-3 Flr-6 Sch-H HPlcmt-south ZN NECB System 3 PSZ Occ Sch Thursday, !- Thursday Schedule:Day Name\n   *************  10692   Sp-NurseStn_Lobby_Flr_5 Sys-3 Flr-6 Sch-H HPlcmt-south ZN NECB System 3 PSZ Occ Sch Friday, !- Friday Schedule:Day Name\n   *************  10693   Sp-NurseStn_Lobby_Flr_5 Sys-3 Flr-6 Sch-H HPlcmt-south ZN NECB System 3 PSZ Occ Sch Saturday, !- Saturday Schedule:Day Name\n   *************  10694   Sp-NurseStn_Lobby_Flr_5 Sys-3 Flr-6 Sch-H HPlcmt-south ZN NECB System 3 PSZ Occ Sch Default, !- Holiday Schedule:Day Name\n   *************  10695   Sp-NurseStn_Lobby_Flr_5 Sys-3 Flr-6 Sch-H HPlcmt-south ZN NECB System 3 PSZ Occ Sch Summer Design Day, !- SummerDesignDay Schedule:Day Name\n   *************  10696   Sp-NurseStn_Lobby_Flr_5 Sys-3 Flr-6 Sch-H HPlcmt-south ZN NECB System 3 PSZ Occ Sch Winter Design Day, !- WinterDesignDay Schedule:Day Name\n   ** Warning ** IP: IDF line~10696 Alpha Argument length exceeds maximum, will be truncated=  Sp-NurseStn_Lobby_Flr_5 Sys-3 Flr-6 Sch-H HPlcmt-south ZN NECB System 3 PSZ Occ Sch Winter Design Da\n   **   ~~~   ** Will be processed as Alpha=SP-NURSESTN_LOBBY_FLR_5 SYS-3 FLR-6 SCH-H HPLCMT-SOUTH ZN NECB SYSTEM 3 PSZ OCC SCH WINTER DESIGN DAY\n   ************* IDF Context for following error/warning message:\n   ************* Note -- lines truncated at 300 characters, if necessary...\n   *************  10716 Schedule:Day:Interval,\n   ************* indicated Name=Sp-NurseStn_Lobby_Flr_5 Sys-3 Flr-6 Sch-H HPlcmt-south ZN NECB System 3 PSZ Occ Sch Summer Design Day\n   ************* Only last 1 lines before error line shown.....\n   *************  10717   Sp-NurseStn_Lobby_Flr_5 Sys-3 Flr-6 Sch-H HPlcmt-south ZN NECB System 3 PSZ Occ Sch Summer Design Day, !- Name\n   ** Warning ** IP: IDF line~10717 Alpha Argument length exceeds maximum, will be truncated=  Sp-NurseStn_Lobby_Flr_5 Sys-3 Flr-6 Sch-H HPlcmt-south ZN NECB System 3 PSZ Occ Sch Summer Design Da\n   **   ~~~   ** Will be processed as Alpha=SP-NURSESTN_LOBBY_FLR_5 SYS-3 FLR-6 SCH-H HPLCMT-SOUTH ZN NECB SYSTEM 3 PSZ OCC SCH SUMMER DESIGN DAY\n   ************* IDF Context for following error/warning message:\n   ************* Note -- lines truncated at 300 characters, if necessary...\n   *************  10723 Schedule:Day:Interval,\n   ************* indicated Name=Sp-NurseStn_Lobby_Flr_5 Sys-3 Flr-6 Sch-H HPlcmt-south ZN NECB System 3 PSZ Occ Sch Winter Design Day\n   ************* Only last 1 lines before error line shown.....\n   *************  10724   Sp-NurseStn_Lobby_Flr_5 Sys-3 Flr-6 Sch-H HPlcmt-south ZN NECB System 3 PSZ Occ Sch Winter Design Day, !- Name\n   ** Warning ** IP: IDF line~10724 Alpha Argument length exceeds maximum, will be truncated=  Sp-NurseStn_Lobby_Flr_5 Sys-3 Flr-6 Sch-H HPlcmt-south ZN NECB System 3 PSZ Occ Sch Winter Design Da\n   **   ~~~   ** Will be processed as Alpha=SP-NURSESTN_LOBBY_FLR_5 SYS-3 FLR-6 SCH-H HPLCMT-SOUTH ZN NECB SYSTEM 3 PSZ OCC SCH WINTER DESIGN DAY\n   ************* IDF Context for following error/warning message:\n   ************* Note -- lines truncated at 300 characters, if necessary...\n   *************  13860 Schedule:Week:Daily,\n   ************* indicated Name=Schedule:Week:Daily {7040e0eb-a81d-442a-8eff-ff7b393c26b6}\n   ************* Only last 10 lines before error line shown.....\n   *************  13861   Schedule:Week:Daily {7040e0eb-a81d-442a-8eff-ff7b393c26b6}, !- Name\n   *************  13862   Sp-OR_NurseStn_Lobby_Flr_2 Sys-3 Flr-4 Sch-H HPlcmt-south ZN NECB System 3 PSZ Occ Sch Sunday, !- Sunday Schedule:Day Name\n   *************  13863   Sp-OR_NurseStn_Lobby_Flr_2 Sys-3 Flr-4 Sch-H HPlcmt-south ZN NECB System 3 PSZ Occ Sch Monday, !- Monday Schedule:Day Name\n   *************  13864   Sp-OR_NurseStn_Lobby_Flr_2 Sys-3 Flr-4 Sch-H HPlcmt-south ZN NECB System 3 PSZ Occ Sch Tuesday, !- Tuesday Schedule:Day Name\n   *************  13865   Sp-OR_NurseStn_Lobby_Flr_2 Sys-3 Flr-4 Sch-H HPlcmt-south ZN NECB System 3 PSZ Occ Sch Wednesday, !- Wednesday Schedule:Day Name\n   *************  13866   Sp-OR_NurseStn_Lobby_Flr_2 Sys-3 Flr-4 Sch-H HPlcmt-south ZN NECB System 3 PSZ Occ Sch Thursday, !- Thursday Schedule:Day Name\n   *************  13867   Sp-OR_NurseStn_Lobby_Flr_2 Sys-3 Flr-4 Sch-H HPlcmt-south ZN NECB System 3 PSZ Occ Sch Friday, !- Friday Schedule:Day Name\n   *************  13868   Sp-OR_NurseStn_Lobby_Flr_2 Sys-3 Flr-4 Sch-H HPlcmt-south ZN NECB System 3 PSZ Occ Sch Saturday, !- Saturday Schedule:Day Name\n   *************  13869   Sp-OR_NurseStn_Lobby_Flr_2 Sys-3 Flr-4 Sch-H HPlcmt-south ZN NECB System 3 PSZ Occ Sch Default, !- Holiday Schedule:Day Name\n   *************  13870   Sp-OR_NurseStn_Lobby_Flr_2 Sys-3 Flr-4 Sch-H HPlcmt-south ZN NECB System 3 PSZ Occ Sch Summer Design Day, !- SummerDesignDay Schedule:Day Name\n   ** Warning ** IP: IDF line~13870 Alpha Argument length exceeds maximum, will be truncated=  Sp-OR_NurseStn_Lobby_Flr_2 Sys-3 Flr-4 Sch-H HPlcmt-south ZN NECB System 3 PSZ Occ Sch Summer Design Da\n   **   ~~~   ** Will be processed as Alpha=SP-OR_NURSESTN_LOBBY_FLR_2 SYS-3 FLR-4 SCH-H HPLCMT-SOUTH ZN NECB SYSTEM 3 PSZ OCC SCH SUMMER DESIGN DAY\n   ************* IDF Context for following error/warning message:\n   ************* Note -- lines truncated at 300 characters, if necessary...\n   *************  13860 Schedule:Week:Daily,\n   ************* indicated Name=Schedule:Week:Daily {7040e0eb-a81d-442a-8eff-ff7b393c26b6}\n   ************* Only last 10 lines before error line shown.....\n   *************  13862   Sp-OR_NurseStn_Lobby_Flr_2 Sys-3 Flr-4 Sch-H HPlcmt-south ZN NECB System 3 PSZ Occ Sch Sunday, !- Sunday Schedule:Day Name\n   *************  13863   Sp-OR_NurseStn_Lobby_Flr_2 Sys-3 Flr-4 Sch-H HPlcmt-south ZN NECB System 3 PSZ Occ Sch Monday, !- Monday Schedule:Day Name\n   *************  13864   Sp-OR_NurseStn_Lobby_Flr_2 Sys-3 Flr-4 Sch-H HPlcmt-south ZN NECB System 3 PSZ Occ Sch Tuesday, !- Tuesday Schedule:Day Name\n   *************  13865   Sp-OR_NurseStn_Lobby_Flr_2 Sys-3 Flr-4 Sch-H HPlcmt-south ZN NECB System 3 PSZ Occ Sch Wednesday, !- Wednesday Schedule:Day Name\n   *************  13866   Sp-OR_NurseStn_Lobby_Flr_2 Sys-3 Flr-4 Sch-H HPlcmt-south ZN NECB System 3 PSZ Occ Sch Thursday, !- Thursday Schedule:Day Name\n   *************  13867   Sp-OR_NurseStn_Lobby_Flr_2 Sys-3 Flr-4 Sch-H HPlcmt-south ZN NECB System 3 PSZ Occ Sch Friday, !- Friday Schedule:Day Name\n   *************  13868   Sp-OR_NurseStn_Lobby_Flr_2 Sys-3 Flr-4 Sch-H HPlcmt-south ZN NECB System 3 PSZ Occ Sch Saturday, !- Saturday Schedule:Day Name\n   *************  13869   Sp-OR_NurseStn_Lobby_Flr_2 Sys-3 Flr-4 Sch-H HPlcmt-south ZN NECB System 3 PSZ Occ Sch Default, !- Holiday Schedule:Day Name\n   *************  13870   Sp-OR_NurseStn_Lobby_Flr_2 Sys-3 Flr-4 Sch-H HPlcmt-south ZN NECB System 3 PSZ Occ Sch Summer Design Day, !- SummerDesignDay Schedule:Day Name\n   *************  13871   Sp-OR_NurseStn_Lobby_Flr_2 Sys-3 Flr-4 Sch-H HPlcmt-south ZN NECB System 3 PSZ Occ Sch Winter Design Day, !- WinterDesignDay Schedule:Day Name\n   ** Warning ** IP: IDF line~13871 Alpha Argument length exceeds maximum, will be truncated=  Sp-OR_NurseStn_Lobby_Flr_2 Sys-3 Flr-4 Sch-H HPlcmt-south ZN NECB System 3 PSZ Occ Sch Winter Design Da\n   **   ~~~   ** Will be processed as Alpha=SP-OR_NURSESTN_LOBBY_FLR_2 SYS-3 FLR-4 SCH-H HPLCMT-SOUTH ZN NECB SYSTEM 3 PSZ OCC SCH WINTER DESIGN DAY\n   ************* IDF Context for following error/warning message:\n   ************* Note -- lines truncated at 300 characters, if necessary...\n   *************  13891 Schedule:Day:Interval,\n   ************* indicated Name=Sp-OR_NurseStn_Lobby_Flr_2 Sys-3 Flr-4 Sch-H HPlcmt-south ZN NECB System 3 PSZ Occ Sch Summer Design Day\n   ************* Only last 1 lines before error line shown.....\n   *************  13892   Sp-OR_NurseStn_Lobby_Flr_2 Sys-3 Flr-4 Sch-H HPlcmt-south ZN NECB System 3 PSZ Occ Sch Summer Design Day, !- Name\n   ** Warning ** IP: IDF line~13892 Alpha Argument length exceeds maximum, will be truncated=  Sp-OR_NurseStn_Lobby_Flr_2 Sys-3 Flr-4 Sch-H HPlcmt-south ZN NECB System 3 PSZ Occ Sch Summer Design Da\n   **   ~~~   ** Will be processed as Alpha=SP-OR_NURSESTN_LOBBY_FLR_2 SYS-3 FLR-4 SCH-H HPLCMT-SOUTH ZN NECB SYSTEM 3 PSZ OCC SCH SUMMER DESIGN DAY\n   ************* IDF Context for following error/warning message:\n   ************* Note -- lines truncated at 300 characters, if necessary...\n   *************  13898 Schedule:Day:Interval,\n   ************* indicated Name=Sp-OR_NurseStn_Lobby_Flr_2 Sys-3 Flr-4 Sch-H HPlcmt-south ZN NECB System 3 PSZ Occ Sch Winter Design Day\n   ************* Only last 1 lines before error line shown.....\n   *************  13899   Sp-OR_NurseStn_Lobby_Flr_2 Sys-3 Flr-4 Sch-H HPlcmt-south ZN NECB System 3 PSZ Occ Sch Winter Design Day, !- Name\n   ** Warning ** IP: IDF line~13899 Alpha Argument length exceeds maximum, will be truncated=  Sp-OR_NurseStn_Lobby_Flr_2 Sys-3 Flr-4 Sch-H HPlcmt-south ZN NECB System 3 PSZ Occ Sch Winter Design Da\n   **   ~~~   ** Will be processed as Alpha=SP-OR_NURSESTN_LOBBY_FLR_2 SYS-3 FLR-4 SCH-H HPLCMT-SOUTH ZN NECB SYSTEM 3 PSZ OCC SCH WINTER DESIGN DAY\n   ************* IDF Context for following error/warning message:\n   ************* Note -- lines truncated at 300 characters, if necessary...\n   *************  14203 Schedule:Week:Daily,\n   ************* indicated Name=Schedule:Week:Daily {677e5344-279e-4534-994d-4a0438004d3d}\n   ************* Only last 10 lines before error line shown.....\n   *************  14204   Schedule:Week:Daily {677e5344-279e-4534-994d-4a0438004d3d}, !- Name\n   *************  14205   Sp-PatRoom1_Mult10_Flr_3 Sys-3 Flr-2 Sch-H HPlcmt-south ZN NECB System 3 PSZ Occ Sch Sunday, !- Sunday Schedule:Day Name\n   *************  14206   Sp-PatRoom1_Mult10_Flr_3 Sys-3 Flr-2 Sch-H HPlcmt-south ZN NECB System 3 PSZ Occ Sch Monday, !- Monday Schedule:Day Name\n   *************  14207   Sp-PatRoom1_Mult10_Flr_3 Sys-3 Flr-2 Sch-H HPlcmt-south ZN NECB System 3 PSZ Occ Sch Tuesday, !- Tuesday Schedule:Day Name\n   *************  14208   Sp-PatRoom1_Mult10_Flr_3 Sys-3 Flr-2 Sch-H HPlcmt-south ZN NECB System 3 PSZ Occ Sch Wednesday, !- Wednesday Schedule:Day Name\n   *************  14209   Sp-PatRoom1_Mult10_Flr_3 Sys-3 Flr-2 Sch-H HPlcmt-south ZN NECB System 3 PSZ Occ Sch Thursday, !- Thursday Schedule:Day Name\n   *************  14210   Sp-PatRoom1_Mult10_Flr_3 Sys-3 Flr-2 Sch-H HPlcmt-south ZN NECB System 3 PSZ Occ Sch Friday, !- Friday Schedule:Day Name\n   *************  14211   Sp-PatRoom1_Mult10_Flr_3 Sys-3 Flr-2 Sch-H HPlcmt-south ZN NECB System 3 PSZ Occ Sch Saturday, !- Saturday Schedule:Day Name\n   *************  14212   Sp-PatRoom1_Mult10_Flr_3 Sys-3 Flr-2 Sch-H HPlcmt-south ZN NECB System 3 PSZ Occ Sch Default, !- Holiday Schedule:Day Name\n   *************  14213   Sp-PatRoom1_Mult10_Flr_3 Sys-3 Flr-2 Sch-H HPlcmt-south ZN NECB System 3 PSZ Occ Sch Summer Design Day, !- SummerDesignDay Schedule:Day Name\n   ** Warning ** IP: IDF line~14213 Alpha Argument length exceeds maximum, will be truncated=  Sp-PatRoom1_Mult10_Flr_3 Sys-3 Flr-2 Sch-H HPlcmt-south ZN NECB System 3 PSZ Occ Sch Summer Design Da\n   **   ~~~   ** Will be processed as Alpha=SP-PATROOM1_MULT10_FLR_3 SYS-3 FLR-2 SCH-H HPLCMT-SOUTH ZN NECB SYSTEM 3 PSZ OCC SCH SUMMER DESIGN DAY\n   ************* IDF Context for following error/warning message:\n   ************* Note -- lines truncated at 300 characters, if necessary...\n   *************  14203 Schedule:Week:Daily,\n   ************* indicated Name=Schedule:Week:Daily {677e5344-279e-4534-994d-4a0438004d3d}\n   ************* Only last 10 lines before error line shown.....\n   *************  14205   Sp-PatRoom1_Mult10_Flr_3 Sys-3 Flr-2 Sch-H HPlcmt-south ZN NECB System 3 PSZ Occ Sch Sunday, !- Sunday Schedule:Day Name\n   *************  14206   Sp-PatRoom1_Mult10_Flr_3 Sys-3 Flr-2 Sch-H HPlcmt-south ZN NECB System 3 PSZ Occ Sch Monday, !- Monday Schedule:Day Name\n   *************  14207   Sp-PatRoom1_Mult10_Flr_3 Sys-3 Flr-2 Sch-H HPlcmt-south ZN NECB System 3 PSZ Occ Sch Tuesday, !- Tuesday Schedule:Day Name\n   *************  14208   Sp-PatRoom1_Mult10_Flr_3 Sys-3 Flr-2 Sch-H HPlcmt-south ZN NECB System 3 PSZ Occ Sch Wednesday, !- Wednesday Schedule:Day Name\n   *************  14209   Sp-PatRoom1_Mult10_Flr_3 Sys-3 Flr-2 Sch-H HPlcmt-south ZN NECB System 3 PSZ Occ Sch Thursday, !- Thursday Schedule:Day Name\n   *************  14210   Sp-PatRoom1_Mult10_Flr_3 Sys-3 Flr-2 Sch-H HPlcmt-south ZN NECB System 3 PSZ Occ Sch Friday, !- Friday Schedule:Day Name\n   *************  14211   Sp-PatRoom1_Mult10_Flr_3 Sys-3 Flr-2 Sch-H HPlcmt-south ZN NECB System 3 PSZ Occ Sch Saturday, !- Saturday Schedule:Day Name\n   *************  14212   Sp-PatRoom1_Mult10_Flr_3 Sys-3 Flr-2 Sch-H HPlcmt-south ZN NECB System 3 PSZ Occ Sch Default, !- Holiday Schedule:Day Name\n   *************  14213   Sp-PatRoom1_Mult10_Flr_3 Sys-3 Flr-2 Sch-H HPlcmt-south ZN NECB System 3 PSZ Occ Sch Summer Design Day, !- SummerDesignDay Schedule:Day Name\n   *************  14214   Sp-PatRoom1_Mult10_Flr_3 Sys-3 Flr-2 Sch-H HPlcmt-south ZN NECB System 3 PSZ Occ Sch Winter Design Day, !- WinterDesignDay Schedule:Day Name\n   ** Warning ** IP: IDF line~14214 Alpha Argument length exceeds maximum, will be truncated=  Sp-PatRoom1_Mult10_Flr_3 Sys-3 Flr-2 Sch-H HPlcmt-south ZN NECB System 3 PSZ Occ Sch Winter Design Da\n   **   ~~~   ** Will be processed as Alpha=SP-PATROOM1_MULT10_FLR_3 SYS-3 FLR-2 SCH-H HPLCMT-SOUTH ZN NECB SYSTEM 3 PSZ OCC SCH WINTER DESIGN DAY\n   ************* IDF Context for following error/warning message:\n   ************* Note -- lines truncated at 300 characters, if necessary...\n   *************  14234 Schedule:Day:Interval,\n   ************* indicated Name=Sp-PatRoom1_Mult10_Flr_3 Sys-3 Flr-2 Sch-H HPlcmt-south ZN NECB System 3 PSZ Occ Sch Summer Design Day\n   ************* Only last 1 lines before error line shown.....\n   *************  14235   Sp-PatRoom1_Mult10_Flr_3 Sys-3 Flr-2 Sch-H HPlcmt-south ZN NECB System 3 PSZ Occ Sch Summer Design Day, !- Name\n   ** Warning ** IP: IDF line~14235 Alpha Argument length exceeds maximum, will be truncated=  Sp-PatRoom1_Mult10_Flr_3 Sys-3 Flr-2 Sch-H HPlcmt-south ZN NECB System 3 PSZ Occ Sch Summer Design Da\n   **   ~~~   ** Will be processed as Alpha=SP-PATROOM1_MULT10_FLR_3 SYS-3 FLR-2 SCH-H HPLCMT-SOUTH ZN NECB SYSTEM 3 PSZ OCC SCH SUMMER DESIGN DAY\n   ************* IDF Context for following error/warning message:\n   ************* Note -- lines truncated at 300 characters, if necessary...\n   *************  14241 Schedule:Day:Interval,\n   ************* indicated Name=Sp-PatRoom1_Mult10_Flr_3 Sys-3 Flr-2 Sch-H HPlcmt-south ZN NECB System 3 PSZ Occ Sch Winter Design Day\n   ************* Only last 1 lines before error line shown.....\n   *************  14242   Sp-PatRoom1_Mult10_Flr_3 Sys-3 Flr-2 Sch-H HPlcmt-south ZN NECB System 3 PSZ Occ Sch Winter Design Day, !- Name\n   ** Warning ** IP: IDF line~14242 Alpha Argument length exceeds maximum, will be truncated=  Sp-PatRoom1_Mult10_Flr_3 Sys-3 Flr-2 Sch-H HPlcmt-south ZN NECB System 3 PSZ Occ Sch Winter Design Da\n   **   ~~~   ** Will be processed as Alpha=SP-PATROOM1_MULT10_FLR_3 SYS-3 FLR-2 SCH-H HPLCMT-SOUTH ZN NECB SYSTEM 3 PSZ OCC SCH WINTER DESIGN DAY\n   ************* IDF Context for following error/warning message:\n   ************* Note -- lines truncated at 300 characters, if necessary...\n   *************  14546 Schedule:Week:Daily,\n   ************* indicated Name=Schedule:Week:Daily {008615b6-c47e-424c-b9a9-3823b76614c4}\n   ************* Only last 10 lines before error line shown.....\n   *************  14547   Schedule:Week:Daily {008615b6-c47e-424c-b9a9-3823b76614c4}, !- Name\n   *************  14548   Sp-PatRoom1_Mult10_Flr_4 Sys-3 Flr-3 Sch-H HPlcmt-south ZN NECB System 3 PSZ Occ Sch Sunday, !- Sunday Schedule:Day Name\n   *************  14549   Sp-PatRoom1_Mult10_Flr_4 Sys-3 Flr-3 Sch-H HPlcmt-south ZN NECB System 3 PSZ Occ Sch Monday, !- Monday Schedule:Day Name\n   *************  14550   Sp-PatRoom1_Mult10_Flr_4 Sys-3 Flr-3 Sch-H HPlcmt-south ZN NECB System 3 PSZ Occ Sch Tuesday, !- Tuesday Schedule:Day Name\n   *************  14551   Sp-PatRoom1_Mult10_Flr_4 Sys-3 Flr-3 Sch-H HPlcmt-south ZN NECB System 3 PSZ Occ Sch Wednesday, !- Wednesday Schedule:Day Name\n   *************  14552   Sp-PatRoom1_Mult10_Flr_4 Sys-3 Flr-3 Sch-H HPlcmt-south ZN NECB System 3 PSZ Occ Sch Thursday, !- Thursday Schedule:Day Name\n   *************  14553   Sp-PatRoom1_Mult10_Flr_4 Sys-3 Flr-3 Sch-H HPlcmt-south ZN NECB System 3 PSZ Occ Sch Friday, !- Friday Schedule:Day Name\n   *************  14554   Sp-PatRoom1_Mult10_Flr_4 Sys-3 Flr-3 Sch-H HPlcmt-south ZN NECB System 3 PSZ Occ Sch Saturday, !- Saturday Schedule:Day Name\n   *************  14555   Sp-PatRoom1_Mult10_Flr_4 Sys-3 Flr-3 Sch-H HPlcmt-south ZN NECB System 3 PSZ Occ Sch Default, !- Holiday Schedule:Day Name\n   *************  14556   Sp-PatRoom1_Mult10_Flr_4 Sys-3 Flr-3 Sch-H HPlcmt-south ZN NECB System 3 PSZ Occ Sch Summer Design Day, !- SummerDesignDay Schedule:Day Name\n   ** Warning ** IP: IDF line~14556 Alpha Argument length exceeds maximum, will be truncated=  Sp-PatRoom1_Mult10_Flr_4 Sys-3 Flr-3 Sch-H HPlcmt-south ZN NECB System 3 PSZ Occ Sch Summer Design Da\n   **   ~~~   ** Will be processed as Alpha=SP-PATROOM1_MULT10_FLR_4 SYS-3 FLR-3 SCH-H HPLCMT-SOUTH ZN NECB SYSTEM 3 PSZ OCC SCH SUMMER DESIGN DAY\n   ************* IDF Context for following error/warning message:\n   ************* Note -- lines truncated at 300 characters, if necessary...\n   *************  14546 Schedule:Week:Daily,\n   ************* indicated Name=Schedule:Week:Daily {008615b6-c47e-424c-b9a9-3823b76614c4}\n   ************* Only last 10 lines before error line shown.....\n   *************  14548   Sp-PatRoom1_Mult10_Flr_4 Sys-3 Flr-3 Sch-H HPlcmt-south ZN NECB System 3 PSZ Occ Sch Sunday, !- Sunday Schedule:Day Name\n   *************  14549   Sp-PatRoom1_Mult10_Flr_4 Sys-3 Flr-3 Sch-H HPlcmt-south ZN NECB System 3 PSZ Occ Sch Monday, !- Monday Schedule:Day Name\n   *************  14550   Sp-PatRoom1_Mult10_Flr_4 Sys-3 Flr-3 Sch-H HPlcmt-south ZN NECB System 3 PSZ Occ Sch Tuesday, !- Tuesday Schedule:Day Name\n   *************  14551   Sp-PatRoom1_Mult10_Flr_4 Sys-3 Flr-3 Sch-H HPlcmt-south ZN NECB System 3 PSZ Occ Sch Wednesday, !- Wednesday Schedule:Day Name\n   *************  14552   Sp-PatRoom1_Mult10_Flr_4 Sys-3 Flr-3 Sch-H HPlcmt-south ZN NECB System 3 PSZ Occ Sch Thursday, !- Thursday Schedule:Day Name\n   *************  14553   Sp-PatRoom1_Mult10_Flr_4 Sys-3 Flr-3 Sch-H HPlcmt-south ZN NECB System 3 PSZ Occ Sch Friday, !- Friday Schedule:Day Name\n   *************  14554   Sp-PatRoom1_Mult10_Flr_4 Sys-3 Flr-3 Sch-H HPlcmt-south ZN NECB System 3 PSZ Occ Sch Saturday, !- Saturday Schedule:Day Name\n   *************  14555   Sp-PatRoom1_Mult10_Flr_4 Sys-3 Flr-3 Sch-H HPlcmt-south ZN NECB System 3 PSZ Occ Sch Default, !- Holiday Schedule:Day Name\n   *************  14556   Sp-PatRoom1_Mult10_Flr_4 Sys-3 Flr-3 Sch-H HPlcmt-south ZN NECB System 3 PSZ Occ Sch Summer Design Day, !- SummerDesignDay Schedule:Day Name\n   *************  14557   Sp-PatRoom1_Mult10_Flr_4 Sys-3 Flr-3 Sch-H HPlcmt-south ZN NECB System 3 PSZ Occ Sch Winter Design Day, !- WinterDesignDay Schedule:Day Name\n   ** Warning ** IP: IDF line~14557 Alpha Argument length exceeds maximum, will be truncated=  Sp-PatRoom1_Mult10_Flr_4 Sys-3 Flr-3 Sch-H HPlcmt-south ZN NECB System 3 PSZ Occ Sch Winter Design Da\n   **   ~~~   ** Will be processed as Alpha=SP-PATROOM1_MULT10_FLR_4 SYS-3 FLR-3 SCH-H HPLCMT-SOUTH ZN NECB SYSTEM 3 PSZ OCC SCH WINTER DESIGN DAY\n   ************* IDF Context for following error/warning message:\n   ************* Note -- lines truncated at 300 characters, if necessary...\n   *************  14577 Schedule:Day:Interval,\n   ************* indicated Name=Sp-PatRoom1_Mult10_Flr_4 Sys-3 Flr-3 Sch-H HPlcmt-south ZN NECB System 3 PSZ Occ Sch Summer Design Day\n   ************* Only last 1 lines before error line shown.....\n   *************  14578   Sp-PatRoom1_Mult10_Flr_4 Sys-3 Flr-3 Sch-H HPlcmt-south ZN NECB System 3 PSZ Occ Sch Summer Design Day, !- Name\n   ** Warning ** IP: IDF line~14578 Alpha Argument length exceeds maximum, will be truncated=  Sp-PatRoom1_Mult10_Flr_4 Sys-3 Flr-3 Sch-H HPlcmt-south ZN NECB System 3 PSZ Occ Sch Summer Design Da\n   **   ~~~   ** Will be processed as Alpha=SP-PATROOM1_MULT10_FLR_4 SYS-3 FLR-3 SCH-H HPLCMT-SOUTH ZN NECB SYSTEM 3 PSZ OCC SCH SUMMER DESIGN DAY\n   ************* IDF Context for following error/warning message:\n   ************* Note -- lines truncated at 300 characters, if necessary...\n   *************  14584 Schedule:Day:Interval,\n   ************* indicated Name=Sp-PatRoom1_Mult10_Flr_4 Sys-3 Flr-3 Sch-H HPlcmt-south ZN NECB System 3 PSZ Occ Sch Winter Design Day\n   ************* Only last 1 lines before error line shown.....\n   *************  14585   Sp-PatRoom1_Mult10_Flr_4 Sys-3 Flr-3 Sch-H HPlcmt-south ZN NECB System 3 PSZ Occ Sch Winter Design Day, !- Name\n   ** Warning ** IP: IDF line~14585 Alpha Argument length exceeds maximum, will be truncated=  Sp-PatRoom1_Mult10_Flr_4 Sys-3 Flr-3 Sch-H HPlcmt-south ZN NECB System 3 PSZ Occ Sch Winter Design Da\n   **   ~~~   ** Will be processed as Alpha=SP-PATROOM1_MULT10_FLR_4 SYS-3 FLR-3 SCH-H HPLCMT-SOUTH ZN NECB SYSTEM 3 PSZ OCC SCH WINTER DESIGN DAY\n   ************* IDF Context for following error/warning message:\n   ************* Note -- lines truncated at 300 characters, if necessary...\n   *************  15451 Schedule:Week:Daily,\n   ************* indicated Name=Schedule:Week:Daily {d8ea4e6b-5bfe-4ddd-a985-cf7b2c644bab}\n   ************* Only last 10 lines before error line shown.....\n   *************  15452   Schedule:Week:Daily {d8ea4e6b-5bfe-4ddd-a985-cf7b2c644bab}, !- Name\n   *************  15453   Sp-PatRoom3_Mult10_Flr_3 Sys-3 Flr-2 Sch-H HPlcmt-east ZN NECB System 3 PSZ Occ Sch Sunday, !- Sunday Schedule:Day Name\n   *************  15454   Sp-PatRoom3_Mult10_Flr_3 Sys-3 Flr-2 Sch-H HPlcmt-east ZN NECB System 3 PSZ Occ Sch Monday, !- Monday Schedule:Day Name\n   *************  15455   Sp-PatRoom3_Mult10_Flr_3 Sys-3 Flr-2 Sch-H HPlcmt-east ZN NECB System 3 PSZ Occ Sch Tuesday, !- Tuesday Schedule:Day Name\n   *************  15456   Sp-PatRoom3_Mult10_Flr_3 Sys-3 Flr-2 Sch-H HPlcmt-east ZN NECB System 3 PSZ Occ Sch Wednesday, !- Wednesday Schedule:Day Name\n   *************  15457   Sp-PatRoom3_Mult10_Flr_3 Sys-3 Flr-2 Sch-H HPlcmt-east ZN NECB System 3 PSZ Occ Sch Thursday, !- Thursday Schedule:Day Name\n   *************  15458   Sp-PatRoom3_Mult10_Flr_3 Sys-3 Flr-2 Sch-H HPlcmt-east ZN NECB System 3 PSZ Occ Sch Friday, !- Friday Schedule:Day Name\n   *************  15459   Sp-PatRoom3_Mult10_Flr_3 Sys-3 Flr-2 Sch-H HPlcmt-east ZN NECB System 3 PSZ Occ Sch Saturday, !- Saturday Schedule:Day Name\n   *************  15460   Sp-PatRoom3_Mult10_Flr_3 Sys-3 Flr-2 Sch-H HPlcmt-east ZN NECB System 3 PSZ Occ Sch Default, !- Holiday Schedule:Day Name\n   *************  15461   Sp-PatRoom3_Mult10_Flr_3 Sys-3 Flr-2 Sch-H HPlcmt-east ZN NECB System 3 PSZ Occ Sch Summer Design Day, !- SummerDesignDay Schedule:Day Name\n   ** Warning ** IP: IDF line~15461 Alpha Argument length exceeds maximum, will be truncated=  Sp-PatRoom3_Mult10_Flr_3 Sys-3 Flr-2 Sch-H HPlcmt-east ZN NECB System 3 PSZ Occ Sch Summer Design Da\n   **   ~~~   ** Will be processed as Alpha=SP-PATROOM3_MULT10_FLR_3 SYS-3 FLR-2 SCH-H HPLCMT-EAST ZN NECB SYSTEM 3 PSZ OCC SCH SUMMER DESIGN DAY\n   ************* IDF Context for following error/warning message:\n   ************* Note -- lines truncated at 300 characters, if necessary...\n   *************  15451 Schedule:Week:Daily,\n   ************* indicated Name=Schedule:Week:Daily {d8ea4e6b-5bfe-4ddd-a985-cf7b2c644bab}\n   ************* Only last 10 lines before error line shown.....\n   *************  15453   Sp-PatRoom3_Mult10_Flr_3 Sys-3 Flr-2 Sch-H HPlcmt-east ZN NECB System 3 PSZ Occ Sch Sunday, !- Sunday Schedule:Day Name\n   *************  15454   Sp-PatRoom3_Mult10_Flr_3 Sys-3 Flr-2 Sch-H HPlcmt-east ZN NECB System 3 PSZ Occ Sch Monday, !- Monday Schedule:Day Name\n   *************  15455   Sp-PatRoom3_Mult10_Flr_3 Sys-3 Flr-2 Sch-H HPlcmt-east ZN NECB System 3 PSZ Occ Sch Tuesday, !- Tuesday Schedule:Day Name\n   *************  15456   Sp-PatRoom3_Mult10_Flr_3 Sys-3 Flr-2 Sch-H HPlcmt-east ZN NECB System 3 PSZ Occ Sch Wednesday, !- Wednesday Schedule:Day Name\n   *************  15457   Sp-PatRoom3_Mult10_Flr_3 Sys-3 Flr-2 Sch-H HPlcmt-east ZN NECB System 3 PSZ Occ Sch Thursday, !- Thursday Schedule:Day Name\n   *************  15458   Sp-PatRoom3_Mult10_Flr_3 Sys-3 Flr-2 Sch-H HPlcmt-east ZN NECB System 3 PSZ Occ Sch Friday, !- Friday Schedule:Day Name\n   *************  15459   Sp-PatRoom3_Mult10_Flr_3 Sys-3 Flr-2 Sch-H HPlcmt-east ZN NECB System 3 PSZ Occ Sch Saturday, !- Saturday Schedule:Day Name\n   *************  15460   Sp-PatRoom3_Mult10_Flr_3 Sys-3 Flr-2 Sch-H HPlcmt-east ZN NECB System 3 PSZ Occ Sch Default, !- Holiday Schedule:Day Name\n   *************  15461   Sp-PatRoom3_Mult10_Flr_3 Sys-3 Flr-2 Sch-H HPlcmt-east ZN NECB System 3 PSZ Occ Sch Summer Design Day, !- SummerDesignDay Schedule:Day Name\n   *************  15462   Sp-PatRoom3_Mult10_Flr_3 Sys-3 Flr-2 Sch-H HPlcmt-east ZN NECB System 3 PSZ Occ Sch Winter Design Day, !- WinterDesignDay Schedule:Day Name\n   ** Warning ** IP: IDF line~15462 Alpha Argument length exceeds maximum, will be truncated=  Sp-PatRoom3_Mult10_Flr_3 Sys-3 Flr-2 Sch-H HPlcmt-east ZN NECB System 3 PSZ Occ Sch Winter Design Da\n   **   ~~~   ** Will be processed as Alpha=SP-PATROOM3_MULT10_FLR_3 SYS-3 FLR-2 SCH-H HPLCMT-EAST ZN NECB SYSTEM 3 PSZ OCC SCH WINTER DESIGN DAY\n   ************* IDF Context for following error/warning message:\n   ************* Note -- lines truncated at 300 characters, if necessary...\n   *************  15482 Schedule:Day:Interval,\n   ************* indicated Name=Sp-PatRoom3_Mult10_Flr_3 Sys-3 Flr-2 Sch-H HPlcmt-east ZN NECB System 3 PSZ Occ Sch Summer Design Day\n   ************* Only last 1 lines before error line shown.....\n   *************  15483   Sp-PatRoom3_Mult10_Flr_3 Sys-3 Flr-2 Sch-H HPlcmt-east ZN NECB System 3 PSZ Occ Sch Summer Design Day, !- Name\n   ** Warning ** IP: IDF line~15483 Alpha Argument length exceeds maximum, will be truncated=  Sp-PatRoom3_Mult10_Flr_3 Sys-3 Flr-2 Sch-H HPlcmt-east ZN NECB System 3 PSZ Occ Sch Summer Design Da\n   **   ~~~   ** Will be processed as Alpha=SP-PATROOM3_MULT10_FLR_3 SYS-3 FLR-2 SCH-H HPLCMT-EAST ZN NECB SYSTEM 3 PSZ OCC SCH SUMMER DESIGN DAY\n   ************* IDF Context for following error/warning message:\n   ************* Note -- lines truncated at 300 characters, if necessary...\n   *************  15489 Schedule:Day:Interval,\n   ************* indicated Name=Sp-PatRoom3_Mult10_Flr_3 Sys-3 Flr-2 Sch-H HPlcmt-east ZN NECB System 3 PSZ Occ Sch Winter Design Day\n   ************* Only last 1 lines before error line shown.....\n   *************  15490   Sp-PatRoom3_Mult10_Flr_3 Sys-3 Flr-2 Sch-H HPlcmt-east ZN NECB System 3 PSZ Occ Sch Winter Design Day, !- Name\n   ** Warning ** IP: IDF line~15490 Alpha Argument length exceeds maximum, will be truncated=  Sp-PatRoom3_Mult10_Flr_3 Sys-3 Flr-2 Sch-H HPlcmt-east ZN NECB System 3 PSZ Occ Sch Winter Design Da\n   **   ~~~   ** Will be processed as Alpha=SP-PATROOM3_MULT10_FLR_3 SYS-3 FLR-2 SCH-H HPLCMT-EAST ZN NECB SYSTEM 3 PSZ OCC SCH WINTER DESIGN DAY\n   ************* IDF Context for following error/warning message:\n   ************* Note -- lines truncated at 300 characters, if necessary...\n   *************  15794 Schedule:Week:Daily,\n   ************* indicated Name=Schedule:Week:Daily {9db74754-9395-4dc6-a8af-a6546c4d1026}\n   ************* Only last 10 lines before error line shown.....\n   *************  15795   Schedule:Week:Daily {9db74754-9395-4dc6-a8af-a6546c4d1026}, !- Name\n   *************  15796   Sp-PatRoom3_Mult10_Flr_4 Sys-3 Flr-3 Sch-H HPlcmt-east ZN NECB System 3 PSZ Occ Sch Sunday, !- Sunday Schedule:Day Name\n   *************  15797   Sp-PatRoom3_Mult10_Flr_4 Sys-3 Flr-3 Sch-H HPlcmt-east ZN NECB System 3 PSZ Occ Sch Monday, !- Monday Schedule:Day Name\n   *************  15798   Sp-PatRoom3_Mult10_Flr_4 Sys-3 Flr-3 Sch-H HPlcmt-east ZN NECB System 3 PSZ Occ Sch Tuesday, !- Tuesday Schedule:Day Name\n   *************  15799   Sp-PatRoom3_Mult10_Flr_4 Sys-3 Flr-3 Sch-H HPlcmt-east ZN NECB System 3 PSZ Occ Sch Wednesday, !- Wednesday Schedule:Day Name\n   *************  15800   Sp-PatRoom3_Mult10_Flr_4 Sys-3 Flr-3 Sch-H HPlcmt-east ZN NECB System 3 PSZ Occ Sch Thursday, !- Thursday Schedule:Day Name\n   *************  15801   Sp-PatRoom3_Mult10_Flr_4 Sys-3 Flr-3 Sch-H HPlcmt-east ZN NECB System 3 PSZ Occ Sch Friday, !- Friday Schedule:Day Name\n   *************  15802   Sp-PatRoom3_Mult10_Flr_4 Sys-3 Flr-3 Sch-H HPlcmt-east ZN NECB System 3 PSZ Occ Sch Saturday, !- Saturday Schedule:Day Name\n   *************  15803   Sp-PatRoom3_Mult10_Flr_4 Sys-3 Flr-3 Sch-H HPlcmt-east ZN NECB System 3 PSZ Occ Sch Default, !- Holiday Schedule:Day Name\n   *************  15804   Sp-PatRoom3_Mult10_Flr_4 Sys-3 Flr-3 Sch-H HPlcmt-east ZN NECB System 3 PSZ Occ Sch Summer Design Day, !- SummerDesignDay Schedule:Day Name\n   ** Warning ** IP: IDF line~15804 Alpha Argument length exceeds maximum, will be truncated=  Sp-PatRoom3_Mult10_Flr_4 Sys-3 Flr-3 Sch-H HPlcmt-east ZN NECB System 3 PSZ Occ Sch Summer Design Da\n   **   ~~~   ** Will be processed as Alpha=SP-PATROOM3_MULT10_FLR_4 SYS-3 FLR-3 SCH-H HPLCMT-EAST ZN NECB SYSTEM 3 PSZ OCC SCH SUMMER DESIGN DAY\n   ************* IDF Context for following error/warning message:\n   ************* Note -- lines truncated at 300 characters, if necessary...\n   *************  15794 Schedule:Week:Daily,\n   ************* indicated Name=Schedule:Week:Daily {9db74754-9395-4dc6-a8af-a6546c4d1026}\n   ************* Only last 10 lines before error line shown.....\n   *************  15796   Sp-PatRoom3_Mult10_Flr_4 Sys-3 Flr-3 Sch-H HPlcmt-east ZN NECB System 3 PSZ Occ Sch Sunday, !- Sunday Schedule:Day Name\n   *************  15797   Sp-PatRoom3_Mult10_Flr_4 Sys-3 Flr-3 Sch-H HPlcmt-east ZN NECB System 3 PSZ Occ Sch Monday, !- Monday Schedule:Day Name\n   *************  15798   Sp-PatRoom3_Mult10_Flr_4 Sys-3 Flr-3 Sch-H HPlcmt-east ZN NECB System 3 PSZ Occ Sch Tuesday, !- Tuesday Schedule:Day Name\n   *************  15799   Sp-PatRoom3_Mult10_Flr_4 Sys-3 Flr-3 Sch-H HPlcmt-east ZN NECB System 3 PSZ Occ Sch Wednesday, !- Wednesday Schedule:Day Name\n   *************  15800   Sp-PatRoom3_Mult10_Flr_4 Sys-3 Flr-3 Sch-H HPlcmt-east ZN NECB System 3 PSZ Occ Sch Thursday, !- Thursday Schedule:Day Name\n   *************  15801   Sp-PatRoom3_Mult10_Flr_4 Sys-3 Flr-3 Sch-H HPlcmt-east ZN NECB System 3 PSZ Occ Sch Friday, !- Friday Schedule:Day Name\n   *************  15802   Sp-PatRoom3_Mult10_Flr_4 Sys-3 Flr-3 Sch-H HPlcmt-east ZN NECB System 3 PSZ Occ Sch Saturday, !- Saturday Schedule:Day Name\n   *************  15803   Sp-PatRoom3_Mult10_Flr_4 Sys-3 Flr-3 Sch-H HPlcmt-east ZN NECB System 3 PSZ Occ Sch Default, !- Holiday Schedule:Day Name\n   *************  15804   Sp-PatRoom3_Mult10_Flr_4 Sys-3 Flr-3 Sch-H HPlcmt-east ZN NECB System 3 PSZ Occ Sch Summer Design Day, !- SummerDesignDay Schedule:Day Name\n   *************  15805   Sp-PatRoom3_Mult10_Flr_4 Sys-3 Flr-3 Sch-H HPlcmt-east ZN NECB System 3 PSZ Occ Sch Winter Design Day, !- WinterDesignDay Schedule:Day Name\n   ** Warning ** IP: IDF line~15805 Alpha Argument length exceeds maximum, will be truncated=  Sp-PatRoom3_Mult10_Flr_4 Sys-3 Flr-3 Sch-H HPlcmt-east ZN NECB System 3 PSZ Occ Sch Winter Design Da\n   **   ~~~   ** Will be processed as Alpha=SP-PATROOM3_MULT10_FLR_4 SYS-3 FLR-3 SCH-H HPLCMT-EAST ZN NECB SYSTEM 3 PSZ OCC SCH WINTER DESIGN DAY\n   ************* IDF Context for following error/warning message:\n   ************* Note -- lines truncated at 300 characters, if necessary...\n   *************  15825 Schedule:Day:Interval,\n   ************* indicated Name=Sp-PatRoom3_Mult10_Flr_4 Sys-3 Flr-3 Sch-H HPlcmt-east ZN NECB System 3 PSZ Occ Sch Summer Design Day\n   ************* Only last 1 lines before error line shown.....\n   *************  15826   Sp-PatRoom3_Mult10_Flr_4 Sys-3 Flr-3 Sch-H HPlcmt-east ZN NECB System 3 PSZ Occ Sch Summer Design Day, !- Name\n   ** Warning ** IP: IDF line~15826 Alpha Argument length exceeds maximum, will be truncated=  Sp-PatRoom3_Mult10_Flr_4 Sys-3 Flr-3 Sch-H HPlcmt-east ZN NECB System 3 PSZ Occ Sch Summer Design Da\n   **   ~~~   ** Will be processed as Alpha=SP-PATROOM3_MULT10_FLR_4 SYS-3 FLR-3 SCH-H HPLCMT-EAST ZN NECB SYSTEM 3 PSZ OCC SCH SUMMER DESIGN DAY\n   ************* IDF Context for following error/warning message:\n   ************* Note -- lines truncated at 300 characters, if necessary...\n   *************  15832 Schedule:Day:Interval,\n   ************* indicated Name=Sp-PatRoom3_Mult10_Flr_4 Sys-3 Flr-3 Sch-H HPlcmt-east ZN NECB System 3 PSZ Occ Sch Winter Design Day\n   ************* Only last 1 lines before error line shown.....\n   *************  15833   Sp-PatRoom3_Mult10_Flr_4 Sys-3 Flr-3 Sch-H HPlcmt-east ZN NECB System 3 PSZ Occ Sch Winter Design Day, !- Name\n   ** Warning ** IP: IDF line~15833 Alpha Argument length exceeds maximum, will be truncated=  Sp-PatRoom3_Mult10_Flr_4 Sys-3 Flr-3 Sch-H HPlcmt-east ZN NECB System 3 PSZ Occ Sch Winter Design Da\n   **   ~~~   ** Will be processed as Alpha=SP-PATROOM3_MULT10_FLR_4 SYS-3 FLR-3 SCH-H HPLCMT-EAST ZN NECB SYSTEM 3 PSZ OCC SCH WINTER DESIGN DAY\n   ************* IDF Context for following error/warning message:\n   ************* Note -- lines truncated at 300 characters, if necessary...\n   *************  16699 Schedule:Week:Daily,\n   ************* indicated Name=Schedule:Week:Daily {aa853d27-faa3-492a-9482-9f6b01ab17c4}\n   ************* Only last 10 lines before error line shown.....\n   *************  16700   Schedule:Week:Daily {aa853d27-faa3-492a-9482-9f6b01ab17c4}, !- Name\n   *************  16701   Sp-PatRoom5_Mult10_Flr_3 Sys-3 Flr-2 Sch-H HPlcmt-north ZN NECB System 3 PSZ Occ Sch Sunday, !- Sunday Schedule:Day Name\n   *************  16702   Sp-PatRoom5_Mult10_Flr_3 Sys-3 Flr-2 Sch-H HPlcmt-north ZN NECB System 3 PSZ Occ Sch Monday, !- Monday Schedule:Day Name\n   *************  16703   Sp-PatRoom5_Mult10_Flr_3 Sys-3 Flr-2 Sch-H HPlcmt-north ZN NECB System 3 PSZ Occ Sch Tuesday, !- Tuesday Schedule:Day Name\n   *************  16704   Sp-PatRoom5_Mult10_Flr_3 Sys-3 Flr-2 Sch-H HPlcmt-north ZN NECB System 3 PSZ Occ Sch Wednesday, !- Wednesday Schedule:Day Name\n   *************  16705   Sp-PatRoom5_Mult10_Flr_3 Sys-3 Flr-2 Sch-H HPlcmt-north ZN NECB System 3 PSZ Occ Sch Thursday, !- Thursday Schedule:Day Name\n   *************  16706   Sp-PatRoom5_Mult10_Flr_3 Sys-3 Flr-2 Sch-H HPlcmt-north ZN NECB System 3 PSZ Occ Sch Friday, !- Friday Schedule:Day Name\n   *************  16707   Sp-PatRoom5_Mult10_Flr_3 Sys-3 Flr-2 Sch-H HPlcmt-north ZN NECB System 3 PSZ Occ Sch Saturday, !- Saturday Schedule:Day Name\n   *************  16708   Sp-PatRoom5_Mult10_Flr_3 Sys-3 Flr-2 Sch-H HPlcmt-north ZN NECB System 3 PSZ Occ Sch Default, !- Holiday Schedule:Day Name\n   *************  16709   Sp-PatRoom5_Mult10_Flr_3 Sys-3 Flr-2 Sch-H HPlcmt-north ZN NECB System 3 PSZ Occ Sch Summer Design Day, !- SummerDesignDay Schedule:Day Name\n   ** Warning ** IP: IDF line~16709 Alpha Argument length exceeds maximum, will be truncated=  Sp-PatRoom5_Mult10_Flr_3 Sys-3 Flr-2 Sch-H HPlcmt-north ZN NECB System 3 PSZ Occ Sch Summer Design Da\n   **   ~~~   ** Will be processed as Alpha=SP-PATROOM5_MULT10_FLR_3 SYS-3 FLR-2 SCH-H HPLCMT-NORTH ZN NECB SYSTEM 3 PSZ OCC SCH SUMMER DESIGN DAY\n   ************* IDF Context for following error/warning message:\n   ************* Note -- lines truncated at 300 characters, if necessary...\n   *************  16699 Schedule:Week:Daily,\n   ************* indicated Name=Schedule:Week:Daily {aa853d27-faa3-492a-9482-9f6b01ab17c4}\n   ************* Only last 10 lines before error line shown.....\n   *************  16701   Sp-PatRoom5_Mult10_Flr_3 Sys-3 Flr-2 Sch-H HPlcmt-north ZN NECB System 3 PSZ Occ Sch Sunday, !- Sunday Schedule:Day Name\n   *************  16702   Sp-PatRoom5_Mult10_Flr_3 Sys-3 Flr-2 Sch-H HPlcmt-north ZN NECB System 3 PSZ Occ Sch Monday, !- Monday Schedule:Day Name\n   *************  16703   Sp-PatRoom5_Mult10_Flr_3 Sys-3 Flr-2 Sch-H HPlcmt-north ZN NECB System 3 PSZ Occ Sch Tuesday, !- Tuesday Schedule:Day Name\n   *************  16704   Sp-PatRoom5_Mult10_Flr_3 Sys-3 Flr-2 Sch-H HPlcmt-north ZN NECB System 3 PSZ Occ Sch Wednesday, !- Wednesday Schedule:Day Name\n   *************  16705   Sp-PatRoom5_Mult10_Flr_3 Sys-3 Flr-2 Sch-H HPlcmt-north ZN NECB System 3 PSZ Occ Sch Thursday, !- Thursday Schedule:Day Name\n   *************  16706   Sp-PatRoom5_Mult10_Flr_3 Sys-3 Flr-2 Sch-H HPlcmt-north ZN NECB System 3 PSZ Occ Sch Friday, !- Friday Schedule:Day Name\n   *************  16707   Sp-PatRoom5_Mult10_Flr_3 Sys-3 Flr-2 Sch-H HPlcmt-north ZN NECB System 3 PSZ Occ Sch Saturday, !- Saturday Schedule:Day Name\n   *************  16708   Sp-PatRoom5_Mult10_Flr_3 Sys-3 Flr-2 Sch-H HPlcmt-north ZN NECB System 3 PSZ Occ Sch Default, !- Holiday Schedule:Day Name\n   *************  16709   Sp-PatRoom5_Mult10_Flr_3 Sys-3 Flr-2 Sch-H HPlcmt-north ZN NECB System 3 PSZ Occ Sch Summer Design Day, !- SummerDesignDay Schedule:Day Name\n   *************  16710   Sp-PatRoom5_Mult10_Flr_3 Sys-3 Flr-2 Sch-H HPlcmt-north ZN NECB System 3 PSZ Occ Sch Winter Design Day, !- WinterDesignDay Schedule:Day Name\n   ** Warning ** IP: IDF line~16710 Alpha Argument length exceeds maximum, will be truncated=  Sp-PatRoom5_Mult10_Flr_3 Sys-3 Flr-2 Sch-H HPlcmt-north ZN NECB System 3 PSZ Occ Sch Winter Design Da\n   **   ~~~   ** Will be processed as Alpha=SP-PATROOM5_MULT10_FLR_3 SYS-3 FLR-2 SCH-H HPLCMT-NORTH ZN NECB SYSTEM 3 PSZ OCC SCH WINTER DESIGN DAY\n   ************* IDF Context for following error/warning message:\n   ************* Note -- lines truncated at 300 characters, if necessary...\n   *************  16730 Schedule:Day:Interval,\n   ************* indicated Name=Sp-PatRoom5_Mult10_Flr_3 Sys-3 Flr-2 Sch-H HPlcmt-north ZN NECB System 3 PSZ Occ Sch Summer Design Day\n   ************* Only last 1 lines before error line shown.....\n   *************  16731   Sp-PatRoom5_Mult10_Flr_3 Sys-3 Flr-2 Sch-H HPlcmt-north ZN NECB System 3 PSZ Occ Sch Summer Design Day, !- Name\n   ** Warning ** IP: IDF line~16731 Alpha Argument length exceeds maximum, will be truncated=  Sp-PatRoom5_Mult10_Flr_3 Sys-3 Flr-2 Sch-H HPlcmt-north ZN NECB System 3 PSZ Occ Sch Summer Design Da\n   **   ~~~   ** Will be processed as Alpha=SP-PATROOM5_MULT10_FLR_3 SYS-3 FLR-2 SCH-H HPLCMT-NORTH ZN NECB SYSTEM 3 PSZ OCC SCH SUMMER DESIGN DAY\n   ************* IDF Context for following error/warning message:\n   ************* Note -- lines truncated at 300 characters, if necessary...\n   *************  16737 Schedule:Day:Interval,\n   ************* indicated Name=Sp-PatRoom5_Mult10_Flr_3 Sys-3 Flr-2 Sch-H HPlcmt-north ZN NECB System 3 PSZ Occ Sch Winter Design Day\n   ************* Only last 1 lines before error line shown.....\n   *************  16738   Sp-PatRoom5_Mult10_Flr_3 Sys-3 Flr-2 Sch-H HPlcmt-north ZN NECB System 3 PSZ Occ Sch Winter Design Day, !- Name\n   ** Warning ** IP: IDF line~16738 Alpha Argument length exceeds maximum, will be truncated=  Sp-PatRoom5_Mult10_Flr_3 Sys-3 Flr-2 Sch-H HPlcmt-north ZN NECB System 3 PSZ Occ Sch Winter Design Da\n   **   ~~~   ** Will be processed as Alpha=SP-PATROOM5_MULT10_FLR_3 SYS-3 FLR-2 SCH-H HPLCMT-NORTH ZN NECB SYSTEM 3 PSZ OCC SCH WINTER DESIGN DAY\n   ************* IDF Context for following error/warning message:\n   ************* Note -- lines truncated at 300 characters, if necessary...\n   *************  17042 Schedule:Week:Daily,\n   ************* indicated Name=Schedule:Week:Daily {0e2f1269-5d54-4201-a3ec-a58e576712cc}\n   ************* Only last 10 lines before error line shown.....\n   *************  17043   Schedule:Week:Daily {0e2f1269-5d54-4201-a3ec-a58e576712cc}, !- Name\n   *************  17044   Sp-PatRoom5_Mult10_Flr_4 Sys-3 Flr-3 Sch-H HPlcmt-north ZN NECB System 3 PSZ Occ Sch Sunday, !- Sunday Schedule:Day Name\n   *************  17045   Sp-PatRoom5_Mult10_Flr_4 Sys-3 Flr-3 Sch-H HPlcmt-north ZN NECB System 3 PSZ Occ Sch Monday, !- Monday Schedule:Day Name\n   *************  17046   Sp-PatRoom5_Mult10_Flr_4 Sys-3 Flr-3 Sch-H HPlcmt-north ZN NECB System 3 PSZ Occ Sch Tuesday, !- Tuesday Schedule:Day Name\n   *************  17047   Sp-PatRoom5_Mult10_Flr_4 Sys-3 Flr-3 Sch-H HPlcmt-north ZN NECB System 3 PSZ Occ Sch Wednesday, !- Wednesday Schedule:Day Name\n   *************  17048   Sp-PatRoom5_Mult10_Flr_4 Sys-3 Flr-3 Sch-H HPlcmt-north ZN NECB System 3 PSZ Occ Sch Thursday, !- Thursday Schedule:Day Name\n   *************  17049   Sp-PatRoom5_Mult10_Flr_4 Sys-3 Flr-3 Sch-H HPlcmt-north ZN NECB System 3 PSZ Occ Sch Friday, !- Friday Schedule:Day Name\n   *************  17050   Sp-PatRoom5_Mult10_Flr_4 Sys-3 Flr-3 Sch-H HPlcmt-north ZN NECB System 3 PSZ Occ Sch Saturday, !- Saturday Schedule:Day Name\n   *************  17051   Sp-PatRoom5_Mult10_Flr_4 Sys-3 Flr-3 Sch-H HPlcmt-north ZN NECB System 3 PSZ Occ Sch Default, !- Holiday Schedule:Day Name\n   *************  17052   Sp-PatRoom5_Mult10_Flr_4 Sys-3 Flr-3 Sch-H HPlcmt-north ZN NECB System 3 PSZ Occ Sch Summer Design Day, !- SummerDesignDay Schedule:Day Name\n   ** Warning ** IP: IDF line~17052 Alpha Argument length exceeds maximum, will be truncated=  Sp-PatRoom5_Mult10_Flr_4 Sys-3 Flr-3 Sch-H HPlcmt-north ZN NECB System 3 PSZ Occ Sch Summer Design Da\n   **   ~~~   ** Will be processed as Alpha=SP-PATROOM5_MULT10_FLR_4 SYS-3 FLR-3 SCH-H HPLCMT-NORTH ZN NECB SYSTEM 3 PSZ OCC SCH SUMMER DESIGN DAY\n   ************* IDF Context for following error/warning message:\n   ************* Note -- lines truncated at 300 characters, if necessary...\n   *************  17042 Schedule:Week:Daily,\n   ************* indicated Name=Schedule:Week:Daily {0e2f1269-5d54-4201-a3ec-a58e576712cc}\n   ************* Only last 10 lines before error line shown.....\n   *************  17044   Sp-PatRoom5_Mult10_Flr_4 Sys-3 Flr-3 Sch-H HPlcmt-north ZN NECB System 3 PSZ Occ Sch Sunday, !- Sunday Schedule:Day Name\n   *************  17045   Sp-PatRoom5_Mult10_Flr_4 Sys-3 Flr-3 Sch-H HPlcmt-north ZN NECB System 3 PSZ Occ Sch Monday, !- Monday Schedule:Day Name\n   *************  17046   Sp-PatRoom5_Mult10_Flr_4 Sys-3 Flr-3 Sch-H HPlcmt-north ZN NECB System 3 PSZ Occ Sch Tuesday, !- Tuesday Schedule:Day Name\n   *************  17047   Sp-PatRoom5_Mult10_Flr_4 Sys-3 Flr-3 Sch-H HPlcmt-north ZN NECB System 3 PSZ Occ Sch Wednesday, !- Wednesday Schedule:Day Name\n   *************  17048   Sp-PatRoom5_Mult10_Flr_4 Sys-3 Flr-3 Sch-H HPlcmt-north ZN NECB System 3 PSZ Occ Sch Thursday, !- Thursday Schedule:Day Name\n   *************  17049   Sp-PatRoom5_Mult10_Flr_4 Sys-3 Flr-3 Sch-H HPlcmt-north ZN NECB System 3 PSZ Occ Sch Friday, !- Friday Schedule:Day Name\n   *************  17050   Sp-PatRoom5_Mult10_Flr_4 Sys-3 Flr-3 Sch-H HPlcmt-north ZN NECB System 3 PSZ Occ Sch Saturday, !- Saturday Schedule:Day Name\n   *************  17051   Sp-PatRoom5_Mult10_Flr_4 Sys-3 Flr-3 Sch-H HPlcmt-north ZN NECB System 3 PSZ Occ Sch Default, !- Holiday Schedule:Day Name\n   *************  17052   Sp-PatRoom5_Mult10_Flr_4 Sys-3 Flr-3 Sch-H HPlcmt-north ZN NECB System 3 PSZ Occ Sch Summer Design Day, !- SummerDesignDay Schedule:Day Name\n   *************  17053   Sp-PatRoom5_Mult10_Flr_4 Sys-3 Flr-3 Sch-H HPlcmt-north ZN NECB System 3 PSZ Occ Sch Winter Design Day, !- WinterDesignDay Schedule:Day Name\n   ** Warning ** IP: IDF line~17053 Alpha Argument length exceeds maximum, will be truncated=  Sp-PatRoom5_Mult10_Flr_4 Sys-3 Flr-3 Sch-H HPlcmt-north ZN NECB System 3 PSZ Occ Sch Winter Design Da\n   **   ~~~   ** Will be processed as Alpha=SP-PATROOM5_MULT10_FLR_4 SYS-3 FLR-3 SCH-H HPLCMT-NORTH ZN NECB SYSTEM 3 PSZ OCC SCH WINTER DESIGN DAY\n   ************* IDF Context for following error/warning message:\n   ************* Note -- lines truncated at 300 characters, if necessary...\n   *************  17073 Schedule:Day:Interval,\n   ************* indicated Name=Sp-PatRoom5_Mult10_Flr_4 Sys-3 Flr-3 Sch-H HPlcmt-north ZN NECB System 3 PSZ Occ Sch Summer Design Day\n   ************* Only last 1 lines before error line shown.....\n   *************  17074   Sp-PatRoom5_Mult10_Flr_4 Sys-3 Flr-3 Sch-H HPlcmt-north ZN NECB System 3 PSZ Occ Sch Summer Design Day, !- Name\n   ** Warning ** IP: IDF line~17074 Alpha Argument length exceeds maximum, will be truncated=  Sp-PatRoom5_Mult10_Flr_4 Sys-3 Flr-3 Sch-H HPlcmt-north ZN NECB System 3 PSZ Occ Sch Summer Design Da\n   **   ~~~   ** Will be processed as Alpha=SP-PATROOM5_MULT10_FLR_4 SYS-3 FLR-3 SCH-H HPLCMT-NORTH ZN NECB SYSTEM 3 PSZ OCC SCH SUMMER DESIGN DAY\n   ************* IDF Context for following error/warning message:\n   ************* Note -- lines truncated at 300 characters, if necessary...\n   *************  17080 Schedule:Day:Interval,\n   ************* indicated Name=Sp-PatRoom5_Mult10_Flr_4 Sys-3 Flr-3 Sch-H HPlcmt-north ZN NECB System 3 PSZ Occ Sch Winter Design Day\n   ************* Only last 1 lines before error line shown.....\n   *************  17081   Sp-PatRoom5_Mult10_Flr_4 Sys-3 Flr-3 Sch-H HPlcmt-north ZN NECB System 3 PSZ Occ Sch Winter Design Day, !- Name\n   ** Warning ** IP: IDF line~17081 Alpha Argument length exceeds maximum, will be truncated=  Sp-PatRoom5_Mult10_Flr_4 Sys-3 Flr-3 Sch-H HPlcmt-north ZN NECB System 3 PSZ Occ Sch Winter Design Da\n   **   ~~~   ** Will be processed as Alpha=SP-PATROOM5_MULT10_FLR_4 SYS-3 FLR-3 SCH-H HPLCMT-NORTH ZN NECB SYSTEM 3 PSZ OCC SCH WINTER DESIGN DAY\n   ************* IDF Context for following error/warning message:\n   ************* Note -- lines truncated at 300 characters, if necessary...\n   *************  17947 Schedule:Week:Daily,\n   ************* indicated Name=Schedule:Week:Daily {1d73f217-164c-431d-a08f-1d4895d1024b}\n   ************* Only last 10 lines before error line shown.....\n   *************  17948   Schedule:Week:Daily {1d73f217-164c-431d-a08f-1d4895d1024b}, !- Name\n   *************  17949   Sp-PatRoom7_Mult10_Flr_3 Sys-3 Flr-2 Sch-H HPlcmt-west ZN NECB System 3 PSZ Occ Sch Sunday, !- Sunday Schedule:Day Name\n   *************  17950   Sp-PatRoom7_Mult10_Flr_3 Sys-3 Flr-2 Sch-H HPlcmt-west ZN NECB System 3 PSZ Occ Sch Monday, !- Monday Schedule:Day Name\n   *************  17951   Sp-PatRoom7_Mult10_Flr_3 Sys-3 Flr-2 Sch-H HPlcmt-west ZN NECB System 3 PSZ Occ Sch Tuesday, !- Tuesday Schedule:Day Name\n   *************  17952   Sp-PatRoom7_Mult10_Flr_3 Sys-3 Flr-2 Sch-H HPlcmt-west ZN NECB System 3 PSZ Occ Sch Wednesday, !- Wednesday Schedule:Day Name\n   *************  17953   Sp-PatRoom7_Mult10_Flr_3 Sys-3 Flr-2 Sch-H HPlcmt-west ZN NECB System 3 PSZ Occ Sch Thursday, !- Thursday Schedule:Day Name\n   *************  17954   Sp-PatRoom7_Mult10_Flr_3 Sys-3 Flr-2 Sch-H HPlcmt-west ZN NECB System 3 PSZ Occ Sch Friday, !- Friday Schedule:Day Name\n   *************  17955   Sp-PatRoom7_Mult10_Flr_3 Sys-3 Flr-2 Sch-H HPlcmt-west ZN NECB System 3 PSZ Occ Sch Saturday, !- Saturday Schedule:Day Name\n   *************  17956   Sp-PatRoom7_Mult10_Flr_3 Sys-3 Flr-2 Sch-H HPlcmt-west ZN NECB System 3 PSZ Occ Sch Default, !- Holiday Schedule:Day Name\n   *************  17957   Sp-PatRoom7_Mult10_Flr_3 Sys-3 Flr-2 Sch-H HPlcmt-west ZN NECB System 3 PSZ Occ Sch Summer Design Day, !- SummerDesignDay Schedule:Day Name\n   ** Warning ** IP: IDF line~17957 Alpha Argument length exceeds maximum, will be truncated=  Sp-PatRoom7_Mult10_Flr_3 Sys-3 Flr-2 Sch-H HPlcmt-west ZN NECB System 3 PSZ Occ Sch Summer Design Da\n   **   ~~~   ** Will be processed as Alpha=SP-PATROOM7_MULT10_FLR_3 SYS-3 FLR-2 SCH-H HPLCMT-WEST ZN NECB SYSTEM 3 PSZ OCC SCH SUMMER DESIGN DAY\n   ************* IDF Context for following error/warning message:\n   ************* Note -- lines truncated at 300 characters, if necessary...\n   *************  17947 Schedule:Week:Daily,\n   ************* indicated Name=Schedule:Week:Daily {1d73f217-164c-431d-a08f-1d4895d1024b}\n   ************* Only last 10 lines before error line shown.....\n   *************  17949   Sp-PatRoom7_Mult10_Flr_3 Sys-3 Flr-2 Sch-H HPlcmt-west ZN NECB System 3 PSZ Occ Sch Sunday, !- Sunday Schedule:Day Name\n   *************  17950   Sp-PatRoom7_Mult10_Flr_3 Sys-3 Flr-2 Sch-H HPlcmt-west ZN NECB System 3 PSZ Occ Sch Monday, !- Monday Schedule:Day Name\n   *************  17951   Sp-PatRoom7_Mult10_Flr_3 Sys-3 Flr-2 Sch-H HPlcmt-west ZN NECB System 3 PSZ Occ Sch Tuesday, !- Tuesday Schedule:Day Name\n   *************  17952   Sp-PatRoom7_Mult10_Flr_3 Sys-3 Flr-2 Sch-H HPlcmt-west ZN NECB System 3 PSZ Occ Sch Wednesday, !- Wednesday Schedule:Day Name\n   *************  17953   Sp-PatRoom7_Mult10_Flr_3 Sys-3 Flr-2 Sch-H HPlcmt-west ZN NECB System 3 PSZ Occ Sch Thursday, !- Thursday Schedule:Day Name\n   *************  17954   Sp-PatRoom7_Mult10_Flr_3 Sys-3 Flr-2 Sch-H HPlcmt-west ZN NECB System 3 PSZ Occ Sch Friday, !- Friday Schedule:Day Name\n   *************  17955   Sp-PatRoom7_Mult10_Flr_3 Sys-3 Flr-2 Sch-H HPlcmt-west ZN NECB System 3 PSZ Occ Sch Saturday, !- Saturday Schedule:Day Name\n   *************  17956   Sp-PatRoom7_Mult10_Flr_3 Sys-3 Flr-2 Sch-H HPlcmt-west ZN NECB System 3 PSZ Occ Sch Default, !- Holiday Schedule:Day Name\n   *************  17957   Sp-PatRoom7_Mult10_Flr_3 Sys-3 Flr-2 Sch-H HPlcmt-west ZN NECB System 3 PSZ Occ Sch Summer Design Day, !- SummerDesignDay Schedule:Day Name\n   *************  17958   Sp-PatRoom7_Mult10_Flr_3 Sys-3 Flr-2 Sch-H HPlcmt-west ZN NECB System 3 PSZ Occ Sch Winter Design Day, !- WinterDesignDay Schedule:Day Name\n   ** Warning ** IP: IDF line~17958 Alpha Argument length exceeds maximum, will be truncated=  Sp-PatRoom7_Mult10_Flr_3 Sys-3 Flr-2 Sch-H HPlcmt-west ZN NECB System 3 PSZ Occ Sch Winter Design Da\n   **   ~~~   ** Will be processed as Alpha=SP-PATROOM7_MULT10_FLR_3 SYS-3 FLR-2 SCH-H HPLCMT-WEST ZN NECB SYSTEM 3 PSZ OCC SCH WINTER DESIGN DAY\n   ************* IDF Context for following error/warning message:\n   ************* Note -- lines truncated at 300 characters, if necessary...\n   *************  17978 Schedule:Day:Interval,\n   ************* indicated Name=Sp-PatRoom7_Mult10_Flr_3 Sys-3 Flr-2 Sch-H HPlcmt-west ZN NECB System 3 PSZ Occ Sch Summer Design Day\n   ************* Only last 1 lines before error line shown.....\n   *************  17979   Sp-PatRoom7_Mult10_Flr_3 Sys-3 Flr-2 Sch-H HPlcmt-west ZN NECB System 3 PSZ Occ Sch Summer Design Day, !- Name\n   ** Warning ** IP: IDF line~17979 Alpha Argument length exceeds maximum, will be truncated=  Sp-PatRoom7_Mult10_Flr_3 Sys-3 Flr-2 Sch-H HPlcmt-west ZN NECB System 3 PSZ Occ Sch Summer Design Da\n   **   ~~~   ** Will be processed as Alpha=SP-PATROOM7_MULT10_FLR_3 SYS-3 FLR-2 SCH-H HPLCMT-WEST ZN NECB SYSTEM 3 PSZ OCC SCH SUMMER DESIGN DAY\n   ************* IDF Context for following error/warning message:\n   ************* Note -- lines truncated at 300 characters, if necessary...\n   *************  17985 Schedule:Day:Interval,\n   ************* indicated Name=Sp-PatRoom7_Mult10_Flr_3 Sys-3 Flr-2 Sch-H HPlcmt-west ZN NECB System 3 PSZ Occ Sch Winter Design Day\n   ************* Only last 1 lines before error line shown.....\n   *************  17986   Sp-PatRoom7_Mult10_Flr_3 Sys-3 Flr-2 Sch-H HPlcmt-west ZN NECB System 3 PSZ Occ Sch Winter Design Day, !- Name\n   ** Warning ** IP: IDF line~17986 Alpha Argument length exceeds maximum, will be truncated=  Sp-PatRoom7_Mult10_Flr_3 Sys-3 Flr-2 Sch-H HPlcmt-west ZN NECB System 3 PSZ Occ Sch Winter Design Da\n   **   ~~~   ** Will be processed as Alpha=SP-PATROOM7_MULT10_FLR_3 SYS-3 FLR-2 SCH-H HPLCMT-WEST ZN NECB SYSTEM 3 PSZ OCC SCH WINTER DESIGN DAY\n   ************* IDF Context for following error/warning message:\n   ************* Note -- lines truncated at 300 characters, if necessary...\n   *************  18290 Schedule:Week:Daily,\n   ************* indicated Name=Schedule:Week:Daily {05735c97-1947-4d0d-8e36-1111dd95f245}\n   ************* Only last 10 lines before error line shown.....\n   *************  18291   Schedule:Week:Daily {05735c97-1947-4d0d-8e36-1111dd95f245}, !- Name\n   *************  18292   Sp-PatRoom7_Mult10_Flr_4 Sys-3 Flr-3 Sch-H HPlcmt-west ZN NECB System 3 PSZ Occ Sch Sunday, !- Sunday Schedule:Day Name\n   *************  18293   Sp-PatRoom7_Mult10_Flr_4 Sys-3 Flr-3 Sch-H HPlcmt-west ZN NECB System 3 PSZ Occ Sch Monday, !- Monday Schedule:Day Name\n   *************  18294   Sp-PatRoom7_Mult10_Flr_4 Sys-3 Flr-3 Sch-H HPlcmt-west ZN NECB System 3 PSZ Occ Sch Tuesday, !- Tuesday Schedule:Day Name\n   *************  18295   Sp-PatRoom7_Mult10_Flr_4 Sys-3 Flr-3 Sch-H HPlcmt-west ZN NECB System 3 PSZ Occ Sch Wednesday, !- Wednesday Schedule:Day Name\n   *************  18296   Sp-PatRoom7_Mult10_Flr_4 Sys-3 Flr-3 Sch-H HPlcmt-west ZN NECB System 3 PSZ Occ Sch Thursday, !- Thursday Schedule:Day Name\n   *************  18297   Sp-PatRoom7_Mult10_Flr_4 Sys-3 Flr-3 Sch-H HPlcmt-west ZN NECB System 3 PSZ Occ Sch Friday, !- Friday Schedule:Day Name\n   *************  18298   Sp-PatRoom7_Mult10_Flr_4 Sys-3 Flr-3 Sch-H HPlcmt-west ZN NECB System 3 PSZ Occ Sch Saturday, !- Saturday Schedule:Day Name\n   *************  18299   Sp-PatRoom7_Mult10_Flr_4 Sys-3 Flr-3 Sch-H HPlcmt-west ZN NECB System 3 PSZ Occ Sch Default, !- Holiday Schedule:Day Name\n   *************  18300   Sp-PatRoom7_Mult10_Flr_4 Sys-3 Flr-3 Sch-H HPlcmt-west ZN NECB System 3 PSZ Occ Sch Summer Design Day, !- SummerDesignDay Schedule:Day Name\n   ** Warning ** IP: IDF line~18300 Alpha Argument length exceeds maximum, will be truncated=  Sp-PatRoom7_Mult10_Flr_4 Sys-3 Flr-3 Sch-H HPlcmt-west ZN NECB System 3 PSZ Occ Sch Summer Design Da\n   **   ~~~   ** Will be processed as Alpha=SP-PATROOM7_MULT10_FLR_4 SYS-3 FLR-3 SCH-H HPLCMT-WEST ZN NECB SYSTEM 3 PSZ OCC SCH SUMMER DESIGN DAY\n   ************* IDF Context for following error/warning message:\n   ************* Note -- lines truncated at 300 characters, if necessary...\n   *************  18290 Schedule:Week:Daily,\n   ************* indicated Name=Schedule:Week:Daily {05735c97-1947-4d0d-8e36-1111dd95f245}\n   ************* Only last 10 lines before error line shown.....\n   *************  18292   Sp-PatRoom7_Mult10_Flr_4 Sys-3 Flr-3 Sch-H HPlcmt-west ZN NECB System 3 PSZ Occ Sch Sunday, !- Sunday Schedule:Day Name\n   *************  18293   Sp-PatRoom7_Mult10_Flr_4 Sys-3 Flr-3 Sch-H HPlcmt-west ZN NECB System 3 PSZ Occ Sch Monday, !- Monday Schedule:Day Name\n   *************  18294   Sp-PatRoom7_Mult10_Flr_4 Sys-3 Flr-3 Sch-H HPlcmt-west ZN NECB System 3 PSZ Occ Sch Tuesday, !- Tuesday Schedule:Day Name\n   *************  18295   Sp-PatRoom7_Mult10_Flr_4 Sys-3 Flr-3 Sch-H HPlcmt-west ZN NECB System 3 PSZ Occ Sch Wednesday, !- Wednesday Schedule:Day Name\n   *************  18296   Sp-PatRoom7_Mult10_Flr_4 Sys-3 Flr-3 Sch-H HPlcmt-west ZN NECB System 3 PSZ Occ Sch Thursday, !- Thursday Schedule:Day Name\n   *************  18297   Sp-PatRoom7_Mult10_Flr_4 Sys-3 Flr-3 Sch-H HPlcmt-west ZN NECB System 3 PSZ Occ Sch Friday, !- Friday Schedule:Day Name\n   *************  18298   Sp-PatRoom7_Mult10_Flr_4 Sys-3 Flr-3 Sch-H HPlcmt-west ZN NECB System 3 PSZ Occ Sch Saturday, !- Saturday Schedule:Day Name\n   *************  18299   Sp-PatRoom7_Mult10_Flr_4 Sys-3 Flr-3 Sch-H HPlcmt-west ZN NECB System 3 PSZ Occ Sch Default, !- Holiday Schedule:Day Name\n   *************  18300   Sp-PatRoom7_Mult10_Flr_4 Sys-3 Flr-3 Sch-H HPlcmt-west ZN NECB System 3 PSZ Occ Sch Summer Design Day, !- SummerDesignDay Schedule:Day Name\n   *************  18301   Sp-PatRoom7_Mult10_Flr_4 Sys-3 Flr-3 Sch-H HPlcmt-west ZN NECB System 3 PSZ Occ Sch Winter Design Day, !- WinterDesignDay Schedule:Day Name\n   ** Warning ** IP: IDF line~18301 Alpha Argument length exceeds maximum, will be truncated=  Sp-PatRoom7_Mult10_Flr_4 Sys-3 Flr-3 Sch-H HPlcmt-west ZN NECB System 3 PSZ Occ Sch Winter Design Da\n   **   ~~~   ** Will be processed as Alpha=SP-PATROOM7_MULT10_FLR_4 SYS-3 FLR-3 SCH-H HPLCMT-WEST ZN NECB SYSTEM 3 PSZ OCC SCH WINTER DESIGN DAY\n   ************* IDF Context for following error/warning message:\n   ************* Note -- lines truncated at 300 characters, if necessary...\n   *************  18321 Schedule:Day:Interval,\n   ************* indicated Name=Sp-PatRoom7_Mult10_Flr_4 Sys-3 Flr-3 Sch-H HPlcmt-west ZN NECB System 3 PSZ Occ Sch Summer Design Day\n   ************* Only last 1 lines before error line shown.....\n   *************  18322   Sp-PatRoom7_Mult10_Flr_4 Sys-3 Flr-3 Sch-H HPlcmt-west ZN NECB System 3 PSZ Occ Sch Summer Design Day, !- Name\n   ** Warning ** IP: IDF line~18322 Alpha Argument length exceeds maximum, will be truncated=  Sp-PatRoom7_Mult10_Flr_4 Sys-3 Flr-3 Sch-H HPlc
[...]
IbHdd8rP092Zr8prusvLqnM52ksZn6aybMo8fOGr5b87WIon5y7Ls/V6szqFO2J7OoWqhw/vG6ll8f8swz3MtgbW4Ec+fMoF7M0KdYwudUUWz8cHPT7p6dbr1x4BjjAAQ5wgAMc4AAHOMABDnD+njgim0+LP4FFINVJEfgLRZTKADSgAQ1oQAMa0IAGNKABDWhAo6e5K/9r1v/QXEdzCRzgAAc4wAEOcIADHOAABzjA2QTn8buBnvpu4GBOfTew65X/wnZysrt7eAhSkIIUpCAFKUhBClKQghSkIAUpSN8Gaack9XOKtF2SdrudzsEeSEEKUpCCFKQgBSlIQQpSkIIUpCB9G6RdRXqWhgRp57Ak9bz9/W4XpCAFKUhBClKQghSkIAUpSEEKUpC+DdJdRfp1MqdID0rSw+LovQcpSEEKUpCCFKQgBSlIQQpSkIIUpG+DtKdI/y0DinS/JP3wod/f3wcpSEEKUpCCFKQgBSlIQQpSkIIUpG+DdK98MjGXFOleSdrv7+2BFKQgBSlIQQpSkIIUpCAFKUhBCtK3QrqvSD8lVGXBTq8kPTjodHo9kIIUpCAFKUhBClKQghSkIAUpSEFqjXSNEqT+XaPS2b2bh3kkBxN/Jt1c3ueNrY/JPM2qMRZ/bvkhnMo4C5M4klnpocLFzo44CQLhi9KTuAvziciSqRRBt6Jldjt2/dlMxkHDUdrOdkWD9eH6eZ42nHunKfbaho0WRaNO/UZZvojkEq/lx8NJkhbtnUiODGhXPkZJnLfuZDie5MrHdRIF9X0sx2Ywa33x84skme5ffZpHude+OovSq10xWGStrih+L34OhpPWR/HxSzScKr0sF79/Fp9P++/VVbmciq74MvhdnA+H6tKtbd0Av9vJhmk4y/9FXvNuJwhvXzaTbWhnhS8RBsfOUM3+ftFhfhjL9Krj9RxRduOxE4TZLPIXR2EcFbbWdZQMv//k0ICF1+U9iHwxK9qrnty58W/95VltS3Xc+qmaqeJYBOF0Fkk3lneD23HD+eEFyKbYbbfLH5Whp/wGfu4Xji//cCL/WkbOkRPIkV8MrJilySiMpNNcWq7unSPPbTedWz+ay9XvQ7VCFW2KRaffPz11Hpq1/HSY/HSZ/Owy+ekx+dlj8rPP5OeAyc8hkx+vzeWIa0Z7XFPa45rTHtek9rhmtcc1rT2uee1xTWyPa2Z3uGZ2h22t5prZHa6Z3TGa2SKbT6fPPllda0dLZWDghuwjMzdkD5m5IfvHzA0Z92ZuyKg3c0PGvJkbMuLN3JDxbuaG3sgM/TDNY3obM/TDNJPpTczQD9NcprcwQz9Ms5newAz9MM1nevsy9MO1LjPNZ3rvMvRTfz7fhXFuvm1dq1P1/ZDdY+iH7B5DP2T3GPohw93QDxnuhn7IcDf0Q4a7oR8y3A390PuXqSOuGU3vYKaOuOY0vYeZOuKa1fQuZuqIa17T+5ipI66ZTe9kpo7Y1mqumU1vZqaO6s/sx3/DqPzGMLXNtZ/9obf8CDGDROf1JbqvL7H7+hK915fYe32J/deXOHh9icPXl3i2s7+WhoX41jyY5dOgn2zxadAPvfg06Ce9fBr0Q2A+Dfr5MJ8G/eiYT4N+qsy3/1mI846NfdzCRt6xsJN3NtvKKz/lWC+tWn7rkUGCHg02CXow2CTosWCToNMqNgk6rWKToNMqNgk6rWKToNMqNgnNv1zzadD/9MenQadVfBp0WsWnQadVfBp0WsWnQadVfBp0WsWnQadVfBp0WsW3/1mIc80/8fNpWNjINWkVn8ZmW3nlF7PqpVXLT2oxSNCjwSZBDwabBD0WbBJ0WsUmQadVbBJ0WsUmQadVbBJ0WsUmoUmr+DTo5ZZPg06r+DTotIpPg06r+DTotIpPg06r+DTotIpPg06r+DTotIpv/7MQ55q0ik/DwkauSav4NDbbyis/TFIvrVp+uYRBgh4NNgl6MNgk6LFgk6DTKjYJOq1ik6DTKjYJOq1ik6DTKjYJTVrFp0Evt3wadFrFp0GnVXwadFrFp0GnVXwadFrFp0GnVXwadFrFp0GnVXz7n4U416RVfBoWNnJNWsWnsdlWXln/vV5atSwQzyBBjwabBD0YbBL0WLBJ0GkVmwSdVrFJ0GkVmwSdVrFJ0GkVm4QmreLToJdbPg06reLToNMqPg06reLToNMqPg06reLToNMqPg06reLToNMqvv3PQpxr0io+DQsbuSat4tPYbCuvLLNbL61a1uFlkKBHg02CHgw2CXos2CTotIpNgk6r2CTotIpNgk6r2CTotIpNQpNW8WnQyy2fBp1W8WnQaRWfBp1W8WnQaRWfBp1W8WnQaRWfBp1W8WnQaRXf/mchzjVpFZ+GhY1ck1bxaWy2lVdWM6yXVi3LHTJI0KPBJkEPBpsEPRZsEnRaxSZBp1VsEnRaxSZBp1VsEnRaxSahLbbGpUEvt3waukJWXBq6GldcGrryV1wauppvXBq6cnBcGrpKcVwauiJyXBq6+nJc+5+FONdWpePSsLCRa9IqPo3qrfxbnQqvq0LO4ljE8m5dQbYsHNvIbsfNsgJsZanYdTXoTObvk3kcZI1euyk8r9cUXfVbp1ev3Ox9gfFY5DoI+n4ux0m6OLkPs2U15cf7r1FyunBwngYyvZir4sa1GyqOxXOOT9LP5qlcYqj6zKt+f+Vy3zDDDDPMMMMMM8wwwwwzzDDDDDPMMMMMM8wwwwwzzDDDDDPMMMMMM8wwwwwzzDDDDDPMMMMMM8wwwwwzzDDDDDPMMMMMM8ww/63MCze5lWkaBvKTr16s9dz2X3xfVb0amz1/NXYg01Bmq9drneb6BeJZlORuFMay8hXZ7KX3dKvfrM3c8tPzsyTy8zCJCygny+WsdS1HSSqdem8+/yrHMg6e39DyXGOv3RRd9eZyW73IrH44kRzlCqzC9dqtezWW+Wmcq/4pJEbzeFiSNrbFHxUu1oTysfVl5bvc6ghHopFPwszNylGpJ6SOJ43cov9O/eGk8V9gU29rfPXqeMG+8ns1S7JQOfxQnK5zN+tDuXmBKk3uzJDWWGEcSBUPLa9p2Hp93GzacBTKSM23xqpPl3EyTpP5TAbixx/FP1bn792riZ+t3n9XAbb91Lp40Vp0iOuPx2dKw41kPM4n4p3oiP8TzkkUOeLo+RVZFA5lo+VtX7a/bVfG25/uJElF46a4lfZP4qaQWU3Vla46989ixTEfIHWoabzyd3nzzf0uF+L4+HjZeZt5LL2uhv3G9FbXx3Uq/e+bNH4wbGN6veqv1d0dq2mtJsNqppSFHNwrP8vCcSyDvioRkV2WPflts65cD/Rsnk0am45FMaRHy/HcPJKi6KjOXbrqyk1VsjxNvst6OstrN1VKZv4wzBf1pFYXb3xXpcRaalMv64Xk+bKySXgYLz7qWIfz84VHtIRn6s0k3OqzPjTLXbXW9Q9VOYU6dnbEl9++iv+c/3YhBucXX3/5/LP49fznX/ri4+nFaT0HZ8WqLe99laKJPBFZkuYink+LeTAUZUmTTPjZsEhewnhcw+O675WfJzuz3xTX9ReXVObzNBYzP83kWZT4ecNXS/52MZRPzl2X52p1ZnWK9kR2dQtVjh9et9LLY/5ZhnsZ7I2tQI78eZSLWZoUa5jcaoqtHw4O+v3T061XLjwDHOAABzjAAQ5wgAMc4AAHOH9PHJHNp8WfwCKQ6qQI/IUiSmUAGtCABjSgAQ1oQAMa0IAGNKDR09yV/zXrf2iuo7kEDnCAAxzgAAc4wAEOcIADHOBsgvP43UBPfTdwMKe+G9j1yn9hOznZ3T08BClIQQpSkIIUpCAFKUhBClKQghSkb4O0U5L6OUXaLkm73U7nYA+kIAUpSEEKUpCCFKQgBSlIQQpSkL4N0q4iPUtDgrRzWJJ63v5+twtSkIIUpCAFKUhBClKQghSkIAUpSN8G6a4i/TqZU6QHJelhcfTegxSkIAUpSEEKUpCCFKQgBSlIQQrSt0HaU6T/lgFFul+SfvjQ7+/vgxSkIAUpSEEKUpCCFKQgBSlIQQrSt0G6Vz6ZmEuKdK8k7ff39kAKUpCCFKQgBSlIQQpSkIIUpCAF6Vsh3VeknxKqsmCnV5IeHHQ6vR5IQQpSkIIUpCAFKUhBClKQghSkILVGukYJUv+uUens3s3DPJKDiT+Tbi7v88bWx2SeZtUYiz+3/BBOZZyFSRzJrPRQ4WJnR5wEgfBF6UnchflEZMlUiqBb0TK7Hbv+bCbjoOEobWe7osH6cP08TxvOvdMUe23DRouiUad+oyxfRHKJ1/Lj4SRJi/ZOJEcGtCsfoyTOW3cyHE9y5eM6iYL6PpZjM5i1vkwW2deJTP3Z4uosSq+6YrDIWl1R/N7qiMFw0uqLj1+i4TRvDZNUit8/i8+n/ffqqlxORVd8GfwuzodDdenWtm5w3+1kwzSc5f8ir3m3E4S3L5vJNrSzwpcIg2NnqGZ+v+gsP4xletXx9hxRduGxE4TZLPIXR2EcFbbWdZQMv//k0ICF1+U9iHwxK9qrXty58W/95VltS3Xc+qmapeJYBOF0Fkk3lneD23HD+eEFyKbYbbfLH5Vhp/wGfu4Xji//cCL/WkbOkRPIkT+PcjFLk1EYSae5tFzdO0ee2246t340l6vfh2p1KtoUC06/f3rqPDRr+ekw+eky+dll8tNj8rPH5Gefyc8Bk59DJj9em8sR14z2uKa0xzWnPa5J7XHNao9rWntc89rjmtge18zucM3sDttazTWzO1wzu2M0s0U2n06ffa661o6WysDADdlHZm7IHjJzQ/aPmRsy7s3ckFFv5oaMeTM3ZMSbuSHj3cwNvZEZ+mGax/Q2ZuiHaSbTm5ihH6a5TG9hhn6YZjO9gRn6YZrP9PZl6IdrXWaaz/TeZein/ny+C+PcfNu6Vqfq+yG7x9AP2T2GfsjuMfRDhruhHzLcDf2Q4W7ohwx3Qz9kuBv6ofcvU0dcM5rewUwdcc1peg8zdcQ1q+ldzNQR17ym9zFTR1wzm97JTB2xrdVcM5vezEwd1Z/Zj/9+Ufl94XrPG5cfIGaQoP+6ZZOg/+5lk6D/ImaToJ8CsUnQz4fYJOgnR2wS9DMlNgn6aRObhOYRK5+GhfjWPJjl07AQ4ZrHuXwaFmJc8xCYT8NClGseHfNpWIhzzQNnPg0b+7iFONc8webT2CzOKz/jWC+tWn7nkUGCHg02CXow2CTosWCToJdcNgl6xWWToBdcNgl6vWWToJdbNglNWsWnYSG+NWkVn4aFCNekVXwaFmJck1bxaViIck1axadhIc41aRWfho193EKca9IqPo3N4rzya1n10qrl57QYJOjRYJOgB4NNgh4LNgl6yWWToFdcNgl6wWWToNdbNgl6uWWT0KRVfBoW4luTVvFpWIhwTVrFp2EhxjVpFZ+GhSjXpFV8GhbiXJNW8WnY2MctxLkmreLT2CzOKz9KUi+tWn61hEGCHg02CXow2CTosWCToJdcNgl6xWWToBdcNgl6vWWToJdbNglNWsWnYSG+NWkVn4aFCNekVXwaFmJck1bxaViIck1axadhIc41aRWfho193EKca9IqPo3N4ryy9nu9tGpZHJ5Bgh4NNgl6MNgk6LFgk6CXXDYJesVlk6AXXDYJer1lk6CXWzYJTVrFp2EhvjVpFZ+GhQjXpFV8GhZiXJNW8WlYiHJNWsWnYSHONWkVn4aNfdxCnGvSKj6NzeK8ssRuvbRqWYOXQYIeDTYJejDYJOixYJOgl1w2CXrFZZOgF1w2CXq9ZZOgl1s2CU1axadhIb41aRWfhoUI16RVfBoWYlyTVvFpWIhyTVrFp2EhzjVpFZ+GjX3cQpxr0io+jc3ivLKSYb20alnqkEFCV+eGSUJXAYdJQlcbh0lCVw+KSUJXKYpJQldDiklCV12KSUJXd4pJQltsjUvDQnxrS7RxaViIcG1hNy4NCzGuLQfHpWEhyrVF5Lg0LMS5tvQcl4aNfdxCnGtr2XFpVMf5tzoVXldFnMWxiOXduoJsWTi2kd2Om2UF2MpSsetK0JnM3yfzOMgavXZTeF6vKbrqt06vXrnZ+wLjscB1EPT9XI6TdHFyH2bLSsqP91+j3HTh4DwNZHoxV4WNazdUHIvnHJ+kn81TucRQtZlX/f7Kpb5hhhlmmGGGGWaYYYYZZphhhhlmmGGGGWaYYYYZZphhhhlmmGGGGWaYYYYZZphhhhlmmGGGGWaYYYYZZphhhhlmmGGGGWaYYf5bmRducivTNAzkJ1+9WOu57b/4vqp6NTZ7/mrsQKahzFav1zrN9QvEsyjJ3SiMZeUrstlL7+lWv1mbueWn52dJ5OdhEhdQTpbLWetajpJUOvXefP5VjmUcPL+h5bnGXrspuurN5bZ6kVn9cCI5yhVYheu1W/dqLPPTOFf9U0iM5vGwJG1siz8qXKwJ5WPry8p3udURjkQjn4SZm5WjUk9IHU8auUX/nfrDSeO/wKbe1vjq1fGCfeX3apZkoXL4oThd527Wh3LzAlWa3JkhrbHCOJAqHlpe07D1+rjZtOEolJGab41Vny7jZJwm85kMxI8/in+szt+7VxM/W73/rgJs+6l18aK16BDXH4/PlIYbyXicT8Q70RH/J5yTKHLE0fMrsigcykbL275sf9uujLc/3UmSisZNcSvtn8RNIbOaqitdde6fxYpjPkDqUNN45e/y5pv7XS7E8fHxsvM281h6XQ37jemtro/rVPrfN2n8YNjG9HrVX6u7O1bTWk2G1UwpCzm4V36WheNYBn1VIiK7LHvy22ZduR7o2TybNDYdi2JIj5bjuXkkRdFRnbt01ZWbqmR5mnyX9XSW126qlMz8YZgv6kmtLt74rkqJtdSmXtYLyfNlZZPwMF581LEO5+cLj2gJz9SbSbjVZ31olrtqresfqnIKdezsiC+/fRX/Of/tQgzOL77+8vln8ev5z7/0xcfTi9N6Ds6KVVve+ypFE3kisiTNRTyfFvNgKMqSJpnws2GRvITxuIbHdd8rP092Zr8prusvLqnM52ksZn6aybMo8fOGr5b87WIon5y7Ls/V6szqFO2J7OoWqhw/vG6ll8f8swz3MtgbW4Ec+fMoF7M0KdYwudUUWz8cHPT7p6dbr1x4BjjAAQ5wgAMc4AAHOMABDnD+njgim0+LP4FFINVJEfgLRZTKADSgAQ1oQAMa0IAGNKABDWhAo6e5K/9r1v/QXEdzCRzgAAc4wAEOcIADHOAABzjA2QTn8buBnvpu4GBOfTew65X/wnZysrt7eAhSkIIUpCAFKUhBClKQghSkIAUpSN8Gaack9XOKtF2SdrudzsEeSEEKUpCCFKQgBSlIQQpSkIIUpCB9G6RdRXqWhgRp57Ak9bz9/W4XpCAFKUhBClKQghSkIAUpSEEKUpC+DdJdRfp1MqdID0rSw+LovQcpSEEKUpCCFKQgBSlIQQpSkIIUpG+DtKdI/y0DinS/JP3wod/f3wcpSEEKUpCCFKQgBSlIQQpSkIIUpG+DdK98MjGXFOleSdrv7+2BFKQgBSlIQQpSkIIUpCAFKUhBCtK3QrqvSD8lVGXBTq8kPTjodHo9kIIUpCAFKUhBClKQghSkIAUpSEFqjXSNEqT+XaPS2b2bh3kkBxN/Jt1c3ueNrY/JPM2qMRZ/bvkhnMo4C5M4klnpocLFzo44CQLhi9KTuAvziciSqRRBt6Jldjt2/dlMxkHDUdrOdkWD9eH6eZ42nHunKfbaho0WRaNO/UZZvojkEq/lx8NJkhbtnUiODGhXPkZJnLfuZDie5MrHdRIF9X0sx2Ywa134QVjMzPHi6ixKr3bFYJG1uqL4vfg5GE5aH8XHL9FwmreGSSrF75/F59P+e3VVLqeiK74Mfhfnw6G6dGtbN7TvdrJhGs7yf5HXvNsJwtuXzWQb2lnhS4TBsTNU875fdJUfxjK96nj7jig78NgJwmwW+YujMI4KW+s6Sobff3JowMLr8h5EvpgV7VUf7tz4t/7yrLalOm79VM1RcSyCcDqLpBvLu8HtuOH88AJkU+y22+WPyqBTfgM/9wvHl384kX8tI+fICeTIn0e5mKXJKIyk01xaru6dI89tN51bP5pL56jXc7uHT45ur+kM1VJVuChWn37/9NR5aNZy23kdt93Xcbv7Om57r+N273Xc7r+O24PXcXv4Om699iv5faU4814p0LxXijTvlULNe6VY814p2LxXijbvlcLNe6V467xSvHVea197pXjrvFK8df5KvIlsPp0++yj4JplDKgMDr3X718xr3d4181q3b8281l3JzLzWXcfMvNZdxcy81l3DzLzWXcHMvNZOGAzdvk501U4XDN2+TnzVThYM3b5OhNVOFQzdvk6M1U4UDN2+TpTVThMM3b7SHvY6UVY7RzB0u3GU3YVx/pfTg2t1RX23dbvW0G3drjV0W7dr/7+9s+1t22jW8PfzK7Yq0MioLIuU5bfGzwPXsdMcJHVhJy0KIzBocS3RoUmBpGwLhf/74VKUazUeapccsnXPzQ9pqhHnvrg7szstyZGhW90FzNCt7gJm6FZ3ATN0q7uAGbrVXcAM3WrXCaZ+a8oz7UrB1G9NmaZdK5j6rSnXtKsFU781ZZt2vWDqt6Z8064YTP3Wta/VlG/aRYOpX7N8+6xz4yK/Myn2RSDvFjdGsvsh7fh21MlubKy8A7K4vRnL5MdwGrhxe9DrCMsadERf/c0e6N1FuU8xHu/auu6hk8hRGM0O7r14fnvwcSw07qGmDk4iV0anU3W3TvtExTFb5vggnXgayTmGuuGYz0HVu8LZDallqTMZeTLOcVOlfEImfph01V2ylZLxc9e9mjTuZoE3CX0n8cIghWrFiZysX8qrMJItvUh6L0cycJcvaP5ZeyuNgr6KBHVTzVJ/5DddV96PXrjtXoxkchQkanxSiatpMMxI22viD427ropQPp59vjI31OFdiXYy9uI0rtV5ekLqeHJSNx2/I2c4bv8JbOptgZ/fY8z9XkzC2FMO36Qf61zN4lBunqGKwjszpAWWF7hSJe661TE8e3Fclz3xypO+ird2PqbzPBlF4XQiXfHdd+Kb/PP77sXYifP1RCXY2lPr7FlrOiBdZzQ6VhpdXwajZCxeC1v8V7QOfL8l9pa/EfveULbXrbXz3ue1lfn21ZWEkWhfp5fS+0FcpzJ5qOa66rPv94VlPkHqUGGc+zu//tz9ItPlbX9/PnjlPGZe82m/Nr3UxXEZSedLmZMfDM8x/b4ar/zq9lVYq2DIIyXbGLsX8yeKpJs9UxSfZyP5udxQLiZ6Mo3H7bJzkU7p3nw+y2eS7+/pXGVXfbOsSpxE4ReppzP/blmlcOIMvWSmJ5V/ufRVZRILqbJeFgvJ8rJSJj2MFx91LNJ5eeER68Iy9WaSbvqsD51sV9X6/sOqmkIdGxvil08fxe8nn07F2cnpx3c/vxXvT96+OxQ/HZ0e6Tk4Tldtee+oEk0koYjDtJAOpjdpHAxFViLGwomHafHiBSMNj4uxV36e7MxOR1zqLy6RTKZRICZOFMtjP3SStqOW/LV0Kp98dpl9pjWYq0u0J7L5Jaxy/PA3PPn5lzu2+eOd6gbs3/IgKnCAAxzgAAc4wAEOcIADHOC8eJyvn3xRRJF0QQMa0IAGNKABDWhAAxrQgAY0xTRfPROoaNQjfsABDnCAAxzgAAc4wAEOcIADnL+x3+JHeTORkZNMIynax2vouPjP6rg4nUz8mTjwIqEm6oX0TNx5CT0Td9Az0bi1AXommrtFz0T0TDRvbYCeieX8omcieiaiZyJ6JqJnInomPucWPRPRMxE9E43LBPRMNHeLnonomYieiaZlAnomlvOLnonomYieieiZ+MyNC/RMfIYDPRPRM1GgZ6IeFnomomdimQM9E9WBnonomZgd6JlY/E30TFztQB3omfgyWosABzjAAQ5wgAMc4AAHOMABzovH+Yd1HAENaEADGtCABjSgAQ1oQAOal0Pz/6bTCXCAAxzgAAc4wAEOcIADHOCU10PPxOcP9Eyc90wU1gvpmrj7Erom7jbWNTH7e9n2TEx++kx+Npn8DJj8bDH52Wbys8PkZ5fJz1JXgUqOuCLa4gppiyumLa6gtrii2uIKa4srri2uwLa4Itvmimybba3mimybK7Jto8jW7+a35Kp8+74KbsgRKt+gr4IbMu/Lt+Cr4IbM+fJN9iq4IfO9Qhu9Kn6Y4pjexip0xqvihymU6T2sQrO7Kn6YopnewCr0r6uyDjLFM717VWhJV8UPUzzTW1f5LnNLbiq0lavihxyeCo3jqvgh071Ca7gqfsh0r9D8rYofMt2rtHer5IgroukdrErHtkqOuIKa3sSqNGGr5Igrrul9rEpftUorI1dk01tZlVZplRxxRTa9m33l6JfICyMvmQlLrIv22TRYU32ottb/1wnWe9Z69vc3crjet6htrrf0H3oHB5ubu7sMEnb9Ev36JTbrlxjUL7FVv8R2/RI79Uvs1i+xtLPXpdFAflsNJLjVQIZbDaS41UCOWw0kudVAllsNpLnVQJ7bDeS53cQ+3kCe2w3kuV0uz+1Mw0kojZ5eWdXv2/bOFoMEPRtsEvRksEnQc8EmQS+5bBL0issmQS+4bBL0essmQS+3bBIFZRWfRgP5XVBW8Wk0kOEFZRWfRgM5XlBW8Wk0kOUFZRWfRgN5XlBW8Wk0sY83kOcFZRWfRrk87yuN48gjNOxdvbLKsra3+30GCXo22CToyWCToOeCTYJectkk6BWXTYJecNkk6PWWTYJ+NopNouCBQD4N+okqPg36YSs+Dfo5LD4N+hEtPg36uUQ+DfqRRT4N+mlGPg36QUc+jQbyvKCs4tNoYh9vYCMvKKv4NMpt5ZtK4+N4Smns6JVV6jeXBj8ySNCzwSZBTwabBD0XbBJ0WcUmQZdVbBJ0WcUmQZdVbBL0cssmUVBW8WnQZRWfBl1W8WnQZRWfBl1W8WnQZRWfBl1W8WnQZRWfBl1W8Wk0kOcFZRWfRhP7eAMbeUFZxadRbisfKI3fpEtpbOuVVW/eHB5ubzNI0LPBJkFPBpsEPRdsEnRZxSZBl1VsEnRZxSZBl1VsEvRyyyZRUFbxadBlFZ8GXVbxadBlFZ8GXVbxadBlFZ8GXVbxadBlFZ8GXVbxaTSQ5wVlFZ9GE/t4Axt5QVnFp1FuK9/KSreppDS29Mqqw8OtLRYJejbYJOjJYJOg54JNgi6r2CTosopNgi6r2CTosopNgl5u2SQKyio+Dbqs4tOgyyo+Dbqs4tOgyyo+Dbqs4tOgyyo+Dbqs4tOgyyo+jQbyvKCs4tNoYh9vYCMvKKv4NMpt5dtK40NIPRZvD/TKqp0d2x4MGCTo2WCToCeDTYKeCzYJuqxik6DLKjYJuqxik6DLKjaJor5TTBKFzda4NIq6VXFpFDWy4tIo6nHFpVHU/opLo6jnG5dGUTs4Lo2iTnFcGkVN5Lg0GsjzgrKKT6OJfbyBjbygrOLTWL2Vf9bp8Jo3Yhb7IpB3iw6yWePYdnw76mQdYFe2il10c45l8mM4Ddy4Peh1hGUNOqKv/mYP9NrN3qcYj52oXffQSeQojGYH914874X8eP0aLaNTByeRK6PTqWpNrH2i4pgtc3yQTjyN5BxDdVfOx73mntwwwwwzzDDDDDPMMMMMM8wwwwwzzDDDDDPMMMMMM8wwwwwzzDDDDDPMMMMMM8wwwwwzzDDDDDPMMMMMM8wwwwwzzDDDDDPMMP+rzLNueCujyHPlB0e9WGt1exXfV1WvxsbLr8aeyciTcf56bauzeIF44odJ1/cCufIV2fi593RXv1kbd7Ofnp+EvpN4YZBCteJETtYv5VUYyZbem8/v5UgG7vIFzT9rb/U6oq/eXO6pF5nVHy1fXiUKbIXrhdvuxUgmR0GixieVuJoGw4y0vSb+WOFiQSgfzz5f+S63Orwr0U7GXtyNs1nRE1LHk5O66fgdOcNx+09gU28LfPXqeMqe+72YhLGnHL5JP9a5msWh3DxDFYV3ZkgLLC9wpcqHdatjePbiuC574pUnfRVv7XxM53kyisLpRLriu+/EN/nn992LsRPn77+rBFt7ap09a00HpOuMRsdKo+vLYJSMxWthi/+K1oHvt8Te8jdi3xvK9rq1dt77vLYy3766kjAS7ev0Uno/iOtUJg/VXFd99n264phPkDpUGOf+zq8/d7/Imdjf358PXjmPmdd82q9NL3VxXEbS+VLm5AfDc0y/r8Yrv7p9FdYqGPJIyRo5dC+cOPZGgXQPVYuI+Dwbyc/lhnIx0ZNpPG6XnYt0Svfm81k+k3x/T+cqu+qbZVXiJAq/SD2d+XfLKoUTZ+glMz2p/MulryqTWEiV9bJYSJaXlTLpYbz4qGORzssLj1gXlqk3k3TTZ33oZLuq1vcfVtUU6tjYEL98+ih+P/l0Ks5OTj+++/mteH/y9t2h+Ono9EjPwXG6ast7R5VoIglFHEaJCKY3aRwMRdbSJBZOPEyLFy8YaXhcjL3y82RndjriUn9xiWQyjQIxcaJYHvuhk7QdteSvpVP55LPL7DOtwVxdoj2RzS9hleOHeju9PNafWbpnyd5+5corZ+onYhKF6RomX3XEq293dg4Pj45e1dx4BjjAAQ5wgAMc4AAHOMABDnD+nTgint6k/wksXKk+FK4zU0SRdEEDGtCABjSgAQ1oQAMa0IAGNMU0d9mjWX+hufSnEjjAAQ5wgAMc4AAHOMABDnCAUwbn8XcDLfW7gWdT6ncD+1Z2h+3gYHNzdxekIAUpSEEKUpCCFKQgBSlIQQpSkL4MUjsjdRKKtJeR9vu2vbMFUpCCFKQgBSlIQQpSkIIUpCAFKUhfBmlfkR5HHkFq72aklrW93e+DFKQgBSlIQQpSkIIUpCAFKUhBCtKXQbqpSD+OpxTpTka6mx6DH0EKUpCCFKQgBSlIQQpSkIIUpCAF6csgHSjS36RLkW5npG/eHB5ub4MUpCAFKUhBClKQghSkIAUpSEEK0pdBupX9n4mppEi3MtLDw60tkIIUpCAFKUhBClKQghSkIAUpSEH6Uki3FemHkOosaA8y0p0d2x4MQApSkIIUpCAFKUhBClKQghSkIAVpY6QLFDdy7tornd13Ey/x5dnYmchuIu+T9qufwmkUr8aYfX3mG+9GBrEXBr6MMw8rXGxsiAPXFY7IPIk7LxmLOLyRwu2vODO+HXWdyUQGbrultFtrK05YHF0nSaJ2677VEVs9w5Nm6Um2/klxMvPlHG/dCYbjMErPb/nyyoA293EVBsn6nfRG40T5uAx9V9/HfG5+Pfh1PsCnciydRFjiZDgUZ8Pxq7WiaXq9EQ8jb5L8h/zO6w3Xu33eTJ5DO0t9Cc/dbw1VDB+ml+14gYwubLvXEtlg7LdcL574zmzPC/zUtn7ph8MvP7RowNTr/BpEMpuk56vx2Lh2bp35p4VnquPWiVS8iX3hejcTX3YDeXd2O2q3vn0GsiM2e73sj5UJpPy6TuKkjs//aPnOpfRbey1XXjlTPxGTKLzyfNnqzC0X9609q9vrtG4dfyrzvw/VOpOeky4dh4dHR62HjpYfm8lPn8nPJpOfAZOfLSY/20x+dpj87DL5sXpcjrgi2uIKaYsrpi2uoLa4otriCmuLK64trsC2uCLb5opsm22t5opsmyuybaPIFvH05mbph6e1drRIugZuyDEyc0OOkJkbcnzM3JB5b+aGzHozN2TOm7khM97MDZnvZm7ojczQD1Mc09uYoR+mSKY3MUM/TLFMb2GGfpiimd7ADP0wxTO9fRn64VqXmeKZ3rsM/ejH850XJObb1qX6SN8POTyGfsjhMfRDDo+hHzLdDf2Q6W7oh0x3Qz9kuhv6IdPd0A+9f5k64opoegczdcQV0/QeZuqIK6rpXczUEVdc0/uYqSOuyKZ3MlNHbGs1V2TTm5mpI/3IfrwTsfKXgqltrrf0H3rznxJmkLDrl+jXL7FZv8Sgfomt+iW265fYqV9it36JpZ29Lo0G8ttqIMGtBjLcaiDFrQZy3Gogya0GstxqIM2tBvLcbiDP7Sb28Qby3G4gz+1yeb7yBxn1yqr5LzYySNCzwSZBTwabBD0XbBL0kssmQa+4bBL0gssmQa+3bBL0cssmUVBW8Wk0kN8FZRWfRgMZXlBW8Wk0kOMFZRWfRgNZXlBW8Wk0kOcFZRWfRhP7eAN5XlBW8WmUy/OVv3ulV1bNfxiLQYKeDTYJejLYJOi5YJOgl1w2CXrFZZOgF1w2CXq9ZZOgn41ikyh4IJBPg36iik+DftiKT4N+DotPg35Ei0+Dfi6RT4N+ZJFPg36akU+DftCRT6OBPC94PJJPo4E8L3iokk+jgZ28oKwq0lj58yJ6ZdX890cYJOiyik2Cngw2CXou2CTosopNgi6r2CTosopNgi6r2CTo5ZZNoqCs4tOgl1s+DXq55dOgyyo+Dbqs4tOgyyo+Dbqs4tOgyyo+Dbqs4tNoIM8Lyio+jQbyvKCs4tNoYCcvKKuKNFZ2cdcrq+Zt3hkk6LKKTYKeDDYJei7YJOiyik2CLqvYJOiyik2CLqvYJOjllk2ioKzi06CXWz4Nernl06DLKj4Nuqzi06DLKj4Nuqzi06DLKj4Nuqzi02ggzwvKKj6NBvK8oKzi02hgJy8oq4o0VjbL1Sur5t10GSTosopNgp4MNgl6Ltgk6LKKTYIuq9gk6LKKTYIuq9gk6OWWTaKgrOLToJdbPg16ueXToMsqPg26rOLToMsqPg26rOLToMsqPg26rOLTaCDPC8oqPo0G8rygrOLTaGAnLyirijRW9iTUK6vmTQsZJOiyik2Cngw2CXou2CTosopNgi6r2CTosopNgi6r2CSK+k4xSRQ2W+PSoJdbPo2iRlZcGkU9rrg0itpfcWkU9Xzj0ihqB8elUdQpjkujqIkcl0YDeV7Yeo5Lo4E8L2xYx6XRwE5eUFYtND7rdHjN2zGLfRHIu0UH2axxbDu+HXWyDrArW8UuejrHMvkxnAZu3B70OsKyBh3RV3+zB3rtZu9TjMdW1a576CRyFEazg3svnvdEfrx+jcbRqYOTyJXR6VS1KNY+UXHMljk+SCeeRnKOobos5+Nec9NumGGGGWaYYYYZZphhhhlmmGGGGWaYYYYZZphhhhlmmGGGGWaYYYYZZphhhhlmmGGGGWaYYYYZZphhhhlmmGGGGWaYYYYZZpj/VeZZN7yVUeS58oOjXqy1ur2K76uqV2Pj5Vdjz2TkyTh/vbbVWbxAPPHDpOt7gVz5imz83Hu6q9+sjbvZT89PQt9JvDBIoVpxIifrl/IqjGRL783n93IkA3f5guaftbd6HdFXby731IvM6o+WL68SBbbC9cJt92Ikk6MgUeOTSlxNg2FG2l4Tf6xwsSCUj2efr3yXWx3elWgnYy/uxtms6Amp48lJ3XT8jpzhuP0nsKm3Bb56dTxlz/1eTMLYUw7fpB/rXM3iUG6eoYrCOzOkBZYXuFLlw7rVMTx7cVyXPfHKk76Kt3Y+pvM8GUXhdCJd8d134pv88/vuxdiJ8/ffVYKtPbXOnrWmA9J1RqNjpdH1ZTBKxuK1sMV/RevA91tib/kbse8NZXvdWjvvfV5bmW9fXUkYifZ1eim9H8R1KpOHaq6rPvs+XXHMJ0gdKoxzf+fXn7tf5Ezs7+/PB6+cx8xrPu3Xppe6OC4j6Xwpc/KD4Tmm31fjlV/dvgprFQx5pGSNHLoXThx7o0C6h6pFRHyejeTnckO5mOjJNB63y85FOqV78/ksn0m+v6dzlV31zbIqcRKFX6Sezvy7ZZXCiTP0kpmeVP7l0leVSSykynpZLCTLy0qZ9DBefNSxSOflhUesC8vUm0m66bM+dLJdVev7D6tqCnVsbIhfPn0Uv598OhVnJ6cf3/38Vrw/efvuUPx0dHqk5+A4XbXlvaNKNJGEIg6jRATTmzQOhiJraRILJx6mxYsXjDQ8LsZe+XmyMzsdcam/uEQymUaBmDhRLI/90Enajlry19KpfPLZZfaZ1mCuLtGeyOaXsMrxQ72dXh7rzyzds2Rvv3LllTP1EzGJwnQNk6864tW3OzuHh0dHr2puPAMc4AAHOMABDnCAAxzgAAc4/04cEU9v0v8EFq5UHwrXmSmiSLqgAQ1oQAMa0IAGNKABDWhAA5pimrvs0ay/0Fz6Uwkc4AAHOMABDnCAAxzgAAc4wCmD8/i7gZb63cCzKfW7gX0ru8N2cLC5ubsLUpCCFKQgBSlIQQpSkIIUpCAFKUhfBqmdkToJRdrLSPt9297ZAilIQQpSkIIUpCAFKUhBClKQghSkL4O0r0iPI48gtXczUsva3u73QQpSkIIUpCAFKUhBClKQghSkIAXpyyDdVKQfx1OKdCcj3U2PwY8gBSlIQQpSkIIUpCAFKUhBClKQgvRlkA4U6W/SpUi3M9I3bw4Pt7dBClKQghSkIAUpSEEKUpCCFKQgBenLIN3K/s/EVFKkWxnp4eHWFkhBClKQghSkIAUpSEEKUpCCFKQgfSmk24r0Q0h1FrQHGenOjm0PBiAFKUhBClKQghSkIAUpSEEKUpCCtDHSBYobOXftlc7uu4mX+PJs7ExkN5H3SfvVT+E0ildjzL4+8413I4PYCwNfxpmHFS42NsSB6wpHZJ7EnZeMRRzeSOH2V5wZ3466zmQiA7fdUtqttRUnLI6ukyRRu3Xf6oitnuFJs/QkW/+kOJn5co637gTDcRil57d8eWVAm/u4CoNk/U56o3GifFyGvqvvYz43vx78Oh/gUzmWTiJOhkNxNhy/WiuapNcb8TDyJsl/yO+83nC92+fN5Dm0s9SX8Nz91lBF8GF60Y4XyOjCtq2WyIZiv+V68cR3Znte4Ke29Us/HH75oUUDpl7n1yCS2SQ9X43GxrVz68w/LTxTHbdOpKJN7AvXu5n4shvIu7PbUbv17TOQHbHZ62V/rEwf5dd1Eid1fP5Hy3cupd/aa7nyypn6iZhE4ZXny1Znbrm4b+1Z3V6ndev4U9na29rt7j45dnY7raFac1IP6TJyeHh01HroaHm1a/Har8XrZi1eB7V43arF63YtXndq8bpbi1erV4/berLLqie9rHryy6onwax6MsyqJ8WsenLMqifJrHqyzK4ny+ya9rB6ssyuJ8vsClkm4unNzdLPeJeoECLpGjjVHFszp5oja+ZUc1zNnGquXWZONVcuM6ea65aZU81Vy8yp5ppl5lS3MDD0WktO6ZYFhl5rySrdosDQay15pVsSGHqtJbN0CwJDr7Xklm45YOi1nv2qltzSrQUMvZbNrTsvSKqWAZfqC/peNYfV0KvmsBp61RxWQ6+aS5ahV80ly9Cr5pJl6FVzyTL0qrlkGXrVrQdM3daTXboVganbevJLtyYwdVtPhulWBaZu68kx3brA1G09WaZbGZi6rWkPqyfLdIsDU7dGWfZZ54ZDfm9Q7ItA3i1uaGT3Mdrx7aiT3ZBYeedicYMxlsmP4TRw4/ag1xGWNeiIvvqbPdC7+3GfYjzeN3XdQyeRozCaHdx78fwG3eNQaNzFTB2cRK6MTqfqfpn2iYpjtszxQTrxNJJzDHXLL5+CqvdlsxtJy1JnMvJknOOmSvmETPww6aq7Wysl4+euezVp3M3ibhL6TuKFQQrVihM5Wb+UV2EkW3qR9F6OZOAuX9D8s/ZWGgV9FQnqZpil/shve668I7xw270YyeQoSNT4pBJX02CYkbbXxB8a9z0VoXw8+3xlbqjDuxLtZOzFaVyr8/SE1PHkpG46fkfOcNz+E9jU2wI/vzeY+72YhLGnHL5JP9a5msWh3DxDFYV3ZkgLLC9wpUrcdatjePbiuC574pUnfRVv7XxM53kyisLpRLriu+/EN/nn992LsRPn64lKsLWn1tmz1nRAus5odKw0ur4MRslYvBa2+K9oHfh+S+wtfyP2vaFsr1tr573Payvz7asrCSPRvk4vpfeDuE5l8lDNddVn3+8Ly3yC1KHCOPd3fv25+0Wmy9v+/nzwynnMvObTfm16qYvjMpLOlzInPxieY/p9NV751e2rsFbBkEdKtjF2L+bP9Eg3e6onPs9G8nO5oVxM9GQaj9tl5yKd0r35fJbPJN/f07nKrvpmWZU4icIvUk9n/t2ySuHEGXrJTE8q/3Lpq8okFlJlvSwWkuVlpUx6GC8+6lik8/LCI9aFZerNJN30WR862a6q9f2HVTWFOjY2xC+fPorfTz6dirOT04/vfn4r3p+8fXcofjo6PdJzcJyu2vLeUSWaSEIRh2khHUxv0jgYiqxEjIUTD9PixQtGGh4XY6/8PNmZnY641F9cIplMo0BMnCiWx37oJG1HLflr6VQ++ewy+0xrMFeXaE9k80tY5fjhb3j28i83YPMHLNUN1b/lUVDgAAc4wAEOcIADHOAABzjAefE4Xz/googi6YIGNKABDWhAAxrQgAY0oAENaIppvnokUNGoR/yAAxzgAAc4wAEOcIADHOAABzh/Y8fDj/JmIiMnmUZStI/X0PPwH9Xz8DdHRdxPMvvHwc2lJ4NEqClTnQ+lO03Hf11s945fSBNE+yU0QbQba4KYvXpatgkTk58+k59NJj8DJj9bTH62mfzsMPnZZfKz1F2gkiOuiLa4QtriimmLK6gtrqi2uMLa4opriyuwLa7Itrki22Zbq7ki2+aKbNsosvWb9i25Kt+mr4IbcoTKt+Kr4IbM+/Lt9iq4IXO+fEu9Cm7IfK/QNq+KH6Y4prexCs3wqvhhCmV6D6vQ4q6KH6ZopjewCo3rqqyDTPFM714V2tFV8cMUz/TWVb7J3JKbCm3lqvghh6dC67gqfsh0r9AeroofMt0rtICr4odM9ypt3io54opoeger0rytkiOuoKY3sSot2So54opreh+r0mit0srIFdn0VlalfVolR1yRTe9maIr2IpqiwQwzzDDDDDPMMMMMM8wwwwwzzDDD/E8yz7rhrYwiz5UfHPU/qqxuD03xn1wJmuI/HmiKb3SgKT6a4hscaIr/1wNN8f96oCm+4YGm+GiK/+yBpvjAAQ5wgAMc4AAHOMABDnCAA5yX0FISNKABDWhAAxrQgAY0oAENaF4Ozf+bVpbAAQ5wgAMc4AAHOMABDnCAU17vb2iK/8a7kUHshYEv4xgt8f9ZLfHD6Is4urryhp4MhrPHRvjNtsDPv/0Xy9N/X/x9/s9H7/lfHv9xGboz9c9xcuP/53/+D+c1F1M="
               },
               {
                  "name" : "annual_peak_electric_demand",
                  "units" : "kW",
                  "value" : 650.5684
               },
               {
                  "name" : "first_year_capital_cost",
                  "units" : "$",
                  "value" : 0
               },
               {
                  "name" : "annual_utility_cost",
                  "units" : "$",
                  "value" : 0
               },
               {
                  "name" : "total_lifecycle_cost",
                  "units" : "$",
                  "value" : 0
               }
            ],
            "step_warnings" : []
         }
      }
   ],
   "updated_at" : "20170710T192034Z",
   "weather_file" : "USA_CO_Denver.Intl.AP.725650_TMY3.epw"
}
