{
   "completed_at" : "20170710T183208Z",
   "completed_status" : "Success",
   "created_at" : "2017-07-10 18:24:38 +0000",
   "current_step" : 5,
   "description" : "",
   "eplusout_err" : "Program Version,EnergyPlus, Version 8.7.0-78a111df4a, YMD=2017.07.10 18:27,IDD_Version 8.7.0\n   ************* IDF Context for following error/warning message:\n   ************* Note -- lines truncated at 300 characters, if necessary...\n   *************      5 Building,\n   ************* indicated Name=NECB 2011-PrimarySchool-NECB HDD Method-CAN_AB_Edmonton.711230_CWEC.epw created: 2017-07-10 18:24:49 +0000\n   ************* Only last 1 lines before error line shown.....\n   *************      6   NECB 2011-PrimarySchool-NECB HDD Method-CAN_AB_Edmonton.711230_CWEC.epw created: 2017-07-10 18:24:49 +0000, !- Name\n   ** Warning ** IP: IDF line~6 Alpha Argument length exceeds maximum, will be truncated=  NECB 2011-PrimarySchool-NECB HDD Method-CAN_AB_Edmonton.711230_CWEC.epw created: 2017-07-10 18:24:49 +000\n   **   ~~~   ** Will be processed as Alpha=NECB 2011-PRIMARYSCHOOL-NECB HDD METHOD-CAN_AB_EDMONTON.711230_CWEC.EPW CREATED: 2017-07-10 18:24:49 +0000\n   ************* IDF Context for following error/warning message:\n   ************* Note -- lines truncated at 300 characters, if necessary...\n   *************   1058 Schedule:Week:Daily,\n   ************* indicated Name=Schedule:Week:Daily {a943545e-3ec6-486e-a0b8-52d1c7f7f99c}\n   ************* Only last 10 lines before error line shown.....\n   *************   1059   Schedule:Week:Daily {a943545e-3ec6-486e-a0b8-52d1c7f7f99c}, !- Name\n   *************   1060   Sp-Cafeteria_ZN_1_FLR_1 Sys-3 Flr-1 Sch-C HPlcmt-north ZN NECB System 3 PSZ Occ Sch Sunday, !- Sunday Schedule:Day Name\n   *************   1061   Sp-Cafeteria_ZN_1_FLR_1 Sys-3 Flr-1 Sch-C HPlcmt-north ZN NECB System 3 PSZ Occ Sch Monday, !- Monday Schedule:Day Name\n   *************   1062   Sp-Cafeteria_ZN_1_FLR_1 Sys-3 Flr-1 Sch-C HPlcmt-north ZN NECB System 3 PSZ Occ Sch Tuesday, !- Tuesday Schedule:Day Name\n   *************   1063   Sp-Cafeteria_ZN_1_FLR_1 Sys-3 Flr-1 Sch-C HPlcmt-north ZN NECB System 3 PSZ Occ Sch Wednesday, !- Wednesday Schedule:Day Name\n   *************   1064   Sp-Cafeteria_ZN_1_FLR_1 Sys-3 Flr-1 Sch-C HPlcmt-north ZN NECB System 3 PSZ Occ Sch Thursday, !- Thursday Schedule:Day Name\n   *************   1065   Sp-Cafeteria_ZN_1_FLR_1 Sys-3 Flr-1 Sch-C HPlcmt-north ZN NECB System 3 PSZ Occ Sch Friday, !- Friday Schedule:Day Name\n   *************   1066   Sp-Cafeteria_ZN_1_FLR_1 Sys-3 Flr-1 Sch-C HPlcmt-north ZN NECB System 3 PSZ Occ Sch Saturday, !- Saturday Schedule:Day Name\n   *************   1067   Sp-Cafeteria_ZN_1_FLR_1 Sys-3 Flr-1 Sch-C HPlcmt-north ZN NECB System 3 PSZ Occ Sch Default, !- Holiday Schedule:Day Name\n   *************   1068   Sp-Cafeteria_ZN_1_FLR_1 Sys-3 Flr-1 Sch-C HPlcmt-north ZN NECB System 3 PSZ Occ Sch Summer Design Day, !- SummerDesignDay Schedule:Day Name\n   ** Warning ** IP: IDF line~1068 Alpha Argument length exceeds maximum, will be truncated=  Sp-Cafeteria_ZN_1_FLR_1 Sys-3 Flr-1 Sch-C HPlcmt-north ZN NECB System 3 PSZ Occ Sch Summer Design Da\n   **   ~~~   ** Will be processed as Alpha=SP-CAFETERIA_ZN_1_FLR_1 SYS-3 FLR-1 SCH-C HPLCMT-NORTH ZN NECB SYSTEM 3 PSZ OCC SCH SUMMER DESIGN DAY\n   ************* IDF Context for following error/warning message:\n   ************* Note -- lines truncated at 300 characters, if necessary...\n   *************   1058 Schedule:Week:Daily,\n   ************* indicated Name=Schedule:Week:Daily {a943545e-3ec6-486e-a0b8-52d1c7f7f99c}\n   ************* Only last 10 lines before error line shown.....\n   *************   1060   Sp-Cafeteria_ZN_1_FLR_1 Sys-3 Flr-1 Sch-C HPlcmt-north ZN NECB System 3 PSZ Occ Sch Sunday, !- Sunday Schedule:Day Name\n   *************   1061   Sp-Cafeteria_ZN_1_FLR_1 Sys-3 Flr-1 Sch-C HPlcmt-north ZN NECB System 3 PSZ Occ Sch Monday, !- Monday Schedule:Day Name\n   *************   1062   Sp-Cafeteria_ZN_1_FLR_1 Sys-3 Flr-1 Sch-C HPlcmt-north ZN NECB System 3 PSZ Occ Sch Tuesday, !- Tuesday Schedule:Day Name\n   *************   1063   Sp-Cafeteria_ZN_1_FLR_1 Sys-3 Flr-1 Sch-C HPlcmt-north ZN NECB System 3 PSZ Occ Sch Wednesday, !- Wednesday Schedule:Day Name\n   *************   1064   Sp-Cafeteria_ZN_1_FLR_1 Sys-3 Flr-1 Sch-C HPlcmt-north ZN NECB System 3 PSZ Occ Sch Thursday, !- Thursday Schedule:Day Name\n   *************   1065   Sp-Cafeteria_ZN_1_FLR_1 Sys-3 Flr-1 Sch-C HPlcmt-north ZN NECB System 3 PSZ Occ Sch Friday, !- Friday Schedule:Day Name\n   *************   1066   Sp-Cafeteria_ZN_1_FLR_1 Sys-3 Flr-1 Sch-C HPlcmt-north ZN NECB System 3 PSZ Occ Sch Saturday, !- Saturday Schedule:Day Name\n   *************   1067   Sp-Cafeteria_ZN_1_FLR_1 Sys-3 Flr-1 Sch-C HPlcmt-north ZN NECB System 3 PSZ Occ Sch Default, !- Holiday Schedule:Day Name\n   *************   1068   Sp-Cafeteria_ZN_1_FLR_1 Sys-3 Flr-1 Sch-C HPlcmt-north ZN NECB System 3 PSZ Occ Sch Summer Design Day, !- SummerDesignDay Schedule:Day Name\n   *************   1069   Sp-Cafeteria_ZN_1_FLR_1 Sys-3 Flr-1 Sch-C HPlcmt-north ZN NECB System 3 PSZ Occ Sch Winter Design Day, !- WinterDesignDay Schedule:Day Name\n   ** Warning ** IP: IDF line~1069 Alpha Argument length exceeds maximum, will be truncated=  Sp-Cafeteria_ZN_1_FLR_1 Sys-3 Flr-1 Sch-C HPlcmt-north ZN NECB System 3 PSZ Occ Sch Winter Design Da\n   **   ~~~   ** Will be processed as Alpha=SP-CAFETERIA_ZN_1_FLR_1 SYS-3 FLR-1 SCH-C HPLCMT-NORTH ZN NECB SYSTEM 3 PSZ OCC SCH WINTER DESIGN DAY\n   ************* IDF Context for following error/warning message:\n   ************* Note -- lines truncated at 300 characters, if necessary...\n   *************   1089 Schedule:Day:Interval,\n   ************* indicated Name=Sp-Cafeteria_ZN_1_FLR_1 Sys-3 Flr-1 Sch-C HPlcmt-north ZN NECB System 3 PSZ Occ Sch Summer Design Day\n   ************* Only last 1 lines before error line shown.....\n   *************   1090   Sp-Cafeteria_ZN_1_FLR_1 Sys-3 Flr-1 Sch-C HPlcmt-north ZN NECB System 3 PSZ Occ Sch Summer Design Day, !- Name\n   ** Warning ** IP: IDF line~1090 Alpha Argument length exceeds maximum, will be truncated=  Sp-Cafeteria_ZN_1_FLR_1 Sys-3 Flr-1 Sch-C HPlcmt-north ZN NECB System 3 PSZ Occ Sch Summer Design Da\n   **   ~~~   ** Will be processed as Alpha=SP-CAFETERIA_ZN_1_FLR_1 SYS-3 FLR-1 SCH-C HPLCMT-NORTH ZN NECB SYSTEM 3 PSZ OCC SCH SUMMER DESIGN DAY\n   ************* IDF Context for following error/warning message:\n   ************* Note -- lines truncated at 300 characters, if necessary...\n   *************   1096 Schedule:Day:Interval,\n   ************* indicated Name=Sp-Cafeteria_ZN_1_FLR_1 Sys-3 Flr-1 Sch-C HPlcmt-north ZN NECB System 3 PSZ Occ Sch Winter Design Day\n   ************* Only last 1 lines before error line shown.....\n   *************   1097   Sp-Cafeteria_ZN_1_FLR_1 Sys-3 Flr-1 Sch-C HPlcmt-north ZN NECB System 3 PSZ Occ Sch Winter Design Day, !- Name\n   ** Warning ** IP: IDF line~1097 Alpha Argument length exceeds maximum, will be truncated=  Sp-Cafeteria_ZN_1_FLR_1 Sys-3 Flr-1 Sch-C HPlcmt-north ZN NECB System 3 PSZ Occ Sch Winter Design Da\n   **   ~~~   ** Will be processed as Alpha=SP-CAFETERIA_ZN_1_FLR_1 SYS-3 FLR-1 SCH-C HPLCMT-NORTH ZN NECB SYSTEM 3 PSZ OCC SCH WINTER DESIGN DAY\n   ************* IDF Context for following error/warning message:\n   ************* Note -- lines truncated at 300 characters, if necessary...\n   *************   1450 Schedule:Week:Daily,\n   ************* indicated Name=Schedule:Week:Daily {55f7a6a0-389f-4865-b3e4-79d121ac0961}\n   ************* Only last 10 lines before error line shown.....\n   *************   1451   Schedule:Week:Daily {55f7a6a0-389f-4865-b3e4-79d121ac0961}, !- Name\n   *************   1452   Sp-Computer_Class_ZN_1_FLR_1 Sys-3 Flr-1 Sch-D HPlcmt-north ZN NECB System 3 PSZ Occ Sch Sunday, !- Sunday Schedule:Day Name\n   *************   1453   Sp-Computer_Class_ZN_1_FLR_1 Sys-3 Flr-1 Sch-D HPlcmt-north ZN NECB System 3 PSZ Occ Sch Monday, !- Monday Schedule:Day Name\n   *************   1454   Sp-Computer_Class_ZN_1_FLR_1 Sys-3 Flr-1 Sch-D HPlcmt-north ZN NECB System 3 PSZ Occ Sch Tuesday, !- Tuesday Schedule:Day Name\n   *************   1455   Sp-Computer_Class_ZN_1_FLR_1 Sys-3 Flr-1 Sch-D HPlcmt-north ZN NECB System 3 PSZ Occ Sch Wednesday, !- Wednesday Schedule:Day Name\n   *************   1456   Sp-Computer_Class_ZN_1_FLR_1 Sys-3 Flr-1 Sch-D HPlcmt-north ZN NECB System 3 PSZ Occ Sch Thursday, !- Thursday Schedule:Day Name\n   *************   1457   Sp-Computer_Class_ZN_1_FLR_1 Sys-3 Flr-1 Sch-D HPlcmt-north ZN NECB System 3 PSZ Occ Sch Friday, !- Friday Schedule:Day Name\n   *************   1458   Sp-Computer_Class_ZN_1_FLR_1 Sys-3 Flr-1 Sch-D HPlcmt-north ZN NECB System 3 PSZ Occ Sch Saturday, !- Saturday Schedule:Day Name\n   *************   1459   Sp-Computer_Class_ZN_1_FLR_1 Sys-3 Flr-1 Sch-D HPlcmt-north ZN NECB System 3 PSZ Occ Sch Default, !- Holiday Schedule:Day Name\n   *************   1460   Sp-Computer_Class_ZN_1_FLR_1 Sys-3 Flr-1 Sch-D HPlcmt-north ZN NECB System 3 PSZ Occ Sch Summer Design Day, !- SummerDesignDay Schedule:Day Name\n   ** Warning ** IP: IDF line~1460 Alpha Argument length exceeds maximum, will be truncated=  Sp-Computer_Class_ZN_1_FLR_1 Sys-3 Flr-1 Sch-D HPlcmt-north ZN NECB System 3 PSZ Occ Sch Summer Design Da\n   **   ~~~   ** Will be processed as Alpha=SP-COMPUTER_CLASS_ZN_1_FLR_1 SYS-3 FLR-1 SCH-D HPLCMT-NORTH ZN NECB SYSTEM 3 PSZ OCC SCH SUMMER DESIGN DAY\n   ************* IDF Context for following error/warning message:\n   ************* Note -- lines truncated at 300 characters, if necessary...\n   *************   1450 Schedule:Week:Daily,\n   ************* indicated Name=Schedule:Week:Daily {55f7a6a0-389f-4865-b3e4-79d121ac0961}\n   ************* Only last 10 lines before error line shown.....\n   *************   1452   Sp-Computer_Class_ZN_1_FLR_1 Sys-3 Flr-1 Sch-D HPlcmt-north ZN NECB System 3 PSZ Occ Sch Sunday, !- Sunday Schedule:Day Name\n   *************   1453   Sp-Computer_Class_ZN_1_FLR_1 Sys-3 Flr-1 Sch-D HPlcmt-north ZN NECB System 3 PSZ Occ Sch Monday, !- Monday Schedule:Day Name\n   *************   1454   Sp-Computer_Class_ZN_1_FLR_1 Sys-3 Flr-1 Sch-D HPlcmt-north ZN NECB System 3 PSZ Occ Sch Tuesday, !- Tuesday Schedule:Day Name\n   *************   1455   Sp-Computer_Class_ZN_1_FLR_1 Sys-3 Flr-1 Sch-D HPlcmt-north ZN NECB System 3 PSZ Occ Sch Wednesday, !- Wednesday Schedule:Day Name\n   *************   1456   Sp-Computer_Class_ZN_1_FLR_1 Sys-3 Flr-1 Sch-D HPlcmt-north ZN NECB System 3 PSZ Occ Sch Thursday, !- Thursday Schedule:Day Name\n   *************   1457   Sp-Computer_Class_ZN_1_FLR_1 Sys-3 Flr-1 Sch-D HPlcmt-north ZN NECB System 3 PSZ Occ Sch Friday, !- Friday Schedule:Day Name\n   *************   1458   Sp-Computer_Class_ZN_1_FLR_1 Sys-3 Flr-1 Sch-D HPlcmt-north ZN NECB System 3 PSZ Occ Sch Saturday, !- Saturday Schedule:Day Name\n   *************   1459   Sp-Computer_Class_ZN_1_FLR_1 Sys-3 Flr-1 Sch-D HPlcmt-north ZN NECB System 3 PSZ Occ Sch Default, !- Holiday Schedule:Day Name\n   *************   1460   Sp-Computer_Class_ZN_1_FLR_1 Sys-3 Flr-1 Sch-D HPlcmt-north ZN NECB System 3 PSZ Occ Sch Summer Design Day, !- SummerDesignDay Schedule:Day Name\n   *************   1461   Sp-Computer_Class_ZN_1_FLR_1 Sys-3 Flr-1 Sch-D HPlcmt-north ZN NECB System 3 PSZ Occ Sch Winter Design Day, !- WinterDesignDay Schedule:Day Name\n   ** Warning ** IP: IDF line~1461 Alpha Argument length exceeds maximum, will be truncated=  Sp-Computer_Class_ZN_1_FLR_1 Sys-3 Flr-1 Sch-D HPlcmt-north ZN NECB System 3 PSZ Occ Sch Winter Design Da\n   **   ~~~   ** Will be processed as Alpha=SP-COMPUTER_CLASS_ZN_1_FLR_1 SYS-3 FLR-1 SCH-D HPLCMT-NORTH ZN NECB SYSTEM 3 PSZ OCC SCH WINTER DESIGN DAY\n   ************* IDF Context for following error/warning message:\n   ************* Note -- lines truncated at 300 characters, if necessary...\n   *************   1481 Schedule:Day:Interval,\n   ************* indicated Name=Sp-Computer_Class_ZN_1_FLR_1 Sys-3 Flr-1 Sch-D HPlcmt-north ZN NECB System 3 PSZ Occ Sch Summer Design Day\n   ************* Only last 1 lines before error line shown.....\n   *************   1482   Sp-Computer_Class_ZN_1_FLR_1 Sys-3 Flr-1 Sch-D HPlcmt-north ZN NECB System 3 PSZ Occ Sch Summer Design Day, !- Name\n   ** Warning ** IP: IDF line~1482 Alpha Argument length exceeds maximum, will be truncated=  Sp-Computer_Class_ZN_1_FLR_1 Sys-3 Flr-1 Sch-D HPlcmt-north ZN NECB System 3 PSZ Occ Sch Summer Design Da\n   **   ~~~   ** Will be processed as Alpha=SP-COMPUTER_CLASS_ZN_1_FLR_1 SYS-3 FLR-1 SCH-D HPLCMT-NORTH ZN NECB SYSTEM 3 PSZ OCC SCH SUMMER DESIGN DAY\n   ************* IDF Context for following error/warning message:\n   ************* Note -- lines truncated at 300 characters, if necessary...\n   *************   1488 Schedule:Day:Interval,\n   ************* indicated Name=Sp-Computer_Class_ZN_1_FLR_1 Sys-3 Flr-1 Sch-D HPlcmt-north ZN NECB System 3 PSZ Occ Sch Winter Design Day\n   ************* Only last 1 lines before error line shown.....\n   *************   1489   Sp-Computer_Class_ZN_1_FLR_1 Sys-3 Flr-1 Sch-D HPlcmt-north ZN NECB System 3 PSZ Occ Sch Winter Design Day, !- Name\n   ** Warning ** IP: IDF line~1489 Alpha Argument length exceeds maximum, will be truncated=  Sp-Computer_Class_ZN_1_FLR_1 Sys-3 Flr-1 Sch-D HPlcmt-north ZN NECB System 3 PSZ Occ Sch Winter Design Da\n   **   ~~~   ** Will be processed as Alpha=SP-COMPUTER_CLASS_ZN_1_FLR_1 SYS-3 FLR-1 SCH-D HPLCMT-NORTH ZN NECB SYSTEM 3 PSZ OCC SCH WINTER DESIGN DAY\n   ************* IDF Context for following error/warning message:\n   ************* Note -- lines truncated at 300 characters, if necessary...\n   *************   1769 Schedule:Day:Interval,\n   ************* indicated Name=Sp-Corner_Class_1_Pod_1_ZN_1_FLR_1 Sys-3 Flr-1 Sch-D HPlcmt-south ZN NECB System 3 PSZ Occ Sch Sunday\n   ************* Only last 1 lines before error line shown.....\n   *************   1770   Sp-Corner_Class_1_Pod_1_ZN_1_FLR_1 Sys-3 Flr-1 Sch-D HPlcmt-south ZN NECB System 3 PSZ Occ Sch Sunday, !- Name\n   ** Warning ** IP: IDF line~1770 Alpha Argument length exceeds maximum, will be truncated=  Sp-Corner_Class_1_Pod_1_ZN_1_FLR_1 Sys-3 Flr-1 Sch-D HPlcmt-south ZN NECB System 3 PSZ Occ Sch Sunda\n   **   ~~~   ** Will be processed as Alpha=SP-CORNER_CLASS_1_POD_1_ZN_1_FLR_1 SYS-3 FLR-1 SCH-D HPLCMT-SOUTH ZN NECB SYSTEM 3 PSZ OCC SCH SUNDAY\n   ************* IDF Context for following error/warning message:\n   ************* Note -- lines truncated at 300 characters, if necessary...\n   *************   1776 Schedule:Day:Interval,\n   ************* indicated Name=Sp-Corner_Class_1_Pod_1_ZN_1_FLR_1 Sys-3 Flr-1 Sch-D HPlcmt-south ZN NECB System 3 PSZ Occ Sch Monday\n   ************* Only last 1 lines before error line shown.....\n   *************   1777   Sp-Corner_Class_1_Pod_1_ZN_1_FLR_1 Sys-3 Flr-1 Sch-D HPlcmt-south ZN NECB System 3 PSZ Occ Sch Monday, !- Name\n   ** Warning ** IP: IDF line~1777 Alpha Argument length exceeds maximum, will be truncated=  Sp-Corner_Class_1_Pod_1_ZN_1_FLR_1 Sys-3 Flr-1 Sch-D HPlcmt-south ZN NECB System 3 PSZ Occ Sch Monda\n   **   ~~~   ** Will be processed as Alpha=SP-CORNER_CLASS_1_POD_1_ZN_1_FLR_1 SYS-3 FLR-1 SCH-D HPLCMT-SOUTH ZN NECB SYSTEM 3 PSZ OCC SCH MONDAY\n   ************* IDF Context for following error/warning message:\n   ************* Note -- lines truncated at 300 characters, if necessary...\n   *************   1791 Schedule:Day:Interval,\n   ************* indicated Name=Sp-Corner_Class_1_Pod_1_ZN_1_FLR_1 Sys-3 Flr-1 Sch-D HPlcmt-south ZN NECB System 3 PSZ Occ Sch Tuesday\n   ************* Only last 1 lines before error line shown.....\n   *************   1792   Sp-Corner_Class_1_Pod_1_ZN_1_FLR_1 Sys-3 Flr-1 Sch-D HPlcmt-south ZN NECB System 3 PSZ Occ Sch Tuesday, !- Name\n   ** Warning ** IP: IDF line~1792 Alpha Argument length exceeds maximum, will be truncated=  Sp-Corner_Class_1_Pod_1_ZN_1_FLR_1 Sys-3 Flr-1 Sch-D HPlcmt-south ZN NECB System 3 PSZ Occ Sch Tuesda\n   **   ~~~   ** Will be processed as Alpha=SP-CORNER_CLASS_1_POD_1_ZN_1_FLR_1 SYS-3 FLR-1 SCH-D HPLCMT-SOUTH ZN NECB SYSTEM 3 PSZ OCC SCH TUESDAY\n   ************* IDF Context for following error/warning message:\n   ************* Note -- lines truncated at 300 characters, if necessary...\n   *************   1806 Schedule:Day:Interval,\n   ************* indicated Name=Sp-Corner_Class_1_Pod_1_ZN_1_FLR_1 Sys-3 Flr-1 Sch-D HPlcmt-south ZN NECB System 3 PSZ Occ Sch Wednesday\n   ************* Only last 1 lines before error line shown.....\n   *************   1807   Sp-Corner_Class_1_Pod_1_ZN_1_FLR_1 Sys-3 Flr-1 Sch-D HPlcmt-south ZN NECB System 3 PSZ Occ Sch Wednesday, !- Name\n   ** Warning ** IP: IDF line~1807 Alpha Argument length exceeds maximum, will be truncated=  Sp-Corner_Class_1_Pod_1_ZN_1_FLR_1 Sys-3 Flr-1 Sch-D HPlcmt-south ZN NECB System 3 PSZ Occ Sch Wednesda\n   **   ~~~   ** Will be processed as Alpha=SP-CORNER_CLASS_1_POD_1_ZN_1_FLR_1 SYS-3 FLR-1 SCH-D HPLCMT-SOUTH ZN NECB SYSTEM 3 PSZ OCC SCH WEDNESDAY\n   ************* IDF Context for following error/warning message:\n   ************* Note -- lines truncated at 300 characters, if necessary...\n   *************   1821 Schedule:Day:Interval,\n   ************* indicated Name=Sp-Corner_Class_1_Pod_1_ZN_1_FLR_1 Sys-3 Flr-1 Sch-D HPlcmt-south ZN NECB System 3 PSZ Occ Sch Thursday\n   ************* Only last 1 lines before error line shown.....\n   *************   1822   Sp-Corner_Class_1_Pod_1_ZN_1_FLR_1 Sys-3 Flr-1 Sch-D HPlcmt-south ZN NECB System 3 PSZ Occ Sch Thursday, !- Name\n   ** Warning ** IP: IDF line~1822 Alpha Argument length exceeds maximum, will be truncated=  Sp-Corner_Class_1_Pod_1_ZN_1_FLR_1 Sys-3 Flr-1 Sch-D HPlcmt-south ZN NECB System 3 PSZ Occ Sch Thursda\n   **   ~~~   ** Will be processed as Alpha=SP-CORNER_CLASS_1_POD_1_ZN_1_FLR_1 SYS-3 FLR-1 SCH-D HPLCMT-SOUTH ZN NECB SYSTEM 3 PSZ OCC SCH THURSDAY\n   ************* IDF Context for following error/warning message:\n   ************* Note -- lines truncated at 300 characters, if necessary...\n   *************   1836 Schedule:Day:Interval,\n   ************* indicated Name=Sp-Corner_Class_1_Pod_1_ZN_1_FLR_1 Sys-3 Flr-1 Sch-D HPlcmt-south ZN NECB System 3 PSZ Occ Sch Friday\n   ************* Only last 1 lines before error line shown.....\n   *************   1837   Sp-Corner_Class_1_Pod_1_ZN_1_FLR_1 Sys-3 Flr-1 Sch-D HPlcmt-south ZN NECB System 3 PSZ Occ Sch Friday, !- Name\n   ** Warning ** IP: IDF line~1837 Alpha Argument length exceeds maximum, will be truncated=  Sp-Corner_Class_1_Pod_1_ZN_1_FLR_1 Sys-3 Flr-1 Sch-D HPlcmt-south ZN NECB System 3 PSZ Occ Sch Frida\n   **   ~~~   ** Will be processed as Alpha=SP-CORNER_CLASS_1_POD_1_ZN_1_FLR_1 SYS-3 FLR-1 SCH-D HPLCMT-SOUTH ZN NECB SYSTEM 3 PSZ OCC SCH FRIDAY\n   ************* IDF Context for following error/warning message:\n   ************* Note -- lines truncated at 300 characters, if necessary...\n   *************   1851 Schedule:Day:Interval,\n   ************* indicated Name=Sp-Corner_Class_1_Pod_1_ZN_1_FLR_1 Sys-3 Flr-1 Sch-D HPlcmt-south ZN NECB System 3 PSZ Occ Sch Saturday\n   ************* Only last 1 lines before error line shown.....\n   *************   1852   Sp-Corner_Class_1_Pod_1_ZN_1_FLR_1 Sys-3 Flr-1 Sch-D HPlcmt-south ZN NECB System 3 PSZ Occ Sch Saturday, !- Name\n   ** Warning ** IP: IDF line~1852 Alpha Argument length exceeds maximum, will be truncated=  Sp-Corner_Class_1_Pod_1_ZN_1_FLR_1 Sys-3 Flr-1 Sch-D HPlcmt-south ZN NECB System 3 PSZ Occ Sch Saturda\n   **   ~~~   ** Will be processed as Alpha=SP-CORNER_CLASS_1_POD_1_ZN_1_FLR_1 SYS-3 FLR-1 SCH-D HPLCMT-SOUTH ZN NECB SYSTEM 3 PSZ OCC SCH SATURDAY\n   ************* IDF Context for following error/warning message:\n   ************* Note -- lines truncated at 300 characters, if necessary...\n   *************   1858 Schedule:Week:Daily,\n   ************* indicated Name=Schedule:Week:Daily {fa46054b-1ad4-4e84-89ed-4a6df27af966}\n   ************* Only last 2 lines before error line shown.....\n   *************   1859   Schedule:Week:Daily {fa46054b-1ad4-4e84-89ed-4a6df27af966}, !- Name\n   *************   1860   Sp-Corner_Class_1_Pod_1_ZN_1_FLR_1 Sys-3 Flr-1 Sch-D HPlcmt-south ZN NECB System 3 PSZ Occ Sch Sunday, !- Sunday Schedule:Day Name\n   ** Warning ** IP: IDF line~1860 Alpha Argument length exceeds maximum, will be truncated=  Sp-Corner_Class_1_Pod_1_ZN_1_FLR_1 Sys-3 Flr-1 Sch-D HPlcmt-south ZN NECB System 3 PSZ Occ Sch Sunda\n   **   ~~~   ** Will be processed as Alpha=SP-CORNER_CLASS_1_POD_1_ZN_1_FLR_1 SYS-3 FLR-1 SCH-D HPLCMT-SOUTH ZN NECB SYSTEM 3 PSZ OCC SCH SUNDAY\n   ************* IDF Context for following error/warning message:\n   ************* Note -- lines truncated at 300 characters, if necessary...\n   *************   1858 Schedule:Week:Daily,\n   ************* indicated Name=Schedule:Week:Daily {fa46054b-1ad4-4e84-89ed-4a6df27af966}\n   ************* Only last 3 lines before error line shown.....\n   *************   1859   Schedule:Week:Daily {fa46054b-1ad4-4e84-89ed-4a6df27af966}, !- Name\n   *************   1860   Sp-Corner_Class_1_Pod_1_ZN_1_FLR_1 Sys-3 Flr-1 Sch-D HPlcmt-south ZN NECB System 3 PSZ Occ Sch Sunday, !- Sunday Schedule:Day Name\n   *************   1861   Sp-Corner_Class_1_Pod_1_ZN_1_FLR_1 Sys-3 Flr-1 Sch-D HPlcmt-south ZN NECB System 3 PSZ Occ Sch Monday, !- Monday Schedule:Day Name\n   ** Warning ** IP: IDF line~1861 Alpha Argument length exceeds maximum, will be truncated=  Sp-Corner_Class_1_Pod_1_ZN_1_FLR_1 Sys-3 Flr-1 Sch-D HPlcmt-south ZN NECB System 3 PSZ Occ Sch Monda\n   **   ~~~   ** Will be processed as Alpha=SP-CORNER_CLASS_1_POD_1_ZN_1_FLR_1 SYS-3 FLR-1 SCH-D HPLCMT-SOUTH ZN NECB SYSTEM 3 PSZ OCC SCH MONDAY\n   ************* IDF Context for following error/warning message:\n   ************* Note -- lines truncated at 300 characters, if necessary...\n   *************   1858 Schedule:Week:Daily,\n   ************* indicated Name=Schedule:Week:Daily {fa46054b-1ad4-4e84-89ed-4a6df27af966}\n   ************* Only last 4 lines before error line shown.....\n   *************   1859   Schedule:Week:Daily {fa46054b-1ad4-4e84-89ed-4a6df27af966}, !- Name\n   *************   1860   Sp-Corner_Class_1_Pod_1_ZN_1_FLR_1 Sys-3 Flr-1 Sch-D HPlcmt-south ZN NECB System 3 PSZ Occ Sch Sunday, !- Sunday Schedule:Day Name\n   *************   1861   Sp-Corner_Class_1_Pod_1_ZN_1_FLR_1 Sys-3 Flr-1 Sch-D HPlcmt-south ZN NECB System 3 PSZ Occ Sch Monday, !- Monday Schedule:Day Name\n   *************   1862   Sp-Corner_Class_1_Pod_1_ZN_1_FLR_1 Sys-3 Flr-1 Sch-D HPlcmt-south ZN NECB System 3 PSZ Occ Sch Tuesday, !- Tuesday Schedule:Day Name\n   ** Warning ** IP: IDF line~1862 Alpha Argument length exceeds maximum, will be truncated=  Sp-Corner_Class_1_Pod_1_ZN_1_FLR_1 Sys-3 Flr-1 Sch-D HPlcmt-south ZN NECB System 3 PSZ Occ Sch Tuesda\n   **   ~~~   ** Will be processed as Alpha=SP-CORNER_CLASS_1_POD_1_ZN_1_FLR_1 SYS-3 FLR-1 SCH-D HPLCMT-SOUTH ZN NECB SYSTEM 3 PSZ OCC SCH TUESDAY\n   ************* IDF Context for following error/warning message:\n   ************* Note -- lines truncated at 300 characters, if necessary...\n   *************   1858 Schedule:Week:Daily,\n   ************* indicated Name=Schedule:Week:Daily {fa46054b-1ad4-4e84-89ed-4a6df27af966}\n   ************* Only last 5 lines before error line shown.....\n   *************   1859   Schedule:Week:Daily {fa46054b-1ad4-4e84-89ed-4a6df27af966}, !- Name\n   *************   1860   Sp-Corner_Class_1_Pod_1_ZN_1_FLR_1 Sys-3 Flr-1 Sch-D HPlcmt-south ZN NECB System 3 PSZ Occ Sch Sunday, !- Sunday Schedule:Day Name\n   *************   1861   Sp-Corner_Class_1_Pod_1_ZN_1_FLR_1 Sys-3 Flr-1 Sch-D HPlcmt-south ZN NECB System 3 PSZ Occ Sch Monday, !- Monday Schedule:Day Name\n   *************   1862   Sp-Corner_Class_1_Pod_1_ZN_1_FLR_1 Sys-3 Flr-1 Sch-D HPlcmt-south ZN NECB System 3 PSZ Occ Sch Tuesday, !- Tuesday Schedule:Day Name\n   *************   1863   Sp-Corner_Class_1_Pod_1_ZN_1_FLR_1 Sys-3 Flr-1 Sch-D HPlcmt-south ZN NECB System 3 PSZ Occ Sch Wednesday, !- Wednesday Schedule:Day Name\n   ** Warning ** IP: IDF line~1863 Alpha Argument length exceeds maximum, will be truncated=  Sp-Corner_Class_1_Pod_1_ZN_1_FLR_1 Sys-3 Flr-1 Sch-D HPlcmt-south ZN NECB System 3 PSZ Occ Sch Wednesda\n   **   ~~~   ** Will be processed as Alpha=SP-CORNER_CLASS_1_POD_1_ZN_1_FLR_1 SYS-3 FLR-1 SCH-D HPLCMT-SOUTH ZN NECB SYSTEM 3 PSZ OCC SCH WEDNESDAY\n   ************* IDF Context for following error/warning message:\n   ************* Note -- lines truncated at 300 characters, if necessary...\n   *************   1858 Schedule:Week:Daily,\n   ************* indicated Name=Schedule:Week:Daily {fa46054b-1ad4-4e84-89ed-4a6df27af966}\n   ************* Only last 6 lines before error line shown.....\n   *************   1859   Schedule:Week:Daily {fa46054b-1ad4-4e84-89ed-4a6df27af966}, !- Name\n   *************   1860   Sp-Corner_Class_1_Pod_1_ZN_1_FLR_1 Sys-3 Flr-1 Sch-D HPlcmt-south ZN NECB System 3 PSZ Occ Sch Sunday, !- Sunday Schedule:Day Name\n   *************   1861   Sp-Corner_Class_1_Pod_1_ZN_1_FLR_1 Sys-3 Flr-1 Sch-D HPlcmt-south ZN NECB System 3 PSZ Occ Sch Monday, !- Monday Schedule:Day Name\n   *************   1862   Sp-Corner_Class_1_Pod_1_ZN_1_FLR_1 Sys-3 Flr-1 Sch-D HPlcmt-south ZN NECB System 3 PSZ Occ Sch Tuesday, !- Tuesday Schedule:Day Name\n   *************   1863   Sp-Corner_Class_1_Pod_1_ZN_1_FLR_1 Sys-3 Flr-1 Sch-D HPlcmt-south ZN NECB System 3 PSZ Occ Sch Wednesday, !- Wednesday Schedule:Day Name\n   *************   1864   Sp-Corner_Class_1_Pod_1_ZN_1_FLR_1 Sys-3 Flr-1 Sch-D HPlcmt-south ZN NECB System 3 PSZ Occ Sch Thursday, !- Thursday Schedule:Day Name\n   ** Warning ** IP: IDF line~1864 Alpha Argument length exceeds maximum, will be truncated=  Sp-Corner_Class_1_Pod_1_ZN_1_FLR_1 Sys-3 Flr-1 Sch-D HPlcmt-south ZN NECB System 3 PSZ Occ Sch Thursda\n   **   ~~~   ** Will be processed as Alpha=SP-CORNER_CLASS_1_POD_1_ZN_1_FLR_1 SYS-3 FLR-1 SCH-D HPLCMT-SOUTH ZN NECB SYSTEM 3 PSZ OCC SCH THURSDAY\n   ************* IDF Context for following error/warning message:\n   ************* Note -- lines truncated at 300 characters, if necessary...\n   *************   1858 Schedule:Week:Daily,\n   ************* indicated Name=Schedule:Week:Daily {fa46054b-1ad4-4e84-89ed-4a6df27af966}\n   ************* Only last 7 lines before error line shown.....\n   *************   1859   Schedule:Week:Daily {fa46054b-1ad4-4e84-89ed-4a6df27af966}, !- Name\n   *************   1860   Sp-Corner_Class_1_Pod_1_ZN_1_FLR_1 Sys-3 Flr-1 Sch-D HPlcmt-south ZN NECB System 3 PSZ Occ Sch Sunday, !- Sunday Schedule:Day Name\n   *************   1861   Sp-Corner_Class_1_Pod_1_ZN_1_FLR_1 Sys-3 Flr-1 Sch-D HPlcmt-south ZN NECB System 3 PSZ Occ Sch Monday, !- Monday Schedule:Day Name\n   *************   1862   Sp-Corner_Class_1_Pod_1_ZN_1_FLR_1 Sys-3 Flr-1 Sch-D HPlcmt-south ZN NECB System 3 PSZ Occ Sch Tuesday, !- Tuesday Schedule:Day Name\n   *************   1863   Sp-Corner_Class_1_Pod_1_ZN_1_FLR_1 Sys-3 Flr-1 Sch-D HPlcmt-south ZN NECB System 3 PSZ Occ Sch Wednesday, !- Wednesday Schedule:Day Name\n   *************   1864   Sp-Corner_Class_1_Pod_1_ZN_1_FLR_1 Sys-3 Flr-1 Sch-D HPlcmt-south ZN NECB System 3 PSZ Occ Sch Thursday, !- Thursday Schedule:Day Name\n   *************   1865   Sp-Corner_Class_1_Pod_1_ZN_1_FLR_1 Sys-3 Flr-1 Sch-D HPlcmt-south ZN NECB System 3 PSZ Occ Sch Friday, !- Friday Schedule:Day Name\n   ** Warning ** IP: IDF line~1865 Alpha Argument length exceeds maximum, will be truncated=  Sp-Corner_Class_1_Pod_1_ZN_1_FLR_1 Sys-3 Flr-1 Sch-D HPlcmt-south ZN NECB System 3 PSZ Occ Sch Frida\n   **   ~~~   ** Will be processed as Alpha=SP-CORNER_CLASS_1_POD_1_ZN_1_FLR_1 SYS-3 FLR-1 SCH-D HPLCMT-SOUTH ZN NECB SYSTEM 3 PSZ OCC SCH FRIDAY\n   ************* IDF Context for following error/warning message:\n   ************* Note -- lines truncated at 300 characters, if necessary...\n   *************   1858 Schedule:Week:Daily,\n   ************* indicated Name=Schedule:Week:Daily {fa46054b-1ad4-4e84-89ed-4a6df27af966}\n   ************* Only last 8 lines before error line shown.....\n   *************   1859   Schedule:Week:Daily {fa46054b-1ad4-4e84-89ed-4a6df27af966}, !- Name\n   *************   1860   Sp-Corner_Class_1_Pod_1_ZN_1_FLR_1 Sys-3 Flr-1 Sch-D HPlcmt-south ZN NECB System 3 PSZ Occ Sch Sunday, !- Sunday Schedule:Day Name\n   *************   1861   Sp-Corner_Class_1_Pod_1_ZN_1_FLR_1 Sys-3 Flr-1 Sch-D HPlcmt-south ZN NECB System 3 PSZ Occ Sch Monday, !- Monday Schedule:Day Name\n   *************   1862   Sp-Corner_Class_1_Pod_1_ZN_1_FLR_1 Sys-3 Flr-1 Sch-D HPlcmt-south ZN NECB System 3 PSZ Occ Sch Tuesday, !- Tuesday Schedule:Day Name\n   *************   1863   Sp-Corner_Class_1_Pod_1_ZN_1_FLR_1 Sys-3 Flr-1 Sch-D HPlcmt-south ZN NECB System 3 PSZ Occ Sch Wednesday, !- Wednesday Schedule:Day Name\n   *************   1864   Sp-Corner_Class_1_Pod_1_ZN_1_FLR_1 Sys-3 Flr-1 Sch-D HPlcmt-south ZN NECB System 3 PSZ Occ Sch Thursday, !- Thursday Schedule:Day Name\n   *************   1865   Sp-Corner_Class_1_Pod_1_ZN_1_FLR_1 Sys-3 Flr-1 Sch-D HPlcmt-south ZN NECB System 3 PSZ Occ Sch Friday, !- Friday Schedule:Day Name\n   *************   1866   Sp-Corner_Class_1_Pod_1_ZN_1_FLR_1 Sys-3 Flr-1 Sch-D HPlcmt-south ZN NECB System 3 PSZ Occ Sch Saturday, !- Saturday Schedule:Day Name\n   ** Warning ** IP: IDF line~1866 Alpha Argument length exceeds maximum, will be truncated=  Sp-Corner_Class_1_Pod_1_ZN_1_FLR_1 Sys-3 Flr-1 Sch-D HPlcmt-south ZN NECB System 3 PSZ Occ Sch Saturda\n   **   ~~~   ** Will be processed as Alpha=SP-CORNER_CLASS_1_POD_1_ZN_1_FLR_1 SYS-3 FLR-1 SCH-D HPLCMT-SOUTH ZN NECB SYSTEM 3 PSZ OCC SCH SATURDAY\n   ************* IDF Context for following error/warning message:\n   ************* Note -- lines truncated at 300 characters, if necessary...\n   *************   1858 Schedule:Week:Daily,\n   ************* indicated Name=Schedule:Week:Daily {fa46054b-1ad4-4e84-89ed-4a6df27af966}\n   ************* Only last 9 lines before error line shown.....\n   *************   1859   Schedule:Week:Daily {fa46054b-1ad4-4e84-89ed-4a6df27af966}, !- Name\n   *************   1860   Sp-Corner_Class_1_Pod_1_ZN_1_FLR_1 Sys-3 Flr-1 Sch-D HPlcmt-south ZN NECB System 3 PSZ Occ Sch Sunday, !- Sunday Schedule:Day Name\n   *************   1861   Sp-Corner_Class_1_Pod_1_ZN_1_FLR_1 Sys-3 Flr-1 Sch-D HPlcmt-south ZN NECB System 3 PSZ Occ Sch Monday, !- Monday Schedule:Day Name\n   *************   1862   Sp-Corner_Class_1_Pod_1_ZN_1_FLR_1 Sys-3 Flr-1 Sch-D HPlcmt-south ZN NECB System 3 PSZ Occ Sch Tuesday, !- Tuesday Schedule:Day Name\n   *************   1863   Sp-Corner_Class_1_Pod_1_ZN_1_FLR_1 Sys-3 Flr-1 Sch-D HPlcmt-south ZN NECB System 3 PSZ Occ Sch Wednesday, !- Wednesday Schedule:Day Name\n   *************   1864   Sp-Corner_Class_1_Pod_1_ZN_1_FLR_1 Sys-3 Flr-1 Sch-D HPlcmt-south ZN NECB System 3 PSZ Occ Sch Thursday, !- Thursday Schedule:Day Name\n   *************   1865   Sp-Corner_Class_1_Pod_1_ZN_1_FLR_1 Sys-3 Flr-1 Sch-D HPlcmt-south ZN NECB System 3 PSZ Occ Sch Friday, !- Friday Schedule:Day Name\n   *************   1866   Sp-Corner_Class_1_Pod_1_ZN_1_FLR_1 Sys-3 Flr-1 Sch-D HPlcmt-south ZN NECB System 3 PSZ Occ Sch Saturday, !- Saturday Schedule:Day Name\n   *************   1867   Sp-Corner_Class_1_Pod_1_ZN_1_FLR_1 Sys-3 Flr-1 Sch-D HPlcmt-south ZN NECB System 3 PSZ Occ Sch Default, !- Holiday Schedule:Day Name\n   ** Warning ** IP: IDF line~1867 Alpha Argument length exceeds maximum, will be truncated=  Sp-Corner_Class_1_Pod_1_ZN_1_FLR_1 Sys-3 Flr-1 Sch-D HPlcmt-south ZN NECB System 3 PSZ Occ Sch Defaul\n   **   ~~~   ** Will be processed as Alpha=SP-CORNER_CLASS_1_POD_1_ZN_1_FLR_1 SYS-3 FLR-1 SCH-D HPLCMT-SOUTH ZN NECB SYSTEM 3 PSZ OCC SCH DEFAULT\n   ************* IDF Context for following error/warning message:\n   ************* Note -- lines truncated at 300 characters, if necessary...\n   *************   1858 Schedule:Week:Daily,\n   ************* indicated Name=Schedule:Week:Daily {fa46054b-1ad4-4e84-89ed-4a6df27af966}\n   ************* Only last 10 lines before error line shown.....\n   *************   1859   Schedule:Week:Daily {fa46054b-1ad4-4e84-89ed-4a6df27af966}, !- Name\n   *************   1860   Sp-Corner_Class_1_Pod_1_ZN_1_FLR_1 Sys-3 Flr-1 Sch-D HPlcmt-south ZN NECB System 3 PSZ Occ Sch Sunday, !- Sunday Schedule:Day Name\n   *************   1861   Sp-Corner_Class_1_Pod_1_ZN_1_FLR_1 Sys-3 Flr-1 Sch-D HPlcmt-south ZN NECB System 3 PSZ Occ Sch Monday, !- Monday Schedule:Day Name\n   *************   1862   Sp-Corner_Class_1_Pod_1_ZN_1_FLR_1 Sys-3 Flr-1 Sch-D HPlcmt-south ZN NECB System 3 PSZ Occ Sch Tuesday, !- Tuesday Schedule:Day Name\n   *************   1863   Sp-Corner_Class_1_Pod_1_ZN_1_FLR_1 Sys-3 Flr-1 Sch-D HPlcmt-south ZN NECB System 3 PSZ Occ Sch Wednesday, !- Wednesday Schedule:Day Name\n   *************   1864   Sp-Corner_Class_1_Pod_1_ZN_1_FLR_1 Sys-3 Flr-1 Sch-D HPlcmt-south ZN NECB System 3 PSZ Occ Sch Thursday, !- Thursday Schedule:Day Name\n   *************   1865   Sp-Corner_Class_1_Pod_1_ZN_1_FLR_1 Sys-3 Flr-1 Sch-D HPlcmt-south ZN NECB System 3 PSZ Occ Sch Friday, !- Friday Schedule:Day Name\n   *************   1866   Sp-Corner_Class_1_Pod_1_ZN_1_FLR_1 Sys-3 Flr-1 Sch-D HPlcmt-south ZN NECB System 3 PSZ Occ Sch Saturday, !- Saturday Schedule:Day Name\n   *************   1867   Sp-Corner_Class_1_Pod_1_ZN_1_FLR_1 Sys-3 Flr-1 Sch-D HPlcmt-south ZN NECB System 3 PSZ Occ Sch Default, !- Holiday Schedule:Day Name\n   *************   1868   Sp-Corner_Class_1_Pod_1_ZN_1_FLR_1 Sys-3 Flr-1 Sch-D HPlcmt-south ZN NECB System 3 PSZ Occ Sch Summer Design Day, !- SummerDesignDay Schedule:Day Name\n   ** Warning ** IP: IDF line~1868 Alpha Argument length exceeds maximum, will be truncated=  Sp-Corner_Class_1_Pod_1_ZN_1_FLR_1 Sys-3 Flr-1 Sch-D HPlcmt-south ZN NECB System 3 PSZ Occ Sch Summer Design Da\n   **   ~~~   ** Will be processed as Alpha=SP-CORNER_CLASS_1_POD_1_ZN_1_FLR_1 SYS-3 FLR-1 SCH-D HPLCMT-SOUTH ZN NECB SYSTEM 3 PSZ OCC SCH SUMMER DESIGN DAY\n   ************* IDF Context for following error/warning message:\n   ************* Note -- lines truncated at 300 characters, if necessary...\n   *************   1858 Schedule:Week:Daily,\n   ************* indicated Name=Schedule:Week:Daily {fa46054b-1ad4-4e84-89ed-4a6df27af966}\n   ************* Only last 10 lines before error line shown.....\n   *************   1860   Sp-Corner_Class_1_Pod_1_ZN_1_FLR_1 Sys-3 Flr-1 Sch-D HPlcmt-south ZN NECB System 3 PSZ Occ Sch Sunday, !- Sunday Schedule:Day Name\n   *************   1861   Sp-Corner_Class_1_Pod_1_ZN_1_FLR_1 Sys-3 Flr-1 Sch-D HPlcmt-south ZN NECB System 3 PSZ Occ Sch Monday, !- Monday Schedule:Day Name\n   *************   1862   Sp-Corner_Class_1_Pod_1_ZN_1_FLR_1 Sys-3 Flr-1 Sch-D HPlcmt-south ZN NECB System 3 PSZ Occ Sch Tuesday, !- Tuesday Schedule:Day Name\n   *************   1863   Sp-Corner_Class_1_Pod_1_ZN_1_FLR_1 Sys-3 Flr-1 Sch-D HPlcmt-south ZN NECB System 3 PSZ Occ Sch Wednesday, !- Wednesday Schedule:Day Name\n   *************   1864   Sp-Corner_Class_1_Pod_1_ZN_1_FLR_1 Sys-3 Flr-1 Sch-D HPlcmt-south ZN NECB System 3 PSZ Occ Sch Thursday, !- Thursday Schedule:Day Name\n   *************   1865   Sp-Corner_Class_1_Pod_1_ZN_1_FLR_1 Sys-3 Flr-1 Sch-D HPlcmt-south ZN NECB System 3 PSZ Occ Sch Friday, !- Friday Schedule:Day Name\n   *************   1866   Sp-Corner_Class_1_Pod_1_ZN_1_FLR_1 Sys-3 Flr-1 Sch-D HPlcmt-south ZN NECB System 3 PSZ Occ Sch Saturday, !- Saturday Schedule:Day Name\n   *************   1867   Sp-Corner_Class_1_Pod_1_ZN_1_FLR_1 Sys-3 Flr-1 Sch-D HPlcmt-south ZN NECB System 3 PSZ Occ Sch Default, !- Holiday Schedule:Day Name\n   *************   1868   Sp-Corner_Class_1_Pod_1_ZN_1_FLR_1 Sys-3 Flr-1 Sch-D HPlcmt-south ZN NECB System 3 PSZ Occ Sch Summer Design Day, !- SummerDesignDay Schedule:Day Name\n   *************   1869   Sp-Corner_Class_1_Pod_1_ZN_1_FLR_1 Sys-3 Flr-1 Sch-D HPlcmt-south ZN NECB System 3 PSZ Occ Sch Winter Design Day, !- WinterDesignDay Schedule:Day Name\n   ** Warning ** IP: IDF line~1869 Alpha Argument length exceeds maximum, will be truncated=  Sp-Corner_Class_1_Pod_1_ZN_1_FLR_1 Sys-3 Flr-1 Sch-D HPlcmt-south ZN NECB System 3 PSZ Occ Sch Winter Design Da\n   **   ~~~   ** Will be processed as Alpha=SP-CORNER_CLASS_1_POD_1_ZN_1_FLR_1 SYS-3 FLR-1 SCH-D HPLCMT-SOUTH ZN NECB SYSTEM 3 PSZ OCC SCH WINTER DESIGN DAY\n   ************* IDF Context for following error/warning message:\n   ************* Note -- lines truncated at 300 characters, if necessary...\n   *************   1858 Schedule:Week:Daily,\n   ************* indicated Name=Schedule:Week:Daily {fa46054b-1ad4-4e84-89ed-4a6df27af966}\n   ************* Only last 10 lines before error line shown.....\n   *************   1861   Sp-Corner_Class_1_Pod_1_ZN_1_FLR_1 Sys-3 Flr-1 Sch-D HPlcmt-south ZN NECB System 3 PSZ Occ Sch Monday, !- Monday Schedule:Day Name\n   *************   1862   Sp-Corner_Class_1_Pod_1_ZN_1_FLR_1 Sys-3 Flr-1 Sch-D HPlcmt-south ZN NECB System 3 PSZ Occ Sch Tuesday, !- Tuesday Schedule:Day Name\n   *************   1863   Sp-Corner_Class_1_Pod_1_ZN_1_FLR_1 Sys-3 Flr-1 Sch-D HPlcmt-south ZN NECB System 3 PSZ Occ Sch Wednesday, !- Wednesday Schedule:Day Name\n   *************   1864   Sp-Corner_Class_1_Pod_1_ZN_1_FLR_1 Sys-3 Flr-1 Sch-D HPlcmt-south ZN NECB System 3 PSZ Occ Sch Thursday, !- Thursday Schedule:Day Name\n   *************   1865   Sp-Corner_Class_1_Pod_1_ZN_1_FLR_1 Sys-3 Flr-1 Sch-D HPlcmt-south ZN NECB System 3 PSZ Occ Sch Friday, !- Friday Schedule:Day Name\n   *************   1866   Sp-Corner_Class_1_Pod_1_ZN_1_FLR_1 Sys-3 Flr-1 Sch-D HPlcmt-south ZN NECB System 3 PSZ Occ Sch Saturday, !- Saturday Schedule:Day Name\n   *************   1867   Sp-Corner_Class_1_Pod_1_ZN_1_FLR_1 Sys-3 Flr-1 Sch-D HPlcmt-south ZN NECB System 3 PSZ Occ Sch Default, !- Holiday Schedule:Day Name\n   *************   1868   Sp-Corner_Class_1_Pod_1_ZN_1_FLR_1 Sys-3 Flr-1 Sch-D HPlcmt-south ZN NECB System 3 PSZ Occ Sch Summer Design Day, !- SummerDesignDay Schedule:Day Name\n   *************   1869   Sp-Corner_Class_1_Pod_1_ZN_1_FLR_1 Sys-3 Flr-1 Sch-D HPlcmt-south ZN NECB System 3 PSZ Occ Sch Winter Design Day, !- WinterDesignDay Schedule:Day Name\n   *************   1870   Sp-Corner_Class_1_Pod_1_ZN_1_FLR_1 Sys-3 Flr-1 Sch-D HPlcmt-south ZN NECB System 3 PSZ Occ Sch Default, !- CustomDay1 Schedule:Day Name\n   ** Warning ** IP: IDF line~1870 Alpha Argument length exceeds maximum, will be truncated=  Sp-Corner_Class_1_Pod_1_ZN_1_FLR_1 Sys-3 Flr-1 Sch-D HPlcmt-south ZN NECB System 3 PSZ Occ Sch Defaul\n   **   ~~~   ** Will be processed as Alpha=SP-CORNER_CLASS_1_POD_1_ZN_1_FLR_1 SYS-3 FLR-1 SCH-D HPLCMT-SOUTH ZN NECB SYSTEM 3 PSZ OCC SCH DEFAULT\n   ************* IDF Context for following error/warning message:\n   ************* Note -- lines truncated at 300 characters, if necessary...\n   *************   1858 Schedule:Week:Daily,\n   ************* indicated Name=Schedule:Week:Daily {fa46054b-1ad4-4e84-89ed-4a6df27af966}\n   ************* Only last 10 lines before error line shown.....\n   *************   1862   Sp-Corner_Class_1_Pod_1_ZN_1_FLR_1 Sys-3 Flr-1 Sch-D HPlcmt-south ZN NECB System 3 PSZ Occ Sch Tuesday, !- Tuesday Schedule:Day Name\n   *************   1863   Sp-Corner_Class_1_Pod_1_ZN_1_FLR_1 Sys-3 Flr-1 Sch-D HPlcmt-south ZN NECB System 3 PSZ Occ Sch Wednesday, !- Wednesday Schedule:Day Name\n   *************   1864   Sp-Corner_Class_1_Pod_1_ZN_1_FLR_1 Sys-3 Flr-1 Sch-D HPlcmt-south ZN NECB System 3 PSZ Occ Sch Thursday, !- Thursday Schedule:Day Name\n   *************   1865   Sp-Corner_Class_1_Pod_1_ZN_1_FLR_1 Sys-3 Flr-1 Sch-D HPlcmt-south ZN NECB System 3 PSZ Occ Sch Friday, !- Friday Schedule:Day Name\n   *************   1866   Sp-Corner_Class_1_Pod_1_ZN_1_FLR_1 Sys-3 Flr-1 Sch-D HPlcmt-south ZN NECB System 3 PSZ Occ Sch Saturday, !- Saturday Schedule:Day Name\n   *************   1867   Sp-Corner_Class_1_Pod_1_ZN_1_FLR_1 Sys-3 Flr-1 Sch-D HPlcmt-south ZN NECB System 3 PSZ Occ Sch Default, !- Holiday Schedule:Day Name\n   *************   1868   Sp-Corner_Class_1_Pod_1_ZN_1_FLR_1 Sys-3 Flr-1 Sch-D HPlcmt-south ZN NECB System 3 PSZ Occ Sch Summer Design Day, !- SummerDesignDay Schedule:Day Name\n   *************   1869   Sp-Corner_Class_1_Pod_1_ZN_1_FLR_1 Sys-3 Flr-1 Sch-D HPlcmt-south ZN NECB System 3 PSZ Occ Sch Winter Design Day, !- WinterDesignDay Schedule:Day Name\n   *************   1870   Sp-Corner_Class_1_Pod_1_ZN_1_FLR_1 Sys-3 Flr-1 Sch-D HPlcmt-south ZN NECB System 3 PSZ Occ Sch Default, !- CustomDay1 Schedule:Day Name\n   *************   1871   Sp-Corner_Class_1_Pod_1_ZN_1_FLR_1 Sys-3 Flr-1 Sch-D HPlcmt-south ZN NECB System 3 PSZ Occ Sch Default; !- CustomDay2 Schedule:Day Name\n   ** Warning ** IP: IDF line~1871 Alpha Argument length exceeds maximum, will be truncated=  Sp-Corner_Class_1_Pod_1_ZN_1_FLR_1 Sys-3 Flr-1 Sch-D HPlcmt-south ZN NECB System 3 PSZ Occ Sch Defaul\n   **   ~~~   ** Will be processed as Alpha=SP-CORNER_CLASS_1_POD_1_ZN_1_FLR_1 SYS-3 FLR-1 SCH-D HPLCMT-SOUTH ZN NECB SYSTEM 3 PSZ OCC SCH DEFAULT\n   ************* IDF Context for following error/warning message:\n   ************* Note -- lines truncated at 300 characters, if necessary...\n   *************   1882 Schedule:Day:Interval,\n   ************* indicated Name=Sp-Corner_Class_1_Pod_1_ZN_1_FLR_1 Sys-3 Flr-1 Sch-D HPlcmt-south ZN NECB System 3 PSZ Occ Sch Default\n   ************* Only last 1 lines before error line shown.....\n   *************   1883   Sp-Corner_Class_1_Pod_1_ZN_1_FLR_1 Sys-3 Flr-1 Sch-D HPlcmt-south ZN NECB System 3 PSZ Occ Sch Default, !- Name\n   ** Warning ** IP: IDF line~1883 Alpha Argument length exceeds maximum, will be truncated=  Sp-Corner_Class_1_Pod_1_ZN_1_FLR_1 Sys-3 Flr-1 Sch-D HPlcmt-south ZN NECB System 3 PSZ Occ Sch Defaul\n   **   ~~~   ** Will be processed as Alpha=SP-CORNER_CLASS_1_POD_1_ZN_1_FLR_1 SYS-3 FLR-1 SCH-D HPLCMT-SOUTH ZN NECB SYSTEM 3 PSZ OCC SCH DEFAULT\n   ************* IDF Context for following error/warning message:\n   ************* Note -- lines truncated at 300 characters, if necessary...\n   *************   1889 Schedule:Day:Interval,\n   ************* indicated Name=Sp-Corner_Class_1_Pod_1_ZN_1_FLR_1 Sys-3 Flr-1 Sch-D HPlcmt-south ZN NECB System 3 PSZ Occ Sch Summer Design Day\n   ************* Only last 1 lines before error line shown.....\n   *************   1890   Sp-Corner_Class_1_Pod_1_ZN_1_FLR_1 Sys-3 Flr-1 Sch-D HPlcmt-south ZN NECB System 3 PSZ Occ Sch Summer Design Day, !- Name\n   ** Warning ** IP: IDF line~1890 Alpha Argument length exceeds maximum, will be truncated=  Sp-Corner_Class_1_Pod_1_ZN_1_FLR_1 Sys-3 Flr-1 Sch-D HPlcmt-south ZN NECB System 3 PSZ Occ Sch Summer Design Da\n   **   ~~~   ** Will be processed as Alpha=SP-CORNER_CLASS_1_POD_1_ZN_1_FLR_1 SYS-3 FLR-1 SCH-D HPLCMT-SOUTH ZN NECB SYSTEM 3 PSZ OCC SCH SUMMER DESIGN DAY\n   ************* IDF Context for following error/warning message:\n   ************* Note -- lines truncated at 300 characters, if necessary...\n   *************   1896 Schedule:Day:Interval,\n   ************* indicated Name=Sp-Corner_Class_1_Pod_1_ZN_1_FLR_1 Sys-3 Flr-1 Sch-D HPlcmt-south ZN NECB System 3 PSZ Occ Sch Winter Design Day\n   ************* Only last 1 lines before error line shown.....\n   *************   1897   Sp-Corner_Class_1_Pod_1_ZN_1_FLR_1 Sys-3 Flr-1 Sch-D HPlcmt-south ZN NECB System 3 PSZ Occ Sch Winter Design Day, !- Name\n   ** Warning ** IP: IDF line~1897 Alpha Argument length exceeds maximum, will be truncated=  Sp-Corner_Class_1_Pod_1_ZN_1_FLR_1 Sys-3 Flr-1 Sch-D HPlcmt-south ZN NECB System 3 PSZ Occ Sch Winter Design Da\n   **   ~~~   ** Will be processed as Alpha=SP-CORNER_CLASS_1_POD_1_ZN_1_FLR_1 SYS-3 FLR-1 SCH-D HPLCMT-SOUTH ZN NECB SYSTEM 3 PSZ OCC SCH WINTER DESIGN DAY\n   ************* IDF Context for following error/warning message:\n   ************* Note -- lines truncated at 300 characters, if necessary...\n   *************   2169 Schedule:Day:Interval,\n   ************* indicated Name=Sp-Corner_Class_1_Pod_2_ZN_1_FLR_1 Sys-3 Flr-1 Sch-D HPlcmt-south ZN NECB System 3 PSZ Occ Sch Sunday\n   ************* Only last 1 lines before error line shown.....\n   *************   2170   Sp-Corner_Class_1_Pod_2_ZN_1_FLR_1 Sys-3 Flr-1 Sch-D HPlcmt-south ZN NECB System 3 PSZ Occ Sch Sunday, !- Name\n   ** Warning ** IP: IDF line~2170 Alpha Argument length exceeds maximum, will be truncated=  Sp-Corner_Class_1_Pod_2_ZN_1_FLR_1 Sys-3 Flr-1 Sch-D HPlcmt-south ZN NECB System 3 PSZ Occ Sch Sunda\n   **   ~~~   ** Will be processed as Alpha=SP-CORNER_CLASS_1_POD_2_ZN_1_FLR_1 SYS-3 FLR-1 SCH-D HPLCMT-SOUTH ZN NECB SYSTEM 3 PSZ OCC SCH SUNDAY\n   ************* IDF Context for following error/warning message:\n   ************* Note -- lines truncated at 300 characters, if necessary...\n   *************   2176 Schedule:Day:Interval,\n   ************* indicated Name=Sp-Corner_Class_1_Pod_2_ZN_1_FLR_1 Sys-3 Flr-1 Sch-D HPlcmt-south ZN NECB System 3 PSZ Occ Sch Monday\n   ************* Only last 1 lines before error line shown.....\n   *************   2177   Sp-Corner_Class_1_Pod_2_ZN_1_FLR_1 Sys-3 Flr-1 Sch-D HPlcmt-south ZN NECB System 3 PSZ Occ Sch Monday, !- Name\n   ** Warning ** IP: IDF line~2177 Alpha Argument length exceeds maximum, will be truncated=  Sp-Corner_Class_1_Pod_2_ZN_1_FLR_1 Sys-3 Flr-1 Sch-D HPlcmt-south ZN NECB System 3 PSZ Occ Sch Monda\n   **   ~~~   ** Will be processed as Alpha=SP-CORNER_CLASS_1_POD_2_ZN_1_FLR_1 SYS-3 FLR-1 SCH-D HPLCMT-SOUTH ZN NECB SYSTEM 3 PSZ OCC SCH MONDAY\n   ************* IDF Context for following error/warning message:\n   ************* Note -- lines truncated at 300 characters, if necessary...\n   *************   2191 Schedule:Day:Interval,\n   ************* indicated Name=Sp-Corner_Class_1_Pod_2_ZN_1_FLR_1 Sys-3 Flr-1 Sch-D HPlcmt-south ZN NECB System 3 PSZ Occ Sch Tuesday\n   ************* Only last 1 lines before error line shown.....\n   *************   2192   Sp-Corner_Class_1_Pod_2_ZN_1_FLR_1 Sys-3 Flr-1 Sch-D HPlcmt-south ZN NECB System 3 PSZ Occ Sch Tuesday, !- Name\n   ** Warning ** IP: IDF line~2192 Alpha Argument length exceeds maximum, will be truncated=  Sp-Corner_Class_1_Pod_2_ZN_1_FLR_1 Sys-3 Flr-1 Sch-D HPlcmt-south ZN NECB System 3 PSZ Occ Sch Tuesda\n   **   ~~~   ** Will be processed as Alpha=SP-CORNER_CLASS_1_POD_2_ZN_1_FLR_1 SYS-3 FLR-1 SCH-D HPLCMT-SOUTH ZN NECB SYSTEM 3 PSZ OCC SCH TUESDAY\n   ************* IDF Context for following error/warning message:\n   ************* Note -- lines truncated at 300 characters, if necessary...\n   *************   2206 Schedule:Day:Interval,\n   ************* indicated Name=Sp-Corner_Class_1_Pod_2_ZN_1_FLR_1 Sys-3 Flr-1 Sch-D HPlcmt-south ZN NECB System 3 PSZ Occ Sch Wednesday\n   ************* Only last 1 lines before error line shown.....\n   *************   2207   Sp-Corner_Class_1_Pod_2_ZN_1_FLR_1 Sys-3 Flr-1 Sch-D HPlcmt-south ZN NECB System 3 PSZ Occ Sch Wednesday, !- Name\n   ** Warning ** IP: IDF line~2207 Alpha Argument length exceeds maximum, will be truncated=  Sp-Corner_Class_1_Pod_2_ZN_1_FLR_1 Sys-3 Flr-1 Sch-D HPlcmt-south ZN NECB System 3 PSZ Occ Sch Wednesda\n   **   ~~~   ** Will be processed as Alpha=SP-CORNER_CLASS_1_POD_2_ZN_1_FLR_1 SYS-3 FLR-1 SCH-D HPLCMT-SOUTH ZN NECB SYSTEM 3 PSZ OCC SCH WEDNESDAY\n   ************* IDF Context for following error/warning message:\n   ************* Note -- lines truncated at 300 characters, if necessary...\n   *************   2221 Schedule:Day:Interval,\n   ************* indicated Name=Sp-Corner_Class_1_Pod_2_ZN_1_FLR_1 Sys-3 Flr-1 Sch-D HPlcmt-south ZN NECB System 3 PSZ Occ Sch Thursday\n   ************* Only last 1 lines before error line shown.....\n   *************   2222   Sp-Corner_Class_1_Pod_2_ZN_1_FLR_1 Sys-3 Flr-1 Sch-D HPlcmt-south ZN NECB System 3 PSZ Occ Sch Thursday, !- Name\n   ** Warning ** IP: IDF line~2222 Alpha Argument length exceeds maximum, will be truncated=  Sp-Corner_Class_1_Pod_2_ZN_1_FLR_1 Sys-3 Flr-1 Sch-D HPlcmt-south ZN NECB System 3 PSZ Occ Sch Thursda\n   **   ~~~   ** Will be processed as Alpha=SP-CORNER_CLASS_1_POD_2_ZN_1_FLR_1 SYS-3 FLR-1 SCH-D HPLCMT-SOUTH ZN NECB SYSTEM 3 PSZ OCC SCH THURSDAY\n   ************* IDF Context for following error/warning message:\n   ************* Note -- lines truncated at 300 characters, if necessary...\n   *************   2236 Schedule:Day:Interval,\n   ************* indicated Name=Sp-Corner_Class_1_Pod_2_ZN_1_FLR_1 Sys-3 Flr-1 Sch-D HPlcmt-south ZN NECB System 3 PSZ Occ Sch Friday\n   ************* Only last 1 lines before error line shown.....\n   *************   2237   Sp-Corner_Class_1_Pod_2_ZN_1_FLR_1 Sys-3 Flr-1 Sch-D HPlcmt-south ZN NECB System 3 PSZ Occ Sch Friday, !- Name\n   ** Warning ** IP: IDF line~2237 Alpha Argument length exceeds maximum, will be truncated=  Sp-Corner_Class_1_Pod_2_ZN_1_FLR_1 Sys-3 Flr-1 Sch-D HPlcmt-south ZN NECB System 3 PSZ Occ Sch Frida\n   **   ~~~   ** Will be processed as Alpha=SP-CORNER_CLASS_1_POD_2_ZN_1_FLR_1 SYS-3 FLR-1 SCH-D HPLCMT-SOUTH ZN NECB SYSTEM 3 PSZ OCC SCH FRIDAY\n   ************* IDF Context for following error/warning message:\n   ************* Note -- lines truncated at 300 characters, if necessary...\n   *************   2251 Schedule:Day:Interval,\n   ************* indicated Name=Sp-Corner_Class_1_Pod_2_ZN_1_FLR_1 Sys-3 Flr-1 Sch-D HPlcmt-south ZN NECB System 3 PSZ Occ Sch Saturday\n   ************* Only last 1 lines before error line shown.....\n   *************   2252   Sp-Corner_Class_1_Pod_2_ZN_1_FLR_1 Sys-3 Flr-1 Sch-D HPlcmt-south ZN NECB System 3 PSZ Occ Sch Saturday, !- Name\n   ** Warning ** IP: IDF line~2252 Alpha Argument length exceeds maximum, will be truncated=  Sp-Corner_Class_1_Pod_2_ZN_1_FLR_1 Sys-3 Flr-1 Sch-D HPlcmt-south ZN NECB System 3 PSZ Occ Sch Saturda\n   **   ~~~   ** Will be processed as Alpha=SP-CORNER_CLASS_1_POD_2_ZN_1_FLR_1 SYS-3 FLR-1 SCH-D HPLCMT-SOUTH ZN NECB SYSTEM 3 PSZ OCC SCH SATURDAY\n   ************* IDF Context for following error/warning message:\n   ************* Note -- lines truncated at 300 characters, if necessary...\n   *************   2258 Schedule:Week:Daily,\n   ************* indicated Name=Schedule:Week:Daily {2e70a41f-0ce1-409a-92cb-799581bf0178}\n   ************* Only last 2 lines before error line shown.....\n   *************   2259   Schedule:Week:Daily {2e70a41f-0ce1-409a-92cb-799581bf0178}, !- Name\n   *************   2260   Sp-Corner_Class_1_Pod_2_ZN_1_FLR_1 Sys-3 Flr-1 Sch-D HPlcmt-south ZN NECB System 3 PSZ Occ Sch Sunday, !- Sunday Schedule:Day Name\n   ** Warning ** IP: IDF line~2260 Alpha Argument length exceeds maximum, will be truncated=  Sp-Corner_Class_1_Pod_2_ZN_1_FLR_1 Sys-3 Flr-1 Sch-D HPlcmt-south ZN NECB System 3 PSZ Occ Sch Sunda\n   **   ~~~   ** Will be processed as Alpha=SP-CORNER_CLASS_1_POD_2_ZN_1_FLR_1 SYS-3 FLR-1 SCH-D HPLCMT-SOUTH ZN NECB SYSTEM 3 PSZ OCC SCH SUNDAY\n   ************* IDF Context for following error/warning message:\n   ************* Note -- lines truncated at 300 characters, if necessary...\n   *************   2258 Schedule:Week:Daily,\n   ************* indicated Name=Schedule:Week:Daily {2e70a41f-0ce1-409a-92cb-799581bf0178}\n   ************* Only last 3 lines before error line shown.....\n   *************   2259   Schedule:Week:Daily {2e70a41f-0ce1-409a-92cb-799581bf0178}, !- Name\n   *************   2260   Sp-Corner_Class_1_Pod_2_ZN_1_FLR_1 Sys-3 Flr-1 Sch-D HPlcmt-south ZN NECB System 3 PSZ Occ Sch Sunday, !- Sunday Schedule:Day Name\n   *************   2261   Sp-Corner_Class_1_Pod_2_ZN_1_FLR_1 Sys-3 Flr-1 Sch-D HPlcmt-south ZN NECB System 3 PSZ Occ Sch Monday, !- Monday Schedule:Day Name\n   ** Warning ** IP: IDF line~2261 Alpha Argument length exceeds maximum, will be truncated=  Sp-Corner_Class_1_Pod_2_ZN_1_FLR_1 Sys-3 Flr-1 Sch-D HPlcmt-south ZN NECB System 3 PSZ Occ Sch Monda\n   **   ~~~   ** Will be processed as Alpha=SP-CORNER_CLASS_1_POD_2_ZN_1_FLR_1 SYS-3 FLR-1 SCH-D HPLCMT-SOUTH ZN NECB SYSTEM 3 PSZ OCC SCH MONDAY\n   ************* IDF Context for following error/warning message:\n   ************* Note -- lines truncated at 300 characters, if necessary...\n   *************   2258 Schedule:Week:Daily,\n   ************* indicated Name=Schedule:Week:Daily {2e70a41f-0ce1-409a-92cb-799581bf0178}\n   ************* Only last 4 lines before error line shown.....\n   *************   2259   Schedule:Week:Daily {2e70a41f-0ce1-409a-92cb-799581bf0178}, !- Name\n   *************   2260   Sp-Corner_Class_1_Pod_2_ZN_1_FLR_1 Sys-3 Flr-1 Sch-D HPlcmt-south ZN NECB System 3 PSZ Occ Sch Sunday, !- Sunday Schedule:Day Name\n   *************   2261   Sp-Corner_Class_1_Pod_2_ZN_1_FLR_1 Sys-3 Flr-1 Sch-D HPlcmt-south ZN NECB System 3 PSZ Occ Sch Monday, !- Monday Schedule:Day Name\n   *************   2262   Sp-Corner_Class_1_Pod_2_ZN_1_FLR_1 Sys-3 Flr-1 Sch-D HPlcmt-south ZN NECB System 3 PSZ Occ Sch Tuesday, !- Tuesday Schedule:Day Name\n   ** Warning ** IP: IDF line~2262 Alpha Argument length exceeds maximum, will be truncated=  Sp-Corner_Class_1_Pod_2_ZN_1_FLR_1 Sys-3 Flr-1 Sch-D HPlcmt-south ZN NECB System 3 PSZ Occ Sch Tuesda\n   **   ~~~   ** Will be processed as Alpha=SP-CORNER_CLASS_1_POD_2_ZN_1_FLR_1 SYS-3 FLR-1 SCH-D HPLCMT-SOUTH ZN NECB SYSTEM 3 PSZ OCC SCH TUESDAY\n   ************* IDF Context for following error/warning message:\n   ************* Note -- lines truncated at 300 characters, if necessary...\n   *************   2258 Schedule:Week:Daily,\n   ************* indicated Name=Schedule:Week:Daily {2e70a41f-0ce1-409a-92cb-799581bf0178}\n   ************* Only last 5 lines before error line shown.....\n   *************   2259   Schedule:Week:Daily {2e70a41f-0ce1-409a-92cb-799581bf0178}, !- Name\n   *************   2260   Sp-Corner_Class_1_Pod_2_ZN_1_FLR_1 Sys-3 Flr-1 Sch-D HPlcmt-south ZN NECB System 3 PSZ Occ Sch Sunday, !- Sunday Schedule:Day Name\n   *************   2261   Sp-Corner_Class_1_Pod_2_ZN_1_FLR_1 Sys-3 Flr-1 Sch-D HPlcmt-south ZN NECB System 3 PSZ Occ Sch Monday, !- Monday Schedule:Day Name\n   *************   2262   Sp-Corner_Class_1_Pod_2_ZN_1_FLR_1 Sys-3 Flr-1 Sch-D HPlcmt-south ZN NECB System 3 PSZ Occ Sch Tuesday, !- Tuesday Schedule:Day Name\n   *************   2263   Sp-Corner_Class_1_Pod_2_ZN_1_FLR_1 Sys-3 Flr-1 Sch-D HPlcmt-south ZN NECB System 3 PSZ Occ Sch Wednesday, !- Wednesday Schedule:Day Name\n   ** Warning ** IP: IDF line~2263 Alpha Argument length exceeds maximum, will be truncated=  Sp-Corner_Class_1_Pod_2_ZN_1_FLR_1 Sys-3 Flr-1 Sch-D HPlcmt-south ZN NECB System 3 PSZ Occ Sch Wednesda\n   **   ~~~   ** Will be processed as Alpha=SP-CORNER_CLASS_1_POD_2_ZN_1_FLR_1 SYS-3 FLR-1 SCH-D HPLCMT-SOUTH ZN NECB SYSTEM 3 PSZ OCC SCH WEDNESDAY\n   ************* IDF Context for following error/warning message:\n   ************* Note -- lines truncated at 300 characters, if necessary...\n   *************   2258 Schedule:Week:Daily,\n   ************* indicated Name=Schedule:Week:Daily {2e70a41f-0ce1-409a-92cb-799581bf0178}\n   ************* Only last 6 lines before error line shown.....\n   *************   2259   Schedule:Week:Daily {2e70a41f-0ce1-409a-92cb-799581bf0178}, !- Name\n   *************   2260   Sp-Corner_Class_1_Pod_2_ZN_1_FLR_1 Sys-3 Flr-1 Sch-D HPlcmt-south ZN NECB System 3 PSZ Occ Sch Sunday, !- Sunday Schedule:Day Name\n   *************   2261   Sp-Corner_Class_1_Pod_2_ZN_1_FLR_1 Sys-3 Flr-1 Sch-D HPlcmt-south ZN NECB System 3 PSZ Occ Sch Monday, !- Monday Schedule:Day Name\n   *************   2262   Sp-Corner_Class_1_Pod_2_ZN_1_FLR_1 Sys-3 Flr-1 Sch-D HPlcmt-south ZN NECB System 3 PSZ Occ Sch Tuesday, !- Tuesday Schedule:Day Name\n   *************   2263   Sp-Corner_Class_1_Pod_2_ZN_1_FLR_1 Sys-3 Flr-1 Sch-D HPlcmt-south ZN NECB System 3 PSZ Occ Sch Wednesday, !- Wednesday Schedule:Day Name\n   *************   2264   Sp-Corner_Class_1_Pod_2_ZN_1_FLR_1 Sys-3 Flr-1 Sch-D HPlcmt-south ZN NECB System 3 PSZ Occ Sch Thursday, !- Thursday Schedule:Day Name\n   ** Warning ** IP: IDF line~2264 Alpha Argument length exceeds maximum, will be truncated=  Sp-Corner_Class_1_Pod_2_ZN_1_FLR_1 Sys-3 Flr-1 Sch-D HPlcmt-south ZN NECB System 3 PSZ Occ Sch Thursda\n   **   ~~~   ** Will be processed as Alpha=SP-CORNER_CLASS_1_POD_2_ZN_1_FLR_1 SYS-3 FLR-1 SCH-D HPLCMT-SOUTH ZN NECB SYSTEM 3 PSZ OCC SCH THURSDAY\n   ************* IDF Context for following error/warning message:\n   ************* Note -- lines truncated at 300 characters, if necessary...\n   *************   2258 Schedule:Week:Daily,\n   ************* indicated Name=Schedule:Week:Daily {2e70a41f-0ce1-409a-92cb-799581bf0178}\n   ************* Only last 7 lines before error line shown.....\n   *************   2259   Schedule:Week:Daily {2e70a41f-0ce1-409a-92cb-799581bf0178}, !- Name\n   *************   2260   Sp-Corner_Class_1_Pod_2_ZN_1_FLR_1 Sys-3 Flr-1 Sch-D HPlcmt-south ZN NECB System 3 PSZ Occ Sch Sunday, !- Sunday Schedule:Day Name\n   *************   2261   Sp-Corner_Class_1_Pod_2_ZN_1_FLR_1 Sys-3 Flr-1 Sch-D HPlcmt-south ZN NECB System 3 PSZ Occ Sch Monday, !- Monday Schedule:Day Name\n   *************   2262   Sp-Corner_Class_1_Pod_2_ZN_1_FLR_1 Sys-3 Flr-1 Sch-D HPlcmt-south ZN NECB System 3 PSZ Occ Sch Tuesday, !- Tuesday Schedule:Day Name\n   *************   2263   Sp-Corner_Class_1_Pod_2_ZN_1_FLR_1 Sys-3 Flr-1 Sch-D HPlcmt-south ZN NECB System 3 PSZ Occ Sch Wednesday, !- Wednesday Schedule:Day Name\n   *************   2264   Sp-Corner_Class_1_Pod_2_ZN_1_FLR_1 Sys-3 Flr-1 Sch-D HPlcmt-south ZN NECB System 3 PSZ Occ Sch Thursday, !- Thursday Schedule:Day Name\n   *************   2265   Sp-Corner_Class_1_Pod_2_ZN_1_FLR_1 Sys-3 Flr-1 Sch-D HPlcmt-south ZN NECB System 3 PSZ Occ Sch Friday, !- Friday Schedule:Day Name\n   ** Warning ** IP: IDF line~2265 Alpha Argument length exceeds maximum, will be truncated=  Sp-Corner_Class_1_Pod_2_ZN_1_FLR_1 Sys-3 Flr-1 Sch-D HPlcmt-south ZN NECB System 3 PSZ Occ Sch Frida\n   **   ~~~   ** Will be processed as Alpha=SP-CORNER_CLASS_1_POD_2_ZN_1_FLR_1 SYS-3 FLR-1 SCH-D HPLCMT-SOUTH ZN NECB SYSTEM 3 PSZ OCC SCH FRIDAY\n   ************* IDF Context for following error/warning message:\n   ************* Note -- lines truncated at 300 characters, if necessary...\n   *************   2258 Schedule:Week:Daily,\n   ************* indicated Name=Schedule:Week:Daily {2e70a41f-0ce1-409a-92cb-799581bf0178}\n   ************* Only last 8 lines before error line shown.....\n   *************   2259   Schedule:Week:Daily {2e70a41f-0ce1-409a-92cb-799581bf0178}, !- Name\n   *************   2260   Sp-Corner_Class_1_Pod_2_ZN_1_FLR_1 Sys-3 Flr-1 Sch-D HPlcmt-south ZN NECB System 3 PSZ Occ Sch Sunday, !- Sunday Schedule:Day Name\n   *************   2261   Sp-Corner_Class_1_Pod_2_ZN_1_FLR_1 Sys-3 Flr-1 Sch-D HPlcmt-south ZN NECB System 3 PSZ Occ Sch Monday, !- Monday Schedule:Day Name\n   *************   2262   Sp-Corner_Class_1_Pod_2_ZN_1_FLR_1 Sys-3 Flr-1 Sch-D HPlcmt-south ZN NECB System 3 PSZ Occ Sch Tuesday, !- Tuesday Schedule:Day Name\n   *************   2263   Sp-Corner_Class_1_Pod_2_ZN_1_FLR_1 Sys-3 Flr-1 Sch-D HPlcmt-south ZN NECB System 3 PSZ Occ Sch Wednesday, !- Wednesday Schedule:Day Name\n   *************   2264   Sp-Corner_Class_1_Pod_2_ZN_1_FLR_1 Sys-3 Flr-1 Sch-D HPlcmt-south ZN NECB System 3 PSZ Occ Sch Thursday, !- Thursday Schedule:Day Name\n   *************   2265   Sp-Corner_Class_1_Pod_2_ZN_1_FLR_1 Sys-3 Flr-1 Sch-D HPlcmt-south ZN NECB System 3 PSZ Occ Sch Friday, !- Friday Schedule:Day Name\n   *************   2266   Sp-Corner_Class_1_Pod_2_ZN_1_FLR_1 Sys-3 Flr-1 Sch-D HPlcmt-south ZN NECB System 3 PSZ Occ Sch Saturday, !- Saturday Schedule:Day Name\n   ** Warning ** IP: IDF line~2266 Alpha Argument length exceeds maximum, will be truncated=  Sp-Corner_Class_1_Pod_2_ZN_1_FLR_1 Sys-3 Flr-1 Sch-D HPlcmt-south ZN NECB System 3 PSZ Occ Sch Saturda\n   **   ~~~   ** Will be processed as Alpha=SP-CORNER_CLASS_1_POD_2_ZN_1_FLR_1 SYS-3 FLR-1 SCH-D HPLCMT-SOUTH ZN NECB SYSTEM 3 PSZ OCC SCH SATURDAY\n   ************* IDF Context for following error/warning message:\n   ************* Note -- lines truncated at 300 characters, if necessary...\n   *************   2258 Schedule:Week:Daily,\n   ************* indicated Name=Schedule:Week:Daily {2e70a41f-0ce1-409a-92cb-799581bf0178}\n   ************* Only last 9 lines before error line shown.....\n   *************   2259   Schedule:Week:Daily {2e70a41f-0ce1-409a-92cb-799581bf0178}, !- Name\n   *************   2260   Sp-Corner_Class_1_Pod_2_ZN_1_FLR_1 Sys-3 Flr-1 Sch-D HPlcmt-south ZN NECB System 3 PSZ Occ Sch Sunday, !- Sunday Schedule:Day Name\n   *************   2261   Sp-Corner_Class_1_Pod_2_ZN_1_FLR_1 Sys-3 Flr-1 Sch-D HPlcmt-south ZN NECB System 3 PSZ Occ Sch Monday, !- Monday Schedule:Day Name\n   *************   2262   Sp-Corner_Class_1_Pod_2_ZN_1_FLR_1 Sys-3 Flr-1 Sch-D HPlcmt-south ZN NECB System 3 PSZ Occ Sch Tuesday, !- Tuesday Schedule:Day Name\n   *************   2263   Sp-Corner_Class_1_Pod_2_ZN_1_FLR_1 Sys-3 Flr-1 Sch-D HPlcmt-south ZN NECB System 3 PSZ Occ Sch Wednesday, !- Wednesday Schedule:Day Name\n   *************   2264   Sp-Corner_Class_1_Pod_2_ZN_1_FLR_1 Sys-3 Flr-1 Sch-D HPlcmt-south ZN NECB System 3 PSZ Occ Sch Thursday, !- Thursday Schedule:Day Name\n   *************   2265   Sp-Corner_Class_1_Pod_2_ZN_1_FLR_1 Sys-3 Flr-1 Sch-D HPlcmt-south ZN NECB System 3 PSZ Occ Sch Friday, !- Friday Schedule:Day Name\n   *************   2266   Sp-Corner_Class_1_Pod_2_ZN_1_FLR_1 Sys-3 Flr-1 Sch-D HPlcmt-south ZN NECB System 3 PSZ Occ Sch Saturday, !- Saturday Schedule:Day Name\n   *************   2267   Sp-Corner_Class_1_Pod_2_ZN_1_FLR_1 Sys-3 Flr-1 Sch-D HPlcmt-south ZN NECB System 3 PSZ Occ Sch Default, !- Holiday Schedule:Day Name\n   ** Warning ** IP: IDF line~2267 Alpha Argument length exceeds maximum, will be truncated=  Sp-Corner_Class_1_Pod_2_ZN_1_FLR_1 Sys-3 Flr-1 Sch-D HPlcmt-south ZN NECB System 3 PSZ Occ Sch Defaul\n   **   ~~~   ** Will be processed as Alpha=SP-CORNER_CLASS_1_POD_2_ZN_1_FLR_1 SYS-3 FLR-1 SCH-D HPLCMT-SOUTH ZN NECB SYSTEM 3 PSZ OCC SCH DEFAULT\n   ************* IDF Context for following error/warning message:\n   ************* Note -- lines truncated at 300 characters, if necessary...\n   *************   2258 Schedule:Week:Daily,\n   ************* indicated Name=Schedule:Week:Daily {2e70a41f-0ce1-409a-92cb-799581bf0178}\n   ************* Only last 10 lines before error line shown.....\n   *************   2259   Schedule:Week:Daily {2e70a41f-0ce1-409a-92cb-799581bf0178}, !- Name\n   *************   2260   Sp-Corner_Class_1_Pod_2_ZN_1_FLR_1 Sys-3 Flr-1 Sch-D HPlcmt-south ZN NECB System 3 PSZ Occ Sch Sunday, !- Sunday Schedule:Day Name\n   *************   2261   Sp-Corner_Class_1_Pod_2_ZN_1_FLR_1 Sys-3 Flr-1 Sch-D HPlcmt-south ZN NECB System 3 PSZ Occ Sch Monday, !- Monday Schedule:Day Name\n   *************   2262   Sp-Corner_Class_1_Pod_2_ZN_1_FLR_1 Sys-3 Flr-1 Sch-D HPlcmt-south ZN NECB System 3 PSZ Occ Sch Tuesday, !- Tuesday Schedule:Day Name\n   *************   2263   Sp-Corner_Class_1_Pod_2_ZN_1_FLR_1 Sys-3 Flr-1 Sch-D HPlcmt-south ZN NECB System 3 PSZ Occ Sch Wednesday, !- Wednesday Schedule:Day Name\n   *************   2264   Sp-Corner_Class_1_Pod_2_ZN_1_FLR_1 Sys-3 Flr-1 Sch-D HPlcmt-south ZN NECB System 3 PSZ Occ Sch Thursday, !- Thursday Schedule:Day Name\n   *************   2265   Sp-Corner_Class_1_Pod_2_ZN_1_FLR_1 Sys-3 Flr-1 Sch-D HPlcmt-south ZN NECB System 3 PSZ Occ Sch Friday, !- Friday Schedule:Day Name\n   *************   2266   Sp-Corner_Class_1_Pod_2_ZN_1_FLR_1 Sys-3 Flr-1 Sch-D HPlcmt-south ZN NECB System 3 PSZ Occ Sch Saturday, !- Saturday Schedule:Day Name\n   *************   2267   Sp-Corner_Class_1_Pod_2_ZN_1_FLR_1 Sys-3 Flr-1 Sch-D HPlcmt-south ZN NECB System 3 PSZ Occ Sch Default, !- Holiday Schedule:Day Name\n   *************   2268   Sp-Corner_Class_1_Pod_2_ZN_1_FLR_1 Sys-3 Flr-1 Sch-D HPlcmt-south ZN NECB System 3 PSZ Occ Sch Summer Design Day, !- SummerDesignDay Schedule:Day Name\n   ** Warning ** IP: IDF line~2268 Alpha Argument length exceeds maximum, will be truncated=  Sp-Corner_Class_1_Pod_2_ZN_1_FLR_1 Sys-3 Flr-1 Sch-D HPlcmt-south ZN NECB System 3 PSZ Occ Sch Summer Design Da\n   **   ~~~   ** Will be processed as Alpha=SP-CORNER_CLASS_1_POD_2_ZN_1_FLR_1 SYS-3 FLR-1 SCH-D HPLCMT-SOUTH ZN NECB SYSTEM 3 PSZ OCC SCH SUMMER DESIGN DAY\n   ************* IDF Context for following error/warning message:\n   ************* Note -- lines truncated at 300 characters, if necessary...\n   *************   2258 Schedule:Week:Daily,\n   ************* indicated Name=Schedule:Week:Daily {2e70a41f-0ce1-409a-92cb-799581bf0178}\n   ************* Only last 10 lines before error line shown.....\n   *************   2260   Sp-Corner_Class_1_Pod_2_ZN_1_FLR_1 Sys-3 Flr-1 Sch-D HPlcmt-south ZN NECB System 3 PSZ Occ Sch Sunday, !- Sunday Schedule:Day Name\n   *************   2261   Sp-Corner_Class_1_Pod_2_ZN_1_FLR_1 Sys-3 Flr-1 Sch-D HPlcmt-south ZN NECB System 3 PSZ Occ Sch Monday, !- Monday Schedule:Day Name\n   *************   2262   Sp-Corner_Class_1_Pod_2_ZN_1_FLR_1 Sys-3 Flr-1 Sch-D HPlcmt-south ZN NECB System 3 PSZ Occ Sch Tuesday, !- Tuesday Schedule:Day Name\n   *************   2263   Sp-Corner_Class_1_Pod_2_ZN_1_FLR_1 Sys-3 Flr-1 Sch-D HPlcmt-south ZN NECB System 3 PSZ Occ Sch Wednesday, !- Wednesday Schedule:Day Name\n   *************   2264   Sp-Corner_Class_1_Pod_2_ZN_1_FLR_1 Sys-3 Flr-1 Sch-D HPlcmt-south ZN NECB System 3 PSZ Occ Sch Thursday, !- Thursday Schedule:Day Name\n   *************   2265   Sp-Corner_Class_1_Pod_2_ZN_1_FLR_1 Sys-3 Flr-1 Sch-D HPlcmt-south ZN NECB System 3 PSZ Occ Sch Friday, !- Friday Schedule:Day Name\n   *************   2266   Sp-Corner_Class_1_Pod_2_ZN_1_FLR_1 Sys-3 Flr-1 Sch-D HPlcmt-south ZN NECB System 3 PSZ Occ Sch Saturday, !- Saturday Schedule:Day Name\n   *************   2267   Sp-Corner_Class_1_Pod_2_ZN_1_FLR_1 Sys-3 Flr-1 Sch-D HPlcmt-south ZN NECB System 3 PSZ Occ Sch Default, !- Holiday Schedule:Day Name\n   *************   2268   Sp-Corner_Class_1_Pod_2_ZN_1_FLR_1 Sys-3 Flr-1 Sch-D HPlcmt-south ZN NECB System 3 PSZ Occ Sch Summer Design Day, !- SummerDesignDay Schedule:Day Name\n   *************   2269   Sp-Corner_Class_1_Pod_2_ZN_1_FLR_1 Sys-3 Flr-1 Sch-D HPlcmt-south ZN NECB System 3 PSZ Occ Sch Winter Design Day, !- WinterDesignDay Schedule:Day Name\n   ** Warning ** IP: IDF line~2269 Alpha Argument length exceeds maximum, will be truncated=  Sp-Corner_Class_1_Pod_2_ZN_1_FLR_1 Sys-3 Flr-1 Sch-D HPlcmt-south ZN NECB System 3 PSZ Occ Sch Winter Design Da\n   **   ~~~   ** Will be processed as Alpha=SP-CORNER_CLASS_1_POD_2_ZN_1_FLR_1 SYS-3 FLR-1 SCH-D HPLCMT-SOUTH ZN NECB SYSTEM 3 PSZ OCC SCH WINTER DESIGN DAY\n   ************* IDF Context for following error/warning message:\n   ************* Note -- lines truncated at 300 characters, if necessary...\n   *************   2258 Schedule:Week:Daily,\n   ************* indicated Name=Schedule:Week:Daily {2e70a41f-0ce1-409a-92cb-799581bf0178}\n   ************* Only last 10 lines before error line shown.....\n   *************   2261   Sp-Corner_Class_1_Pod_2_ZN_1_FLR_1 Sys-3 Flr-1 Sch-D HPlcmt-south ZN NECB System 3 PSZ Occ Sch Monday, !- Monday Schedule:Day Name\n   *************   2262   Sp-Corner_Class_1_Pod_2_ZN_1_FLR_1 Sys-3 Flr-1 Sch-D HPlcmt-south ZN NECB System 3 PSZ Occ Sch Tuesday, !- Tuesday Schedule:Day Name\n   *************   2263   Sp-Corner_Class_1_Pod_2_ZN_1_FLR_1 Sys-3 Flr-1 Sch-D HPlcmt-south ZN NECB System 3 PSZ Occ Sch Wednesday, !- Wednesday Schedule:Day Name\n   *************   2264   Sp-Corner_Class_1_Pod_2_ZN_1_FLR_1 Sys-3 Flr-1 Sch-D HPlcmt-south ZN NECB System 3 PSZ Occ Sch Thursday, !- Thursday Schedule:Day Name\n   *************   2265   Sp-Corner_Class_1_Pod_2_ZN_1_FLR_1 Sys-3 Flr-1 Sch-D HPlcmt-south ZN NECB System 3 PSZ Occ Sch Friday, !- Friday Schedule:Day Name\n   *************   2266   Sp-Corner_Class_1_Pod_2_ZN_1_FLR_1 Sys-3 Flr-1 Sch-D HPlcmt-south ZN NECB System 3 PSZ Occ Sch Saturday, !- Saturday Schedule:Day Name\n   *************   2267   Sp-Corner_Class_1_Pod_2_ZN_1_FLR_1 Sys-3 Flr-1 Sch-D HPlcmt-south ZN NECB System 3 PSZ Occ Sch Default, !- Holiday Schedule:Day Name\n   *************   2268   Sp-Corner_Class_1_Pod_2_ZN_1_FLR_1 Sys-3 Flr-1 Sch-D HPlcmt-south ZN NECB System 3 PSZ Occ Sch Summer Design Day, !- SummerDesignDay Schedule:Day Name\n   *************   2269   Sp-Corner_Class_1_Pod_2_ZN_1_FLR_1 Sys-3 Flr-1 Sch-D HPlcmt-south ZN NECB System 3 PSZ Occ Sch Winter Design Day, !- WinterDesignDay Schedule:Day Name\n   *************   2270   Sp-Corner_Class_1_Pod_2_ZN_1_FLR_1 Sys-3 Flr-1 Sch-D HPlcmt-south ZN NECB System 3 PSZ Occ Sch Default, !- CustomDay1 Schedule:Day Name\n   ** Warning ** IP: IDF line~2270 Alpha Argument length exceeds maximum, will be truncated=  Sp-Corner_Class_1_Pod_2_ZN_1_FLR_1 Sys-3 Flr-1 Sch-D HPlcmt-south ZN NECB System 3 PSZ Occ Sch Defaul\n   **   ~~~   ** Will be processed as Alpha=SP-CORNER_CLASS_1_POD_2_ZN_1_FLR_1 SYS-3 FLR-1 SCH-D HPLCMT-SOUTH ZN NECB SYSTEM 3 PSZ OCC SCH DEFAULT\n   ************* IDF Context for following error/warning message:\n   ************* Note -- lines truncated at 300 characters, if necessary...\n   *************   2258 Schedule:Week:Daily,\n   ************* indicated Name=Schedule:Week:Daily {2e70a41f-0ce1-409a-92cb-799581bf0178}\n   ************* Only last 10 lines before error line shown.....\n   *************   2262   Sp-Corner_Class_1_Pod_2_ZN_1_FLR_1 Sys-3 Flr-1 Sch-D HPlcmt-south ZN NECB System 3 PSZ Occ Sch Tuesday, !- Tuesday Schedule:Day Name\n   *************   2263   Sp-Corner_Class_1_Pod_2_ZN_1_FLR_1 Sys-3 Flr-1 Sch-D HPlcmt-south ZN NECB System 3 PSZ Occ Sch Wednesday, !- Wednesday Schedule:Day Name\n   *************   2264   Sp-Corner_Class_1_Pod_2_ZN_1_FLR_1 Sys-3 Flr-1 Sch-D HPlcmt-south ZN NECB System 3 PSZ Occ Sch Thursday, !- Thursday Schedule:Day Name\n   *************   2265   Sp-Corner_Class_1_Pod_2_ZN_1_FLR_1 Sys-3 Flr-1 Sch-D HPlcmt-south ZN NECB System 3 PSZ Occ Sch Friday, !- Friday Schedule:Day Name\n   *************   2266   Sp-Corner_Class_1_Pod_2_ZN_1_FLR_1 Sys-3 Flr-1 Sch-D HPlcmt-south ZN NECB System 3 PSZ Occ Sch Saturday, !- Saturday Schedule:Day Name\n   *************   2267   Sp-Corner_Class_1_Pod_2_ZN_1_FLR_1 Sys-3 Flr-1 Sch-D HPlcmt-south ZN NECB System 3 PSZ Occ Sch Default, !- Holiday Schedule:Day Name\n   *************   2268   Sp-Corner_Class_1_Pod_2_ZN_1_FLR_1 Sys-3 Flr-1 Sch-D HPlcmt-south ZN NECB System 3 PSZ Occ Sch Summer Design Day, !- SummerDesignDay Schedule:Day Name\n   *************   2269   Sp-Corner_Class_1_Pod_2_ZN_1_FLR_1 Sys-3 Flr-1 Sch-D HPlcmt-south ZN NECB System 3 PSZ Occ Sch Winter Design Day, !- WinterDesignDay Schedule:Day Name\n   *************   2270   Sp-Corner_Class_1_Pod_2_ZN_1_FLR_1 Sys-3 Flr-1 Sch-D HPlcmt-south ZN NECB System 3 PSZ Occ Sch Default, !- CustomDay1 Schedule:Day Name\n   *************   2271   Sp-Corner_Class_1_Pod_2_ZN_1_FLR_1 Sys-3 Flr-1 Sch-D HPlcmt-south ZN NECB System 3 PSZ Occ Sch Default; !- CustomDay2 Schedule:Day Name\n   ** Warning ** IP: IDF line~2271 Alpha Argument length exceeds maximum, will be truncated=  Sp-Corner_Class_1_Pod_2_ZN_1_FLR_1 Sys-3 Flr-1 Sch-D HPlcmt-south ZN NECB System 3 PSZ Occ Sch Defaul\n   **   ~~~   ** Will be processed as Alpha=SP-CORNER_CLASS_1_POD_2_ZN_1_FLR_1 SYS-3 FLR-1 SCH-D HPLCMT-SOUTH ZN NECB SYSTEM 3 PSZ OCC SCH DEFAULT\n   ************* IDF Context for following error/warning message:\n   ************* Note -- lines truncated at 300 characters, if necessary...\n   *************   2282 Schedule:Day:Interval,\n   ************* indicated Name=Sp-Corner_Class_1_Pod_2_ZN_1_FLR_1 Sys-3 Flr-1 Sch-D HPlcmt-south ZN NECB System 3 PSZ Occ Sch Default\n   ************* Only last 1 lines before error line shown.....\n   *************   2283   Sp-Corner_Class_1_Pod_2_ZN_1_FLR_1 Sys-3 Flr-1 Sch-D HPlcmt-south ZN NECB System 3 PSZ Occ Sch Default, !- Name\n   ** Warning ** IP: IDF line~2283 Alpha Argument length exceeds maximum, will be truncated=  Sp-Corner_Class_1_Pod_2_ZN_1_FLR_1 Sys-3 Flr-1 Sch-D HPlcmt-south ZN NECB System 3 PSZ Occ Sch Defaul\n   **   ~~~   ** Will be processed as Alpha=SP-CORNER_CLASS_1_POD_2_ZN_1_FLR_1 SYS-3 FLR-1 SCH-D HPLCMT-SOUTH ZN NECB SYSTEM 3 PSZ OCC SCH DEFAULT\n   ************* IDF Context for following error/warning message:\n   ************* Note -- lines truncated at 300 characters, if necessary...\n   *************   2289 Schedule:Day:Interval,\n   ************* indicated Name=Sp-Corner_Class_1_Pod_2_ZN_1_FLR_1 Sys-3 Flr-1 Sch-D HPlcmt-south ZN NECB System 3 PSZ Occ Sch Summer Design Day\n   ************* Only last 1 lines before error line shown.....\n   *************   2290   Sp-Corner_Class_1_Pod_2_ZN_1_FLR_1 Sys-3 Flr-1 Sch-D HPlcmt-south ZN NECB System 3 PSZ Occ Sch Summer Design Day, !- Name\n   ** Warning ** IP: IDF line~2290 Alpha Argument length exceeds maximum, will be truncated=  Sp-Corner_Class_1_Pod_2_ZN_1_FLR_1 Sys-3 Flr-1 Sch-D HPlcmt-south ZN NECB System 3 PSZ Occ Sch Summer Design Da\n   **   ~~~   ** Will be processed as Alpha=SP-CORNER_CLASS_1_POD_2_ZN_1_FLR_1 SYS-3 FLR-1 SCH-D HPLCMT-SOUTH ZN NECB SYSTEM 3 PSZ OCC SCH SUMMER DESIGN DAY\n   ************* IDF Context for following error/warning message:\n   ************* Note -- lines truncated at 300 characters, if necessary...\n   *************   2296 Schedule:Day:Interval,\n   ************* indicated Name=Sp-Corner_Class_1_Pod_2_ZN_1_FLR_1 Sys-3 Flr-1 Sch-D HPlcmt-south ZN NECB System 3 PSZ Occ Sch Winter Design Day\n   ************* Only last 1 lines before error line shown.....\n   *************   2297   Sp-Corner_Class_1_Pod_2_ZN_1_FLR_1 Sys-3 Flr-1 Sch-D HPlcmt-south ZN NECB System 3 PSZ Occ Sch Winter Design Day, !- Name\n   ** Warning ** IP: IDF line~2297 Alpha Argument length exceeds maximum, will be truncated=  Sp-Corner_Class_1_Pod_2_ZN_1_FLR_1 Sys-3 Flr-1 Sch-D HPlcmt-south ZN NECB System 3 PSZ Occ Sch Winter Design Da\n   **   ~~~   ** Will be processed as Alpha=SP-CORNER_CLASS_1_POD_2_ZN_1_FLR_1 SYS-3 FLR-1 SCH-D HPLCMT-SOUTH ZN NECB SYSTEM 3 PSZ OCC SCH WINTER DESIGN DAY\n   ************* IDF Context for following error/warning message:\n   ************* Note -- lines truncated at 300 characters, if necessary...\n   *************   2569 Schedule:Day:Interval,\n   ************* indicated Name=Sp-Corner_Class_1_Pod_3_ZN_1_FLR_1 Sys-3 Flr-1 Sch-D HPlcmt-south ZN NECB System 3 PSZ Occ Sch Sunday\n   ************* Only last 1 lines before error line shown.....\n   *************   2570   Sp-Corner_Class_1_Pod_3_ZN_1_FLR_1 Sys-3 Flr-1 Sch-D HPlcmt-south ZN NECB System 3 PSZ Occ Sch Sunday, !- Name\n   ** Warning ** IP: IDF line~2570 Alpha Argument length exceeds maximum, will be truncated=  Sp-Corner_Class_1_Pod_3_ZN_1_FLR_1 Sys-3 Flr-1 Sch-D HPlcmt-south ZN NECB System 3 PSZ Occ Sch Sunda\n   **   ~~~   ** Will be processed as Alpha=SP-CORNER_CLASS_1_POD_3_ZN_1_FLR_1 SYS-3 FLR-1 SCH-D HPLCMT-SOUTH ZN NECB SYSTEM 3 PSZ OCC SCH SUNDAY\n   ************* IDF Context for following error/warning message:\n   ************* Note -- lines truncated at 300 characters, if necessary...\n   *************   2576 Schedule:Day:Interval,\n   ************* indicated Name=Sp-Corner_Class_1_Pod_3_ZN_1_FLR_1 Sys-3 Flr-1 Sch-D HPlcmt-south ZN NECB System 3 PSZ Occ Sch Monday\n   ************* Only last 1 lines before error line shown.....\n   *************   2577   Sp-Corner_Class_1_Pod_3_ZN_1_FLR_1 Sys-3 Flr-1 Sch-D HPlcmt-south ZN NECB System 3 PSZ Occ Sch Monday, !- Name\n   ** Warning ** IP: IDF line~2577 Alpha Argument length exceeds maximum, will be truncated=  Sp-Corner_Class_1_Pod_3_ZN_1_FLR_1 Sys-3 Flr-1 Sch-D HPlcmt-south ZN NECB System 3 PSZ Occ Sch Monda\n   **   ~~~   ** Will be processed as Alpha=SP-CORNER_CLASS_1_POD_3_ZN_1_FLR_1 SYS-3 FLR-1 SCH-D HPLCMT-SOUTH ZN NECB SYSTEM 3 PSZ OCC SCH MONDAY\n   ************* IDF Context for following error/warning message:\n   ************* Note -- lines truncated at 300 characters, if necessary...\n   *************   2591 Schedule:Day:Interval,\n   ************* indicated Name=Sp-Corner_Class_1_Pod_3_ZN_1_FLR_1 Sys-3 Flr-1 Sch-D HPlcmt-south ZN NECB System 3 PSZ Occ Sch Tuesday\n   ************* Only last 1 lines before error line shown.....\n   *************   2592   Sp-Corner_Class_1_Pod_3_ZN_1_FLR_1 Sys-3 Flr-1 Sch-D HPlcmt-south ZN NECB System 3 PSZ Occ Sch Tuesday, !- Name\n   ** Warning ** IP: IDF line~2592 Alpha Argument length exceeds maximum, will be truncated=  Sp-Corner_Class_1_Pod_3_ZN_1_FLR_1 Sys-3 Flr-1 Sch-D HPlcmt-south ZN NECB System 3 PSZ Occ Sch Tuesda\n   **   ~~~   ** Will be processed as Alpha=SP-CORNER_CLASS_1_POD_3_ZN_1_FLR_1 SYS-3 FLR-1 SCH-D HPLCMT-SOUTH ZN NECB SYSTEM 3 PSZ OCC SCH TUESDAY\n   ************* IDF Context for following error/warning message:\n   ************* Note -- lines truncated at 300 characters, if necessary...\n   *************   2606 Schedule:Day:Interval,\n   ************* indicated Name=Sp-Corner_Class_1_Pod_3_ZN_1_FLR_1 Sys-3 Flr-1 Sch-D HPlcmt-south ZN NECB System 3 PSZ Occ Sch Wednesday\n   ************* Only last 1 lines before error line shown.....\n   *************   2607   Sp-Corner_Class_1_Pod_3_ZN_1_FLR_1 Sys-3 Flr-1 Sch-D HPlcmt-south ZN NECB System 3 PSZ Occ Sch Wednesday, !- Name\n   ** Warning ** IP: IDF line~2607 Alpha Argument length exceeds maximum, will be truncated=  Sp-Corner_Class_1_Pod_3_ZN_1_FLR_1 Sys-3 Flr-1 Sch-D HPlcmt-south ZN NECB System 3 PSZ Occ Sch Wednesda\n   **   ~~~   ** Will be processed as Alpha=SP-CORNER_CLASS_1_POD_3_ZN_1_FLR_1 SYS-3 FLR-1 SCH-D HPLCMT-SOUTH ZN NECB SYSTEM 3 PSZ OCC SCH WEDNESDAY\n   ************* IDF Context for following error/warning message:\n   ************* Note -- lines truncated at 300 characters, if necessary...\n   *************   2621 Schedule:Day:Interval,\n   ************* indicated Name=Sp-Corner_Class_1_Pod_3_ZN_1_FLR_1 Sys-3 Flr-1 Sch-D HPlcmt-south ZN NECB System 3 PSZ Occ Sch Thursday\n   ************* Only last 1 lines before error line shown.....\n   *************   2622   Sp-Corner_Class_1_Pod_3_ZN_1_FLR_1 Sys-3 Flr-1 Sch-D HPlcmt-south ZN NECB System 3 PSZ Occ Sch Thursday, !- Name\n   ** Warning ** IP: IDF line~2622 Alpha Argument length exceeds maximum, will be truncated=  Sp-Corner_Class_1_Pod_3_ZN_1_FLR_1 Sys-3 Flr-1 Sch-D HPlcmt-south ZN NECB System 3 PSZ Occ Sch Thursda\n   **   ~~~   ** Will be processed as Alpha=SP-CORNER_CLASS_1_POD_3_ZN_1_FLR_1 SYS-3 FLR-1 SCH-D HPLCMT-SOUTH ZN NECB SYSTEM 3 PSZ OCC SCH THURSDAY\n   ************* IDF Context for following error/warning message:\n   ************* Note -- lines truncated at 300 characters, if necessary...\n   *************   2636 Schedule:Day:Interval,\n   ************* indicated Name=Sp-Corner_Class_1_Pod_3_ZN_1_FLR_1 Sys-3 Flr-1 Sch-D HPlcmt-south ZN NECB System 3 PSZ Occ Sch Friday\n   ************* Only last 1 lines before error line shown.....\n   *************   2637   Sp-Corner_Class_1_Pod_3_ZN_1_FLR_1 Sys-3 Flr-1 Sch-D HPlcmt-south ZN NECB System 3 PSZ Occ Sch Friday, !- Name\n   ** Warning ** IP: IDF line~2637 Alpha Argument length exceeds maximum, will be truncated=  Sp-Corner_Class_1_Pod_3_ZN_1_FLR_1 Sys-3 Flr-1 Sch-D HPlcmt-south ZN NECB System 3 PSZ Occ Sch Frida\n   **   ~~~   ** Will be processed as Alpha=SP-CORNER_CLASS_1_POD_3_ZN_1_FLR_1 SYS-3 FLR-1 SCH-D HPLCMT-SOUTH ZN NECB SYSTEM 3 PSZ OCC SCH FRIDAY\n   ************* IDF Context for following error/warning message:\n   ************* Note -- lines truncated at 300 characters, if necessary...\n   *************   2651 Schedule:Day:Interval,\n   ************* indicated Name=Sp-Corner_Class_1_Pod_3_ZN_1_FLR_1 Sys-3 Flr-1 Sch-D HPlcmt-south ZN NECB System 3 PSZ Occ Sch Saturday\n   ************* Only last 1 lines before error line shown.....\n   *************   2652   Sp-Corner_Class_1_Pod_3_ZN_1_FLR_1 Sys-3 Flr-1 Sch-D HPlcmt-south ZN NECB System 3 PSZ Occ Sch Saturday, !- Name\n   ** Warning ** IP: IDF line~2652 Alpha Argument length exceeds maximum, will be truncated=  Sp-Corner_Class_1_Pod_3_ZN_1_FLR_1 Sys-3 Flr-1 Sch-D HPlcmt-south ZN NECB System 3 PSZ Occ Sch Saturda\n   **   ~~~   ** Will be processed as Alpha=SP-CORNER_CLA
[...]
a9M1WfBr0fVh8GvQtWnwa9H2JfBr0LYt8GvTdjHwa9I2OfBo11Lnm9kg+jRrqXHNTJZ9GDSu5xlbpNErfUFLNVi1eYcIgQdsqNgm6M9gk6L5gk6BtFZsEbavYJGhbxSZB2yo2CXq6ZZPQ2Co+DXq65dOgp1s+DdpW8WnQtopPg7ZVfBq0reLToG0VnwZtq/g0aqhzja3i06ihzjW2ik+jhpVcY6t0GqUbwVezVYud4hkkaFvFJkF3BpsE3RdsErStYpOgbRWbBG2r2CRoW8UmQU+3bBIaW8WnQU+3fBr0dMunQdsqPg3aVvFp0LaKT4O2VXwatK3i06BtFZ9GDXWusVV8GjXUucZW8WnUsJJrbJVOo3S/3Wq2arEhL4MEbavYJOjOYJOg+4JNgrZVbBK0rWKToG0VmwRtq9gk6OmWTUJjq/g06OmWT4Oebvk0aFvFp0HbKj4N2lbxadC2ik+DtlV8GrSt4tOooc41topPo4Y619gqPo0aVnKNrdJplG5rWM1WLfY9ZJCgbRWbBN0ZbBJ0X7BJ0LaKTYK2VWwStK1ik6BtFZsEPd2ySWg3W+PS0O1WxaWh28iKS0O3xxWXhm77Ky4N3Z5vXBq67eC4NHQ7xXFp6DaR49Kooc61W89xadRQ59oN67g0aljJNbZqpfG9yg6vyx2dxZGI5P1qB9li49hGejduFjvAlm4Vu9oWOpXZ+3gW+Wmj224Kx+k2RUf95HarbTf7kGM87Xbt+30vk+M4mR8/BOliW+Wn66+w93Se4DzxZXIxU7scVz5RccxfcnySXjpL5AJDbdS8bPcN7/uNMMIII4wwwggjjDDCCCOMMMIII4wwwggjjDDCCCOMMMIII4wwwggjjDDCCCOMMMIII4wwwggjjDDCCCOMMMIII4wwwggjjPBfKjy34zuZJIEvP3nqwVrHbv+Pz6uqR2PTl4/GXsokkOny8VqruXqAeBrGmR0GkSx9RDZ97Tnd8idrU7t49fw0Dr0siKMcykozOW1dy1GcSKvak88f5VhG/ssLWnzW6LWboqOeXG6rB5nVP1YoR5kCK0m9SmsPxjI7jTLVPrnEaBYNC9LGtvijJMWKUD6dfVX6LLc6gpFoZJMgtdOiV6oJqePZSXbefqfecNL4D7BpthW+enQ8Z1/mHUzjNFAJT/KPq1zN6lBpXqFK4nszpBVWEPlS1UPLaRqevTpu1j1xFMhQjbfGsk0XdTJO4tlU+uLnn8Xflp8/2IOJly6ff1cFtv08On81mjeI7Y3HZ0rDDmU0zibinXDFP4V1HIaWOHz5jTQMhrLRcrav2t+3S+vtT1cSJ6Jxk19K+xdxk8ssh+pSV33293zGMe8gdahhvMx3dfPd/iHn4ujoaNF462Ussi67/cb0UlfHdSK9H+uc/Gh4jun3VXstr+5IDWs1GJYjpdjIwR54aRqMI+n31RYR6VXRkt/Xa8pVR09n6aSxbl/kXXq46M/1KykMD6tcpa2+ua5KmiXxD1lNZ/HddZXiqTcMsnk1qeWX176qQmIltW6W1UTyclpZpzyMJx91rMr55cQjWsIxzWZSbtVZH5vFqlrp+49lnkIdOzviy+9fxb/Pf78Ql+cXX3/7/Kv4eP7rb33x4fTitFqCs3zWlg+esmgii0UaJ5mIZrf5OBiKYkuTVHjpMDcvQTSukHHV9irPs5XZa4rr6pNLIrNZEompl6TyLIy9rOGpKX8778pnn10Xn1VqzHKL9kx2eQlliR83u9PLk/8syr0o9saWL0feLMzENInzOUxuNcXWT/v7/f7p6daGN54BDnCAAxzgAAc4wAEOcIADnL8mjkhnt/l/gYUv1YfC9+aKKJE+aEADGtCABjSgAQ1oQAMa0IBGT3Nf3Jr1XzTX4UwCBzjAAQ5wgAMc4AAHOMABDnDWwXl6b6Cj3ht4OaPeG9hxir+wHR/v7h4cgBSkIAUpSEEKUpCCFKQgBSlIQQrSt0HqFqReRpG2C9JOx3X3eyAFKUhBClKQghSkIAUpSEEKUpCC9G2QdhTpWRIQpO5BQeo4e3udDkhBClKQghSkIAUpSEEKUpCCFKQgfRuku4r062RGke4XpAf50X0PUpCCFKQgBSlIQQpSkIIUpCAFKUjfBmlXkf5L+hTpXkF6ctLv7+2BFKQgBSlIQQpSkIIUpCAFKUhBCtK3QdorfjMxkxRpryDt93s9kIIUpCAFKUhBClKQghSkIAUpSEH6Vkj3FOmnmNpZ0O0WpPv7rtvtghSkIAUpSEEKUpCCFKQgBSlIQQrS2khXKH7i3TdKkz3YWZCF8nLiTaWdyYessfUhniVpOcb8z2eeBLcySoM4CmVaZChJsbMjjn1feKLIJO6DbCLS+FYKv1NyZno3tr3pVEZ+w1La1nbJCavD9rIsaVgPVlP02oYnzfOT3Oonpdk8lAu8lhcNJ3GSn2+FcmRAu8wxiqOsdS+D8SRTOa7j0K+eY9E3l9PWp1mYDfphPkYHzuBL7A86g2+f8x/PPl4MHHE5T1sdcRYmrfzn4aR1Ij58CYe3WSuNZ3m/fPssPp/236uvZfJWdMSXy2/ifDhU393a1vX0u510mATT7B/kd97t+MHd62HyHDpZnksE/pE1VGXQz1vOCyKZDByna4miPY8sP0inoTc/DKIwj7Wuw3j44xeLBsyzLq5BZPNpfr5q0p0b785bfKo9Ux13XqKGrDgSfnA7DaUdyfvLu3HD+ukVyKbYbbeLf0prUOX1vczLE1/9YYXetQytQ8uXIy/vajFN4lEQSqu5iAwerEPHbjetOy+cyeXPQzVV5efks0+/f3pqPTYr5XGZ8nSY8uwy5eky5ekx5dljyrPPlOeAKY/T5krENaIdriHtcI1ph2tQO1yj2uEa1g7XuHa4BrbDNbJdrpHtss3VXCPb5RrZrtHIFuns9vbFu6srrWiJ9A3SkG1kloZsIbM0ZPuYpSHr3iwNWfVmaciaN0tDVrxZGrLezdLQC5lhHqZxTC9jhnmYRjK9iBnmYRrL9BJmmIdpNNMLmGEepvFML1+GebjmZabxTK9dhnmqj+f7IMrMl61r9VH1PGTzGOYhm8cwD9k8hnnIcjfMQ5a7YR6y3A3zkOVumIcsd8M89PplmohrRNMrmGkirjFNr2GmibhGNb2KmSbiGtf0OmaaiGtk0yuZaSK2uZprZNOLmWmi6iP76Y8ZpS8bppa59ov/6C3eRswg4W5eorN5id3NS3Q3L9HbvMTe5iX2Ny9xsHmJFyv7pjRqqG+nhgJ3aqhwp4YSd2qocaeGIndqqHKnhjJ3aqhzt4Y6d+tYx2uoc7eGOnfXq/PSdzpWs1WLlz4ySNC9wSZBdwabBN0XbBL0lMsmQc+4bBL0hMsmQc+3bBL0dMsmobFVfBo11LfGVvFp1FDhGlvFp1FDjWtsFZ9GDVWusVV8GjXUucZW8WnUsY7XUOcaW8WnsV6dl746q5qtWrxbi0GC7g02Cboz2CTovmCToKdcNgl6xmWToCdcNgl6vmWToKdbNgnNDYF8GvQdVXwa9M1WfBr0fVh8GvQtWnwa9H2JfBr0LYt8GvTdjHwa9I2OfBo11Lnm9kg+jRrqXHNTJZ9GDSu5xlbpNErfUFLNVi1eYcIgQdsqNgm6M9gk6L5gk6BtFZsEbavYJGhbxSZB2yo2CXq6ZZPQ2Co+DXq65dOgp1s+DdpW8WnQtopPg7ZVfBq0reLToG0VnwZtq/g0aqhzja3i06ihzjW2ik+jhpVcY6t0GqUbwVezVYud4hkkaFvFJkF3BpsE3RdsErStYpOgbRWbBG2r2CRoW8UmQU+3bBIaW8WnQU+3fBr0dMunQdsqPg3aVvFp0LaKT4O2VXwatK3i06BtFZ9GDXWusVV8GjXUucZW8WnUsJJrbJVOo3S/3Wq2arEhL4MEbavYJOjOYJOg+4JNgrZVbBK0rWKToG0VmwRtq9gk6OmWTUJjq/g06OmWT4Oebvk0aFvFp0HbKj4N2lbxadC2ik+DtlV8GrSt4tOooc41topPo4Y619gqPo0aVnKNrdJplG5rWM1WLfY9ZJCgbRWbBN0ZbBJ0X7BJ0LaKTYK2VWwStK1ik6BtFZsEPd2ySWg3W+PS0O1WxaWh28iKS0O3xxWXhm77Ky4N3Z5vXBq67eC4NHQ7xXFp6DaR49Kooc61W89xadRQ59oN67g0aljJNbZqpfG9yg6vyx2dxZGI5P1qB9li49hGejduFjvAlm4Vu9oWOpXZ+3gW+Wmj224Kx+k2RUf95HarbTf7kGM87Xbt+30vk+M4mR8/BOliW+Wn66+w93Se4DzxZXIxU7scVz5RccxfcnySXjpL5AJDbdS8bPcN7/uNMMIII4wwwggjjDDCCCOMMMIII4wwwggjjDDCCCOMMMIII4wwwggjjDDCCCOMMMIII4wwwggjjDDCCCOMMMIII4wwwggjjPBfKjy34zuZJIEvP3nqwVrHbv+Pz6uqR2PTl4/GXsokkOny8VqruXqAeBrGmR0GkSx9RDZ97Tnd8idrU7t49fw0Dr0siKMcykozOW1dy1GcSKvak88f5VhG/ssLWnzW6LWboqOeXG6rB5nVP1YoR5kCK0m9SmsPxjI7jTLVPrnEaBYNC9LGtvijJMWKUD6dfVX6LLc6gpFoZJMgtdOiV6oJqePZSXbefqfecNL4D7BpthW+enQ8Z1/mHUzjNFAJT/KPq1zN6lBpXqFK4nszpBVWEPlS1UPLaRqevTpu1j1xFMhQjbfGsk0XdTJO4tlU+uLnn8Xflp8/2IOJly6ff1cFtv08On81mjeI7Y3HZ0rDDmU0zibinXDFP4V1HIaWOHz5jTQMhrLRcrav2t+3S+vtT1cSJ6Jxk19K+xdxk8ssh+pSV33293zGMe8gdahhvMx3dfPd/iHn4ujoaNF462Ussi67/cb0UlfHdSK9H+uc/Gh4jun3VXstr+5IDWs1GJYjpdjIwR54aRqMI+n31RYR6VXRkt/Xa8pVR09n6aSxbl/kXXq46M/1KykMD6tcpa2+ua5KmiXxD1lNZ/HddZXiqTcMsnk1qeWX176qQmIltW6W1UTyclpZpzyMJx91rMr55cQjWsIxzWZSbtVZH5vFqlrp+49lnkIdOzviy+9fxb/Pf78Ql+cXX3/7/Kv4eP7rb33x4fTitFqCs3zWlg+esmgii0UaJ5mIZrf5OBiKYkuTVHjpMDcvQTSukHHV9irPs5XZa4rr6pNLIrNZEompl6TyLIy9rOGpKX8778pnn10Xn1VqzHKL9kx2eQlliR83u9PLk/8syr0o9saWL0feLMzENInzOUxuNcXWT/v7/f7p6daGN54BDnCAAxzgAAc4wAEOcIADnL8mjkhnt/l/gYUv1YfC9+aKKJE+aEADGtCABjSgAQ1oQAMa0IBGT3Nf3Jr1XzTX4UwCBzjAAQ5wgAMc4AAHOMABDnDWwXl6b6Cj3ht4OaPeG9hxir+wHR/v7h4cgBSkIAUpSEEKUpCCFKQgBSlIQQrSt0HqFqReRpG2C9JOx3X3eyAFKUhBClKQghSkIAUpSEEKUpCC9G2QdhTpWRIQpO5BQeo4e3udDkhBClKQghSkIAUpSEEKUpCCFKQgfRuku4r062RGke4XpAf50X0PUpCCFKQgBSlIQQpSkIIUpCAFKUjfBmlXkf5L+hTpXkF6ctLv7+2BFKQgBSlIQQpSkIIUpCAFKUhBCtK3QdorfjMxkxRpryDt93s9kIIUpCAFKUhBClKQghSkIAUpSEH6Vkj3FOmnmNpZ0O0WpPv7rtvtghSkIAUpSEEKUpCCFKQgBSlIQQrS2khXKH7i3TdKkz3YWZCF8nLiTaWdyYessfUhniVpOcb8z2eeBLcySoM4CmVaZChJsbMjjn1feKLIJO6DbCLS+FYKv1NyZno3tr3pVEZ+w1La1nbJCavD9rIsaVgPVlP02oYnzfOT3Oonpdk8lAu8lhcNJ3GSn2+FcmRAu8wxiqOsdS+D8SRTOa7j0K+eY9E3l9PWp1mYDfphPkYH7uBL7A+cwbfP+T9nHy8Gjricp62OOAuTVv7zcNI6ER++hMPbrBXFSd4v3z6Lz6f99+prmbwVHfHl8ps4Hw7Vd7e2dT39bicdJsE0+wf5nXc7fnD3epg8h06W5xKBf2QNVRn085bzgkgmA8fpWaJozyPLD9Jp6M0PgyjMY63rMB7++MWiAfOsi2sQ2Xyan6+adOfGu/MWn2rPVMedl6ghK46EH9xOQ2lH8v7ybtywfnoFsil22+3in9IaVHl9L/PyxFd/WKF3LUPr0PLlyMu7WkyTeBSE0mouIoMH69Cx203rzgtncvnzUE1V+Tn57NPvn55aj81KeVymPB2mPLtMebpMeXpMefaY8uwz5TlgyuO0uRJxjWiHa0g7XGPa4RrUDteodriGtcM1rh2uge1wjWyXa2S7bHM118h2uUa2azSyRTq7vX3x7upKK1oifYM0ZBuZpSFbyCwN2T5maci6N0tDVr1ZGrLmzdKQFW+Whqx3szT0QmaYh2kc08uYYR6mkUwvYoZ5mMYyvYQZ5mEazfQCZpiHaTzTy5dhHq55mWk802uXYZ7q4/k+iDLzZetafVQ9D9k8hnnI5jHMQzaPYR6y3A3zkOVumIcsd8M8ZLkb5iHL3TAPvX6ZJuIa0fQKZpqIa0zTa5hpIq5RTa9ipom4xjW9jpkm4hrZ9EpmmohtruYa2fRiZpqo+sh++mNG6cuGqWWu/eI/eou3ETNIuJuX6GxeYnfzEt3NS/Q2L7G3eYn9zUscbF7ixcq+KY0a6tupocCdGircqaHEnRpq3KmhyJ0aqtypocydGurcraHO3TrW8Rrq3K2hzt316rz0nY7VbNXipY8MEnRvsEnQncEmQfcFmwQ95bJJ0DMumwQ94bJJ0PMtmwQ93bJJaGwVn0YN9a2xVXwaNVS4xlbxadRQ4xpbxadRQ5VrbBWfRg11rrFVfBp1rOM11LnGVvFprFfnpa/OqmarFu/WYpCge4NNgu4MNgm6L9gk6CmXTYKecdkk6AmXTYKeb9kk6OmWTUJzQyCfBn1HFZ8GfbMVnwZ9HxafBn2LFp8GfV8inwZ9yyKfBn03I58GfaMjn0YNda65PZJPo4Y619xUyadRw0qusVU6jdI3lFSzVYtXmDBI0LaKTYLuDDYJui/YJGhbxSZB2yo2CdpWsUnQtopNgp5u2SQ0topPg55u+TTo6ZZPg7ZVfBq0reLToG0VnwZtq/g0aFvFp0HbKj6NGupcY6v4NGqoc42t4tOoYSXX2CqdRulG8NVs1WKneAYJ2laxSdCdwSZB9wWbBG2r2CRoW8UmQdsqNgnaVrFJ0NMtm4TGVvFp0NMtnwY93fJp0LaKT4O2VXwatK3i06BtFZ8Gbav4NGhbxadRQ51rbBWfRg11rrFVfBo1rOQaW6XTKN1vt5qtWmzIyyBB2yo2Cboz2CTovmCToG0VmwRtq9gkaFvFJkHbKjYJerplk9DYKj4Nerrl06CnWz4N2lbxadC2ik+DtlV8GrSt4tOgbRWfBm2r+DRqqHONreLTqKHONbaKT6OGlVxjq3QapdsaVrNVi30PGSRoW8UmQXcGmwTdF2wStK1ik6BtFZsEbavYJGhbxSZBT7dsEtrN1rg0dLtVcWnoNrLi0tDtccWlodv+iktDt+cbl4ZuOzguDd1OcVwauk3kuDRqqHPt1nNcGjXUuXbDOi6NGlZyja1aaXyvssPrckdncSQieb/aQbbYOLaR3o2bxQ6wpVvFrraFTmX2Pp5FftrotpvCcbpN0VE/ud1q280+5BhPu137ft/L5DhO5scPQbrYVvnp+ivsPZ0nOE98mVzM1C7HlU9UHPOXHJ+kl84SucBQGzUv233D+34jjDDCCCOMMMIII4wwwggjjDDCCCOMMMIII4wwwggjjDDCCCOMMMIII4wwwggjjDDCCCOMMMIII4wwwggjjDDCCCOMMMIII/yXCs/t+E4mSeDLT556sNax2//j86rq0dj05aOxlzIJZLp8vNZqrh4gnoZxZodBJEsfkU1fe063/Mna1C5ePT+NQy8L4iiHstJMTlvXchQn0qr25PNHOZaR//KCFp81eu2m6Kgnl9vqQWb1jxXKUabASlKv0tqDscxOo0y1Ty4xmkXDgrSxLf4oSbEilE9nX5U+y62OYCQa2SRI7bTolWpC6nh2kp2336k3nDT+A2yabYWvHh3P2Zd5B9M4DVTCk/zjKlezOlSaV6iS+N4MaYUVRL5U9dBymoZnr46bdU8cBTJU462xbNNFnYyTeDaVvvj5Z/G35ecP9mDipcvn31WBbT+Pzl+N5g1ie+PxmdKwQxmNs4l4J1zxT2Edh6ElDl9+Iw2DoWy0nO2r9vft0nr705XEiWjc5JfS/kXc5DLLobrUVZ/9PZ9xzDtIHWoYL/Nd3Xy3f8i5ODo6WjTeehmLrMtuvzG91NVxnUjvxzonPxqeY/p91V7LqztSw1oNhuVIKTZysAdemgbjSPp9tUVEelW05Pf1mnLV0dNZOmms2xd5lx4u+nP9SgrDwypXaatvrquSZkn8Q1bTWXx3XaV46g2DbF5Navnlta+qkFhJrZtlNZG8nFbWKQ/jyUcdq3J+OfGIlnBMs5mUW3XWx2axqlb6/mOZp1DHzo748vtX8e/z3y/E5fnF198+/yo+nv/6W198OL04rZbgLJ+15YOnLJrIYpHGSSai2W0+Doai2NIkFV46zM1LEI0rZFy1vcrzbGX2muK6+uSSyGyWRGLqJak8C2Mva3hqyt/Ou/LZZ9fFZ5Uas9yiPZNdXkJZ4sfN7vTy5D+Lci+KvbHly5E3CzMxTeJ8DpNbTbH10/5+v396urXhjWeAAxzgAAc4wAEOcIADHOAA56+JI9LZbf5fYOFL9aHwvbkiSqQPGtCABjSgAQ1oQAMa0IAGNKDR09wXt2b9F811OJPAAQ5wgAMc4AAHOMABDnCAA5x1cJ7eG+io9wZezqj3Bnac4i9sx8e7uwcHIAUpSEEKUpCCFKQgBSlIQQpSkIL0bZC6BamXUaTtgrTTcd39HkhBClKQghSkIAUpSEEKUpCCFKQgfRukHUV6lgQEqXtQkDrO3l6nA1KQghSkIAUpSEEKUpCCFKQgBSlI3wbpriL9OplRpPsF6UF+dN+DFKQgBSlIQQpSkIIUpCAFKUhBCtK3QdpVpP+SPkW6V5CenPT7e3sgBSlIQQpSkIIUpCAFKUhBClKQgvRtkPaK30zMJEXaK0j7/V4PpCAFKUhBClKQghSkIAUpSEEKUpC+FdI9RfoppnYWdLsF6f6+63a7IAUpSEEKUpCCFKQgBSlIQQpSkIK0NtIVip94943SZA92FmShvJx4U2ln8iFrbH2IZ0lajjH/85knwa2M0iCOQpkWGUpS7OyIY98Xnigyifsgm4g0vpX/39759rZtZG/7/fMpZlmgkbGSLFL+37iLRLGbAkkc2CkWGyMQKHEk0aFIgaRsC4W/+49DUV6r9SE50iG77nPzhePoiPd9cWbOzElEjoTTLTgzuh237dlM+k7DUN7GTsEJq6Ntx3HYMO6NpjjoaJ60SE6yyp8UxQtPLvFatj+cBGFyvuHJkQZtpjEK/Lh1J93xJFYag8Bzymss++Zq1vo49+J+z0vGaN/qfw6c5OfXT32zf/7hsm+Kq0XU6opzL2wlvw8nrXfi/WdvOI1bfhAm/fL1k/h01nur3hbLqeiKz1dfxcVwqN77aievp1/vRsPQncU/k+95veu4t8+HyXNosURLuM6pMVRp0EtaznZ9GfZN89AQaXueGo4bzTx7ceL6XhJrDbxg+P0ngwZMVJfXIOLFLDlfNenujX1rL1/NPVMdt3aohqw4FY47nXmy7cu7q9txw/jhGcim2Ot00h+FOah0HTu2E+Hr3w3PHkjPODEcObKTrhazMBi5njSay0j/3jgx252mcWt7c5n9PlRTVXJOMvv0emdnxkOzlI7FpNNl0tlj0tln0jlg0jlk0jli0jlm0jE7XEJcI9rkGtIm15g2uQa1yTWqTa5hbXKNa5NrYJtcI9viGtkW21zNNbItrpFtaY1sEc2n07Xvri61ooXS0ZAh20hPhmwhPRmyffRkyLzXkyGzXk+GzHk9GTLj9WTIfNeToRcyTR2mcUwvY5o6TCOZXsQ0dZjGMr2EaeowjWZ6AdPUYRrP9PKlqcM1LzONZ3rt0tQpP57vXD/WX7YG6qXyOmTzaOqQzaOpQzaPpg6Z7po6ZLpr6pDprqlDprumDpnumjr0+qUrxDWi6RVMV4hrTNNrmK4Q16imVzFdIa5xTa9jukJcI5teyXSF2OZqrpFNL2a6QuVH9uOHGYVfNkwtc521f+gtv42YwcKq3qJbvcVe9Rb71VscVG9xWL3FUfUWx9VbrK3sVXnUkN9mDQlu1pDhZg0pbtaQ42YNSW7WkOVmDWlu1pDnVg15btWxjteQ51YNeW5tlueF3+lYrqxafukjgwXdG2wWdGewWdB9wWZBT7lsFvSMy2ZBT7hsFvR8y2ZBT7dsFjllFZ9HDfmdU1bxedSQ4TllFZ9HDTmeU1bxedSQ5TllFZ9HDXmeU1bxedSxjteQ5zllFZ/HZnle+NVZ5cqq5XdrMVjQvcFmQXcGmwXdF2wW9JTLZkHPuGwW9ITLZkHPt2wW9HTLZpFzQyCfB31HFZ8HfbMVnwd9HxafB32LFp8HfV8inwd9yyKfB303I58HfaMjn0cNeZ5zeySfRw15nnNTJZ9HDSt5TlmV51H4DSXlyqrlV5gwWNBlFZsF3RlsFnRfsFnQZRWbBV1WsVnQZRWbBV1WsVnQ0y2bRU5ZxedBT7d8HvR0y+dBl1V8HnRZxedBl1V8HnRZxedBl1V8HnRZxedRQ57nlFV8HjXkeU5ZxedRw0qeU1bleRRuBF+urFruFM9gQZdVbBZ0Z7BZ0H3BZkGXVWwWdFnFZkGXVWwWdFnFZkFPt2wWOWUVnwc93fJ50NMtnwddVvF50GUVnwddVvF50GUVnwddVvF50GUVn0cNeZ5TVvF51JDnOWUVn0cNK3lOWZXnUbjfbrmyarkhL4MFXVaxWdCdwWZB9wWbBV1WsVnQZRWbBV1WsVnQZRWbBT3dslnklFV8HvR0y+dBT7d8HnRZxedBl1V8HnRZxedBl1V8HnRZxedBl1V8HjXkeU5ZxedRQ57nlFV8HjWs5DllVZ5H4baG5cqq5b6HDBZ0WcVmQXcGmwXdF2wWdFnFZkGXVWwWdFnFZkGXVWwW9HTLZpG72RqXR95uVVweeRtZcXnk7XHF5ZG3/RWXR96eb1weedvBcXnk7RTH5ZG3iRyXRw15nrv1HJdHDXmeu2Edl0cNK3lOWbXy+FZmh9dsR2dxKnx5t9pBNt04thHdjpvpDrCFW8WutoWOZPw2mPtO1NjvNIVp7jdFV/1m7ZfbbvY+wXjc7dpxenYsx0G4eHPvRsttlR+vv8Te04nARejI8HKudjkufaLiWKxzfJR2NA/lEkNt1Jy1e8X7fiOMMMIII4wwwggjjDDCCCOMMMIII4wwwggjjDDCCCOMMMIII4wwwggjjDDCCCOMMMIII4wwwggjjDDCCCOMMMIII4wwwggj/LcKL9rBrQxD15EfbfVgrdnubPm8qno0Nlp/NPZKhq6MssdrjebqAeKZF8Rtz/Vl4SOy0XPP6RY/WRu106+enwWeHbuBn0AZUSxnrYEcBaE0yj35/EGOpe+sX9DytcZBpym66snljnqQWf0wPDmKFViB9Eq23R/L+MyPVfskFqO5P0xJGzvi9wKJFaF8PPu68Fludbgj0YgnbtSO0l4pZ6SOJye1k/Y7s4eTxn+BddVW+OrR8YQ90+3PgshVgu+Sl8tczepQMs9QhcGdHtIKy/UdqfKhZTY1z14dN5ueOHKlp8ZbI2vTZZ6Mw2A+k4748Ufxj+z1+3Z/YkfZ8+8qwXaeRhfPRpMGadvj8bnyaHvSH8cT8VpY4l/CeON5hjhZf0fkuUPZaJk7151vO4X59qcrCULRuEkupfOTuElssqGa+arX/pnMOPodpA41jDO965tv7e9yIU5PT5eNt5liqpp1+43upa6OQSjt75uc/KB5ju77VXtlV3eqhrUaDNlISTdyaPftKHLHvnR6aouI6DptyW+bNeWqo2fzaNLYtC+SLj1Z9ufmmeR5J2Wusq3eualLFIfBd1nOZ/neTZ2CmT1040U5q+zNG19VarGy2lRlNZGsTyubpIf25KOOVTqvTzyiJUxdNZ10K8/60ExX1VLvfyiqKdSxuys+//ZF/Ofit0txdXH55ddPv4gPF7/82hPvzy7PygmcJ7O2vLdViSbiQERBGAt/Pk3GwVCkW5pEwo6GSfHi+uMSiqu2VzpPVma7KQblJ5dQxvPQFzM7jOS5F9hxw1ZT/k7SlU9eG6SvlWrM4hLtiW12CUXCD9Xu9PJYf6bpniZ745UjR/bci8UsDJI5TL5qilc/HB31emdnryreeAY4wAEOcIADHOAABzjAAQ5w/p44IppPk38CC0eqF4VjLxRRKB3QgAY0oAENaEADGtCABjSgAU0+zV16a9YfaAbeXAIHOMABDnCAAxzgAAc4wAEOcDbBefzeQFN9b+DVnPrewK6ZfsL25s3e3vExSEEKUpCCFKQgBSlIQQpSkIIUpCB9GaRWSmrHFGknJe12LevoAKQgBSlIQQpSkIIUpCAFKUhBClKQvgzSriI9D12C1DpOSU3z8LDbBSlIQQpSkIIUpCAFKUhBClKQghSkL4N0T5F+mcwp0qOU9Dg59t+CFKQgBSlIQQpSkIIUpCAFKUhBCtKXQbqvSP8tHYr0MCV9967XOzwEKUhBClKQghSkIAUpSEEKUpCCFKQvg/Qg/Z+JuaRID1LSXu/gAKQgBSlIQQpSkIIUpCAFKUhBClKQvhTSQ0X6MaB2FrT2U9KjI8va3wcpSEEKUpCCFKQgBSlIQQpSkIIUpLWRrlCc0L5rFIrdt2M39uTVxJ7Jdizv48ar98E8jIoxFn8+8507lX7kBr4no1ShQGJ3V7xxHGGLVEncufFERMFUCqdbcGZ0O27bs5n0nYahvI2dghNWR9uO47Bh3BtNcdDRPGmRnGSVPymKF55c4rVsfzgJwuR8w5MjDdpMYxT4cetOuuNJrDQGgeeU11j2zdWs9XHuxf2el4zRvtX/HDj9bv/rp77ZP/9w2TfF1SJqdcW5F7aS34eT1jvx/rM3nMYtPwiTfvn6SXw6671Vb4vlVHTF56uv4mI4VO99tZPX0693o2HozuKfyfe83nXc2+fD5Dm0WKIlXOfUGKo06CUtZ7u+DPumeWSItD1PDceNZp69OHF9L4m1Bl4w/P6TQQMmqstrEPFilpyvmnT3xr61l6/mnqmOWztUQ1acCsedzjzZ9uXd1e24YfzwDGRT7HU66Y/CHFS6jh3bifD174ZnD6RnnBiOHNlJV4tZGIxcTxrNZaR/b5yY7U7TuLW9ucx+H6qpKjknmX16vbMz46FZSsdi0uky6ewx6ewz6Rww6Rwy6Rwx6Rwz6ZgdLiGuEW1yDWmTa0ybXIPa5BrVJtewNrnGtck1sE2ukW1xjWyLba7mGtkW18i2tEa2iObT6dp3V5da0ULpaMiQbaQnQ7aQngzZPnoyZN7ryZBZrydD5ryeDJnxejJkvuvJ0AuZpg7TOKaXMU0dppFML2KaOkxjmV7CNHWYRjO9gGnqMI1nevnS1OGal5nGM712aeqUH893rh/rL1sD9VJ5HbJ5NHXI5tHUIZtHU4dMd00dMt01dch019Qh011Th0x3TR16/dIV4hrR9AqmK8Q1puk1TFeIa1TTq5iuENe4ptcxXSGukU2vZLpCbHM118imFzNdofIj+/HDjMIvG6aWuc7aP/SW30bMYGFVb9Gt3mKveov96i0Oqrc4rN7iqHqL4+ot1lb2qjxqyG+zhgQ3a8hws4YUN2vIcbOGJDdryHKzhjQ3a8hzq4Y8t+pYx2vIc6uGPLc2y/PC73QsV1Ytv/SRwYLuDTYLujPYLOi+YLOgp1w2C3rGZbOgJ1w2C3q+ZbOgp1s2i5yyis+jhvzOKav4PGrI8Jyyis+jhhzPKav4PGrI8pyyis+jhjzPKav4POpYx2vI85yyis9jszwv/OqscmXV8ru1GCzo3mCzoDuDzYLuCzYLespls6BnXDYLesJls6DnWzYL+t4oNoucGwL5POg7qvg86Jut+Dzo+7D4POhbtPg86PsS+TzoWxb5POi7Gfk86Bsd+TxqyPOcsorPo451vIaFPKes4vPYbCkv/IaScmXV8itMGCzo3mCzoDuDzYLuCzYLuqxis6DLKjYLuqxis6DLKjYLerpls8gpq/g86LKKz4Muq/g86LKKz4Muq/g86LKKz4Muq/g86LKKz4Muq/g8asjznLKKz6OOdbyGhTynrOLz2GwpL9wIvlxZtdwpnsGC7g02C7oz2CzovmCzoMsqNgu6rGKzoMsqNgu6rGKzoKdbNoucsorPgy6r+DzosorPgy6r+DzosorPgy6r+DzosorPgy6r+DzosorPo4Y8zymr+DzqWMdrWMhzyio+j82W8sL9dsuVVcsNeRks6N5gs6A7g82C7gs2C7qsYrOgyyo2C7qsYrOgyyo2C3q6ZbPIKav4POiyis+DLqv4POiyis+DLqv4POiyis+DLqv4POiyis+DLqv4PGrI85yyis+jjnW8hoU8p6zi89hsKS/c1rBcWbXc95DBgu4NNgu6M9gs6L5gs6DLKjYLuqxis6DLKjYLuqxis8jbd4rJInezNS6PvN2quDzyNrLi8sjb44rLI2/7Ky6PvD3fuDzytoPj8sjbKY7LI28TOS6PGvI8p6zi86hjHa9hIc8pq/g8ipfyb2V2eM12dBanwpd3qx1k041jG9HtuJnuAFu4VexqW+hIxm+Due9Ejf1OU5jmflN01W/WfrntZu8TjMfdrh2nZ8dyHISLN/dutNxW+fH6S+w9nQhchI4ML+dql+PSJyqOxTrHR2lH81AuMdRGzVm7V7zvN8III4wwwggjjDDCCCOMMMIII4wwwggjjDDCCCOMMMIII4wwwggjjDDCCCOMMMIII4wwwggjjDDCCCOMMMIII4wwwggjjDDCf6vwoh3cyjB0HfnRVg/Wmu3Ols+rqkdjo/VHY69k6Mooe7zWaK4eIJ55Qdz2XF8WPiIbPfecbvGTtVE7/er5WeDZsRv4CZQRxXLWGshREEqj3JPPH+RY+s76BS1faxx0mqKrnlzuqAeZ1Q/Dk6NYgRVIr2Tb/bGMz/xYtU9iMZr7w5S0sSN+L5BYEcrHs68Ln+VWhzsSjXjiRu0o7ZVyRup4clI7ab8zezhp/BdYV22Frx4dT9gz3f4siFwl+C55uczVrA4l8wxVGNzpIa2wXN+RKh9aZlPz7NVxs+mJI1d6arw1sjZd5sk4DOYz6YgffxT/yF6/b/cndpQ9/64SbOdpdPFsNGmQtj0enyuPtif9cTwRr4Ul/iWMN55niJP1d0SeO5SNlrlz3fm2U5hvf7qSIBSNm+RSOj+Jm8QmG6qZr3rtn8mMo99B6lDDONO7vvnW/i4X4vT0dNl4mymmqlm33+he6uoYhNL+vsnJD5rn6L5ftVd2dadqWKvBkI2UdCOHdt+OInfsS6entoiIrtOW/LZZU646ejaPJo1N+yLp0pNlf26eSZ53UuYq2+qdm7pEcRh8l+V8lu/d1CmY2UM3XpSzyt688VWlFiurTVVWE8n6tLJJemhPPupYpfP6xCNawtRV00m38qwPzXRVLfX+h6KaQh27u+Lzb1/Efy5+uxRXF5dffv30i/hw8cuvPfH+7PKsnMB5MmvLe1uVaCIORBSEsfDn02QcDEW6pUkk7GiYFC+uPy6huGp7pfNkZbabYlB+cgllPA99MbPDSJ57gR03bDXl7yRd+eS1QfpaqcYsLtGe2GaXUCT8UO1OL4/1Z5ruabI3XjlyZM+9WMzCIJnD5KumePXD0VGvd3b2quKNZ4ADHOAABzjAAQ5wgAMc4ADn74kjovk0+SewcKR6UTj2QhGF0gENaEADGtCABjSgAQ1oQAMa0OTT3KW3Zv2BZuDNJXCAAxzgAAc4wAEOcIADHOAAZxOcx+8NNNX3Bl7Nqe8N7JrpJ2xv3uztHR+DFKQgBSlIQQpSkIIUpCAFKUhBCtKXQWqlpHZMkXZS0m7Xso4OQApSkIIUpCAFKUhBClKQghSkIAXpyyDtKtLz0CVIreOU1DQPD7tdkIIUpCAFKUhBClKQghSkIAUpSEH6Mkj3FOmXyZwiPUpJj5Nj/y1IQQpSkIIUpCAFKUhBClKQghSkIH0ZpPuK9N/SoUgPU9J373q9w0OQghSkIAUpSEEKUpCCFKQgBSlIQfoySA/S/5mYS4r0ICXt9Q4OQApSkIIUpCAFKUhBClKQghSkIAXpSyE9VKQfA2pnQWs/JT06sqz9fZCCFKQgBSlIQQpSkIIUpCAFKUhBWhvpCsUJ7btGodh9O3ZjT15N7Jlsx/I+brx6H8zDqBhj8ecz37lT6Udu4HsyShUKJHZ3xRvHEbZIlcSdG09EFEylcLoFZ0a347Y9m0nfaRjK29gpOGF1tO04DhvGvdEUBx3NkxbJSVb5k6J44cklXsv2h5MgTM43PDnSoM00RoEft+6kO57ESmMQeE55jWXfXM1aF6ORO5RR/+unvtk//3DZN8XVImp1xbkXtpLfh5PWG/H+szecxi1pR7H4+kl8Ouu9Ve+K5VR0xeerr+JiOFRvfbWT17uvd6Nh6M7in8n3vN513Nvnw+Q5tFiiJVzn1Biqod9LWst2fRn2TfPYEGkbnhqOG808e3Hi+l4Saw28YPj9J4MGTFSX1yDixSw5XzXj7o19ay9fzT1THbd2qIapOBWOO515su3Lu6vbccP44RnIptjrdNIfhXmndB07thPh698Nzx5IzzgxHDmy514sZmEwcj1pNJeR/r1xYrY7TePW9ubSODk4bh8/OY6Om8ZQTVaJQjL/9HpnZ8ZDs5SqVYlqtxLVvUpU9ytRPahE9bAS1aNKVI8rUTU71chWk11mNellVpNfZjUJZlaTYWY1KWZWk2NmNUlmVpNlVjVZZlW0hlWTZVY1WWZtkWUimk+na9//vUGFEEpHQ7Rk2+qJlmxZPdGS7aonWnLu0hMtOXPpiZact/RES85aeqIl5yw90bKFgaZqJTlVtizQVK0kq8oWBZqqleRV2ZJAU7WSzCpbEGiqVpJbZcsBTdVq1qtKcqtsLaCpumlu3bl+vG0ZMFBvKK9aslk1VUs2q6ZqyWbVVC05ZWmqlpyyNFVLTlmaqiWnLE3VklOWpmrZekBXtprsKlsR6MpWk19lawJd2WoyrGxVoCtbTY6VrQt0ZavJsrKVga5sRWtYNVlWtjjQldXKsm9lPnDIPlQUp8KXd6sPNNLPMRrR7biZfiBR+MnF6pPJSMZvg7nvRI39TlOY5n5TdNVv1n65Tz/uE4zHD1wdp2fHchyEizf3brT8ZO+xKUp8/JkIXISODC/n6oO20icqjsU6x0dpR/NQLjHUZ4VZF2z7gW76QdK61ZUMXRlluIlT1iEzL4jb6tOtQsvouesuJo3a6bibBZ4du4GfQBlRLGetgRwFoTTKjaQPcix9Z/2Clq81DpJR0FUjQX0YZqof2eelhR8lr2Tb/bGMz/xYtU9iMZr7w5S0sSN+L/GBqSKUj2dfF+aGOtyRaMQTN0rGtTqvnJE6npzUTtrvzB5OGv8F1lVb4WefDWa6/VkQuUrwXfJymatZHUrmGaowuNNDWmG5viNV4rbMpubZq+Nm0xNHrvTUeGtkbbrMk3EYzGfSET/+KP6RvX7f7k/sKJtPVILtPI0uno0mDdK2x+Nz5dH2pD+OJ+K1sMS/hPHG8wxxsv6OyHOHstEyd64733YK8+1PVxKEonGTXErnJ3GT2GRDNfNVr/3zVJj6HaQONYwzveubb+3vMpneTk+XjbeZYqqadfuN7qWujkEo7e+bnPygeY7u+1V7ZVd3qoa1GgzZSEkXxnZ/eTOQdNLbgaLrtCW/bdaUq46ezaNJY9O+SLr0ZNmfm2eS552Uucq2euemLlEcBt9lOZ/lezd1Cmb20I0X5ayyN298VanFympTldVEsj6tbJIe2pOPOlbpvD7xiJYwddV00q0860MzXVVLvf+hqKZQx+6u+PzbF/Gfi98uxdXF5ZdfP/0iPlz88mtPvD+7PCsncJ7M2vLeViWaiAMRBUkh7c+nyTgYirREjIQdDZPixfXHJRRXba90nqzMdlMMyk8uoYznoS9mdhjJcy+w44atpvydpCufvDZIXyvVmMUl2hPb7BKKhB/+gps2//ABbHZnpvpA9S+5hxQ4wAEOcIADHOAABzjAAQ5wXjzOn29wUUShdEADGtCABjSgAQ1oQAMa0IAGNPk0f7olUNGoW/yAAxzgAAc4wAEOcIADHOAABzh/4VaJX+R0JkM7nodSNM53sFni/9Rmif+21Yh7L9M/3kwHrvRjobpM7XwonXnS/i1x2Dl/GZsgWp0XsAliAlnXJojpo6ebbsLEpNNl0tlj0tln0jlg0jlk0jli0jlm0lnbXWArIa4RbXINaZNrTJtcg9rkGtUm17A2uca1yTWwTa6RbXGNbIttruYa2RbXyLa0Rnb5TfvWpDbfpm8LGbKFNt+KbwsZMu83325vCxky5zffUm8LGTLft9g2bxsdpnFML2NbbIa3jQ7TUKbXsC22uNtGh2k00wvYFhvXbTMPMo1nevXaYju6bXSYxjO9dG2+ydyazBbbym2jQzbPFlvHbaNDpvsW28Nto0Om+xZbwG2jQ6b7Ntu8bSXENaLpFWybzdu2EuIa1PQits2WbFsJcY1reh3bZqO1rWZGrpFNL2XbbJ+2lRDXyKZXM2yK9iI2RUMYYYQRRhhhhBFGGGGEEUYYYYQRRvh/KbxoB7cyDF1HfrTVf1SZ7Q42xX9yJdgU//HApvhaBzbFx6b4Ggc2xf/jgU3x/3hgU3zNA5viY1P8Zw9sig8c4AAHOMABDnCAAxzgAAc4wHkJW0qCBjSgAQ1oQAMa0IAGNKABzcuh+f9mK0vgAAc4wAEOcIADHOAABzjA2dzvL9gU/507lX7kBr4nowhb4v9vbYkfhN/F2WjkDl3pDxePG+HXuwV+9u4/RJ7+ffX78s9H9eyXxz8GgbNQf07iqffz//s/QWwlNg=="
               },
               {
                  "name" : "annual_peak_electric_demand",
                  "units" : "kW",
                  "value" : 231.04001000000002
               },
               {
                  "name" : "first_year_capital_cost",
                  "units" : "$",
                  "value" : 0
               },
               {
                  "name" : "annual_utility_cost",
                  "units" : "$",
                  "value" : 0
               },
               {
                  "name" : "total_lifecycle_cost",
                  "units" : "$",
                  "value" : 0
               }
            ],
            "step_warnings" : []
         }
      }
   ],
   "updated_at" : "20170710T183208Z",
   "weather_file" : "USA_CO_Denver.Intl.AP.725650_TMY3.epw"
}
