{
   "completed_at" : "20170710T183946Z",
   "completed_status" : "Success",
   "created_at" : "2017-07-10 18:23:46 +0000",
   "current_step" : 5,
   "description" : "",
   "eplusout_err" : "Program Version,EnergyPlus, Version 8.7.0-78a111df4a, YMD=2017.07.10 18:28,IDD_Version 8.7.0\n   ************* IDF Context for following error/warning message:\n   ************* Note -- lines truncated at 300 characters, if necessary...\n   *************      5 Building,\n   ************* indicated Name=NECB 2011-HighriseApartment-NECB HDD Method-CAN_PQ_Mont.Joli.717180_CWEC.epw created: 2017-07-10 18:24:05 +0000\n   ************* Only last 1 lines before error line shown.....\n   *************      6   NECB 2011-HighriseApartment-NECB HDD Method-CAN_PQ_Mont.Joli.717180_CWEC.epw created: 2017-07-10 18:24:05 +0000, !- Name\n   ** Warning ** IP: IDF line~6 Alpha Argument length exceeds maximum, will be truncated=  NECB 2011-HighriseApartment-NECB HDD Method-CAN_PQ_Mont.Joli.717180_CWEC.epw created: 2017-07-10 18:24:05 +000\n   **   ~~~   ** Will be processed as Alpha=NECB 2011-HIGHRISEAPARTMENT-NECB HDD METHOD-CAN_PQ_MONT.JOLI.717180_CWEC.EPW CREATED: 2017-07-10 18:24:05 +0000\n   ************* Beginning Zone Sizing Calculations\n   ** Warning ** ProcessScheduleInput: Schedule:Day:Interval=\"ECONOMIZER MAX OA FRACTION 100 PCT DEFAULT\", Blank Schedule Type Limits Name input -- will not be validated.\n   ** Warning ** ProcessScheduleInput: Schedule:Day:Interval=\"SCHEDULE DAY 1\", Blank Schedule Type Limits Name input -- will not be validated.\n   ** Warning ** ProcessScheduleInput: Schedule:Day:Interval=\"SCHEDULE DAY 10\", Blank Schedule Type Limits Name input -- will not be validated.\n   ** Warning ** ProcessScheduleInput: Schedule:Day:Interval=\"SCHEDULE DAY 100\", Blank Schedule Type Limits Name input -- will not be validated.\n   ** Warning ** ProcessScheduleInput: Schedule:Day:Interval=\"SCHEDULE DAY 101\", Blank Schedule Type Limits Name input -- will not be validated.\n   ** Warning ** ProcessScheduleInput: Schedule:Day:Interval=\"SCHEDULE DAY 102\", Blank Schedule Type Limits Name input -- will not be validated.\n   ** Warning ** ProcessScheduleInput: Schedule:Day:Interval=\"SCHEDULE DAY 103\", Blank Schedule Type Limits Name input -- will not be validated.\n   ** Warning ** ProcessScheduleInput: Schedule:Day:Interval=\"SCHEDULE DAY 104\", Blank Schedule Type Limits Name input -- will not be validated.\n   ** Warning ** ProcessScheduleInput: Schedule:Day:Interval=\"SCHEDULE DAY 105\", Blank Schedule Type Limits Name input -- will not be validated.\n   ** Warning ** ProcessScheduleInput: Schedule:Day:Interval=\"SCHEDULE DAY 106\", Blank Schedule Type Limits Name input -- will not be validated.\n   ** Warning ** ProcessScheduleInput: Schedule:Day:Interval=\"SCHEDULE DAY 107\", Blank Schedule Type Limits Name input -- will not be validated.\n   ** Warning ** ProcessScheduleInput: Schedule:Day:Interval=\"SCHEDULE DAY 108\", Blank Schedule Type Limits Name input -- will not be validated.\n   ** Warning ** ProcessScheduleInput: Schedule:Day:Interval=\"SCHEDULE DAY 109\", Blank Schedule Type Limits Name input -- will not be validated.\n   ** Warning ** ProcessScheduleInput: Schedule:Day:Interval=\"SCHEDULE DAY 11\", Blank Schedule Type Limits Name input -- will not be validated.\n   ** Warning ** ProcessScheduleInput: Schedule:Day:Interval=\"SCHEDULE DAY 110\", Blank Schedule Type Limits Name input -- will not be validated.\n   ** Warning ** ProcessScheduleInput: Schedule:Day:Interval=\"SCHEDULE DAY 111\", Blank Schedule Type Limits Name input -- will not be validated.\n   ** Warning ** ProcessScheduleInput: Schedule:Day:Interval=\"SCHEDULE DAY 112\", Blank Schedule Type Limits Name input -- will not be validated.\n   ** Warning ** ProcessScheduleInput: Schedule:Day:Interval=\"SCHEDULE DAY 113\", Blank Schedule Type Limits Name input -- will not be validated.\n   ** Warning ** ProcessScheduleInput: Schedule:Day:Interval=\"SCHEDULE DAY 114\", Blank Schedule Type Limits Name input -- will not be validated.\n   ** Warning ** ProcessScheduleInput: Schedule:Day:Interval=\"SCHEDULE DAY 115\", Blank Schedule Type Limits Name input -- will not be validated.\n   ** Warning ** ProcessScheduleInput: Schedule:Day:Interval=\"SCHEDULE DAY 116\", Blank Schedule Type Limits Name input -- will not be validated.\n   ** Warning ** ProcessScheduleInput: Schedule:Day:Interval=\"SCHEDULE DAY 117\", Blank Schedule Type Limits Name input -- will not be validated.\n   ** Warning ** ProcessScheduleInput: Schedule:Day:Interval=\"SCHEDULE DAY 118\", Blank Schedule Type Limits Name input -- will not be validated.\n   ** Warning ** ProcessScheduleInput: Schedule:Day:Interval=\"SCHEDULE DAY 119\", Blank Schedule Type Limits Name input -- will not be validated.\n   ** Warning ** ProcessScheduleInput: Schedule:Day:Interval=\"SCHEDULE DAY 12\", Blank Schedule Type Limits Name input -- will not be validated.\n   ** Warning ** ProcessScheduleInput: Schedule:Day:Interval=\"SCHEDULE DAY 120\", Blank Schedule Type Limits Name input -- will not be validated.\n   ** Warning ** ProcessScheduleInput: Schedule:Day:Interval=\"SCHEDULE DAY 121\", Blank Schedule Type Limits Name input -- will not be validated.\n   ** Warning ** ProcessScheduleInput: Schedule:Day:Interval=\"SCHEDULE DAY 122\", Blank Schedule Type Limits Name input -- will not be validated.\n   ** Warning ** ProcessScheduleInput: Schedule:Day:Interval=\"SCHEDULE DAY 123\", Blank Schedule Type Limits Name input -- will not be validated.\n   ** Warning ** ProcessScheduleInput: Schedule:Day:Interval=\"SCHEDULE DAY 124\", Blank Schedule Type Limits Name input -- will not be validated.\n   ** Warning ** ProcessScheduleInput: Schedule:Day:Interval=\"SCHEDULE DAY 125\", Blank Schedule Type Limits Name input -- will not be validated.\n   ** Warning ** ProcessScheduleInput: Schedule:Day:Interval=\"SCHEDULE DAY 126\", Blank Schedule Type Limits Name input -- will not be validated.\n   ** Warning ** ProcessScheduleInput: Schedule:Day:Interval=\"SCHEDULE DAY 127\", Blank Schedule Type Limits Name input -- will not be validated.\n   ** Warning ** ProcessScheduleInput: Schedule:Day:Interval=\"SCHEDULE DAY 128\", Blank Schedule Type Limits Name input -- will not be validated.\n   ** Warning ** ProcessScheduleInput: Schedule:Day:Interval=\"SCHEDULE DAY 129\", Blank Schedule Type Limits Name input -- will not be validated.\n   ** Warning ** ProcessScheduleInput: Schedule:Day:Interval=\"SCHEDULE DAY 13\", Blank Schedule Type Limits Name input -- will not be validated.\n   ** Warning ** ProcessScheduleInput: Schedule:Day:Interval=\"SCHEDULE DAY 130\", Blank Schedule Type Limits Name input -- will not be validated.\n   ** Warning ** ProcessScheduleInput: Schedule:Day:Interval=\"SCHEDULE DAY 131\", Blank Schedule Type Limits Name input -- will not be validated.\n   ** Warning ** ProcessScheduleInput: Schedule:Day:Interval=\"SCHEDULE DAY 132\", Blank Schedule Type Limits Name input -- will not be validated.\n   ** Warning ** ProcessScheduleInput: Schedule:Day:Interval=\"SCHEDULE DAY 133\", Blank Schedule Type Limits Name input -- will not be validated.\n   ** Warning ** ProcessScheduleInput: Schedule:Day:Interval=\"SCHEDULE DAY 134\", Blank Schedule Type Limits Name input -- will not be validated.\n   ** Warning ** ProcessScheduleInput: Schedule:Day:Interval=\"SCHEDULE DAY 135\", Blank Schedule Type Limits Name input -- will not be validated.\n   ** Warning ** ProcessScheduleInput: Schedule:Day:Interval=\"SCHEDULE DAY 136\", Blank Schedule Type Limits Name input -- will not be validated.\n   ** Warning ** ProcessScheduleInput: Schedule:Day:Interval=\"SCHEDULE DAY 137\", Blank Schedule Type Limits Name input -- will not be validated.\n   ** Warning ** ProcessScheduleInput: Schedule:Day:Interval=\"SCHEDULE DAY 138\", Blank Schedule Type Limits Name input -- will not be validated.\n   ** Warning ** ProcessScheduleInput: Schedule:Day:Interval=\"SCHEDULE DAY 139\", Blank Schedule Type Limits Name input -- will not be validated.\n   ** Warning ** ProcessScheduleInput: Schedule:Day:Interval=\"SCHEDULE DAY 14\", Blank Schedule Type Limits Name input -- will not be validated.\n   ** Warning ** ProcessScheduleInput: Schedule:Day:Interval=\"SCHEDULE DAY 140\", Blank Schedule Type Limits Name input -- will not be validated.\n   ** Warning ** ProcessScheduleInput: Schedule:Day:Interval=\"SCHEDULE DAY 141\", Blank Schedule Type Limits Name input -- will not be validated.\n   ** Warning ** ProcessScheduleInput: Schedule:Day:Interval=\"SCHEDULE DAY 142\", Blank Schedule Type Limits Name input -- will not be validated.\n   ** Warning ** ProcessScheduleInput: Schedule:Day:Interval=\"SCHEDULE DAY 143\", Blank Schedule Type Limits Name input -- will not be validated.\n   ** Warning ** ProcessScheduleInput: Schedule:Day:Interval=\"SCHEDULE DAY 144\", Blank Schedule Type Limits Name input -- will not be validated.\n   ** Warning ** ProcessScheduleInput: Schedule:Day:Interval=\"SCHEDULE DAY 145\", Blank Schedule Type Limits Name input -- will not be validated.\n   ** Warning ** ProcessScheduleInput: Schedule:Day:Interval=\"SCHEDULE DAY 146\", Blank Schedule Type Limits Name input -- will not be validated.\n   ** Warning ** ProcessScheduleInput: Schedule:Day:Interval=\"SCHEDULE DAY 147\", Blank Schedule Type Limits Name input -- will not be validated.\n   ** Warning ** ProcessScheduleInput: Schedule:Day:Interval=\"SCHEDULE DAY 148\", Blank Schedule Type Limits Name input -- will not be validated.\n   ** Warning ** ProcessScheduleInput: Schedule:Day:Interval=\"SCHEDULE DAY 149\", Blank Schedule Type Limits Name input -- will not be validated.\n   ** Warning ** ProcessScheduleInput: Schedule:Day:Interval=\"SCHEDULE DAY 15\", Blank Schedule Type Limits Name input -- will not be validated.\n   ** Warning ** ProcessScheduleInput: Schedule:Day:Interval=\"SCHEDULE DAY 150\", Blank Schedule Type Limits Name input -- will not be validated.\n   ** Warning ** ProcessScheduleInput: Schedule:Day:Interval=\"SCHEDULE DAY 151\", Blank Schedule Type Limits Name input -- will not be validated.\n   ** Warning ** ProcessScheduleInput: Schedule:Day:Interval=\"SCHEDULE DAY 152\", Blank Schedule Type Limits Name input -- will not be validated.\n   ** Warning ** ProcessScheduleInput: Schedule:Day:Interval=\"SCHEDULE DAY 153\", Blank Schedule Type Limits Name input -- will not be validated.\n   ** Warning ** ProcessScheduleInput: Schedule:Day:Interval=\"SCHEDULE DAY 154\", Blank Schedule Type Limits Name input -- will not be validated.\n   ** Warning ** ProcessScheduleInput: Schedule:Day:Interval=\"SCHEDULE DAY 155\", Blank Schedule Type Limits Name input -- will not be validated.\n   ** Warning ** ProcessScheduleInput: Schedule:Day:Interval=\"SCHEDULE DAY 156\", Blank Schedule Type Limits Name input -- will not be validated.\n   ** Warning ** ProcessScheduleInput: Schedule:Day:Interval=\"SCHEDULE DAY 157\", Blank Schedule Type Limits Name input -- will not be validated.\n   ** Warning ** ProcessScheduleInput: Schedule:Day:Interval=\"SCHEDULE DAY 158\", Blank Schedule Type Limits Name input -- will not be validated.\n   ** Warning ** ProcessScheduleInput: Schedule:Day:Interval=\"SCHEDULE DAY 159\", Blank Schedule Type Limits Name input -- will not be validated.\n   ** Warning ** ProcessScheduleInput: Schedule:Day:Interval=\"SCHEDULE DAY 16\", Blank Schedule Type Limits Name input -- will not be validated.\n   ** Warning ** ProcessScheduleInput: Schedule:Day:Interval=\"SCHEDULE DAY 160\", Blank Schedule Type Limits Name input -- will not be validated.\n   ** Warning ** ProcessScheduleInput: Schedule:Day:Interval=\"SCHEDULE DAY 161\", Blank Schedule Type Limits Name input -- will not be validated.\n   ** Warning ** ProcessScheduleInput: Schedule:Day:Interval=\"SCHEDULE DAY 162\", Blank Schedule Type Limits Name input -- will not be validated.\n   ** Warning ** ProcessScheduleInput: Schedule:Day:Interval=\"SCHEDULE DAY 163\", Blank Schedule Type Limits Name input -- will not be validated.\n   ** Warning ** ProcessScheduleInput: Schedule:Day:Interval=\"SCHEDULE DAY 164\", Blank Schedule Type Limits Name input -- will not be validated.\n   ** Warning ** ProcessScheduleInput: Schedule:Day:Interval=\"SCHEDULE DAY 165\", Blank Schedule Type Limits Name input -- will not be validated.\n   ** Warning ** ProcessScheduleInput: Schedule:Day:Interval=\"SCHEDULE DAY 166\", Blank Schedule Type Limits Name input -- will not be validated.\n   ** Warning ** ProcessScheduleInput: Schedule:Day:Interval=\"SCHEDULE DAY 167\", Blank Schedule Type Limits Name input -- will not be validated.\n   ** Warning ** ProcessScheduleInput: Schedule:Day:Interval=\"SCHEDULE DAY 168\", Blank Schedule Type Limits Name input -- will not be validated.\n   ** Warning ** ProcessScheduleInput: Schedule:Day:Interval=\"SCHEDULE DAY 169\", Blank Schedule Type Limits Name input -- will not be validated.\n   ** Warning ** ProcessScheduleInput: Schedule:Day:Interval=\"SCHEDULE DAY 17\", Blank Schedule Type Limits Name input -- will not be validated.\n   ** Warning ** ProcessScheduleInput: Schedule:Day:Interval=\"SCHEDULE DAY 170\", Blank Schedule Type Limits Name input -- will not be validated.\n   ** Warning ** ProcessScheduleInput: Schedule:Day:Interval=\"SCHEDULE DAY 171\", Blank Schedule Type Limits Name input -- will not be validated.\n   ** Warning ** ProcessScheduleInput: Schedule:Day:Interval=\"SCHEDULE DAY 172\", Blank Schedule Type Limits Name input -- will not be validated.\n   ** Warning ** ProcessScheduleInput: Schedule:Day:Interval=\"SCHEDULE DAY 173\", Blank Schedule Type Limits Name input -- will not be validated.\n   ** Warning ** ProcessScheduleInput: Schedule:Day:Interval=\"SCHEDULE DAY 174\", Blank Schedule Type Limits Name input -- will not be validated.\n   ** Warning ** ProcessScheduleInput: Schedule:Day:Interval=\"SCHEDULE DAY 175\", Blank Schedule Type Limits Name input -- will not be validated.\n   ** Warning ** ProcessScheduleInput: Schedule:Day:Interval=\"SCHEDULE DAY 176\", Blank Schedule Type Limits Name input -- will not be validated.\n   ** Warning ** ProcessScheduleInput: Schedule:Day:Interval=\"SCHEDULE DAY 177\", Blank Schedule Type Limits Name input -- will not be validated.\n   ** Warning ** ProcessScheduleInput: Schedule:Day:Interval=\"SCHEDULE DAY 178\", Blank Schedule Type Limits Name input -- will not be validated.\n   ** Warning ** ProcessScheduleInput: Schedule:Day:Interval=\"SCHEDULE DAY 179\", Blank Schedule Type Limits Name input -- will not be validated.\n   ** Warning ** ProcessScheduleInput: Schedule:Day:Interval=\"SCHEDULE DAY 18\", Blank Schedule Type Limits Name input -- will not be validated.\n   ** Warning ** ProcessScheduleInput: Schedule:Day:Interval=\"SCHEDULE DAY 180\", Blank Schedule Type Limits Name input -- will not be validated.\n   ** Warning ** ProcessScheduleInput: Schedule:Day:Interval=\"SCHEDULE DAY 181\", Blank Schedule Type Limits Name input -- will not be validated.\n   ** Warning ** ProcessScheduleInput: Schedule:Day:Interval=\"SCHEDULE DAY 182\", Blank Schedule Type Limits Name input -- will not be validated.\n   ** Warning ** ProcessScheduleInput: Schedule:Day:Interval=\"SCHEDULE DAY 183\", Blank Schedule Type Limits Name input -- will not be validated.\n   ** Warning ** ProcessScheduleInput: Schedule:Day:Interval=\"SCHEDULE DAY 184\", Blank Schedule Type Limits Name input -- will not be validated.\n   ** Warning ** ProcessScheduleInput: Schedule:Day:Interval=\"SCHEDULE DAY 185\", Blank Schedule Type Limits Name input -- will not be validated.\n   ** Warning ** ProcessScheduleInput: Schedule:Day:Interval=\"SCHEDULE DAY 186\", Blank Schedule Type Limits Name input -- will not be validated.\n   ** Warning ** ProcessScheduleInput: Schedule:Day:Interval=\"SCHEDULE DAY 187\", Blank Schedule Type Limits Name input -- will not be validated.\n   ** Warning ** ProcessScheduleInput: Schedule:Day:Interval=\"SCHEDULE DAY 188\", Blank Schedule Type Limits Name input -- will not be validated.\n   ** Warning ** ProcessScheduleInput: Schedule:Day:Interval=\"SCHEDULE DAY 189\", Blank Schedule Type Limits Name input -- will not be validated.\n   ** Warning ** ProcessScheduleInput: Schedule:Day:Interval=\"SCHEDULE DAY 19\", Blank Schedule Type Limits Name input -- will not be validated.\n   ** Warning ** ProcessScheduleInput: Schedule:Day:Interval=\"SCHEDULE DAY 190\", Blank Schedule Type Limits Name input -- will not be validated.\n   ** Warning ** ProcessScheduleInput: Schedule:Day:Interval=\"SCHEDULE DAY 191\", Blank Schedule Type Limits Name input -- will not be validated.\n   ** Warning ** ProcessScheduleInput: Schedule:Day:Interval=\"SCHEDULE DAY 192\", Blank Schedule Type Limits Name input -- will not be validated.\n   ** Warning ** ProcessScheduleInput: Schedule:Day:Interval=\"SCHEDULE DAY 193\", Blank Schedule Type Limits Name input -- will not be validated.\n   ** Warning ** ProcessScheduleInput: Schedule:Day:Interval=\"SCHEDULE DAY 194\", Blank Schedule Type Limits Name input -- will not be validated.\n   ** Warning ** ProcessScheduleInput: Schedule:Day:Interval=\"SCHEDULE DAY 195\", Blank Schedule Type Limits Name input -- will not be validated.\n   ** Warning ** ProcessScheduleInput: Schedule:Day:Interval=\"SCHEDULE DAY 196\", Blank Schedule Type Limits Name input -- will not be validated.\n   ** Warning ** ProcessScheduleInput: Schedule:Day:Interval=\"SCHEDULE DAY 197\", Blank Schedule Type Limits Name input -- will not be validated.\n   ** Warning ** ProcessScheduleInput: Schedule:Day:Interval=\"SCHEDULE DAY 198\", Blank Schedule Type Limits Name input -- will not be validated.\n   ** Warning ** ProcessScheduleInput: Schedule:Day:Interval=\"SCHEDULE DAY 199\", Blank Schedule Type Limits Name input -- will not be validated.\n   ** Warning ** ProcessScheduleInput: Schedule:Day:Interval=\"SCHEDULE DAY 2\", Blank Schedule Type Limits Name input -- will not be validated.\n   ** Warning ** ProcessScheduleInput: Schedule:Day:Interval=\"SCHEDULE DAY 20\", Blank Schedule Type Limits Name input -- will not be validated.\n   ** Warning ** ProcessScheduleInput: Schedule:Day:Interval=\"SCHEDULE DAY 200\", Blank Schedule Type Limits Name input -- will not be validated.\n   ** Warning ** ProcessScheduleInput: Schedule:Day:Interval=\"SCHEDULE DAY 201\", Blank Schedule Type Limits Name input -- will not be validated.\n   ** Warning ** ProcessScheduleInput: Schedule:Day:Interval=\"SCHEDULE DAY 202\", Blank Schedule Type Limits Name input -- will not be validated.\n   ** Warning ** ProcessScheduleInput: Schedule:Day:Interval=\"SCHEDULE DAY 203\", Blank Schedule Type Limits Name input -- will not be validated.\n   ** Warning ** ProcessScheduleInput: Schedule:Day:Interval=\"SCHEDULE DAY 204\", Blank Schedule Type Limits Name input -- will not be validated.\n   ** Warning ** ProcessScheduleInput: Schedule:Day:Interval=\"SCHEDULE DAY 205\", Blank Schedule Type Limits Name input -- will not be validated.\n   ** Warning ** ProcessScheduleInput: Schedule:Day:Interval=\"SCHEDULE DAY 206\", Blank Schedule Type Limits Name input -- will not be validated.\n   ** Warning ** ProcessScheduleInput: Schedule:Day:Interval=\"SCHEDULE DAY 207\", Blank Schedule Type Limits Name input -- will not be validated.\n   ** Warning ** ProcessScheduleInput: Schedule:Day:Interval=\"SCHEDULE DAY 208\", Blank Schedule Type Limits Name input -- will not be validated.\n   ** Warning ** ProcessScheduleInput: Schedule:Day:Interval=\"SCHEDULE DAY 209\", Blank Schedule Type Limits Name input -- will not be validated.\n   ** Warning ** ProcessScheduleInput: Schedule:Day:Interval=\"SCHEDULE DAY 21\", Blank Schedule Type Limits Name input -- will not be validated.\n   ** Warning ** ProcessScheduleInput: Schedule:Day:Interval=\"SCHEDULE DAY 210\", Blank Schedule Type Limits Name input -- will not be validated.\n   ** Warning ** ProcessScheduleInput: Schedule:Day:Interval=\"SCHEDULE DAY 211\", Blank Schedule Type Limits Name input -- will not be validated.\n   ** Warning ** ProcessScheduleInput: Schedule:Day:Interval=\"SCHEDULE DAY 212\", Blank Schedule Type Limits Name input -- will not be validated.\n   ** Warning ** ProcessScheduleInput: Schedule:Day:Interval=\"SCHEDULE DAY 213\", Blank Schedule Type Limits Name input -- will not be validated.\n   ** Warning ** ProcessScheduleInput: Schedule:Day:Interval=\"SCHEDULE DAY 214\", Blank Schedule Type Limits Name input -- will not be validated.\n   ** Warning ** ProcessScheduleInput: Schedule:Day:Interval=\"SCHEDULE DAY 215\", Blank Schedule Type Limits Name input -- will not be validated.\n   ** Warning ** ProcessScheduleInput: Schedule:Day:Interval=\"SCHEDULE DAY 216\", Blank Schedule Type Limits Name input -- will not be validated.\n   ** Warning ** ProcessScheduleInput: Schedule:Day:Interval=\"SCHEDULE DAY 217\", Blank Schedule Type Limits Name input -- will not be validated.\n   ** Warning ** ProcessScheduleInput: Schedule:Day:Interval=\"SCHEDULE DAY 218\", Blank Schedule Type Limits Name input -- will not be validated.\n   ** Warning ** ProcessScheduleInput: Schedule:Day:Interval=\"SCHEDULE DAY 219\", Blank Schedule Type Limits Name input -- will not be validated.\n   ** Warning ** ProcessScheduleInput: Schedule:Day:Interval=\"SCHEDULE DAY 22\", Blank Schedule Type Limits Name input -- will not be validated.\n   ** Warning ** ProcessScheduleInput: Schedule:Day:Interval=\"SCHEDULE DAY 220\", Blank Schedule Type Limits Name input -- will not be validated.\n   ** Warning ** ProcessScheduleInput: Schedule:Day:Interval=\"SCHEDULE DAY 221\", Blank Schedule Type Limits Name input -- will not be validated.\n   ** Warning ** ProcessScheduleInput: Schedule:Day:Interval=\"SCHEDULE DAY 222\", Blank Schedule Type Limits Name input -- will not be validated.\n   ** Warning ** ProcessScheduleInput: Schedule:Day:Interval=\"SCHEDULE DAY 223\", Blank Schedule Type Limits Name input -- will not be validated.\n   ** Warning ** ProcessScheduleInput: Schedule:Day:Interval=\"SCHEDULE DAY 224\", Blank Schedule Type Limits Name input -- will not be validated.\n   ** Warning ** ProcessScheduleInput: Schedule:Day:Interval=\"SCHEDULE DAY 225\", Blank Schedule Type Limits Name input -- will not be validated.\n   ** Warning ** ProcessScheduleInput: Schedule:Day:Interval=\"SCHEDULE DAY 226\", Blank Schedule Type Limits Name input -- will not be validated.\n   ** Warning ** ProcessScheduleInput: Schedule:Day:Interval=\"SCHEDULE DAY 227\", Blank Schedule Type Limits Name input -- will not be validated.\n   ** Warning ** ProcessScheduleInput: Schedule:Day:Interval=\"SCHEDULE DAY 228\", Blank Schedule Type Limits Name input -- will not be validated.\n   ** Warning ** ProcessScheduleInput: Schedule:Day:Interval=\"SCHEDULE DAY 229\", Blank Schedule Type Limits Name input -- will not be validated.\n   ** Warning ** ProcessScheduleInput: Schedule:Day:Interval=\"SCHEDULE DAY 23\", Blank Schedule Type Limits Name input -- will not be validated.\n   ** Warning ** ProcessScheduleInput: Schedule:Day:Interval=\"SCHEDULE DAY 230\", Blank Schedule Type Limits Name input -- will not be validated.\n   ** Warning ** ProcessScheduleInput: Schedule:Day:Interval=\"SCHEDULE DAY 231\", Blank Schedule Type Limits Name input -- will not be validated.\n   ** Warning ** ProcessScheduleInput: Schedule:Day:Interval=\"SCHEDULE DAY 232\", Blank Schedule Type Limits Name input -- will not be validated.\n   ** Warning ** ProcessScheduleInput: Schedule:Day:Interval=\"SCHEDULE DAY 233\", Blank Schedule Type Limits Name input -- will not be validated.\n   ** Warning ** ProcessScheduleInput: Schedule:Day:Interval=\"SCHEDULE DAY 234\", Blank Schedule Type Limits Name input -- will not be validated.\n   ** Warning ** ProcessScheduleInput: Schedule:Day:Interval=\"SCHEDULE DAY 235\", Blank Schedule Type Limits Name input -- will not be validated.\n   ** Warning ** ProcessScheduleInput: Schedule:Day:Interval=\"SCHEDULE DAY 236\", Blank Schedule Type Limits Name input -- will not be validated.\n   ** Warning ** ProcessScheduleInput: Schedule:Day:Interval=\"SCHEDULE DAY 237\", Blank Schedule Type Limits Name input -- will not be validated.\n   ** Warning ** ProcessScheduleInput: Schedule:Day:Interval=\"SCHEDULE DAY 238\", Blank Schedule Type Limits Name input -- will not be validated.\n   ** Warning ** ProcessScheduleInput: Schedule:Day:Interval=\"SCHEDULE DAY 239\", Blank Schedule Type Limits Name input -- will not be validated.\n   ** Warning ** ProcessScheduleInput: Schedule:Day:Interval=\"SCHEDULE DAY 24\", Blank Schedule Type Limits Name input -- will not be validated.\n   ** Warning ** ProcessScheduleInput: Schedule:Day:Interval=\"SCHEDULE DAY 240\", Blank Schedule Type Limits Name input -- will not be validated.\n   ** Warning ** ProcessScheduleInput: Schedule:Day:Interval=\"SCHEDULE DAY 241\", Blank Schedule Type Limits Name input -- will not be validated.\n   ** Warning ** ProcessScheduleInput: Schedule:Day:Interval=\"SCHEDULE DAY 242\", Blank Schedule Type Limits Name input -- will not be validated.\n   ** Warning ** ProcessScheduleInput: Schedule:Day:Interval=\"SCHEDULE DAY 243\", Blank Schedule Type Limits Name input -- will not be validated.\n   ** Warning ** ProcessScheduleInput: Schedule:Day:Interval=\"SCHEDULE DAY 244\", Blank Schedule Type Limits Name input -- will not be validated.\n   ** Warning ** ProcessScheduleInput: Schedule:Day:Interval=\"SCHEDULE DAY 245\", Blank Schedule Type Limits Name input -- will not be validated.\n   ** Warning ** ProcessScheduleInput: Schedule:Day:Interval=\"SCHEDULE DAY 246\", Blank Schedule Type Limits Name input -- will not be validated.\n   ** Warning ** ProcessScheduleInput: Schedule:Day:Interval=\"SCHEDULE DAY 247\", Blank Schedule Type Limits Name input -- will not be validated.\n   ** Warning ** ProcessScheduleInput: Schedule:Day:Interval=\"SCHEDULE DAY 248\", Blank Schedule Type Limits Name input -- will not be validated.\n   ** Warning ** ProcessScheduleInput: Schedule:Day:Interval=\"SCHEDULE DAY 249\", Blank Schedule Type Limits Name input -- will not be validated.\n   ** Warning ** ProcessScheduleInput: Schedule:Day:Interval=\"SCHEDULE DAY 25\", Blank Schedule Type Limits Name input -- will not be validated.\n   ** Warning ** ProcessScheduleInput: Schedule:Day:Interval=\"SCHEDULE DAY 250\", Blank Schedule Type Limits Name input -- will not be validated.\n   ** Warning ** ProcessScheduleInput: Schedule:Day:Interval=\"SCHEDULE DAY 251\", Blank Schedule Type Limits Name input -- will not be validated.\n   ** Warning ** ProcessScheduleInput: Schedule:Day:Interval=\"SCHEDULE DAY 26\", Blank Schedule Type Limits Name input -- will not be validated.\n   ** Warning ** ProcessScheduleInput: Schedule:Day:Interval=\"SCHEDULE DAY 27\", Blank Schedule Type Limits Name input -- will not be validated.\n   ** Warning ** ProcessScheduleInput: Schedule:Day:Interval=\"SCHEDULE DAY 28\", Blank Schedule Type Limits Name input -- will not be validated.\n   ** Warning ** ProcessScheduleInput: Schedule:Day:Interval=\"SCHEDULE DAY 29\", Blank Schedule Type Limits Name input -- will not be validated.\n   ** Warning ** ProcessScheduleInput: Schedule:Day:Interval=\"SCHEDULE DAY 30\", Blank Schedule Type Limits Name input -- will not be validated.\n   ** Warning ** ProcessScheduleInput: Schedule:Day:Interval=\"SCHEDULE DAY 31\", Blank Schedule Type Limits Name input -- will not be validated.\n   ** Warning ** ProcessScheduleInput: Schedule:Day:Interval=\"SCHEDULE DAY 32\", Blank Schedule Type Limits Name input -- will not be validated.\n   ** Warning ** ProcessScheduleInput: Schedule:Day:Interval=\"SCHEDULE DAY 33\", Blank Schedule Type Limits Name input -- will not be validated.\n   ** Warning ** ProcessScheduleInput: Schedule:Day:Interval=\"SCHEDULE DAY 34\", Blank Schedule Type Limits Name input -- will not be validated.\n   ** Warning ** ProcessScheduleInput: Schedule:Day:Interval=\"SCHEDULE DAY 35\", Blank Schedule Type Limits Name input -- will not be validated.\n   ** Warning ** ProcessScheduleInput: Schedule:Day:Interval=\"SCHEDULE DAY 36\", Blank Schedule Type Limits Name input -- will not be validated.\n   ** Warning ** ProcessScheduleInput: Schedule:Day:Interval=\"SCHEDULE DAY 37\", Blank Schedule Type Limits Name input -- will not be validated.\n   ** Warning ** ProcessScheduleInput: Schedule:Day:Interval=\"SCHEDULE DAY 38\", Blank Schedule Type Limits Name input -- will not be validated.\n   ** Warning ** ProcessScheduleInput: Schedule:Day:Interval=\"SCHEDULE DAY 39\", Blank Schedule Type Limits Name input -- will not be validated.\n   ** Warning ** ProcessScheduleInput: Schedule:Day:Interval=\"SCHEDULE DAY 40\", Blank Schedule Type Limits Name input -- will not be validated.\n   ** Warning ** ProcessScheduleInput: Schedule:Day:Interval=\"SCHEDULE DAY 41\", Blank Schedule Type Limits Name input -- will not be validated.\n   ** Warning ** ProcessScheduleInput: Schedule:Day:Interval=\"SCHEDULE DAY 42\", Blank Schedule Type Limits Name input -- will not be validated.\n   ** Warning ** ProcessScheduleInput: Schedule:Day:Interval=\"SCHEDULE DAY 43\", Blank Schedule Type Limits Name input -- will not be validated.\n   ** Warning ** ProcessScheduleInput: Schedule:Day:Interval=\"SCHEDULE DAY 44\", Blank Schedule Type Limits Name input -- will not be validated.\n   ** Warning ** ProcessScheduleInput: Schedule:Day:Interval=\"SCHEDULE DAY 45\", Blank Schedule Type Limits Name input -- will not be validated.\n   ** Warning ** ProcessScheduleInput: Schedule:Day:Interval=\"SCHEDULE DAY 46\", Blank Schedule Type Limits Name input -- will not be validated.\n   ** Warning ** ProcessScheduleInput: Schedule:Day:Interval=\"SCHEDULE DAY 47\", Blank Schedule Type Limits Name input -- will not be validated.\n   ** Warning ** ProcessScheduleInput: Schedule:Day:Interval=\"SCHEDULE DAY 48\", Blank Schedule Type Limits Name input -- will not be validated.\n   ** Warning ** ProcessScheduleInput: Schedule:Day:Interval=\"SCHEDULE DAY 49\", Blank Schedule Type Limits Name input -- will not be validated.\n   ** Warning ** ProcessScheduleInput: Schedule:Day:Interval=\"SCHEDULE DAY 50\", Blank Schedule Type Limits Name input -- will not be validated.\n   ** Warning ** ProcessScheduleInput: Schedule:Day:Interval=\"SCHEDULE DAY 51\", Blank Schedule Type Limits Name input -- will not be validated.\n   ** Warning ** ProcessScheduleInput: Schedule:Day:Interval=\"SCHEDULE DAY 52\", Blank Schedule Type Limits Name input -- will not be validated.\n   ** Warning ** ProcessScheduleInput: Schedule:Day:Interval=\"SCHEDULE DAY 53\", Blank Schedule Type Limits Name input -- will not be validated.\n   ** Warning ** ProcessScheduleInput: Schedule:Day:Interval=\"SCHEDULE DAY 54\", Blank Schedule Type Limits Name input -- will not be validated.\n   ** Warning ** ProcessScheduleInput: Schedule:Day:Interval=\"SCHEDULE DAY 55\", Blank Schedule Type Limits Name input -- will not be validated.\n   ** Warning ** ProcessScheduleInput: Schedule:Day:Interval=\"SCHEDULE DAY 56\", Blank Schedule Type Limits Name input -- will not be validated.\n   ** Warning ** ProcessScheduleInput: Schedule:Day:Interval=\"SCHEDULE DAY 57\", Blank Schedule Type Limits Name input -- will not be validated.\n   ** Warning ** ProcessScheduleInput: Schedule:Day:Interval=\"SCHEDULE DAY 58\", Blank Schedule Type Limits Name input -- will not be validated.\n   ** Warning ** ProcessScheduleInput: Schedule:Day:Interval=\"SCHEDULE DAY 59\", Blank Schedule Type Limits Name input -- will not be validated.\n   ** Warning ** ProcessScheduleInput: Schedule:Day:Interval=\"SCHEDULE DAY 60\", Blank Schedule Type Limits Name input -- will not be validated.\n   ** Warning ** ProcessScheduleInput: Schedule:Day:Interval=\"SCHEDULE DAY 61\", Blank Schedule Type Limits Name input -- will not be validated.\n   ** Warning ** ProcessScheduleInput: Schedule:Day:Interval=\"SCHEDULE DAY 62\", Blank Schedule Type Limits Name input -- will not be validated.\n   ** Warning ** ProcessScheduleInput: Schedule:Day:Interval=\"SCHEDULE DAY 63\", Blank Schedule Type Limits Name input -- will not be validated.\n   ** Warning ** ProcessScheduleInput: Schedule:Day:Interval=\"SCHEDULE DAY 64\", Blank Schedule Type Limits Name input -- will not be validated.\n   ** Warning ** ProcessScheduleInput: Schedule:Day:Interval=\"SCHEDULE DAY 65\", Blank Schedule Type Limits Name input -- will not be validated.\n   ** Warning ** ProcessScheduleInput: Schedule:Day:Interval=\"SCHEDULE DAY 66\", Blank Schedule Type Limits Name input -- will not be validated.\n   ** Warning ** ProcessScheduleInput: Schedule:Day:Interval=\"SCHEDULE DAY 67\", Blank Schedule Type Limits Name input -- will not be validated.\n   ** Warning ** ProcessScheduleInput: Schedule:Day:Interval=\"SCHEDULE DAY 68\", Blank Schedule Type Limits Name input -- will not be validated.\n   ** Warning ** ProcessScheduleInput: Schedule:Day:Interval=\"SCHEDULE DAY 69\", Blank Schedule Type Limits Name input -- will not be validated.\n   ** Warning ** ProcessScheduleInput: Schedule:Day:Interval=\"SCHEDULE DAY 70\", Blank Schedule Type Limits Name input -- will not be validated.\n   ** Warning ** ProcessScheduleInput: Schedule:Day:Interval=\"SCHEDULE DAY 71\", Blank Schedule Type Limits Name input -- will not be validated.\n   ** Warning ** ProcessScheduleInput: Schedule:Day:Interval=\"SCHEDULE DAY 72\", Blank Schedule Type Limits Name input -- will not be validated.\n   ** Warning ** ProcessScheduleInput: Schedule:Day:Interval=\"SCHEDULE DAY 73\", Blank Schedule Type Limits Name input -- will not be validated.\n   ** Warning ** ProcessScheduleInput: Schedule:Day:Interval=\"SCHEDULE DAY 74\", Blank Schedule Type Limits Name input -- will not be validated.\n   ** Warning ** ProcessScheduleInput: Schedule:Day:Interval=\"SCHEDULE DAY 75\", Blank Schedule Type Limits Name input -- will not be validated.\n   ** Warning ** ProcessScheduleInput: Schedule:Day:Interval=\"SCHEDULE DAY 76\", Blank Schedule Type Limits Name input -- will not be validated.\n   ** Warning ** ProcessScheduleInput: Schedule:Day:Interval=\"SCHEDULE DAY 77\", Blank Schedule Type Limits Name input -- will not be validated.\n   ** Warning ** ProcessScheduleInput: Schedule:Day:Interval=\"SCHEDULE DAY 78\", Blank Schedule Type Limits Name input -- will not be validated.\n   ** Warning ** ProcessScheduleInput: Schedule:Day:Interval=\"SCHEDULE DAY 79\", Blank Schedule Type Limits Name input -- will not be validated.\n   ** Warning ** ProcessScheduleInput: Schedule:Day:Interval=\"SCHEDULE DAY 8\", Blank Schedule Type Limits Name input -- will not be validated.\n   ** Warning ** ProcessScheduleInput: Schedule:Day:Interval=\"SCHEDULE DAY 80\", Blank Schedule Type Limits Name input -- will not be validated.\n   ** Warning ** ProcessScheduleInput: Schedule:Day:Interval=\"SCHEDULE DAY 81\", Blank Schedule Type Limits Name input -- will not be validated.\n   ** Warning ** ProcessScheduleInput: Schedule:Day:Interval=\"SCHEDULE DAY 82\", Blank Schedule Type Limits Name input -- will not be validated.\n   ** Warning ** ProcessScheduleInput: Schedule:Day:Interval=\"SCHEDULE DAY 83\", Blank Schedule Type Limits Name input -- will not be validated.\n   ** Warning ** ProcessScheduleInput: Schedule:Day:Interval=\"SCHEDULE DAY 84\", Blank Schedule Type Limits Name input -- will not be validated.\n   ** Warning ** ProcessScheduleInput: Schedule:Day:Interval=\"SCHEDULE DAY 85\", Blank Schedule Type Limits Name input -- will not be validated.\n   ** Warning ** ProcessScheduleInput: Schedule:Day:Interval=\"SCHEDULE DAY 86\", Blank Schedule Type Limits Name input -- will not be validated.\n   ** Warning ** ProcessScheduleInput: Schedule:Day:Interval=\"SCHEDULE DAY 87\", Blank Schedule Type Limits Name input -- will not be validated.\n   ** Warning ** ProcessScheduleInput: Schedule:Day:Interval=\"SCHEDULE DAY 88\", Blank Schedule Type Limits Name input -- will not be validated.\n   ** Warning ** ProcessScheduleInput: Schedule:Day:Interval=\"SCHEDULE DAY 89\", Blank Schedule Type Limits Name input -- will not be validated.\n   ** Warning ** ProcessScheduleInput: Schedule:Day:Interval=\"SCHEDULE DAY 9\", Blank Schedule Type Limits Name input -- will not be validated.\n   ** Warning ** ProcessScheduleInput: Schedule:Day:Interval=\"SCHEDULE DAY 90\", Blank Schedule Type Limits Name input -- will not be validated.\n   ** Warning ** ProcessScheduleInput: Schedule:Day:Interval=\"SCHEDULE DAY 91\", Blank Schedule Type Limits Name input -- will not be validated.\n   ** Warning ** ProcessScheduleInput: Schedule:Day:Interval=\"SCHEDULE DAY 92\", Blank Schedule Type Limits Name input -- will not be validated.\n   ** Warning ** ProcessScheduleInput: Schedule:Day:Interval=\"SCHEDULE DAY 93\", Blank Schedule Type Limits Name input -- will not be validated.\n   ** Warning ** ProcessScheduleInput: Schedule:Day:Interval=\"SCHEDULE DAY 94\", Blank Schedule Type Limits Name input -- will not be validated.\n   ** Warning ** ProcessScheduleInput: Schedule:Day:Interval=\"SCHEDULE DAY 95\", Blank Schedule Type Limits Name input -- will not be validated.\n   ** Warning ** ProcessScheduleInput: Schedule:Day:Interval=\"SCHEDULE DAY 96\", Blank Schedule Type Limits Name input -- will not be validated.\n   ** Warning ** ProcessScheduleInput: Schedule:Day:Interval=\"SCHEDULE DAY 97\", Blank Schedule Type Limits Name input -- will not be validated.\n   ** Warning ** ProcessScheduleInput: Schedule:Day:Interval=\"SCHEDULE DAY 98\", Blank Schedule Type Limits Name input -- will not be validated.\n   ** Warning ** ProcessScheduleInput: Schedule:Day:Interval=\"SCHEDULE DAY 99\", Blank Schedule Type Limits Name input -- will not be validated.\n   ** Warning ** ProcessScheduleInput: Schedule:Year=\"ECONOMIZER MAX OA FRACTION 100 PCT\", Blank Schedule Type Limits Name input -- will not be validated.\n   ** Warning ** ProcessScheduleInput: Schedule:Year=\"SCHEDULE RULESET 10\", Blank Schedule Type Limits Name input -- will not be validated.\n   ** Warning ** ProcessScheduleInput: Schedule:Year=\"SCHEDULE RULESET 100\", Blank Schedule Type Limits Name input -- will not be validated.\n   ** Warning ** ProcessScheduleInput: Schedule:Year=\"SCHEDULE RULESET 101\", Blank Schedule Type Limits Name input -- will not be validated.\n   ** Warning ** ProcessScheduleInput: Schedule:Year=\"SCHEDULE RULESET 102\", Blank Schedule Type Limits Name input -- will not be validated.\n   ** Warning ** ProcessScheduleInput: Schedule:Year=\"SCHEDULE RULESET 103\", Blank Schedule Type Limits Name input -- will not be validated.\n   ** Warning ** ProcessScheduleInput: Schedule:Year=\"SCHEDULE RULESET 104\", Blank Schedule Type Limits Name input -- will not be validated.\n   ** Warning ** ProcessScheduleInput: Schedule:Year=\"SCHEDULE RULESET 105\", Blank Schedule Type Limits Name input -- will not be validated.\n   ** Warning ** ProcessScheduleInput: Schedule:Year=\"SCHEDULE RULESET 106\", Blank Schedule Type Limits Name input -- will not be validated.\n   ** Warning ** ProcessScheduleInput: Schedule:Year=\"SCHEDULE RULESET 107\", Blank Schedule Type Limits Name input -- will not be validated.\n   ** Warning ** ProcessScheduleInput: Schedule:Year=\"SCHEDULE RULESET 108\", Blank Schedule Type Limits Name input -- will not be validated.\n   ** Warning ** ProcessScheduleInput: Schedule:Year=\"SCHEDULE RULESET 109\", Blank Schedule Type Limits Name input -- will not be validated.\n   ** Warning ** ProcessScheduleInput: Schedule:Year=\"SCHEDULE RULESET 11\", Blank Schedule Type Limits Name input -- will not be validated.\n   ** Warning ** ProcessScheduleInput: Schedule:Year=\"SCHEDULE RULESET 110\", Blank Schedule Type Limits Name input -- will not be validated.\n   ** Warning ** ProcessScheduleInput: Schedule:Year=\"SCHEDULE RULESET 111\", Blank Schedule Type Limits Name input -- will not be validated.\n   ** Warning ** ProcessScheduleInput: Schedule:Year=\"SCHEDULE RULESET 112\", Blank Schedule Type Limits Name input -- will not be validated.\n   ** Warning ** ProcessScheduleInput: Schedule:Year=\"SCHEDULE RULESET 113\", Blank Schedule Type Limits Name input -- will not be validated.\n   ** Warning ** ProcessScheduleInput: Schedule:Year=\"SCHEDULE RULESET 114\", Blank Schedule Type Limits Name input -- will not be validated.\n   ** Warning ** ProcessScheduleInput: Schedule:Year=\"SCHEDULE RULESET 115\", Blank Schedule Type Limits Name input -- will not be validated.\n   ** Warning ** ProcessScheduleInput: Schedule:Year=\"SCHEDULE RULESET 116\", Blank Schedule Type Limits Name input -- will not be validated.\n   ** Warning ** ProcessScheduleInput: Schedule:Year=\"SCHEDULE RULESET 117\", Blank Schedule Type Limits Name input -- will not be validated.\n   ** Warning ** ProcessScheduleInput: Schedule:Year=\"SCHEDULE RULESET 118\", Blank Schedule Type Limits Name input -- will not be validated.\n   ** Warning ** ProcessScheduleInput: Schedule:Year=\"SCHEDULE RULESET 119\", Blank Schedule Type Limits Name input -- will not be validated.\n   ** Warning ** ProcessScheduleInput: Schedule:Year=\"SCHEDULE RULESET 12\", Blank Schedule Type Limits Name input -- will not be validated.\n   ** Warning ** ProcessScheduleInput: Schedule:Year=\"SCHEDULE RULESET 120\", Blank Schedule Type Limits Name input -- will not be validated.\n   ** Warning ** ProcessScheduleInput: Schedule:Year=\"SCHEDULE RULESET 121\", Blank Schedule Type Limits Name input -- will not be validated.\n   ** Warning ** ProcessScheduleInput: Schedule:Year=\"SCHEDULE RULESET 122\", Blank Schedule Type Limits Name input -- will not be validated.\n   ** Warning ** ProcessScheduleInput: Schedule:Year=\"SCHEDULE RULESET 123\", Blank Schedule Type Limits Name input -- will not be validated.\n   ** Warning ** ProcessScheduleInput: Schedule:Year=\"SCHEDULE RULESET 124\", Blank Schedule Type Limits Name input -- will not be validated.\n   ** Warning ** ProcessScheduleInput: Schedule:Year=\"SCHEDULE RULESET 125\", Blank Schedule Type Limits Name input -- will not be validated.\n   ** Warning ** ProcessScheduleInput: Schedule:Year=\"SCHEDULE RULESET 126\", Blank Schedule Type Limits Name input -- will not be validated.\n   ** Warning ** ProcessScheduleInput: Schedule:Year=\"SCHEDULE RULESET 127\", Blank Schedule Type Limits Name input -- will not be validated.\n   ** Warning ** ProcessScheduleInput: Schedule:Year=\"SCHEDULE RULESET 128\", Blank Schedule Type Limits Name input -- will not be validated.\n   ** Warning ** ProcessScheduleInput: Schedule:Year=\"SCHEDULE RULESET 129\", Blank Schedule Type Limits Name input -- will not be validated.\n   ** Warning ** ProcessScheduleInput: Schedule:Year=\"SCHEDULE RULESET 13\", Blank Schedule Type Limits Name input -- will not be validated.\n   ** Warning ** ProcessScheduleInput: Schedule:Year=\"SCHEDULE RULESET 130\", Blank Schedule Type Limits Name input -- will not be validated.\n   ** Warning ** ProcessScheduleInput: Schedule:Year=\"SCHEDULE RULESET 131\", Blank Schedule Type Limits Name input -- will not be validated.\n   ** Warning ** ProcessScheduleInput: Schedule:Year=\"SCHEDULE RULESET 132\", Blank Schedule Type Limits Name input -- will not be validated.\n   ** Warning ** ProcessScheduleInput: Schedule:Year=\"SCHEDULE RULESET 133\", Blank Schedule Type Limits Name input -- will not be validated.\n   ** Warning ** ProcessScheduleInput: Schedule:Year=\"SCHEDULE RULESET 134\", Blank Schedule Type Limits Name input -- will not be validated.\n   ** Warning ** ProcessScheduleInput: Schedule:Year=\"SCHEDULE RULESET 135\", Blank Schedule Type Limits Name input -- will not be validated.\n   ** Warning ** ProcessScheduleInput: Schedule:Year=\"SCHEDULE RULESET 136\", Blank Schedule Type Limits Name input -- will not be validated.\n   ** Warning ** ProcessScheduleInput: Schedule:Year=\"SCHEDULE RULESET 137\", Blank Schedule Type Limits Name input -- will not be validated.\n   ** Warning ** ProcessScheduleInput: Schedule:Year=\"SCHEDULE RULESET 138\", Blank Schedule Type Limits Name input -- will not be validated.\n   ** Warning ** ProcessScheduleInput: Schedule:Year=\"SCHEDULE RULESET 139\", Blank Schedule Type Limits Name input -- will not be validated.\n   ** Warning ** ProcessScheduleInput: Schedule:Year=\"SCHEDULE RULESET 14\", Blank Schedule Type Limits Name input -- will not be validated.\n   ** Warning ** ProcessScheduleInput: Schedule:Year=\"SCHEDULE RULESET 140\", Blank Schedule Type Limits Name input -- will not be validated.\n   ** Warning ** ProcessScheduleInput: Schedule:Year=\"SCHEDULE RULESET 141\", Blank Schedule Type Limits Name input -- will not be validated.\n   ** Warning ** ProcessScheduleInput: Schedule:Year=\"SCHEDULE RULESET 142\", Blank Schedule Type Limits Name input -- will not be validated.\n   ** Warning ** ProcessScheduleInput: Schedule:Year=\"SCHEDULE RULESET 143\", Blank Schedule Type Limits Name input -- will not be validated.\n   ** Warning ** ProcessScheduleInput: Schedule:Year=\"SCHEDULE RULESET 144\", Blank Schedule Type Limits Name input -- will not be validated.\n   ** Warning ** ProcessScheduleInput: Schedule:Year=\"SCHEDULE RULESET 145\", Blank Schedule Type Limits Name input -- will not be validated.\n   ** Warning ** ProcessScheduleInput: Schedule:Year=\"SCHEDULE RULESET 146\", Blank Schedule Type Limits Name input -- will not be validated.\n   ** Warning ** ProcessScheduleInput: Schedule:Year=\"SCHEDULE RULESET 147\", Blank Schedule Type Limits Name input -- will not be validated.\n   ** Warning ** ProcessScheduleInput: Schedule:Year=\"SCHEDULE RULESET 148\", Blank Schedule Type Limits Name input -- will not be validated.\n   ** Warning ** ProcessScheduleInput: Schedule:Year=\"SCHEDULE RULESET 149\", Blank Schedule Type Limits Name input -- will not be validated.\n   ** Warning ** ProcessScheduleInput: Schedule:Year=\"SCHEDULE RULESET 15\", Blank Schedule Type Limits Name input -- will not be validated.\n   ** Warning ** ProcessScheduleInput: Schedule:Year=\"SCHEDULE RULESET 150\", Blank Schedule Type Limits Name input -- will not be validated.\n   ** Warning ** ProcessScheduleInput: Schedule:Year=\"SCHEDULE RULESET 151\", Blank Schedule Type Limits Name input -- will not be validated.\n   ** Warning ** ProcessScheduleInput: Schedule:Year=\"SCHEDULE RULESET 152\", Blank Schedule Type Limits Name input -- will not be validated.\n   ** Warning ** ProcessScheduleInput: Schedule:Year=\"SCHEDULE RULESET 153\", Blank Schedule Type Limits Name input -- will not be validated.\n   ** Warning ** ProcessScheduleInput: Schedule:Year=\"SCHEDULE RULESET 154\", Blank Schedule Type Limits Name input -- will not be validated.\n   ** Warning ** ProcessScheduleInput: Schedule:Year=\"SCHEDULE RULESET 155\", Blank Schedule Type Limits Name input -- will not be validated.\n   ** Warning ** ProcessScheduleInput: Schedule:Year=\"SCHEDULE RULESET 156\", Blank Schedule Type Limits Name input -- will not be validated.\n   ** Warning ** ProcessScheduleInput: Schedule:Year=\"SCHEDULE RULESET 157\", Blank Schedule Type Limits Name input -- will not be validated.\n   ** Warning ** ProcessScheduleInput: Schedule:Year=\"SCHEDULE RULESET 158\", Blank Schedule Type Limits Name input -- will not be validated.\n   ** Warning ** ProcessScheduleInput: Schedule:Year=\"SCHEDULE RULESET 159\", Blank Schedule Type Limits Name input -- will not be validated.\n   ** Warning ** ProcessScheduleInput: Schedule:Year=\"SCHEDULE RULESET 16\", Blank Schedule Type Limits Name input -- will not be validated.\n   ** Warning ** ProcessScheduleInput: Schedule:Year=\"SCHEDULE RULESET 160\", Blank Schedule Type Limits Name input -- will not be validated.\n   ** Warning ** ProcessScheduleInput: Schedule:Year=\"SCHEDULE RULESET 161\", Blank Schedule Type Limits Name input -- will not be validated.\n   ** Warning ** ProcessScheduleInput: Schedule:Year=\"SCHEDULE RULESET 162\", Blank Schedule Type Limits Name input -- will not be validated.\n   ** Warning ** ProcessScheduleInput: Schedule:Year=\"SCHEDULE RULESET 163\", Blank Schedule Type Limits Name input -- will not be validated.\n   ** Warning ** ProcessScheduleInput: Schedule:Year=\"SCHEDULE RULESET 164\", Blank Schedule Type Limits Name input -- will not be validated.\n   ** Warning ** ProcessScheduleInput: Schedule:Year=\"SCHEDULE RULESET 165\", Blank Schedule Type Limits Name input -- will not be validated.\n   ** Warning ** ProcessScheduleInput: Schedule:Year=\"SCHEDULE RULESET 166\", Blank Schedule Type Limits Name input -- will not be validated.\n   ** Warning ** ProcessScheduleInput: Schedule:Year=\"SCHEDULE RULESET 167\", Blank Schedule Type Limits Name input -- will not be validated.\n   ** Warning ** ProcessScheduleInput: Schedule:Year=\"SCHEDULE RULESET 168\", Blank Schedule Type Limits Name input -- will not be validated.\n   ** Warning ** ProcessScheduleInput: Schedule:Year=\"SCHEDULE RULESET 169\", Blank Schedule Type Limits Name input -- will not be validated.\n   ** Warning ** ProcessScheduleInput: Schedule:Year=\"SCHEDULE RULESET 17\", Blank Schedule Type Limits Name input -- will not be validated.\n   ** Warning ** ProcessScheduleInput: Schedule:Year=\"SCHEDULE RULESET 170\", Blank Schedule Type Limits Name input -- will not be validated.\n   ** Warning ** ProcessScheduleInput: Schedule:Year=\"SCHEDULE RULESET 171\", Blank Schedule Type Limits Name input -- will not be validated.\n   ** Warning ** ProcessScheduleInput: Schedule:Year=\"SCHEDULE RULESET 172\", Blank Schedule Type Limits Name input -- will not be validated.\n   ** Warning ** ProcessScheduleInput: Schedule:Year=\"SCHEDULE RULESET 173\", Blank Schedule Type Limits Name input -- will not be validated.\n   ** Warning ** ProcessScheduleInput: Schedule:Year=\"SCHEDULE RULESET 174\", Blank Schedule Type Limits Name input -- will not be validated.\n   ** Warning ** ProcessScheduleInput: Schedule:Year=\"SCHEDULE RULESET 175\", Blank Schedule Type Limits Name input -- will not be validated.\n   ** Warning ** ProcessScheduleInput: Schedule:Year=\"SCHEDULE RULESET 176\", Blank Schedule Type Limits Name input -- will not be validated.\n   ** Warning ** ProcessScheduleInput: Schedule:Year=\"SCHEDULE RULESET 177\", Blank Schedule Type Limits Name input -- will not be validated.\n   ** Warning ** ProcessScheduleInput: Schedule:Year=\"SCHEDULE RULESET 178\", Blank Schedule Type Limits Name input -- will not be validated.\n   ** Warning ** ProcessScheduleInput: Schedule:Year=\"SCHEDULE RULESET 179\", Blank Schedule Type Limits Name input -- will not be validated.\n   ** Warning ** ProcessScheduleInput: Schedule:Year=\"SCHEDULE RULESET 18\", Blank Schedule Type Limits Name input -- will not be validated.\n   ** Warning ** ProcessScheduleInput: Schedule:Year=\"SCHEDULE RULESET 180\", Blank Schedule Type Limits Name input -- will not be validated.\n   ** Warning ** ProcessScheduleInput: Schedule:Year=\"SCHEDULE RULESET 181\", Blank Schedule Type Limits Name input -- will not be validated.\n   ** Warning ** ProcessScheduleInput: Schedule:Year=\"SCHEDULE RULESET 182\", Blank Schedule Type Limits Name input -- will not be validated.\n   ** Warning ** ProcessScheduleInput: Schedule:Year=\"SCHEDULE RULESET 183\", Blank Schedule Type Limits Name input -- will not be validated.\n   ** Warning ** ProcessScheduleInput: Schedule:Year=\"SCHEDULE RULESET 184\", Blank Schedule Type Limits Name input -- will not be validated.\n   ** Warning ** ProcessScheduleInput: Schedule:Year=\"SCHEDULE RULESET 185\", Blank Schedule Type Limits Name input -- will not be validated.\n   ** Warning ** ProcessScheduleInput: Schedule:Year=\"SCHEDULE RULESET 186\", Blank Schedule Type Limits Name input -- will not be validated.\n   ** Warning ** ProcessScheduleInput: Schedule:Year=\"SCHEDULE RULESET 187\", Blank Schedule Type Limits Name input -- will not be validated.\n   ** Warning ** ProcessScheduleInput: Schedule:Year=\"SCHEDULE RULESET 188\", Blank Schedule Type Limits Name input -- will not be validated.\n   ** Warning ** ProcessScheduleInput: Schedule:Year=\"SCHEDULE RULESET 189\", Blank Schedule Type Limits Name input -- will not be validated.\n   ** Warning ** ProcessScheduleInput: Schedule:Year=\"SCHEDULE RULESET 19\", Blank Schedule Type Limits Name input -- will not be validated.\n   ** Warning ** ProcessScheduleInput: Schedule:Year=\"SCHEDULE RULESET 190\", Blank Schedule Type Limits Name input -- will not be validated.\n   ** Warning ** ProcessScheduleInput: Schedule:Year=\"SCHEDULE RULESET 191\", Blank Schedule Type Limits Name input -- will not be validated.\n   ** Warning ** ProcessScheduleInput: Schedule:Year=\"SCHEDULE RULESET 192\", Blank Schedule Type Limits Name input -- will not be validated.\n   ** Warning ** ProcessScheduleInput: Schedule:Year=\"SCHEDULE RULESET 193\", Blank Schedule Type Limits Name input -- will not be validated.\n   ** Warning ** ProcessScheduleInput: Schedule:Year=\"SCHEDULE RULESET 194\", Blank Schedule Type Limits Name input -- will not be validated.\n   ** Warning ** ProcessScheduleInput: Schedule:Year=\"SCHEDULE RULESET 195\", Blank Schedule Type Limits Name input -- will not be validated.\n   ** Warning ** ProcessScheduleInput: Schedule:Year=\"SCHEDULE RULESET 196\", Blank Schedule Type Limits Name input -- will not be validated.\n   ** Warning ** ProcessScheduleInput: Schedule:Year=\"SCHEDULE RULESET 197\", Blank Schedule Type Limits Name input -- will not be validated.\n   ** Warning ** ProcessScheduleInput: Schedule:Year=\"SCHEDULE RULESET 198\", Blank Schedule Type Limits Name input -- will not be validated.\n   ** Warning ** ProcessScheduleInput: Schedule:Year=\"SCHEDULE RULESET 199\", Blank Schedule Type Limits Name input -- will not be validated.\n   ** Warning ** ProcessScheduleInput: Schedule:Year=\"SCHEDULE RULESET 20\", Blank Schedule Type Limits Name input -- will not be validated.\n   ** Warning ** ProcessScheduleInput: Schedule:Year=\"SCHEDULE RULESET 200\", Blank Schedule Type Limits Name input -- will not be validated.\n   ** Warning ** ProcessScheduleInput: Schedule:Year=\"SCHEDULE RULESET 201\", Blank Schedule Type Limits Name input -- will not be validated.\n   ** Warning ** ProcessScheduleInput: Schedule:Year=\"SCHEDULE RULESET 202\", Blank Schedule Type Limits Name input -- will not be validated.\n   ** Warning ** ProcessScheduleInput: Schedule:Year=\"SCHEDULE RULESET 203\", Blank Schedule Type Limits Name input -- will not be validated.\n   ** Warning ** ProcessScheduleInput: Schedule:Year=\"SCHEDULE RULESET 204\", Blank Schedule Type Limits Name input -- will not be validated.\n   ** Warning ** ProcessScheduleInput: Schedule:Year=\"SCHEDULE RULESET 205\", Blank Schedule Type Limits Name input -- will not be validated.\n   ** Warning ** ProcessScheduleInput: Schedule:Year=\"SCHEDULE RULESET 206\", Blank Schedule Type Limits Name input -- will not be validated.\n   ** Warning ** ProcessScheduleInput: Schedule:Year=\"SCHEDULE RULESET 207\", Blank Schedule Type Limits Name input -- will not be validated.\n   ** Warning ** ProcessScheduleInput: Schedule:Year=\"SCHEDULE RULESET 208\", Blank Schedule Type Limits Name input -- will not be validated.\n   ** Warning ** ProcessScheduleInput: Schedule:Year=\"SCHEDULE RULESET 209\", Blank Schedule Type Limits Name input -- will not be validated.\n   ** Warning ** ProcessScheduleInput: Schedule:Year=\"SCHEDULE RULESET 21\", Blank Schedule Type Limits Name input -- will not be validated.\n   ** Warning ** ProcessScheduleInput: Schedule:Year=\"SCHEDULE RULESET 210\", Blank Schedule Type Limits Name input -- will not be validated.\n   ** Warning ** ProcessScheduleInput: Schedule:Year=\"SCHEDULE RULESET 211\", Blank Schedule Type Limits Name input -- will not be validated.\n   ** Warning ** ProcessScheduleInput: Schedule:Year=\"SCHEDULE RULESET 212\", Blank Schedule Type Limits Name input -- will not be validated.\n   ** Warning ** ProcessScheduleInput: Schedule:Year=\"SCHEDULE RULESET 213\", Blank Schedule Type Limits Name input -- will not be validated.\n   ** Warning ** ProcessScheduleInput: Schedule:Year=\"SCHEDULE RULESET 214\", Blank Schedule Type Limits Name input -- will not be validated.\n   ** Warning ** ProcessScheduleInput: Schedule:Year=\"SCHEDULE RULESET 215\", Blank Schedule Type Limits Name input -- will not be validated.\n   ** Warning ** ProcessScheduleInput: Schedule:Year=\"SCHEDULE RULESET 216\", Blank Schedule Type Limits Name input -- will not be validated.\n   ** Warning ** ProcessScheduleInput: Schedule:Year=\"SCHEDULE RULESET 217\", Blank Schedule Type Limits Name input -- will not be validated.\n   ** Warning ** ProcessScheduleInput: Schedule:Year=\"SCHEDULE RULESET 218\", Blank Schedule Type Limits Name input -- will not be validated.\n   ** Warning ** ProcessScheduleInput: Schedule:Year=\"SCHEDULE RULESET 219\", Blank Schedule Type Limits Name input -- will not be validated.\n   ** Warning ** ProcessScheduleInput: Schedule:Year=\"SCHEDULE RULESET 22\", Blank Schedule Type Limits Name input -- will not be validated.\n   ** Warning ** ProcessScheduleInput: Schedule:Year=\"SCHEDULE RULESET 220\", Blank Schedule Type Limits Name input -- will not be validated.\n   ** Warning ** ProcessScheduleInput: Schedule:Year=\"SCHEDULE RULESET 221\", Blank Schedule Type Limits Name input -- will not be validated.\n   ** Warning ** ProcessScheduleInput: Schedule:Year=\"SCHEDULE RULESET 222\", Blank Schedule Type Limits Name input -- will not be validated.\n   ** Warning ** ProcessScheduleInput: Schedule:Year=\"SCHEDULE RULESET 223\", Blank Schedule Type Limits Name input -- will not be validated.\n   ** Warning ** ProcessScheduleInput: Schedule:Year=\"SCHEDULE RULESET 224\", Blank Schedule Type Limits Name input -- will not be validated.\n   ** Warning ** ProcessScheduleInput: Schedule:Year=\"SCHEDULE RULESET 225\", Blank Schedule Type Limits Name input -- will not be validated.\n   ** Warning ** ProcessScheduleInput: Schedule:Year=\"SCHEDULE RULESET 226\", Blank Schedule Type Limits Name input -- will not be validated.\n   ** Warning ** ProcessScheduleInput: Schedule:Year=\"SCHEDULE RULESET 227\", Blank Schedule Type Limits Name input -- will not be validated.\n   ** Warning ** ProcessScheduleInput: Schedule:Year=\"SCHEDULE RULESET 228\", Blank Schedule Type Limits Name input -- will not be validated.\n   ** Warning ** ProcessScheduleInput: Schedule:Year=\"SCHEDULE RULESET 229\", Blank Schedule Type Limits Name input -- will not be validated.\n   ** Warning ** ProcessScheduleInput: Schedule:Year=\"SCHEDULE RULESET 23\", Blank Schedule Type Limits Name input -- will not be validated.\n   ** Warning ** ProcessScheduleInput: Schedule:Year=\"SCHEDULE RULESET 230\", Blank Schedule Type Limits Name input -- will not be validated.\n   ** Warning ** ProcessScheduleInput: Schedule:Year=\"SCHEDULE RULESET 231\", Blank Schedule Type Limits Name input -- will not be validated.\n   ** Warning ** ProcessScheduleInput: Schedule:Year=\"SCHEDULE RULESET 232\", Blank Schedule Type Limits Name input -- will not be validated.\n   ** Warning ** ProcessScheduleInput: Schedule:Year=\"SCHEDULE RULESET 233\", Blank Schedule Type Limits Name input -- will not be validated.\n   ** Warning ** ProcessScheduleInput: Schedule:Year=\"SCHEDULE RULESET 234\", Blank Schedule Type Limits Name input -- will not be validated.\n   ** Warning ** ProcessScheduleInput: Schedule:Year=\"SCHEDULE RULESET 235\", Blank Schedule Type Limits Name input -- will not be validated.\n   ** Warning ** ProcessScheduleInput: Schedule:Year=\"SCHEDULE RULESET 236\", Blank Schedule Type Limits Name input -- will not be validated.\n   ** Warning ** ProcessScheduleInput: Schedule:Year=\"SCHEDULE RULESET 237\", Blank Schedule Type Limits Name input -- will not be validated.\n   ** Warning ** ProcessScheduleInput: Schedule:Year=\"SCHEDULE RULESET 238\", Blank Schedule Type Limits Name input -- will not be validated.\n   ** Warning ** ProcessScheduleInput: Schedule:Year=\"SCHEDULE RULESET 239\", Blank Schedule Type Limits Name input -- will not be validated.\n   ** Warning ** ProcessScheduleInput: Schedule:Year=\"SCHEDULE RULESET 24\", Blank Schedule Type Limits Name input -- will not be validated.\n   ** Warning ** ProcessScheduleInput: Schedule:Year=\"SCHEDULE RULESET 240\", Blank Schedule Type Limits Name input -- will not be validated.\n   ** Warning ** ProcessScheduleInput: Schedule:Year=\"SCHEDULE RULESET 241\", Blank Schedule Type Limits Name input -- will not be validated.\n   ** Warning ** ProcessScheduleInput: Schedule:Year=\"SCHEDULE RULESET 242\", Blank Schedule Type Limits Name input -- will not be validated.\n   ** Warning ** ProcessScheduleInput: Schedule:Year=\"SCHEDULE RULESET 25\", Blank Schedule Type Limits Name input -- will not be validated.\n   ** Warning ** ProcessScheduleInput: Schedule:Year=\"SCHEDULE RULESET 26\", Blank Schedule Type Limits Name input -- will not be validated.\n   ** Warning ** ProcessScheduleInput: Schedule:Year=\"SCHEDULE RULESET 27\", Blank Schedule Type Limits Name input -- will not be validated.\n   ** Warning ** ProcessScheduleInput: Schedule:Year=\"SCHEDULE RULESET 28\", Blank Schedule Type Limits Name input -- will not be validated.\n   ** Warning ** ProcessScheduleInput: Schedule:Year=\"SCHEDULE RULESET 29\", Blank Schedule Type Limits Name input -- will not be validated.\n   ** Warning ** ProcessScheduleInput: Schedule:Year=\"SCHEDULE RULESET 3\", Blank Schedule Type Limits Name input -- will not be validated.\n   ** Warning ** ProcessScheduleInput: Schedule:Year=\"SCHEDULE RULESET 30\", Blank Schedule Type Limits Name input -- will not be validated.\n   ** Warning ** ProcessScheduleInput: Schedule:Year=\"SCHEDULE RULESET 31\", Blank Schedule Type Limits Name input -- will not be validated.\n   ** Warning ** ProcessScheduleInput: Schedule:Year=\"SCHEDULE RULESET 32\", Blank Schedule Type Limits Name input -- will not be validated.\n   ** Warning ** ProcessScheduleInput: Schedule:Year=\"SCHEDULE RULESET 33\", Blank Schedule Type Limits Name input -- will not be validated.\n   ** Warning ** ProcessScheduleInput: Schedule:Year=\"SCHEDULE RULESET 34\", Blank Schedule Type Limits Name input -- will not be validated.\n   ** Warning ** ProcessScheduleInput: Schedule:Year=\"SCHEDULE RULESET 35\", Blank Schedule Type Limits Name input -- will not be validated.\n   ** Warning ** ProcessScheduleInput: Schedule:Year=\"SCHEDULE RULESET 36\", Blank Schedule Type Limits Name input -- will not be validated.\n   ** Warning ** ProcessScheduleInput: Schedule:Year=\"SCHEDULE RULESET 37\", Blank Schedule Type Limits Name input -- will not be validated.\n   ** Warning ** ProcessScheduleInput: Schedule:Year=\"SCHEDULE RULESET 38\", Blank Schedule Type Limits Name input -- will not be validated.\n   ** Warning ** ProcessScheduleInput: Schedule:Year=\"SCHEDULE RULESET 39\", Blank Schedule Type Limits Name input -- will not be validated.\n   ** Warning ** ProcessScheduleInput: Schedule:Year=\"SCHEDULE RULESET 4\", Blank Schedule Type Limits Name input -- will not be validated.\n   ** Warning ** ProcessScheduleInput: Schedule:Year=\"SCHEDULE RULESET 40\", Blank Schedule Type Limits Name input -- will not be validated.\n   ** Warning ** ProcessScheduleInput: Schedule:Year=\"SCHEDULE RULESET 41\", Blank Schedule Type Limits Name input -- will not be validated.\n   ** Warning ** ProcessScheduleInput: Schedule:Year=\"SCHEDULE RULESET 42\", Blank Schedule Type Limits Name input -- will not be validated.\n   ** Warning ** ProcessScheduleInput: Schedule:Year=\"SCHEDULE RULESET 43\", Blank Schedule Type Limits Name input -- will not be validated.\n   ** Warning ** ProcessScheduleInput: Schedule:Year=\"SCHEDULE RULESET 44\", Blank Schedule Type Limits Name input -- will not be validated.\n   ** Warning ** ProcessScheduleInput: Schedule:Year=\"SCHEDULE RULESET 45\", Blank Schedule Type Limits Name input -- will not be validated.\n   ** Warning ** ProcessScheduleInput: Schedule:Year=\"SCHEDULE RULESET 46\", Blank Schedule Type Limits Name input -- will not be validated.\n   ** Warning ** ProcessScheduleInput: Schedule:Year=\"SCHEDULE RULESET 47\", Blank Schedule Type Limits Name input -- will not be validated.\n   ** Warning ** ProcessScheduleInput: Schedule:Year=\"SCHEDULE RULESET 48\", Blank Schedule Type Limits Name input -- will not be validated.\n   ** Warning ** ProcessScheduleInput: Schedule:Year=\"SCHEDULE RULESET 49\", Blank Schedule Type Limits Name input -- will not be validated.\n   ** Warning ** ProcessScheduleInput: Schedule:Year=\"SCHEDULE RULESET 5\", Blank Schedule Type Limits Name input -- will not be validated.\n   ** Warning ** ProcessScheduleInput: Schedule:Year=\"SCHEDULE RULESET 50\", Blank Schedule Type Limits Name input -- will not be validated.\n   ** Warning ** ProcessScheduleInput: Schedule:Year=\"SCHEDULE RULESET 51\", Blank Schedule Type Limits Name input -- will not be validated.\n   ** Warning ** ProcessScheduleInput: Schedule:Year=\"SCHEDULE RULESET 52\", Blank Schedule Type Limits Name input -- will not be validated.\n   ** Warning ** ProcessScheduleInput: Schedule:Year=\"SCHEDULE RULESET 53\", Blank Schedule Type Limits Name input -- will not be validated.\n   ** Warning ** ProcessScheduleInput: Schedule:Year=\"SCHEDULE RULESET 54\", Blank Schedule Type Limits Name input -- will not be validated.\n   ** Warning ** ProcessScheduleInput: Schedule:Year=\"SCHEDULE RULESET 55\", Blank Schedule Type Limits Name input -- will not be validated.\n   ** Warning ** ProcessScheduleInput: Schedule:Year=\"SCHEDULE RULESET 56\", Blank Schedule Type Limits Name input -- will not be validated.\n   ** Warning ** ProcessScheduleInput: Schedule:Year=\"SCHEDULE RULESET 57\", Blank Schedule Type Limits Name input -- will not be validated.\n   ** Warning ** ProcessScheduleInput: Schedule:Year=\"SCHEDULE RULESET 58\", Blank Schedule Type Limits Name input -- will not be validated.\n   ** Warning ** ProcessScheduleInput: Schedule:Year=\"SCHEDULE RULESET 59\", Blank Schedule Type Limits Name input -- will not be validated.\n   ** Warning ** ProcessScheduleInput: Schedule:Year=\"SCHEDULE RULESET 6\", Blank Schedule Type Limits Name input -- will not be validated.\n   ** Warning ** ProcessScheduleInput: Schedule:Year=\"SCHEDULE RULESET 60\", Blank Schedule Type Limits Name input -- will not be validated.\n   ** Warning ** ProcessScheduleInput: Schedule:Year=\"SCHEDULE RULESET 61\", Blank Schedule Type Limits Name input -- will not be validated.\n   ** Warning ** ProcessScheduleInput: Schedule:Year=\"SCHEDULE RULESET 62\", Blank Schedule Type Limits Name input -- will not be validated.\n   ** Warning ** ProcessScheduleInput: Schedule:Year=\"SCHEDULE RULESET 63\", Blank Schedule Type Limits Name input -- will not be validated.\n   ** Warning ** ProcessScheduleInput: Schedule:Year=\"SCHEDULE RULESET 64\", Blank Schedule Type Limits Name input -- will not be validated.\n   ** Warning ** ProcessScheduleInput: Schedule:Year=\"SCHEDULE RULESET 65\", Blank Schedule Type Limits Name input -- will not be validated.\n   ** Warning ** ProcessScheduleInput: Schedule:Year=\"SCHEDULE RULESET 66\", Blank Schedule Type Limits Name input -- will not be validated.\n   ** Warning ** ProcessScheduleInput: Schedule:Year=\"SCHEDULE RULESET 67\", Blank Schedule Type Limits Name input -- will not be validated.\n   ** Warning ** ProcessScheduleInput: Schedule:Year=\"SCHEDULE RULESET 68\", Blank Schedule Type Limits Name input -- will not be validated.\n   ** Warning ** ProcessScheduleInput: Schedule:Year=\"SCHEDULE RULESET 69\", Blank Schedule Type Limits Name input -- will not be validated.\n   ** Warning ** ProcessScheduleInput: Schedule:Year=\"SCHEDULE RULESET 7\", Blank Schedule Type Limits Name input -- will not be validated.\n   ** Warning ** ProcessScheduleInput: Schedule:Year=\"SCHEDULE RULESET 70\", Blank Schedule Type Limits Name input -- will not be validated.\n   ** Warning ** ProcessScheduleInput: Schedule:Year=\"SCHEDULE RULESET 71\", Blank Schedule Type Limits Name input -- will not be validated.\n   ** Warning ** ProcessScheduleInput: Schedule:Year=\"SCHEDULE RULESET 72\", Blank Schedule Type Limits Name input -- will not be validated.\n   ** Warning ** ProcessScheduleInput: Schedule:Year=\"SCHEDULE RULESET 73\", Blank Schedule Type Limits Name input -- will not be validated.\n   ** Warning ** ProcessScheduleInput: Schedule:Year=\"SCHEDULE RULESET 74\", Blank Schedule Type Limits Name input -- will not be validated.\n   ** Warning ** ProcessScheduleInput: Schedule:Year=\"SCHEDULE RULESET 75\", Blank Schedule Type Limits Name input -- will not be validated.\n   ** Warning ** ProcessScheduleInput: Schedule:Year=\"SCHEDULE RULESET 76\", Blank Schedule Type Limits Name input -- will not be validated.\n   ** Warning ** ProcessScheduleInput: Schedule:Year=\"SCHEDULE RULESET 77\", Blank Schedule Type Limits Name input -- will not be validated.\n   ** Warning ** ProcessScheduleInput: Schedule:Year=\"SCHEDULE RULESET 78\", Blank Schedule Type Limits Name input -- will not be validated.\n   ** Warning ** ProcessScheduleInput: Schedule:Year=\"SCHEDULE RULESET 79\", Blank Schedule Type Limits Name input -- will not be validated.\n   ** Warning ** ProcessScheduleInput: Schedule:Year=\"SCHEDULE RULESET 8\", Blank Schedule Type Limits Name input -- will not be validated.\n   ** Warning ** ProcessScheduleInput: Schedule:Year=\"SCHEDULE RULESET 80\", Blank Schedule Type Limits Name input -- will not be validated.\n   ** Warning ** ProcessScheduleInput: Schedule:Year=\"SCHEDULE RULESET 81\", Blank Schedule Type Limits Name input -- will not be validated.\n   ** Warning ** ProcessScheduleInput: Schedule:Year=\"SCHEDULE RULESET 82\", Blank Schedule Type Limits Name input -- will not be validated.\n   ** Warning ** ProcessScheduleInput: Schedule:Year=\"SCHEDULE RULESET 83\", Blank Schedule Type Limits Name input -- will not be validated.\n   ** Warning ** ProcessScheduleInput: Schedule:Year=\"SCHEDULE RULESET 84\", Blank Schedule Type Limits Name input -- will not be validated.\n   ** Warning ** ProcessScheduleInput: Schedule:Year=\"SCHEDULE RULESET 85\", Blank Schedule Type Limits Name input -- will not be validated.\n   ** Warning ** ProcessScheduleInput: Schedule:Year=\"SCHEDULE RULESET 86\", Blank Schedule Type Limits Name input -- will not be validated.\n   ** Warning ** ProcessScheduleInput: Schedule:Year=\"SCHEDULE RULESET 87\", Blank Schedule Type Limits Name input -- will not be validated.\n   ** Warning ** ProcessScheduleInput: Schedule:Year=\"SCHEDULE RULESET 88\", Blank Schedule Type Limits Name input -- will not be validated.\n   ** Warning ** ProcessScheduleInput: Schedule:Year=\"SCHEDULE RULESET 89\", Blank Schedule Type Limits Name input -- will not be validated.\n   ** Warning ** ProcessScheduleInput: Schedule:Year=\"SCHEDULE RULESET 9\", Blank Schedule Type Limits Name input -- will not be validated.\n   ** Warning ** ProcessScheduleInput: Schedule:Year=\"SCHEDULE RULESET 90\", Blank Schedule Type Limits Name input -- will not be validated.\n   ** Warning ** ProcessScheduleInput: Schedule:Year=\"SCHEDULE RULESET 91\", Blank Schedule Type Limits Name input -- will not be validated.\n   ** Warning ** ProcessScheduleInput: Schedule:Year=\"SCHEDULE RULESET 92\", Blank Schedule Type Limits Name input -- will not be validated.\n   ** Warning ** ProcessScheduleInput: Schedule:Year=\"SCHEDULE RULESET 93\", Blank Schedule Type Limits Name input -- will not be validated.\n   ** Warning ** ProcessScheduleInput: Schedule:Year=\"SCHEDULE RULESET 94\", Blank Schedule Type Limits Name input -- will not be validated.\n   ** Warning ** ProcessScheduleInput: Schedule:Year=\"SCHEDULE RULESET 95\", Blank Schedule Type Limits Name input -- will not be validated.\n   ** Warning ** ProcessScheduleInput: Schedule:Year=\"SCHEDULE RULESET 96\", Blank Schedule Type Limits Name input -- will not be validated.\n   ** Warning ** ProcessScheduleInput: Schedule:Year=\"SCHEDULE RULESET 97\", Blank Schedule Type Limits Name input -- will not be validated.\n   ** Warning ** ProcessScheduleInput: Schedule:Year=\"SCHEDULE RULESET 98\", Blank Schedule Type Limits Name input -- will not be validated.\n   ** Warning ** ProcessScheduleInput: Schedule:Year=\"SCHEDULE RULESET 99\", Blank Schedule Type Limits Name input -- will not be validated.\n   ** Warning ** ProcessScheduleInput: Schedule:Constant=\"ALWAYS OFF DISCRETE\", Blank Schedule Type Limits Name input -- will not be validated.\n   ** Warning ** ProcessScheduleInput: Schedule:Constant=\"ALWAYS ON CONTINUOUS\", Blank Schedule Type Limits Name input -- will not be validated.\n   ** Warning ** CheckUsedConstructions: There are 24 nominally unused constructions in input.\n   **   ~~~   ** For explicit details on each unused construction, use Output:Diagnostics,DisplayExtraWarnings;\n   ************* Beginning System Sizing Calculations\n   ** Warning ** GetDXCoils: Coil:Cooling:DX:SingleSpeed=\"COIL COOLING DX SINGLE SPEED 59 5KBTU/HR 11.0EER\", invalid\n   **   ~~~   ** ...Part Load Fraction Correlation Curve Name = DXCOOL-NECB2011-REF-COOLPLFFPLR 54 has out of range value.\n   **   ~~~   ** ...Curve maximum must be <= 1.0, curve max at PLR = 0.99 is 1.015\n   **   ~~~   ** ...Setting curve maximum to 1.0 and simulation continues.\n   ** Warning ** GetDXCoils: Coil:Cooling:DX:SingleSpeed=\"COIL COOLING DX SINGLE SPEED 56 5KBTU/HR 11.0EER\", invalid\n   **   ~~~   ** ...Part Load Fraction Correlation Curve Name = DXCOOL-NECB2011-REF-COOLPLFFPLR 51 has out of range value.\n   **   ~~~   ** ...Curve maximum must be <= 1.0, curve max at PLR = 0.99 is 1.015\n   **   ~~~   ** ...Setting curve maximum to 1.0 and simulation continues.\n   ** Warning ** GetDXCoils: Coil:Cooling:DX:SingleSpeed=\"COIL COOLING DX SINGLE SPEED 57 5KBTU/HR 11.0EER\", invalid\n   **   ~~~   ** ...Part Load Fraction Correlation Curve Name = DXCOOL-NECB2011-REF-COOLPLFFPLR 52 has out of range value.\n   **   ~~~   ** ...Curve maximum must be <= 1.0, curve max at PLR = 0.99 is 1.015\n   **   ~~~   ** ...Setting curve maximum to 1.0 and simulation continues.\n   ** Warning ** GetDXCoils: Coil:Cooling:DX:SingleSpeed=\"COIL COOLING DX SINGLE SPEED 58 9KBTU/HR 10.6EER\", invalid\n   **   ~~~   ** ...Part Load Fraction Correlation Curve Name = DXCOOL-NECB2011-REF-COOLPLFFPLR 53 has out of range value.\n   **   ~~~   ** ...Curve maximum must be <= 1.0, curve max at PLR = 0.99 is 1.015\n   **   ~~~   ** ...Setting curve maximum to 1.0 and simulation continues.\n   ** Warning ** GetDXCoils: Coil:Cooling:DX:SingleSpeed=\"COIL COOLING DX SINGLE SPEED 55 10KBTU/HR 10.5EER\", invalid\n   **   ~~~   ** ...Part Load Fraction Correlation Curve Name = DXCOOL-NECB2011-REF-COOLPLFFPLR 50 has out of range value.\n   **   ~~~   ** ...Curve maximum must be <= 1.0, curve max at PLR = 0.99 is 1.015\n   **   ~~~   ** ...Setting curve maximum to 1.0 and simulation continues.\n   ** Warning ** GetDXCoils: Coil:Cooling:DX:SingleSpeed=\"COIL COOLING DX SINGLE SPEED 63 7KBTU/HR 11.0EER\", invalid\n   **   ~~~   ** ...Part Load Fraction Correlation Curve Name = DXCOOL-NECB2011-REF-COOLPLFFPLR 59 has out of range value.\n   **   ~~~   ** ...Curve maximum must be <= 1.0, curve max at PLR = 0.99 is 1.015\n   **   ~~~   ** ...Setting curve maximum to 1.0 and simulation continues.\n   ** Warning ** GetDXCoils: Coil:Cooling:DX:SingleSpeed=\"COIL COOLING DX SINGLE SPEED 62 7KBTU/HR 11.0EER\", invalid\n   **   ~~~   ** ...Part Load Fraction Correlation Curve Name = DXCOOL-NECB2011-REF-COOLPLFFPLR 58 has out of range value.\n   **   ~~~   ** ...Curve maximum must be <= 1.0, curve max at PLR = 0.99 is 1.015\n   **   ~~~   ** ...Setting curve maximum to 1.0 and simulation continues.\n   ** Warning ** GetDXCoils: Coil:Cooling:DX:SingleSpeed=\"COIL COOLING DX SINGLE SPEED 60 10KBTU/HR 10.3EER\", invalid\n   **   ~~~   ** ...Part Load Fraction Correlation Curve Name = DXCOOL-NECB2011-REF-COOLPLFFPLR 56 has out of range value.\n   **   ~~~   ** ...Curve maximum must be <= 1.0, curve max at PLR = 0.99 is 1.015\n   **   ~~~   ** ...Setting curve maximum to 1.0 and simulation continues.\n   ** Warning ** GetDXCoils: Coil:Cooling:DX:SingleSpeed=\"COIL COOLING DX SINGLE SPEED 61 11KBTU/HR 10.1EER\", invalid\n   **   ~~~   ** ...Part Load Fraction Correlation Curve Name = DXCOOL-NECB2011-REF-COOLPLFFPLR 57 has out of range value.\n   **   ~~~   ** ...Curve maximum must be <= 1.0, curve max at PLR = 0.99 is 1.015\n   **   ~~~   ** ...Setting curve maximum to 1.0 and simulation continues.\n   ** Warning ** GetDXCoils: Coil:Cooling:DX:SingleSpeed=\"COIL COOLING DX SINGLE SPEED 77 5KBTU/HR 11.0EER\", invalid\n   **   ~~~   ** ...Part Load Fraction Correlation Curve Name = DXCOOL-NECB2011-REF-COOLPLFFPLR 74 has out of range value.\n   **   ~~~   ** ...Curve maximum must be <= 1.0, curve max at PLR = 0.99 is 1.015\n   **   ~~~   ** ...Setting curve maximum to 1.0 and simulation continues.\n   ** Warning ** GetDXCoils: Coil:Cooling:DX:SingleSpeed=\"COIL COOLING DX SINGLE SPEED 73 5KBTU/HR 11.0EER\", invalid\n   **   ~~~   ** ...Part Load Fraction Correlation Curve Name = DXCOOL-NECB2011-REF-COOLPLFFPLR 70 has out of range value.\n   **   ~~~   ** ...Curve maximum must be <= 1.0, curve max at PLR = 0.99 is 1.015\n   **   ~~~   ** ...Setting curve maximum to 1.0 and simulation continues.\n   ** Warning ** GetDXCoils: Coil:Cooling:DX:SingleSpeed=\"COIL COOLING DX SINGLE SPEED 75 5KBTU/HR 11.0EER\", invalid\n   **   ~~~   ** ...Part Load Fraction Correlation Curve Name = DXCOOL-NECB2011-REF-COOLPLFFPLR 72 has out of range value.\n   **   ~~~   ** ...Curve maximum must be <= 1.0, curve max at PLR = 0.99 is 1.015\n   **   ~~~   ** ...Setting curve maximum to 1.0 and simulation continues.\n   ** Warning ** GetDXCoils: Coil:Cooling:DX:SingleSpeed=\"COIL COOLING DX SINGLE SPEED 76 9KBTU/HR 10.6EER\", invalid\n   **   ~~~   ** ...Part Load Fraction Correlation Curve Name = DXCOOL-NECB2011-REF-COOLPLFFPLR 73 has out of range value.\n   **   ~~~   ** ...Curve maximum must be <= 1.0, curve max at PLR = 0.99 is 1.015\n   **   ~~~   ** ...Setting curve maximum to 1.0 and simulation continues.\n   ** Warning ** GetDXCoils: Coil:Cooling:DX:SingleSpeed=\"COIL COOLING DX SINGLE SPEED 74 10KBTU/HR 10.5EER\", invalid\n   **   ~~~   ** ...Part Load Fraction Correlation Curve Name = DXCOOL-NECB2011-REF-COOLPLFFPLR 71 has out of range value.\n   **   ~~~   ** ...Curve maximum must be <= 1.0, curve max at PLR = 0.99 is 1.015\n   **   ~~~   ** ...Setting curve maximum to 1.0 and simulation continues.\n   ** Warning ** GetDXCoils: Coil:Cooling:DX:SingleSpeed=\"COIL COOLING DX SINGLE SPEED 81 7KBTU/HR 11.0EER\", invalid\n   **   ~~~   ** ...Part Load Fraction Correlation Curve Name = DXCOOL-NECB2011-REF-COOLPLFFPLR 79 has out of range value.\n   **   ~~~   ** ...Curve maximum must be <= 1.0, curve max at PLR = 0.99 is 1.015\n   **   ~~~   ** ...Setting curve maximum to 1.0 and simulation continues.\n   ** Warning ** GetDXCoils: Coil:Cooling:DX:SingleSpeed=\"COIL COOLING DX SINGLE SPEED 80 7KBTU/HR 11.0EER\", invalid\n   **   ~~~   ** ...Part Load Fraction Correlation Curve Name = DXCOOL-NECB2011-REF-COOLPLFFPLR 78 has out of range value.\n   **   ~~~   ** ...Curve maximum must be <= 1.0, curve max at PLR = 0.99 is 1.015\n   **   ~~~   ** ...Setting curve maximum to 1.0 and simulation continues.\n   ** Warning ** GetDXCoils: Coil:Cooling:DX:SingleSpeed=\"COIL COOLING DX SINGLE SPEED 78 10KBTU/HR 10.4EER\", invalid\n   **   ~~~   ** ...Part Load Fraction Correlation Curve Name = DXCOOL-NECB2011-REF-COOLPLFFPLR 75 has out of range value.\n   **   ~~~   ** ...Curve maximum must be <= 1.0, curve max at PLR = 0.99 is 1.015\n   **   ~~~   ** ...Setting curve maximum to 1.0 and simulation continues.\n   ** Warning ** GetDXCoils: Coil:Cooling:DX:SingleSpeed=\"COIL COOLING DX SINGLE SPEED 79 11KBTU/HR 10.1EER\", invalid\n   **   ~~~   ** ...Part Load Fraction Correlation Curve Name = DXCOOL-NECB2011-REF-COOLPLFFPLR 76 has out of rang
[...]
IcvU6M9gkNZpwZ3Q1OzPVJDuaEORqdmakKYK07RzJkCYExZdIcqQJQfHhlyxpQlB8+CVPmhAUH37NlKYk2bqdmWyaLE1JstU7M9w0X5qSZGt4Zr5pyjTlXmnreGbEadY0JcnW8cyUQ5yGOA1x2j1CxGn1QpyGOA1xWmYhTkOc1ulVIU5r7N/h+YjTthfitM3q4XNae+YXAAcccMABBxxwwAEHHHDAGTzOnmkHoIEGGmiggQYaaKCBBhpohkPzaHQH4IADDjjggAMOOOCAAw445fshTlsvxGkbcdpsIOK02RDEabOdidNmt18LLZXcuILGrqCJK2jqCpq5guauoIUraOkKanz/XkuydTvZyp1s7U62eidbv5Ot4MnW8GSreLJ1vLJ1vPLdv20dr2wdr7p1vL04rZlVLk5TcuKrVC5OU3Liu0C5OE3Jie8A5eI0JSc+/YI4TQpyNToz3gRxmhTkKnVmtgniNCnI1evMYBPEadKd0dXszFQTxGlSkKvZmZFWLk5r5gjiNCkovkSCOE0Kig+/IE6TguLDL4jTpKD48CviNC3J1u3MZFPEaVqSrd6Z4aaI07QkW8Mz800Rp2n3SlvHMyNOEadpSbaOZ6Yc4jTEaYjT7hEiTqsX4jTEaYjTMgtxGuK0Tq8KcVpj/w7PR5y2vRCnbVYPn9PaM78AOOCAAw444IADDjjggAPO4HH2TDsADTTQQAMNNNBAAw000EAzHJpHozsABxxwwAEHHHDAAQcccMAp3w9x2nohTtuI0+YDEafNhyBOm+9MnHZ4UFm8aUrO2JQzMeVMTTkzU87clLMw5SxNOY2v3UtBrkYnV6WTq9PJVerkanVy1Tq5ep1cxU6uZleuZle2e7Wr2ZWr2VWnZrcXpDWiyv1oQkx4hcrtaEJMeO7L3WhCTHjmy81oQkx43gUvmpJj6nE8xgQpmpJjqnI8wwQjmpJjanM8wAQdmnIfNPU5nl6CC03JMfU5Hl3lIrRGjOBBU3LCyyNY0JSc8LgLDjQlJzzuggFNyQmPu+I/k4JcjY4nmCI/k4JcpY6HmGI+k4JcvY7nmKI9k+6MrmbHo0xxnklBrmbH0wzhGcIzhGf3CBGe1QvhGcIzhGeZhfAM4VmnV4XwrLF/h+cjPNteCM82q4fPV+2ZFwAccMABBxxwwAEHHHDAAWfwOHumC4AGGmiggQYaaKCBBhpooBkOzaPRFIADDjjggAMOOOCAAw444JTvh/BsvRCebYRni4EIzxZDEJ4tdig8O5yajGdC0NgVNHEFTV1BM1fQ3BW0cAUtXUHvfeFeSbJ1O9nKnWztTrZ6J1u/k63gydbwZKt4snW8snW88t2/bR2vbB2vunW8iwhtO0sxoZXnxFdJcaGV58R3AcWGVp4T3wEUH1p5Tnz6JSOaEORqdGa8SVI0IchV6sxsk7xoQpCr15nBJqnRhDujq9mZqSbZ0YQgV7MzI00RpG3nSIY0ISi+RJIjTQiKD79kSROC4sMvedKEoPjwa6Y0JcnW7cxk02RpSpKt3pnhpvnSlCRbwzPzTVOmKfdKW8czI06zpilJto5nphziNMRpiNPuESJOqxfiNMRpiNMyC3Ea4rROrwpxWmP/Ds9HnLa9EKdtVg+f09ozvwA44IADDjjggAMOOOCAA87gcfZMOwANNNBAAw000EADDTTQQDMcmkejOwAHHHDAAQcccMABBxxwwCnfD3HaeiFO24jTlgMRpy2HIE5b7kycNrv9Wmip5MYVNHYFTVxBU1fQzBU0dwUtXEFLV1Dj+/dakq3byVbuZGt3stU72fqdbAVPtoYnW8WTreOVreOV7/5t63hl63jVrePtxWnNrHJxmpITX6VycZqSE98FysVpSk58BygXpyk58ekXxGlSkKvRmfEmiNOkIFepM7NNEKdJQa5eZwabIE6T7oyuZmemmiBOk4Jczc6MtHJxWjNHEKdJQfElEsRpUlB8+AVxmhQUH35BnCYFxYdfEadpSbZuZyabIk7Tkmz1zgw3RZymJdkanplvijhNu1faOp4ZcYo4TUuydTwz5RCnIU5DnHaPEHFavRCnIU5DnJZZiNMQp3V6VYjTGvt3eD7itO2FOG2zevic1p75BcABBxxwwAEHHHDAAQcccAaPs2faAWiggQYaaKCBBhpooIEGmuHQPBrdATjggAMOOOCAAw444IADTvl+iNPWC3HanThtMQxv2vRwAN60G0i8aUVBeNMeDsKb1ioJbxreNLxpeNPwpuFNw5uGNw1v2q/eGfGmPRyEN+3BILxpeNPwpuFNsyXhTWuXhDcthsGbhjft/YU37Q4fb9r7C29am4U3rdvz8abhTev0qvCmNfbv8Hy8adsLb9pm9fAxrT3TC4ADDjjggAMOOOCAAw444AweZ8+sA9BAAw000EADDTTQQAMNNMOheTS2A3DAAQcccMABBxxwwAEHnPL98KatF960jTftcCDitDQEcVramTjt8KCyeNOUnLEpZ2LKmZpyZqacuSlnYcpZmnIaX7uXglyNTq5KJ1enk6vUydXq5Kp1cvU6uYqdXM2uXM2ubPdqV7MrV7OrTs1uL0hrRJX70YSY8AqV29GEmPDcl7vRhJjwzJeb0YSY8LwLXjQlx9TjeIwJUjQlx1TleIYJRjQlx9TmeIAJOjTlPmjqczy9BBeakmPqczy6ykVojRjBg6bkhJdHsKApOeFxFxxoSk543AUDmpITHnfFfyYFuRodTzBFfiYFuUodDzHFfCYFuXodzzFFeybdGV3NjkeZ4jyTglzNjqcZwjOEZwjP7hEiPKsXwjOEZwjPMgvhGcKzTq8K4Vlj/w7PR3i2vRCebVYPn6/aMy8AOOCAAw444IADDjjggAPO4HH2TBcADTTQQAMNNNBAAw000EAzHJpHoykABxxwwAEHHHDAAQcccMAp3w/h2XohPNsIz9JAhGfVEIRn1Q6FZ4dTk/FMCBq7giauoKkraOYKmruCFq6gpSvovS/cK0m2bidbuZOt3clW72Trd7IVPNkanmwVT7aOV7aOV777t63jla3jVbeOdxGhbWcpJrTynPgqKS608pz4LqDY0Mpz4juA4kMrz4lPv2REE4Jcjc6MN0mKJgS5Sp2ZbZIXTQhy9Toz2CQ1mnBndDU7M9UkO5oQ5Gp2ZqQpgrTtHMmQJgTFl0hypAlB8eGXLGlCUHz4JU+aEBQffs2UpiTZup2ZbJosTUmy1Tsz3DRfmpJka3hmvmnKNOVeaet4ZsRp1jQlydbxzJRDnIY4DXHaPULEafVCnIY4DXFaZiFOQ5zW6VUhTmvs3+H5iNO2F+K0zerhc1p75hcABxxwwAEHHHDAAQcccMAZPM6eaQeggQYaaKCBBhpooIEGGmiGQ/NodAfggAMOOOCAAw444IADDjjl+yFOWy/EaRtxWjUQcdp4COK08c7EabPbr4WWSm5cQWNX0MQVNHUFzVxBc1fQwhW0dAU1vn+vJdm6nWzlTrZ2J1u9k63fyVbwZGt4slU82Tpe2Tpe+e7fto5Xto5X3TreXpzWzCoXpyk58VUqF6cpOfFdoFycpuTEd4BycZqSE59+QZwmBbkanRlvgjhNCnKVOjPbBHGaFOTqdWawCeI06c7oanZmqgniNCnI1ezMSCsXpzVzBHGaFBRfIkGcJgXFh18Qp0lB8eEXxGlSUHz4FXGalmTrdmayKeI0LclW78xwU8RpWpKt4Zn5pojTtHulreOZEaeI07QkW8czUw5xGuI0xGn3CBGn1QtxGuI0xGmZhTgNcVqnV4U4rbF/h+cjTtteiNM2q4fPae2ZXwAccMABBxxwwAEHHHDAAWfwOHumHYAGGmiggQYaaKCBBhpooBkOzaPRHYADDjjggAMOOOCAAw444JTvhzhtvRCnbcRp44GI0yZDEKdNdiZOOzyoLN40JWdsypmYcqamnJkpZ27KWZhylqacxtfupSBXo5Or0snV6eQqdXK1OrlqnVy9Tq5iJ1ezK1ezK9u92tXsytXsqlOz2wvSGlHlfjQhJrxC5XY0ISY89+VuNCEmPPPlZjQhJjzvghdNyTH1OB5jghRNyTFVOZ5hghFNyTG1OR5ggg5NuQ+a+hxPL8GFpuSY+hyPrnIRWiNG8KApOeHlESxoSk543AUHmpITHnfBgKbkhMdd8Z9JQa5GxxNMkZ9JQa5Sx0NMMZ9JQa5ex3NM0Z5Jd0ZXs+NRpjjPpCBXs+NphvAM4RnCs3uECM/qhfAM4RnCs8xCeIbwrNOrQnjW2L/D8xGebS+EZ5vVw+er9swLAA444IADDjjggAMOOOCAM3icPdMFQAMNNNBAAw000EADDTTQDIfm0WgKwAEHHHDAAQcccMABBxxwyvdDeLZeCM82wrPJQIRn0yEIz6Y7FJ4dTk3GMyFo7AqauIKmrqCZK2juClq4gpauoPe+cK8k2bqdbOVOtnYnW72Trd/JVvBka3iyVTzZOl7ZOl757t+2jle2jlfdOt5FhLadpZjQynPiq6S40Mpz4ruAYkMrz4nvAIoPrTwnPv2SEU0IcjU6M94kKZoQ5Cp1ZrZJXjQhyNXrzGCT1GjCndHV7MxUk+xoQpCr2ZmRpgjStnMkQ5oQFF8iyZEmBMWHX7KkCUHx4Zc8aUJQfPg1U5qSZOt2ZrJpsjQlyVbvzHDTfGlKkq3hmfmmKdOUe6Wt45kRp1nTlCRbxzNTDnEa4jTEafcIEafVC3Ea4jTEaZmFOA1xWqdXhTitsX+H5yNO216I0zarh89p7ZlfABxwwAEHHHDAAQcccMABZ/A4e6YdgAYaaKCBBhpooIEGGmigGQ7No9EdgAMOOOCAAw444IADDjjglO+HOG29EKdtxGnTgYjTZkMQp812Jk6b3X4ttFRy4woau4ImrqCpK2jmCpq7ghauoKUrqPH9ey3J1u1kK3eytTvZ6p1s/U62gidbw5Ot4snW8crW8cp3/7Z1vLJ1vOrW8fbitGZWuThNyYmvUrk4TcmJ7wLl4jQlJ74DlIvTlJz49AviNCnI1ejMeBPEaVKQq9SZ2SaI06QgV68zg00Qp0l3RlezM1NNEKdJQa5mZ0ZauTitmSOI06Sg+BIJ4jQpKD78gjhNCooPvyBOk4Liw6+I07QkW7czk00Rp2lJtnpnhpsiTtOSbA3PzDdFnKbdK20dz4w4RZymJdk6nplyiNMQpyFOu0eIOK1eiNMQpyFOyyzEaYjTOr0qxGmN/Ts8H3Ha9kKctlk9fE5rz/wC4IADDjjggAMOOOCAAw44g8fZM+0ANNBAAw000EADDTTQQAPNcGgeje4AHHDAAQcccMABBxxwwAGnfD/EaeuFOG0jTpsNRJw2H4I4bb4zcdrhQWXxpik5Y1POxJQzNeXMTDlzU87ClLM05TS+di8FuRqdXJVOrk4nV6mTq9XJVevk6nVyFTu5ml25ml3Z7tWuZleuZledmt1ekNaIKvejCTHhFSq3owkx4bkvd6MJMeGZLzejCTHheRe8aEqOqcfxGBOkaEqOqcrxDBOMaEqOqc3xABN0aMp90NTneHoJLjQlx9TneHSVi9AaMYIHTckJL49gQVNywuMuONCUnPC4CwY0JSc87or/TApyNTqeYIr8TApylToeYor5TApy9TqeY4r2TLozupodjzLFeSYFuZodTzOEZwjPEJ7dI0R4Vi+EZwjPEJ5lFsIzhGedXhXCs8b+HZ6P8Gx7ITzbrB4+X7VnXgBwwAEHHHDAAQcccMABB5zB4+yZLgAaaKCBBhpooIEGGmiggWY4NI9GUwAOOOCAAw444IADDjjggFO+H8Kz9UJ4thGezQciPFsMQXi22KHw7HBqMp4JQWNX0MQVNHUFzVxBc1fQwhW0dAW994V7JcnW7WQrd7K1O9nqnWz9TraCJ1vDk63iydbxytbxynf/tnW8snW86tbxLiK07SzFhFaeE18lxYVWnhPfBRQbWnlOfAdQfGjlOfHpl4xoQpCr0ZnxJknRhCBXqTOzTfKiCUGuXmcGm6RGE+6MrmZnpppkRxOCXM3OjDRFkLadIxnShKD4EkmONCEoPvySJU0Iig+/5EkTguLDr5nSlCRbtzOTTZOlKUm2emeGm+ZLU5JsDc/MN02ZptwrbR3PjDjNmqYk2TqemXKI0xCnIU67R4g4rV6I0xCnIU7LLMRpiNM6vSrEaY39Ozwfcdr2Qpy2WT18TmvP/ALggAMOOOCAAw444IADDjiDx9kz7QA00EADDTTQQAMNNNBAA81waB6N7gAccMABBxxwwAEHHHDAAad8P8Rp64U4bSNOWwxEnLYcgjhtuTNx2uz2a6GlkhtX0NgVNHEFTV1BM1fQ3BW0cAUtXUGN799rSbZuJ1u5k63dyVbvZOt3shU82RqebBVPto5Xto5Xvvu3reOVreNVt463F6c1s8rFaUpOfJXKxWlKTnwXKBenKTnxHaBcnKbkxKdfEKdJQa5GZ8abIE6Tglylzsw2QZwmBbl6nRlsgjhNujO6mp2ZaoI4TQpyNTsz0srFac0cQZwmBcWXSBCnSUHx4RfEaVJQfPgFcZoUFB9+RZymJdm6nZlsijhNS7LVOzPcFHGalmRreGa+KeI07V5p63hmxCniNC3J1vHMlEOchjgNcdo9QsRp9UKchjgNcVpmIU5DnNbpVSFOa+zf4fmI07YX4rTN6uFzWnvmFwAHHHDAAQcccMABBxxwwBk8zp5pB6CBBhpooIEGGmiggQYaaIZD82h0B+CAAw444IADDjjggAMOOOX7IU5bL8RpG3HachjitNnhAMRpN5C7EqcdHlQWb5qSMzblTEw5U1POzJQzN+UsTDlLU07ja/dSkKvRyVXp5Op0cpU6uVqdXLVOrl4nV7GTq9mVq9mV7V7tanblanbVqdntBWmNqHI/mhATXqFyO5oQE577cjeaEBOe+XIzmhATnnfBi6bkmHocjzFBiqbkmKoczzDBiKbkmNocDzBBh6bcB019jqeX4EJTckx9jkdXuQitESN40JSc8PIIFjQlJzzuggNNyQmPu2BAU3LC4674z6QgV6PjCabIz6QgV6njIaaYz6QgV6/jOaZoz6Q7o6vZ8ShTnGdSkKvZ8TRDeIbwDOHZPUKEZ/VCeIbwDOFZZiE8Q3jW6VUhPGvs3+H5CM+2F8Kzzerh81V75gUABxxwwAEHHHDAAQcccMAZPM6e6QKggQYaaKCBBhpooIEGGmiGQ/NoNAXggAMOOOCAAw444IADDjjl+yE8Wy+EZ3fCs6H4ztIQfGcJ3xm+s4e/Zo/vDN8ZvjN8Z22C8J3hO8N3hu8M3xm+M3xn+M46DS58Z/jOWgXhO3s4CN/Zw0H4zh4OwncWweA7w3f2/sJ3doeP7+z9he+szcJ31u35+M7wnXV6VfjOGvt3eD6+s+2F72yzevh41Z5pAcABBxxwwAEHHHDAAQcccAaPs2e2AGiggQYaaKCBBhpooIEGmuHQPBpLATjggAMOOOCAAw444IADTvl++M7WC9/Zxnd2OBDhWTUE4Vm1Q+HZ4dRkPBOCxq6giSto6gqauYLmrqCFK2jpCnrvC/dKkq3byVbuZGt3stU72fqdbAVPtoYnW8WTreOVreOV7/5t63hl63jVreNdRGjbWYoJrTwnvkqKC608J74LKDa08pz4DqD40Mpz4tMvGdGEIFejM+NNkqIJQa5SZ2ab5EUTgly9zgw2SY0m3Bldzc5MNcmOJgS5mp0ZaYogbTtHMqQJQfElkhxpQlB8+CVLmhAUH37JkyYExYdfM6UpSbZuZyabJktTkmz1zgw3zZemJNkanplvmjJNuVfaOp4ZcZo1TUmydTwz5RCnIU5DnHaPEHFavRCnIU5DnJZZiNMQp3V6VYjTGvt3eD7itO2FOG2zevic1p75BcABBxxwwAEHHHDAAQcccAaPs2faAWiggQYaaKCBBhpooIEGmuHQPBrdATjggAMOOOCAAw444IADTvl+iNPWC3HaRpyWBiJOGw9BnDbemThtdvu10FLJjSto7AqauIKmrqCZK2juClq4gpauoMb377UkW7eTrdzJ1u5kq3ey9TvZCp5sDU+2iidbxytbxyvf/dvW8crW8apbx9uL05pZ5eI0JSe+SuXiNCUnvguUi9OUnPgOUC5OU3Li0y+I06QgV6Mz400Qp0lBrlJnZpsgTpOCXL3ODDZBnCbdGV3Nzkw1QZwmBbmanRlp5eK0Zo4gTpOC4kskiNOkoPjwC+I0KSg+/II4TQqKD78iTtOSbN3OTDZFnKYl2eqdGW6KOE1LsjU8M98UcZp2r7R1PDPiFHGalmTreGbKIU5DnIY47R4h4rR6IU5DnIY4LbMQpyFO6/SqEKc19u/wfMRp2wtx2mb18DmtPfMLgAMOOOCAAw444IADDjjgDB5nz7QD0EADDTTQQAMNNNBAAw00w6F5NLoDcMABBxxwwAEHHHDAAQec8v0Qp60X4rSNOK0aiDhtMgRx2mRn4rTDg8riTVNyxqaciSlnasqZmXLmppyFKWdpyml87V4KcjU6uSqdXJ1OrlInV6uTq9bJ1evkKnZyNbtyNbuy3atdza5cza46Nbu9IK0RVe5HE2LCK1RuRxNiwnNf7kYTYsIzX25GE2LC8y540ZQcU4/jMSZI0ZQcU5XjGSYY0ZQcU5vjASbo0JT7oKnP8fQSXGhKjqnP8egqF6E1YgQPmpITXh7BgqbkhMddcKApOeFxFwxoSk543BX/mRTkanQ8wRT5mRTkKnU8xBTzmRTk6nU8xxTtmXRndDU7HmWK80wKcjU7nmYIzxCeITy7R4jwrF4IzxCeITzLLIRnCM86vSqEZ439Ozwf4dn2Qni2WT18vmrPvADggAMOOOCAAw444IADDjiDx9kzXQA00EADDTTQQAMNNNBAA81waB6NpgAccMABBxxwwAEHHHDAAad8P4Rn64XwbCM8Gw9EeDYdgvBsukPh2eHUZDwTgsauoIkraOoKmrmC5q6ghSto6Qp67wv3SpKt28lW7mRrd7LVO9n6nWwFT7aGJ1vFk63jla3jle/+bet4Zet41a3jXURo21mKCa08J75KigutPCe+Cyg2tPKc+A6g+NDKc+LTLxnRhCBXozPjTZKiCUGuUmdmm+RFE4Jcvc4MNkmNJtwZXc3OTDXJjiYEuZqdGWmKIG07RzKkCUHxJZIcaUJQfPglS5oQFB9+yZMmBMWHXzOlKUm2bmcmmyZLU5Js9c4MN82XpiTZGp6Zb5oyTblX2jqeGXGaNU1JsnU8M+UQpyFOQ5x2jxBxWr0QpyFOQ5yWWYjTEKd1elWI0xr7d3g+4rTthThts3r4nNae+QXAAQcccMABBxxwwAEHHHAGj7Nn2gFooIEGGmiggQYaaKCBBprh0Dwa3QE44IADDjjggAMOOOCAA075fojT1gtx2kacNhmIOG02BHHabGfitNnt10JLJTeuoLEraOIKmrqCZq6guSto4QpauoIa37/XkmzdTrZyJ1u7k63eydbvZCt4sjU82SqebB2vbB2vfPdvW8crW8erbh1vL05rZpWL05Sc+CqVi9OUnPguUC5OU3LiO0C5OE3JiU+/IE6TglyNzow3QZwmBblKnZltgjhNCnL1OjPYBHGadGd0NTsz1QRxmhTkanZmpJWL05o5gjhNCoovkSBOk4Liwy+I06Sg+PAL4jQpKD78ijhNS7J1OzPZFHGalmSrd2a4KeI0LcnW8Mx8U8Rp2r3S1vHMiFPEaVqSreOZKYc4DXEa4rR7hIjT6oU4DXEa4rTMQpyGOK3Tq0Kc1ti/w/MRp20vxGmb1cPntPbMLwAOOOCAAw444IADDjjggDN4nD3TDkADDTTQQAMNNNBAAw000AyH5tHoDsABBxxwwAEHHHDAAQcccMr3Q5y2XojTNuK06UDEafMhiNPmOxOnHR5UFm+akjM25UxMOVNTzsyUMzflLEw5S1NO42v3UpCr0clV6eTqdHKVOrlanVy1Tq5eJ1exk6vZlavZle1e7Wp25Wp21anZ7QVpjahyP5oQE16hcjuaEBOe+3I3mhATnvlyM5oQE553wYum5Jh6HI8xQYqm5JiqHM8wwYim5JjaHA8wQYem3AdNfY6nl+BCU3JMfY5HV7kIrREjeNCUnPDyCBY0JSc87oIDTckJj7tgQFNywuOu+M+kIFej4wmmyM+kIFep4yGmmM+kIFev4zmmaM+kO6Or2fEoU5xnUpCr2fE0Q3iG8Azh2T1ChGf1QniG8AzhWWYhPEN41ulVITxr7N/h+QjPthfCs83q4fNVe+YFAAcccMABBxxwwAEHHHDAGTzOnukCoIEGGmiggQYaaKCBBhpohkPzaDQF4IADDjjggAMOOOCAAw445fshPFsvhGcb4dlsIMKzxRCEZ4sdCs8OpybjmRA0dgVNXEFTV9DMFTR3BS1cQUtX0HtfuFeSbN1OtnInW7uTrd7J1u9kK3iyNTzZKp5sHa9sHa98929bxytbx6tuHe8iQtvOUkxo5TnxVVJcaOU58V1AsaGV58R3AMWHVp4Tn37JiCYEuRqdGW+SFE0IcpU6M9skL5oQ5Op1ZrBJajThzuhqdmaqSXY0IcjV7MxIUwRp2zmSIU0Iii+R5EgTguLDL1nShKD48EueNCEoPvyaKU1JsnU7M9k0WZqSZKt3ZrhpvjQlydbwzHzTlGnKvdLW8cyI06xpSpKt45kphzgNcRritHuEiNPqhTgNcRritMxCnIY4rdOrQpzW2L/D8xGnbS/EaZvVw+e09swvAA444IADDjjggAMOOOCAM3icPdMOQAMNNNBAAw000EADDTTQDIfm0egOwAEHHHDAAQcccMABBxxwyvdDnLZeiNM24rT5QMRpyyGI05Y7E6fNbr8WWiq5cQWNXUETV9DUFTRzBc1dQQtX0NIV1Pj+vZZk63aylTvZ2p1s9U62fidbwZOt4clW8WTreGXreOW7f9s6Xtk6XnXreHtxWjOrXJym5MRXqVycpuTEd4FycZqSE98BysVpSk58+gVxmhTkanRmvAniNCnIVerMbBPEaVKQq9eZwSaI06Q7o6vZmakmiNOkIFezMyOtXJzWzBHEaVJQfIkEcZoUFB9+QZwmBcWHXxCnSUHx4VfEaVqSrduZyaaI07QkW70zw00Rp2lJtoZn5psiTtPulbaOZ0acIk7Tkmwdz0w5xGmI0xCn3SNEnFYvxGmI0xCnZRbiNMRpnV4V4rTG/h2ejzhteyFO26wePqe1Z34BcMABBxxwwAEHHHDAAQecwePsmXYAGmiggQYaaKCBBhpooIFmODSPRncADjjggAMOOOCAAw444IBTvh/itPVCnLYRpy2GIU6bHw5AnHYDuStx2uFBZfGmKTljU87ElDM15cxMOXNTzsKUszTlNL52LwW5Gp1clU6uTidXqZOr1clV6+TqdXIVO7maXbmaXdnu1a5mV65mV52a3V6Q1ogq96MJMeEVKrejCTHhuS93owkx4ZkvN6MJMeF5F7xoSo6px/EYE6RoSo6pyvEME4xoSo6pzfEAE3Royn3Q1Od4egkuNCXH1Od4dJWL0BoxggdNyQkvj2BBU3LC4y440JSc8LgLBjQlJzzuiv9MCnI1Op5givxMCnKVOh5iivlMCnL1Op5jivZMujO6mh2PMsV5JgW5mh1PM4RnCM8Qnt0jRHhWL4RnCM8QnmUWwjOEZ51eFcKzxv4dno/wbHshPNusHj5ftWdeAHDAAQcccMABBxxwwAEHnMHj7JkuABpooIEGGmiggQYaaKCBZjg0j0ZTAA444IADDjjggAMOOOCAU74fwrP1Qni2EZ4tByI8S0MQnqWdCc/S5PDgcGulicV/Zowd9xM76Sd22k/srJ/YeT+xi35il/3ENr7u78zt6Zylng5a6umkpZ6OWurprKWeDlvq6bSlno5b6um8VT2dt6qvudbTeat6Om+Vct7ai+VyyeWeOV9q26tbbqHzpba9k5U76nypbe9i5QY7X2rbO5jgtzPG9nO6Wr9dEGR4xth+Dljr9wqCOc8Y288Za/1GQdDsGadCP6es9bsEwclnjO3nlLV+i1Au8MulCj4/Y2zbSyvY/oyxbW9gggvQGNv2BiaYAo2xbW9gikfQmdvTOWv9TkGRDjpzezpqrd8sKIZCZ25Pp631+wVFZ+icEz2dt9ZvGRT3oTO3p/PW+l0DokREiYgS7xEiSqwXokREiYgSMwtRIqLETq8KUWJj/w7PR5S4vRAlblYPn8vcM58IOOCAAw444IADDjjggAPO4HH2TDMCDTTQQAMNNNBAAw000EAzHJpHozcBBxxwwAEHHHDAAQcccMAp3+9vIEr88+qHN6uLo6vri9Xo6ecf4E3cL2/i6uLHk5er0X8e1c374/n5m1H9C6s/5zw5/HwgCsVqCArFamcKxen0YLzcWuOpRaFojB33EzvpJ3baT+ysn9h5P7GLfmKX/cQ2TAfO3J7OWerpoKWeTlrq6ailns5a6umwpZ5OW+rpuKWezlvV03mr+pprPZ23qqfzVinnrb1CMZdcrlD0pba9uuUKRV9q2ztZuULRl9r2LlauUPSltr2DCQpFY2w/p6v12wVBoWiM7eeAtX6vICgUjbH9nLHWbxQEhaJxKvRzylq/SxAUisbYfk5Z67cI5QrFXKqgUDTGtr20gkLRGNv2BiYoFI2xbW9ggkLRGNv2BqYoFJ25PZ2z1u8UFIWiM7eno9b6zYKiUHTm9nTaWr9fUBSKzjnR03lr/ZZBUSg6c3s6b63fNaBQRKGIQvEeIQrFeqFQRKGIQjGzUCiiUOz0qlAoNvbv8HwUitsLheJm9fCJzT0zjYADDjjggAMOOOCAAw444AweZ88EJNBAAw000EADDTTQQAMNNMOheTTiE3DAAQcccMABBxxwwAEHnPL9UCj++nq8CsXrN29O344+Obm4VScOxJk4HoIzcbwzZ+LtP5fKmUw5Y1POxJQzNeXMTDlzU87ClLM05TScAlKQq9HJVenk6nRylTq5Wp1ctU6uXidXsZOr2ZWr2ZXtXu1qduVqdtWp2e1dfo2ocnmfEBNeoXI9nxATnvtyAZ8QE575csWeEBOed0Gip+SYehyPMcGLp+SYqhzPMEF1p+SY2hwPMMFep9wHTX2Op5cgpFNyTH2OR1e5Y64RI0jllJzw8gjaOCUnPO6CGE7JCY+7oH5TcsLjrsjdpCBXo+MJpvjapCBXqeMhpijYpCBXr+M5pljVpDujq9nxKFNEaVKQq9nxNLsX9G8XJ+cXJ1dvR2n0fPT0q+uzD2oL1ez5/zs6e36Ynt/+86erl8/HKRpzh43/R++TTyaT5dKwRdX/FuP+t5j0v8W0/y1m/W8x73+LRf9bLPvfojHZ+9pjB+c77eCApx2c8LSDI552cMbTDg552sEpTzs45mkH57zawTmvdjHHd3DOqx2c86rsnFe3exxdRXsctntbNR5X1WJm2CL+bdi2iH8Zti3i34Vti/iWa9sivuPatohvuLYt4vutbYv4dmvbIvO2yrfHDs535m2Vb48dnPDM2yrfHjs445m3Vb49dnDKM2+rfHvs4Jxn3lb59tjFHN/BOc+8rfLtUXbOx/Uen1+cBHtUy3Zvq1Kaz8djwxbxb8O2RfzLsG0R/y5sW8S3XNsW8R3XtkV8w7VtEd9vbVvEn42ybZH5QKBvj/gTVb494g9b+faIP4fl2yP+iJZvj/hzib494o8s+vaIP83o2yP+oKNvjx2c88zbKt8eu5jjOxjkmbdVvj3KRvmk3uPPr6+jPRbt3lbV/8al6e8NW8S/DdsW8S/DtkX8u7BtEb+tsm0Rv62ybRG/rbJtEb+tsm0R325tW2TeVvn2iN9W+faI31b59ojfVvn2iN9W+faI31b59ojfVvn2iN9W+faI31b59tjBOc+8rfLtsYs5voNBnnlb5dujbJRP6z3+c3Uc7TFv97bq009fvJjPDVvEvw3bFvEvw7ZF/LuwbRG/rbJtEb+tsm0Rv62ybRG/rbJtEd9ubVtk3lb59ojfVvn2iN9W+faI31b59ojfVvn2iN9W+faI31b59ojfVvn2iN9W+fbYwTnPvK3y7bGLOb6DQZ55W+Xbo2yUz27ful2voj1m7d5WvXgxm1m2iH8bti3iX4Zti/h3Ydsifltl2yJ+W2XbIn5bZdsifltl2yK+3dq2yLyt8u0Rv63y7RG/rfLtEb+t8u0Rv63y7RG/rfLtEb+t8u0Rv63y7RG/rfLtsYNznnlb5dtjF3N8B4M887bKt0fZKJ/Xe/zpPPpYfDVt97Zqsaiq6dSwRfzbsG0R/zJsW8S/C9sW8dsq2xbx2yrbFvHbKtsW8dsq2xY575Rpi6xszbVHzlbl2iMnsnLtkXNcufbI6a9ce+Scb649cjo41x45U5xrj5xEzrXHDs555m2Vb49dzPEdDPLM2yrfHg+P8r+0MbyuNcyjj0dnq5/uDLK34tinlz++enZrgH1QFXvncr5cXf3+/Prs+PLp9PDZKKXps9G4/qdq2k43+/MNxsZDfXz84uhq9er84u0nP59cvjMhb15/C2H0TcAXF8eriy+vazFx6x+sOd42Of60Orq8vli9w6jdyuvr3rORm4d5mId5mId5mId5mId5mId5mId5mId5mId5mId5mId5mId5mId5mId5mId5mId5mId5mId5mId5mId5mId5mId5mId5mId5mId5mId5mId5mId5mIf/Vz389uD8x9XFxcnx6k9H9Rdr08Gh+H3V+quxl82vxn61ujhZXa6/Xvvk2d0XiN+cnl8dnJ6crR78iuzlr31P9+Fv1l4e3P6r59+cnx5dnZyf3UA9ubxavXn+7eq784vVk3bffP7j6tXq7Lj5gt792dPZ4bPRuP7m8mH9Reb6P56crr67qsEeiL6LPfjm1erqs7Or+vrcbPHd9dnLW9KnH4z++4GIO8LV5qe/fvC73PU6+W709Or1yeXB5e1vpd1G9dr6oYOb6/fZ0cvXT/8HuGvaHX791fEb9nXuN2/OL0/qwE9v/rjNq7lbdcyvUF2c/9QN6Q7r5Ox4VZ+H5+lZx5++W9+X/uB3J6vTum9P19f03Tl5dXF+/WZ1PPrNb0b/d/3nPx988/rocv399/qAfbD96NtfffTmghwcvXr1eb3Hwenq7NXV69HvRtXon0ZPPjk9fTL6qPmMy9OTl6unz9MHXx/+5YMHz9u9V3J+MXr6/c1LOfyH0fc326yrut63/rO/v7njdP8F1auu8Trv6+//cvDX1dvRxx9//O7ilSXepq5/7d93fal369uL1dFfS374l44/0/X59fVav7qP61rXZVg35VbkcPDN0eXlyauz1fGLWhFx+fXtlfxL2aW8+0W/ub58/bT0d3HzK/3o3e+z/CSdnn7U5lUe1M8s3eXy6uL8r6t2+7x7bulO52+OXp5cvW231frJxa/qdou7rUpT7m4kzdtKyfHofPOp191xbt54Rs9HqWtal+PWnvWXZ7dTtdXzf3noPUW9Pvxw9G///ufRf33x71+Ovvriyz//y7/+YfTHL/7wLy9G//zZl5+1C/j85q69+vmofos2ujofXZ5fXI3Orn+46cHL0a3S5HJ0dPny5s3LydmrFol3177O2ZrMR89G37a/uVysrq4vzkZvji4uV5+fnh9dPT2qb/kf3Pwqt/7s29s/a3UxH36LtrXt+iU8FPxLv6aXzfvP2+N+e9if/vZ49d3R9enV6M3F+c09bPXbZ6Pf/t1i8eLFZ5/9tmfxDDjggAMOOOCAAw444IADzv9OnNHl9Q83/y/w6HhV/+Ho+OhtTXSxOoYGGmiggQYaaKCBBhpooIEmT/PT7Uez3qP59vR6BQ444IADDjjggAMOOOCAA04JzubfG5jqf2/gV9fRvzdwnG7/hu2TTyaT5RJSSCGFFFJIIYUUUkghhRRSSCEdBml1S3p0FZEe3pKOx1W1mEEKKaSQQgoppJBCCimkkEIKKaTDIB3XpJ9fnASk1fKWNKX5fDyGFFJIIYUUUkghhRRSSCGFFFJIh0E6qUn//Po6Il3cki5v1vT3kEIKKaSQQgoppJBCCimkkEIK6TBIpzXpf66OI9L5Lemnn754MZ9DCimkkEIKKaSQQgoppJBCCimkwyCd3f4vE9eriHR2S/rixWwGKaSQQgoppJBCCimkkEIKKaSQDoV0XpP+6TwyC1bTW9LFoqqmU0ghhRRSSCGFFFJIIYUUUkghhXRnpHcoxxdHPz19MOzng6uTq9PVV6+P3qwOrlY/Xz397T+fX19cPozx9v5Pfnryw+rs8uT87HR1eZvwQMSHH44+OT4eHY1uk0Y/nVy9Hl2e/7AaHY8f+MnLH18dHL15szo7fvqk3vvJBw/8wN06OLq6unj65Ocnz0azw44/9Pbmh6r2P3R59fZ09Q7v+dHZy9fnFzc//+R09V0H2nXGd+dnV89/Wp28en1VZ3x7fnrcPuPd7+Y/PvmPdxf4y9Xr1dHV6IuXL0dfvXz92w9yv6TffXj58uLkzdU/hs/53YfHJz/++sPhz8RhN1mjk+OPn7ysG/zi5kUfnZytLr6p5pMno9tL8fGT45PLN6dHbz86OTu9eez5t6fnL//6D09iwJvUd69hdPX2zc3P11fjw++Pfjx696fZn6zXj0cXddtGH4+OT354c7o6OFv99NWPr54++btfgXw2mhwe3v7Hg8enzj0+ujq6Cf76v5+cHn27On3y0ZPj1XdH16dXozcX59+dnK6ePHv3yDc/P/koHRw+e/Lj0en16slHs+XBcmstls+evKzvOTcJN7eRFy8+++zJL89apVa9pI57SZ30kjrtJXXWS+q8l9RFL6nLXlLTYT+x/Zyu1M/xSv2cr9TPAUv9nLDUzxFL/Zyx1M8hS/2csqqfU1b1NMP6OWVVP6esEk7Z6PL6hx8a/xrvgncIF6vjDqEtr2230JZXtltoy+vaLbTlvatbaMs7V7fQlvetbqEt71rdQlves7qFtn1j0DG1lzPV9m1Bx9ReTlXbNwUdU3s5V23fEnRM7eVktX1D0DG1l7PV9u1Ax9R+5lUvZ6vte4GOqaVn66eTsyv1bcC39RPap7a8rB1TW17WjqktL2vH1Ja3rI6pLW9ZHVNb3rI6pra8ZXVMbXnL6pja9v1A19h+TlfbdwRdY/s5X23fE3SN7eeEtX1X0DW2nzPW9n1B19h+TlnbdwZdY3uaYf2csrZvDrrGdjplf2nzFw7rvxscfTw6W/109xcat3+P8fTyx1fPbv9C4sG/ubj7C8bL1dXvz6/Pji+fTg+fjVKaPhuN63+qpu3+9uPnG4zN35seH784ulq9Or94+8nPJ5fv/oJucyla/C3mTcAXF8eriy+v678va/2DNcfbJsefVkeX1xerdxj1X/mtfwXq38ve/kVSc6uvVhcnq8s17s1O61/Im9Pzq4P6b7ce3PLy1173w6SXB7e9e3N+enR1cn52A/Xk8mr15vm3q+/OL1ZP2jXpj6tXq7Pj5gt692dPZzctGNdNqP8yLNX/sf5rzwf/Rvgu9uCbV6urz86u6utzs8V312cvb0mffjD67xZ/71kTrjY//fWDZ6NeJ9+Nnl69Prm86XX9c+02qtfWDx3cXL/Pjl6+fvo/wF3T7vDXfze4zv3mzfnlSR346c0ft3k1d6uO+RWqi/OfuiHdYZ2cHa/qg/s8Pev403fr+9If/O5kdVr37en6mr47J68uzq/frI5Hv/nN6P+u//zng29eH12u7yf1Aftg+9G3v/rozQU5OHr16vN6j4PT1dmrq9ej342q0T+Nnnxyevpk9FHzGZenJy9XT5+nD74+/MsHD563e6/k/GL09Publ3L4D6Pvb7ZZV3W9b/1nf//xKHX/BdWrrvE67+vv/3Lw19XN7e3jj99dvLLE29T1r/37ri/1bn17sTr6a8kP/9LxZ7o+v75e61f3cV3rugzrptwOxoNv3n2mZ3V8+6mey69vr+Rfyi7l3S/6zfXl66elv4ubX+lH736f5Sfp9PSjNq/yoH5m6S6XVxfnf1212+fdc0t3On9z9PLk6m27rdZPLn5Vt1vcbVWacncjad5WSo5H55tPve6Oc/PGM3o+Sl3Tuhy39qy/PLudqq2e/8tD7ynq9eGHo3/79z+P/uuLf/9y9NUXX/75X/71D6M/fvGHf3kx+ufPvvysXcDnN3ft1c9H9Vu00dX56PL85o302fUPNz14Obp9i3g5Orp8efPm5eTsVYvEu2tf52xN5qNno2/b31wuVlfXF2ejN0cXl6vPT8+Prp4e1bf8D25+lVt/9u3tn7W6mA+/Rdvadv0SHgr+5W/w2cv3/gJ2/QHL+i9U/yYfBQUHHHDAAQcccMABBxxwwBk8zv0PuNREF6tjaKCBBhpooIEGGmiggQYaaPI09z4SWNPUH/EDBxxwwAEHHHDAAQcccMAB529oPPzz6oc3q4ujq+uL1ejp5x/gPNwr5+F/HtWN++fV7X998sO3J6uzq1H9K6vNh6vj65vr/3w0P/x8IBLE6RAkiNOdSRBvv3paKmEy5YxNORNTztSUMzPlzE05C1PO0pTTsAtIQa5GJ1elk6vTyVXq5Gp1ctU6uXqdXMVOrmZXrmZXtnu1q9mVq9lVp2a3l/Y1oso1fUJMeIXKVXxCTHjuy3V7Qkx45suVekJMeN4FbZ6SY+pxPMYEGZ6SY6pyPMMExZ2SY2pzPMAEcZ1yHzT1OZ5ego5OyTH1OR5d5ZK5RoyglVNywssjqOOUnPC4C3o4JSc87oICTskJj7uieZOCXI2OJ5gib5OCXKWOh5iiZJOCXL2O55giWpPujK5mx6NM0adJQa5mx9MMKdogpGg8zMM8zMM8zMM8zMM8zMM8zMM8zMM8zMM8vE8Pvz04/3F1cXFyvPrTUf0/VKWDQ6T4W68EKf5mIcXvtJDiI8XvsJDiv7+Q4r+/kOJ3XEjxkeL/6kKKDw444IADDjjggAMOOOCAA84QlJLQQAMNNNBAAw000EADDTTDoXk0KktwwAEHHHDAAQcccMABB5zy/f4GUvxPT35YnV2enJ+dri4vUeLvlxL//OKvo8++++7k5cnq7OXbjQh/twr89bPfe2T7/77753f/vUlf/8Pmv749P35b//frqx9O//H//H9zYP5V"
               },
               {
                  "name" : "annual_peak_electric_demand",
                  "units" : "kW",
                  "value" : 500.54978999999997
               },
               {
                  "name" : "first_year_capital_cost",
                  "units" : "$",
                  "value" : 0
               },
               {
                  "name" : "annual_utility_cost",
                  "units" : "$",
                  "value" : 132245.70999999999
               },
               {
                  "name" : "total_lifecycle_cost",
                  "units" : "$",
                  "value" : 2214112.3700000001
               }
            ],
            "step_warnings" : [ "A table in Annual Overview section returned false and was skipped." ]
         }
      }
   ],
   "updated_at" : "20170710T183946Z",
   "weather_file" : "USA_CO_Denver.Intl.AP.725650_TMY3.epw"
}
