{
   "completed_at" : "20170710T190141Z",
   "completed_status" : "Success",
   "created_at" : "2017-07-10 18:40:23 +0000",
   "current_step" : 5,
   "description" : "",
   "eplusout_err" : "Program Version,EnergyPlus, Version 8.7.0-78a111df4a, YMD=2017.07.10 18:52,IDD_Version 8.7.0\n   ************* IDF Context for following error/warning message:\n   ************* Note -- lines truncated at 300 characters, if necessary...\n   *************      5 Building,\n   ************* indicated Name=NECB 2011-SecondarySchool-NECB HDD Method-CAN_PQ_Montreal.Intl.AP.716270_CWEC.epw created: 2017-07-10 18:40:31 +0000\n   ************* Only last 1 lines before error line shown.....\n   *************      6   NECB 2011-SecondarySchool-NECB HDD Method-CAN_PQ_Montreal.Intl.AP.716270_CWEC.epw created: 2017-07-10 18:40:31 +0000, !- Name\n   ** Warning ** IP: IDF line~6 Alpha Argument length exceeds maximum, will be truncated=  NECB 2011-SecondarySchool-NECB HDD Method-CAN_PQ_Montreal.Intl.AP.716270_CWEC.epw created: 2017-07-10 18:40:31 +000\n   **   ~~~   ** Will be processed as Alpha=NECB 2011-SECONDARYSCHOOL-NECB HDD METHOD-CAN_PQ_MONTREAL.INTL.AP.716270_CWEC.EPW CREATED: 2017-07-10 18:40:31 +0000\n   ************* IDF Context for following error/warning message:\n   ************* Note -- lines truncated at 300 characters, if necessary...\n   *************    602 Schedule:Week:Daily,\n   ************* indicated Name=Schedule:Week:Daily {23d66f37-2717-456c-acef-f059d22f1495}\n   ************* Only last 10 lines before error line shown.....\n   *************    603   Schedule:Week:Daily {23d66f37-2717-456c-acef-f059d22f1495}, !- Name\n   *************    604   Sp-Auditorium_ZN_1_FLR_1 Sys-3 Flr-2 Sch-C HPlcmt-north ZN NECB System 3 PSZ Occ Sch Sunday, !- Sunday Schedule:Day Name\n   *************    605   Sp-Auditorium_ZN_1_FLR_1 Sys-3 Flr-2 Sch-C HPlcmt-north ZN NECB System 3 PSZ Occ Sch Monday, !- Monday Schedule:Day Name\n   *************    606   Sp-Auditorium_ZN_1_FLR_1 Sys-3 Flr-2 Sch-C HPlcmt-north ZN NECB System 3 PSZ Occ Sch Tuesday, !- Tuesday Schedule:Day Name\n   *************    607   Sp-Auditorium_ZN_1_FLR_1 Sys-3 Flr-2 Sch-C HPlcmt-north ZN NECB System 3 PSZ Occ Sch Wednesday, !- Wednesday Schedule:Day Name\n   *************    608   Sp-Auditorium_ZN_1_FLR_1 Sys-3 Flr-2 Sch-C HPlcmt-north ZN NECB System 3 PSZ Occ Sch Thursday, !- Thursday Schedule:Day Name\n   *************    609   Sp-Auditorium_ZN_1_FLR_1 Sys-3 Flr-2 Sch-C HPlcmt-north ZN NECB System 3 PSZ Occ Sch Friday, !- Friday Schedule:Day Name\n   *************    610   Sp-Auditorium_ZN_1_FLR_1 Sys-3 Flr-2 Sch-C HPlcmt-north ZN NECB System 3 PSZ Occ Sch Saturday, !- Saturday Schedule:Day Name\n   *************    611   Sp-Auditorium_ZN_1_FLR_1 Sys-3 Flr-2 Sch-C HPlcmt-north ZN NECB System 3 PSZ Occ Sch Default, !- Holiday Schedule:Day Name\n   *************    612   Sp-Auditorium_ZN_1_FLR_1 Sys-3 Flr-2 Sch-C HPlcmt-north ZN NECB System 3 PSZ Occ Sch Summer Design Day, !- SummerDesignDay Schedule:Day Name\n   ** Warning ** IP: IDF line~612 Alpha Argument length exceeds maximum, will be truncated=  Sp-Auditorium_ZN_1_FLR_1 Sys-3 Flr-2 Sch-C HPlcmt-north ZN NECB System 3 PSZ Occ Sch Summer Design Da\n   **   ~~~   ** Will be processed as Alpha=SP-AUDITORIUM_ZN_1_FLR_1 SYS-3 FLR-2 SCH-C HPLCMT-NORTH ZN NECB SYSTEM 3 PSZ OCC SCH SUMMER DESIGN DAY\n   ************* IDF Context for following error/warning message:\n   ************* Note -- lines truncated at 300 characters, if necessary...\n   *************    602 Schedule:Week:Daily,\n   ************* indicated Name=Schedule:Week:Daily {23d66f37-2717-456c-acef-f059d22f1495}\n   ************* Only last 10 lines before error line shown.....\n   *************    604   Sp-Auditorium_ZN_1_FLR_1 Sys-3 Flr-2 Sch-C HPlcmt-north ZN NECB System 3 PSZ Occ Sch Sunday, !- Sunday Schedule:Day Name\n   *************    605   Sp-Auditorium_ZN_1_FLR_1 Sys-3 Flr-2 Sch-C HPlcmt-north ZN NECB System 3 PSZ Occ Sch Monday, !- Monday Schedule:Day Name\n   *************    606   Sp-Auditorium_ZN_1_FLR_1 Sys-3 Flr-2 Sch-C HPlcmt-north ZN NECB System 3 PSZ Occ Sch Tuesday, !- Tuesday Schedule:Day Name\n   *************    607   Sp-Auditorium_ZN_1_FLR_1 Sys-3 Flr-2 Sch-C HPlcmt-north ZN NECB System 3 PSZ Occ Sch Wednesday, !- Wednesday Schedule:Day Name\n   *************    608   Sp-Auditorium_ZN_1_FLR_1 Sys-3 Flr-2 Sch-C HPlcmt-north ZN NECB System 3 PSZ Occ Sch Thursday, !- Thursday Schedule:Day Name\n   *************    609   Sp-Auditorium_ZN_1_FLR_1 Sys-3 Flr-2 Sch-C HPlcmt-north ZN NECB System 3 PSZ Occ Sch Friday, !- Friday Schedule:Day Name\n   *************    610   Sp-Auditorium_ZN_1_FLR_1 Sys-3 Flr-2 Sch-C HPlcmt-north ZN NECB System 3 PSZ Occ Sch Saturday, !- Saturday Schedule:Day Name\n   *************    611   Sp-Auditorium_ZN_1_FLR_1 Sys-3 Flr-2 Sch-C HPlcmt-north ZN NECB System 3 PSZ Occ Sch Default, !- Holiday Schedule:Day Name\n   *************    612   Sp-Auditorium_ZN_1_FLR_1 Sys-3 Flr-2 Sch-C HPlcmt-north ZN NECB System 3 PSZ Occ Sch Summer Design Day, !- SummerDesignDay Schedule:Day Name\n   *************    613   Sp-Auditorium_ZN_1_FLR_1 Sys-3 Flr-2 Sch-C HPlcmt-north ZN NECB System 3 PSZ Occ Sch Winter Design Day, !- WinterDesignDay Schedule:Day Name\n   ** Warning ** IP: IDF line~613 Alpha Argument length exceeds maximum, will be truncated=  Sp-Auditorium_ZN_1_FLR_1 Sys-3 Flr-2 Sch-C HPlcmt-north ZN NECB System 3 PSZ Occ Sch Winter Design Da\n   **   ~~~   ** Will be processed as Alpha=SP-AUDITORIUM_ZN_1_FLR_1 SYS-3 FLR-2 SCH-C HPLCMT-NORTH ZN NECB SYSTEM 3 PSZ OCC SCH WINTER DESIGN DAY\n   ************* IDF Context for following error/warning message:\n   ************* Note -- lines truncated at 300 characters, if necessary...\n   *************    633 Schedule:Day:Interval,\n   ************* indicated Name=Sp-Auditorium_ZN_1_FLR_1 Sys-3 Flr-2 Sch-C HPlcmt-north ZN NECB System 3 PSZ Occ Sch Summer Design Day\n   ************* Only last 1 lines before error line shown.....\n   *************    634   Sp-Auditorium_ZN_1_FLR_1 Sys-3 Flr-2 Sch-C HPlcmt-north ZN NECB System 3 PSZ Occ Sch Summer Design Day, !- Name\n   ** Warning ** IP: IDF line~634 Alpha Argument length exceeds maximum, will be truncated=  Sp-Auditorium_ZN_1_FLR_1 Sys-3 Flr-2 Sch-C HPlcmt-north ZN NECB System 3 PSZ Occ Sch Summer Design Da\n   **   ~~~   ** Will be processed as Alpha=SP-AUDITORIUM_ZN_1_FLR_1 SYS-3 FLR-2 SCH-C HPLCMT-NORTH ZN NECB SYSTEM 3 PSZ OCC SCH SUMMER DESIGN DAY\n   ************* IDF Context for following error/warning message:\n   ************* Note -- lines truncated at 300 characters, if necessary...\n   *************    640 Schedule:Day:Interval,\n   ************* indicated Name=Sp-Auditorium_ZN_1_FLR_1 Sys-3 Flr-2 Sch-C HPlcmt-north ZN NECB System 3 PSZ Occ Sch Winter Design Day\n   ************* Only last 1 lines before error line shown.....\n   *************    641   Sp-Auditorium_ZN_1_FLR_1 Sys-3 Flr-2 Sch-C HPlcmt-north ZN NECB System 3 PSZ Occ Sch Winter Design Day, !- Name\n   ** Warning ** IP: IDF line~641 Alpha Argument length exceeds maximum, will be truncated=  Sp-Auditorium_ZN_1_FLR_1 Sys-3 Flr-2 Sch-C HPlcmt-north ZN NECB System 3 PSZ Occ Sch Winter Design Da\n   **   ~~~   ** Will be processed as Alpha=SP-AUDITORIUM_ZN_1_FLR_1 SYS-3 FLR-2 SCH-C HPLCMT-NORTH ZN NECB SYSTEM 3 PSZ OCC SCH WINTER DESIGN DAY\n   ************* IDF Context for following error/warning message:\n   ************* Note -- lines truncated at 300 characters, if necessary...\n   *************   2680 Schedule:Week:Daily,\n   ************* indicated Name=Schedule:Week:Daily {2fa7aa76-3dc6-4075-ba4b-93963394a66b}\n   ************* Only last 10 lines before error line shown.....\n   *************   2681   Schedule:Week:Daily {2fa7aa76-3dc6-4075-ba4b-93963394a66b}, !- Name\n   *************   2682   Sp-Bathrooms_ZN_1_FLR_2 Sys-3 Flr-1 Sch-D HPlcmt-north ZN NECB System 3 PSZ Occ Sch Sunday, !- Sunday Schedule:Day Name\n   *************   2683   Sp-Bathrooms_ZN_1_FLR_2 Sys-3 Flr-1 Sch-D HPlcmt-north ZN NECB System 3 PSZ Occ Sch Monday, !- Monday Schedule:Day Name\n   *************   2684   Sp-Bathrooms_ZN_1_FLR_2 Sys-3 Flr-1 Sch-D HPlcmt-north ZN NECB System 3 PSZ Occ Sch Tuesday, !- Tuesday Schedule:Day Name\n   *************   2685   Sp-Bathrooms_ZN_1_FLR_2 Sys-3 Flr-1 Sch-D HPlcmt-north ZN NECB System 3 PSZ Occ Sch Wednesday, !- Wednesday Schedule:Day Name\n   *************   2686   Sp-Bathrooms_ZN_1_FLR_2 Sys-3 Flr-1 Sch-D HPlcmt-north ZN NECB System 3 PSZ Occ Sch Thursday, !- Thursday Schedule:Day Name\n   *************   2687   Sp-Bathrooms_ZN_1_FLR_2 Sys-3 Flr-1 Sch-D HPlcmt-north ZN NECB System 3 PSZ Occ Sch Friday, !- Friday Schedule:Day Name\n   *************   2688   Sp-Bathrooms_ZN_1_FLR_2 Sys-3 Flr-1 Sch-D HPlcmt-north ZN NECB System 3 PSZ Occ Sch Saturday, !- Saturday Schedule:Day Name\n   *************   2689   Sp-Bathrooms_ZN_1_FLR_2 Sys-3 Flr-1 Sch-D HPlcmt-north ZN NECB System 3 PSZ Occ Sch Default, !- Holiday Schedule:Day Name\n   *************   2690   Sp-Bathrooms_ZN_1_FLR_2 Sys-3 Flr-1 Sch-D HPlcmt-north ZN NECB System 3 PSZ Occ Sch Summer Design Day, !- SummerDesignDay Schedule:Day Name\n   ** Warning ** IP: IDF line~2690 Alpha Argument length exceeds maximum, will be truncated=  Sp-Bathrooms_ZN_1_FLR_2 Sys-3 Flr-1 Sch-D HPlcmt-north ZN NECB System 3 PSZ Occ Sch Summer Design Da\n   **   ~~~   ** Will be processed as Alpha=SP-BATHROOMS_ZN_1_FLR_2 SYS-3 FLR-1 SCH-D HPLCMT-NORTH ZN NECB SYSTEM 3 PSZ OCC SCH SUMMER DESIGN DAY\n   ************* IDF Context for following error/warning message:\n   ************* Note -- lines truncated at 300 characters, if necessary...\n   *************   2680 Schedule:Week:Daily,\n   ************* indicated Name=Schedule:Week:Daily {2fa7aa76-3dc6-4075-ba4b-93963394a66b}\n   ************* Only last 10 lines before error line shown.....\n   *************   2682   Sp-Bathrooms_ZN_1_FLR_2 Sys-3 Flr-1 Sch-D HPlcmt-north ZN NECB System 3 PSZ Occ Sch Sunday, !- Sunday Schedule:Day Name\n   *************   2683   Sp-Bathrooms_ZN_1_FLR_2 Sys-3 Flr-1 Sch-D HPlcmt-north ZN NECB System 3 PSZ Occ Sch Monday, !- Monday Schedule:Day Name\n   *************   2684   Sp-Bathrooms_ZN_1_FLR_2 Sys-3 Flr-1 Sch-D HPlcmt-north ZN NECB System 3 PSZ Occ Sch Tuesday, !- Tuesday Schedule:Day Name\n   *************   2685   Sp-Bathrooms_ZN_1_FLR_2 Sys-3 Flr-1 Sch-D HPlcmt-north ZN NECB System 3 PSZ Occ Sch Wednesday, !- Wednesday Schedule:Day Name\n   *************   2686   Sp-Bathrooms_ZN_1_FLR_2 Sys-3 Flr-1 Sch-D HPlcmt-north ZN NECB System 3 PSZ Occ Sch Thursday, !- Thursday Schedule:Day Name\n   *************   2687   Sp-Bathrooms_ZN_1_FLR_2 Sys-3 Flr-1 Sch-D HPlcmt-north ZN NECB System 3 PSZ Occ Sch Friday, !- Friday Schedule:Day Name\n   *************   2688   Sp-Bathrooms_ZN_1_FLR_2 Sys-3 Flr-1 Sch-D HPlcmt-north ZN NECB System 3 PSZ Occ Sch Saturday, !- Saturday Schedule:Day Name\n   *************   2689   Sp-Bathrooms_ZN_1_FLR_2 Sys-3 Flr-1 Sch-D HPlcmt-north ZN NECB System 3 PSZ Occ Sch Default, !- Holiday Schedule:Day Name\n   *************   2690   Sp-Bathrooms_ZN_1_FLR_2 Sys-3 Flr-1 Sch-D HPlcmt-north ZN NECB System 3 PSZ Occ Sch Summer Design Day, !- SummerDesignDay Schedule:Day Name\n   *************   2691   Sp-Bathrooms_ZN_1_FLR_2 Sys-3 Flr-1 Sch-D HPlcmt-north ZN NECB System 3 PSZ Occ Sch Winter Design Day, !- WinterDesignDay Schedule:Day Name\n   ** Warning ** IP: IDF line~2691 Alpha Argument length exceeds maximum, will be truncated=  Sp-Bathrooms_ZN_1_FLR_2 Sys-3 Flr-1 Sch-D HPlcmt-north ZN NECB System 3 PSZ Occ Sch Winter Design Da\n   **   ~~~   ** Will be processed as Alpha=SP-BATHROOMS_ZN_1_FLR_2 SYS-3 FLR-1 SCH-D HPLCMT-NORTH ZN NECB SYSTEM 3 PSZ OCC SCH WINTER DESIGN DAY\n   ************* IDF Context for following error/warning message:\n   ************* Note -- lines truncated at 300 characters, if necessary...\n   *************   2711 Schedule:Day:Interval,\n   ************* indicated Name=Sp-Bathrooms_ZN_1_FLR_2 Sys-3 Flr-1 Sch-D HPlcmt-north ZN NECB System 3 PSZ Occ Sch Summer Design Day\n   ************* Only last 1 lines before error line shown.....\n   *************   2712   Sp-Bathrooms_ZN_1_FLR_2 Sys-3 Flr-1 Sch-D HPlcmt-north ZN NECB System 3 PSZ Occ Sch Summer Design Day, !- Name\n   ** Warning ** IP: IDF line~2712 Alpha Argument length exceeds maximum, will be truncated=  Sp-Bathrooms_ZN_1_FLR_2 Sys-3 Flr-1 Sch-D HPlcmt-north ZN NECB System 3 PSZ Occ Sch Summer Design Da\n   **   ~~~   ** Will be processed as Alpha=SP-BATHROOMS_ZN_1_FLR_2 SYS-3 FLR-1 SCH-D HPLCMT-NORTH ZN NECB SYSTEM 3 PSZ OCC SCH SUMMER DESIGN DAY\n   ************* IDF Context for following error/warning message:\n   ************* Note -- lines truncated at 300 characters, if necessary...\n   *************   2718 Schedule:Day:Interval,\n   ************* indicated Name=Sp-Bathrooms_ZN_1_FLR_2 Sys-3 Flr-1 Sch-D HPlcmt-north ZN NECB System 3 PSZ Occ Sch Winter Design Day\n   ************* Only last 1 lines before error line shown.....\n   *************   2719   Sp-Bathrooms_ZN_1_FLR_2 Sys-3 Flr-1 Sch-D HPlcmt-north ZN NECB System 3 PSZ Occ Sch Winter Design Day, !- Name\n   ** Warning ** IP: IDF line~2719 Alpha Argument length exceeds maximum, will be truncated=  Sp-Bathrooms_ZN_1_FLR_2 Sys-3 Flr-1 Sch-D HPlcmt-north ZN NECB System 3 PSZ Occ Sch Winter Design Da\n   **   ~~~   ** Will be processed as Alpha=SP-BATHROOMS_ZN_1_FLR_2 SYS-3 FLR-1 SCH-D HPLCMT-NORTH ZN NECB SYSTEM 3 PSZ OCC SCH WINTER DESIGN DAY\n   ************* IDF Context for following error/warning message:\n   ************* Note -- lines truncated at 300 characters, if necessary...\n   *************   3379 Schedule:Day:Interval,\n   ************* indicated Name=Sp-Corner_Class_1_Pod_1_ZN_1_FLR_1 Sys-3 Flr-2 Sch-D HPlcmt-south ZN NECB System 3 PSZ Occ Sch Sunday\n   ************* Only last 1 lines before error line shown.....\n   *************   3380   Sp-Corner_Class_1_Pod_1_ZN_1_FLR_1 Sys-3 Flr-2 Sch-D HPlcmt-south ZN NECB System 3 PSZ Occ Sch Sunday, !- Name\n   ** Warning ** IP: IDF line~3380 Alpha Argument length exceeds maximum, will be truncated=  Sp-Corner_Class_1_Pod_1_ZN_1_FLR_1 Sys-3 Flr-2 Sch-D HPlcmt-south ZN NECB System 3 PSZ Occ Sch Sunda\n   **   ~~~   ** Will be processed as Alpha=SP-CORNER_CLASS_1_POD_1_ZN_1_FLR_1 SYS-3 FLR-2 SCH-D HPLCMT-SOUTH ZN NECB SYSTEM 3 PSZ OCC SCH SUNDAY\n   ************* IDF Context for following error/warning message:\n   ************* Note -- lines truncated at 300 characters, if necessary...\n   *************   3386 Schedule:Day:Interval,\n   ************* indicated Name=Sp-Corner_Class_1_Pod_1_ZN_1_FLR_1 Sys-3 Flr-2 Sch-D HPlcmt-south ZN NECB System 3 PSZ Occ Sch Monday\n   ************* Only last 1 lines before error line shown.....\n   *************   3387   Sp-Corner_Class_1_Pod_1_ZN_1_FLR_1 Sys-3 Flr-2 Sch-D HPlcmt-south ZN NECB System 3 PSZ Occ Sch Monday, !- Name\n   ** Warning ** IP: IDF line~3387 Alpha Argument length exceeds maximum, will be truncated=  Sp-Corner_Class_1_Pod_1_ZN_1_FLR_1 Sys-3 Flr-2 Sch-D HPlcmt-south ZN NECB System 3 PSZ Occ Sch Monda\n   **   ~~~   ** Will be processed as Alpha=SP-CORNER_CLASS_1_POD_1_ZN_1_FLR_1 SYS-3 FLR-2 SCH-D HPLCMT-SOUTH ZN NECB SYSTEM 3 PSZ OCC SCH MONDAY\n   ************* IDF Context for following error/warning message:\n   ************* Note -- lines truncated at 300 characters, if necessary...\n   *************   3401 Schedule:Day:Interval,\n   ************* indicated Name=Sp-Corner_Class_1_Pod_1_ZN_1_FLR_1 Sys-3 Flr-2 Sch-D HPlcmt-south ZN NECB System 3 PSZ Occ Sch Tuesday\n   ************* Only last 1 lines before error line shown.....\n   *************   3402   Sp-Corner_Class_1_Pod_1_ZN_1_FLR_1 Sys-3 Flr-2 Sch-D HPlcmt-south ZN NECB System 3 PSZ Occ Sch Tuesday, !- Name\n   ** Warning ** IP: IDF line~3402 Alpha Argument length exceeds maximum, will be truncated=  Sp-Corner_Class_1_Pod_1_ZN_1_FLR_1 Sys-3 Flr-2 Sch-D HPlcmt-south ZN NECB System 3 PSZ Occ Sch Tuesda\n   **   ~~~   ** Will be processed as Alpha=SP-CORNER_CLASS_1_POD_1_ZN_1_FLR_1 SYS-3 FLR-2 SCH-D HPLCMT-SOUTH ZN NECB SYSTEM 3 PSZ OCC SCH TUESDAY\n   ************* IDF Context for following error/warning message:\n   ************* Note -- lines truncated at 300 characters, if necessary...\n   *************   3416 Schedule:Day:Interval,\n   ************* indicated Name=Sp-Corner_Class_1_Pod_1_ZN_1_FLR_1 Sys-3 Flr-2 Sch-D HPlcmt-south ZN NECB System 3 PSZ Occ Sch Wednesday\n   ************* Only last 1 lines before error line shown.....\n   *************   3417   Sp-Corner_Class_1_Pod_1_ZN_1_FLR_1 Sys-3 Flr-2 Sch-D HPlcmt-south ZN NECB System 3 PSZ Occ Sch Wednesday, !- Name\n   ** Warning ** IP: IDF line~3417 Alpha Argument length exceeds maximum, will be truncated=  Sp-Corner_Class_1_Pod_1_ZN_1_FLR_1 Sys-3 Flr-2 Sch-D HPlcmt-south ZN NECB System 3 PSZ Occ Sch Wednesda\n   **   ~~~   ** Will be processed as Alpha=SP-CORNER_CLASS_1_POD_1_ZN_1_FLR_1 SYS-3 FLR-2 SCH-D HPLCMT-SOUTH ZN NECB SYSTEM 3 PSZ OCC SCH WEDNESDAY\n   ************* IDF Context for following error/warning message:\n   ************* Note -- lines truncated at 300 characters, if necessary...\n   *************   3431 Schedule:Day:Interval,\n   ************* indicated Name=Sp-Corner_Class_1_Pod_1_ZN_1_FLR_1 Sys-3 Flr-2 Sch-D HPlcmt-south ZN NECB System 3 PSZ Occ Sch Thursday\n   ************* Only last 1 lines before error line shown.....\n   *************   3432   Sp-Corner_Class_1_Pod_1_ZN_1_FLR_1 Sys-3 Flr-2 Sch-D HPlcmt-south ZN NECB System 3 PSZ Occ Sch Thursday, !- Name\n   ** Warning ** IP: IDF line~3432 Alpha Argument length exceeds maximum, will be truncated=  Sp-Corner_Class_1_Pod_1_ZN_1_FLR_1 Sys-3 Flr-2 Sch-D HPlcmt-south ZN NECB System 3 PSZ Occ Sch Thursda\n   **   ~~~   ** Will be processed as Alpha=SP-CORNER_CLASS_1_POD_1_ZN_1_FLR_1 SYS-3 FLR-2 SCH-D HPLCMT-SOUTH ZN NECB SYSTEM 3 PSZ OCC SCH THURSDAY\n   ************* IDF Context for following error/warning message:\n   ************* Note -- lines truncated at 300 characters, if necessary...\n   *************   3446 Schedule:Day:Interval,\n   ************* indicated Name=Sp-Corner_Class_1_Pod_1_ZN_1_FLR_1 Sys-3 Flr-2 Sch-D HPlcmt-south ZN NECB System 3 PSZ Occ Sch Friday\n   ************* Only last 1 lines before error line shown.....\n   *************   3447   Sp-Corner_Class_1_Pod_1_ZN_1_FLR_1 Sys-3 Flr-2 Sch-D HPlcmt-south ZN NECB System 3 PSZ Occ Sch Friday, !- Name\n   ** Warning ** IP: IDF line~3447 Alpha Argument length exceeds maximum, will be truncated=  Sp-Corner_Class_1_Pod_1_ZN_1_FLR_1 Sys-3 Flr-2 Sch-D HPlcmt-south ZN NECB System 3 PSZ Occ Sch Frida\n   **   ~~~   ** Will be processed as Alpha=SP-CORNER_CLASS_1_POD_1_ZN_1_FLR_1 SYS-3 FLR-2 SCH-D HPLCMT-SOUTH ZN NECB SYSTEM 3 PSZ OCC SCH FRIDAY\n   ************* IDF Context for following error/warning message:\n   ************* Note -- lines truncated at 300 characters, if necessary...\n   *************   3461 Schedule:Day:Interval,\n   ************* indicated Name=Sp-Corner_Class_1_Pod_1_ZN_1_FLR_1 Sys-3 Flr-2 Sch-D HPlcmt-south ZN NECB System 3 PSZ Occ Sch Saturday\n   ************* Only last 1 lines before error line shown.....\n   *************   3462   Sp-Corner_Class_1_Pod_1_ZN_1_FLR_1 Sys-3 Flr-2 Sch-D HPlcmt-south ZN NECB System 3 PSZ Occ Sch Saturday, !- Name\n   ** Warning ** IP: IDF line~3462 Alpha Argument length exceeds maximum, will be truncated=  Sp-Corner_Class_1_Pod_1_ZN_1_FLR_1 Sys-3 Flr-2 Sch-D HPlcmt-south ZN NECB System 3 PSZ Occ Sch Saturda\n   **   ~~~   ** Will be processed as Alpha=SP-CORNER_CLASS_1_POD_1_ZN_1_FLR_1 SYS-3 FLR-2 SCH-D HPLCMT-SOUTH ZN NECB SYSTEM 3 PSZ OCC SCH SATURDAY\n   ************* IDF Context for following error/warning message:\n   ************* Note -- lines truncated at 300 characters, if necessary...\n   *************   3468 Schedule:Week:Daily,\n   ************* indicated Name=Schedule:Week:Daily {23f67399-a2dd-4eec-a5d7-9c9d26c94796}\n   ************* Only last 2 lines before error line shown.....\n   *************   3469   Schedule:Week:Daily {23f67399-a2dd-4eec-a5d7-9c9d26c94796}, !- Name\n   *************   3470   Sp-Corner_Class_1_Pod_1_ZN_1_FLR_1 Sys-3 Flr-2 Sch-D HPlcmt-south ZN NECB System 3 PSZ Occ Sch Sunday, !- Sunday Schedule:Day Name\n   ** Warning ** IP: IDF line~3470 Alpha Argument length exceeds maximum, will be truncated=  Sp-Corner_Class_1_Pod_1_ZN_1_FLR_1 Sys-3 Flr-2 Sch-D HPlcmt-south ZN NECB System 3 PSZ Occ Sch Sunda\n   **   ~~~   ** Will be processed as Alpha=SP-CORNER_CLASS_1_POD_1_ZN_1_FLR_1 SYS-3 FLR-2 SCH-D HPLCMT-SOUTH ZN NECB SYSTEM 3 PSZ OCC SCH SUNDAY\n   ************* IDF Context for following error/warning message:\n   ************* Note -- lines truncated at 300 characters, if necessary...\n   *************   3468 Schedule:Week:Daily,\n   ************* indicated Name=Schedule:Week:Daily {23f67399-a2dd-4eec-a5d7-9c9d26c94796}\n   ************* Only last 3 lines before error line shown.....\n   *************   3469   Schedule:Week:Daily {23f67399-a2dd-4eec-a5d7-9c9d26c94796}, !- Name\n   *************   3470   Sp-Corner_Class_1_Pod_1_ZN_1_FLR_1 Sys-3 Flr-2 Sch-D HPlcmt-south ZN NECB System 3 PSZ Occ Sch Sunday, !- Sunday Schedule:Day Name\n   *************   3471   Sp-Corner_Class_1_Pod_1_ZN_1_FLR_1 Sys-3 Flr-2 Sch-D HPlcmt-south ZN NECB System 3 PSZ Occ Sch Monday, !- Monday Schedule:Day Name\n   ** Warning ** IP: IDF line~3471 Alpha Argument length exceeds maximum, will be truncated=  Sp-Corner_Class_1_Pod_1_ZN_1_FLR_1 Sys-3 Flr-2 Sch-D HPlcmt-south ZN NECB System 3 PSZ Occ Sch Monda\n   **   ~~~   ** Will be processed as Alpha=SP-CORNER_CLASS_1_POD_1_ZN_1_FLR_1 SYS-3 FLR-2 SCH-D HPLCMT-SOUTH ZN NECB SYSTEM 3 PSZ OCC SCH MONDAY\n   ************* IDF Context for following error/warning message:\n   ************* Note -- lines truncated at 300 characters, if necessary...\n   *************   3468 Schedule:Week:Daily,\n   ************* indicated Name=Schedule:Week:Daily {23f67399-a2dd-4eec-a5d7-9c9d26c94796}\n   ************* Only last 4 lines before error line shown.....\n   *************   3469   Schedule:Week:Daily {23f67399-a2dd-4eec-a5d7-9c9d26c94796}, !- Name\n   *************   3470   Sp-Corner_Class_1_Pod_1_ZN_1_FLR_1 Sys-3 Flr-2 Sch-D HPlcmt-south ZN NECB System 3 PSZ Occ Sch Sunday, !- Sunday Schedule:Day Name\n   *************   3471   Sp-Corner_Class_1_Pod_1_ZN_1_FLR_1 Sys-3 Flr-2 Sch-D HPlcmt-south ZN NECB System 3 PSZ Occ Sch Monday, !- Monday Schedule:Day Name\n   *************   3472   Sp-Corner_Class_1_Pod_1_ZN_1_FLR_1 Sys-3 Flr-2 Sch-D HPlcmt-south ZN NECB System 3 PSZ Occ Sch Tuesday, !- Tuesday Schedule:Day Name\n   ** Warning ** IP: IDF line~3472 Alpha Argument length exceeds maximum, will be truncated=  Sp-Corner_Class_1_Pod_1_ZN_1_FLR_1 Sys-3 Flr-2 Sch-D HPlcmt-south ZN NECB System 3 PSZ Occ Sch Tuesda\n   **   ~~~   ** Will be processed as Alpha=SP-CORNER_CLASS_1_POD_1_ZN_1_FLR_1 SYS-3 FLR-2 SCH-D HPLCMT-SOUTH ZN NECB SYSTEM 3 PSZ OCC SCH TUESDAY\n   ************* IDF Context for following error/warning message:\n   ************* Note -- lines truncated at 300 characters, if necessary...\n   *************   3468 Schedule:Week:Daily,\n   ************* indicated Name=Schedule:Week:Daily {23f67399-a2dd-4eec-a5d7-9c9d26c94796}\n   ************* Only last 5 lines before error line shown.....\n   *************   3469   Schedule:Week:Daily {23f67399-a2dd-4eec-a5d7-9c9d26c94796}, !- Name\n   *************   3470   Sp-Corner_Class_1_Pod_1_ZN_1_FLR_1 Sys-3 Flr-2 Sch-D HPlcmt-south ZN NECB System 3 PSZ Occ Sch Sunday, !- Sunday Schedule:Day Name\n   *************   3471   Sp-Corner_Class_1_Pod_1_ZN_1_FLR_1 Sys-3 Flr-2 Sch-D HPlcmt-south ZN NECB System 3 PSZ Occ Sch Monday, !- Monday Schedule:Day Name\n   *************   3472   Sp-Corner_Class_1_Pod_1_ZN_1_FLR_1 Sys-3 Flr-2 Sch-D HPlcmt-south ZN NECB System 3 PSZ Occ Sch Tuesday, !- Tuesday Schedule:Day Name\n   *************   3473   Sp-Corner_Class_1_Pod_1_ZN_1_FLR_1 Sys-3 Flr-2 Sch-D HPlcmt-south ZN NECB System 3 PSZ Occ Sch Wednesday, !- Wednesday Schedule:Day Name\n   ** Warning ** IP: IDF line~3473 Alpha Argument length exceeds maximum, will be truncated=  Sp-Corner_Class_1_Pod_1_ZN_1_FLR_1 Sys-3 Flr-2 Sch-D HPlcmt-south ZN NECB System 3 PSZ Occ Sch Wednesda\n   **   ~~~   ** Will be processed as Alpha=SP-CORNER_CLASS_1_POD_1_ZN_1_FLR_1 SYS-3 FLR-2 SCH-D HPLCMT-SOUTH ZN NECB SYSTEM 3 PSZ OCC SCH WEDNESDAY\n   ************* IDF Context for following error/warning message:\n   ************* Note -- lines truncated at 300 characters, if necessary...\n   *************   3468 Schedule:Week:Daily,\n   ************* indicated Name=Schedule:Week:Daily {23f67399-a2dd-4eec-a5d7-9c9d26c94796}\n   ************* Only last 6 lines before error line shown.....\n   *************   3469   Schedule:Week:Daily {23f67399-a2dd-4eec-a5d7-9c9d26c94796}, !- Name\n   *************   3470   Sp-Corner_Class_1_Pod_1_ZN_1_FLR_1 Sys-3 Flr-2 Sch-D HPlcmt-south ZN NECB System 3 PSZ Occ Sch Sunday, !- Sunday Schedule:Day Name\n   *************   3471   Sp-Corner_Class_1_Pod_1_ZN_1_FLR_1 Sys-3 Flr-2 Sch-D HPlcmt-south ZN NECB System 3 PSZ Occ Sch Monday, !- Monday Schedule:Day Name\n   *************   3472   Sp-Corner_Class_1_Pod_1_ZN_1_FLR_1 Sys-3 Flr-2 Sch-D HPlcmt-south ZN NECB System 3 PSZ Occ Sch Tuesday, !- Tuesday Schedule:Day Name\n   *************   3473   Sp-Corner_Class_1_Pod_1_ZN_1_FLR_1 Sys-3 Flr-2 Sch-D HPlcmt-south ZN NECB System 3 PSZ Occ Sch Wednesday, !- Wednesday Schedule:Day Name\n   *************   3474   Sp-Corner_Class_1_Pod_1_ZN_1_FLR_1 Sys-3 Flr-2 Sch-D HPlcmt-south ZN NECB System 3 PSZ Occ Sch Thursday, !- Thursday Schedule:Day Name\n   ** Warning ** IP: IDF line~3474 Alpha Argument length exceeds maximum, will be truncated=  Sp-Corner_Class_1_Pod_1_ZN_1_FLR_1 Sys-3 Flr-2 Sch-D HPlcmt-south ZN NECB System 3 PSZ Occ Sch Thursda\n   **   ~~~   ** Will be processed as Alpha=SP-CORNER_CLASS_1_POD_1_ZN_1_FLR_1 SYS-3 FLR-2 SCH-D HPLCMT-SOUTH ZN NECB SYSTEM 3 PSZ OCC SCH THURSDAY\n   ************* IDF Context for following error/warning message:\n   ************* Note -- lines truncated at 300 characters, if necessary...\n   *************   3468 Schedule:Week:Daily,\n   ************* indicated Name=Schedule:Week:Daily {23f67399-a2dd-4eec-a5d7-9c9d26c94796}\n   ************* Only last 7 lines before error line shown.....\n   *************   3469   Schedule:Week:Daily {23f67399-a2dd-4eec-a5d7-9c9d26c94796}, !- Name\n   *************   3470   Sp-Corner_Class_1_Pod_1_ZN_1_FLR_1 Sys-3 Flr-2 Sch-D HPlcmt-south ZN NECB System 3 PSZ Occ Sch Sunday, !- Sunday Schedule:Day Name\n   *************   3471   Sp-Corner_Class_1_Pod_1_ZN_1_FLR_1 Sys-3 Flr-2 Sch-D HPlcmt-south ZN NECB System 3 PSZ Occ Sch Monday, !- Monday Schedule:Day Name\n   *************   3472   Sp-Corner_Class_1_Pod_1_ZN_1_FLR_1 Sys-3 Flr-2 Sch-D HPlcmt-south ZN NECB System 3 PSZ Occ Sch Tuesday, !- Tuesday Schedule:Day Name\n   *************   3473   Sp-Corner_Class_1_Pod_1_ZN_1_FLR_1 Sys-3 Flr-2 Sch-D HPlcmt-south ZN NECB System 3 PSZ Occ Sch Wednesday, !- Wednesday Schedule:Day Name\n   *************   3474   Sp-Corner_Class_1_Pod_1_ZN_1_FLR_1 Sys-3 Flr-2 Sch-D HPlcmt-south ZN NECB System 3 PSZ Occ Sch Thursday, !- Thursday Schedule:Day Name\n   *************   3475   Sp-Corner_Class_1_Pod_1_ZN_1_FLR_1 Sys-3 Flr-2 Sch-D HPlcmt-south ZN NECB System 3 PSZ Occ Sch Friday, !- Friday Schedule:Day Name\n   ** Warning ** IP: IDF line~3475 Alpha Argument length exceeds maximum, will be truncated=  Sp-Corner_Class_1_Pod_1_ZN_1_FLR_1 Sys-3 Flr-2 Sch-D HPlcmt-south ZN NECB System 3 PSZ Occ Sch Frida\n   **   ~~~   ** Will be processed as Alpha=SP-CORNER_CLASS_1_POD_1_ZN_1_FLR_1 SYS-3 FLR-2 SCH-D HPLCMT-SOUTH ZN NECB SYSTEM 3 PSZ OCC SCH FRIDAY\n   ************* IDF Context for following error/warning message:\n   ************* Note -- lines truncated at 300 characters, if necessary...\n   *************   3468 Schedule:Week:Daily,\n   ************* indicated Name=Schedule:Week:Daily {23f67399-a2dd-4eec-a5d7-9c9d26c94796}\n   ************* Only last 8 lines before error line shown.....\n   *************   3469   Schedule:Week:Daily {23f67399-a2dd-4eec-a5d7-9c9d26c94796}, !- Name\n   *************   3470   Sp-Corner_Class_1_Pod_1_ZN_1_FLR_1 Sys-3 Flr-2 Sch-D HPlcmt-south ZN NECB System 3 PSZ Occ Sch Sunday, !- Sunday Schedule:Day Name\n   *************   3471   Sp-Corner_Class_1_Pod_1_ZN_1_FLR_1 Sys-3 Flr-2 Sch-D HPlcmt-south ZN NECB System 3 PSZ Occ Sch Monday, !- Monday Schedule:Day Name\n   *************   3472   Sp-Corner_Class_1_Pod_1_ZN_1_FLR_1 Sys-3 Flr-2 Sch-D HPlcmt-south ZN NECB System 3 PSZ Occ Sch Tuesday, !- Tuesday Schedule:Day Name\n   *************   3473   Sp-Corner_Class_1_Pod_1_ZN_1_FLR_1 Sys-3 Flr-2 Sch-D HPlcmt-south ZN NECB System 3 PSZ Occ Sch Wednesday, !- Wednesday Schedule:Day Name\n   *************   3474   Sp-Corner_Class_1_Pod_1_ZN_1_FLR_1 Sys-3 Flr-2 Sch-D HPlcmt-south ZN NECB System 3 PSZ Occ Sch Thursday, !- Thursday Schedule:Day Name\n   *************   3475   Sp-Corner_Class_1_Pod_1_ZN_1_FLR_1 Sys-3 Flr-2 Sch-D HPlcmt-south ZN NECB System 3 PSZ Occ Sch Friday, !- Friday Schedule:Day Name\n   *************   3476   Sp-Corner_Class_1_Pod_1_ZN_1_FLR_1 Sys-3 Flr-2 Sch-D HPlcmt-south ZN NECB System 3 PSZ Occ Sch Saturday, !- Saturday Schedule:Day Name\n   ** Warning ** IP: IDF line~3476 Alpha Argument length exceeds maximum, will be truncated=  Sp-Corner_Class_1_Pod_1_ZN_1_FLR_1 Sys-3 Flr-2 Sch-D HPlcmt-south ZN NECB System 3 PSZ Occ Sch Saturda\n   **   ~~~   ** Will be processed as Alpha=SP-CORNER_CLASS_1_POD_1_ZN_1_FLR_1 SYS-3 FLR-2 SCH-D HPLCMT-SOUTH ZN NECB SYSTEM 3 PSZ OCC SCH SATURDAY\n   ************* IDF Context for following error/warning message:\n   ************* Note -- lines truncated at 300 characters, if necessary...\n   *************   3468 Schedule:Week:Daily,\n   ************* indicated Name=Schedule:Week:Daily {23f67399-a2dd-4eec-a5d7-9c9d26c94796}\n   ************* Only last 9 lines before error line shown.....\n   *************   3469   Schedule:Week:Daily {23f67399-a2dd-4eec-a5d7-9c9d26c94796}, !- Name\n   *************   3470   Sp-Corner_Class_1_Pod_1_ZN_1_FLR_1 Sys-3 Flr-2 Sch-D HPlcmt-south ZN NECB System 3 PSZ Occ Sch Sunday, !- Sunday Schedule:Day Name\n   *************   3471   Sp-Corner_Class_1_Pod_1_ZN_1_FLR_1 Sys-3 Flr-2 Sch-D HPlcmt-south ZN NECB System 3 PSZ Occ Sch Monday, !- Monday Schedule:Day Name\n   *************   3472   Sp-Corner_Class_1_Pod_1_ZN_1_FLR_1 Sys-3 Flr-2 Sch-D HPlcmt-south ZN NECB System 3 PSZ Occ Sch Tuesday, !- Tuesday Schedule:Day Name\n   *************   3473   Sp-Corner_Class_1_Pod_1_ZN_1_FLR_1 Sys-3 Flr-2 Sch-D HPlcmt-south ZN NECB System 3 PSZ Occ Sch Wednesday, !- Wednesday Schedule:Day Name\n   *************   3474   Sp-Corner_Class_1_Pod_1_ZN_1_FLR_1 Sys-3 Flr-2 Sch-D HPlcmt-south ZN NECB System 3 PSZ Occ Sch Thursday, !- Thursday Schedule:Day Name\n   *************   3475   Sp-Corner_Class_1_Pod_1_ZN_1_FLR_1 Sys-3 Flr-2 Sch-D HPlcmt-south ZN NECB System 3 PSZ Occ Sch Friday, !- Friday Schedule:Day Name\n   *************   3476   Sp-Corner_Class_1_Pod_1_ZN_1_FLR_1 Sys-3 Flr-2 Sch-D HPlcmt-south ZN NECB System 3 PSZ Occ Sch Saturday, !- Saturday Schedule:Day Name\n   *************   3477   Sp-Corner_Class_1_Pod_1_ZN_1_FLR_1 Sys-3 Flr-2 Sch-D HPlcmt-south ZN NECB System 3 PSZ Occ Sch Default, !- Holiday Schedule:Day Name\n   ** Warning ** IP: IDF line~3477 Alpha Argument length exceeds maximum, will be truncated=  Sp-Corner_Class_1_Pod_1_ZN_1_FLR_1 Sys-3 Flr-2 Sch-D HPlcmt-south ZN NECB System 3 PSZ Occ Sch Defaul\n   **   ~~~   ** Will be processed as Alpha=SP-CORNER_CLASS_1_POD_1_ZN_1_FLR_1 SYS-3 FLR-2 SCH-D HPLCMT-SOUTH ZN NECB SYSTEM 3 PSZ OCC SCH DEFAULT\n   ************* IDF Context for following error/warning message:\n   ************* Note -- lines truncated at 300 characters, if necessary...\n   *************   3468 Schedule:Week:Daily,\n   ************* indicated Name=Schedule:Week:Daily {23f67399-a2dd-4eec-a5d7-9c9d26c94796}\n   ************* Only last 10 lines before error line shown.....\n   *************   3469   Schedule:Week:Daily {23f67399-a2dd-4eec-a5d7-9c9d26c94796}, !- Name\n   *************   3470   Sp-Corner_Class_1_Pod_1_ZN_1_FLR_1 Sys-3 Flr-2 Sch-D HPlcmt-south ZN NECB System 3 PSZ Occ Sch Sunday, !- Sunday Schedule:Day Name\n   *************   3471   Sp-Corner_Class_1_Pod_1_ZN_1_FLR_1 Sys-3 Flr-2 Sch-D HPlcmt-south ZN NECB System 3 PSZ Occ Sch Monday, !- Monday Schedule:Day Name\n   *************   3472   Sp-Corner_Class_1_Pod_1_ZN_1_FLR_1 Sys-3 Flr-2 Sch-D HPlcmt-south ZN NECB System 3 PSZ Occ Sch Tuesday, !- Tuesday Schedule:Day Name\n   *************   3473   Sp-Corner_Class_1_Pod_1_ZN_1_FLR_1 Sys-3 Flr-2 Sch-D HPlcmt-south ZN NECB System 3 PSZ Occ Sch Wednesday, !- Wednesday Schedule:Day Name\n   *************   3474   Sp-Corner_Class_1_Pod_1_ZN_1_FLR_1 Sys-3 Flr-2 Sch-D HPlcmt-south ZN NECB System 3 PSZ Occ Sch Thursday, !- Thursday Schedule:Day Name\n   *************   3475   Sp-Corner_Class_1_Pod_1_ZN_1_FLR_1 Sys-3 Flr-2 Sch-D HPlcmt-south ZN NECB System 3 PSZ Occ Sch Friday, !- Friday Schedule:Day Name\n   *************   3476   Sp-Corner_Class_1_Pod_1_ZN_1_FLR_1 Sys-3 Flr-2 Sch-D HPlcmt-south ZN NECB System 3 PSZ Occ Sch Saturday, !- Saturday Schedule:Day Name\n   *************   3477   Sp-Corner_Class_1_Pod_1_ZN_1_FLR_1 Sys-3 Flr-2 Sch-D HPlcmt-south ZN NECB System 3 PSZ Occ Sch Default, !- Holiday Schedule:Day Name\n   *************   3478   Sp-Corner_Class_1_Pod_1_ZN_1_FLR_1 Sys-3 Flr-2 Sch-D HPlcmt-south ZN NECB System 3 PSZ Occ Sch Summer Design Day, !- SummerDesignDay Schedule:Day Name\n   ** Warning ** IP: IDF line~3478 Alpha Argument length exceeds maximum, will be truncated=  Sp-Corner_Class_1_Pod_1_ZN_1_FLR_1 Sys-3 Flr-2 Sch-D HPlcmt-south ZN NECB System 3 PSZ Occ Sch Summer Design Da\n   **   ~~~   ** Will be processed as Alpha=SP-CORNER_CLASS_1_POD_1_ZN_1_FLR_1 SYS-3 FLR-2 SCH-D HPLCMT-SOUTH ZN NECB SYSTEM 3 PSZ OCC SCH SUMMER DESIGN DAY\n   ************* IDF Context for following error/warning message:\n   ************* Note -- lines truncated at 300 characters, if necessary...\n   *************   3468 Schedule:Week:Daily,\n   ************* indicated Name=Schedule:Week:Daily {23f67399-a2dd-4eec-a5d7-9c9d26c94796}\n   ************* Only last 10 lines before error line shown.....\n   *************   3470   Sp-Corner_Class_1_Pod_1_ZN_1_FLR_1 Sys-3 Flr-2 Sch-D HPlcmt-south ZN NECB System 3 PSZ Occ Sch Sunday, !- Sunday Schedule:Day Name\n   *************   3471   Sp-Corner_Class_1_Pod_1_ZN_1_FLR_1 Sys-3 Flr-2 Sch-D HPlcmt-south ZN NECB System 3 PSZ Occ Sch Monday, !- Monday Schedule:Day Name\n   *************   3472   Sp-Corner_Class_1_Pod_1_ZN_1_FLR_1 Sys-3 Flr-2 Sch-D HPlcmt-south ZN NECB System 3 PSZ Occ Sch Tuesday, !- Tuesday Schedule:Day Name\n   *************   3473   Sp-Corner_Class_1_Pod_1_ZN_1_FLR_1 Sys-3 Flr-2 Sch-D HPlcmt-south ZN NECB System 3 PSZ Occ Sch Wednesday, !- Wednesday Schedule:Day Name\n   *************   3474   Sp-Corner_Class_1_Pod_1_ZN_1_FLR_1 Sys-3 Flr-2 Sch-D HPlcmt-south ZN NECB System 3 PSZ Occ Sch Thursday, !- Thursday Schedule:Day Name\n   *************   3475   Sp-Corner_Class_1_Pod_1_ZN_1_FLR_1 Sys-3 Flr-2 Sch-D HPlcmt-south ZN NECB System 3 PSZ Occ Sch Friday, !- Friday Schedule:Day Name\n   *************   3476   Sp-Corner_Class_1_Pod_1_ZN_1_FLR_1 Sys-3 Flr-2 Sch-D HPlcmt-south ZN NECB System 3 PSZ Occ Sch Saturday, !- Saturday Schedule:Day Name\n   *************   3477   Sp-Corner_Class_1_Pod_1_ZN_1_FLR_1 Sys-3 Flr-2 Sch-D HPlcmt-south ZN NECB System 3 PSZ Occ Sch Default, !- Holiday Schedule:Day Name\n   *************   3478   Sp-Corner_Class_1_Pod_1_ZN_1_FLR_1 Sys-3 Flr-2 Sch-D HPlcmt-south ZN NECB System 3 PSZ Occ Sch Summer Design Day, !- SummerDesignDay Schedule:Day Name\n   *************   3479   Sp-Corner_Class_1_Pod_1_ZN_1_FLR_1 Sys-3 Flr-2 Sch-D HPlcmt-south ZN NECB System 3 PSZ Occ Sch Winter Design Day, !- WinterDesignDay Schedule:Day Name\n   ** Warning ** IP: IDF line~3479 Alpha Argument length exceeds maximum, will be truncated=  Sp-Corner_Class_1_Pod_1_ZN_1_FLR_1 Sys-3 Flr-2 Sch-D HPlcmt-south ZN NECB System 3 PSZ Occ Sch Winter Design Da\n   **   ~~~   ** Will be processed as Alpha=SP-CORNER_CLASS_1_POD_1_ZN_1_FLR_1 SYS-3 FLR-2 SCH-D HPLCMT-SOUTH ZN NECB SYSTEM 3 PSZ OCC SCH WINTER DESIGN DAY\n   ************* IDF Context for following error/warning message:\n   ************* Note -- lines truncated at 300 characters, if necessary...\n   *************   3468 Schedule:Week:Daily,\n   ************* indicated Name=Schedule:Week:Daily {23f67399-a2dd-4eec-a5d7-9c9d26c94796}\n   ************* Only last 10 lines before error line shown.....\n   *************   3471   Sp-Corner_Class_1_Pod_1_ZN_1_FLR_1 Sys-3 Flr-2 Sch-D HPlcmt-south ZN NECB System 3 PSZ Occ Sch Monday, !- Monday Schedule:Day Name\n   *************   3472   Sp-Corner_Class_1_Pod_1_ZN_1_FLR_1 Sys-3 Flr-2 Sch-D HPlcmt-south ZN NECB System 3 PSZ Occ Sch Tuesday, !- Tuesday Schedule:Day Name\n   *************   3473   Sp-Corner_Class_1_Pod_1_ZN_1_FLR_1 Sys-3 Flr-2 Sch-D HPlcmt-south ZN NECB System 3 PSZ Occ Sch Wednesday, !- Wednesday Schedule:Day Name\n   *************   3474   Sp-Corner_Class_1_Pod_1_ZN_1_FLR_1 Sys-3 Flr-2 Sch-D HPlcmt-south ZN NECB System 3 PSZ Occ Sch Thursday, !- Thursday Schedule:Day Name\n   *************   3475   Sp-Corner_Class_1_Pod_1_ZN_1_FLR_1 Sys-3 Flr-2 Sch-D HPlcmt-south ZN NECB System 3 PSZ Occ Sch Friday, !- Friday Schedule:Day Name\n   *************   3476   Sp-Corner_Class_1_Pod_1_ZN_1_FLR_1 Sys-3 Flr-2 Sch-D HPlcmt-south ZN NECB System 3 PSZ Occ Sch Saturday, !- Saturday Schedule:Day Name\n   *************   3477   Sp-Corner_Class_1_Pod_1_ZN_1_FLR_1 Sys-3 Flr-2 Sch-D HPlcmt-south ZN NECB System 3 PSZ Occ Sch Default, !- Holiday Schedule:Day Name\n   *************   3478   Sp-Corner_Class_1_Pod_1_ZN_1_FLR_1 Sys-3 Flr-2 Sch-D HPlcmt-south ZN NECB System 3 PSZ Occ Sch Summer Design Day, !- SummerDesignDay Schedule:Day Name\n   *************   3479   Sp-Corner_Class_1_Pod_1_ZN_1_FLR_1 Sys-3 Flr-2 Sch-D HPlcmt-south ZN NECB System 3 PSZ Occ Sch Winter Design Day, !- WinterDesignDay Schedule:Day Name\n   *************   3480   Sp-Corner_Class_1_Pod_1_ZN_1_FLR_1 Sys-3 Flr-2 Sch-D HPlcmt-south ZN NECB System 3 PSZ Occ Sch Default, !- CustomDay1 Schedule:Day Name\n   ** Warning ** IP: IDF line~3480 Alpha Argument length exceeds maximum, will be truncated=  Sp-Corner_Class_1_Pod_1_ZN_1_FLR_1 Sys-3 Flr-2 Sch-D HPlcmt-south ZN NECB System 3 PSZ Occ Sch Defaul\n   **   ~~~   ** Will be processed as Alpha=SP-CORNER_CLASS_1_POD_1_ZN_1_FLR_1 SYS-3 FLR-2 SCH-D HPLCMT-SOUTH ZN NECB SYSTEM 3 PSZ OCC SCH DEFAULT\n   ************* IDF Context for following error/warning message:\n   ************* Note -- lines truncated at 300 characters, if necessary...\n   *************   3468 Schedule:Week:Daily,\n   ************* indicated Name=Schedule:Week:Daily {23f67399-a2dd-4eec-a5d7-9c9d26c94796}\n   ************* Only last 10 lines before error line shown.....\n   *************   3472   Sp-Corner_Class_1_Pod_1_ZN_1_FLR_1 Sys-3 Flr-2 Sch-D HPlcmt-south ZN NECB System 3 PSZ Occ Sch Tuesday, !- Tuesday Schedule:Day Name\n   *************   3473   Sp-Corner_Class_1_Pod_1_ZN_1_FLR_1 Sys-3 Flr-2 Sch-D HPlcmt-south ZN NECB System 3 PSZ Occ Sch Wednesday, !- Wednesday Schedule:Day Name\n   *************   3474   Sp-Corner_Class_1_Pod_1_ZN_1_FLR_1 Sys-3 Flr-2 Sch-D HPlcmt-south ZN NECB System 3 PSZ Occ Sch Thursday, !- Thursday Schedule:Day Name\n   *************   3475   Sp-Corner_Class_1_Pod_1_ZN_1_FLR_1 Sys-3 Flr-2 Sch-D HPlcmt-south ZN NECB System 3 PSZ Occ Sch Friday, !- Friday Schedule:Day Name\n   *************   3476   Sp-Corner_Class_1_Pod_1_ZN_1_FLR_1 Sys-3 Flr-2 Sch-D HPlcmt-south ZN NECB System 3 PSZ Occ Sch Saturday, !- Saturday Schedule:Day Name\n   *************   3477   Sp-Corner_Class_1_Pod_1_ZN_1_FLR_1 Sys-3 Flr-2 Sch-D HPlcmt-south ZN NECB System 3 PSZ Occ Sch Default, !- Holiday Schedule:Day Name\n   *************   3478   Sp-Corner_Class_1_Pod_1_ZN_1_FLR_1 Sys-3 Flr-2 Sch-D HPlcmt-south ZN NECB System 3 PSZ Occ Sch Summer Design Day, !- SummerDesignDay Schedule:Day Name\n   *************   3479   Sp-Corner_Class_1_Pod_1_ZN_1_FLR_1 Sys-3 Flr-2 Sch-D HPlcmt-south ZN NECB System 3 PSZ Occ Sch Winter Design Day, !- WinterDesignDay Schedule:Day Name\n   *************   3480   Sp-Corner_Class_1_Pod_1_ZN_1_FLR_1 Sys-3 Flr-2 Sch-D HPlcmt-south ZN NECB System 3 PSZ Occ Sch Default, !- CustomDay1 Schedule:Day Name\n   *************   3481   Sp-Corner_Class_1_Pod_1_ZN_1_FLR_1 Sys-3 Flr-2 Sch-D HPlcmt-south ZN NECB System 3 PSZ Occ Sch Default; !- CustomDay2 Schedule:Day Name\n   ** Warning ** IP: IDF line~3481 Alpha Argument length exceeds maximum, will be truncated=  Sp-Corner_Class_1_Pod_1_ZN_1_FLR_1 Sys-3 Flr-2 Sch-D HPlcmt-south ZN NECB System 3 PSZ Occ Sch Defaul\n   **   ~~~   ** Will be processed as Alpha=SP-CORNER_CLASS_1_POD_1_ZN_1_FLR_1 SYS-3 FLR-2 SCH-D HPLCMT-SOUTH ZN NECB SYSTEM 3 PSZ OCC SCH DEFAULT\n   ************* IDF Context for following error/warning message:\n   ************* Note -- lines truncated at 300 characters, if necessary...\n   *************   3492 Schedule:Day:Interval,\n   ************* indicated Name=Sp-Corner_Class_1_Pod_1_ZN_1_FLR_1 Sys-3 Flr-2 Sch-D HPlcmt-south ZN NECB System 3 PSZ Occ Sch Default\n   ************* Only last 1 lines before error line shown.....\n   *************   3493   Sp-Corner_Class_1_Pod_1_ZN_1_FLR_1 Sys-3 Flr-2 Sch-D HPlcmt-south ZN NECB System 3 PSZ Occ Sch Default, !- Name\n   ** Warning ** IP: IDF line~3493 Alpha Argument length exceeds maximum, will be truncated=  Sp-Corner_Class_1_Pod_1_ZN_1_FLR_1 Sys-3 Flr-2 Sch-D HPlcmt-south ZN NECB System 3 PSZ Occ Sch Defaul\n   **   ~~~   ** Will be processed as Alpha=SP-CORNER_CLASS_1_POD_1_ZN_1_FLR_1 SYS-3 FLR-2 SCH-D HPLCMT-SOUTH ZN NECB SYSTEM 3 PSZ OCC SCH DEFAULT\n   ************* IDF Context for following error/warning message:\n   ************* Note -- lines truncated at 300 characters, if necessary...\n   *************   3499 Schedule:Day:Interval,\n   ************* indicated Name=Sp-Corner_Class_1_Pod_1_ZN_1_FLR_1 Sys-3 Flr-2 Sch-D HPlcmt-south ZN NECB System 3 PSZ Occ Sch Summer Design Day\n   ************* Only last 1 lines before error line shown.....\n   *************   3500   Sp-Corner_Class_1_Pod_1_ZN_1_FLR_1 Sys-3 Flr-2 Sch-D HPlcmt-south ZN NECB System 3 PSZ Occ Sch Summer Design Day, !- Name\n   ** Warning ** IP: IDF line~3500 Alpha Argument length exceeds maximum, will be truncated=  Sp-Corner_Class_1_Pod_1_ZN_1_FLR_1 Sys-3 Flr-2 Sch-D HPlcmt-south ZN NECB System 3 PSZ Occ Sch Summer Design Da\n   **   ~~~   ** Will be processed as Alpha=SP-CORNER_CLASS_1_POD_1_ZN_1_FLR_1 SYS-3 FLR-2 SCH-D HPLCMT-SOUTH ZN NECB SYSTEM 3 PSZ OCC SCH SUMMER DESIGN DAY\n   ************* IDF Context for following error/warning message:\n   ************* Note -- lines truncated at 300 characters, if necessary...\n   *************   3506 Schedule:Day:Interval,\n   ************* indicated Name=Sp-Corner_Class_1_Pod_1_ZN_1_FLR_1 Sys-3 Flr-2 Sch-D HPlcmt-south ZN NECB System 3 PSZ Occ Sch Winter Design Day\n   ************* Only last 1 lines before error line shown.....\n   *************   3507   Sp-Corner_Class_1_Pod_1_ZN_1_FLR_1 Sys-3 Flr-2 Sch-D HPlcmt-south ZN NECB System 3 PSZ Occ Sch Winter Design Day, !- Name\n   ** Warning ** IP: IDF line~3507 Alpha Argument length exceeds maximum, will be truncated=  Sp-Corner_Class_1_Pod_1_ZN_1_FLR_1 Sys-3 Flr-2 Sch-D HPlcmt-south ZN NECB System 3 PSZ Occ Sch Winter Design Da\n   **   ~~~   ** Will be processed as Alpha=SP-CORNER_CLASS_1_POD_1_ZN_1_FLR_1 SYS-3 FLR-2 SCH-D HPLCMT-SOUTH ZN NECB SYSTEM 3 PSZ OCC SCH WINTER DESIGN DAY\n   ************* IDF Context for following error/warning message:\n   ************* Note -- lines truncated at 300 characters, if necessary...\n   *************   3783 Schedule:Day:Interval,\n   ************* indicated Name=Sp-Corner_Class_1_Pod_1_ZN_1_FLR_2 Sys-3 Flr-1 Sch-D HPlcmt-south ZN NECB System 3 PSZ Occ Sch Sunday\n   ************* Only last 1 lines before error line shown.....\n   *************   3784   Sp-Corner_Class_1_Pod_1_ZN_1_FLR_2 Sys-3 Flr-1 Sch-D HPlcmt-south ZN NECB System 3 PSZ Occ Sch Sunday, !- Name\n   ** Warning ** IP: IDF line~3784 Alpha Argument length exceeds maximum, will be truncated=  Sp-Corner_Class_1_Pod_1_ZN_1_FLR_2 Sys-3 Flr-1 Sch-D HPlcmt-south ZN NECB System 3 PSZ Occ Sch Sunda\n   **   ~~~   ** Will be processed as Alpha=SP-CORNER_CLASS_1_POD_1_ZN_1_FLR_2 SYS-3 FLR-1 SCH-D HPLCMT-SOUTH ZN NECB SYSTEM 3 PSZ OCC SCH SUNDAY\n   ************* IDF Context for following error/warning message:\n   ************* Note -- lines truncated at 300 characters, if necessary...\n   *************   3790 Schedule:Day:Interval,\n   ************* indicated Name=Sp-Corner_Class_1_Pod_1_ZN_1_FLR_2 Sys-3 Flr-1 Sch-D HPlcmt-south ZN NECB System 3 PSZ Occ Sch Monday\n   ************* Only last 1 lines before error line shown.....\n   *************   3791   Sp-Corner_Class_1_Pod_1_ZN_1_FLR_2 Sys-3 Flr-1 Sch-D HPlcmt-south ZN NECB System 3 PSZ Occ Sch Monday, !- Name\n   ** Warning ** IP: IDF line~3791 Alpha Argument length exceeds maximum, will be truncated=  Sp-Corner_Class_1_Pod_1_ZN_1_FLR_2 Sys-3 Flr-1 Sch-D HPlcmt-south ZN NECB System 3 PSZ Occ Sch Monda\n   **   ~~~   ** Will be processed as Alpha=SP-CORNER_CLASS_1_POD_1_ZN_1_FLR_2 SYS-3 FLR-1 SCH-D HPLCMT-SOUTH ZN NECB SYSTEM 3 PSZ OCC SCH MONDAY\n   ************* IDF Context for following error/warning message:\n   ************* Note -- lines truncated at 300 characters, if necessary...\n   *************   3805 Schedule:Day:Interval,\n   ************* indicated Name=Sp-Corner_Class_1_Pod_1_ZN_1_FLR_2 Sys-3 Flr-1 Sch-D HPlcmt-south ZN NECB System 3 PSZ Occ Sch Tuesday\n   ************* Only last 1 lines before error line shown.....\n   *************   3806   Sp-Corner_Class_1_Pod_1_ZN_1_FLR_2 Sys-3 Flr-1 Sch-D HPlcmt-south ZN NECB System 3 PSZ Occ Sch Tuesday, !- Name\n   ** Warning ** IP: IDF line~3806 Alpha Argument length exceeds maximum, will be truncated=  Sp-Corner_Class_1_Pod_1_ZN_1_FLR_2 Sys-3 Flr-1 Sch-D HPlcmt-south ZN NECB System 3 PSZ Occ Sch Tuesda\n   **   ~~~   ** Will be processed as Alpha=SP-CORNER_CLASS_1_POD_1_ZN_1_FLR_2 SYS-3 FLR-1 SCH-D HPLCMT-SOUTH ZN NECB SYSTEM 3 PSZ OCC SCH TUESDAY\n   ************* IDF Context for following error/warning message:\n   ************* Note -- lines truncated at 300 characters, if necessary...\n   *************   3820 Schedule:Day:Interval,\n   ************* indicated Name=Sp-Corner_Class_1_Pod_1_ZN_1_FLR_2 Sys-3 Flr-1 Sch-D HPlcmt-south ZN NECB System 3 PSZ Occ Sch Wednesday\n   ************* Only last 1 lines before error line shown.....\n   *************   3821   Sp-Corner_Class_1_Pod_1_ZN_1_FLR_2 Sys-3 Flr-1 Sch-D HPlcmt-south ZN NECB System 3 PSZ Occ Sch Wednesday, !- Name\n   ** Warning ** IP: IDF line~3821 Alpha Argument length exceeds maximum, will be truncated=  Sp-Corner_Class_1_Pod_1_ZN_1_FLR_2 Sys-3 Flr-1 Sch-D HPlcmt-south ZN NECB System 3 PSZ Occ Sch Wednesda\n   **   ~~~   ** Will be processed as Alpha=SP-CORNER_CLASS_1_POD_1_ZN_1_FLR_2 SYS-3 FLR-1 SCH-D HPLCMT-SOUTH ZN NECB SYSTEM 3 PSZ OCC SCH WEDNESDAY\n   ************* IDF Context for following error/warning message:\n   ************* Note -- lines truncated at 300 characters, if necessary...\n   *************   3835 Schedule:Day:Interval,\n   ************* indicated Name=Sp-Corner_Class_1_Pod_1_ZN_1_FLR_2 Sys-3 Flr-1 Sch-D HPlcmt-south ZN NECB System 3 PSZ Occ Sch Thursday\n   ************* Only last 1 lines before error line shown.....\n   *************   3836   Sp-Corner_Class_1_Pod_1_ZN_1_FLR_2 Sys-3 Flr-1 Sch-D HPlcmt-south ZN NECB System 3 PSZ Occ Sch Thursday, !- Name\n   ** Warning ** IP: IDF line~3836 Alpha Argument length exceeds maximum, will be truncated=  Sp-Corner_Class_1_Pod_1_ZN_1_FLR_2 Sys-3 Flr-1 Sch-D HPlcmt-south ZN NECB System 3 PSZ Occ Sch Thursda\n   **   ~~~   ** Will be processed as Alpha=SP-CORNER_CLASS_1_POD_1_ZN_1_FLR_2 SYS-3 FLR-1 SCH-D HPLCMT-SOUTH ZN NECB SYSTEM 3 PSZ OCC SCH THURSDAY\n   ************* IDF Context for following error/warning message:\n   ************* Note -- lines truncated at 300 characters, if necessary...\n   *************   3850 Schedule:Day:Interval,\n   ************* indicated Name=Sp-Corner_Class_1_Pod_1_ZN_1_FLR_2 Sys-3 Flr-1 Sch-D HPlcmt-south ZN NECB System 3 PSZ Occ Sch Friday\n   ************* Only last 1 lines before error line shown.....\n   *************   3851   Sp-Corner_Class_1_Pod_1_ZN_1_FLR_2 Sys-3 Flr-1 Sch-D HPlcmt-south ZN NECB System 3 PSZ Occ Sch Friday, !- Name\n   ** Warning ** IP: IDF line~3851 Alpha Argument length exceeds maximum, will be truncated=  Sp-Corner_Class_1_Pod_1_ZN_1_FLR_2 Sys-3 Flr-1 Sch-D HPlcmt-south ZN NECB System 3 PSZ Occ Sch Frida\n   **   ~~~   ** Will be processed as Alpha=SP-CORNER_CLASS_1_POD_1_ZN_1_FLR_2 SYS-3 FLR-1 SCH-D HPLCMT-SOUTH ZN NECB SYSTEM 3 PSZ OCC SCH FRIDAY\n   ************* IDF Context for following error/warning message:\n   ************* Note -- lines truncated at 300 characters, if necessary...\n   *************   3865 Schedule:Day:Interval,\n   ************* indicated Name=Sp-Corner_Class_1_Pod_1_ZN_1_FLR_2 Sys-3 Flr-1 Sch-D HPlcmt-south ZN NECB System 3 PSZ Occ Sch Saturday\n   ************* Only last 1 lines before error line shown.....\n   *************   3866   Sp-Corner_Class_1_Pod_1_ZN_1_FLR_2 Sys-3 Flr-1 Sch-D HPlcmt-south ZN NECB System 3 PSZ Occ Sch Saturday, !- Name\n   ** Warning ** IP: IDF line~3866 Alpha Argument length exceeds maximum, will be truncated=  Sp-Corner_Class_1_Pod_1_ZN_1_FLR_2 Sys-3 Flr-1 Sch-D HPlcmt-south ZN NECB System 3 PSZ Occ Sch Saturda\n   **   ~~~   ** Will be processed as Alpha=SP-CORNER_CLASS_1_POD_1_ZN_1_FLR_2 SYS-3 FLR-1 SCH-D HPLCMT-SOUTH ZN NECB SYSTEM 3 PSZ OCC SCH SATURDAY\n   ************* IDF Context for following error/warning message:\n   ************* Note -- lines truncated at 300 characters, if necessary...\n   *************   3872 Schedule:Week:Daily,\n   ************* indicated Name=Schedule:Week:Daily {c18041e0-07b8-415d-aee2-34cc96a4eb0b}\n   ************* Only last 2 lines before error line shown.....\n   *************   3873   Schedule:Week:Daily {c18041e0-07b8-415d-aee2-34cc96a4eb0b}, !- Name\n   *************   3874   Sp-Corner_Class_1_Pod_1_ZN_1_FLR_2 Sys-3 Flr-1 Sch-D HPlcmt-south ZN NECB System 3 PSZ Occ Sch Sunday, !- Sunday Schedule:Day Name\n   ** Warning ** IP: IDF line~3874 Alpha Argument length exceeds maximum, will be truncated=  Sp-Corner_Class_1_Pod_1_ZN_1_FLR_2 Sys-3 Flr-1 Sch-D HPlcmt-south ZN NECB System 3 PSZ Occ Sch Sunda\n   **   ~~~   ** Will be processed as Alpha=SP-CORNER_CLASS_1_POD_1_ZN_1_FLR_2 SYS-3 FLR-1 SCH-D HPLCMT-SOUTH ZN NECB SYSTEM 3 PSZ OCC SCH SUNDAY\n   ************* IDF Context for following error/warning message:\n   ************* Note -- lines truncated at 300 characters, if necessary...\n   *************   3872 Schedule:Week:Daily,\n   ************* indicated Name=Schedule:Week:Daily {c18041e0-07b8-415d-aee2-34cc96a4eb0b}\n   ************* Only last 3 lines before error line shown.....\n   *************   3873   Schedule:Week:Daily {c18041e0-07b8-415d-aee2-34cc96a4eb0b}, !- Name\n   *************   3874   Sp-Corner_Class_1_Pod_1_ZN_1_FLR_2 Sys-3 Flr-1 Sch-D HPlcmt-south ZN NECB System 3 PSZ Occ Sch Sunday, !- Sunday Schedule:Day Name\n   *************   3875   Sp-Corner_Class_1_Pod_1_ZN_1_FLR_2 Sys-3 Flr-1 Sch-D HPlcmt-south ZN NECB System 3 PSZ Occ Sch Monday, !- Monday Schedule:Day Name\n   ** Warning ** IP: IDF line~3875 Alpha Argument length exceeds maximum, will be truncated=  Sp-Corner_Class_1_Pod_1_ZN_1_FLR_2 Sys-3 Flr-1 Sch-D HPlcmt-south ZN NECB System 3 PSZ Occ Sch Monda\n   **   ~~~   ** Will be processed as Alpha=SP-CORNER_CLASS_1_POD_1_ZN_1_FLR_2 SYS-3 FLR-1 SCH-D HPLCMT-SOUTH ZN NECB SYSTEM 3 PSZ OCC SCH MONDAY\n   ************* IDF Context for following error/warning message:\n   ************* Note -- lines truncated at 300 characters, if necessary...\n   *************   3872 Schedule:Week:Daily,\n   ************* indicated Name=Schedule:Week:Daily {c18041e0-07b8-415d-aee2-34cc96a4eb0b}\n   ************* Only last 4 lines before error line shown.....\n   *************   3873   Schedule:Week:Daily {c18041e0-07b8-415d-aee2-34cc96a4eb0b}, !- Name\n   *************   3874   Sp-Corner_Class_1_Pod_1_ZN_1_FLR_2 Sys-3 Flr-1 Sch-D HPlcmt-south ZN NECB System 3 PSZ Occ Sch Sunday, !- Sunday Schedule:Day Name\n   *************   3875   Sp-Corner_Class_1_Pod_1_ZN_1_FLR_2 Sys-3 Flr-1 Sch-D HPlcmt-south ZN NECB System 3 PSZ Occ Sch Monday, !- Monday Schedule:Day Name\n   *************   3876   Sp-Corner_Class_1_Pod_1_ZN_1_FLR_2 Sys-3 Flr-1 Sch-D HPlcmt-south ZN NECB System 3 PSZ Occ Sch Tuesday, !- Tuesday Schedule:Day Name\n   ** Warning ** IP: IDF line~3876 Alpha Argument length exceeds maximum, will be truncated=  Sp-Corner_Class_1_Pod_1_ZN_1_FLR_2 Sys-3 Flr-1 Sch-D HPlcmt-south ZN NECB System 3 PSZ Occ Sch Tuesda\n   **   ~~~   ** Will be processed as Alpha=SP-CORNER_CLASS_1_POD_1_ZN_1_FLR_2 SYS-3 FLR-1 SCH-D HPLCMT-SOUTH ZN NECB SYSTEM 3 PSZ OCC SCH TUESDAY\n   ************* IDF Context for following error/warning message:\n   ************* Note -- lines truncated at 300 characters, if necessary...\n   *************   3872 Schedule:Week:Daily,\n   ************* indicated Name=Schedule:Week:Daily {c18041e0-07b8-415d-aee2-34cc96a4eb0b}\n   ************* Only last 5 lines before error line shown.....\n   *************   3873   Schedule:Week:Daily {c18041e0-07b8-415d-aee2-34cc96a4eb0b}, !- Name\n   *************   3874   Sp-Corner_Class_1_Pod_1_ZN_1_FLR_2 Sys-3 Flr-1 Sch-D HPlcmt-south ZN NECB System 3 PSZ Occ Sch Sunday, !- Sunday Schedule:Day Name\n   *************   3875   Sp-Corner_Class_1_Pod_1_ZN_1_FLR_2 Sys-3 Flr-1 Sch-D HPlcmt-south ZN NECB System 3 PSZ Occ Sch Monday, !- Monday Schedule:Day Name\n   *************   3876   Sp-Corner_Class_1_Pod_1_ZN_1_FLR_2 Sys-3 Flr-1 Sch-D HPlcmt-south ZN NECB System 3 PSZ Occ Sch Tuesday, !- Tuesday Schedule:Day Name\n   *************   3877   Sp-Corner_Class_1_Pod_1_ZN_1_FLR_2 Sys-3 Flr-1 Sch-D HPlcmt-south ZN NECB System 3 PSZ Occ Sch Wednesday, !- Wednesday Schedule:Day Name\n   ** Warning ** IP: IDF line~3877 Alpha Argument length exceeds maximum, will be truncated=  Sp-Corner_Class_1_Pod_1_ZN_1_FLR_2 Sys-3 Flr-1 Sch-D HPlcmt-south ZN NECB System 3 PSZ Occ Sch Wednesda\n   **   ~~~   ** Will be processed as Alpha=SP-CORNER_CLASS_1_POD_1_ZN_1_FLR_2 SYS-3 FLR-1 SCH-D HPLCMT-SOUTH ZN NECB SYSTEM 3 PSZ OCC SCH WEDNESDAY\n   ************* IDF Context for following error/warning message:\n   ************* Note -- lines truncated at 300 characters, if necessary...\n   *************   3872 Schedule:Week:Daily,\n   ************* indicated Name=Schedule:Week:Daily {c18041e0-07b8-415d-aee2-34cc96a4eb0b}\n   ************* Only last 6 lines before error line shown.....\n   *************   3873   Schedule:Week:Daily {c18041e0-07b8-415d-aee2-34cc96a4eb0b}, !- Name\n   *************   3874   Sp-Corner_Class_1_Pod_1_ZN_1_FLR_2 Sys-3 Flr-1 Sch-D HPlcmt-south ZN NECB System 3 PSZ Occ Sch Sunday, !- Sunday Schedule:Day Name\n   *************   3875   Sp-Corner_Class_1_Pod_1_ZN_1_FLR_2 Sys-3 Flr-1 Sch-D HPlcmt-south ZN NECB System 3 PSZ Occ Sch Monday, !- Monday Schedule:Day Name\n   *************   3876   Sp-Corner_Class_1_Pod_1_ZN_1_FLR_2 Sys-3 Flr-1 Sch-D HPlcmt-south ZN NECB System 3 PSZ Occ Sch Tuesday, !- Tuesday Schedule:Day Name\n   *************   3877   Sp-Corner_Class_1_Pod_1_ZN_1_FLR_2 Sys-3 Flr-1 Sch-D HPlcmt-south ZN NECB System 3 PSZ Occ Sch Wednesday, !- Wednesday Schedule:Day Name\n   *************   3878   Sp-Corner_Class_1_Pod_1_ZN_1_FLR_2 Sys-3 Flr-1 Sch-D HPlcmt-south ZN NECB System 3 PSZ Occ Sch Thursday, !- Thursday Schedule:Day Name\n   ** Warning ** IP: IDF line~3878 Alpha Argument length exceeds maximum, will be truncated=  Sp-Corner_Class_1_Pod_1_ZN_1_FLR_2 Sys-3 Flr-1 Sch-D HPlcmt-south ZN NECB System 3 PSZ Occ Sch Thursda\n   **   ~~~   ** Will be processed as Alpha=SP-CORNER_CLASS_1_POD_1_ZN_1_FLR_2 SYS-3 FLR-1 SCH-D HPLCMT-SOUTH ZN NECB SYSTEM 3 PSZ OCC SCH THURSDAY\n   ************* IDF Context for following error/warning message:\n   ************* Note -- lines truncated at 300 characters, if necessary...\n   *************   3872 Schedule:Week:Daily,\n   ************* indicated Name=Schedule:Week:Daily {c18041e0-07b8-415d-aee2-34cc96a4eb0b}\n   ************* Only last 7 lines before error line shown.....\n   *************   3873   Schedule:Week:Daily {c18041e0-07b8-415d-aee2-34cc96a4eb0b}, !- Name\n   *************   3874   Sp-Corner_Class_1_Pod_1_ZN_1_FLR_2 Sys-3 Flr-1 Sch-D HPlcmt-south ZN NECB System 3 PSZ Occ Sch Sunday, !- Sunday Schedule:Day Name\n   *************   3875   Sp-Corner_Class_1_Pod_1_ZN_1_FLR_2 Sys-3 Flr-1 Sch-D HPlcmt-south ZN NECB System 3 PSZ Occ Sch Monday, !- Monday Schedule:Day Name\n   *************   3876   Sp-Corner_Class_1_Pod_1_ZN_1_FLR_2 Sys-3 Flr-1 Sch-D HPlcmt-south ZN NECB System 3 PSZ Occ Sch Tuesday, !- Tuesday Schedule:Day Name\n   *************   3877   Sp-Corner_Class_1_Pod_1_ZN_1_FLR_2 Sys-3 Flr-1 Sch-D HPlcmt-south ZN NECB System 3 PSZ Occ Sch Wednesday, !- Wednesday Schedule:Day Name\n   *************   3878   Sp-Corner_Class_1_Pod_1_ZN_1_FLR_2 Sys-3 Flr-1 Sch-D HPlcmt-south ZN NECB System 3 PSZ Occ Sch Thursday, !- Thursday Schedule:Day Name\n   *************   3879   Sp-Corner_Class_1_Pod_1_ZN_1_FLR_2 Sys-3 Flr-1 Sch-D HPlcmt-south ZN NECB System 3 PSZ Occ Sch Friday, !- Friday Schedule:Day Name\n   ** Warning ** IP: IDF line~3879 Alpha Argument length exceeds maximum, will be truncated=  Sp-Corner_Class_1_Pod_1_ZN_1_FLR_2 Sys-3 Flr-1 Sch-D HPlcmt-south ZN NECB System 3 PSZ Occ Sch Frida\n   **   ~~~   ** Will be processed as Alpha=SP-CORNER_CLASS_1_POD_1_ZN_1_FLR_2 SYS-3 FLR-1 SCH-D HPLCMT-SOUTH ZN NECB SYSTEM 3 PSZ OCC SCH FRIDAY\n   ************* IDF Context for following error/warning message:\n   ************* Note -- lines truncated at 300 characters, if necessary...\n   *************   3872 Schedule:Week:Daily,\n   ************* indicated Name=Schedule:Week:Daily {c18041e0-07b8-415d-aee2-34cc96a4eb0b}\n   ************* Only last 8 lines before error line shown.....\n   *************   3873   Schedule:Week:Daily {c18041e0-07b8-415d-aee2-34cc96a4eb0b}, !- Name\n   *************   3874   Sp-Corner_Class_1_Pod_1_ZN_1_FLR_2 Sys-3 Flr-1 Sch-D HPlcmt-south ZN NECB System 3 PSZ Occ Sch Sunday, !- Sunday Schedule:Day Name\n   *************   3875   Sp-Corner_Class_1_Pod_1_ZN_1_FLR_2 Sys-3 Flr-1 Sch-D HPlcmt-south ZN NECB System 3 PSZ Occ Sch Monday, !- Monday Schedule:Day Name\n   *************   3876   Sp-Corner_Class_1_Pod_1_ZN_1_FLR_2 Sys-3 Flr-1 Sch-D HPlcmt-south ZN NECB System 3 PSZ Occ Sch Tuesday, !- Tuesday Schedule:Day Name\n   *************   3877   Sp-Corner_Class_1_Pod_1_ZN_1_FLR_2 Sys-3 Flr-1 Sch-D HPlcmt-south ZN NECB System 3 PSZ Occ Sch Wednesday, !- Wednesday Schedule:Day Name\n   *************   3878   Sp-Corner_Class_1_Pod_1_ZN_1_FLR_2 Sys-3 Flr-1 Sch-D HPlcmt-south ZN NECB System 3 PSZ Occ Sch Thursday, !- Thursday Schedule:Day Name\n   *************   3879   Sp-Corner_Class_1_Pod_1_ZN_1_FLR_2 Sys-3 Flr-1 Sch-D HPlcmt-south ZN NECB System 3 PSZ Occ Sch Friday, !- Friday Schedule:Day Name\n   *************   3880   Sp-Corner_Class_1_Pod_1_ZN_1_FLR_2 Sys-3 Flr-1 Sch-D HPlcmt-south ZN NECB System 3 PSZ Occ Sch Saturday, !- Saturday Schedule:Day Name\n   ** Warning ** IP: IDF line~3880 Alpha Argument length exceeds maximum, will be truncated=  Sp-Corner_Class_1_Pod_1_ZN_1_FLR_2 Sys-3 Flr-1 Sch-D HPlcmt-south ZN NECB System 3 PSZ Occ Sch Saturda\n   **   ~~~   ** Will be processed as Alpha=SP-CORNER_CLASS_1_POD_1_ZN_1_FLR_2 SYS-3 FLR-1 SCH-D HPLCMT-SOUTH ZN NECB SYSTEM 3 PSZ OCC SCH SATURDAY\n   ************* IDF Context for following error/warning message:\n   ************* Note -- lines truncated at 300 characters, if necessary...\n   *************   3872 Schedule:Week:Daily,\n   ************* indicated Name=Schedule:Week:Daily {c18041e0-07b8-415d-aee2-34cc96a4eb0b}\n   ************* Only last 9 lines before error line shown.....\n   *************   3873   Schedule:Week:Daily {c18041e0-07b8-415d-aee2-34cc96a4eb0b}, !- Name\n   *************   3874   Sp-Corner_Class_1_Pod_1_ZN_1_FLR_2 Sys-3 Flr-1 Sch-D HPlcmt-south ZN NECB System 3 PSZ Occ Sch Sunday, !- Sunday Schedule:Day Name\n   *************   3875   Sp-Corner_Class_1_Pod_1_ZN_1_FLR_2 Sys-3 Flr-1 Sch-D HPlcmt-south ZN NECB System 3 PSZ Occ Sch Monday, !- Monday Schedule:Day Name\n   *************   3876   Sp-Corner_Class_1_Pod_1_ZN_1_FLR_2 Sys-3 Flr-1 Sch-D HPlcmt-south ZN NECB System 3 PSZ Occ Sch Tuesday, !- Tuesday Schedule:Day Name\n   *************   3877   Sp-Corner_Class_1_Pod_1_ZN_1_FLR_2 Sys-3 Flr-1 Sch-D HPlcmt-south ZN NECB System 3 PSZ Occ Sch Wednesday, !- Wednesday Schedule:Day Name\n   *************   3878   Sp-Corner_Class_1_Pod_1_ZN_1_FLR_2 Sys-3 Flr-1 Sch-D HPlcmt-south ZN NECB System 3 PSZ Occ Sch Thursday, !- Thursday Schedule:Day Name\n   *************   3879   Sp-Corner_Class_1_Pod_1_ZN_1_FLR_2 Sys-3 Flr-1 Sch-D HPlcmt-south ZN NECB System 3 PSZ Occ Sch Friday, !- Friday Schedule:Day Name\n   *************   3880   Sp-Corner_Class_1_Pod_1_ZN_1_FLR_2 Sys-3 Flr-1 Sch-D HPlcmt-south ZN NECB System 3 PSZ Occ Sch Saturday, !- Saturday Schedule:Day Name\n   *************   3881   Sp-Corner_Class_1_Pod_1_ZN_1_FLR_2 Sys-3 Flr-1 Sch-D HPlcmt-south ZN NECB System 3 PSZ Occ Sch Default, !- Holiday Schedule:Day Name\n   ** Warning ** IP: IDF line~3881 Alpha Argument length exceeds maximum, will be truncated=  Sp-Corner_Class_1_Pod_1_ZN_1_FLR_2 Sys-3 Flr-1 Sch-D HPlcmt-south ZN NECB System 3 PSZ Occ Sch Defaul\n   **   ~~~   ** Will be processed as Alpha=SP-CORNER_CLASS_1_POD_1_ZN_1_FLR_2 SYS-3 FLR-1 SCH-D HPLCMT-SOUTH ZN NECB SYSTEM 3 PSZ OCC SCH DEFAULT\n   ************* IDF Context for following error/warning message:\n   ************* Note -- lines truncated at 300 characters, if necessary...\n   *************   3872 Schedule:Week:Daily,\n   ************* indicated Name=Schedule:Week:Daily {c18041e0-07b8-415d-aee2-34cc96a4eb0b}\n   ************* Only last 10 lines before error line shown.....\n   *************   3873   Schedule:Week:Daily {c18041e0-07b8-415d-aee2-34cc96a4eb0b}, !- Name\n   *************   3874   Sp-Corner_Class_1_Pod_1_ZN_1_FLR_2 Sys-3 Flr-1 Sch-D HPlcmt-south ZN NECB System 3 PSZ Occ Sch Sunday, !- Sunday Schedule:Day Name\n   *************   3875   Sp-Corner_Class_1_Pod_1_ZN_1_FLR_2 Sys-3 Flr-1 Sch-D HPlcmt-south ZN NECB System 3 PSZ Occ Sch Monday, !- Monday Schedule:Day Name\n   *************   3876   Sp-Corner_Class_1_Pod_1_ZN_1_FLR_2 Sys-3 Flr-1 Sch-D HPlcmt-south ZN NECB System 3 PSZ Occ Sch Tuesday, !- Tuesday Schedule:Day Name\n   *************   3877   Sp-Corner_Class_1_Pod_1_ZN_1_FLR_2 Sys-3 Flr-1 Sch-D HPlcmt-south ZN NECB System 3 PSZ Occ Sch Wednesday, !- Wednesday Schedule:Day Name\n   *************   3878   Sp-Corner_Class_1_Pod_1_ZN_1_FLR_2 Sys-3 Flr-1 Sch-D HPlcmt-south ZN NECB System 3 PSZ Occ Sch Thursday, !- Thursday Schedule:Day Name\n   *************   3879   Sp-Corner_Class_1_Pod_1_ZN_1_FLR_2 Sys-3 Flr-1 Sch-D HPlcmt-south ZN NECB System 3 PSZ Occ Sch Friday, !- Friday Schedule:Day Name\n   *************   3880   Sp-Corner_Class_1_Pod_1_ZN_1_FLR_2 Sys-3 Flr-1 Sch-D HPlcmt-south ZN NECB System 3 PSZ Occ Sch Saturday, !- Saturday Schedule:Day Name\n   *************   3881   Sp-Corner_Class_1_Pod_1_ZN_1_FLR_2 Sys-3 Flr-1 Sch-D HPlcmt-south ZN NECB System 3 PSZ Occ Sch Default, !- Holiday Schedule:Day Name\n   *************   3882   Sp-Corner_Class_1_Pod_1_ZN_1_FLR_2 Sys-3 Flr-1 Sch-D HPlcmt-south ZN NECB System 3 PSZ Occ Sch Summer Design Day, !- SummerDesignDay Schedule:Day Name\n   ** Warning ** IP: IDF line~3882 Alpha Argument length exceeds maximum, will be truncated=  Sp-Corner_Class_1_Pod_1_ZN_1_FLR_2 Sys-3 Flr-1 Sch-D HPlcmt-south ZN NECB System 3 PSZ Occ Sch Summer Design Da\n   **   ~~~   ** Will be processed as Alpha=SP-CORNER_CLASS_1_POD_1_ZN_1_FLR_2 SYS-3 FLR-1 SCH-D HPLCMT-SOUTH ZN NECB SYSTEM 3 PSZ OCC SCH SUMMER DESIGN DAY\n   ************* IDF Context for following error/warning message:\n   ************* Note -- lines truncated at 300 characters, if necessary...\n   *************   3872 Schedule:Week:Daily,\n   ************* indicated Name=Schedule:Week:Daily {c18041e0-07b8-415d-aee2-34cc96a4eb0b}\n   ************* Only last 10 lines before error line shown.....\n   *************   3874   Sp-Corner_Class_1_Pod_1_ZN_1_FLR_2 Sys-3 Flr-1 Sch-D HPlcmt-south ZN NECB System 3 PSZ Occ Sch Sunday, !- Sunday Schedule:Day Name\n   *************   3875   Sp-Corner_Class_1_Pod_1_ZN_1_FLR_2 Sys-3 Flr-1 Sch-D HPlcmt-south ZN NECB System 3 PSZ Occ Sch Monday, !- Monday Schedule:Day Name\n   *************   3876   Sp-Corner_Class_1_Pod_1_ZN_1_FLR_2 Sys-3 Flr-1 Sch-D HPlcmt-south ZN NECB System 3 PSZ Occ Sch Tuesday, !- Tuesday Schedule:Day Name\n   *************   3877   Sp-Corner_Class_1_Pod_1_ZN_1_FLR_2 Sys-3 Flr-1 Sch-D HPlcmt-south ZN NECB System 3 PSZ Occ Sch Wednesday, !- Wednesday Schedule:Day Name\n   *************   3878   Sp-Corner_Class_1_Pod_1_ZN_1_FLR_2 Sys-3 Flr-1 Sch-D HPlcmt-south ZN NECB System 3 PSZ Occ Sch Thursday, !- Thursday Schedule:Day Name\n   *************   3879   Sp-Corner_Class_1_Pod_1_ZN_1_FLR_2 Sys-3 Flr-1 Sch-D HPlcmt-south ZN NECB System 3 PSZ Occ Sch Friday, !- Friday Schedule:Day Name\n   *************   3880   Sp-Corner_Class_1_Pod_1_ZN_1_FLR_2 Sys-3 Flr-1 Sch-D HPlcmt-south ZN NECB System 3 PSZ Occ Sch Saturday, !- Saturday Schedule:Day Name\n   *************   3881   Sp-Corner_Class_1_Pod_1_ZN_1_FLR_2 Sys-3 Flr-1 Sch-D HPlcmt-south ZN NECB System 3 PSZ Occ Sch Default, !- Holiday Schedule:Day Name\n   *************   3882   Sp-Corner_Class_1_Pod_1_ZN_1_FLR_2 Sys-3 Flr-1 Sch-D HPlcmt-south ZN NECB System 3 PSZ Occ Sch Summer Design Day, !- SummerDesignDay Schedule:Day Name\n   *************   3883   Sp-Corner_Class_1_Pod_1_ZN_1_FLR_2 Sys-3 Flr-1 Sch-D HPlcmt-south ZN NECB System 3 PSZ Occ Sch Winter Design Day, !- WinterDesignDay Schedule:Day Name\n   ** Warning ** IP: IDF line~3883 Alpha Argument length exceeds maximum, will be truncated=  Sp-Corner_Class_1_Pod_1_ZN_1_FLR_2 Sys-3 Flr-1 Sch-D HPlcmt-south ZN NECB System 3 PSZ Occ Sch Winter Design Da\n   **   ~~~   ** Will be processed as Alpha=SP-CORNER_CLASS_1_POD_1_ZN_1_FLR_2 SYS-3 FLR-1 SCH-D HPLCMT-SOUTH ZN NECB SYSTEM 3 PSZ OCC SCH WINTER DESIGN DAY\n   ************* IDF Context for following error/warning message:\n   ************* Note -- lines truncated at 300 characters, if necessary...\n   *************   3872 Schedule:Week:Daily,\n   ************* indicated Name=Schedule:Week:Daily {c18041e0-07b8-415d-aee2-34cc96a4eb0b}\n   ************* Only last 10 lines before error line shown.....\n   *************   3875   Sp-Corner_Class_1_Pod_1_ZN_1_FLR_2 Sys-3 Flr-1 Sch-D HPlcmt-south ZN NECB System 3 PSZ Occ Sch Monday, !- Monday Schedule:Day Name\n   *************   3876   Sp-Corner_Class_1_Pod_1_ZN_1_FLR_2 Sys-3 Flr-1 Sch-D HPlcmt-south ZN NECB System 3 PSZ Occ Sch Tuesday, !- Tuesday Schedule:Day Name\n   *************   3877   Sp-Corner_Class_1_Pod_1_ZN_1_FLR_2 Sys-3 Flr-1 Sch-D HPlcmt-south ZN NECB System 3 PSZ Occ Sch Wednesday, !- Wednesday Schedule:Day Name\n   *************   3878   Sp-Corner_Class_1_Pod_1_ZN_1_FLR_2 Sys-3 Flr-1 Sch-D HPlcmt-south ZN NECB System 3 PSZ Occ Sch Thursday, !- Thursday Schedule:Day Name\n   *************   3879   Sp-Corner_Class_1_Pod_1_ZN_1_FLR_2 Sys-3 Flr-1 Sch-D HPlcmt-south ZN NECB System 3 PSZ Occ Sch Friday, !- Friday Schedule:Day Name\n   *************   3880   Sp-Corner_Class_1_Pod_1_ZN_1_FLR_2 Sys-3 Flr-1 Sch-D HPlcmt-south ZN NECB System 3 PSZ Occ Sch Saturday, !- Saturday Schedule:Day Name\n   *************   3881   Sp-Corner_Class_1_Pod_1_ZN_1_FLR_2 Sys-3 Flr-1 Sch-D HPlcmt-south ZN NECB System 3 PSZ Occ Sch Default, !- Holiday Schedule:Day Name\n   *************   3882   Sp-Corner_Class_1_Pod_1_ZN_1_FLR_2 Sys-3 Flr-1 Sch-D HPlcmt-south ZN NECB System 3 PSZ Occ Sch Summer Design Day, !- SummerDesignDay Schedule:Day Name\n   *************   3883   Sp-Corner_Class_1_Pod_1_ZN_1_FLR_2 Sys-3 Flr-1 Sch-D HPlcmt-south ZN NECB System 3 PSZ Occ Sch Winter Design Day, !- WinterDesignDay Schedule:Day Name\n   *************   3884   Sp-Corner_Class_1_Pod_1_ZN_1_FLR_2 Sys-3 Flr-1 Sch-D HPlcmt-south ZN NECB System 3 PSZ Occ Sch Default, !- CustomDay1 Schedule:Day Name\n   ** Warning ** IP: IDF line~3884 Alpha Argument length exceeds maximum, will be truncated=  Sp-Corner_Class_1_Pod_1_ZN_1_FLR_2 Sys-3 Flr-1 Sch-D HPlcmt-south ZN NECB System 3 PSZ Occ Sch Defaul\n   **   ~~~   ** Will be processed as Alpha=SP-CORNER_CLASS_1_POD_1_ZN_1_FLR_2 SYS-3 FLR-1 SCH-D HPLCMT-SOUTH ZN NECB SYSTEM 3 PSZ OCC SCH DEFAULT\n   ************* IDF Context for following error/warning message:\n   ************* Note -- lines truncated at 300 characters, if necessary...\n   *************   3872 Schedule:Week:Daily,\n   ************* indicated Name=Schedule:Week:Daily {c18041e0-07b8-415d-aee2-34cc96a4eb0b}\n   ************* Only last 10 lines before error line shown.....\n   *************   3876   Sp-Corner_Class_1_Pod_1_ZN_1_FLR_2 Sys-3 Flr-1 Sch-D HPlcmt-south ZN NECB System 3 PSZ Occ Sch Tuesday, !- Tuesday Schedule:Day Name\n   *************   3877   Sp-Corner_Class_1_Pod_1_ZN_1_FLR_2 Sys-3 Flr-1 Sch-D HPlcmt-south ZN NECB System 3 PSZ Occ Sch Wednesday, !- Wednesday Schedule:Day Name\n   *************   3878   Sp-Corner_Class_1_Pod_1_ZN_1_FLR_2 Sys-3 Flr-1 Sch-D HPlcmt-south ZN NECB System 3 PSZ Occ Sch Thursday, !- Thursday Schedule:Day Name\n   *************   3879   Sp-Corner_Class_1_Pod_1_ZN_1_FLR_2 Sys-3 Flr-1 Sch-D HPlcmt-south ZN NECB System 3 PSZ Occ Sch Friday, !- Friday Schedule:Day Name\n   *************   3880   Sp-Corner_Class_1_Pod_1_ZN_1_FLR_2 Sys-3 Flr-1 Sch-D HPlcmt-south ZN NECB System 3 PSZ Occ Sch Saturday, !- Saturday Schedule:Day Name\n   *************   3881   Sp-Corner_Class_1_Pod_1_ZN_1_FLR_2 Sys-3 Flr-1 Sch-D HPlcmt-south ZN NECB System 3 PSZ Occ Sch Default, !- Holiday Schedule:Day Name\n   *************   3882   Sp-Corner_Class_1_Pod_1_ZN_1_FLR_2 Sys-3 Flr-1 Sch-D HPlcmt-south ZN NECB System 3 PSZ Occ Sch Summer Design Day, !- SummerDesignDay Schedule:Day Name\n   *************   3883   Sp-Corner_Class_1_Pod_1_ZN_1_FLR_2 Sys-3 Flr-1 Sch-D HPlcmt-south ZN NECB System 3 PSZ Occ Sch Winter Design Day, !- WinterDesignDay Schedule:Day Name\n   *************   3884   Sp-Corner_Class_1_Pod_1_ZN_1_FLR_2 Sys-3 Flr-1 Sch-D HPlcmt-south ZN NECB System 3 PSZ Occ Sch Default, !- CustomDay1 Schedule:Day Name\n   *************   3885   Sp-Corner_Class_1_Pod_1_ZN_1_FLR_2 Sys-3 Flr-1 Sch-D HPlcmt-south ZN NECB System 3 PSZ Occ Sch Default; !- CustomDay2 Schedule:Day Name\n   ** Warning ** IP: IDF line~3885 Alpha Argument length exceeds maximum, will be truncated=  Sp-Corner_Class_1_Pod_1_ZN_1_FLR_2 Sys-3 Flr-1 Sch-D HPlcmt-south ZN NECB System 3 PSZ Occ Sch Defaul\n   **   ~~~   ** Will be processed as Alpha=SP-CORNER_CLASS_1_POD_1_ZN_1_FLR_2 SYS-3 FLR-1 SCH-D HPLCMT-SOUTH ZN NECB SYSTEM 3 PSZ OCC SCH DEFAULT\n   ************* IDF Context for following error/warning message:\n   ************* Note -- lines truncated at 300 characters, if necessary...\n   *************   3896 Schedule:Day:Interval,\n   ************* indicated Name=Sp-Corner_Class_1_Pod_1_ZN_1_FLR_2 Sys-3 Flr-1 Sch-D HPlcmt-south ZN NECB System 3 PSZ Occ Sch Default\n   ************* Only last 1 lines before error line shown.....\n   *************   3897   Sp-Corner_Class_1_Pod_1_ZN_1_FLR_2 Sys-3 Flr-1 Sch-D HPlcmt-south ZN NECB System 3 PSZ Occ Sch Default, !- Name\n   ** Warning ** IP: IDF line~3897 Alpha Argument length exceeds maximum, will be truncated=  Sp-Corner_Class_1_Pod_1_ZN_1_FLR_2 Sys-3 Flr-1 Sch-D HPlcmt-south ZN NECB System 3 PSZ Occ Sch Defaul\n   **   ~~~   ** Will be processed as Alpha=SP-CORNER_CLASS_1_POD_1_ZN_1_FLR_2 SYS-3 FLR-1 SCH-D HPLCMT-SOUTH ZN NECB SYSTEM 3 PSZ OCC SCH DEFAULT\n   ************* IDF Context for following error/warning message:\n   ************* Note -- lines truncated at 300 characters, if necessary...\n   *************   3903 Schedule:Day:Interval,\n   ************* indicated Name=Sp-Corner_Class_1_Pod_1_ZN_1_FLR_2 Sys-3 Flr-1 Sch-D HPlcmt-south ZN NECB System 3 PSZ Occ Sch Summer Design Day\n   ************* Only last 1 lines before error line shown.....\n   *************   3904   Sp-Corner_Class_1_Pod_1_ZN_1_FLR_2 Sys-3 Flr-1 Sch-D HPlcmt-south ZN NECB System 3 PSZ Occ Sch Summer Design Day, !- Name\n   ** Warning ** IP: IDF line~3904 Alpha Argument length exceeds maximum, will be truncated=  Sp-Corner_Class_1_Pod_1_ZN_1_FLR_2 Sys-3 Flr-1 Sch-D HPlcmt-south ZN NECB System 3 PSZ Occ Sch Summer Design Da\n   **   ~~~   ** Will be processed as Alpha=SP-CORNER_CLASS_1_POD_1_ZN_1_FLR_2 SYS-3 FLR-1 SCH-D HPLCMT-SOUTH ZN NECB SYSTEM 3 PSZ OCC SCH SUMMER DESIGN DAY\n   ************* IDF Context for following error/warning message:\n   ************* Note -- lines truncated at 300 characters, if necessary...\n   *************   3910 Schedule:Day:Interval,\n   ************* indicated Name=Sp-Corner_Class_1_Pod_1_ZN_1_FLR_2 Sys-3 Flr-1 Sch-D HPlcmt-south ZN NECB System 3 PSZ Occ Sch Winter Design Day\n   ************* Only last 1 lines before error line shown.....\n   *************   3911   Sp-Corner_Class_1_Pod_1_ZN_1_FLR_2 Sys-3 Flr-1 Sch-D HPlcmt-south ZN NECB System 3 PSZ Occ Sch Winter Design Day, !- Name\n   ** Warning ** IP: IDF line~3911 Alpha Argument length exceeds maximum, will be truncated=  Sp-Corner_Class_1_Pod_1_ZN_1_FLR_2 Sys-3 Flr-1 Sch-D HPlcmt-south ZN NECB System 3 PSZ Occ Sch Winter Design Da\n   **   ~~~   ** Will be processed as Alpha=SP-CORNER_CLASS_1_POD_1_ZN_1_FLR_2 SYS-3 FLR-1 SCH-D HPLCMT-SOUTH ZN NECB SYSTEM 3 PSZ OCC SCH WINTER DESIGN DAY\n   ************* IDF Context for following error/warning message:\n   ************* Note -- lines truncated at 300 characters, if necessary...\n   *************   4179 Schedule:Day:Interval,\n   ************* indicated Name=Sp-Corner_Class_1_Pod_2_ZN_1_FLR_1 Sys-3 Flr-2 Sch-D HPlcmt-south ZN NECB System 3 PSZ Occ Sch Sunday\n   ************* Only last 1 lines before error line shown.....\n   *************   4180   Sp-Corner_Class_1_Pod_2_ZN_1_FLR_1 Sys-3 Flr-2 Sch-D HPlcmt-south ZN NECB System 3 PSZ Occ Sch Sunday, !- Name\n   ** Warning ** IP: IDF line~4180 Alpha Argument length exceeds maximum, will be truncated=  Sp-Corner_Class_1_Pod_2_ZN_1_FLR_1 Sys-3 Flr-2 Sch-D HPlcmt-south ZN NECB System 3 PSZ Occ Sch Sunda\n   **   ~~~   ** Will be processed as Alpha=SP-CORNER_CLASS_1_POD_2_ZN_1_FLR_1 SYS-3 FLR-2 SCH-D HPLCMT-SOUTH ZN NECB SYSTEM 3 PSZ OCC SCH SUNDAY\n   ************* IDF Context for following error/warning message:\n   ************* Note -- lines truncated at 300 characters, if necessary...\n   *************   4186 Schedule:Day:Interval,\n   ************* indicated Name=Sp-Corner_Class_1_Pod_2_ZN_1_FLR_1 Sys-3 Flr-2 Sch-D HPlcmt-south ZN NECB System 3 PSZ Occ Sch Monday\n   ************* Only last 1 lines before error line shown.....\n   *************   4187   Sp-Corner_Class_1_Pod_2_ZN_1_FLR_1 Sys-3 Flr-2 Sch-D HPlcmt-south ZN NECB System 3 PSZ Occ Sch Monday, !- Name\n   ** Warning ** IP: IDF line~4187 Alpha Argument length exceeds maximum, will be truncated=  Sp-Corner_Class_1_Pod_2_ZN_1_FLR_1 Sys-3 Flr-2 Sch-D HPlcmt-south ZN NECB System 3 PSZ Occ Sch Monda\n   **   ~~~   ** Will be processed as Alpha=SP-CORNER_CLASS_1_POD_2_ZN_1_FLR_1 SYS-3 FLR-2 SCH-D HPLCMT-SOUTH ZN NECB SYSTEM 3 PSZ OCC SCH MONDAY\n   ************* IDF Context for following error/warning message:\n   ************* Note -- lines truncated at 300 characters, if necessary...\n   *************   4201 Schedule:Day:Interval,\n   ************* indicated Name=Sp-Corner_Class_1_Pod_2_ZN_1_FLR_1 Sys-3 Flr-2 Sch-D HPlcmt-south ZN NECB System 3 PSZ Occ Sch Tuesday\n   ************* Only last 1 lines before error line shown.....\n   *************   4202   Sp-Corner_Class_1_Pod_2_ZN_1_FLR_1 Sys-3 Flr-2 Sch-D HPlcmt-south ZN NECB System 3 PSZ Occ Sch Tuesday, !- Name\n   ** Warning ** IP: IDF line~4202 Alpha Argument length exceeds maximum, will be truncated=  Sp-Corner_Class_1_Pod_2_ZN_1_FLR_1 Sys-3 Flr-2 Sch-D HPlcmt-south ZN NECB System 3 PSZ Occ Sch Tuesda\n   **   ~~~   ** Will be processed as Alpha=SP-CORNER_CLASS_1_POD_2_ZN_1_FLR_1 SYS-3 FLR-2 SCH-D HPLCMT-SOUTH ZN NECB SYSTEM 3 PSZ OCC SCH TUESDAY\n   ************* IDF Context for following error/warning message:\n   ************* Note -- lines truncated at 300 characters, if necessary...\n   *************   4216 Schedule:Day:Interval,\n   ************* indicated Name=Sp-Corner_Class_1_Pod_2_ZN_1_FLR_1 Sys-3 Flr-2 Sch-D HPlcmt-south ZN NECB System 3 PSZ Occ Sch Wednesday\n   ************* Only last 1 lines before error line shown.....\n   *************   4217   Sp-Corner_Class_1_Pod_2_ZN_1_FLR_1 Sys-3 Flr-2 Sch-D HPlcmt-south ZN NECB System 3 PSZ Occ Sch Wednesday, !- Name\n   ** Warning ** IP: IDF line~4217 Alpha Argument length exceeds maximum, will be truncated=  Sp-Corner_Class_1_Pod_2_ZN_1_FLR_1 Sys-3 Flr-2 Sch-D HPlcmt-south ZN NECB System 3 PSZ Occ Sch Wednesda\n   **   ~~~   ** Will be processed as Alpha=SP-CORNER_CLASS_1_POD_2_ZN_1_FLR_1 SYS-3 FLR-2 SCH-D HPLCMT-SOUTH ZN NECB SYSTEM 3 PSZ OCC SCH WEDNESDAY\n   ************* IDF Context for following error/warning message:\n   ************* Note -- lines truncated at 300 characters, if necessary...\n   *************   4231 Schedule:Day:Interval,\n   ************* indicated Name=Sp-Corner_Class_1_Pod_2_ZN_1_FLR_1 Sys-3 Flr-2 Sch-D HPlcmt-south ZN NECB System 3 PSZ Occ Sch Thursday\n   ************* Only last 1 lines before error line shown.....\n   *************   4232   Sp-Corner_Class_1_Pod_2_ZN_1_FLR_1 Sys-3 Flr-2 Sch-D HPlcmt-south ZN NECB System 3 PSZ Occ Sch Thursday, !- Name\n   ** Warning ** IP: IDF line~4232 Alpha Argument length exceeds maximum, will be truncated=  Sp-Corner_Class_1_Pod_2_ZN_1_FLR_1 Sys-3 Flr-2 Sch-D HPlcmt-south ZN NECB System 3 PSZ Occ Sch Thursda\n   **   ~~~   ** Will be processed as Alpha=SP-CORNER_CLASS_1_POD_2_ZN_1_FLR_1 SYS-3 FLR-2 SCH-D HPLCMT-SOUTH ZN NECB SYSTEM 3 PSZ OCC SCH THURSDAY\n   ************* IDF Context for following error/warning message:\n   ************* Note -- lines truncated at 300 characters, if necessary...\n   *************   4246 Schedule:Day:Interval,\n   ************* indicated Name=Sp-Corner_Class_1_Pod_2_ZN_1_FLR_1 Sys-3 Flr-2 Sch-D HPlcmt-south ZN NECB System 3 PSZ Occ Sch Friday\n   ************* Only last 1 lines before error line shown.....\n   *************   4247   Sp-Corner_Class_1_Pod_2_ZN_1_FLR_1 Sys-3 Flr-2 Sch-D HPlcmt-south ZN NECB System 3 PSZ Occ Sch Friday, !- Name\n   ** Warning ** IP: IDF line~4247 Alpha Argument length exceeds maximum, will be truncated=  Sp-Corner_Class_1_Pod_2_ZN_1_FLR_1 Sys-3 Flr-2 Sch-D HPlcmt-south ZN NECB System 3 PSZ Occ Sch Frida\n   **   ~~~   ** Will be processed as Alpha=SP-CORNER_CLASS_1_POD_2_ZN_1_FLR_1 SYS-3 FLR-2 SCH-D HPLCMT-SOUTH ZN NECB SYSTEM 3 PSZ OCC SCH FRIDAY\n   ************* IDF Context for following error/warning message:\n   ************* Note -- lines truncated at 300 characters, if necessary...\n   *************   4261 Schedule:Day:Interval,\n   ************* indicated Name=Sp-Corner_Class_1_Pod_2_ZN_1_FLR_1 Sys-3 Flr-2 Sch-D HPlcmt-south ZN NECB System 3 PSZ Occ Sch Saturday\n   ************* Only last 1 lines before error line shown.....\n   *************   4262   Sp-Corner_Class_1_Pod_2_ZN_1_FLR_1 Sys-3 Flr-2 Sch-D HPlcmt-south ZN NECB System 3 PSZ Occ Sch Saturday, !- Name\n   ** Warning ** IP: IDF line~4262 Alpha Argument length exceeds maximum, will be truncated=  Sp-Corner_Class_1_Pod_2_ZN_1_FLR_1 Sys-3 Flr-2 Sch-D HPlcmt-south ZN NECB System 3 PSZ Occ Sch Saturda\n   **   ~~~   ** Will be processed as Alpha=SP-CORNER_CLASS_1_POD_2_ZN_1_FLR_1 SYS-3 FLR-2 SCH-D HPLCMT-SOUTH ZN NECB SYSTEM 3 PSZ OCC SCH SATURD
[...]
CHONY9H8mnUEOeahyr5NGrYyTVplU6j9Asl1dKqxSdMGCTotIpNgh4MNgl6LNgk6LSKTYJOq9gk6LSKTYJOq9gk6OWWTUKTVvFp0Mstnwa93PJp0GkVnwadVvFp0GkVnwadVvFp0GkVnwadVvFp1BDnmrSKT6OGONekVXwaNezkmrRKp1FaCL5aWrWoFM8gQadVbBL0YLBJ0GPBJkGnVWwSdFrFJkGnVWwSdFrFJkEvt2wSmrSKT4Nebvk06OWWT4NOq/g06LSKT4NOq/g06LSKT4NOq/g06LSKT6OGONekVXwaNcS5Jq3i06hhJ9ekVTqN0nq71dKqRUFeBgk6rWKToAeDTYIeCzYJOq1ik6DTKjYJOq1ik6DTKjYJerllk9CkVXwa9HLLp0Evt3wadFrFp0GnVXwadFrFp0GnVXwadFrFp0GnVXwaNcS5Jq3i06ghzjVpFZ9GDTu5Jq3SaZSWNayWVi3qHjJI0GkVmwQ9GGwS9FiwSdBpFZsEnVaxSdBpFZsEnVaxSdDLLZuEttgal4auWhWXhq6QFZeGrsYVl4au/BWXhq7mG5eGrhwcl4auUhyXhq6IHJdGDXGuLT3HpVFDnGsL1nFp1LCTa9Kqlcb3KhVelxWdxZGI5P2qgmxROLaR3o2bRQXY0lKxq7LQqczex7PITxvddlM4TrcpOuo3t1ut3OxDjvFU7dr3+14mx3EyP34I0kVZ5af7r1B7OndwnvgyuZipKseVGyqO+UuOT9JLZ4lcYKhCzct+33Ddb5hhhhlmmGGGGWaYYYYZZphhhhlmmGGGGWaYYYYZZphhhhlmmGGGGWaYYYYZZphhhhlmmGGGGWaYYYYZZphhhhlmmGGGGWaY/1LmuR3fySQJfPnJUy/WOnb7/3xfVb0am758NfZSJoFMl6/XWs3VC8TTMM7sMIhk6Suy6Wvv6Za/WZvaxafnp3HoZUEc5VBWmslp61qO4kRa1d58/ijHMvJf3tDiXKPXboqOenO5rV5kVj+sUI4yBVbieuXWHoxldhplqn9yidEsGhakjW3xR4mLFaF8an1V+i63OoKRaGSTILXTYlSqCanjWSM7779Tbzhp/BfY1NsKX706nrMv/Q6mcRoohyf56Sp3szqUm1eokvjeDGmFFUS+VPHQcpqGrVfHzboNR4EM1XxrLPt0ESfjJJ5NpS9+/ln8bXn+wR5MvHT5/rsKsO3n1vmr1rxDbG88PlMadiijcTYR74Qr/ims4zC0xOHLK9IwGMpGy9m+an/fLo23P91JnIjGTX4r7V/ETS6znKpLXXXu7/mKYz5A6lDTeOnv6ua7/UPOxdHR0aLz1vNYeF0O+43pra6O60R6P9Zp/GjYxvR61V/LuztS01pNhuVMKQo52AMvTYNxJP2+KhGRXhU9+X29rlwN9HSWThrrjkU+pIeL8Vw/ksLwsMpd2urKdVXSLIl/yGo6i2vXVYqn3jDI5tWklhevfVeFxEpqXS+rheTlsrJOeBgvPupYhfPLhUe0hGPqzSTcqrM+NotdtdL1j2U5hTp2dsSX37+Kf5//fiEuzy++/vb5V/Hx/Nff+uLD6cVpNQdn+aotHzyVooksFmmcZCKa3ebzYCiKkiap8NJhnrwE0biCx1XfKz/PdmavKa6rLy6JzGZJJKZeksqzMPayhqeW/O18KJ+duy7OVerM8hTtmezyFsocP2620stT/lmEexHsjS1fjrxZmIlpEudrmNxqiq2f9vf7/dPTrQ0XngEOcIADHOAABzjAAQ5wgAOcvyaOSGe3+Z/AwpfqpPC9uSJKpA8a0IAGNKABDWhAAxrQgAY0oNHT3BePZv0PzXU4k8ABDnCAAxzgAAc4wAEOcIADnHVwnr4b6KjvBl7OqO8Gdpzif9iOj3d3Dw5AClKQghSkIAUpSEEKUpCCFKQgBenbIHULUi+jSNsFaafjuvs9kIIUpCAFKUhBClKQghSkIAUpSEH6Nkg7ivQsCQhS96AgdZy9vU4HpCAFKUhBClKQghSkIAUpSEEKUpC+DdJdRfp1MqNI9wvSg/zovgcpSEEKUpCCFKQgBSlIQQpSkIIUpG+DtKtI/yV9inSvID056ff39kAKUpCCFKQgBSlIQQpSkIIUpCAF6dsg7RX/MjGTFGmvIO33ez2QghSkIAUpSEEKUpCCFKQgBSlIQfpWSPcU6aeYqizodgvS/X3X7XZBClKQghSkIAUpSEEKUpCCFKQgBWltpCsUP/HuG6XOHuwsyEJ5OfGm0s7kQ9bY+hDPkrQcY/7nlifBrYzSII5CmRYeSlzs7Ihj3xeeKDyJ+yCbiDS+lcLvlLRM78a2N53KyG9YStvaLmmwOmwvy5KG9WA1Ra9t2GieN3KrN0qzeSgXeC0vGk7iJG9vhXJkQLv0MYqjrHUvg/EkUz6u49Cv7mMxNpfT1qdZmA36YT5HB+7gS+znP799HjiDs48XA1dcztNWR5yFScsRl8NJ60R8+BIOb7NWFCf5uHz7LD6f9t+ryzJ5Kzriy+U3cT4cqmu3tnUj/W4nHSbBNPsHec27HT+4e91MtqGd5b5E4B9ZQxUG/bznvCCSycDZ27VE0Z9Hlh+k09CbHwZRmNta12E8/PGLRQPmXhf3ILL5NG+vunTnxrvzFme1LdVx5yVqyooj4Qe301Dakby/vBs3rJ9egWyK3Xa7+FEag8qv72Ve7vjqDyv0rmVoHVq+HHn5UItpEo+CUFrNhWXwYB06drtp3XnhTC5/H6qlKm+Trz79/ump9dis5Mdl8tNh8rPL5KfL5KfH5GePyc8+k58DJj9Om8sR14x2uKa0wzWnHa5J7XDNaodrWjtc89rhmtgO18x2uWa2y7ZWc81sl2tmu0YzW6Sz29sX366utKMl0jdwQ/aRmRuyh8zckP1j5oaMezM3ZNSbuSFj3swNGfFmbsh4N3NDb2SGfpjmMb2NGfphmsn0Jmboh2ku01uYoR+m2UxvYIZ+mOYzvX0Z+uFal5nmM713GfqpPp/vgygz37au1anqfsjuMfRDdo+hH7J7DP2Q4W7ohwx3Qz9kuBv6IcPd0A8Z7oZ+6P3L1BHXjKZ3MFNHXHOa3sNMHXHNanoXM3XENa/pfczUEdfMpncyU0dsazXXzKY3M1NH1Wf2039mlH5smNrm2i/+0Ft8jZhBwt28RGfzErubl+huXqK3eYm9zUvsb17iYPMSL3b2TWnUEN9ODQHu1BDhTg0h7tQQ404NQe7UEOVODWHu1BDnbg1x7taxj9cQ524Nce6uF+el33SsllYtPvrIIEGPBpsEPRhsEvRYsEnQSy6bBL3isknQCy6bBL3esknQyy2bhCat4tOoIb41aRWfRg0Rrkmr+DRqiHFNWsWnUUOUa9IqPo0a4lyTVvFp1LGP1xDnmrSKT2O9OC/9dFa1tGrxbS0GCXo02CTowWCToMeCTYJectkk6BWXTYJecNkk6PWWTYJebtkkNA8E8mnQT1TxadAPW/Fp0M9h8WnQj2jxadDPJfJp0I8s8mnQTzPyadAPOvJp1BDnmscj+TRqiHPNQ5V8GjXs5Jq0SqdR+oWSamnV4hMmDBJ0WsUmQQ8GmwQ9FmwSdFrFJkGnVWwSdFrFJkGnVWwS9HLLJqFJq/g06OWWT4Nebvk06LSKT4NOq/g06LSKT4NOq/g06LSKT4NOq/g0aohzTVrFp1FDnGvSKj6NGnZyTVql0ygtBF8trVpUimeQoNMqNgl6MNgk6LFgk6DTKjYJOq1ik6DTKjYJOq1ik6CXWzYJTVrFp0Evt3wa9HLLp0GnVXwadFrFp0GnVXwadFrFp0GnVXwadFrFp1FDnGvSKj6NGuJck1bxadSwk2vSKp1Gab3damnVoiAvgwSdVrFJ0IPBJkGPBZsEnVaxSdBpFZsEnVaxSdBpFZsEvdyySWjSKj4Nernl06CXWz4NOq3i06DTKj4NOq3i06DTKj4NOq3i06DTKj6NGuJck1bxadQQ55q0ik+jhp1ck1bpNErLGlZLqxZ1Dxkk6LSKTYIeDDYJeizYJOi0ik2CTqvYJOi0ik2CTqvYJOjllk1CW2yNS0NXrYpLQ1fIiktDV+OKS0NX/opLQ1fzjUtDVw6OS0NXKY5LQ1dEjkujhjjXlp7j0qghzrUF67g0atjJNWnVSuN7lQqvy4rO4khE8n5VQbYoHNtI78bNogJsaanYVVnoVGbv41nkp41uuykcp9sUHfWb261WbvYhx3iqdu37fS+T4ziZHz8E6aKs8tP9V6g9nTs4T3yZXMxUlePKDRXH/CXHJ+mls0QuMFSh5mW/b7juN8wwwwwzzDDDDDPMMMMMM8wwwwwzzDDDDDPMMMMMM8wwwwwzzDDDDDPMMMMMM8wwwwwzzDDDDDPMMMMMM8wwwwwzzDDDDDPMfynz3I7vZJIEvvzkqRdrHbv9f76vql6NTV++Gnspk0Cmy9drrebqBeJpGGd2GESy9BXZ9LX3dMvfrE3t4tPz0zj0siCOcigrzeS0dS1HcSKtam8+f5RjGfkvb2hxrtFrN0VHvbncVi8yqx9WKEeZAitxvXJrD8YyO40y1T+5xGgWDQvSxrb4o8TFilA+tb4qfZdbHcFINLJJkNppMSrVhNTxrJGd99+pN5w0/gts6m2Fr14dz9mXfgfTOA2Uw5P8dJW7WR3KzStUSXxvhrTCCiJfqnhoOU3D1qvjZt2Go0CGar41ln26iJNxEs+m0hc//yz+tjz/YA8mXrp8/10F2PZz6/xVa94htjcenykNO5TROJuId8IV/xTWcRha4vDlFWkYDGWj5Wxftb9vl8bbn+4kTkTjJr+V9i/iJpdZTtWlrjr393zFMR8gdahpvPR3dfPd/iHn4ujoaNF563ksvC6H/cb0VlfHdSK9H+s0fjRsY3q96q/l3R2paa0mw3KmFIUc7IGXpsE4kn5flYhIr4qe/L5eV64GejpLJ411xyIf0sPFeK4fSWF4WOUubXXluipplsQ/ZDWdxbXrKsVTbxhk82pSy4vXvqtCYiW1rpfVQvJyWVknPIwXH3WswvnlwiNawjH1ZhJu1Vkfm8WuWun6x7KcQh07O+LL71/Fv89/vxCX5xdff/v8q/h4/utvffHh9OK0moOzfNWWD55K0UQWizROMhHNbvN5MBRFSZNUeOkwT16CaFzB46rvlZ9nO7PXFNfVF5dEZrMkElMvSeVZGHtZw1NL/nY+lM/OXRfnKnVmeYr2THZ5C2WOHzdb6eUp/yzCvQj2xpYvR94szMQ0ifM1TG41xdZP+/v9/unp1oYLzwAHOMABDnCAAxzgAAc4wAHOXxNHpLPb/E9g4Ut1UvjeXBEl0gcNaEADGtCABjSgAQ1oQAMa0Ohp7otHs/6H5jqcSeAABzjAAQ5wgAMc4AAHOMABzjo4T98NdNR3Ay9n1HcDO07xP2zHx7u7BwcgBSlIQQpSkIIUpCAFKUhBClKQgvRtkLoFqZdRpO2CtNNx3f0eSEEKUpCCFKQgBSlIQQpSkIIUpCB9G6QdRXqWBASpe1CQOs7eXqcDUpCCFKQgBSlIQQpSkIIUpCAFKUjfBumuIv06mVGk+wXpQX5034MUpCAFKUhBClKQghSkIAUpSEEK0rdB2lWk/5I+RbpXkJ6c9Pt7eyAFKUhBClKQghSkIAUpSEEKUpCC9G2Q9op/mZhJirRXkPb7vR5IQQpSkIIUpCAFKUhBClKQghSkIH0rpHuK9FNMVRZ0uwXp/r7rdrsgBSlIQQpSkIIUpCAFKUhBClKQgrQ20hWKn3j3jVJnD3YWZKG8nHhTaWfyIWtsfYhnSVqOMf9zy5PgVkZpEEehTAsPJS52dsSx7wtPFJ7EfZBNRBrfSuF3Slqmd2Pbm05l5DcspW1tlzRYHbaXZUnDerCaotc2bDTPG7nVG6XZPJQLvJYXDSdxkre3QjkyoF36GMVR1rqXwXiSKR/XcehX97EYm8tp69MszAb9MJ+jA3fwJfYHncG3zwNncPbxYuCIy3na6oizMGm54nI4aZ2ID1/C4W3WiuIkH5dvn8Xn0/57dVkmb0VHfLn8Js6HQ3Xt1rZupN/tpMMkmGb/IK95t+MHd6+byTa0s9yXCPwja6jCoJ/3nBdEMhk4e11LFP15ZPlBOg29+WEQhbmtdR3Gwx+/WDRg7nVxDyKbT/P2qkt3brw7b3FW21Idd16ipqw4En5wOw2lHcn7y7txw/rpFcim2G23ix+lMaj8+l7m5Y6v/rBC71qG1qHly5GXD7WYJvEoCKXVXFgGD9ahY7eb1p0XzuTy96FaqvI2+erT75+eWo/NSn5cJj8dJj+7TH66TH56TH72mPzsM/k5YPLjtLkccc1oh2tKO1xz2uGa1A7XrHa4prXDNa8drontcM1sl2tmu2xrNdfMdrlmtms0s0U6u7198e3qSjtaIn0DN2Qfmbkhe8jMDdk/Zm7IuDdzQ0a9mRsy5s3ckBFv5oaMdzM39EZm6IdpHtPbmKEfpplMb2KGfpjmMr2FGfphms30Bmboh2k+09uXoR+udZlpPtN7l6Gf6vP5Pogy823rWp2q7ofsHkM/ZPcY+iG7x9APGe6GfshwN/RDhruhHzLcDf2Q4W7oh96/TB1xzWh6BzN1xDWn6T3M1BHXrKZ3MVNHXPOa3sdMHXHNbHonM3XEtlZzzWx6MzN1VH1mP/1nRunHhqltrv3iD73F14gZJNzNS3Q2L7G7eYnu5iV6m5fY27zE/uYlDjYv8WJn35RGDfHt1BDgTg0R7tQQ4k4NMe7UEORODVHu1BDmTg1x7tYQ524d+3gNce7WEOfuenFe+k3HamnV4qOPDBL0aLBJ0IPBJkGPBZsEveSySdArLpsEveCySdDrLZsEvdyySWjSKj6NGuJbk1bxadQQ4Zq0ik+jhhjXpFV8GjVEuSat4tOoIc41aRWfRh37eA1xrkmr+DTWi/PST2dVS6sW39ZikKBHg02CHgw2CXos2CToJZdNgl5x2SToBZdNgl5v2STo5ZZNQvNAIJ8G/UQVnwb9sBWfBv0cFp8G/YgWnwb9XCKfBv3IIp8G/TQjnwb9oCOfRg1xrnk8kk+jhjjXPFTJp1HDTq5Jq3QapV8oqZZWLT5hwiBBp1VsEvRgsEnQY8EmQadVbBJ0WsUmQadVbBJ0WsUmQS+3bBKatIpPg15u+TTo5ZZPg06r+DTotIpPg06r+DTotIpPg06r+DTotIpPo4Y416RVfBo1xLkmreLTqGEn16RVOo3SQvDV0qpFpXgGCTqtYpOgB4NNgh4LNgk6rWKToNMqNgk6rWKToNMqNgl6uWWT0KRVfBr0csunQS+3fBp0WsWnQadVfBp0WsWnQadVfBp0WsWnQadVfBo1xLkmreLTqCHONWkVn0YNO7kmrdJplNbbrZZWLQryMkjQaRWbBD0YbBL0WLBJ0GkVmwSdVrFJ0GkVmwSdVrFJ0Mstm4QmreLToJdbPg16ueXToNMqPg06reLToNMqPg06reLToNMqPg06reLTqCHONWkVn0YNca5Jq/g0atjJNWmVTqO0rGG1tGpR95BBgk6r2CTowWCToMeCTYJOq9gk6LSKTYJOq9gk6LSKTYJebtkktMXWuDR01aq4NHSFrLg0dDWuuDR05a+4NHQ137g0dOXguDR0leK4NHRF5Lg0aohzbek5Lo0a4lxbsI5Lo4adXJNWrTS+V6nwuqzoLI5EJO9XFWSLwrGN9G7cLCrAlpaKXZWFTmX2Pp5FftrotpvCcbpN0VG/ud1q5WYfcoynate+3/cyOY6T+fFDkC7KKj/df4Xa07mD88SXycVMVTmu3FBxzF9yfJJeOkvkAkMVal72+4brfsMMM8wwwwwzzDDDDDPMMMMMM8wwwwwzzDDDDDPMMMMMM8wwwwwzzDDDDDPMMMMMM8wwwwwzzDDDDDPMMMMMM8wwwwwzzDDD/Jcyz+34TiZJ4MtPnnqx1rHb/+f7qurV2PTlq7GXMglkuny91mquXiCehnFmh0EkS1+RTV97T7f8zdrULj49P41DLwviKIey0kxOW9dyFCfSqvbm80c5lpH/8oYW5xq9dlN01JvLbfUis/phhXKUKbAS1yu39mAss9MoU/2TS4xm0bAgbWyLP0pcrAjlU+ur0ne51RGMRCObBKmdFqNSTUgdzxrZef+desNJ47/Apt5W+OrV8Zx96XcwjdNAOTzJT1e5m9Wh3LxClcT3ZkgrrCDypYqHltM0bL06btZtOApkqOZbY9mnizgZJ/FsKn3x88/ib8vzD/Zg4qX/ae9se9s2tq79/fkVc1igllFJFiW/N27hKHYSIIkDO0HRGIFAiSOJNkUKJGVbKPzfbw5F+diNN8mhttjjPosf0lSbXOvizOyZ3Yocpe+/qwTbfBydPxuNG6RpjUanyqPpSm8UjcUr0Ra/C+PYdQ1x+PSM0HUGstYwNy9b3zdz8+2HO/EDUbuKb6X1q7iKbdKhmvqqz36JZxz9DlKHGsap3uXV9+a1nIujo6NF45VTTFTTbr/SvdXl0Q+kdV3m4nvNa3TPV+2V3t2RGtZqMKQjJdnIodmzwtAZedLuqi0iwsukJb+Xa8plR09n4bhWti/iLj1c9Gf5THLdwyJ32VRnlnUJo8C/lsV8FueWdfKn1sCJ5sWs0pNL31VisbQqq7KcSJ5OK2XSQ3vyUccynZ9OPKIhTF01nXQrznpfT1bVQuff59UU6tjaEp+/fhF/nn09Fxdn51/ef3orPpy9fd8V707OT4oJnMaztryzVIkmIl+EfhAJbzaJx8FAJFuahMIKB3Hx4nijAorLtlc6j1Zmqy76xSeXQEazwBNTKwjlqetbUc1SU/5m3JWPPusnnxVqzPwS7ZFtegt5wvfr3enlof5M0j1J9tqGLYfWzI3ENPDjOUxu1MXGT/v73e7JycaaN54BDnCAAxzgAAc4wAEOcIADnH8njghnk/g/gYUt1YfCtuaKKJA2aEADGtCABjSgAQ1oQAMa0IAmm+Y2eTTrbzR9dyaBAxzgAAc4wAEOcIADHOAABzhlcB5+N9BUvxt4MaN+N7BjJt+wHR9vbx8cgBSkIAUpSEEKUpCCFKQgBSlIQQrSl0HaTkitiCJtJaSdTru9vwtSkIIUpCAFKUhBClKQghSkIAUpSF8GaUeRngYOQdo+SEhNc2+v0wEpSEEKUpCCFKQgBSlIQQpSkIIUpC+DdFuRfhnPKNL9hPQgPnZegxSkIAUpSEEKUpCCFKQgBSlIQQrSl0G6o0j/kDZFupeQvnnT7e7tgRSkIAUpSEEKUpCCFKQgBSlIQQrSl0G6m/yfiZmkSHcT0m53dxekIAUpSEEKUpCCFKQgBSlIQQpSkL4U0j1F+tGndhZs7ySk+/vt9s4OSEEKUpCCFKQgBSlIQQpSkIIUpCCtjHSJYgfWbS1X7K4ZOZErL8bWVDYjeRfVNt75syDMx5j/eOUbZyK90PE9V4aJQo7E1pY4tm1hiURJ3DrRWIT+RAq7k3NleDNqWtOp9OyaobyNzZwLlkfTiqKgZtwZdbHb0rxoHl/ULn5RGM1ducBrWN5g7Afx9YYrhxq0qcbQ96LGrXRG40hp9H3XLq6x6JuLaePjzI16XTceo71277Nv9zq9b596Zu/0w3mvLS7mYaMjTt2gYYqLwbjxRrz77A4mUcPzg7hfvn0Sn066r9VpkZyIjvh88U2cDQbq3I3NrJ5+tRUOAmca/Uae82rLdm6eD5PX0GKxlnDsI2Og0qAbt5zleDLomXu7hkja88iwnXDqWvNDx3PjWKPv+oPrXw0aMFZd3IOI5tP4etWkW1fWjbX4NPNKddxYgRqy4kjYzmTqyqYnby9uRjXjp2cg62K71Ur+yM1BpWtbkRULX/5luFZfusahYcuhFXe1mAb+0HGlUV9EenfGodls1Y0by53J9O8DNVXF18SzT7d7cmLc1wvptJl0Okw620w6O0w6u0w6e0w6+0w6B0w6ZotLiGtEm1xD2uQa0ybXoDa5RrXJNaxNrnFtcg1sk2tkt7lGdpttruYa2W2ukd3WGtkinE0mT367utCKFkhbQ4ZsIz0ZsoX0ZMj20ZMh815Phsx6PRky5/VkyIzXkyHzXU+GXsg0dZjGMb2MaeowjWR6EdPUYRrL9BKmqcM0mukFTFOHaTzTy5emDte8zDSe6bVLU6f4eL51vEh/2eqrj4rrkM2jqUM2j6YO2TyaOmS6a+qQ6a6pQ6a7pg6Z7po6ZLpr6tDrl64Q14imVzBdIa4xTa9hukJco5pexXSFuMY1vY7pCnGNbHol0xVim6u5Rja9mOkKFR/ZD19m5P7YMLXMtZ78h97i14gZLNrrt+is32J7/RY767fYXb/F3vot9tdvcbB+iycr+7o8Kshvs4IENyvIcLOCFDcryHGzgiQ3K8hys4I0NyvI83YFed6uYh2vIM/bFeR5u1ye5/6mY7GyavGjjwwWdG+wWdCdwWZB9wWbBT3lslnQMy6bBT3hslnQ8y2bBT3dsllklFV8HhXkd0ZZxedRQYZnlFV8HhXkeEZZxedRQZZnlFV8HhXkeUZZxedRxTpeQZ5nlFV8HuXyPPens4qVVYvf1mKwoHuDzYLuDDYLui/YLOgpl82CnnHZLOgJl82Cnm/ZLOhno9gsMh4I5POgn6ji86AftuLzoJ/D4vOgH9Hi86CfS+TzoB9Z5POgn2bk86AfdOTzqCDPM8oqPo8q1vEKFvKMsorPo9xSnvsLJcXKqsVPmDBY0L3BZkF3BpsF3RdsFnRZxWZBl1VsFnRZxWZBl1VsFvR0y2aRUVbxedBlFZ8HXVbxedBlFZ8HXVbxedBlFZ8HXVbxedBlFZ8HXVbxeVSQ5xllFZ9HFet4BQt5RlnF51FuKc/dCL5YWbXYKZ7Bgu4NNgu6M9gs6L5gs6DLKjYLuqxis6DLKjYLuqxis6CnWzaLjLKKz4Muq/g86LKKz4Muq/g86LKKz4Muq/g86LKKz4Muq/g86LKKz6OCPM8oq/g8qljHK1jIM8oqPo9yS3nufrvFyqrFhrwMFnRvsFnQncFmQfcFmwVdVrFZ0GUVmwVdVrFZ0GUVmwU93bJZZJRVfB50WcXnQZdVfB50WcXnQZdVfB50WcXnQZdVfB50WcXnQZdVfB4V5HlGWcXnUcU6XsFCnlFW8XmUW8pztzUsVlYt9j1ksKB7g82C7gw2C7ov2CzosorNgi6r2CzosorNgi6r2Cyy9p1issjcbI3LI2u3Ki6PrI2suDyy9rji8sja/orLI2vPNy6PrO3guDyydorj8sjaRI7Lo4I8zyir+DyqWMcrWMgzyio+j/yl/HuRHV7THZ3FkfDk7XIH2WTj2Fp4M6onO8DmbhW73BY6lNFrf+bZYW2nVRemuVMXHfW39k6x7WbvYoyH3a5tu2tFcuQH8+M7J1xsq/xw/wX2no4FzgJbBucztctx4QsVx/wpx0dphbNALjDURs1pu69532+EEUYYYYQRRhhhhBFGGGGEEUYYYYQRRhhhhBFGGGGEEUYYYYQRRhhhhBFGGGGEEUYYYYQRRhhhhBFGGGGEEUYYYYQRRhhhhP9V4XnTv5FB4Njyo6VerDWbrRXfV1WvxoZPX429kIEjw/T1WqO+fIF46vpR03U8mfuKbPjce7r5b9aGzeSn56e+a0WO78VQRhjJaaMvh34gjWJvPn+QI+nZT29o8Vltt1UXHfXmcku9yKz+MFw5jBRYjvRSttkbyejEi1T7xBbDmTdISGub4q8ciSWhfLj6MvddbnU4Q1GLxk7YDJNeKWakjkcXNeP2O7EG49p/gXXVlvjq1fGYPdXtTf3QUYJv4o+L3M3yUDLPUAX+rR7SEsvxbKnyoWHWNa9eHldlLxw60lXjrZa26SJPRoE/m0pb/Pyz+E/6+V2zN7bC9P13lWCbj6PzZ6NxgzSt0ehUeTRd6Y2isXgl2uJ3YRy7riEOn54Rus5A1hrm5mXr+2Zuvv1wJ34galfxrbR+FVexTTpUU1/12S/xjKPfQepQwzjVu7z63ryWc3F0dLRovHKKiWra7Ve6t7o8+oG0rstcfK95je75qr3SuztSw1oNhnSkJBs5NHtWGDojT9pdtUVEeJm05PdyTbns6OksHNfK9kXcpYeL/iyfSa57WOQum+rMsi5hFPjXspjP4tyyTv7UGjjRvJhVenLpu0osllZlVZYTydNppUx6aE8+6lim89OJRzSEqaumk27FWe/ryapa6Pz7vJpCHVtb4vPXL+LPs6/n4uLs/Mv7T2/Fh7O377vi3cn5STGB03jWlneWKtFE5IvQDyLhzSbxOBiIZEuTUFjhIC5eHG9UQHHZ9krn0cps1UW/+OQSyGgWeGJqBaE8dX0rqllqyt+Mu/LRZ/3ks0KNmV+iPbJNbyFP+H69O7081J9JuifJXtuw5dCauZGYBn48h8mNutj4aX+/2z052VjzxjPAAQ5wgAMc4AAHOMABDnCA8+/EEeFsEv8nsLCl+lDY1lwRBdIGDWhAAxrQgAY0oAENaEADGtBk09wmj2b9jabvziRwgAMc4AAHOMABDnCAAxzgAKcMzsPvBprqdwMvZtTvBnbM5Bu24+Pt7YMDkIIUpCAFKUhBClKQghSkIAUpSEH6MkjbCakVUaSthLTTabf3d0EKUpCCFKQgBSlIQQpSkIIUpCAF6csg7SjS08AhSNsHCalp7u11OiAFKUhBClKQghSkIAUpSEEKUpCC9GWQbivSL+MZRbqfkB7Ex85rkIIUpCAFKUhBClKQghSkIAUpSEH6Mkh3FOkf0qZI9xLSN2+63b09kIIUpCAFKUhBClKQghSkIAUpSEH6Mkh3k/8zMZMU6W5C2u3u7oIUpCAFKUhBClKQghSkIAUpSEEK0pdCuqdIP/rUzoLtnYR0f7/d3tkBKUhBClKQghSkIAUpSEEKUpCCFKSVkS5R7MC6reWK3TUjJ3LlxdiaymYk76Laxjt/FoT5GPMfr3zjTKQXOr7nyjBRyJHY2hLHti0skSiJWycai9CfSGF3cq4Mb0ZNazqVnl0zlLexmXPB8mhaURTUjDujLnZbmhfN44vaxS8Ko7krF3gNyxuM/SC+3nDlUIM21Rj6XtS4lc5oHCmNvu/axTUWfXMxbZwNh85Ahr1vn3pm7/TDec8UF/Ow0RGnbtBoi4vBuHEs3n12B5OoEfqzuDO+fRKfTrqv1WmRnIiO+HzxTZwNBurcjc2s7n21FQ4CZxr9Rp7zast2bp4Pk9fQYrGWcOwjY6DGfjduLsvxZNAz9/YMkTTikWE74dS15oeO58axRt/1B9e/GjRgrLq4BxHNp/H1qh23rqwba/Fp5pXquLECNU7FkbCdydSVTU/eXtyMasZPz0DWxXarlfyRm3hK17YiKxa+/Mtwrb50jUPDlkNr5kZiGvhDx5VGfRHp3RmHZrNVN24sdybTvw/U/BRfE0853e7JiXFfL6TTZtLpMOlsM+nsMOnsMunsMensM+kcMOmYLS4hrhFtcg1pk2tMm1yD2uQa1SbXsDa5xrXJNbBNrpHd5hrZbba5mmtkt7lGdltrZItwNpk8+cHqQitaIG0NGbKN9GTIFtKTIdtHT4bMez0ZMuv1ZMic15MhM15Phsx3PRl6IdPUYRrH9DKmqcM0kulFTFOHaSzTS5imDtNophcwTR2m8UwvX5o6XPMy03im1y5NneLj+dbxIv1lq68+Kq5DNo+mDtk8mjpk82jqkOmuqUOmu6YOme6aOmS6a+qQ6a6pQ69fukJcI5pewXSFuMY0vYbpCnGNanoV0xXiGtf0OqYrxDWy6ZVMV4htruYa2fRipitUfGQ/fIOR+wvD1DLXevIfeoufIGawaK/forN+i+31W+ys32J3/RZ767fYX7/Fwfotnqzs6/KoIL/NChLcrCDDzQpS3Kwgx80KktysIMvNCtLcrCDP2xXkebuKdbyCPG9XkOftcnme+0OOxcqqxS89MljQvcFmQXcGmwXdF2wW9JTLZkHPuGwW9ITLZkHPt2wW9HTLZpFRVvF5VJDfGWUVn0cFGZ5RVvF5VJDjGWUVn0cFWZ5RVvF5VJDnGWUVn0cV63gFeZ5RVvF5lMvz3N/LKlZWLX5Qi8GC7g02C7oz2CzovmCzoKdcNgt6xmWzoCdcNgt6vmWzoJ+NYrPIeCCQz4N+oorPg37Yis+Dfg6Lz4N+RIvPg34ukc+DfmSRz4N+mpHPg37Qkc+jgjzPKKv4PKpYxytYyDPKKj6Pckt57s+SFCurFr9bwmBB9wabBd0ZbBZ0X7BZ0GUVmwVdVrFZ0GUVmwVdVrFZ0NMtm0VGWcXnQZdVfB50WcXnQZdVfB50WcXnQZdVfB50WcXnQZdVfB50WcXnUUGeZ5RVfB5VrOMVLOQZZRWfR7mlPHf392Jl1WJ7eAYLujfYLOjOYLOg+4LNgi6r2CzosorNgi6r2CzosorNgp5u2Swyyio+D7qs4vOgyyo+D7qs4vOgyyo+D7qs4vOgyyo+D7qs4vOgyyo+jwryPKOs4vOoYh2vYCHPKKv4PMot5bmb7BYrqxa78DJY0L3BZkF3BpsF3RdsFnRZxWZBl1VsFnRZxWZBl1VsFvR0y2aRUVbxedBlFZ8HXVbxedBlFZ8HXVbxedBlFZ8HXVbxedBlFZ8HXVbxeVSQ5xllFZ9HFet4BQt5RlnF51FuKc/dy7BYWbXY7JDBgu4NNgu6M9gs6L5gs6DLKjYLuqxis6DLKjYLuqxis8jad4rJInOzNS6PrN2quDyyNrLi8sja44rLI2v7Ky6PrD3fuDyytoPj8sjaKY7LI2sTOS6PCvI8o6zi86hiHa9gIc8oq/g88pfy70V2eE23cRZHwpO3yx1kk41ja+HNqJ7sAJu7VexyL+hQRq/9mWeHtZ1WXZjmTl101N/aO8W2m72LMR62uLbtrhXJkR/Mj++ccLGX8sP9F9hwOhY4C2wZnM/U1saFL1Qc86ccH6UVzgK5wFC7M6ftvubNvhFGGGGEEUYYYYQRRhhhhBFGGGGEEUYYYYQRRhhhhBFGGGGEEUYYYYQRRhhhhBFGGGGEEUYYYYQRRhhhhBFGGGGEEUYYYYQR/leF503/RgaBY8uPlnqx1my2VnxfVb0aGz59NfZCBo4M09drjfryBeKp60dN1/Fk7iuy4XPv6ea/WRs2k5+en/quFTm+F0MZYSSnjb4c+oE0ir35/EGOpGc/vaHFZ7XdVl101JvLLfUis/rDcOUwUmA50kvZZm8koxMvUu0TWwxn3iAhrW2Kv3IkloTy4erL3He51eEMRS0aO2EzTHqlmJE6Hl3UjNvvxBqMa/8F1lVb4qtXx2P2VLc39UNHCb6JPy5yN8tDyTxDFfi3ekhLLMezpcqHhlnXvHp5XJW9cOhIV423WtqmizwZBf5sKm3x88/iP+nnd83e2ArT999Vgm0+js6fjcYN0rRGo1Pl0XSlN4rG4pVoi9+Fcey6hjh8ekboOgNZa5ibl63vm7n59sOd+IGoXcW30vpVXMU26VBNfdVnv8Qzjn4HqUMN41Tv8up781rOxdHR0aLxyikmqmm3X+ne6vLoB9K6LnPxveY1uuer9krv7kgNazUY0pGSbOTQ7Flh6Iw8aXfVFhHhZdKS38s15bKjp7NwXCvbF3GXHi76s3wmue5hkbtsqjPLuoRR4F/LYj6Lc8s6+VNr4ETzYlbpyaXvKrFYWpVVWU4kT6eVMumhPfmoY5nOTyce0RCmrppOuhVnva8nq2qh8+/zagp1bG2Jz1+/iD/Pvp6Li7PzL+8/vRUfzt6+74p3J+cnxQRO41lb3lmqRBORL0I/iIQ3m8TjYCCSLU1CYYWDuHhxvFEBxWXbK51HK7NVF/3ik0sgo1ngiakVhPLU9a2oZqkpfzPuykef9ZPPCjVmfon2yDa9hTzh+/Xu9PJQfybpniR7bcOWQ2vmRmIa+PEcJjfqYuOn/f1u9+RkY80bzwAHOMABDnCAAxzgAAc4wAHOvxNHhLNJ/J/AwpbqQ2Fbc0UUSBs0oAENaEADGtCABjSgAQ1oQJNNc5s8mvU3mr47k8ABDnCAAxzgAAc4wAEOcIADnDI4D78baKrfDbyYUb8b2DGTb9iOj7e3Dw5AClKQghSkIAUpSEEKUpCCFKQgBenLIG0npFZEkbYS0k6n3d7fBSlIQQpSkIIUpCAFKUhBClKQghSkL4O0o0hPA4cgbR8kpKa5t9fpgBSkIAUpSEEKUpCCFKQgBSlIQQrSl0G6rUi/jGcU6X5CehAfO69BClKQghSkIAUpSEEKUpCCFKQgBenLIN1RpH9ImyLdS0jfvOl29/ZAClKQghSkIAUpSEEKUpCCFKQgBenLIN1N/s/ETFKkuwlpt7u7C1KQghSkIAUpSEEKUpCCFKQgBSlIXwrpniL96FM7C7Z3EtL9/XZ7ZwekIAUpSEEKUpCCFKQgBSlIQQpSkFZGukSxA+u2lit214ycyJUXY2sqm5G8i2ob7/xZEOZjzH+88o0zkV7o+J4rw0QhR2JrSxzbtrBEoiRunWgsQn8ihd3JuTK8GTWt6VR6ds1Q3sZmzgXLo2lFUVAz7oy62G1pXjSPL2oXvyiM5q5c4DUsbzD2g/h6w5VDDdpUY+h7UeNWOqNxpDT6vmsX11j0zcW0cTYcOgMZ9r596pm90w/nvba4mIeNjjh1g4YpLgbjxrF499kdTKJG6M/izvj2SXw66b5Wp0VyIjri88U3cTYYqHM3NrO699VWOAicafQbec6rLdu5eT5MXkOLxVrCsY+MgRr73bi5LMeTQc/c2zdE0ohHhu2EU9eaHzqeG8cafdcfXP9q0ICx6uIeRDSfxterdty6sm6sxaeZV6rjxgrUOBVHwnYmU1c2PXl7cTOqGT89A1kX261W8kdu4ild24qsWPjyL8O1+tI1Dg1bDq2ZG4lp4A8dVxr1RaR3ZxyazVbduLHcmTQOdw+aB4+O/YO6MVCzVawQT0Dd7smJcV8vpNpei2pnLarba1HdWYvq7lpU99aiur8W1YO1qJqt9ciuJ7vM9aSXuZ78MteTYOZ6MsxcT4qZ68kxcz1JZq4ny9rrybL2mtaw9WRZez1Z1l4hy0Q4m0ye/AB4iQohkLaGaMG21RMt2LJ6ogXbVU+04NylJ1pw5tITLThv6YkWnLX0RAvOWXqiRQsDTdW15FTRskBTdS1ZVbQo0FRdS14VLQk0VdeSWUULAk3VteRW0XJAU3U969VacqtoLaCpWja3bh0vWrUM6KsTiqsWbFZN1YLNqqlasFk1VQtOWZqqBacsTdWCU5amasEpS1O14JSlqVq0HtCVXU92Fa0IdGXXk19FawJd2fVkWNGqQFd2PTlWtC7QlV1PlhWtDHRl17SGrSfLihYHurJaWfa9yBcO6beK4kh48nb5hUbyPUYtvBnVky8kcr+5WH41GcrotT/z7LC206oL09ypi476W3un2LcfdzHGwzeutt21Ijnyg/nxnRMuvtp7aIoC33/GAmeBLYPzmfqmrfCFimP+lOOjtMJZIBcY6svCtAtW/UY3+SLpqdWFDBwZprixU9ohU9ePmurbrVzL8Ln7zicNm8m4m/quFTm+F0MZYSSnjb4c+oE0io2kD3IkPfvpDS0+q+3Go6CjRoL6MsxUf6RfmOZ+l7yUbfZGMjrxItU+scVw5g0S0tqm+KvAN6aKUD5cfZmbG+pwhqIWjZ0wHtfqumJG6nh0UTNuvxNrMK79F1hXbYmffjeY6vamfugowTfxx0XuZnkomWeoAv9WD2mJ5Xi2VInbMOuaVy+Pq7IXDh3pqvFWS9t0kSejwJ9NpS1+/ln8J/38rtkbW2E6n6gE23wcnT8bjRukaY1Gp8qj6UpvFI3FK9EWvwvj2HUNcfj0jNB1BrLWMDcvW983c/PthzvxA1G7im+l9au4im3SoZr6qs9+ORKmfgepQw3jVO/y6nvzWsbT29HRovHKKSaqabdf6d7q8ugH0rouc/G95jW656v2Su/uSA1rNRjSkZIsjM3e4mkgaSfPA4WXSUt+L9eUy46ezsJxrWxfxF16uOjP8pnkuodF7rKpzizrEkaBfy2L+SzOLevkT62BE82LWaUnl76rxGJpVVZlOZE8nVbKpIf25KOOZTo/nXhEQ5i6ajrpVpz1vp6sqoXOv8+rKdSxtSU+f/0i/jz7ei4uzs6/vP/0Vnw4e/u+K96dnJ8UEziNZ215Z6kSTUS+CP24kPZmk3gcDERSIobCCgdx8eJ4owKKy7ZXOo9WZqsu+sUnl0BGs8ATUysI5anrW1HNUlP+ZtyVjz7rJ58Vasz8Eu2RbXoLecL3/8BTm3/7AjZ9NFN9ofqPPEQKHOAABzjAAQ5wgAMc4AAHOC8e58cHXBRRIG3QgAY0oAENaEADGtCABjSgAU02zQ+PBCoa9YgfcIADHOAABzjAAQ5wgAMc4ADnH9wr8YucTGVgRbNAitrpJnZL/J/aLfEPS424dzL5x/Gk70gvEqrL1M6H0p7F7d8Qe63TF7IJ4sFL2ATxoLJNEJNXT8tuwsSk02HS2WbS2WHS2WXS2WPS2WfSOWDSebK7wEpCXCPa5BrSJteYNrkGtck1qk2uYW1yjWuTa2CbXCO7zTWy22xzNdfIbnON7LbWyC6+ad8TqfLb9K0gQ7ZQ+a34VpAh8778dnsryJA5X35LvRVkyHxfYdu8VXSYxjG9jK2wGd4qOkxDmV7DVtjibhUdptFML2ArbFy3yjzINJ7p1WuF7ehW0WEaz/TSVX6TuScyK2wrt4oO2TwrbB23ig6Z7itsD7eKDpnuK2wBt4oOme6rbPO2khDXiKZXsFU2b1tJiGtQ04vYKluyrSTENa7pdWyVjdZWmhm5Rja9lK2yfdpKQlwjm17NsCnai9gUDWGEEUYYYYQRRhhhhBFGGGGEEUYY4f+l8Lzp38ggcGz50VL/o8pstrAp/qM7wab4Dwc2xdc6sCk+NsXXOLAp/t8PbIr/9wOb4mse2BQfm+I/e2BTfOAABzjAAQ5wgAMc4AAHOMABzkvYUhI0oAENaEADGtCABjSgAQ1oXg7N/zdbWQIHOMABDnCAAxzgAAc4wAFOeb9/YFP8N85EeqHje64MQ2yJ/7+1Jb4fXIuT4dAZONIbzB82wq92C/z07L9FHv/78u+Lfz6op395+Efft+fqn+No4v72//4PvU71JA=="
               },
               {
                  "name" : "annual_peak_electric_demand",
                  "units" : "kW",
                  "value" : 2121.0177699999999
               },
               {
                  "name" : "first_year_capital_cost",
                  "units" : "$",
                  "value" : 0
               },
               {
                  "name" : "annual_utility_cost",
                  "units" : "$",
                  "value" : 0
               },
               {
                  "name" : "total_lifecycle_cost",
                  "units" : "$",
                  "value" : 0
               }
            ],
            "step_warnings" : [ "A table in Annual Overview section returned false and was skipped." ]
         }
      }
   ],
   "updated_at" : "20170710T190141Z",
   "weather_file" : "USA_CO_Denver.Intl.AP.725650_TMY3.epw"
}
