{
   "completed_at" : "20170710T192353Z",
   "completed_status" : "Success",
   "created_at" : "2017-07-10 19:22:01 +0000",
   "current_step" : 5,
   "description" : "",
   "eplusout_err" : "Program Version,EnergyPlus, Version 8.7.0-78a111df4a, YMD=2017.07.10 19:23,IDD_Version 8.7.0\n   ************* IDF Context for following error/warning message:\n   ************* Note -- lines truncated at 300 characters, if necessary...\n   *************      5 Building,\n   ************* indicated Name=NECB 2011-Warehouse-NECB HDD Method-CAN_MB_Brandon.711400_CWEC.epw created: 2017-07-10 19:22:06 +0000\n   ************* Only last 1 lines before error line shown.....\n   *************      6   NECB 2011-Warehouse-NECB HDD Method-CAN_MB_Brandon.711400_CWEC.epw created: 2017-07-10 19:22:06 +0000, !- Name\n   ** Warning ** IP: IDF line~6 Alpha Argument length exceeds maximum, will be truncated=  NECB 2011-Warehouse-NECB HDD Method-CAN_MB_Brandon.711400_CWEC.epw created: 2017-07-10 19:22:06 +000\n   **   ~~~   ** Will be processed as Alpha=NECB 2011-WAREHOUSE-NECB HDD METHOD-CAN_MB_BRANDON.711400_CWEC.EPW CREATED: 2017-07-10 19:22:06 +0000\n   ************* Beginning Zone Sizing Calculations\n   ** Warning ** ProcessScheduleInput: Schedule:Day:Interval=\"ECONOMIZER MAX OA FRACTION 100 PCT DEFAULT\", Blank Schedule Type Limits Name input -- will not be validated.\n   ** Warning ** ProcessScheduleInput: Schedule:Day:Interval=\"SCHEDULE DAY 1\", Blank Schedule Type Limits Name input -- will not be validated.\n   ** Warning ** ProcessScheduleInput: Schedule:Day:Interval=\"SCHEDULE DAY 10\", Blank Schedule Type Limits Name input -- will not be validated.\n   ** Warning ** ProcessScheduleInput: Schedule:Day:Interval=\"SCHEDULE DAY 11\", Blank Schedule Type Limits Name input -- will not be validated.\n   ** Warning ** ProcessScheduleInput: Schedule:Day:Interval=\"SCHEDULE DAY 12\", Blank Schedule Type Limits Name input -- will not be validated.\n   ** Warning ** ProcessScheduleInput: Schedule:Day:Interval=\"SCHEDULE DAY 13\", Blank Schedule Type Limits Name input -- will not be validated.\n   ** Warning ** ProcessScheduleInput: Schedule:Day:Interval=\"SCHEDULE DAY 14\", Blank Schedule Type Limits Name input -- will not be validated.\n   ** Warning ** ProcessScheduleInput: Schedule:Day:Interval=\"SCHEDULE DAY 15\", Blank Schedule Type Limits Name input -- will not be validated.\n   ** Warning ** ProcessScheduleInput: Schedule:Day:Interval=\"SCHEDULE DAY 16\", Blank Schedule Type Limits Name input -- will not be validated.\n   ** Warning ** ProcessScheduleInput: Schedule:Day:Interval=\"SCHEDULE DAY 17\", Blank Schedule Type Limits Name input -- will not be validated.\n   ** Warning ** ProcessScheduleInput: Schedule:Day:Interval=\"SCHEDULE DAY 18\", Blank Schedule Type Limits Name input -- will not be validated.\n   ** Warning ** ProcessScheduleInput: Schedule:Day:Interval=\"SCHEDULE DAY 19\", Blank Schedule Type Limits Name input -- will not be validated.\n   ** Warning ** ProcessScheduleInput: Schedule:Day:Interval=\"SCHEDULE DAY 2\", Blank Schedule Type Limits Name input -- will not be validated.\n   ** Warning ** ProcessScheduleInput: Schedule:Day:Interval=\"SCHEDULE DAY 5\", Blank Schedule Type Limits Name input -- will not be validated.\n   ** Warning ** ProcessScheduleInput: Schedule:Day:Interval=\"SCHEDULE DAY 6\", Blank Schedule Type Limits Name input -- will not be validated.\n   ** Warning ** ProcessScheduleInput: Schedule:Day:Interval=\"SCHEDULE DAY 7\", Blank Schedule Type Limits Name input -- will not be validated.\n   ** Warning ** ProcessScheduleInput: Schedule:Day:Interval=\"SCHEDULE DAY 8\", Blank Schedule Type Limits Name input -- will not be validated.\n   ** Warning ** ProcessScheduleInput: Schedule:Day:Interval=\"SCHEDULE DAY 9\", Blank Schedule Type Limits Name input -- will not be validated.\n   ** Warning ** ProcessScheduleInput: Schedule:Year=\"ECONOMIZER MAX OA FRACTION 100 PCT\", Blank Schedule Type Limits Name input -- will not be validated.\n   ** Warning ** ProcessScheduleInput: Schedule:Year=\"SCHEDULE RULESET 10\", Blank Schedule Type Limits Name input -- will not be validated.\n   ** Warning ** ProcessScheduleInput: Schedule:Year=\"SCHEDULE RULESET 11\", Blank Schedule Type Limits Name input -- will not be validated.\n   ** Warning ** ProcessScheduleInput: Schedule:Year=\"SCHEDULE RULESET 3\", Blank Schedule Type Limits Name input -- will not be validated.\n   ** Warning ** ProcessScheduleInput: Schedule:Year=\"SCHEDULE RULESET 4\", Blank Schedule Type Limits Name input -- will not be validated.\n   ** Warning ** ProcessScheduleInput: Schedule:Year=\"SCHEDULE RULESET 5\", Blank Schedule Type Limits Name input -- will not be validated.\n   ** Warning ** ProcessScheduleInput: Schedule:Year=\"SCHEDULE RULESET 6\", Blank Schedule Type Limits Name input -- will not be validated.\n   ** Warning ** ProcessScheduleInput: Schedule:Year=\"SCHEDULE RULESET 7\", Blank Schedule Type Limits Name input -- will not be validated.\n   ** Warning ** ProcessScheduleInput: Schedule:Year=\"SCHEDULE RULESET 8\", Blank Schedule Type Limits Name input -- will not be validated.\n   ** Warning ** ProcessScheduleInput: Schedule:Year=\"SCHEDULE RULESET 9\", Blank Schedule Type Limits Name input -- will not be validated.\n   ** Warning ** ProcessScheduleInput: Schedule:Constant=\"ALWAYS OFF DISCRETE\", Blank Schedule Type Limits Name input -- will not be validated.\n   ** Warning ** ProcessScheduleInput: Schedule:Constant=\"ALWAYS ON CONTINUOUS\", Blank Schedule Type Limits Name input -- will not be validated.\n   ** Warning ** CheckUsedConstructions: There are 22 nominally unused constructions in input.\n   **   ~~~   ** For explicit details on each unused construction, use Output:Diagnostics,DisplayExtraWarnings;\n   ************* Beginning System Sizing Calculations\n   ************* Beginning Plant Sizing Calculations\n   ** Warning ** GetDXCoils: Coil:Cooling:DX:SingleSpeed=\"COIL COOLING DX SINGLE SPEED 1 32KBTU/HR 14.0SEER\", invalid\n   **   ~~~   ** ...Part Load Fraction Correlation Curve Name = DXCOOL-NECB2011-REF-COOLPLFFPLR has out of range value.\n   **   ~~~   ** ...Curve maximum must be <= 1.0, curve max at PLR = 0.99 is 1.015\n   **   ~~~   ** ...Setting curve maximum to 1.0 and simulation continues.\n   ** Warning ** GetDXCoils: Coil:Cooling:DX:SingleSpeed=\"COIL COOLING DX SINGLE SPEED 3 164KBTU/HR 9.7EER\", invalid\n   **   ~~~   ** ...Part Load Fraction Correlation Curve Name = DXCOOL-NECB2011-REF-COOLPLFFPLR 2 has out of range value.\n   **   ~~~   ** ...Curve maximum must be <= 1.0, curve max at PLR = 0.99 is 1.015\n   **   ~~~   ** ...Setting curve maximum to 1.0 and simulation continues.\n   ** Warning ** GetDXCoils: Coil:Cooling:DX:SingleSpeed=\"COIL COOLING DX SINGLE SPEED 2 448KBTU/HR 8.39EER\", invalid\n   **   ~~~   ** ...Part Load Fraction Correlation Curve Name = DXCOOL-NECB2011-REF-COOLPLFFPLR 1 has out of range value.\n   **   ~~~   ** ...Curve maximum must be <= 1.0, curve max at PLR = 0.99 is 1.015\n   **   ~~~   ** ...Setting curve maximum to 1.0 and simulation continues.\n   ** Warning ** The Standard Ratings is calculated for Coil:Cooling:DX:SingleSpeed = COIL COOLING DX SINGLE SPEED 1 32KBTU/HR 14.0SEER but not at the AHRI test condition due to curve out of bound.\n   **   ~~~   **  Review the Standard Ratings calculations in the Engineering Reference for this coil type. Also, use Output:Diagnostics, DisplayExtraWarnings for further guidance.\n   ** Warning ** The Standard Ratings is calculated for Coil:Cooling:DX:SingleSpeed = COIL COOLING DX SINGLE SPEED 3 164KBTU/HR 9.7EER but not at the AHRI test condition due to curve out of bound.\n   **   ~~~   **  Review the Standard Ratings calculations in the Engineering Reference for this coil type. Also, use Output:Diagnostics, DisplayExtraWarnings for further guidance.\n   ** Warning ** The Standard Ratings is calculated for Coil:Cooling:DX:SingleSpeed = COIL COOLING DX SINGLE SPEED 2 448KBTU/HR 8.39EER but not at the AHRI test condition due to curve out of bound.\n   **   ~~~   **  Review the Standard Ratings calculations in the Engineering Reference for this coil type. Also, use Output:Diagnostics, DisplayExtraWarnings for further guidance.\n   ** Warning ** Check input. Pump nominal power or motor efficiency is set to 0, for pump=SERVICE WATER LOOP PUMP\n   ** Warning ** Output:Meter: invalid Name=\"GAS:FACILITY\" - not found.\n   ** Warning ** Output:Meter: invalid Name=\"DISTRICTCOOLING:FACILITY\" - not found.\n   ** Warning ** Output:Meter: invalid Name=\"DISTRICTHEATING:FACILITY\" - not found.\n   ** Warning ** Output:Meter:MeterFileOnly: invalid Name=\"GAS:FACILITY\" - not found.\n   ** Warning ** Output:Meter:MeterFileOnly requested for \"Electricity:Facility\" (TimeStep), already on \"Output:Meter\". Will report to both eplusout.eso and eplusout.mtr\n   ************* Testing Individual Branch Integrity\n   ************* All Branches passed integrity testing\n   ************* Testing Individual Supply Air Path Integrity\n   ************* All Supply Air Paths passed integrity testing\n   ************* Testing Individual Return Air Path Integrity\n   ************* All Return Air Paths passed integrity testing\n   ************* No node connection errors were found.\n   ************* Beginning Simulation\n   ** Warning ** CalcDoe2DXCoil: Coil:Cooling:DX:SingleSpeed \"COIL COOLING DX SINGLE SPEED 1 32KBTU/HR 14.0SEER\" - Air-cooled condenser inlet dry-bulb temperature below 0 C. Outdoor dry-bulb temperature = -19.90\n   **   ~~~   **  ... Occurrence info = RUN PERIOD 1, 01/02 06:03 - 06:05\n   **   ~~~   ** ... Operation at low ambient temperatures may require special performance curves.\n   ** Warning ** CalcDoe2DXCoil: Coil:Cooling:DX:SingleSpeed \"COIL COOLING DX SINGLE SPEED 1 32KBTU/HR 14.0SEER\" - Full load outlet air dry-bulb temperature < 2C. This indicates the possibility of coil frost/freeze. Outlet temperature = 1.94 C.\n   **   ~~~   **  ...Occurrence info = RUN PERIOD 1, 02/15 14:15 - 14:30\n   **   ~~~   ** ... Possible reasons for low outlet air dry-bulb temperatures are: This DX coil\n   **   ~~~   **    1) may have a low inlet air dry-bulb temperature. Inlet air temperature = 16.331 C.\n   **   ~~~   **    2) may have a low air flow rate per watt of cooling capacity. Check inputs.\n   **   ~~~   **    3) is used as part of a HX assisted cooling coil which uses a high sensible effectiveness. Check inputs.\n   ** Warning ** Plant Loop: MAIN SERVICE WATER LOOP Demand Side is storing excess heat the majority of the time.\n   ** Warning ** Plant Loop: MAIN SERVICE WATER LOOP Supply Side is storing excess heat the majority of the time.\n   ************* Simulation Error Summary *************\n   ************* There are 9 unused schedules in input.\n   ************* There are 9 unused week schedules in input.\n   ************* There are 18 unused day schedules in input.\n   ************* Use Output:Diagnostics,DisplayUnusedSchedules; to see them.\n   *************\n   ************* ===== Recurring Error Summary =====\n   ************* The following recurring error messages occurred.\n   *************\n   *************  ** Warning ** Plant loop exceeding upper temperature limit, PlantLoop=\"MAIN SERVICE WATER LOOP\"\n   *************  **   ~~~   **   This error occurred 21515 total times;\n   *************  **   ~~~   **   during Warmup 990 times;\n   *************  **   ~~~   **   during Sizing 0 times.\n   *************  **   ~~~   **   Max=82.222222\n   *************\n   *************  ** Warning ** CalcDoe2DXCoil: Coil:Cooling:DX:SingleSpeed=\"COIL COOLING DX SINGLE SPEED 1 32KBTU/HR 14.0SEER\" - Low condenser dry-bulb temperature error continues...\n   *************  **   ~~~   **   This error occurred 338 total times;\n   *************  **   ~~~   **   during Warmup 0 times;\n   *************  **   ~~~   **   during Sizing 0 times.\n   *************  **   ~~~   **   Max=-2.500000E-002 [C]  Min=-32.35 [C]\n   *************\n   *************  ** Warning ** CalcDoe2DXCoil: Coil:Cooling:DX:SingleSpeed=\"COIL COOLING DX SINGLE SPEED 1 32KBTU/HR 14.0SEER\" - Full load outlet temperature indicates a possibility of frost/freeze error continues. Outlet air temperature statistics follow:\n   *************  **   ~~~   **   This error occurred 4 total times;\n   *************  **   ~~~   **   during Warmup 0 times;\n   *************  **   ~~~   **   during Sizing 0 times.\n   *************  **   ~~~   **   Max=1.938458  Min=1.546079\n   *************\n   *************\n   ************* ===== Final Error Summary =====\n   ************* The following error categories occurred.  Consider correcting or noting.\n   ************* Nominally Unused Constructions\n   ************* ..The nominally unused constructions warning is provided to alert you to potential conditions that can cause\n   ************* ..extra time during simulation. Each construction is calculated by the algorithm indicated in the HeatBalanceAlgorithm\n   ************* ..object. You may remove the constructions indicated (when you use the DisplayExtraWarnings option).\n   *************\n   ************* EnergyPlus Warmup Error Summary. During Warmup: 0 Warning; 0 Severe Errors.\n   ************* EnergyPlus Sizing Error Summary. During Sizing: 31 Warning; 0 Severe Errors.\n   ************* EnergyPlus Completed Successfully-- 21903 Warning; 0 Severe Errors; Elapsed Time=00hr 00min 31.90sec\n",
   "file_format_version" : "0.0.1",
   "file_paths" : [ "../weather", "../seeds", "../seed" ],
   "hash" : "DB58DE8E",
   "measure_paths" : [ "../measures" ],
   "name" : "LHS Autogenerated 915",
   "osa_id" : "4fef0e0f-5396-4c55-a6e1-2cd6803db3ab",
   "osd_id" : "3b042f69-6899-442a-9824-133bd6a12f29",
   "run_directory" : "./run",
   "seed_file" : "seed.osm",
   "started_at" : "20170710T192204Z",
   "steps" : [
      {
         "arguments" : {
            "__SKIP__" : false,
            "building_type" : "Warehouse",
            "climate_zone" : "NECB HDD Method",
            "epw_file" : "CAN_MB_Brandon.711400_CWEC.epw",
            "template" : "NECB 2011"
         },
         "measure_dir_name" : "create_prototype_building",
         "name" : "create_prototype_building",
         "result" : {
            "completed_at" : "20170710T192254Z",
            "measure_class_name" : "CreatePrototypeBuilding",
            "measure_display_name" : "Create Prototype Building",
            "measure_name" : "create_prototype_building",
            "measure_taxonomy" : "Whole Building.Space Types",
            "measure_type" : "ModelMeasure",
            "measure_uid" : "ae90fsd7-a651-467a-bc8d-29d310b0f937",
            "measure_version_id" : "c6ec5c18-5595-459f-a082-09a19c8c869c",
            "measure_version_modified" : "20170519T182315Z",
            "measure_xml_checksum" : "057E8D9D",
            "started_at" : "20170710T192206Z",
            "stderr" : "",
            "stdout" : "[OpenStudio.Measure] <0> OSArgumentVector is deprecated, use OpenStudio::Measure::OSArgumentVector instead.\n[openstudio.EpwFile] <0> Successive data points (1988-Jan-31 to 1969-Feb-01, ending on line 753) are greater than 1 day apart in EPW file '/usr/local/bundle/bundler/gems/openstudio-standards-f448df66933d/openstudio-standards/data/weather/CAN_MB_Brandon.711400_CWEC.epw'. Data will be treated as typical (TMY)\n[openstudio.setFileExtension] <0> Path p, '/usr/local/bundle/bundler/gems/openstudio-standards-f448df66933d/openstudio-standards/data/weather/CAN_MB_Brandon.711400_CWEC.ddy', has an unexpected file extension. Was expecting 'idf'.\n[openstudio.model.YearDescription] <1> 'UseWeatherFile' is not yet a supported option for YearDescription\n[openstudio.model.YearDescription] <1> 'UseWeatherFile' is not yet a supported option for YearDescription\n[openstudio.setFileExtension] <0> Path p, '/usr/local/bundle/bundler/gems/openstudio-standards-f448df66933d/openstudio-standards/data/weather/CAN_MB_Brandon.711400_CWEC.ddy', has an unexpected file extension. Was expecting 'idf'.\n[openstudio.model.YearDescription] <1> 'UseWeatherFile' is not yet a supported option for YearDescription\n[openstudio.model.YearDescription] <1> 'UseWeatherFile' is not yet a supported option for YearDescription\n[openstudio.EpwFile] <0> Successive data points (1988-Jan-31 to 1969-Feb-01, ending on line 753) are greater than 1 day apart in EPW file '/usr/local/bundle/bundler/gems/openstudio-standards-f448df66933d/openstudio-standards/data/weather/CAN_MB_Brandon.711400_CWEC.epw'. Data will be treated as typical (TMY)\n[openstudio.weather.Model] <0> Could not find ground temperatures; will use generic temperatures, which will skew results.\n[openstudio.setFileExtension] <0> Path p, '/usr/local/bundle/bundler/gems/openstudio-standards-f448df66933d/openstudio-standards/data/weather/CAN_MB_Brandon.711400_CWEC.ddy', has an unexpected file extension. Was expecting 'idf'.\n[openstudio.model.YearDescription] <1> 'UseWeatherFile' is not yet a supported option for YearDescription\n[openstudio.model.YearDescription] <1> 'UseWeatherFile' is not yet a supported option for YearDescription\n[openstudio.EpwFile] <0> Successive data points (1988-Jan-31 to 1969-Feb-01, ending on line 753) are greater than 1 day apart in EPW file '/usr/local/bundle/bundler/gems/openstudio-standards-f448df66933d/openstudio-standards/data/weather/CAN_MB_Brandon.711400_CWEC.epw'. Data will be treated as typical (TMY)\n[openstudio.setFileExtension] <0> Path p, '/usr/local/bundle/bundler/gems/openstudio-standards-f448df66933d/openstudio-standards/data/weather/CAN_MB_Brandon.711400_CWEC.ddy', has an unexpected file extension. Was expecting 'idf'.\n[openstudio.model.YearDescription] <1> 'UseWeatherFile' is not yet a supported option for YearDescription\n[openstudio.model.YearDescription] <1> 'UseWeatherFile' is not yet a supported option for YearDescription\n[openstudio.setFileExtension] <0> Path p, '/usr/local/bundle/bundler/gems/openstudio-standards-f448df66933d/openstudio-standards/data/weather/CAN_MB_Brandon.711400_CWEC.ddy', has an unexpected file extension. Was expecting 'idf'.\n[openstudio.model.YearDescription] <1> 'UseWeatherFile' is not yet a supported option for YearDescription\n[openstudio.model.YearDescription] <1> 'UseWeatherFile' is not yet a supported option for YearDescription\n[openstudio.EpwFile] <0> Successive data points (1988-Jan-31 to 1969-Feb-01, ending on line 753) are greater than 1 day apart in EPW file '/usr/local/bundle/bundler/gems/openstudio-standards-f448df66933d/openstudio-standards/data/weather/CAN_MB_Brandon.711400_CWEC.epw'. Data will be treated as typical (TMY)\n[openstudio.setFileExtension] <0> Path p, '/usr/local/bundle/bundler/gems/openstudio-standards-f448df66933d/openstudio-standards/data/weather/CAN_MB_Brandon.711400_CWEC.ddy', has an unexpected file extension. Was expecting 'idf'.\n[openstudio.model.YearDescription] <1> 'UseWeatherFile' is not yet a supported option for YearDescription\n[openstudio.model.YearDescription] <1> 'UseWeatherFile' is not yet a supported option for YearDescription\n[openstudio.setFileExtension] <0> Path p, '/usr/local/bundle/bundler/gems/openstudio-standards-f448df66933d/openstudio-standards/data/weather/CAN_MB_Brandon.711400_CWEC.ddy', has an unexpected file extension. Was expecting 'idf'.\n[openstudio.model.YearDescription] <1> 'UseWeatherFile' is not yet a supported option for YearDescription\n[openstudio.model.YearDescription] <1> 'UseWeatherFile' is not yet a supported option for YearDescription\n[utilities.idf.WorkspaceObject] <0> Object of type 'Schedule:Constant' and named 'Always Off Discrete', points to an object named OnOff 1 from field 1, but that object cannot be located.\n[utilities.idf.WorkspaceObject] <0> Object of type 'Schedule:Constant' and named 'Always On Continuous', points to an object named Fractional 1 from field 1, but that object cannot be located.\n[utilities.idf.WorkspaceObject] <0> Object of type 'Schedule:Constant' and named 'Always Off Discrete', points to an object named OnOff 1 from field 1, but that object cannot be located.\n[utilities.idf.WorkspaceObject] <0> Object of type 'Schedule:Constant' and named 'Always On Continuous', points to an object named Fractional 1 from field 1, but that object cannot be located.\n[openstudio.standards.Fan] <0> For Fan Constant Volume 1, there is no greater nominal HP.  Use the efficiency of the largest motor category.\n[openstudio.standards.Fan] <0> For Fan Constant Volume 2, there is no greater nominal HP.  Use the efficiency of the largest motor category.\n[openstudio.standards.Fan] <0> For Fan Constant Volume 3, there is no greater nominal HP.  Use the efficiency of the largest motor category.\n[openstudio.EpwFile] <0> Successive data points (1988-Jan-31 to 1969-Feb-01, ending on line 753) are greater than 1 day apart in EPW file '/usr/local/bundle/bundler/gems/openstudio-standards-f448df66933d/openstudio-standards/data/weather/CAN_MB_Brandon.711400_CWEC.epw'. Data will be treated as typical (TMY)\n[openstudio.setFileExtension] <0> Path p, '/usr/local/bundle/bundler/gems/openstudio-standards-f448df66933d/openstudio-standards/data/weather/CAN_MB_Brandon.711400_CWEC.ddy', has an unexpected file extension. Was expecting 'idf'.\n[openstudio.model.YearDescription] <1> 'UseWeatherFile' is not yet a supported option for YearDescription\n[openstudio.model.YearDescription] <1> 'UseWeatherFile' is not yet a supported option for YearDescription\n[openstudio.setFileExtension] <0> Path p, '/usr/local/bundle/bundler/gems/openstudio-standards-f448df66933d/openstudio-standards/data/weather/CAN_MB_Brandon.711400_CWEC.ddy', has an unexpected file extension. Was expecting 'idf'.\n[openstudio.model.YearDescription] <1> 'UseWeatherFile' is not yet a supported option for YearDescription\n[openstudio.model.YearDescription] <1> 'UseWeatherFile' is not yet a supported option for YearDescription\n[openstudio.EpwFile] <0> Successive data points (1988-Jan-31 to 1969-Feb-01, ending on line 753) are greater than 1 day apart in EPW file '/usr/local/bundle/bundler/gems/openstudio-standards-f448df66933d/openstudio-standards/data/weather/CAN_MB_Brandon.711400_CWEC.epw'. Data will be treated as typical (TMY)\n[openstudio.setFileExtension] <0> Path p, '/usr/local/bundle/bundler/gems/openstudio-standards-f448df66933d/openstudio-standards/data/weather/CAN_MB_Brandon.711400_CWEC.ddy', has an unexpected file extension. Was expecting 'idf'.\n[openstudio.model.YearDescription] <1> 'UseWeatherFile' is not yet a supported option for YearDescription\n[openstudio.model.YearDescription] <1> 'UseWeatherFile' is not yet a supported option for YearDescription\n[openstudio.setFileExtension] <0> Path p, '/usr/local/bundle/bundler/gems/openstudio-standards-f448df66933d/openstudio-standards/data/weather/CAN_MB_Brandon.711400_CWEC.ddy', has an unexpected file extension. Was expecting 'idf'.\n[openstudio.model.YearDescription] <1> 'UseWeatherFile' is not yet a supported option for YearDescription\n[openstudio.model.YearDescription] <1> 'UseWeatherFile' is not yet a supported option for YearDescription\n[openstudio.EpwFile] <0> Successive data points (1988-Jan-31 to 1969-Feb-01, ending on line 753) are greater than 1 day apart in EPW file '/usr/local/bundle/bundler/gems/openstudio-standards-f448df66933d/openstudio-standards/data/weather/CAN_MB_Brandon.711400_CWEC.epw'. Data will be treated as typical (TMY)\n[openstudio.setFileExtension] <0> Path p, '/usr/local/bundle/bundler/gems/openstudio-standards-f448df66933d/openstudio-standards/data/weather/CAN_MB_Brandon.711400_CWEC.ddy', has an unexpected file extension. Was expecting 'idf'.\n[openstudio.model.YearDescription] <1> 'UseWeatherFile' is not yet a supported option for YearDescription\n[openstudio.model.YearDescription] <1> 'UseWeatherFile' is not yet a supported option for YearDescription\n[openstudio.setFileExtension] <0> Path p, '/usr/local/bundle/bundler/gems/openstudio-standards-f448df66933d/openstudio-standards/data/weather/CAN_MB_Brandon.711400_CWEC.ddy', has an unexpected file extension. Was expecting 'idf'.\n[openstudio.model.YearDescription] <1> 'UseWeatherFile' is not yet a supported option for YearDescription\n[openstudio.model.YearDescription] <1> 'UseWeatherFile' is not yet a supported option for YearDescription\n[openstudio.standards.Fan] <0> For Fan Constant Volume 1, there is no greater nominal HP.  Use the efficiency of the largest motor category.\n[openstudio.standards.Fan] <0> For Fan Constant Volume 2, there is no greater nominal HP.  Use the efficiency of the largest motor category.\n[openstudio.standards.Fan] <0> For Fan Constant Volume 3, there is no greater nominal HP.  Use the efficiency of the largest motor category.\n",
            "step_errors" : [],
            "step_files" : [],
            "step_info" : [
               "Started adding geometry",
               "Finished adding geometry",
               "Started adding weather file for climate zone: NECB HDD Method.",
               "Template =",
               "Setting Zone3 Bulk Storage to Space Function.Warehouse - med/blk",
               "Setting Zone2 Fine Storage to Space Function.Warehouse - fine",
               "Setting Zone1 Office to Space Function.Office - enclosed",
               "Started applying space types (loads)",
               "Space Function Office - enclosed had no people, one has been created.",
               "Space Function Office - enclosed set occupancy to 4.65 people/1000 ft^2.",
               "Space Function Office - enclosed had no lights, one has been created.",
               "Space Function Office - enclosed set LPD to 1.105536975 W/ft^2.",
               "Space Function Office - enclosed had no electric equipment, one has been created.",
               "Space Function Office - enclosed set electric EPD to 0.696767001 W/ft^2.",
               "Space Function Office - enclosed had no ventilation specification, one has been created.",
               "Space Function Office - enclosed set ventilation per area to 0.085 cfm/ft^2.",
               "Space Function Office - enclosed had no infiltration objects, one has been created.",
               "Space Function Office - enclosed set infiltration to 0.0 per ft^2 exterior surface area.",
               "Space Function Office - enclosed set occupancy schedule to NECB-A-Occupancy.",
               "Space Function Office - enclosed set occupant activity schedule to NECB-Activity.",
               "Space Function Office - enclosed set lighting schedule to NECB-A-Lighting.",
               "Space Function Office - enclosed set electric equipment schedule to NECB-A-Electric-Equipment.",
               "Space Function Office - enclosed set infiltration schedule to Always On.",
               "Space Function Office - enclosed set heating setpoint schedule to NECB-A-Thermostat Setpoint-Heating.",
               "Space Function Office - enclosed set cooling setpoint schedule to NECB-A-Thermostat Setpoint-Cooling.",
               "Space Function Warehouse - fine had no people, one has been created.",
               "Space Function Warehouse - fine set occupancy to 1.86 people/1000 ft^2.",
               "Space Function Warehouse - fine had no lights, one has been created.",
               "Space Function Warehouse - fine set LPD to 0.947603122 W/ft^2.",
               "Space Function Warehouse - fine had no electric equipment, one has been created.",
               "Space Function Warehouse - fine set electric EPD to 0.092902267 W/ft^2.",
               "Space Function Warehouse - fine had no ventilation specification, one has been created.",
               "Space Function Warehouse - fine set ventilation per area to 0.06 cfm/ft^2.",
               "Space Function Warehouse - fine had no infiltration objects, one has been created.",
               "Space Function Warehouse - fine set infiltration to 0.0 per ft^2 exterior surface area.",
               "Space Function Warehouse - fine set occupancy schedule to NECB-A-Occupancy.",
               "Space Function Warehouse - fine set occupant activity schedule to NECB-Activity.",
               "Space Function Warehouse - fine set lighting schedule to NECB-A-Lighting.",
               "Space Function Warehouse - fine set electric equipment schedule to NECB-A-Electric-Equipment.",
               "Space Function Warehouse - fine set infiltration schedule to Always On.",
               "Space Function Warehouse - fine set heating setpoint schedule to NECB-A-Thermostat Setpoint-Heating.",
               "Space Function Warehouse - fine set cooling setpoint schedule to NECB-A-Thermostat Setpoint-Cooling.",
               "Space Function Warehouse - med/blk had no people, one has been created.",
               "Space Function Warehouse - med/blk set occupancy to 0.93 people/1000 ft^2.",
               "Space Function Warehouse - med/blk had no lights, one has been created.",
               "Space Function Warehouse - med/blk set LPD to 0.594574508 W/ft^2.",
               "Space Function Warehouse - med/blk had no electric equipment, one has been created.",
               "Space Function Warehouse - med/blk set electric EPD to 0.092902267 W/ft^2.",
               "Space Function Warehouse - med/blk had no ventilation specification, one has been created.",
               "Space Function Warehouse - med/blk set ventilation per area to 0.06 cfm/ft^2.",
               "Space Function Warehouse - med/blk had no infiltration objects, one has been created.",
               "Space Function Warehouse - med/blk set infiltration to 0.0 per ft^2 exterior surface area.",
               "Space Function Warehouse - med/blk set occupancy schedule to NECB-A-Occupancy.",
               "Space Function Warehouse - med/blk set occupant activity schedule to NECB-Activity.",
               "Space Function Warehouse - med/blk set lighting schedule to NECB-A-Lighting.",
               "Space Function Warehouse - med/blk set electric equipment schedule to NECB-A-Electric-Equipment.",
               "Space Function Warehouse - med/blk set infiltration schedule to Always On.",
               "Space Function Warehouse - med/blk set heating setpoint schedule to NECB-A-Thermostat Setpoint-Heating.",
               "Space Function Warehouse - med/blk set cooling setpoint schedule to NECB-A-Thermostat Setpoint-Cooling.",
               "Finished applying space types (loads)",
               "Started applying constructions",
               "Adding construction set: NECB 2011-NECB HDD Method-Warehouse--is_residentialNo",
               "Adding construction Typical Insulated Exterior Mass Floor R-15.63.",
               "Adding construction Typical Insulated Exterior Mass Wall R-12.5.",
               "Adding construction Typical Insulated Metal Building Roof R-20.41.",
               "Adding construction Typical Interior Floor.",
               "Adding construction Typical Interior Wall.",
               "Adding construction Typical Interior Ceiling.",
               "Adding construction Typical Insulated Carpeted 6in Slab Floor.",
               "Adding construction U 0.55 SHGC 0.31 Dbl Ref-D Tint 6mm/6mm Air.",
               "Adding construction Typical Insulated Metal Door R-1.43.",
               "Adding construction U 0.35 SHGC 0.35 Dbl LoE (e2-.1) Tint 6mm/13mm Air.",
               "Adding construction Typical Overhead Door R-2.0.",
               "Adding construction U 0.48 SHGC 0.40 Dbl Ref-D Clr 6mm/13mm.",
               "Adding construction Typical Interior Window.",
               "Adding construction Typical Interior Door.",
               "Adding construction Typical Interior Partition.",
               "Finished applying constructions",
               "WWR NonRes = 0%; window = 0 ft2, wall = 0 ft2.",
               "WWR Res = 0%; window = 0 ft2, wall = 0 ft2.",
               "WWR Semiheated = 0%; window = 0 ft2, wall = 0 ft2.",
               "The skylight to roof ratios (SRRs) are: NonRes: 2%, Res: 0%.",
               "Started creating thermal zones",
               "Finished creating thermal zones",
               "Running simulation /mnt/openstudio/analysis_4fef0e0f-5396-4c55-a6e1-2cd6803db3ab/data_point_3b042f69-6899-442a-9824-133bd6a12f29/run/000_create_prototype_building/output/Warehouse-NECB 2011-NECB HDD Method-CAN_MB_Brandon.711400_CWEC.epw/SR0.",
               "Finished run.",
               "Started Adding HVAC",
               "Finished adding HVAC",
               "Started Adding Service Water Heating",
               "Adding service water loop.",
               "Adding water heater.",
               "Template =",
               "Finished adding Service Water Heating",
               "Set sizing factors to 1.3 for heating and 1.3 for cooling.",
               "Running simulation /mnt/openstudio/analysis_4fef0e0f-5396-4c55-a6e1-2cd6803db3ab/data_point_3b042f69-6899-442a-9824-133bd6a12f29/run/000_create_prototype_building/output/Warehouse-NECB 2011-NECB HDD Method-CAN_MB_Brandon.711400_CWEC.epw/SR1.",
               "Finished run.",
               "Started applying multizone vav OA sizing.",
               "Finished applying multizone vav OA sizing.",
               "Started applying prototype HVAC assumptions.",
               "For Fan Constant Volume 1: allowed_hp = 1.01HP; motor eff = 61.5%; total fan eff = 40% based on 1182 cfm.",
               "For Fan Constant Volume 2: allowed_hp = 11.03HP; motor eff = 61.5%; total fan eff = 40% based on 16127 cfm.",
               "For Fan Constant Volume 3: allowed_hp = 4.13HP; motor eff = 61.5%; total fan eff = 40% based on 6032 cfm.",
               "Sp-Zone2 Fine Storage Sys-4 Flr-1 Sch-A HPlcmt-south ZN NECB System 4 PSZ requires an economizer because the total cooling capacity of 163682 Btu/hr exceeds the minimum capacity of 68243 Btu/hr.",
               "Sp-Zone1 Office Sys-3 Flr-1 Sch-A HPlcmt-south ZN NECB System 3 PSZ does not require an economizer because the total cooling capacity of 31923 Btu/hr is less than the minimum capacity of 68243 Btu/hr.",
               "Sp-Zone3 Bulk Storage Sys-4 Flr-1 Sch-A HPlcmt-east ZN NECB System 4 PSZ requires an economizer because the total cooling capacity of 448255 Btu/hr exceeds the minimum capacity of 68243 Btu/hr.",
               "Finished applying prototype HVAC assumptions.",
               "Started applying HVAC efficiency standards.",
               "For Sp-Zone1 Office Sys-3 Flr-1 Sch-A HPlcmt-south ZN NECB System 3 PSZ, ERV not required based on 0% OA flow, design supply air flow of 1182cfm, and climate zone NECB HDD Method.",
               "For Sp-Zone1 Office Sys-3 Flr-1 Sch-A HPlcmt-south ZN NECB System 3 PSZ, ERV not required based on exhaust heat content.",
               "For NECB 2011 NECB HDD Method:  Sp-Zone1 Office Sys-3 Flr-1 Sch-A HPlcmt-south ZN NECB System 3 PSZ: DCV is not required for any system.",
               "For Sp-Zone1 Office Sys-3 Flr-1 Sch-A HPlcmt-south ZN NECB System 3 PSZ: Annual occupied hours = 2860 hr/yr, assuming a 0.15 occupancy threshold.  This schedule will be used as the HVAC operation schedule.",
               "For Sp-Zone1 Office Sys-3 Flr-1 Sch-A HPlcmt-south ZN NECB System 3 PSZ: Setting motorized OA damper schedule to Sp-Zone1 Office Sys-3 Flr-1 Sch-A HPlcmt-south ZN NECB System 3 PSZ Occ Sch.",
               "For Sp-Zone2 Fine Storage Sys-4 Flr-1 Sch-A HPlcmt-south ZN NECB System 4 PSZ, ERV not required based on 0% OA flow, design supply air flow of 6032cfm, and climate zone NECB HDD Method.",
               "For Sp-Zone2 Fine Storage Sys-4 Flr-1 Sch-A HPlcmt-south ZN NECB System 4 PSZ, ERV not required based on exhaust heat content.",
               "For NECB 2011 NECB HDD Method:  Sp-Zone2 Fine Storage Sys-4 Flr-1 Sch-A HPlcmt-south ZN NECB System 4 PSZ: DCV is not required for any system.",
               "For Sp-Zone2 Fine Storage Sys-4 Flr-1 Sch-A HPlcmt-south ZN NECB System 4 PSZ: Annual occupied hours = 2860 hr/yr, assuming a 0.15 occupancy threshold.  This schedule will be used as the HVAC operation schedule.",
               "For Sp-Zone2 Fine Storage Sys-4 Flr-1 Sch-A HPlcmt-south ZN NECB System 4 PSZ: Because the system has an economizer, it requires a motorized OA damper.",
               "For Sp-Zone2 Fine Storage Sys-4 Flr-1 Sch-A HPlcmt-south ZN NECB System 4 PSZ: Setting motorized OA damper schedule to Sp-Zone2 Fine Storage Sys-4 Flr-1 Sch-A HPlcmt-south ZN NECB System 4 PSZ Occ Sch.",
               "For Sp-Zone3 Bulk Storage Sys-4 Flr-1 Sch-A HPlcmt-east ZN NECB System 4 PSZ, ERV not required based on 0% OA flow, design supply air flow of 16127cfm, and climate zone NECB HDD Method.",
               "For Sp-Zone3 Bulk Storage Sys-4 Flr-1 Sch-A HPlcmt-east ZN NECB System 4 PSZ, ERV not required based on exhaust heat content.",
               "For NECB 2011 NECB HDD Method:  Sp-Zone3 Bulk Storage Sys-4 Flr-1 Sch-A HPlcmt-east ZN NECB System 4 PSZ: DCV is not required for any system.",
               "For Sp-Zone3 Bulk Storage Sys-4 Flr-1 Sch-A HPlcmt-east ZN NECB System 4 PSZ: Annual occupied hours = 2860 hr/yr, assuming a 0.15 occupancy threshold.  This schedule will be used as the HVAC operation schedule.",
               "For Sp-Zone3 Bulk Storage Sys-4 Flr-1 Sch-A HPlcmt-east ZN NECB System 4 PSZ: Because the system has an economizer, it requires a motorized OA damper.",
               "For Sp-Zone3 Bulk Storage Sys-4 Flr-1 Sch-A HPlcmt-east ZN NECB System 4 PSZ: Setting motorized OA damper schedule to Sp-Zone3 Bulk Storage Sys-4 Flr-1 Sch-A HPlcmt-east ZN NECB System 4 PSZ Occ Sch.",
               "For Fan Constant Volume 1: motor nameplate = 0.7360943695294636HP, motor eff = 61.5%.",
               "For Fan Constant Volume 2: motor nameplate = 10HP, motor eff = 61.5%.",
               "For Fan Constant Volume 3: motor nameplate = 4HP, motor eff = 61.5%.",
               "For Service Water Loop Pump: brake hp = 0.0HP, motor nameplate = 0.1HP, motor eff = 70.0%.",
               "For NECB 2011: Coil Cooling DX Single Speed 1: AirCooled Electric Resistance or None Single Package Capacity = 32kBtu/hr; SEER = 14.0",
               "For NECB 2011: Coil Cooling DX Single Speed 2: AirCooled Electric Resistance or None Single Package Capacity = 448kBtu/hr; EER = 8.39",
               "For NECB 2011: Coil Cooling DX Single Speed 3: AirCooled Electric Resistance or None Single Package Capacity = 164kBtu/hr; EER = 9.7",
               "For NECB 2011: 40.0gal Electricity Water Heater - 40kBtu/hr 1.0 Therm Eff; thermal efficiency = 1.0, skin-loss UA = 3Btu/hr",
               "Finished applying HVAC efficiency standards.",
               "Started adding daylighting controls.",
               "Finished adding daylighting controls.",
               "Total Time = 48sec."
            ],
            "step_result" : "Success",
            "step_values" : [
               {
                  "name" : "building_type",
                  "value" : "Warehouse"
               },
               {
                  "name" : "template",
                  "value" : "NECB 2011"
               },
               {
                  "name" : "climate_zone",
                  "value" : "NECB HDD Method"
               },
               {
                  "name" : "epw_file",
                  "value" : "CAN_MB_Brandon.711400_CWEC.epw"
               }
            ],
            "step_warnings" : [
               "[openstudio.EpwFile] Successive data points (1988-Jan-31 to 1969-Feb-01, ending on line 753) are greater than 1 day apart in EPW file '/usr/local/bundle/bundler/gems/openstudio-standards-f448df66933d/openstudio-standards/data/weather/CAN_MB_Brandon.711400_CWEC.epw'. Data will be treated as typical (TMY)",
               "[openstudio.EpwFile] Successive data points (1988-Jan-31 to 1969-Feb-01, ending on line 753) are greater than 1 day apart in EPW file '/usr/local/bundle/bundler/gems/openstudio-standards-f448df66933d/openstudio-standards/data/weather/CAN_MB_Brandon.711400_CWEC.epw'. Data will be treated as typical (TMY)",
               "[openstudio.weather.Model] Could not find ground temperatures; will use generic temperatures, which will skew results.",
               "[openstudio.EpwFile] Successive data points (1988-Jan-31 to 1969-Feb-01, ending on line 753) are greater than 1 day apart in EPW file '/usr/local/bundle/bundler/gems/openstudio-standards-f448df66933d/openstudio-standards/data/weather/CAN_MB_Brandon.711400_CWEC.epw'. Data will be treated as typical (TMY)",
               "[openstudio.EpwFile] Successive data points (1988-Jan-31 to 1969-Feb-01, ending on line 753) are greater than 1 day apart in EPW file '/usr/local/bundle/bundler/gems/openstudio-standards-f448df66933d/openstudio-standards/data/weather/CAN_MB_Brandon.711400_CWEC.epw'. Data will be treated as typical (TMY)",
               "[openstudio.standards.Fan] For Fan Constant Volume 1, there is no greater nominal HP.  Use the efficiency of the largest motor category.",
               "[openstudio.standards.Fan] For Fan Constant Volume 2, there is no greater nominal HP.  Use the efficiency of the largest motor category.",
               "[openstudio.standards.Fan] For Fan Constant Volume 3, there is no greater nominal HP.  Use the efficiency of the largest motor category.",
               "[openstudio.EpwFile] Successive data points (1988-Jan-31 to 1969-Feb-01, ending on line 753) are greater than 1 day apart in EPW file '/usr/local/bundle/bundler/gems/openstudio-standards-f448df66933d/openstudio-standards/data/weather/CAN_MB_Brandon.711400_CWEC.epw'. Data will be treated as typical (TMY)",
               "[openstudio.EpwFile] Successive data points (1988-Jan-31 to 1969-Feb-01, ending on line 753) are greater than 1 day apart in EPW file '/usr/local/bundle/bundler/gems/openstudio-standards-f448df66933d/openstudio-standards/data/weather/CAN_MB_Brandon.711400_CWEC.epw'. Data will be treated as typical (TMY)",
               "[openstudio.EpwFile] Successive data points (1988-Jan-31 to 1969-Feb-01, ending on line 753) are greater than 1 day apart in EPW file '/usr/local/bundle/bundler/gems/openstudio-standards-f448df66933d/openstudio-standards/data/weather/CAN_MB_Brandon.711400_CWEC.epw'. Data will be treated as typical (TMY)",
               "[openstudio.standards.Fan] For Fan Constant Volume 1, there is no greater nominal HP.  Use the efficiency of the largest motor category.",
               "[openstudio.standards.Fan] For Fan Constant Volume 2, there is no greater nominal HP.  Use the efficiency of the largest motor category.",
               "[openstudio.standards.Fan] For Fan Constant Volume 3, there is no greater nominal HP.  Use the efficiency of the largest motor category."
            ]
         }
      },
      {
         "arguments" : {
            "__SKIP__" : false
         },
         "measure_dir_name" : "view_model",
         "name" : "view_model",
         "result" : {
            "completed_at" : "20170710T192255Z",
            "measure_class_name" : "ViewModel",
            "measure_display_name" : "ViewModel",
            "measure_name" : "view_model",
            "measure_taxonomy" : "Reporting.QAQC",
            "measure_type" : "ModelMeasure",
            "measure_uid" : "f4669f10-fda5-489d-8e1c-7ca3c2d40378",
            "measure_version_id" : "f4975c5f-7c25-42a2-927b-02d99b4427ef",
            "measure_version_modified" : "20170526T150340Z",
            "measure_xml_checksum" : "1E1F8B97",
            "started_at" : "20170710T192254Z",
            "stderr" : "",
            "stdout" : "[OpenStudio.Measure] <0> OSArgumentVector is deprecated, use OpenStudio::Measure::OSArgumentVector instead.\n",
            "step_errors" : [],
            "step_files" : [
               "/mnt/openstudio/analysis_4fef0e0f-5396-4c55-a6e1-2cd6803db3ab/data_point_3b042f69-6899-442a-9824-133bd6a12f29/run/001_view_model/report.html",
               "/mnt/openstudio/analysis_4fef0e0f-5396-4c55-a6e1-2cd6803db3ab/data_point_3b042f69-6899-442a-9824-133bd6a12f29/run/001_view_model/report.json"
            ],
            "step_final_condition" : "Report written to <a href='file:////mnt/openstudio/analysis_4fef0e0f-5396-4c55-a6e1-2cd6803db3ab/data_point_3b042f69-6899-442a-9824-133bd6a12f29/run/001_view_model/report.html'>report.html</a>.",
            "step_info" : [ "No changes made to the model." ],
            "step_result" : "NA",
            "step_values" : [
               {
                  "name" : "view_model_html_zip",
[...]
MOZN6zYM7md9N3ZTLxQxBLu1lbFDqut76ZpvHyFzO5AcyfxwhdHfackXYj3rgi8nhuOp1FsPb7sRFPjKgrT3h33J9NUaFxGgaeusbw6v52evOod9z5OeXwTJambsjOeziI/E37L3dQPJy+2yq7Xy+1kHPuz9F/S77zc9vzbrw9L95GLZVrM946ssQjnk+z4XT/k8YW9Z7H8pBxZnp/MAndx6IfifTi9yyAaf/7JkvNlostDYOlilu0vzsv2tXvrLj8t3VNs+Ut6bifsaPUunpDfnd1OOtYPzxm7bEe82ib7UTmTnrzQ5fyvt0R90cpP9h5Ve5i/A2wslh/xxqdlt7+1902VKDlkSkMypR0ypRGZ0i6Z0h6Z0j6Z0gGZ0trLNw2l6KLcpgtzmy7ObbpAt+ki3aYLdZsu1m26YLfpot2hi3aHcE2ni3aHLtodzWh/3nhJMQPG3NMQKjlXekIlZ0pPqOQ86QmVrAl6QiUrgp5QyXqgJ1SyGugJlawFekJliU9TiSy2y9KephJZdJclPU0lsvguS3maSmQRXpbwNJXIYrws3Wkq0a3fZDFelus0lXRi/FnjC8U0J3pjaCiVnCZNpZLTpKlUcpo0lUqWAk2lkqVAU6lkKdBUKlkKNJVKlgJNpbJ8pytFF+VlGU9Xii7Oy3KerhRdpJdlPV0pulgvy3u6UnTRXpb5dKUI13S6aC9LfrpSldGOl9HjZfSFkMJueBn9sw0vo1fBwsvo8TL6OhteRi82vIweL6PPN7yMvvybeBl9tYDY8DL6zXhnI3CAAxzgAAc4wAEOcIADHOBsPM539ipH0IAGNKABDWhAAxrQgAY0oNkcmu/rnY3AAQ5wgAMc4AAHOMABDnCA813hfMPmbMfj1L/108U7fssD1vkP2rN9j+3Ziou0GZ3Y9jegE9t+a53YBv3BiKQRm5HQkEpoh0poRCW0SyW0RyW0TyV0QCW09ly+mRJZbNtkwW2TRbdNFt42WXzbZAFuk0W4TRbiNlmMO2Qx7tCt32Qx7pDFuKMX4+od19a16jdcM9GRn6X67dZMdOSrQP1mayY68hWgfqs1Ex357DdotGYkRBXRJenNoMuakRBVUJfkNoMWa0ZCVHFdktgM+qsZrYxUkV2S1QyaqxkJUUV2SUqr31ltXcegsZqRkPwUGbRVMxKST36DpmpGQvLJb9BSzUhIPvlNGqqZKZHFdklmM+mmZqZEFt4lyc2klZqZElmEl+Q3kz5qZmslWYyXpDiTJmpmSmQxXpLl0EENHdTQQe0ZITqoiQ0d1NBBDR3USjZ0UEMHNa2jQge1NX+N76OD2tMNHdQetwZu2PrOGg0ABzjAAQ5wgAMc4AAHOMABzsbjfGf9B0ADGtCABjSgAQ1oQAMa0IBmc2j+Nn0PgAMc4AAHOMABDnCAAxzgAKe+3zfooIaGad9Vw7Sz8ZR78+wsi8ehEp4ye7AZbdMONqBt2kFrbdN284dC67a4oRIaUgntUAmNqIR2qYT2qIT2qYQOqITWnr43UyKLbZssuG2y6LbJwtsmi2+bLMBtsgi3yULcJotxhyzGHbr1myzGHbIYd/RiXL1t2rpW/bZpJjrys1S/bZqJjnwVqN82zURHvgLUb5tmoiOf/QZt04yEqCK6JL0ZtE0zEqIK6pLcZtA2zUiIKq5LEptB2zSjlZEqskuymkHbNCMhqsguSWn126at6xi0TTMSkp8ig7ZpRkLyyW/QNs1ISD75DdqmGQnJJ79J2zQzJbLYLslsJm3TzJTIwrskuZm0TTNTIovwkvxm0jbNbK0ki/GSFGfSNs1MiSzGS7Ic2qahbRrapj0jRNs0saFtGtqmoW1ayYa2aWibpnVUaJu25q/xfbRNe7qhbdrj1sBdWt9ZdwHgAAc4wAEOcIADHOAABzjA2Xic76zpAGhAAxrQgAY0oAENaEADGtBsDs3fptkBcIADHOAABzjAAQ5wgAMc4NT3Q9u0YkPbtMe2afZGtE1zBt9/27SMsa22aYO+Q9I1zURnSKSzQ6QzItLZJdLZI9LZJ9I5INJZe+jeSIgqom2qkLapYtqmCmqbKqptqrC2qeLapgpsmyqyHarIdsjWaqrIdqgi29GKbPX2aGtS9bujGchIz1D93mgGMtJ5X78zmoGMdM7X74tmICOd7wZd0Ux0iOJYnsYMWqKZ6BCFsjyHGfRDM9EhimZ5AjNohmayDhLFszx7GXRCM9Ehimd56qrfBm1NxqALmomO9PQY9EAz0ZFOd4MOaCY60ulu0P/MREc63U26nxkJUUW0PIOZtD4zEqIKankSM+l7ZiREFdfyPGbS9MxoZaSKbHkqM+l4ZiREFdnybIZ2Z2h3hnZnzwjR7kxsaHeGdmdod1ayod0Z2p1pHRXana35a3wf7c6ebmh39rg1cHfVd9YVADjAAQ5wgAMc4AAHOMABDnA2Huc7axYAGtCABjSgAQ1oQAMa0IAGNJtD87dpUgAc4AAHOMABDnCAAxzgAAc49f3Q7qzY0O5s1e5suBndzuwN6HZmt9jtbDAiandmIDSkEtqhEhpRCe1SCe1RCe1TCR1QCX3xtL2JElls22TBbZNFt00W3jZZfNtkAW6TRbhNFuI2WYw7ZDHu0K3fZDHukMW4oxfjOl3QnmqZtEGrryM/SyaN0OrryFcBk1Zo9XXkK4BJM7T6OvLZb9QOzUCIKqJL0ptRRzQDIaqgLsltRk3RDISo4roksRn1RTNYGakiuySrGbVGMxCiiuySlGbSHe2pjlF7NAMh+SkyapBmICSf/EYt0gyE5JPfqEmagZB88pu1STNRIovtksxm1inNRIksvEuSm1mzNBMlsggvyW9m/dJM1kqyGC9JcWYt00yUyGK8JMuhaxq6pqFr2jNCdE0TG7qmoWsauqaVbOiahq5pWkeFrmlr/hrfR9e0pxu6pj1uDdyk9Z01FwAOcIADHOAABzjAAQ5wgAOcjcf5znoOgAY0oAENaEADGtCABjSgAc3m0Pxteh0ABzjAAQ5wgAMc4AAHOMABTn0/dE0rNnRNW3VN29mMrmnOBnRNc1rrmrabPxNat8MNldCQSmiHSmhEJbRLJbRHJbRPJXRAJbT28L2ZElls22TBbZNFt00W3jZZfNtkAW6TRbhNFuI2WYw7ZDHu0K3fZDHukMW4oxfj6l3T1rXqd00z0ZGfpfpd00x05KtA/a5pJjryFaB+1zQTHfnsN+iaZiREFdEl6c2ga5qREFVQl+Q2g65pRkJUcV2S2Ay6phmtjFSRXZLVDLqmGQlRRXZJSqvfNW1dx6BrmpGQ/BQZdE0zEpJPfoOuaUZC8slv0DXNSEg++U26ppkpkcV2SWYz6ZpmpkQW3iXJzaRrmpkSWYSX5DeTrmlmayVZjJekOJOuaWZKZDFekuXQNQ1d09A17RkhuqaJDV3T0DUNXdNKNnRNQ9c0raNC17Q1f43vo2va0w1d0x63Bm7S+s6aCwAHOMABDnCAAxzgAAc4wAHOxuN8Zz0HQAMa0IAGNKABDWhAAxrQgGZzaP42vQ6AAxzgAAc4wAEOcIADHOAAp74fuqYVG7qmrbqmjTaja9pwA7qmDVvrmjboOyRN00x0hkQ6O0Q6IyKdXSKdPSKdfSKdAyKdtWfujYSoItqmCmmbKqZtqqC2qaLapgprmyqubarAtqki26GKbIdsraaKbIcqsh2tyFbvjrYmVb85moGM9AzVb41mICOd9/UboxnISOd8/bZoBjLS+W7QFM1EhyiO5WnMoCOaiQ5RKMtzmEE7NBMdomiWJzCDXmgm6yBRPMuzl0EjNBMdoniWp676XdDWZAyaoJnoSE+PQQs0Ex3pdDdogGaiI53uBu3PTHSk092k+ZmREFVEyzOYSeczIyGqoJYnMZO2Z0ZCVHEtz2MmPc+MVkaqyJanMpOGZ0ZCVJEtz2bodoZuZ+h29owQ3c7Ehm5n6HaGbmclG7qdoduZ1lGh29mav8b30e3s6YZuZ49bAzdXfWdNAYADHOAABzjAAQ5wgAMc4ABn43G+s14BoAENaEADGtCABjSgAQ1oQLM5NH+bHgXAAQ5wgAMc4AAHOMABDnCAU98P3c6KDd3OVt3Odjej29nOBnQ722mx29lgRNTuzEBoSCW0QyU0ohLapRLaoxLapxI6oBL64ml7EyWy2LbJgtsmi26bLLxtsvi2yQLcJotwmyzEbbIYd8hi3KFbv8li3CGLcUcvxnW6oD3VMmmDVl9HfpZMGqHV15GvAiat0OrryFcAk2Zo9XXks9+oHZqBEFVEl6Q3o45oBkJUQV2S24yaohkIUcV1SWIz6otmsDJSRXZJVjNqjWYgRBXZJSnNpDvaUx2j9mgGQvJTZNQgzUBIPvmNWqQZCMknv1GTNAMh+eQ3a5NmokQW2yWZzaxTmokSWXiXJDezZmkmSmQRXpLfzPqlmayVZDFekuLMWqaZKJHFeEmWQ9c0dE1D17RnhOiaJjZ0TUPXNHRNK9nQNQ1d07SOCl3T1vw1vo+uaU83dE173Bq4Ses7ay4AHOAABzjAAQ5wgAMc4AAHOBuP8531HAANaEADGtCABjSgAQ1oQAOazaH52/Q6AA5wgAMc4AAHOMABDnCAA5z6fuiaVmzomrbqmra3GV3TRhvQNW3UWte03fyZ0LodbqiEhlRCO1RCIyqhXSqhPSqhfSqhAyqhtYfvzZTIYtsmC26bLLptsvC2yeLbJgtwmyzCbbIQt8li3CGLcYdu/SaLcYcsxh29GFfvmrauVb9rmomO/CzV75pmoiNfBep3TTPRka8A9bummejIZ79B1zQjIaqILklvBl3TjISogroktxl0TTMSoorrksRm0DXNaGWkiuySrGbQNc1IiCqyS1Ja/a5p6zoGXdOMhOSnyKBrmpGQfPIbdE0zEpJPfoOuaUZC8slv0jXNTIkstksym0nXNDMlsvAuSW4mXdPMlMgivCS/mXRNM1sryWK8JMWZdE0zUyKL8ZIsh65p6JqGrmnPCNE1TWzomoauaeiaVrKhaxq6pmkdFbqmrflrfB9d055u6Jr2uDVwk9Z31lwAOMABDnCAAxzgAAc4wAEOcDYe5zvrOQAa0IAGNKABDWhAAxrQgAY0m0Pzt+l1ABzgAAc4wAEOcIADHOAABzj1/dA1rdjQNW3VNW1/M7qm7W5A17Td1rqmDfoOSdM0E50hkc4Okc6ISGeXSGePSGefSOeASGftmXsjIaqItqlC2qaKaZsqqG2qqLapwtqmimubKrBtqsh2qCLbIVurqSLboYpsRyuy1bujrUnVb45mICM9Q/VboxnISOd9/cZoBjLSOV+/LZqBjHS+GzRFM9EhimN5GjPoiGaiQxTK8hxm0A7NRIcomuUJzKAXmsk6SBTP8uxl0AjNRIconuWpq34XtDUZgyZoJjrS02PQAs1ERzrdDRqgmehIp7tB+zMTHel0N2l+ZiREFdHyDGbS+cxIiCqo5UnMpO2ZkRBVXMvzmEnPM6OVkSqy5anMpOGZkRBVZMuzGbqdodsZup09I0S3M7Gh2xm6naHbWcmGbmfodqZ1VOh2tuav8X10O3u6odvZ49bAzVXfWVMA4AAHOMABDnCAAxzgAAc4wNl4nO+sVwBoQAMa0IAGNKABDWhAAxrQbA7N36ZHAXCAAxzgAAc4wAEOcIADHODU90O3s2JDt7NVt7ODzeh2trcB3c72Wut2Zu8M+oMnm71D0vyMUHbYjOxOM7KjZmR3m5Hda0Z2vxnZg2Zk1571p9RtaJ7ZDU00u6GZZjc01eyG5prd0GSzG5ptdkPTzW5ovjkNzTenqbzW0HxzGppvjsl8U+8qV6Zcv8kcnarq2a3fgo5OVXUlq9+gjk5VdRWr376OTlV1BTNobkco28zsUi4XDDrhEco2M8GUawWDtnmEss3MMeVCwaDHHmFWaGaWKVcJBg35CGWbmWXKJUL97n1lqgbN/AhlVU+tQas/QlnVBcygESChrOoCZtAmkFBWdQEzaSJIqdvQPFOuFEw6DlLqNjTVlIsFk/aElLoNzTblesGklyFlnmhovimXDCaNDyl1G5pvylUDuiSiSyK6JD4jRJdEsaFLIrokoktiyYYuieiSqHVU6JK45q/xfXRJfLqhS+Lj1sBNmd9ZMxHgAAc4wAEOcIADHOAABzjA2Xic76zHCGhAAxrQgAY0oAENaEADGtBsDs3fprcJcIADHOAABzjAAQ5wgAMc4NT3+wZdEj/ymxmP3XQec9Z5s4Wmid9X00Qe3/pjzv7jish7F0UzJi6YuM95Z/BmMxoo7m9AA8X99hooin/X7dREpDMk0tkh0hkR6ewS6ewR6ewT6RwQ6aw3GDARoopomyqkbaqYtqmC2qaKapsqrG2quLapAtumimyHKrIdsrWaKrIdqsh2tCJbo7HfUymDTn71ZaRnyKBXX30Z6bw36MZXX0Y65w367dWXkc53k456BjpEcSxPYyZN8gx0iEJZnsNM+t4Z6BBFszyBmbSyM1gHieJZnr1MutMZ6BDFszx1GTSceypj0mHOQEd6ekx6yBnoSKe7SZc4Ax3pdDfpA2egI53uRp3eTISoIlqewYyat5kIUQW1PIkZ9WMzEaKKa3keM2qxZrIyUkW2PJUZdU0zEaKKbHk2eyb0e+xHsZ8umM16rHM2D7dES6rd3v9zw97A7uX/fs3HvaEtS3ODtf/QOz7e2Tk4ILBwmrcYNm+x07zFqHmL3eYt9pq32G/e4qB5i7XM3pRHC/PbbmGC2y3McLuFKW63MMftFia53cIst1uY5nYL89xpYZ47beTxFua508I8d+rNcyf3cFOZx0CtrBoOHWd/l8BCfjXILOQXg8xCfi3ILORLLpmFfMUls5AvuGQW8vWWzEK+3JJZlJRVdB4tzO+SsorOo4UZXlJW0Xm0MMdLyio6jxZmeUlZRefRwjwvKavoPNrI4y3M85Kyis6j3jwfCo83sS/xcA7Uyirb3tsbDgks5FeDzEJ+Mcgs5NeCzEK+5JJZyFdcMgv5gktmIV9vySzk90aRWZTcEEjnIb+jis5DfrMVnYf8Piw6D/ktWnQe8vsS6TzktyzSecjvZqTzkN/oSOfRwjwvKavoPNrI4y0k8pKyis6jXirfER4fp3OZx75aWXWQbaNXBBbyq0FmIb8YZBbya0FmIS+ryCzkZRWZhbysIrOQl1VkFvLllsyipKyi85CXVXQe8rKKzkNeVtF5yMsqOg95WUXnIS+r6DzkZRWdh7ysovNoYZ6XlFV0Hm3k8RYSeUlZRedRL5WPhMd/uCfz2FMrq16/PjnZ2yOwkF8NMgv5xSCzkF8LMgt5WUVmIS+ryCzkZRWZhbysIrOQL7dkFiVlFZ2HvKyi85CXVXQe8rKKzkNeVtF5yMsqOg95WUXnIS+r6DzkZRWdRwvzvKSsovNoI4+3kMhLyio6j3qpfDcv3eZc5rGrVladnOzukljIrwaZhfxikFnIrwWZhbysIrOQl1VkFvKyisxCXlaRWciXWzKLkrKKzkNeVtF5yMsqOg95WUXnIS+r6DzkZRWdh7ysovOQl1V0HvKyis6jhXleUlbRebSRx1tI5CVlFZ1HvVS+Jzx+jWS3xTsjtbJqf99xRiMCC/nVILOQXwwyC/m1ILOQl1VkFvKyisxCXlaRWcjLKjKLsr5TRBalzdaoPMq6VVF5lDWyovIo63FF5VHW/orKo6znG5VHWTs4Ko+yTnFUHmVN5Kg8WpjnJWUVnUcbebyFRF5SVtF5VKfyTyodXouezOyIhfxu1UA27xvbSW4n3bwDbGWr2FVj54Snr6J56CWd0aDLbHvUZUPxL2ek1m72PsN4bErteSduyidRvDi+95NlW+TH41foHp0JvI89Hn+Yiy7FyjsKjsU6x6/cTeYxX2KIRsvFeW+4PTeGMYxhDGMYwxjGMIYxjGEMYxjDGMYwhjGMYQxjGMMYxjCGMYxhDGMYwxjGMIYxjGEMYxjDGMYwhjGMYQxjGMMYxjCGMYxhDGMYwxjGMIb/Tw0v+tEtj2Pf47+64sFauz8wfF5VPBqbrD8ae8ZjnyfF47VWd/UA8SyI0n7gh7zyEdnka8/pVj9Zm/TzV8/PosBN/SjMoKwk5bPeJb+KYm6pPfn8jk946K0f0PKzzu6gy4biyeWBeJBZ/LACfpUKsArplWz/YsLT0zAV5yezuJqH45y0s8X+rJBYEfLHvc8rn+UWm3/FOunUT/pJflXUjMT2ZKd+dv5O3fG08xewrtoKXzw6nrEXuhezKPGF4OvsY5WjWW1C5itUcXSnh7TC8kOPi/nQs7uae6+267o7Xvk8EPHWKc7pcp5M4mg+4x778Uf2j+Lz+/7F1E2K59/FBNt6Orr46mh2QvruZPJGePQDHk7SKXvJHPZvZh0HgcUO17+RBP6Yd3r21vng01blfHt2JFHMOtfZoQx+YteZTRGqha/47J/ZiqN/gcQmwrjQO7/+1P/MF+zo6Gh58uop5qrFZb/WPdTVdhlz93OdnR8099H9vjhfxdEdibAWwVBESt7IoX/hJok/Cbl3IlpEJOf5mfxU71SuLvRsnkw7da9FdkkPl9ez/kwKgkOVo+yLb9Z1SdI4+szVfJbfresUzdyxny7UrIov1z6q3GJlVVdltZCsLyt1pof24iO21XReX3hYj9m6ajrTTZ31oZtnVaXvP1TVFGLb3ma///GR/ff9Hx/Y2fsPH3/57Wf27v3Pv5ywt6cfTtUE3mSrNr93RYnG0oglUZyycH6TxcGY5S1NEuYm46x48cOJguLq3AudJ5nZ7bJL9cUl5uk8DtnMjRP+JojctOOKJX8ru5RPPrvMP1M6mdUl2hPb4hCqhB+a7fTyWH/m0z2f7J0XHr9y50HKZnGUrWH8RZe9+GF//+Tk9PRFw41ngAMc4AAHOMABDnCAAxzgAOf/Jg5L5jfZfwIzj4sPmecuBFHMPdCABjSgAQ1oQAMa0IAGNKABTTnNXX5r1hc0l8GcAwc4wAEOcIADHOAABzjAAQ5w6uA8vjfQFu8NPJvL3hs4tPO/sB0f7+wcHIAUpCAFKUhBClKQghSkIAUpSEEK0s0gdXJSN5WRDnLS4dBx9ndBClKQghSkIAUpSEEKUpCCFKQgBelmkA4F6ZvYl5A6Bzmpbe/tDYcgBSlIQQpSkIIUpCAFKUhBClKQgnQzSHcE6cfpXEa6n5MeZNvoFUhBClKQghSkIAUpSEEKUpCCFKQg3QzSkSD9D/dkpHs56evXJyd7eyAFKUhBClKQghSkIAUpSEEKUpCCdDNId/PfTMy5jHQ3Jz052d0FKUhBClKQghSkIAUpSEEKUpCCFKSbQronSH+NZJ0FnVFOur/vOKMRSEEKUpCCFKQgBSlIQQpSkIIUpCBtjXSF4sXuXadS7L6f+mnAz6bujPdTfp92XryN5nFSjbF4vudr/4aHiR+FAU9yhQqJ7W127HnMZbkSu/PTKUuiG868YcWeye2k785mPPQ6lvC2tip2WG19N03jjnVvddnuQHOnRbaTo75Tki4CvsTrueF4GsXZ/lbArzRoC42rKEx7d9yfTFOhcRkFnrrG8tqczXr/i0Jus/dXV/6Ys7NF0huyN0Hcs9nZeNo7Zm9/D8Y3aS+J5tll+N9v7LfTk1fiaym/YUP2+9n/2PvxWHz3xVbZhX25nYxjf5b+S/qdl9uef/v1Yek+crFMi/nekTUWUX+SnSjXD3l84RxYLD97R5bnJ7PAXRz6YZAN9S6DaPz5J0vOl4kuD4Gli1m2vziB29furbv8tHRPsd26sQhQdsQ8/2YW8H7I785uJx3rh+eMXbYzGOQ/KieckPXc1M10z/+0AveSB9ah5fErdx6kbBZHV37Are5y5OLeOrT7g6516wZzXvx7LNalbJ9sqTk5OT21HrpKOg6RzpBIZ4dIZ0Sks0uks0eks0+kc0CkYw+ohKgi2qYKaZsqpm2qoLapotqmCmubKq5tqsC2qSLboYpsh2ytpopshyqyHa3IZsn85mbtRdVKGS3mnoaM9BzpyUjPkJ6M9PzoyUjnvZ6MdNbryUjnvJ6MdMbryUjnu56MPJFp6hDFsTyNaeoQRbI8iWnqEMWyPIVp6hBFszyBaeoQxbM8fWnqUK3LRPEsz12aOurxfOeHqX7auhQfqetIT4+mjvT0aOpIT4+mjnS6a+pIp7umjnS6a+pIp7umjnS6a+rI85euEFVEyzOYrhBVTMtzmK4QVVTLs5iuEFVcy/OYrhBVZMszma4Q2VpNFdnyZKYrpB7Zj3+5qHyzsCzNDdb+Q2/56mECC6d5i2HzFjvNW4yat9ht3mKveYv95i0OmrdYy+xNebQwv+0WJrjdwgy3W5jidgtz3G5hktstzHK7hWlutzDPnRbmudNGHm9hnjstzHOn3jyvfIGjWlm1fMMjgYX8apBZyC8GmYX8WpBZyJdcMgv5iktmIV9wySzk6y2ZhXy5JbMoKavoPFqY3yVlFZ1HCzO8pKyi82hhjpeUVXQeLczykrKKzqOFeV5SVtF5tJHHW5jnJWUVnUe9eV75niy1smr5Ii0CC/nVILOQXwwyC/m1ILOQL7lkFvIVl8xCvuCSWcjXWzIL+b1RZBYlNwTSecjvqKLzkN9sRechvw+LzkN+ixadh/y+RDoP+S2LdB7yuxnpPOQ3OtJ5tDDPS8oqOo828ngLibykrKLzqJfKK19HolZWLd9XQmAhvxpkFvKLQWYhvxZkFvKyisxCXlaRWcjLKjILeVlFZiFfbsksSsoqOg95WUXnIS+r6DzkZRWdh7ysovOQl1V0HvKyis5DXlbRecjLKjqPFuZ5SVlF59FGHm8hkZeUVXQe9VJ5Zdd3tbJq2RaewEJ+Ncgs5BeDzEJ+Lcgs5GUVmYW8rCKzkJdVZBbysorMQr7cklmUlFV0HvKyis5DXlbRecjLKjoPeVlF5yEvq+g85GUVnYe8rKLzkJdVdB4tzPOSsorOo4083kIiLymr6DzqpfLK5rpqZdWy+y6BhfxqkFnILwaZhfxakFnIyyoyC3lZRWYhL6vILORlFZmFfLklsygpq+g85GUVnYe8rKLzkJdVdB7ysorOQ15W0XnIyyo6D3lZRechL6voPFqY5yVlFZ1HG3m8hUReUlbRedRL5ZU9DNXKqmWTQwIL+dUgs5BfDDIL+bUgs5CXVWQW8rKKzEJeVpFZyMsqMouyvlNEFqXN1qg8yrpVUXmUNbKi8ijrcUXlUdb+isqjrOcblUdZOzgqj7JOcVQeZU3kqDxamOclZRWdRxt5vIVEXlJW0XlUp/JPKh1ei/bN7IiF/G7VQDbvG9tJbifdvANsZavYVQ/ohKevonnoJZ3RoMtse9RlQ/EvZ6TWbvY+w3hsbe15J27KJ1G8OL73k2UP5cfjV2g0nQm8jz0ef5iLlsbKOwqOxTrHr9xN5jFfYoiuzMV5b7jJN4YxjGEMYxjDGMYwhjGMYQxjGMMYxjCGMYxhDGMYwxjGMIYxjGEMYxjDGMYwhjGMYQxjGMMYxjCGMYxhDGMYwxjGMIYxjGEMYxjDGMYwhv9PDS/60S2PY9/jv7riwVq7PzB8XlU8GpusPxp7xmOfJ8XjtVZ39QDxLIjSfuCHvPIR2eRrz+lWP1mb9PNXz8+iwE39KMygrCTls94lv4pibqk9+fyOT3jorR/Q8rPO7qDLhuLJ5YF4kFn8sAJ+lQqwCumVbP9iwtPTMBXnJ7O4mofjnLSzxf6skFgR8se9zyuf5Rabf8U66dRP+kl+VdSMxPZkp352/k7d8bTzF7Cu2gpfPDqesRe6F7Mo8YXg6+xjlaNZbULmK1RxdKeHtMLyQ4+L+dCzu5p7r7brujte+TwQ8dYpzulynkziaD7jHvvxR/aP4vP7/sXUTYrn38UE23o6uvjqaHZC+u5k8kZ49AMeTtIpe8kc9m9mHQeBxQ7Xv5EE/ph3evbW+eDTVuV8e3YkUcw619mhDH5i15lNEaqFr/jsn9mKo3+BxCbCuNA7v/7U/8wX7OjoaHny6inmqsVlv9Y91NV2GXP3c52dHzT30f2+OF/F0R2JsBbBUERK3sihf+EmiT8JuXciWkQk5/mZ/FTvVK4u9GyeTDt1r0V2SQ+X17P+TAqCQ5Wj7Itv1nVJ0jj6zNV8lt+t6xTN3LGfLtSsii/XPqrcYmVVV2W1kKwvK3Wmh/biI7bVdF5feFiP2bpqOtNNnfWhm2dVpe8/VNUUYtveZr//8ZH99/0fH9jZ+w8ff/ntZ/bu/c+/nLC3px9O1QTeZKs2v3dFicbSiCVRnLJwfpPFwZjlLU0S5ibjrHjxw4mC4urcC50nmdntskv1xSXm6TwO2cyNE/4miNy044olfyu7lE8+u8w/UzqZ1SXaE9viEKqEH5rt9PJYf+bTPZ/snRcev3LnQcpmcZStYfxFl734YX//5OT09EXDjWeAAxzgAAc4wAEOcIADHOAA5/8mDkvmN9l/AjOPiw+Z5y4EUcw90IAGNKABDWhAAxrQgAY0oAFNOc1dfmvWFzSXwZwDBzjAAQ5wgAMc4AAHOMABDnDq4Dy+N9AW7w08m8veGzi087+wHR/v7BwcgBSkIAUpSEEKUpCCFKQgBSlIQQrSzSB1clI3lZEOctLh0HH2d0EKUpCCFKQgBSlIQQpSkIIUpCAF6WaQDgXpm9iXkDoHOalt7+0NhyAFKUhBClKQghSkIAUpSEEKUpCCdDNIdwTpx+lcRrqfkx5k2+gVSEEKUpCCFKQgBSlIQQpSkIIUpCDdDNKRIP0P92Skeznp69cnJ3t7IAUpSEEKUpCCFKQgBSlIQQpSkIJ0M0h3899MzLmMdDcnPTnZ3QUpSEEKUpCCFKQgBSlIQQpSkIIUpJtCuidIf41knQWdUU66v+84oxFIQQpSkIIUpCAFKUhBClKQghSkIG2NdIXixe5dp1Lsvp/6acDPpu6M91N+n3ZevI3mcVKNsXi+52v/hoeJH4UBT3KFContbXbsecxluRK789MpS6IbzrxhxZ7J7aTvzmY89DqW8La2KnZYbX03TeOOdW912e5Ac6dFtpOjvlOSLgK+xOu54Xgaxdn+VsCvNGgLjasoTHt33J9MU6FxGQWeusby2pzNev+LQu6wN37I2Vkaxe4k+99F0tthb4K4Z7Oz8bR3zN7+Hoxv0l4SzbOL8b/f2G+nJ6/E11J+w3bY72f/Y+/HY/HdF1tll/fldjKO/Vn6L+l3Xm57/u3Xh6X7yMUyLeZ7R9ZYxP5Jdrrc7DDji+HAYvk5PLI8P5kF7uLQD4NsqHcZROPPP1lyvkx0eQgsXcyy/cVp3L52b93lp6V7iu3WjUWYsiPm+TezgPdDfnd2O+lYPzxn7LKdwSD/UTnthKznpm6me/6nFbiXPLAOLY9fufMgZbM4uvIDbnWXIxf31qHdH3StWzeY8+LfY7E6ZftkC87Jyemp9dBV0nGIdIZEOjtEOiMinV0inT0inX0inQMiHXtAJUQV0TZVSNtUMW1TBbVNFdU2VVjbVHFtUwW2TRXZDlVkO2RrNVVkO1SR7WhFNkvmNzdrr6tWymgx9zRkpOdIT0Z6hvRkpOdHT0Y67/VkpLNeT0Y65/VkpDNeT0Y63/Vk5IlMU4cojuVpTFOHKJLlSUxThyiW5SlMU4comuUJTFOHKJ7l6UtTh2pdJopnee7S1FGP5zs/TPXT1qX4SF1Heno0daSnR1NHeno0daTTXVNHOt01daTTXVNHOt01daTTXVNHnr90hagiWp7BdIWoYlqew3SFqKJansV0hajiWp7HdIWoIlueyXSFyNZqqsiWJzNdIfXIfvz7ReX7hWVpbrD2H3rLFxATWDjNWwybt9hp3mLUvMVu8xZ7zVvsN29x0LzFWmZvyqOF+W23MMHtFma43cIUt1uY43YLk9xuYZbbLUxzu4V57rQwz5028ngL89xpYZ479eZ55Wsc1cqq5XseCSzkV4PMQn4xyCzk14LMQr7kklnIV1wyC/mCS2YhX2/JLOTLLZlFSVlF59HC/C4pq+g8WpjhJWUVnUcLc7ykrKLzaGGWl5RVdB4tzPOSsorOo4083sI8Lymr6DzqzfPKt2WplVXL12kRWMivBpmF/GKQWcivBZmFfMkls5CvuGQW8gWXzEK+3pJZyO+NIrMouSGQzkN+RxWdh/xmKzoP+X1YdB7yW7ToPOT3JdJ5yG9ZpPOQ381I5yG/0ZHOo4V5XlJW0Xm0kcdbSOQlZRWdR71UXvlSErWyavnWEgIL+dUgs5BfDDIL+bUgs5CXVWQW8rKKzEJeVpFZyMsqMgv5cktmUVJW0XnIyyo6D3lZRechL6voPORlFZ2HvKyi85CXVXQe8rKKzkNeVtF5tDDPS8oqOo828ngLibykrKLzqJfKK3u/q5VVy+bwBBbyq0FmIb8YZBbya0FmIS+ryCzkZRWZhbysIrOQl1VkFvLllsyipKyi85CXVXQe8rKKzkNeVtF5yMsqOg95WUXnIS+r6DzkZRWdh7ysovNoYZ6XlFV0Hm3k8RYSeUlZRedRL5VXtthVK6uWPXgJLORXg8xCfjHILOTXgsxCXlaRWcjLKjILeVlFZiEvq8gs5MstmUVJWUXnIS+r6DzkZRWdh7ysovOQl1V0HvKyis5DXlbRecjLKjoPeVlF59HCPC8pq+g82sjjLSTykrKKzqNeKq/sZKhWVi1bHRJYyK8GmYX8YpBZyK8FmYW8rCKzkJdVZBbysorMQl5WkVmU9Z0isihttkblUdatisqjrJEVlUdZjysqj7L2V1QeZT3fqDzK2sFReZR1iqPyKGsiR+XRwjwvKavoPNrI4y0k8pKyis6jOpV/UunwWjRxZkcs5HerBrJ539hOcjvp5h1gK1vFrjpBJzx9Fc1DL+mMBl1m26MuG4p/OSO1drP3GcZjg2vPO3FTPonixfG9nyw7KT8ev0K76Uzgfezx+MNcNDZW3lFwLNY5fuVuMo/5EkP0Zi7Oe8OtvjGMYQxjGMMYxjCGMYxhDGMYwxjGMIYxjGEMYxjDGMYwhjGMYQxjGMMYxjCGMYxhDGMYwxjGMIYxjGEMYxjDGMYwhjGMYQxjGMMYxjCGMfx/anjRj255HPse/9UVD9ba/YHh86ri0dhk/dHYMx77PCker7W6qweIZ0GU9gM/5JWPyCZfe063+snapJ+/en4WBW7qR2EGZSUpn/Uu+VUUc0vtyed3fMJDb/2Alp91dgddNhRPLg/Eg8zihxXwq1SAVUivZPsXE56ehqk4P5nF1Twc56SdLfZnhcSKkD/ufV75LLfY/CvWSad+0k/yq6JmJLYnO/Wz83fqjqedv4B11Vb44tHxjL3QvZhFiS8EX2cfqxzNahMyX6GKozs9pBWWH3pczIee3dXce7Vd193xyueBiLdOcU6X82QSR/MZ99iPP7J/FJ/f9y+mblI8/y4m2NbT0cVXR7MT0ncnkzfCox/wcJJO2UvmsH8z6zgILHa4/o0k8Me807O3zgeftirn27MjiWLWuc4OZfATu85silAtfMVn/8xWHP0LJDYRxoXe+fWn/me+YEdHR8uTV08xVy0u+7Xuoa62y5i7n+vs/KC5j+73xfkqju5IhLUIhiJS8kYO/Qs3SfxJyL0T0SIiOc/P5Kd6p3J1oWfzZNqpey2yS3q4vJ71Z1IQHKocZV98s65LksbRZ67ms/xuXado5o79dKFmVXy59lHlFiuruiqrhWR9WakzPbQXH7GtpvP6wsN6zNZV05lu6qwP3TyrKn3/oaqmENv2Nvv9j4/sv+//+MDO3n/4+MtvP7N373/+5YS9Pf1wqibwJlu1+b0rSjSWRiyJ4pSF85ssDsYsb2mSMDcZZ8WLH04UFFfnXug8ycxul12qLy4xT+dxyGZunPA3QeSmHVcs+VvZpXzy2WX+mdLJrC7RntgWh1Al/NBsp5fH+jOf7vlk77zw+JU7D1I2i6NsDeMvuuzFD/v7Jyenpy8abjwDHOAABzjAAQ5wgAMc4AAHOP83cVgyv8n+E5h5XHzIPHchiGLugQY0oAENaEADGtCABjSgAQ1oymnu8luzvqC5DOYcOMABDnCAAxzgAAc4wAEOcIBTB+fxvYG2eG/g2Vz23sChnf+F7fh4Z+fgAKQgBSlIQQpSkIIUpCAFKUhBClKQbgapk5O6qYx0kJMOh46zvwtSkIIUpCAFKUhBClKQghSkIAUpSDeDdChI38S+hNQ5yElte29vOAQpSEEKUpCCFKQgBSlIQQpSkIIUpJtBuiNIP07nMtL9nPQg20avQApSkIIUpCAFKUhBClKQghSkIAXpZpCOBOl/uCcj3ctJX78+OdnbAylIQQpSkIIUpCAFKUhBClKQghSkm0G6m/9mYs5lpLs56cnJ7i5IQQpSkIIUpCAFKUhBClKQghSkIN0U0j1B+msk6yzojHLS/X3HGY1AClKQghSkIAUpSEEKUpCCFKQgBWlrpCsUL3bvOpVi9/3UTwN+NnVnvJ/y+7Tz4m00j5NqjMXzPV/7NzxM/CgMeJIrVEhsb7Njz2Muy5XYnZ9OWRLdcOYNK/ZMbid9dzbjodexhLe1VbHDauu7aRp3rHury3YHmjstsp0c9Z2SdBHwJV7PDcfTKM72twJ+pUFbaFxFYdq74/5kmgqNyyjw1DWW1+Zs1vtfFPIhezUPPrOzNIrdCWdni6S3w94Ecc9mZ+Np75i9/T0Y36Q97iYp+99v7LfTk1fiWym/YTvs97P/sffjsfjqi62yq/tyOxnH/iz9l/Q7L7c9//brw9J95GKZFvO9I2ssQv8kO1uuH/L4YmhbLD+FR5bnJ7PAXRz6YZAN9S6DaPz5J0vOl4kuD4Gli1m2vziL29furbv8tHRPsd26sYhSdsQ8/2YW8H7I785uJx3rh+eMXbYzGOQ/KmedkPXc1M10z/+0AveSB9ah5fErdx6kbBZHV37Are5y5OLeOrT7g6516wZzbh3uHvQPnmz7B11rLJaqTCFbfU5OTk+th66SqtOI6rAR1Z1GVEeNqO42orrXiOp+I6oHjajag2Zkm5lddjPTy25mftnNTDC7mRlmNzPF7GbmmN3MJLObmWVOM7PMaSiHNTPLnGZmmWMwy1gyv7lZe/t3jQoh5p6GqOK51RNVPLN6oornVU9Uce3SE1VcufREFdctPVHFVUtPVHHN0hNVLQw0VRuZU6plgaZqI7NKtSjQVG1kXqmWBJqqjcws1YJAU7WRuaVaDmiqNpOvGplbqrWApmrduXXnh6lpGXApvqCuqnhaNVUVT6umquJp1VRVXLI0VRWXLE1VxSVLU1VxydJUVVyyNFVV6wFd2WZml2pFoCvbzPxSrQl0ZZuZYapVga5sM3NMtS7QlW1mlqlWBrqyDeWwZmaZanGgK6s1yz6p/MGh+JMiO2Ihv1v9PSP/M0YnuZ108z9IVP7lYvV3yYSnr6J56CWd0aDLbHvUZUPxL2ek9teP+wzj8c+tnnfipnwSxYvjez9Z/l3v8VQo/PEzE3gfezz+MBd/ZlPeUXAs1jl+5W4yj/kSQ/ylsLgEpn/Ozf+OtG51xmOfJwVu5lRckFkQpX3xx61Ky+Rrx11NmvTzuJtFgZv6UZhBWUnKZ71LfhXF3FKLpHd8wkNv/YCWn3V2sygYikgQfwyzxY/ir6WVf0heyfYvJjw9DVNxfjKLq3k4zkk7W+xPhT+XCkL+uPd55dwQm3/FOunUT7K4FvupGYntyU797PyduuNp5y9gXbUVfvG3wUL3YhYlvhB8nX2scjSrTch8hSqO7vSQVlh+6HExcXt2V3Pv1XZdd8crnwci3jrFOV3Ok0kczWfcYz/+yP5RfH7fv5i6SbGeiAm29XR08dXR7IT03cnkjfDoBzycpFP2kjns38w6DgKLHa5/Iwn8Me/07K3zwaetyvn27EiimHWus0MZ/MSuM5siVAtf8dk/j5itf4HEJsK40Du//tT/zLPl7ehoefLqKeaqxWW/1j3U1XYZc/dznZ0fNPfR/b44X8XRHYmwFsFQREqeGPsXy1uBuJffDJSc52fyU71TubrQs3ky7dS9FtklPVxez/ozKQgOVY6yL75Z1yVJ4+gzV/NZfreuUzRzx366ULMqvlz7qHKLlVVdldVCsr6s1Jke2ouP2FbTeX3hYT1m66rpTDd11odunlWVvv9QVVOIbXub/f7HR/bf9398YGfvP3z85bef2bv3P/9ywt6efjhVE3iTrdr83hUlGksjlkRZIR3Ob7I4GLO8REyYm4yz4sUPJwqKq3MvdJ5kZrfLLtUXl5in8zhkMzdO+JsgctOOK5b8rexSPvnsMv9M6WRWl2hPbItDqBJ++Aa3bH7xB9jivkzxB9VvcgcpcIADHOAABzjAAQ5wgAMc4Gw8zvMbXARRzD3QgAY0oAENaEADGtCABjSgAU05zbNbAgWNuMUPOMABDnCAAxzgAAc4wAEOcIDzDRslfuQ3Mx676TzmrPNmC60Sv6tWif9xRcS95fn/HN9c+jxMmbhkou8h9+bZ+e+xvcGbzWiB6GxAC0SntRaI+YOndVswEekMiXR2iHRGRDq7RDp7RDr7RDoHRDprvQWMhKgi2qYKaZsqpm2qoLapotqmCmubKq5tqsC2qSLboYpsh2ytpopshyqyHa3IVm/ZtyZVv0mfgYz0DNVvxGcgI5339ZvtGchI53z9hnoGMtL5btA0z0SHKI7lacygFZ6JDlEoy3OYQYM7Ex2iaJYnMIO2dSbrIFE8y7OXQTM6Ex2ieJanrvot5tZkDJrKmehIT49B4zgTHel0N2gOZ6Ijne4GDeBMdKTT3aTJm5EQVUTLM5hJ6zYjIaqglicxk4ZsRkJUcS3PYyZt1oxWRqrIlqcyk+ZpRkJUkS3PZmiJthEt0TCMYQxjGMMYxjCGMYxhDGMYwxjGMIYx/D0NL/rRLY9j3+O/uuIXVXZ/gJb4T44ELfEfN7TE19rQEh8t8TU2tMT/ckNL/C83tMTX3NASHy3xv7qhJT5wgAMc4AAHOMABDnCAAxzgAGcTGkqCBjSgAQ1oQAMa0IAGNKABzebQ/G0aWQIHOMABDnCAAxzgAAc4wAFOfb9v0BL/tX/Dw8SPwoAnCRrif18N8aP4Mzu9uvLHPg/Hi8c2+O02wC++/cXI0/+/+vfyfx/Vi388/s9l5C3E/07Tm+Bf/9//D6l/Uys="
               },
               {
                  "name" : "annual_peak_electric_demand",
                  "units" : "kW",
                  "value" : 334.69895000000002
               },
               {
                  "name" : "first_year_capital_cost",
                  "units" : "$",
                  "value" : 0
               },
               {
                  "name" : "annual_utility_cost",
                  "units" : "$",
                  "value" : 0
               },
               {
                  "name" : "total_lifecycle_cost",
                  "units" : "$",
                  "value" : 0
               }
            ],
            "step_warnings" : [ "A table in Annual Overview section returned false and was skipped." ]
         }
      }
   ],
   "updated_at" : "20170710T192353Z",
   "weather_file" : "USA_CO_Denver.Intl.AP.725650_TMY3.epw"
}
