{
   "completed_at" : "20170710T190555Z",
   "completed_status" : "Success",
   "created_at" : "2017-07-10 18:59:10 +0000",
   "current_step" : 5,
   "description" : "",
   "eplusout_err" : "Program Version,EnergyPlus, Version 8.7.0-78a111df4a, YMD=2017.07.10 19:01,IDD_Version 8.7.0\n   ************* IDF Context for following error/warning message:\n   ************* Note -- lines truncated at 300 characters, if necessary...\n   *************      5 Building,\n   ************* indicated Name=NECB 2011-LargeHotel-NECB HDD Method-CAN_ON_Sault.Ste.Marie.712600_CWEC.epw created: 2017-07-10 18:59:16 +0000\n   ************* Only last 1 lines before error line shown.....\n   *************      6   NECB 2011-LargeHotel-NECB HDD Method-CAN_ON_Sault.Ste.Marie.712600_CWEC.epw created: 2017-07-10 18:59:16 +0000, !- Name\n   ** Warning ** IP: IDF line~6 Alpha Argument length exceeds maximum, will be truncated=  NECB 2011-LargeHotel-NECB HDD Method-CAN_ON_Sault.Ste.Marie.712600_CWEC.epw created: 2017-07-10 18:59:16 +000\n   **   ~~~   ** Will be processed as Alpha=NECB 2011-LARGEHOTEL-NECB HDD METHOD-CAN_ON_SAULT.STE.MARIE.712600_CWEC.EPW CREATED: 2017-07-10 18:59:16 +0000\n   ************* Beginning Zone Sizing Calculations\n   ** Warning ** ProcessScheduleInput: Schedule:Day:Interval=\"ECONOMIZER MAX OA FRACTION 100 PCT DEFAULT\", Blank Schedule Type Limits Name input -- will not be validated.\n   ** Warning ** ProcessScheduleInput: Schedule:Day:Interval=\"SCHEDULE DAY 1\", Blank Schedule Type Limits Name input -- will not be validated.\n   ** Warning ** ProcessScheduleInput: Schedule:Day:Interval=\"SCHEDULE DAY 10\", Blank Schedule Type Limits Name input -- will not be validated.\n   ** Warning ** ProcessScheduleInput: Schedule:Day:Interval=\"SCHEDULE DAY 11\", Blank Schedule Type Limits Name input -- will not be validated.\n   ** Warning ** ProcessScheduleInput: Schedule:Day:Interval=\"SCHEDULE DAY 12\", Blank Schedule Type Limits Name input -- will not be validated.\n   ** Warning ** ProcessScheduleInput: Schedule:Day:Interval=\"SCHEDULE DAY 13\", Blank Schedule Type Limits Name input -- will not be validated.\n   ** Warning ** ProcessScheduleInput: Schedule:Day:Interval=\"SCHEDULE DAY 14\", Blank Schedule Type Limits Name input -- will not be validated.\n   ** Warning ** ProcessScheduleInput: Schedule:Day:Interval=\"SCHEDULE DAY 15\", Blank Schedule Type Limits Name input -- will not be validated.\n   ** Warning ** ProcessScheduleInput: Schedule:Day:Interval=\"SCHEDULE DAY 16\", Blank Schedule Type Limits Name input -- will not be validated.\n   ** Warning ** ProcessScheduleInput: Schedule:Day:Interval=\"SCHEDULE DAY 17\", Blank Schedule Type Limits Name input -- will not be validated.\n   ** Warning ** ProcessScheduleInput: Schedule:Day:Interval=\"SCHEDULE DAY 18\", Blank Schedule Type Limits Name input -- will not be validated.\n   ** Warning ** ProcessScheduleInput: Schedule:Day:Interval=\"SCHEDULE DAY 19\", Blank Schedule Type Limits Name input -- will not be validated.\n   ** Warning ** ProcessScheduleInput: Schedule:Day:Interval=\"SCHEDULE DAY 2\", Blank Schedule Type Limits Name input -- will not be validated.\n   ** Warning ** ProcessScheduleInput: Schedule:Day:Interval=\"SCHEDULE DAY 20\", Blank Schedule Type Limits Name input -- will not be validated.\n   ** Warning ** ProcessScheduleInput: Schedule:Day:Interval=\"SCHEDULE DAY 21\", Blank Schedule Type Limits Name input -- will not be validated.\n   ** Warning ** ProcessScheduleInput: Schedule:Day:Interval=\"SCHEDULE DAY 22\", Blank Schedule Type Limits Name input -- will not be validated.\n   ** Warning ** ProcessScheduleInput: Schedule:Day:Interval=\"SCHEDULE DAY 23\", Blank Schedule Type Limits Name input -- will not be validated.\n   ** Warning ** ProcessScheduleInput: Schedule:Day:Interval=\"SCHEDULE DAY 24\", Blank Schedule Type Limits Name input -- will not be validated.\n   ** Warning ** ProcessScheduleInput: Schedule:Day:Interval=\"SCHEDULE DAY 25\", Blank Schedule Type Limits Name input -- will not be validated.\n   ** Warning ** ProcessScheduleInput: Schedule:Day:Interval=\"SCHEDULE DAY 26\", Blank Schedule Type Limits Name input -- will not be validated.\n   ** Warning ** ProcessScheduleInput: Schedule:Day:Interval=\"SCHEDULE DAY 27\", Blank Schedule Type Limits Name input -- will not be validated.\n   ** Warning ** ProcessScheduleInput: Schedule:Day:Interval=\"SCHEDULE DAY 28\", Blank Schedule Type Limits Name input -- will not be validated.\n   ** Warning ** ProcessScheduleInput: Schedule:Day:Interval=\"SCHEDULE DAY 29\", Blank Schedule Type Limits Name input -- will not be validated.\n   ** Warning ** ProcessScheduleInput: Schedule:Day:Interval=\"SCHEDULE DAY 30\", Blank Schedule Type Limits Name input -- will not be validated.\n   ** Warning ** ProcessScheduleInput: Schedule:Day:Interval=\"SCHEDULE DAY 31\", Blank Schedule Type Limits Name input -- will not be validated.\n   ** Warning ** ProcessScheduleInput: Schedule:Day:Interval=\"SCHEDULE DAY 32\", Blank Schedule Type Limits Name input -- will not be validated.\n   ** Warning ** ProcessScheduleInput: Schedule:Day:Interval=\"SCHEDULE DAY 33\", Blank Schedule Type Limits Name input -- will not be validated.\n   ** Warning ** ProcessScheduleInput: Schedule:Day:Interval=\"SCHEDULE DAY 34\", Blank Schedule Type Limits Name input -- will not be validated.\n   ** Warning ** ProcessScheduleInput: Schedule:Day:Interval=\"SCHEDULE DAY 35\", Blank Schedule Type Limits Name input -- will not be validated.\n   ** Warning ** ProcessScheduleInput: Schedule:Day:Interval=\"SCHEDULE DAY 36\", Blank Schedule Type Limits Name input -- will not be validated.\n   ** Warning ** ProcessScheduleInput: Schedule:Day:Interval=\"SCHEDULE DAY 37\", Blank Schedule Type Limits Name input -- will not be validated.\n   ** Warning ** ProcessScheduleInput: Schedule:Day:Interval=\"SCHEDULE DAY 38\", Blank Schedule Type Limits Name input -- will not be validated.\n   ** Warning ** ProcessScheduleInput: Schedule:Day:Interval=\"SCHEDULE DAY 39\", Blank Schedule Type Limits Name input -- will not be validated.\n   ** Warning ** ProcessScheduleInput: Schedule:Day:Interval=\"SCHEDULE DAY 40\", Blank Schedule Type Limits Name input -- will not be validated.\n   ** Warning ** ProcessScheduleInput: Schedule:Day:Interval=\"SCHEDULE DAY 41\", Blank Schedule Type Limits Name input -- will not be validated.\n   ** Warning ** ProcessScheduleInput: Schedule:Day:Interval=\"SCHEDULE DAY 42\", Blank Schedule Type Limits Name input -- will not be validated.\n   ** Warning ** ProcessScheduleInput: Schedule:Day:Interval=\"SCHEDULE DAY 43\", Blank Schedule Type Limits Name input -- will not be validated.\n   ** Warning ** ProcessScheduleInput: Schedule:Day:Interval=\"SCHEDULE DAY 44\", Blank Schedule Type Limits Name input -- will not be validated.\n   ** Warning ** ProcessScheduleInput: Schedule:Day:Interval=\"SCHEDULE DAY 45\", Blank Schedule Type Limits Name input -- will not be validated.\n   ** Warning ** ProcessScheduleInput: Schedule:Day:Interval=\"SCHEDULE DAY 46\", Blank Schedule Type Limits Name input -- will not be validated.\n   ** Warning ** ProcessScheduleInput: Schedule:Day:Interval=\"SCHEDULE DAY 47\", Blank Schedule Type Limits Name input -- will not be validated.\n   ** Warning ** ProcessScheduleInput: Schedule:Day:Interval=\"SCHEDULE DAY 48\", Blank Schedule Type Limits Name input -- will not be validated.\n   ** Warning ** ProcessScheduleInput: Schedule:Day:Interval=\"SCHEDULE DAY 49\", Blank Schedule Type Limits Name input -- will not be validated.\n   ** Warning ** ProcessScheduleInput: Schedule:Day:Interval=\"SCHEDULE DAY 50\", Blank Schedule Type Limits Name input -- will not be validated.\n   ** Warning ** ProcessScheduleInput: Schedule:Day:Interval=\"SCHEDULE DAY 51\", Blank Schedule Type Limits Name input -- will not be validated.\n   ** Warning ** ProcessScheduleInput: Schedule:Day:Interval=\"SCHEDULE DAY 52\", Blank Schedule Type Limits Name input -- will not be validated.\n   ** Warning ** ProcessScheduleInput: Schedule:Day:Interval=\"SCHEDULE DAY 53\", Blank Schedule Type Limits Name input -- will not be validated.\n   ** Warning ** ProcessScheduleInput: Schedule:Day:Interval=\"SCHEDULE DAY 54\", Blank Schedule Type Limits Name input -- will not be validated.\n   ** Warning ** ProcessScheduleInput: Schedule:Day:Interval=\"SCHEDULE DAY 55\", Blank Schedule Type Limits Name input -- will not be validated.\n   ** Warning ** ProcessScheduleInput: Schedule:Day:Interval=\"SCHEDULE DAY 56\", Blank Schedule Type Limits Name input -- will not be validated.\n   ** Warning ** ProcessScheduleInput: Schedule:Day:Interval=\"SCHEDULE DAY 57\", Blank Schedule Type Limits Name input -- will not be validated.\n   ** Warning ** ProcessScheduleInput: Schedule:Day:Interval=\"SCHEDULE DAY 58\", Blank Schedule Type Limits Name input -- will not be validated.\n   ** Warning ** ProcessScheduleInput: Schedule:Day:Interval=\"SCHEDULE DAY 59\", Blank Schedule Type Limits Name input -- will not be validated.\n   ** Warning ** ProcessScheduleInput: Schedule:Day:Interval=\"SCHEDULE DAY 60\", Blank Schedule Type Limits Name input -- will not be validated.\n   ** Warning ** ProcessScheduleInput: Schedule:Day:Interval=\"SCHEDULE DAY 61\", Blank Schedule Type Limits Name input -- will not be validated.\n   ** Warning ** ProcessScheduleInput: Schedule:Day:Interval=\"SCHEDULE DAY 62\", Blank Schedule Type Limits Name input -- will not be validated.\n   ** Warning ** ProcessScheduleInput: Schedule:Day:Interval=\"SCHEDULE DAY 63\", Blank Schedule Type Limits Name input -- will not be validated.\n   ** Warning ** ProcessScheduleInput: Schedule:Day:Interval=\"SCHEDULE DAY 64\", Blank Schedule Type Limits Name input -- will not be validated.\n   ** Warning ** ProcessScheduleInput: Schedule:Day:Interval=\"SCHEDULE DAY 65\", Blank Schedule Type Limits Name input -- will not be validated.\n   ** Warning ** ProcessScheduleInput: Schedule:Day:Interval=\"SCHEDULE DAY 66\", Blank Schedule Type Limits Name input -- will not be validated.\n   ** Warning ** ProcessScheduleInput: Schedule:Day:Interval=\"SCHEDULE DAY 67\", Blank Schedule Type Limits Name input -- will not be validated.\n   ** Warning ** ProcessScheduleInput: Schedule:Day:Interval=\"SCHEDULE DAY 68\", Blank Schedule Type Limits Name input -- will not be validated.\n   ** Warning ** ProcessScheduleInput: Schedule:Day:Interval=\"SCHEDULE DAY 69\", Blank Schedule Type Limits Name input -- will not be validated.\n   ** Warning ** ProcessScheduleInput: Schedule:Day:Interval=\"SCHEDULE DAY 70\", Blank Schedule Type Limits Name input -- will not be validated.\n   ** Warning ** ProcessScheduleInput: Schedule:Day:Interval=\"SCHEDULE DAY 71\", Blank Schedule Type Limits Name input -- will not be validated.\n   ** Warning ** ProcessScheduleInput: Schedule:Day:Interval=\"SCHEDULE DAY 72\", Blank Schedule Type Limits Name input -- will not be validated.\n   ** Warning ** ProcessScheduleInput: Schedule:Day:Interval=\"SCHEDULE DAY 73\", Blank Schedule Type Limits Name input -- will not be validated.\n   ** Warning ** ProcessScheduleInput: Schedule:Day:Interval=\"SCHEDULE DAY 74\", Blank Schedule Type Limits Name input -- will not be validated.\n   ** Warning ** ProcessScheduleInput: Schedule:Day:Interval=\"SCHEDULE DAY 75\", Blank Schedule Type Limits Name input -- will not be validated.\n   ** Warning ** ProcessScheduleInput: Schedule:Day:Interval=\"SCHEDULE DAY 76\", Blank Schedule Type Limits Name input -- will not be validated.\n   ** Warning ** ProcessScheduleInput: Schedule:Day:Interval=\"SCHEDULE DAY 77\", Blank Schedule Type Limits Name input -- will not be validated.\n   ** Warning ** ProcessScheduleInput: Schedule:Day:Interval=\"SCHEDULE DAY 78\", Blank Schedule Type Limits Name input -- will not be validated.\n   ** Warning ** ProcessScheduleInput: Schedule:Day:Interval=\"SCHEDULE DAY 8\", Blank Schedule Type Limits Name input -- will not be validated.\n   ** Warning ** ProcessScheduleInput: Schedule:Day:Interval=\"SCHEDULE DAY 9\", Blank Schedule Type Limits Name input -- will not be validated.\n   ** Warning ** ProcessScheduleInput: Schedule:Year=\"ECONOMIZER MAX OA FRACTION 100 PCT\", Blank Schedule Type Limits Name input -- will not be validated.\n   ** Warning ** ProcessScheduleInput: Schedule:Year=\"SCHEDULE RULESET 10\", Blank Schedule Type Limits Name input -- will not be validated.\n   ** Warning ** ProcessScheduleInput: Schedule:Year=\"SCHEDULE RULESET 11\", Blank Schedule Type Limits Name input -- will not be validated.\n   ** Warning ** ProcessScheduleInput: Schedule:Year=\"SCHEDULE RULESET 12\", Blank Schedule Type Limits Name input -- will not be validated.\n   ** Warning ** ProcessScheduleInput: Schedule:Year=\"SCHEDULE RULESET 13\", Blank Schedule Type Limits Name input -- will not be validated.\n   ** Warning ** ProcessScheduleInput: Schedule:Year=\"SCHEDULE RULESET 14\", Blank Schedule Type Limits Name input -- will not be validated.\n   ** Warning ** ProcessScheduleInput: Schedule:Year=\"SCHEDULE RULESET 15\", Blank Schedule Type Limits Name input -- will not be validated.\n   ** Warning ** ProcessScheduleInput: Schedule:Year=\"SCHEDULE RULESET 16\", Blank Schedule Type Limits Name input -- will not be validated.\n   ** Warning ** ProcessScheduleInput: Schedule:Year=\"SCHEDULE RULESET 17\", Blank Schedule Type Limits Name input -- will not be validated.\n   ** Warning ** ProcessScheduleInput: Schedule:Year=\"SCHEDULE RULESET 18\", Blank Schedule Type Limits Name input -- will not be validated.\n   ** Warning ** ProcessScheduleInput: Schedule:Year=\"SCHEDULE RULESET 19\", Blank Schedule Type Limits Name input -- will not be validated.\n   ** Warning ** ProcessScheduleInput: Schedule:Year=\"SCHEDULE RULESET 20\", Blank Schedule Type Limits Name input -- will not be validated.\n   ** Warning ** ProcessScheduleInput: Schedule:Year=\"SCHEDULE RULESET 21\", Blank Schedule Type Limits Name input -- will not be validated.\n   ** Warning ** ProcessScheduleInput: Schedule:Year=\"SCHEDULE RULESET 22\", Blank Schedule Type Limits Name input -- will not be validated.\n   ** Warning ** ProcessScheduleInput: Schedule:Year=\"SCHEDULE RULESET 23\", Blank Schedule Type Limits Name input -- will not be validated.\n   ** Warning ** ProcessScheduleInput: Schedule:Year=\"SCHEDULE RULESET 24\", Blank Schedule Type Limits Name input -- will not be validated.\n   ** Warning ** ProcessScheduleInput: Schedule:Year=\"SCHEDULE RULESET 25\", Blank Schedule Type Limits Name input -- will not be validated.\n   ** Warning ** ProcessScheduleInput: Schedule:Year=\"SCHEDULE RULESET 26\", Blank Schedule Type Limits Name input -- will not be validated.\n   ** Warning ** ProcessScheduleInput: Schedule:Year=\"SCHEDULE RULESET 27\", Blank Schedule Type Limits Name input -- will not be validated.\n   ** Warning ** ProcessScheduleInput: Schedule:Year=\"SCHEDULE RULESET 28\", Blank Schedule Type Limits Name input -- will not be validated.\n   ** Warning ** ProcessScheduleInput: Schedule:Year=\"SCHEDULE RULESET 29\", Blank Schedule Type Limits Name input -- will not be validated.\n   ** Warning ** ProcessScheduleInput: Schedule:Year=\"SCHEDULE RULESET 3\", Blank Schedule Type Limits Name input -- will not be validated.\n   ** Warning ** ProcessScheduleInput: Schedule:Year=\"SCHEDULE RULESET 30\", Blank Schedule Type Limits Name input -- will not be validated.\n   ** Warning ** ProcessScheduleInput: Schedule:Year=\"SCHEDULE RULESET 31\", Blank Schedule Type Limits Name input -- will not be validated.\n   ** Warning ** ProcessScheduleInput: Schedule:Year=\"SCHEDULE RULESET 32\", Blank Schedule Type Limits Name input -- will not be validated.\n   ** Warning ** ProcessScheduleInput: Schedule:Year=\"SCHEDULE RULESET 33\", Blank Schedule Type Limits Name input -- will not be validated.\n   ** Warning ** ProcessScheduleInput: Schedule:Year=\"SCHEDULE RULESET 34\", Blank Schedule Type Limits Name input -- will not be validated.\n   ** Warning ** ProcessScheduleInput: Schedule:Year=\"SCHEDULE RULESET 35\", Blank Schedule Type Limits Name input -- will not be validated.\n   ** Warning ** ProcessScheduleInput: Schedule:Year=\"SCHEDULE RULESET 36\", Blank Schedule Type Limits Name input -- will not be validated.\n   ** Warning ** ProcessScheduleInput: Schedule:Year=\"SCHEDULE RULESET 37\", Blank Schedule Type Limits Name input -- will not be validated.\n   ** Warning ** ProcessScheduleInput: Schedule:Year=\"SCHEDULE RULESET 38\", Blank Schedule Type Limits Name input -- will not be validated.\n   ** Warning ** ProcessScheduleInput: Schedule:Year=\"SCHEDULE RULESET 39\", Blank Schedule Type Limits Name input -- will not be validated.\n   ** Warning ** ProcessScheduleInput: Schedule:Year=\"SCHEDULE RULESET 4\", Blank Schedule Type Limits Name input -- will not be validated.\n   ** Warning ** ProcessScheduleInput: Schedule:Year=\"SCHEDULE RULESET 40\", Blank Schedule Type Limits Name input -- will not be validated.\n   ** Warning ** ProcessScheduleInput: Schedule:Year=\"SCHEDULE RULESET 41\", Blank Schedule Type Limits Name input -- will not be validated.\n   ** Warning ** ProcessScheduleInput: Schedule:Year=\"SCHEDULE RULESET 42\", Blank Schedule Type Limits Name input -- will not be validated.\n   ** Warning ** ProcessScheduleInput: Schedule:Year=\"SCHEDULE RULESET 43\", Blank Schedule Type Limits Name input -- will not be validated.\n   ** Warning ** ProcessScheduleInput: Schedule:Year=\"SCHEDULE RULESET 44\", Blank Schedule Type Limits Name input -- will not be validated.\n   ** Warning ** ProcessScheduleInput: Schedule:Year=\"SCHEDULE RULESET 45\", Blank Schedule Type Limits Name input -- will not be validated.\n   ** Warning ** ProcessScheduleInput: Schedule:Year=\"SCHEDULE RULESET 46\", Blank Schedule Type Limits Name input -- will not be validated.\n   ** Warning ** ProcessScheduleInput: Schedule:Year=\"SCHEDULE RULESET 47\", Blank Schedule Type Limits Name input -- will not be validated.\n   ** Warning ** ProcessScheduleInput: Schedule:Year=\"SCHEDULE RULESET 48\", Blank Schedule Type Limits Name input -- will not be validated.\n   ** Warning ** ProcessScheduleInput: Schedule:Year=\"SCHEDULE RULESET 49\", Blank Schedule Type Limits Name input -- will not be validated.\n   ** Warning ** ProcessScheduleInput: Schedule:Year=\"SCHEDULE RULESET 5\", Blank Schedule Type Limits Name input -- will not be validated.\n   ** Warning ** ProcessScheduleInput: Schedule:Year=\"SCHEDULE RULESET 50\", Blank Schedule Type Limits Name input -- will not be validated.\n   ** Warning ** ProcessScheduleInput: Schedule:Year=\"SCHEDULE RULESET 51\", Blank Schedule Type Limits Name input -- will not be validated.\n   ** Warning ** ProcessScheduleInput: Schedule:Year=\"SCHEDULE RULESET 52\", Blank Schedule Type Limits Name input -- will not be validated.\n   ** Warning ** ProcessScheduleInput: Schedule:Year=\"SCHEDULE RULESET 53\", Blank Schedule Type Limits Name input -- will not be validated.\n   ** Warning ** ProcessScheduleInput: Schedule:Year=\"SCHEDULE RULESET 54\", Blank Schedule Type Limits Name input -- will not be validated.\n   ** Warning ** ProcessScheduleInput: Schedule:Year=\"SCHEDULE RULESET 55\", Blank Schedule Type Limits Name input -- will not be validated.\n   ** Warning ** ProcessScheduleInput: Schedule:Year=\"SCHEDULE RULESET 56\", Blank Schedule Type Limits Name input -- will not be validated.\n   ** Warning ** ProcessScheduleInput: Schedule:Year=\"SCHEDULE RULESET 57\", Blank Schedule Type Limits Name input -- will not be validated.\n   ** Warning ** ProcessScheduleInput: Schedule:Year=\"SCHEDULE RULESET 58\", Blank Schedule Type Limits Name input -- will not be validated.\n   ** Warning ** ProcessScheduleInput: Schedule:Year=\"SCHEDULE RULESET 59\", Blank Schedule Type Limits Name input -- will not be validated.\n   ** Warning ** ProcessScheduleInput: Schedule:Year=\"SCHEDULE RULESET 6\", Blank Schedule Type Limits Name input -- will not be validated.\n   ** Warning ** ProcessScheduleInput: Schedule:Year=\"SCHEDULE RULESET 7\", Blank Schedule Type Limits Name input -- will not be validated.\n   ** Warning ** ProcessScheduleInput: Schedule:Year=\"SCHEDULE RULESET 8\", Blank Schedule Type Limits Name input -- will not be validated.\n   ** Warning ** ProcessScheduleInput: Schedule:Year=\"SCHEDULE RULESET 9\", Blank Schedule Type Limits Name input -- will not be validated.\n   ** Warning ** ProcessScheduleInput: Schedule:Constant=\"ALWAYS OFF DISCRETE\", Blank Schedule Type Limits Name input -- will not be validated.\n   ** Warning ** ProcessScheduleInput: Schedule:Constant=\"ALWAYS ON CONTINUOUS\", Blank Schedule Type Limits Name input -- will not be validated.\n   ** Warning ** CheckUsedConstructions: There are 23 nominally unused constructions in input.\n   **   ~~~   ** For explicit details on each unused construction, use Output:Diagnostics,DisplayExtraWarnings;\n   ** Warning ** GetInternalHeatGains: ElectricEquipment Combination of ZoneList and Object Name generate a name too long.\n   **   ~~~   ** Object Name=\"SPACE FUNCTION HOSPITAL - LAUNDRY/WASHING ELEC EQUIP\".\n   **   ~~~   ** ZoneList/Zone Name=\"SP-LAUNDRY_FLR_1 SYS-3 FLR-1 SCH-C HPLCMT-EAST ZN\".\n   **   ~~~   ** Item length=[101] > Maximum Length=[100]. You may need to shorten the names.\n   **   ~~~   ** Shortening the Object Name by [2] characters will assure uniqueness for this ZoneList.\n   **   ~~~   ** name that will be used (may be needed in reporting)=\"SP-LAUNDRY_FLR_1 SYS-3 FLR-1 SCH-C HPLCMT-EAST ZN SPACE FUNCTION HOSPITAL - LAUNDRY/WASHING ELEC EQUIP\".\n   ** Warning ** GetInternalHeatGains: ElectricEquipment Combination of ZoneList and Object Name generate a name too long.\n   **   ~~~   ** Object Name=\"SPACE FUNCTION HOTEL/MOTEL - ROOMS ELEC EQUIP\".\n   **   ~~~   ** ZoneList/Zone Name=\"SP-ROOM_3_MULT19_FLR_3 SYS-1 FLR-2 SCH-F HPLCMT-SOUTH ZN\".\n   **   ~~~   ** Item length=[101] > Maximum Length=[100]. You may need to shorten the names.\n   **   ~~~   ** Shortening the Object Name by [2] characters will assure uniqueness for this ZoneList.\n   **   ~~~   ** name that will be used (may be needed in reporting)=\"SP-ROOM_3_MULT19_FLR_3 SYS-1 FLR-2 SCH-F HPLCMT-SOUTH ZN SPACE FUNCTION HOTEL/MOTEL - ROOMS ELEC EQUIP\".\n   ** Warning ** GetInternalHeatGains: ElectricEquipment Combination of ZoneList and Object Name generate a name too long.\n   **   ~~~   ** Object Name=\"SPACE FUNCTION HOTEL/MOTEL - ROOMS ELEC EQUIP\".\n   **   ~~~   ** ZoneList/Zone Name=\"SP-ROOM_4_MULT19_FLR_3 SYS-1 FLR-2 SCH-F HPLCMT-NORTH ZN\".\n   **   ~~~   ** Item length=[101] > Maximum Length=[100]. You may need to shorten the names.\n   **   ~~~   ** Shortening the Object Name by [2] characters will assure uniqueness for this ZoneList.\n   **   ~~~   ** name that will be used (may be needed in reporting)=\"SP-ROOM_4_MULT19_FLR_3 SYS-1 FLR-2 SCH-F HPLCMT-NORTH ZN SPACE FUNCTION HOTEL/MOTEL - ROOMS ELEC EQUIP\".\n   ** Warning ** Calculated design heating load for zone=SP-BASEMENT SYS-4 FLR-3 SCH-E HPLCMT-NORTH ZN is zero.\n   **   ~~~   ** Check Sizing:Zone and ZoneControl:Thermostat inputs.\n   ** Warning ** Calculated design heating load for zone=SP-LOBBY_FLR_1 SYS-6 FLR-1 SCH-H HPLCMT-NORTH ZN is zero.\n   **   ~~~   ** Check Sizing:Zone and ZoneControl:Thermostat inputs.\n   ** Warning ** Calculated design heating load for zone=SP-MECH_FLR_1 SYS-6 FLR-1 SCH-E HPLCMT-NORTH ZN is zero.\n   **   ~~~   ** Check Sizing:Zone and ZoneControl:Thermostat inputs.\n   ** Warning ** Calculated design heating load for zone=SP-STORAGE_FLR_1 SYS-4 FLR-1 SCH-E HPLCMT-NORTH ZN is zero.\n   **   ~~~   ** Check Sizing:Zone and ZoneControl:Thermostat inputs.\n   ************* Beginning System Sizing Calculations\n   ** Warning ** Since Zone Minimum Air Flow Input Method = CONSTANT, input for Fixed Minimum Air Flow Rate will be ignored.\n   **   ~~~   ** Occurs in AirTerminal:SingleDuct:VAV:Reheat = AIR TERMINAL SINGLE DUCT VAV REHEAT 2\n   ** Warning ** Since Zone Minimum Air Flow Input Method = CONSTANT, input for Fixed Minimum Air Flow Rate will be ignored.\n   **   ~~~   ** Occurs in AirTerminal:SingleDuct:VAV:Reheat = AIR TERMINAL SINGLE DUCT VAV REHEAT 3\n   ** Warning ** Since Zone Minimum Air Flow Input Method = CONSTANT, input for Fixed Minimum Air Flow Rate will be ignored.\n   **   ~~~   ** Occurs in AirTerminal:SingleDuct:VAV:Reheat = AIR TERMINAL SINGLE DUCT VAV REHEAT 4\n   ** Warning ** Since Zone Minimum Air Flow Input Method = CONSTANT, input for Fixed Minimum Air Flow Rate will be ignored.\n   **   ~~~   ** Occurs in AirTerminal:SingleDuct:VAV:Reheat = AIR TERMINAL SINGLE DUCT VAV REHEAT 1\n   ** Warning ** Since Zone Minimum Air Flow Input Method = CONSTANT, input for Fixed Minimum Air Flow Rate will be ignored.\n   **   ~~~   ** Occurs in AirTerminal:SingleDuct:VAV:Reheat = AIR TERMINAL SINGLE DUCT VAV REHEAT 5\n   ** Warning ** GetDXCoils: Coil:Cooling:DX:SingleSpeed=\"COIL COOLING DX SINGLE SPEED 8 49KBTU/HR 9.3EER\", invalid\n   **   ~~~   ** ...Part Load Fraction Correlation Curve Name = DXCOOL-NECB2011-REF-COOLPLFFPLR 16 has out of range value.\n   **   ~~~   ** ...Curve maximum must be <= 1.0, curve max at PLR = 0.99 is 1.015\n   **   ~~~   ** ...Setting curve maximum to 1.0 and simulation continues.\n   ** Warning ** GetDXCoils: Coil:Cooling:DX:SingleSpeed=\"COIL COOLING DX SINGLE SPEED 5 16KBTU/HR 9.3EER\", invalid\n   **   ~~~   ** ...Part Load Fraction Correlation Curve Name = DXCOOL-NECB2011-REF-COOLPLFFPLR 13 has out of range value.\n   **   ~~~   ** ...Curve maximum must be <= 1.0, curve max at PLR = 0.99 is 1.015\n   **   ~~~   ** ...Setting curve maximum to 1.0 and simulation continues.\n   ** Warning ** GetDXCoils: Coil:Cooling:DX:SingleSpeed=\"COIL COOLING DX SINGLE SPEED 9 19KBTU/HR 9.3EER\", invalid\n   **   ~~~   ** ...Part Load Fraction Correlation Curve Name = DXCOOL-NECB2011-REF-COOLPLFFPLR 17 has out of range value.\n   **   ~~~   ** ...Curve maximum must be <= 1.0, curve max at PLR = 0.99 is 1.015\n   **   ~~~   ** ...Setting curve maximum to 1.0 and simulation continues.\n   ** Warning ** GetDXCoils: Coil:Cooling:DX:SingleSpeed=\"COIL COOLING DX SINGLE SPEED 6 16KBTU/HR 9.3EER\", invalid\n   **   ~~~   ** ...Part Load Fraction Correlation Curve Name = DXCOOL-NECB2011-REF-COOLPLFFPLR 14 has out of range value.\n   **   ~~~   ** ...Curve maximum must be <= 1.0, curve max at PLR = 0.99 is 1.015\n   **   ~~~   ** ...Setting curve maximum to 1.0 and simulation continues.\n   ** Warning ** GetDXCoils: Coil:Cooling:DX:SingleSpeed=\"COIL COOLING DX SINGLE SPEED 10 18KBTU/HR 9.3EER\", invalid\n   **   ~~~   ** ...Part Load Fraction Correlation Curve Name = DXCOOL-NECB2011-REF-COOLPLFFPLR 1 has out of range value.\n   **   ~~~   ** ...Curve maximum must be <= 1.0, curve max at PLR = 0.99 is 1.015\n   **   ~~~   ** ...Setting curve maximum to 1.0 and simulation continues.\n   ** Warning ** GetDXCoils: Coil:Cooling:DX:SingleSpeed=\"COIL COOLING DX SINGLE SPEED 7 4KBTU/HR 11.0EER\", invalid\n   **   ~~~   ** ...Part Load Fraction Correlation Curve Name = DXCOOL-NECB2011-REF-COOLPLFFPLR 15 has out of range value.\n   **   ~~~   ** ...Curve maximum must be <= 1.0, curve max at PLR = 0.99 is 1.015\n   **   ~~~   ** ...Setting curve maximum to 1.0 and simulation continues.\n   ** Warning ** GetDXCoils: Coil:Cooling:DX:SingleSpeed=\"COIL COOLING DX SINGLE SPEED 11 7KBTU/HR 10.9EER\", invalid\n   **   ~~~   ** ...Part Load Fraction Correlation Curve Name = DXCOOL-NECB2011-REF-COOLPLFFPLR 2 has out of range value.\n   **   ~~~   ** ...Curve maximum must be <= 1.0, curve max at PLR = 0.99 is 1.015\n   **   ~~~   ** ...Setting curve maximum to 1.0 and simulation continues.\n   ** Warning ** GetDXCoils: Coil:Cooling:DX:SingleSpeed=\"COIL COOLING DX SINGLE SPEED 2 2KBTU/HR 11.0EER\", invalid\n   **   ~~~   ** ...Part Load Fraction Correlation Curve Name = DXCOOL-NECB2011-REF-COOLPLFFPLR 10 has out of range value.\n   **   ~~~   ** ...Curve maximum must be <= 1.0, curve max at PLR = 0.99 is 1.015\n   **   ~~~   ** ...Setting curve maximum to 1.0 and simulation continues.\n   ** Warning ** GetDXCoils: Coil:Cooling:DX:SingleSpeed=\"COIL COOLING DX SINGLE SPEED 4 15KBTU/HR 9.3EER\", invalid\n   **   ~~~   ** ...Part Load Fraction Correlation Curve Name = DXCOOL-NECB2011-REF-COOLPLFFPLR 12 has out of range value.\n   **   ~~~   ** ...Curve maximum must be <= 1.0, curve max at PLR = 0.99 is 1.015\n   **   ~~~   ** ...Setting curve maximum to 1.0 and simulation continues.\n   ** Warning ** GetDXCoils: Coil:Cooling:DX:SingleSpeed=\"COIL COOLING DX SINGLE SPEED 3 15KBTU/HR 9.3EER\", invalid\n   **   ~~~   ** ...Part Load Fraction Correlation Curve Name = DXCOOL-NECB2011-REF-COOLPLFFPLR 11 has out of range value.\n   **   ~~~   ** ...Curve maximum must be <= 1.0, curve max at PLR = 0.99 is 1.015\n   **   ~~~   ** ...Setting curve maximum to 1.0 and simulation continues.\n   ** Warning ** GetDXCoils: Coil:Cooling:DX:SingleSpeed=\"COIL COOLING DX SINGLE SPEED 1 260KBTU/HR 8.21EER\", invalid\n   **   ~~~   ** ...Part Load Fraction Correlation Curve Name = DXCOOL-NECB2011-REF-COOLPLFFPLR has out of range value.\n   **   ~~~   ** ...Curve maximum must be <= 1.0, curve max at PLR = 0.99 is 1.015\n   **   ~~~   ** ...Setting curve maximum to 1.0 and simulation continues.\n   ** Warning ** GetDXCoils: Coil:Cooling:DX:SingleSpeed=\"COIL COOLING DX SINGLE SPEED 14 101KBTU/HR 9.7EER\", invalid\n   **   ~~~   ** ...Part Load Fraction Correlation Curve Name = DXCOOL-NECB2011-REF-COOLPLFFPLR 5 has out of range value.\n   **   ~~~   ** ...Curve maximum must be <= 1.0, curve max at PLR = 0.99 is 1.015\n   **   ~~~   ** ...Setting curve maximum to 1.0 and simulation continues.\n   ** Warning ** GetDXCoils: Coil:Cooling:DX:SingleSpeed=\"COIL COOLING DX SINGLE SPEED 18 89KBTU/HR 9.7EER\", invalid\n   **   ~~~   ** ...Part Load Fraction Correlation Curve Name = DXCOOL-NECB2011-REF-COOLPLFFPLR 9 has out of range value.\n   **   ~~~   ** ...Curve maximum must be <= 1.0, curve max at PLR = 0.99 is 1.015\n   **   ~~~   ** ...Setting curve maximum to 1.0 and simulation continues.\n   ** Warning ** GetDXCoils: Coil:Cooling:DX:SingleSpeed=\"COIL COOLING DX SINGLE SPEED 13 57KBTU/HR 14.0SEER\", invalid\n   **   ~~~   ** ...Part Load Fraction Correlation Curve Name = DXCOOL-NECB2011-REF-COOLPLFFPLR 4 has out of range value.\n   **   ~~~   ** ...Curve maximum must be <= 1.0, curve max at PLR = 0.99 is 1.015\n   **   ~~~   ** ...Setting curve maximum to 1.0 and simulation continues.\n   ** Warning ** GetDXCoils: Coil:Cooling:DX:SingleSpeed=\"COIL COOLING DX SINGLE SPEED 15 101KBTU/HR 9.7EER\", invalid\n   **   ~~~   ** ...Part Load Fraction Correlation Curve Name = DXCOOL-NECB2011-REF-COOLPLFFPLR 6 has out of range value.\n   **   ~~~   ** ...Curve maximum must be <= 1.0, curve max at PLR = 0.99 is 1.015\n   **   ~~~   ** ...Setting curve maximum to 1.0 and simulation continues.\n   ** Warning ** GetDXCoils: Coil:Cooling:DX:SingleSpeed=\"COIL COOLING DX SINGLE SPEED 16 38KBTU/HR 14.0SEER\", invalid\n   **   ~~~   ** ...Part Load Fraction Correlation Curve Name = DXCOOL-NECB2011-REF-COOLPLFFPLR 7 has out of range value.\n   **   ~~~   ** ...Curve maximum must be <= 1.0, curve max at PLR = 0.99 is 1.015\n   **   ~~~   ** ...Setting curve maximum to 1.0 and simulation continues.\n   ** Warning ** GetDXCoils: Coil:Cooling:DX:SingleSpeed=\"COIL COOLING DX SINGLE SPEED 12 18KBTU/HR 14.0SEER\", invalid\n   **   ~~~   ** ...Part Load Fraction Correlation Curve Name = DXCOOL-NECB2011-REF-COOLPLFFPLR 3 has out of range value.\n   **   ~~~   ** ...Curve maximum must be <= 1.0, curve max at PLR = 0.99 is 1.015\n   **   ~~~   ** ...Setting curve maximum to 1.0 and simulation continues.\n   ** Warning ** GetDXCoils: Coil:Cooling:DX:SingleSpeed=\"COIL COOLING DX SINGLE SPEED 17 6KBTU/HR 14.0SEER\", invalid\n   **   ~~~   ** ...Part Load Fraction Correlation Curve Name = DXCOOL-NECB2011-REF-COOLPLFFPLR 8 has out of range value.\n   **   ~~~   ** ...Curve maximum must be <= 1.0, curve max at PLR = 0.99 is 1.015\n   **   ~~~   ** ...Setting curve maximum to 1.0 and simulation continues.\n   ************* Beginning Plant Sizing Calculations\n   ** Warning ** The Standard Ratings is calculated for Coil:Cooling:DX:SingleSpeed = COIL COOLING DX SINGLE SPEED 8 49KBTU/HR 9.3EER but not at the AHRI test condition due to curve out of bound.\n   **   ~~~   **  Review the Standard Ratings calculations in the Engineering Reference for this coil type. Also, use Output:Diagnostics, DisplayExtraWarnings for further guidance.\n   ** Warning ** The Standard Ratings is calculated for Coil:Cooling:DX:SingleSpeed = COIL COOLING DX SINGLE SPEED 5 16KBTU/HR 9.3EER but not at the AHRI test condition due to curve out of bound.\n   **   ~~~   **  Review the Standard Ratings calculations in the Engineering Reference for this coil type. Also, use Output:Diagnostics, DisplayExtraWarnings for further guidance.\n   ** Warning ** The Standard Ratings is calculated for Coil:Cooling:DX:SingleSpeed = COIL COOLING DX SINGLE SPEED 9 19KBTU/HR 9.3EER but not at the AHRI test condition due to curve out of bound.\n   **   ~~~   **  Review the Standard Ratings calculations in the Engineering Reference for this coil type. Also, use Output:Diagnostics, DisplayExtraWarnings for further guidance.\n   ** Warning ** The Standard Ratings is calculated for Coil:Cooling:DX:SingleSpeed = COIL COOLING DX SINGLE SPEED 6 16KBTU/HR 9.3EER but not at the AHRI test condition due to curve out of bound.\n   **   ~~~   **  Review the Standard Ratings calculations in the Engineering Reference for this coil type. Also, use Output:Diagnostics, DisplayExtraWarnings for further guidance.\n   ** Warning ** The Standard Ratings is calculated for Coil:Cooling:DX:SingleSpeed = COIL COOLING DX SINGLE SPEED 10 18KBTU/HR 9.3EER but not at the AHRI test condition due to curve out of bound.\n   **   ~~~   **  Review the Standard Ratings calculations in the Engineering Reference for this coil type. Also, use Output:Diagnostics, DisplayExtraWarnings for further guidance.\n   ** Warning ** The Standard Ratings is calculated for Coil:Cooling:DX:SingleSpeed = COIL COOLING DX SINGLE SPEED 7 4KBTU/HR 11.0EER but not at the AHRI test condition due to curve out of bound.\n   **   ~~~   **  Review the Standard Ratings calculations in the Engineering Reference for this coil type. Also, use Output:Diagnostics, DisplayExtraWarnings for further guidance.\n   ** Warning ** The Standard Ratings is calculated for Coil:Cooling:DX:SingleSpeed = COIL COOLING DX SINGLE SPEED 11 7KBTU/HR 10.9EER but not at the AHRI test condition due to curve out of bound.\n   **   ~~~   **  Review the Standard Ratings calculations in the Engineering Reference for this coil type. Also, use Output:Diagnostics, DisplayExtraWarnings for further guidance.\n   ** Warning ** The Standard Ratings is calculated for Coil:Cooling:DX:SingleSpeed = COIL COOLING DX SINGLE SPEED 2 2KBTU/HR 11.0EER but not at the AHRI test condition due to curve out of bound.\n   **   ~~~   **  Review the Standard Ratings calculations in the Engineering Reference for this coil type. Also, use Output:Diagnostics, DisplayExtraWarnings for further guidance.\n   ** Warning ** The Standard Ratings is calculated for Coil:Cooling:DX:SingleSpeed = COIL COOLING DX SINGLE SPEED 4 15KBTU/HR 9.3EER but not at the AHRI test condition due to curve out of bound.\n   **   ~~~   **  Review the Standard Ratings calculations in the Engineering Reference for this coil type. Also, use Output:Diagnostics, DisplayExtraWarnings for further guidance.\n   ** Warning ** The Standard Ratings is calculated for Coil:Cooling:DX:SingleSpeed = COIL COOLING DX SINGLE SPEED 3 15KBTU/HR 9.3EER but not at the AHRI test condition due to curve out of bound.\n   **   ~~~   **  Review the Standard Ratings calculations in the Engineering Reference for this coil type. Also, use Output:Diagnostics, DisplayExtraWarnings for further guidance.\n   ** Warning ** The Standard Ratings is calculated for Coil:Cooling:DX:SingleSpeed = COIL COOLING DX SINGLE SPEED 1 260KBTU/HR 8.21EER but not at the AHRI test condition due to curve out of bound.\n   **   ~~~   **  Review the Standard Ratings calculations in the Engineering Reference for this coil type. Also, use Output:Diagnostics, DisplayExtraWarnings for further guidance.\n   ** Warning ** The Standard Ratings is calculated for Coil:Cooling:DX:SingleSpeed = COIL COOLING DX SINGLE SPEED 14 101KBTU/HR 9.7EER but not at the AHRI test condition due to curve out of bound.\n   **   ~~~   **  Review the Standard Ratings calculations in the Engineering Reference for this coil type. Also, use Output:Diagnostics, DisplayExtraWarnings for further guidance.\n   ** Warning ** The Standard Ratings is calculated for Coil:Cooling:DX:SingleSpeed = COIL COOLING DX SINGLE SPEED 18 89KBTU/HR 9.7EER but not at the AHRI test condition due to curve out of bound.\n   **   ~~~   **  Review the Standard Ratings calculations in the Engineering Reference for this coil type. Also, use Output:Diagnostics, DisplayExtraWarnings for further guidance.\n   ** Warning ** The Standard Ratings is calculated for Coil:Cooling:DX:SingleSpeed = COIL COOLING DX SINGLE SPEED 13 57KBTU/HR 14.0SEER but not at the AHRI test condition due to curve out of bound.\n   **   ~~~   **  Review the Standard Ratings calculations in the Engineering Reference for this coil type. Also, use Output:Diagnostics, DisplayExtraWarnings for further guidance.\n   ** Warning ** The Standard Ratings is calculated for Coil:Cooling:DX:SingleSpeed = COIL COOLING DX SINGLE SPEED 15 101KBTU/HR 9.7EER but not at the AHRI test condition due to curve out of bound.\n   **   ~~~   **  Review the Standard Ratings calculations in the Engineering Reference for this coil type. Also, use Output:Diagnostics, DisplayExtraWarnings for further guidance.\n   ** Warning ** The Standard Ratings is calculated for Coil:Cooling:DX:SingleSpeed = COIL COOLING DX SINGLE SPEED 16 38KBTU/HR 14.0SEER but not at the AHRI test condition due to curve out of bound.\n   **   ~~~   **  Review the Standard Ratings calculations in the Engineering Reference for this coil type. Also, use Output:Diagnostics, DisplayExtraWarnings for further guidance.\n   ** Warning ** The Standard Ratings is calculated for Coil:Cooling:DX:SingleSpeed = COIL COOLING DX SINGLE SPEED 12 18KBTU/HR 14.0SEER but not at the AHRI test condition due to curve out of bound.\n   **   ~~~   **  Review the Standard Ratings calculations in the Engineering Reference for this coil type. Also, use Output:Diagnostics, DisplayExtraWarnings for further guidance.\n   ** Warning ** The Standard Ratings is calculated for Coil:Cooling:DX:SingleSpeed = COIL COOLING DX SINGLE SPEED 17 6KBTU/HR 14.0SEER but not at the AHRI test condition due to curve out of bound.\n   **   ~~~   **  Review the Standard Ratings calculations in the Engineering Reference for this coil type. Also, use Output:Diagnostics, DisplayExtraWarnings for further guidance.\n   ** Warning ** Missing temperature setpoint for LeavingSetpointModulated mode chiller named PRIMARY CHILLER WATERCOOLED SCROLL 34TONS 0.8KW/TON\n   **   ~~~   **   A temperature setpoint is needed at the outlet node of a chiller in variable flow mode, use a SetpointManager\n   **   ~~~   **   The overall loop setpoint will be assumed for chiller. The simulation continues ... \n   ** Warning ** Missing temperature setpoint for LeavingSetpointModulated mode chiller named SECONDARY CHILLER WATERCOOLED SCROLL 0TONS 0.8KW/TON\n   **   ~~~   **   A temperature setpoint is needed at the outlet node of a chiller in variable flow mode, use a SetpointManager\n   **   ~~~   **   The overall loop setpoint will be assumed for chiller. The simulation continues ... \n   ** Warning ** Missing temperature setpoint for LeavingSetpointModulated mode Boiler named PRIMARY BOILER 2440KBTU/HR 0.83 THERMAL EFF\n   **   ~~~   **   A temperature setpoint is needed at the outlet node of a boiler in variable flow mode, use a SetpointManager\n   **   ~~~   **   The overall loop setpoint will be assumed for Boiler. The simulation continues ... \n   ** Warning ** Output:Meter: invalid Name=\"DISTRICTCOOLING:FACILITY\" - not found.\n   ** Warning ** Output:Meter: invalid Name=\"DISTRICTHEATING:FACILITY\" - not found.\n   ** Warning ** Output:Meter:MeterFileOnly requested for \"Electricity:Facility\" (TimeStep), already on \"Output:Meter\". Will report to both eplusout.eso and eplusout.mtr\n   ************* Testing Individual Branch Integrity\n   ************* All Branches passed integrity testing\n   ************* Testing Individual Supply Air Path Integrity\n   ************* All Supply Air Paths passed integrity testing\n   ************* Testing Individual Return Air Path Integrity\n   ************* All Return Air Paths passed integrity testing\n   ************* No node connection errors were found.\n   ************* Beginning Simulation\n   ** Warning ** CalcDoe2DXCoil: Coil:Cooling:DX:SingleSpeed \"COIL COOLING DX SINGLE SPEED 16 38KBTU/HR 14.0SEER\" - Air-cooled condenser inlet dry-bulb temperature below 0 C. Outdoor dry-bulb temperature = -6.30\n   **   ~~~   **  ... Occurrence info = RUN PERIOD 1, 01/01 01:02 - 01:03\n   **   ~~~   ** ... Operation at low ambient temperatures may require special performance curves.\n   ** Warning ** CalcDoe2DXCoil: Coil:Cooling:DX:SingleSpeed \"COIL COOLING DX SINGLE SPEED 16 38KBTU/HR 14.0SEER\" - Full load outlet air dry-bulb temperature < 2C. This indicates the possibility of coil frost/freeze. Outlet temperature = 1.84 C.\n   **   ~~~   **  ...Occurrence info = RUN PERIOD 1, 01/01 01:02 - 01:03\n   **   ~~~   ** ... Possible reasons for low outlet air dry-bulb temperatures are: This DX coil\n   **   ~~~   **    1) may have a low inlet air dry-bulb temperature. Inlet air temperature = 15.522 C.\n   **   ~~~   **    2) may have a low air flow rate per watt of cooling capacity. Check inputs.\n   **   ~~~   **    3) is used as part of a HX assisted cooling coil which uses a high sensible effectiveness. Check inputs.\n   ** Warning ** CalcDoe2DXCoil: Coil:Cooling:DX:SingleSpeed \"COIL COOLING DX SINGLE SPEED 13 57KBTU/HR 14.0SEER\" - Air-cooled condenser inlet dry-bulb temperature below 0 C. Outdoor dry-bulb temperature = -4.55\n   **   ~~~   **  ... Occurrence info = RUN PERIOD 1, 01/02 07:02 - 07:04\n   **   ~~~   ** ... Operation at low ambient temperatures may require special performance curves.\n   ** Warning ** CalcDoe2DXCoil: Coil:Cooling:DX:SingleSpeed \"COIL COOLING DX SINGLE SPEED 17 6KBTU/HR 14.0SEER\" - Air-cooled condenser inlet dry-bulb temperature below 0 C. Outdoor dry-bulb temperature = -3.30\n   **   ~~~   **  ... Occurrence info = RUN PERIOD 1, 01/02 19:15 - 19:18\n   **   ~~~   ** ... Operation at low ambient temperatures may require special performance curves.\n   ** Warning ** CalcDoe2DXCoil: Coil:Cooling:DX:SingleSpeed \"COIL COOLING DX SINGLE SPEED 17 6KBTU/HR 14.0SEER\" - Full load outlet air dry-bulb temperature < 2C. This indicates the possibility of coil frost/freeze. Outlet temperature = -3.02 C.\n   **   ~~~   **  ...Occurrence info = RUN PERIOD 1, 01/02 19:15 - 19:18\n   **   ~~~   ** ... Possible reasons for low outlet air dry-bulb temperatures are: This DX coil\n   **   ~~~   **    1) may have a low inlet air dry-bulb temperature. Inlet air temperature = 12.455 C.\n   **   ~~~   **    2) may have a low air flow rate per watt of cooling capacity. Check inputs.\n   **   ~~~   **    3) is used as part of a HX assisted cooling coil which uses a high sensible effectiveness. Check inputs.\n   ** Warning ** CalcDoe2DXCoil: Coil:Cooling:DX:SingleSpeed \"COIL COOLING DX SINGLE SPEED 11 7KBTU/HR 10.9EER\" - Air-cooled condenser inlet dry-bulb temperature below 0 C. Outdoor dry-bulb temperature = -3.90\n   **   ~~~   **  ... Occurrence info = RUN PERIOD 1, 01/04 10:45 - 11:00\n   **   ~~~   ** ... Operation at low ambient temperatures may require special performance curves.\n   ** Warning ** CalcDoe2DXCoil: Coil:Cooling:DX:SingleSpeed \"COIL COOLING DX SINGLE SPEED 7 4KBTU/HR 11.0EER\" - Air-cooled condenser inlet dry-bulb temperature below 0 C. Outdoor dry-bulb temperature = -2.80\n   **   ~~~   **  ... Occurrence info = RUN PERIOD 1, 01/04 11:45 - 12:00\n   **   ~~~   ** ... Operation at low ambient temperatures may require special performance curves.\n   ** Warning ** CalcDoe2DXCoil: Coil:Cooling:DX:SingleSpeed \"COIL COOLING DX SINGLE SPEED 4 15KBTU/HR 9.3EER\" - Air-cooled condenser inlet dry-bulb temperature below 0 C. Outdoor dry-bulb temperature = -3.30\n   **   ~~~   **  ... Occurrence info = RUN PERIOD 1, 01/06 10:45 - 10:52\n   **   ~~~   ** ... Operation at low ambient temperatures may require special performance curves.\n   ** Warning ** CalcDoe2DXCoil: Coil:Cooling:DX:SingleSpeed \"COIL COOLING DX SINGLE SPEED 9 19KBTU/HR 9.3EER\" - Air-cooled condenser inlet dry-bulb temperature below 0 C. Outdoor dry-bulb temperature = -1.65\n   **   ~~~   **  ... Occurrence info = RUN PERIOD 1, 01/06 11:35 - 11:40\n   **   ~~~   ** ... Operation at low ambient temperatures may require special performance curves.\n   ** Warning ** CalcDoe2DXCoil: Coil:Cooling:DX:SingleSpeed \"COIL COOLING DX SINGLE SPEED 5 16KBTU/HR 9.3EER\" - Air-cooled condenser inlet dry-bulb temperature below 0 C. Outdoor dry-bulb temperature = -1.10\n   **   ~~~   **  ... Occurrence info = RUN PERIOD 1, 01/06 11:45 - 12:00\n   **   ~~~   ** ... Operation at low ambient temperatures may require special performance curves.\n   ** Warning ** CalcDoe2DXCoil: Coil:Cooling:DX:SingleSpeed \"COIL COOLING DX SINGLE SPEED 6 16KBTU/HR 9.3EER\" - Air-cooled condenser inlet dry-bulb temperature below 0 C. Outdoor dry-bulb temperature = -0.55\n   **   ~~~   **  ... Occurrence info = RUN PERIOD 1, 01/06 15:15 - 15:30\n   **   ~~~   ** ... Operation at low ambient temperatures may require special performance curves.\n   ** Warning ** CalcDoe2DXCoil: Coil:Cooling:DX:SingleSpeed \"COIL COOLING DX SINGLE SPEED 10 18KBTU/HR 9.3EER\" - Air-cooled condenser inlet dry-bulb temperature below 0 C. Outdoor dry-bulb temperature = -0.55\n   **   ~~~   **  ... Occurrence info = RUN PERIOD 1, 01/06 15:15 - 15:30\n   **   ~~~   ** ... Operation at low ambient temperatures may require special performance curves.\n   ** Warning ** CalcDoe2DXCoil: Coil:Cooling:DX:SingleSpeed \"COIL COOLING DX SINGLE SPEED 7 4KBTU/HR 11.0EER\" - Full load outlet air dry-bulb temperature < 2C. This indicates the possibility of coil frost/freeze. Outlet temperature = -0.45 C.\n   **   ~~~   **  ...Occurrence info = RUN PERIOD 1, 01/14 10:25 - 10:27\n   **   ~~~   ** ... Possible reasons for low outlet air dry-bulb temperatures are: This DX coil\n   **   ~~~   **    1) may have a low inlet air dry-bulb temperature. Inlet air temperature = 12.891 C.\n   **   ~~~   **    2) may have a low air flow rate per watt of cooling capacity. Check inputs.\n   **   ~~~   **    3) is used as part of a HX assisted cooling coil which uses a high sensible effectiveness. Check inputs.\n   ** Warning ** SimHVAC: Maximum iterations (20) exceeded for all HVAC loops, at RUN PERIOD 1, 01/15 11:30 - 11:45\n   **   ~~~   ** The solution for one or more of the Air Loop HVAC systems did not appear to converge\n   **   ~~~   ** ...use Output:Diagnostics,DisplayExtraWarnings; to show more details on each max iteration exceeded.\n   ** Warning ** SimHVAC: Maximum iterations (20) exceeded for all HVAC loops, at RUN PERIOD 1, 01/15 11:30 - 11:38\n   **   ~~~   ** The solution for one or more of the Air Loop HVAC systems did not appear to converge\n   ** Warning ** SimHVAC: Maximum iterations (20) exceeded for all HVAC loops, at RUN PERIOD 1, 01/15 11:38 - 11:45\n   **   ~~~   ** The solution for one or more of the Air Loop HVAC systems did not appear to converge\n   ** Warning ** SimHVAC: Maximum iterations (20) exceeded for all HVAC loops, at RUN PERIOD 1, 01/15 16:15 - 16:30\n   **   ~~~   ** The solution for one or more of the Air Loop HVAC systems did not appear to converge\n   ** Warning ** SimHVAC: Maximum iterations (20) exceeded for all HVAC loops, at RUN PERIOD 1, 01/15 16:15 - 16:22\n   **   ~~~   ** The solution for one or more of the Air Loop HVAC systems did not appear to converge\n   ** Warning ** SimHVAC: Maximum iterations (20) exceeded for all HVAC loops, at RUN PERIOD 1, 01/15 16:23 - 16:30\n   **   ~~~   ** The solution for one or more of the Air Loop HVAC systems did not appear to converge\n   ** Warning ** SimHVAC: Maximum iterations (20) exceeded for all HVAC loops, at RUN PERIOD 1, 01/15 16:30 - 16:45\n   **   ~~~   ** The solution for one or more of the Air Loop HVAC systems did not appear to converge\n   ** Warning ** SimHVAC: Maximum iterations (20) exceeded for all HVAC loops, at RUN PERIOD 1, 01/15 16:30 - 16:38\n   **   ~~~   ** The solution for one or more of the Air Loop HVAC systems did not appear to converge\n   ** Warning ** SimHVAC: Maximum iterations (20) exceeded for all HVAC loops, at RUN PERIOD 1, 01/15 16:38 - 16:45\n   **   ~~~   ** The solution for one or more of the Air Loop HVAC systems did not appear to converge\n   ** Warning ** SimHVAC: Maximum iterations (20) exceeded for all HVAC loops, at RUN PERIOD 1, 01/16 16:15 - 16:30\n   **   ~~~   ** The solution for one or more of the Air Loop HVAC systems did not appear to converge\n   ** Warning ** SimHVAC: Maximum iterations (20) exceeded for all HVAC loops, at RUN PERIOD 1, 01/16 16:15 - 16:22\n   **   ~~~   ** The solution for one or more of the Air Loop HVAC systems did not appear to converge\n   ** Warning ** SimHVAC: Maximum iterations (20) exceeded for all HVAC loops, at RUN PERIOD 1, 01/16 16:23 - 16:30\n   **   ~~~   ** The solution for one or more of the Air Loop HVAC systems did not appear to converge\n   ** Warning ** SimHVAC: Maximum iterations (20) exceeded for all HVAC loops, at RUN PERIOD 1, 01/16 16:30 - 16:45\n   **   ~~~   ** The solution for one or more of the Air Loop HVAC systems did not appear to converge\n   ** Warning ** SimHVAC: Maximum iterations (20) exceeded for all HVAC loops, at RUN PERIOD 1, 01/16 17:00 - 17:15\n   **   ~~~   ** The solution for one or more of the Air Loop HVAC systems did not appear to converge\n   ** Warning ** CalcDoe2DXCoil: Coil:Cooling:DX:SingleSpeed \"COIL COOLING DX SINGLE SPEED 3 15KBTU/HR 9.3EER\" - Air-cooled condenser inlet dry-bulb temperature below 0 C. Outdoor dry-bulb temperature = -17.20\n   **   ~~~   **  ... Occurrence info = RUN PERIOD 1, 02/07 10:23 - 10:30\n   **   ~~~   ** ... Operation at low ambient temperatures may require special performance curves.\n   ** Warning ** CalcDoe2DXCoil: Coil:Cooling:DX:SingleSpeed \"COIL COOLING DX SINGLE SPEED 2 2KBTU/HR 11.0EER\" - Air-cooled condenser inlet dry-bulb temperature below 0 C. Outdoor dry-bulb temperature = -2.65\n   **   ~~~   **  ... Occurrence info = RUN PERIOD 1, 03/02 22:30 - 22:45\n   **   ~~~   ** ... Operation at low ambient temperatures may require special performance curves.\n   ** Warning ** CalcDoe2DXCoil: Coil:Cooling:DX:SingleSpeed \"COIL COOLING DX SINGLE SPEED 2 2KBTU/HR 11.0EER\" - Full load outlet air dry-bulb temperature < 2C. This indicates the possibility of coil frost/freeze. Outlet temperature = 1.03 C.\n   **   ~~~   **  ...Occurrence info = RUN PERIOD 1, 03/02 22:30 - 22:45\n   **   ~~~   ** ... Possible reasons for low outlet air dry-bulb temperatures are: This DX coil\n   **   ~~~   **    1) may have a low inlet air dry-bulb temperature. Inlet air temperature = 14.771 C.\n   **   ~~~   **    2) may have a low air flow rate per watt of cooling capacity. Check inputs.\n   **   ~~~   **    3) is used as part of a HX assisted cooling coil which uses a high sensible effectiveness. Check inputs.\n   ** Warning ** CalcDoe2DXCoil: Coil:Cooling:DX:SingleSpeed \"COIL COOLING DX SINGLE SPEED 18 89KBTU/HR 9.7EER\" - Full load outlet air dry-bulb temperature < 2C. This indicates the possibility of coil frost/freeze. Outlet temperature = -2.67 C.\n   **   ~~~   **  ...Occurrence info = RUN PERIOD 1, 04/22 15:40 - 15:45\n   **   ~~~   ** ... Possible reasons for low outlet air dry-bulb temperatures are: This DX coil\n   **   ~~~   **    1) may have a low inlet air dry-bulb temperature. Inlet air temperature = 11.825 C.\n   **   ~~~   **    2) may have a low air flow rate per watt of cooling capacity. Check inputs.\n   **   ~~~   **    3) is used as part of a HX assisted cooling coil which uses a high sensible effectiveness. Check inputs.\n   ** Warning ** CalcDoe2DXCoil: Coil:Cooling:DX:SingleSpeed \"COIL COOLING DX SINGLE SPEED 12 18KBTU/HR 14.0SEER\" - Full load outlet air dry-bulb temperature < 2C. This indicates the possibility of coil frost/freeze. Outlet temperature = 0.51 C.\n   **   ~~~   **  ...Occurrence info = RUN PERIOD 1, 04/25 12:30 - 12:45\n   **   ~~~   ** ... Possible reasons for low outlet air dry-bulb temperatures are: This DX coil\n   **   ~~~   **    1) may have a low inlet air dry-bulb temperature. Inlet air temperature = 17.321 C.\n   **   ~~~   **    2) may have a low air flow rate per watt of cooling capacity. Check inputs.\n   **   ~~~   **    3) is used as part of a HX assisted cooling coil which uses a high sensible effectiveness. Check inputs.\n   ** Warning ** CalcDoe2DXCoil: Coil:Cooling:DX:SingleSpeed \"COIL COOLING DX SINGLE SPEED 14 101KBTU/HR 9.7EER\" - Full load outlet air dry-bulb temperature < 2C. This indicates the possibility of coil frost/freeze. Outlet temperature = 0.64 C.\n   **   ~~~   **  ...Occurrence info = RUN PERIOD 1, 04/25 14:30 - 14:45\n   **   ~~~   ** ... Possible reasons for low outlet air dry-bulb temperatures are: This DX coil\n   **   ~~~   **    1) may have a low inlet air dry-bulb temperature. Inlet air temperature = 18.625 C.\n   **   ~~~   **    2) may have a low air flow rate per watt of cooling capacity. Check inputs.\n   **   ~~~   **    3) is used as part of a HX assisted cooling coil which uses a high sensible effectiveness. Check inputs.\n   ** Warning ** CalcDoe2DXCoil: Coil:Cooling:DX:SingleSpeed \"COIL COOLING DX SINGLE SPEED 15 101KBTU/HR 9.7EER\" - Full load outlet air dry-bulb temperature < 2C. This indicates the possibility of coil frost/freeze. Outlet temperature = 0.64 C.\n   **   ~~~   **  ...Occurrence info = RUN PERIOD 1, 04/25 14:30 - 14:45\n   **   ~~~   ** ... Possible reasons for low outlet air dry-bulb temperatures are: This DX coil\n   **   ~~~   **    1) may have a low inlet air dry-bulb temperature. Inlet air temperature = 18.625 C.\n   **   ~~~   **    2) may have a low air flow rate per watt of cooling capacity. Check inputs.\n   **   ~~~   **    3) is used as part of a HX assisted cooling coil which uses a high sensible effectiveness. Check inputs.\n   ** Warning ** CalcDoe2DXCoil: Coil:Cooling:DX:SingleSpeed \"COIL COOLING DX SINGLE SPEED 1 260KBTU/HR 8.21EER\" - Full load outlet air dry-bulb temperature < 2C. This indicates the possibility of coil frost/freeze. Outlet temperature = 0.95 C.\n   **   ~~~   **  ...Occurrence info = RUN PERIOD 1, 04/25 14:45 - 15:00\n   **   ~~~   ** ... Possible reasons for low outlet air dry-bulb temperatures are: This DX coil\n   **   ~~~   **    1) may have a low inlet air dry-bulb temperature. Inlet air temperature = 18.900 C.\n   **   ~~~   **    2) may have a low air flow rate per watt of cooling capacity. Check inputs.\n   **   ~~~   **    3) is used as part of a HX assisted cooling coil which uses a high sensible effectiveness. Check inputs.\n   ************* Simulation Error Summary *************\n   ************* There are 9 unused schedules in input.\n   ************* There are 9 unused week schedules in input.\n   ************* There are 35 unused day schedules in input.\n   ************* Use Output:Diagnostics,DisplayUnusedSchedules; to see them.\n   *************\n   ************* ===== Recurring Error Summary =====\n   ************* The following recurring error messages occurred.\n   *************\n   *************  ** Warning ** Plant loop falling below lower temperature limit, PlantLoop=\"MAIN SERVICE WATER LOOP\"\n   *************  **   ~~~   **   This error occurred 131 total times;\n   *************  **   ~~~   **   during Warmup 1 times;\n   *************  **   ~~~   **   during Sizing 0 times.\n   *************  **   ~~~   **   Min=2.702432\n   *************\n   *************  ** Warning ** CalcDoe2DXCoil: Coil:Cooling:DX:SingleSpeed=\"COIL COOLING DX SINGLE SPEED 16 38KBTU/HR 14.0SEER\" - Low condenser dry-bulb temperature error continues...\n   *************  **   ~~~   **   This error occurred 632 total times;\n   *************  **   ~~~   **   during Warmup 0 times;\n   *************  **   ~~~   **   during Sizing 0 times.\n   *************  **   ~~~   **   Max=-0.1 [C]  Min=-34.45 [C]\n   *************\n   *************  ** Warning ** CalcDoe2DXCoil: Coil:Cooling:DX:SingleSpeed=\"COIL COOLING DX SINGLE SPEED 16 38KBTU/HR 14.0SEER\" - Full load outlet temperature indicates a possibility of frost/freeze error continues. Outlet air temperature statistics follow:\n   *************  **   ~~~   **   This error occurred 11 total times;\n   *************  **   ~~~   **   during Warmup 0 times;\n   *************  **   ~~~   **   during Sizing 0 times.\n   *************  **   ~~~   **   Max=1.96719  Min=0.640913\n   *************\n   *************  ** Warning ** CalcDoe2DXCoil: Coil:Cooling:DX:SingleSpeed=\"COIL COOLING DX SINGLE SPEED 13 57KBTU/HR 14.0SEER\" - Low condenser dry-bulb temperature error continues...\n   *************  **   ~~~   **   This error occurred 247 total times;\n   *************  **   ~~~   **   during Warmup 0 times;\n   *************  **   ~~~   **   during Sizing 0 times.\n   *************  **   ~~~   **   Max=-0.3 [C]  Min=-33.725 [C]\n   *************\n   *************  ** Warning ** CalcDoe2DXCoil: Coil:Cooling:DX:SingleSpeed=\"COIL COOLING DX SINGLE SPEED 17 6KBTU/HR 14.0SEER\" - Low condenser dry-bulb temperature error continues...\n   *************  **   ~~~   **   This error occurred 115 total times;\n   *************  **   ~~~   **   during Warmup 0 times;\n   *************  **   ~~~   **   during Sizing 0 times.\n   *************  **   ~~~   **   Max=-0.25 [C]  Min=-5.825 [C]\n   *************\n   *************  ** Warning ** CalcDoe2DXCoil: Coil:Cooling:DX:SingleSpeed=\"COIL COOLING DX SINGLE SPEED 17 6KBTU/HR 14.0SEER\" - Full load outlet temperature indicates a possibility of frost/freeze error continues. Outlet air temperature statistics follow:\n   *************  **   ~~~   **   This error occurred 358 total times;\n   *************  **   ~~~   **   during Warmup 0 times;\n   *************  **   ~~~   **   during Sizing 0 times.\n   *************  **   ~~~   **   Max=1.999791  Min=-4.755798\n   *************\n   *************  ** Warning ** CalcDoe2DXCoil: Coil:Cooling:DX:SingleSpeed=\"COIL COOLING DX SINGLE SPEED 11 7KBTU/HR 10.9EER\" - Low condenser dry-bulb temperature error continues...\n   *************  **   ~~~   **   This error occurred 2939 total times;\n   *************  **   ~~~   **   during Warmup 0 times;\n   *************  **   ~~~   **   during Sizing 0 times.\n   *************  **   ~~~   **   Max=-0.1 [C]  Min=-28.9 [C]\n   *************\n   *************  ** Warning ** CalcDoe2DXCoil: Coil:Cooling:DX:SingleSpeed=\"COIL COOLING DX SINGLE SPEED 7 4KBTU/HR 11.0EER\" - Low condenser dry-bulb temperature error continues...\n   *************  **   ~~~   **   This error occurred 6653 total times;\n   *************  **   ~~~   **   during Warmup 0 times;\n   *************  **   ~~~   **   during Sizing 0 times.\n   *************  **   ~~~   **   Max=-5.000000E-002 [C]  Min=-28.05 [C]\n   *************\n   *************  ** Warning ** CalcDoe2DXCoil: Coil:Cooling:DX:SingleSpeed=\"COIL COOLING DX SINGLE SPEED 4 15KBTU/HR 9.3EER\" - Low condenser dry-bulb temperature error continues...\n   *************  **   ~~~   **   This error occurred 2551 total times;\n   *************  **   ~~~   **   during Warmup 0 times;\n   *************  **   ~~~   **   during Sizing 0 times.\n   *************  **   ~~~   **   Max=-0.1 [C]  Min=-28.85 [C]\n   *************\n   *************  ** Warning ** CalcDoe2DXCoil: Coil:Cooling:DX:SingleSpeed=\"COIL COOLING DX SINGLE SPEED 9 19KBTU/HR 9.3EER\" - Low condenser dry-bulb temperature error continues...\n   *************  **   ~~~   **   This error occurred 1517 total times;\n   *************  **   ~~~   **   during Warmup 0 times;\n   *************  **   ~~~   **   during Sizing 0 times.\n   *************  **   ~~~   **   Max=-0.1 [C]  Min=-25.55 [C]\n   *************\n   *************  ** Warning ** CalcDoe2DXCoil: Coil:Cooling:DX:SingleSpeed=\"COIL COOLING DX SINGLE SPEED 5 16KBTU/HR 9.3EER\" - Low condenser dry-bulb temperature error continues...\n   *************  **   ~~~   **   This error occurred 2226 total times;\n   *************  **   ~~~   **   during Warmup 0 times;\n   *************  **   ~~~   **   during Sizing 0 times.\n   *************  **   ~~~   **   Max=-5.000000E-002 [C]  Min=-25.825 [C]\n   *************\n   *************  ** Warning ** CalcDoe2DXCoil: Coil:Cooling:DX:SingleSpeed=\"COIL COOLING DX SINGLE SPEED 6 16KBTU/HR 9.3EER\" - Low condenser dry-bulb temperature error continues...\n   *************  **   ~~~   **   This error occurred 879 total times;\n   *************  **   ~~~   **   during Warmup 0 times;\n   *************  **   ~~~   **   during Sizing 0 times.\n   *************  **   ~~~   **   Max=-0.15 [C]  Min=-23.75 [C]\n   *************\n   *************  ** Warning ** CalcDoe2DXCoil: Coil:Cooling:DX:SingleSpeed=\"COIL COOLING DX SINGLE SPEED 10 18KBTU/HR 9.3EER\" - Low condenser dry-bulb temperature error continues...\n   *************  **   ~~~   **   This error occurred 605 total times;\n   *************  **   ~~~   **   during Warmup 0 times;\n   *************  **   ~~~   **   during Sizing 0 times.\n   *************  **   ~~~   **   Max=-0.15 [C]  Min=-21.7 [C]\n   *************\n   *************  ** Warning ** CalcDoe2DXCoil: Coil:Cooling:DX:SingleSpeed=\"COIL COOLING DX SINGLE SPEED 7 4KBTU/HR 11.0EER\" - Full load outlet temperature indicates a possibility of frost/freeze error continues. Outlet air temperature statistics follow:\n   *************  **   ~~~   **   This error occurred 947 total times;\n   *************  **   ~~~   **   during Warmup 0 times;\n   *************  **   ~~~   **   during Sizing 0 times.\n   *************  **   ~~~   **   Max=1.998275  Min=-0.543953\n   *************\n   *************  ** Warning ** SimHVAC: Exceeding Maximum iterations for all HVAC loops, during RUN PERIOD 1 continues\n   *************  **   ~~~   **   This error occurred 121 total times;\n   *************  **   ~~~   **   during Warmup 0 times;\n   *************  **   ~~~   **   during Sizing 0 times.\n   *************\n   *************  ** Warning ** CalcDoe2DXCoil: Coil:Cooling:DX:SingleSpeed=\"COIL COOLING DX SINGLE SPEED 3 15KBTU/HR 9.3EER\" - Low condenser dry-bulb temperature error continues...\n   *************  **   ~~~   **   This error occurred 935 total times;\n   *************  **   ~~~   **   during Warmup 0 times;\n   *************  **   ~~~   **   during Sizing 0 times.\n   *************  **   ~~~   **   Max=-0.1 [C]  Min=-23.65 [C]\n   *************\n   *************  ** Warning ** CalcDoe2DXCoil: Coil:Cooling:DX:SingleSpeed=\"COIL COOLING DX SINGLE SPEED 2 2KBTU/HR 11.0EER\" - Low condenser dry-bulb temperature error continues...\n   *************  **   ~~~   **   This error occurred 228 total times;\n   *************  **   ~~~   **   during Warmup 0 times;\n   *************  **   ~~~   **   during Sizing 0 times.\n   *************  **   ~~~   **   Max=-5.000000E-002 [C]  Min=-8.025 [C]\n   *************\n   *************  ** Warning ** CalcDoe2DXCoil: Coil:Cooling:DX:SingleSpeed=\"COIL COOLING DX SINGLE SPEED 2 2KBTU/HR 11.0EER\" - Full load outlet temperature indicates a possibility of frost/freeze error continues. Outlet air temperature statistics follow:\n   *************  **   ~~~   **   This error occurred 263 total times;\n   *************  **   ~~~   **   during Warmup 0 times;\n   *************  **   ~~~   **   during Sizing 0 times.\n   *************  **   ~~~   **   Max=1.99473  Min=-0.95854\n   *************\n   *************  ** Warning ** CalcDoe2DXCoil: Coil:Cooling:DX:SingleSpeed=\"COIL COOLING DX SINGLE SPEED 18 89KBTU/HR 9.7EER\" - Full load outlet temperature indicates a possibility of frost/freeze error continues. Outlet air temperature statistics follow:\n   *************  **   ~~~   **   This error occurred 147 total times;\n   *************  **   ~~~   **   during Warmup 0 times;\n   *************  **   ~~~   **   during Sizing 0 times.\n   *************  **   ~~~   **   Max=1.991984  Min=-2.671909\n   *************\n   *************  ** Warning ** CalcDoe2DXCoil: Coil:Cooling:DX:SingleSpeed=\"COIL COOLING DX SINGLE SPEED 12 18KBTU/HR 14.0SEER\" - Full load outlet temperature indicates a possibility of frost/freeze error continues. Outlet air temperature statistics follow:\n   *************  **   ~~~   **   This error occurred 519 total times;\n   *************  **   ~~~   **   during Warmup 0 times;\n   *************  **   ~~~   **   during Sizing 0 times.\n   *************  **   ~~~   **   Max=1.998147  Min=-4.419076\n   *************\n   *************  ** Warning ** CalcDoe2DXCoil: Coil:Cooling:DX:SingleSpeed=\"COIL COOLING DX SINGLE SPEED 14 101KBTU/HR 9.7EER\" - Full load outlet temperature indicates a possibility of frost/freeze error continues. Outlet air temperature statistics follow:\n   *************  **   ~~~   **   This error occurred 29 total times;\n   *************  **   ~~~   **   during Warmup 0 times;\n   *************  **   ~~~   **   during Sizing 0 times.\n   *************  **   ~~~   **   Max=1.99575  Min=0.623931\n   *************\n   *************  ** Warning ** CalcDoe2DXCoil: Coil:Cooling:DX:SingleSpeed=\"COIL COOLING DX SINGLE SPEED 15 101KBTU/HR 9.7EER\" - Full load outlet temperature indicates a possibility of frost/freeze error continues. Outlet air temperature statistics follow:\n   *************  **   ~~~   **   This error occurred 35 total times;\n   *************  **   ~~~   **   during Warmup 0 times;\n   *************  **   ~~~   **   during Sizing 0 times.\n   *************  **   ~~~   **   Max=1.99575  Min=0.623931\n   *************\n   *************  ** Warning ** CalcDoe2DXCoil: Coil:Cooling:DX:SingleSpeed=\"COIL COOLING DX SINGLE SPEED 1 260KBTU/HR 8.21EER\" - Full load outlet temperature indicates a possibility of frost/freeze error continues. Outlet air temperature statistics follow:\n   *************  **   ~~~   **   This error occurred 41 total times;\n   *************  **   ~~~   **   during Warmup 0 times;\n   *************  **   ~~~   **   during Sizing 0 times.\n   *************  **   ~~~   **   Max=1.99575  Min=0.710324\n   *************\n   *************\n   ************* ===== Final Error Summary =====\n   ************* The following error categories occurred.  Consider correcting or noting.\n   ************* Nominally Unused Constructions\n   ************* ..The nominally unused constructions warning is provided to alert you to potential conditions that can cause\n   ************* ..extra time during simulation. Each construction is calculated by the algorithm indicated in the HeatBalanceAlgorithm\n   ************* ..object. You may remove the constructions indicated (when you use the DisplayExtraWarnings option).\n   *************\n   ************* EnergyPlus Warmup Error Summary. During Warmup: 0 Warning; 0 Severe Errors.\n   ************* EnergyPlus Sizing Error Summary. During Sizing: 165 Warning; 0 Severe Errors.\n   ************* EnergyPlus Completed Successfully-- 22333 Warning; 0 Severe Errors; Elapsed Time=00hr 04min  0.08sec\n",
   "file_format_version" : "0.0.1",
   "file_paths" : [ "../weather", "../seeds", "../seed" ],
   "hash" : "DE4D2775",
   "measure_paths" : [ "../measures" ],
   "name" : "LHS Autogenerated 568",
   "osa_id" : "4fef0e0f-5396-4c55-a6e1-2cd6803db3ab",
   "osd_id" : "3f1c2806-f2c5-451f-8458-d85bf2de70db",
   "run_directory" : "./run",
   "seed_file" : "seed.osm",
   "started_at" : "20170710T185913Z",
   "steps" : [
      {
         "arguments" : {
            "__SKIP__" : false,
            "building_type" : "LargeHotel",
            "climate_zone" : "NECB HDD Method",
            "epw_file" : "CAN_ON_Sault.Ste.Marie.712600_CWEC.epw",
            "template" : "NECB 2011"
         },
         "measure_dir_name" : "create_prototype_building",
         "name" : "create_prototype_building",
         "result" : {
            "completed_at" : "20170710T190100Z",
            "measure_class_name" : "CreatePrototypeBuilding",
            "measure_display_name" : "Create Prototype Building",
            "measure_name" : "create_prototype_building",
            "measure_taxonomy" : "Whole Building.Space Types",
            "measure_type" : "ModelMeasure",
            "measure_uid" : "ae90fsd7-a651-467a-bc8d-29d310b0f937",
            "measure_version_id" : "c6ec5c18-5595-459f-a082-09a19c8c869c",
            "measure_version_modified" : "20170519T182315Z",
            "measure_xml_checksum" : "057E8D9D",
            "started_at" : "20170710T185915Z",
            "stderr" : "",
[...]
/qtxiaVVXZbmQrC4rdaZH5cXHHMvpvLrwqF3lVFWrMt3Ks37u5Ltqqed/XtdTmOPpU/Xrb+/Uv9/89ladvnn77qdfflA/v/nhp2P148nbk3ICr7JVW996pkVTaaSSKE7VZHaV1cFI5ZEmifKSUda8BJNxCcXltTc6D3Zmr6POyy8usU5n8URNvTjRr8LIS9ueWfJ3slv54LHz/LFSF3N9i/bAdvES1gl/3mzSy33/mU/3fLK3n/j6wpuFqZrGUbaG6Scd9eSbg4Pj45OTJxsOniEOcYhDHOIQhzjEIQ5xiEOcPyeOSmZX2T+Bla/Ng8r37gxRrH3SkIY0pCENaUhDGtKQhjSkIU0xzU3+p1l/oDkPZ5o4xCEOcYhDHOIQhzjEIQ5xiFMH5/57Ax3zvYGnM+l7A/tO/g7b8+d7e4eHJCUpSUlKUpKSlKQkJSlJSUpSkpJ0O0jdnNRLJdJeTtrvu+7BkKQkJSlJSUpSkpKUpCQlKUlJSlKSbgdp35C+igOB1D3MSR1nf7/fJylJSUpSkpKUpCQlKUlJSlKSkpSk20G6Z0jfXc4k0oOc9DA7Bi9ISlKSkpSkJCUpSUlKUpKSlKQkJel2kA4M6b+0L5Hu56QvXx4f7++TlKQkJSlJSUpSkpKUpCQlKUlJStLtIB3mv5mYaYl0mJMeHw+HJCUpSUlKUpKSlKQkJSlJSUpSkpJ0W0j3DenrSEoWdAc56cGB6w4GJCUpSUlKUpKSlKQkJSlJSUpSkpK0MdIlih97N+21YrfdNEhDfXrpTXU31bdp+8mP0SxO1mPcfXnmy+BKT5IgmoQ6yRXWSDx9qp77vvJUrqRugvRSJdGVVn5/zZnJ9bjrTad64rdbxru1s+aE5dH10jRut25bHTXsVTzpLjvJLX9Skt6Feo63601Gl1Gcnd8K9UUF2oXGRTRJd290ML5MjcZ5FPrlNeb35nS6+8JLdHaDUnV6l+zuqVdhvNtXp6PL3RP146/h6CrdnURxdgv+84v65eT4hXlaqq/Unvr19D/qzWhknvtkp+imfv80GcXBNP2H+Jzvn/rB9deHxXNksUxLBf5Ra2Qq/ji7SF4w0fGZ4/RaKr90Ry0/SKahd/csmITZ2O55GI0+fdeSATPV+WtQ6d00O99cvacfvWtv/mjhmea49mJTnepI+cHVNNTdib45vR63W998BbKj9nq9/D9rp5vR9b3Uy4Tf/94KvXMdtp61fH3hzcJUTePoIgh1qzMfObttPXO6vU7r2gtnevHzyKxK2TnZQnN8fHLS+twppeOCdPognT2QzgCkMwTp7IN0DkA6hyAdp4cSQlW0gyppB1XTDqqoHVRVO6iydlB17aAK20FVtouqbBe2VqMq20VVtlupslUyu7pa+ZrqUjtarP0KMuI1qiYjXqFqMuL1qSYjzvtqMuKsryYjzvlqMuKMryYjzvdqMvJGVlEHVMfyNlZRB1TJ8iZWUQdUy/IWVlEHVM3yBlZRB1TP8vZVUQe1LoPqWd67KuqUr+ebYJJW37bOzUPldcTLU1FHvDwVdcTLU1FHnO4VdcTpXlFHnO4VdcTpXlFHnO4VdeT9q6oQqqLlHayqEKqm5T2sqhCqquVdrKoQqq7lfayqEKqy5Z2sqhBsrUZVtryZVRUqX9n371us/V5haZvrrfxDb/7FwwALd/MW/c1b7G3eYrB5i+HmLfY3b3GweYvDzVus7Oyb8mhgfjsNTHCngRnuNDDFnQbmuNPAJHcamOVOA9PcaWCeuw3Mc7eJfbyBee42MM/devN87dc3lmur5t/vCLCQ7wbMQr4ZMAv5XsAs5CUXZiGvuDALecGFWcjrLcxCXm5hFgXvXOM85Lf+cB7yu4I4D/kNQ5xHA1O8oK3CeTQwyQvaKpxHA9O8oK3C7X9yW4XzaGIfb2AjL2ircB715vnab8kq11bNv0YLYCHfDZiFfDNgFvK9gFnISy7MQl5xYRbygguzkNdbmIX8t1Ewi4K2Cucht1U4D7mtwnnIbRXOQ/4TLZyH/HeJOA/5TxZxHvJfM+I85D90xHk0MM8L2iqcRxP7eAMbeUFbhfOot5Wv/TKScm3V/NtKABby3YBZyDcDZiHfC5iF3FbBLOS2CmYht1UwC7mtglnIyy3MoqCtwnnIbRXOQ26rcB5yW4XzkNsqnIfcVuE85LYK5yG3VTgPua3CeTQwzwvaKpxHE/t4Axt5QVuF86i3la/NfC/XVs1D4QEW8t2AWcg3A2Yh3wuYhdxWwSzktgpmIbdVMAu5rYJZyMstzKKgrcJ5yG0VzkNuq3AecluF85DbKpyH3FbhPOS2Cucht1U4D7mtwnk0MM8L2iqcRxP7eAMbeUFbhfOot5WvjdYt11bNs3cBFvLdgFnINwNmId8LmIXcVsEs5LYKZiG3VTALua2CWcjLLcyioK3CechtFc5DbqtwHnJbhfOQ2yqch9xW4TzktgrnIbdVOA+5rcJ5NDDPC9oqnEcT+3gDG3lBW4XzqLeVr00wLNdWzSMOARby3YBZyDcDZiHfC5iF3FbBLOS2CmYht1UwC7mtglkU5U6BLArD1lAeRWlVKI+iICuUR1HGFcqjKP4K5VGU+YbyKIqDQ3kUJcWhPIpC5FAeDczzgrYK59HEPt7ARl7QVuE81m/lH8okvC7Cm9WRmuibZYJsHhzbTq7HnTwBdm1U7DIBOtHpi2g28ZP2oNdRjjPoqL75yR2Ui5u9zTDug619/9hL9TiK757fBsk8Qfn+9ZeImc4E3sS+jt/OTKBx6RMNx90qx2vtJbNYzzFMJvPium844pvDHOYwhznMYQ5zmMMc5jCHOcxhDnOYwxzmMIc5zGEOc5jDHOYwhznMYQ5zmMMc5jCHOcxhDnOYwxzmMIc5zGEOc5jDHOYwhznMYQ5zmMN/quG7bnSt4zjw9WvPfLDW6fYsP69qPhqbrH409lTHgU4WH69tdZYfIJ6GUdoNg4le+xHZ5Guf013/ydqkm3/1/DQKvTSIJhlUK0n1dPdcX0SxbpX75PPPeqwn/uoLmj/WHvY6qm8+udwzH2Q2/2mF+iI1YGukl7Lds7FOTyapuT6ZxcVsMspJ2zvq9zUSS0J9f/b7tZ/lNkdwodrpZZB0k/yulDMyx4OTutn1O/FGl+3/AldVW+Kbj45n7Avds2mUBEbwZfZwmVezPIzMV6ji6KYa0hIrmPjazIddp1Px7OXxse6JF4EOTb21F9d0Pk/GcTSbal99+6362+Lx2+7ZpZcsPv9uJtjOw9G7r45mF6TrjcevjEc31JNxeqm+V676p2o9D8OWerb6jCQMRrq96+y8733YWTvfvnglUazaH7OX0vtOfcxsFqW68DWP/T1bcarfIHOYMl7ovf/4oftJ36mjo6P5xaunmKsubvvHqi91eZzH2vtU5+TPFc+p+nxzvRav7siUtSmGRaXkQQ7dMy9JgvFE+8cmIiJ5n1/JD/Uu5fJGT2fJZbvuvchu6bP5/aw/k8LwWZlX2TXPrOuSpHH0SZfzmT+3rlM09UZBelfOavHk2q8qt1ha1VVZLiSry0qd6VF58THHcjqvLjxqVzlV1apMt/Ksnzv5rlrq+Z/X9RTmePpU/frbO/XvN7+9Vadv3r776Zcf1M9vfvjpWP148vaknMCrbNXWt55p0VQaqSSKUzWZXWV1MFJ5pEmivGSUNS/BZFxCcXntjc6DndnrqPPyi0us01k8UVMvTvSrMPLStmeW/J3sVj547Dx/rNTFXN+iPbBdvIR1wp83m/Ry33/m0z2f7O0nvr7wZmGqpnGUrWH6SUc9+ebg4Pj45OTJhoNniEMc4hCHOMQhDnGIQxziEOfPiaOS2VX2T2Dla/Og8r07QxRrnzSkIQ1pSEMa0pCGNKQhDWlIU0xzk/9p1h9ozsOZJg5xiEMc4hCHOMQhDnGIQxzi1MG5/95Ax3xv4OlM+t7AvpO/w/b8+d7e4SFJSUpSkpKUpCQlKUlJSlKSkpSkJN0OUjcn9VKJtJeT9vuuezAkKUlJSlKSkpSkJCUpSUlKUpKSlKTbQdo3pK/iQCB1D3NSx9nf7/dJSlKSkpSkJCUpSUlKUpKSlKQkJel2kO4Z0neXM4n0ICc9zI7BC5KSlKQkJSlJSUpSkpKUpCQlKUlJuh2kA0P6L+1LpPs56cuXx8f7+yQlKUlJSlKSkpSkJCUpSUlKUpKSdDtIh/lvJmZaIh3mpMfHwyFJSUpSkpKUpCQlKUlJSlKSkpSkJN0W0n1D+jqSkgXdQU56cOC6gwFJSUpSkpKUpCQlKUlJSlKSkpSkJG2MdInix95Ne63YbTcN0lCfXnpT3U31bdp+8mM0i5P1GHdfnvkyuNKTJIgmoU5yhTUST5+q576vPJUrqZsgvVRJdKWV319zZnI97nrTqZ747Zbxbu2sOWF5dL00jdut21ZHDXsVT7rLTnLLn5Skd6Ge4+16k9FlFGfnt0J9UYF2oXERTdLdGx2ML1OjcR6FfnmN+b05ne4eR3Ec+FF89iqMz4bq9C7Z7avs5909dTq63D1RP/4ajq7S3SSaZTfiP7+oX06OX5inpfpK9dWvp/9Rb0Yj89wnO0W39vunySgOpuk/xOd8/9QPrr8+LJ4ji2VaKvCPWiNT98fZpfKCiY7PHMdpqfwCHrX8IJmG3t2zYBJmY7vnYTT69F1LBsxU569BpXfT7HxzDZ9+9K69+aOFZ5rj2otNjaoj5QdX01B3J/rm9Hrcbn3zFciO2uv18v+snXRG1/dSLxN+/3sr9M512HrW8vWFNwtTNY2jiyDUrc585Oy29czp9jqtay+c6cXPI7M2Zedky83x8clJ63OnlI4L0umDdPZAOgOQzhCksw/SOQDpHIJ0nB5KCFXRDqqkHVRNO6iidlBV7aDK2kHVtYMqbAdV2S6qsl3YWo2qbBdV2W6lylbJ7Opq5cuqS+1osfYryIjXqJqMeIWqyYjXp5qMOO+ryYizvpqMOOeryYgzvpqMON+rycgbWUUdUB3L21hFHVAly5tYRR1QLctbWEUdUDXLG1hFHVA9y9tXRR3UugyqZ3nvqqhTvp5vgklafds6Nw+V1xEvT0Ud8fJU1BEvT0UdcbpX1BGne0UdcbpX1BGne0UdcbpX1JH3r6pCqIqWd7CqQqialvewqkKoqpZ3sapCqLqW97GqQqjKlneyqkKwtRpV2fJmVlWofGXfv3ux9tuFpW2ut/IPvfnXDwMs5H/dwiz6m38Ve5u3GGzeYrh5i/3NWxxs3uJw8xYrO/umPBqY3wW/mMV5yL/ZwnnIv/TCeci/6cV5yL8ExnnIvx/Geci/OsZ5yL9Vxu1/8i+ccR7y76JxHg3M84LfYOM86m3la7/EsdzbuPNveQRYyHcDZiG3VTAL+V7ALOS2CmYht1UwC7mtglnIbRXMQm6rYBYFbRXOo4H5XdBW4Tzk5RbnIbdVOA+5rcJ5yG0VzkNuq3AecluF85DbKtz+J7dVOI8m9vEG5nlBW4XzqDfP135XVrm2av5lWgALV9w9YBZyWwWzkNsqmIXcVsEs5LYKZiG3VTALua2CWchtFcyioK3CeTQwvwvaKpyHvNziPOTlFucht1U4D7mtwnnIbRXOQ26rcB5yW4Xb/+S2CufRxD7ewDwvaKtwHvXm+dqvJCnXVs2/swRgIbdVMAu5rYJZyG0VzEJuq2AWclsFs5DbKpiF3FbBLOS2CmZR0FbhPBqY3wVtFc5DXm5xHvJyi/OQ2yqch9xW4TzktgrnIbdVOA+5rcLtf3JbhfNoYh9vYJ4XtFU4j3rzfG3ye7m2ah4ND7CQ2yqYhdxWwSzktgpmIbdVMAu5rYJZyG0VzEJuq2AWclsFsyhoq3AeDczvgrYK5yEvtzgPebnFechtFc5DbqtwHnJbhfOQ2yqch9xW4fY/ua3CeTSxjzcwzwvaKpxHvXm+NmC3XFs1T+AFWMhtFcxCbqtgFnJbBbOQ2yqYhdxWwSzktgpmIbdVMAu5rYJZFLRVOI8G5ndBW4XzkJdbnIe83OI85LYK5yG3VTgPua3CechtFc5Dbqtw+5/cVuE8mtjHG5jnBW0VzqPePF+bY1iurZoHHQIs5LYKZiG3VTALua2CWchtFcxCbqtgFnJbBbOQ2yqYhdxWwSwK2iqcRwPzuzCiDeVRlHGF8iiKv0J5FGW+oTyK4uBQHkVJcSiPohA5lEdRvhxq/yuKnkN5NLGPNzDPC7PsUB7r5/mHMgmviwhndaQm+maZIJsHx7aT63EnT4BdGxW7zIFOdPoimk38pD3odZTjDDqqb35yB+XiZm8zjPt4a98/9lI9juK757dBMs9Rvn/9JcKmM4E3sa/jtzMTa1z6RMNxt8rxWnvJLNZzDJPMvLjuGw765jCHOcxhDnOYwxzmMIc5zGEOc5jDHOYwhznMYQ5zmMMc5jCHOcxhDnOYwxzmMIc5zGEOc5jDHOYwhznMYQ5zmMMc5jCHOcxhDnOYwxzm8J9q+K4bXes4Dnz92jMfrHW6PcvPq5qPxiarH4091XGgk8XHa1ud5QeIp2GUdsNgotd+RDb52ud013+yNunmXz0/jUIvDaJJBtVKUj3dPdcXUaxb5T75/LMe64m/+oLmj7WHvY7qm08u98wHmc1/WqG+SA3YGumlbPdsrNOTSWquT2ZxMZuMctL2jvp9jcSSUN+f/X7tZ7nNEVyodnoZJN0kvyvljMzx4KRudv1OvNFl+7/AVdWW+Oaj4xn7QvdsGiWBEXyZPVzm1SwPI/MVqji6qYa0xAomvjbzYdfpVDx7eXyse+JFoENTb+3FNZ3Pk3EczabaV99+q/62ePy2e3bpJYvPv5sJtvNw9O6ro9kF6Xrj8Svj0Q31ZJxequ+Vq/6pWs/DsKWerT4jCYORbu86O+97H3bWzrcvXkkUq/bH7KX0vlMfM5tFqS58zWN/z1ac6jfIHKaMF3rvP37oftJ36ujoaH7x6inmqovb/rHqS10e57H2PtU5+XPFc6o+31yvxas7MmVtimFRKXmQQ/fMS5JgPNH+sYmISN7nV/JDvUu5vNHTWXLZrnsvslv6bH4/68+kMHxW5lV2zTPruiRpHH3S5Xzmz63rFE29UZDelbNaPLn2q8otllZ1VZYLyeqyUmd6VF58zLGczqsLj9pVTlW1KtOtPOvnTr6rlnr+53U9hTmePlW//vZO/fvNb2/V6Zu373765Qf185sffjpWP568PSkn8CpbtfWtZ1o0lUYqieJUTWZXWR2MVB5pkigvGWXNSzAZl1BcXnuj82Bn9jrqvPziEut0Fk/U1IsT/SqMvLTtmSV/J7uVDx47zx8rdTHXt2gPbBcvYZ3w580mvdz3n/l0zyd7+4mvL7xZmKppHGVrmH7SUU++OTg4Pj45ebLh4BniEIc4xCEOcYhDHOIQhzjE+XPiqGR2lf0TWPnaPKh8784QxdonDWlIQxrSkIY0pCENaUhDGtIU09zkf5r1B5rzcKaJQxziEIc4xCEOcYhDHOIQhzh1cO6/N9Ax3xt4OpO+N7Dv5O+wPX++t3d4SFKSkpSkJCUpSUlKUpKSlKQkJSlJt4PUzUm9VCLt5aT9vuseDElKUpKSlKQkJSlJSUpSkpKUpCQl6XaQ9g3pqzgQSN3DnNRx9vf7fZKSlKQkJSlJSUpSkpKUpCQlKUlJuh2ke4b03eVMIj3ISQ+zY/CCpCQlKUlJSlKSkpSkJCUpSUlKUpJuB+nAkP5L+xLpfk768uXx8f4+SUlKUpKSlKQkJSlJSUpSkpKUpCTdDtJh/puJmZZIhznp8fFwSFKSkpSkJCUpSUlKUpKSlKQkJSlJt4V035C+jqRkQXeQkx4cuO5gQFKSkpSkJCUpSUlKUpKSlKQkJSlJGyNdovixd9NeK3bbTYM01KeX3lR3U32btp/8GM3iZD3G3Zdnvgyu9CQJokmok1xhjcTTp+q57ytP5UrqJkgvVRJdaeX315yZXI+73nSqJ367ZbxbO2tOWB5dL03jduu21VHDXsWT7rKT3PInJeldqOd4u95kdBnF2fmtUF9UoF1oXESTdPdGB+PL1GicR6FfXmN+b06nuy+DSTAZn70K47OhOr1Ldvsq+3l3T52OLndfqB9/DUdX6e4kirPb8J9f1C8nxy/M01J9pfrq19P/qDejkXnuk52iG/v902QUB9P0H+Jzvn/qB9dfHxbPkcUyLRX4R62Rqfrj7EJ5wUTHZ47jtlR++Y5afpBMQ+/uWTAJs7Hd8zAaffquJQNmqvPXoNK7aXa+uYJPP3rX3vzRwjPNce3FpkLVkfKDq2mouxN9c3o9bre++QpkR+31evl/1k45o+t7qZcJv/+9FXrnOmw9a/n6wpuFqZrG0UUQ6lZnPnJ223rmdHud1rUXzvTi55FZmbJzssXm+PjkpPW5U0rHBen0QTp7IJ0BSGcI0tkH6RyAdA5BOk4PJYSqaAdV0g6qph1UUTuoqnZQZe2g6tpBFbaDqmwXVdkubK1GVbaLqmy3UmWrZHZ1tfJV1aV2tFj7FWTEa1RNRrxC1WTE61NNRpz31WTEWV9NRpzz1WTEGV9NRpzv1WTkjayiDqiO5W2sog6okuVNrKIOqJblLayiDqia5Q2sog6onuXtq6IOal0G1bO8d1XUKV/PN8Ekrb5tnZuHyuuIl6eijnh5KuqIl6eijjjdK+qI072ijjjdK+qI072ijjjdK+rI+1dVIVRFyztYVSFUTct7WFUhVFXLu1hVIVRdy/tYVSFUZcs7WVUh2FqNqmx5M6sqVL6y79+7WPvdwtI211v5h978y4cBFvK/bmEW/c2/ir3NWww2bzHcvMX+5i0ONm9xuHmLlZ19Ux4NzO+CX8ziPOTfbOE85F964Tzk3/TiPORfAuM85N8P4zzkXx3jPOTfKuP2P/kXzjgP+XfROI8G5nnBb7BxHvW28rVf4Vjubdz5dzwCLOS7AbOQ2yqYhXwvYBZyWwWzkNsqmIXcVsEs5LYKZiG3VTCLgrYK59HA/C5oq3Ae8nKL85DbKpyH3FbhPOS2Cucht1U4D7mtwnnIbRVu/5PbKpxHE/t4A/O8oK3CedSb52u/KatcWzX/Ki2AhSvuHjALua2CWchtFcxCbqtgFnJbBbOQ2yqYhdxWwSzktgpmUdBW4TwamN8FbRXOQ15ucR7ycovzkNsqnIfcVuE85LYK5yG3VTgPua3C7X9yW4XzaGIfb2CeF7RVOI9683ztF5KUa6vm31gCsJDbKpiF3FbBLOS2CmYht1UwC7mtglnIbRXMQm6rYBZyWwWzKGircB4NzO+CtgrnIS+3OA95ucV5yG0VzkNuq3AecluF85DbKpyH3Fbh9j+5rcJ5NLGPNzDPC9oqnEe9eb42971cWzUPhgdYyG0VzEJuq2AWclsFs5DbKpiF3FbBLOS2CmYht1UwC7mtglkUtFU4jwbmd0FbhfOQl1uch7zc4jzktgrnIbdVOA+5rcJ5yG0VzkNuq3D7n9xW4Tya2McbmOcFbRXOo948XxuvW66tmufvAizktgpmIbdVMAu5rYJZyG0VzEJuq2AWclsFs5DbKpiF3FbBLAraKpxHA/O7oK3CecjLLc5DXm5xHnJbhfOQ2yqch9xW4TzktgrnIbdVuP1PbqtwHk3s4w3M84K2CudRb56vTTEs11bNYw4BFnJbBbOQ2yqYhdxWwSzktgpmIbdVMAu5rYJZyG0VzEJuq2AWBW0VzqOB+V0Y0YbyKMq4QnkUxV+hPIoy31AeRXFwKI+ipDiUR1GIHMqjKF8Otf8VRc+hPJrYxxuY54VZdiiP9fP8Q5mE10WAszpSE32zTJDNg2PbyfW4kyfAro2KXaZAJzp9Ec0mftIe9DrKcQYd1Tc/uYNycbO3GcZ9uLXvH3upHkfx3fPbIJmnKN+//hJR05nAm9jX8duZCTUufaLhuFvleK29ZBbrOYbJZV5c9w3HfHOYwxzmMIc5zGEOc5jDHOYwhznMYQ5zmMMc5jCHOcxhDnOYwxzmMIc5zGEOc5jDHOYwhznMYQ5zmMMc5jCHOcxhDnOYwxzmMIc5zGEOc/hPNXzXja51HAe+fu2ZD9Y63Z7l51XNR2OT1Y/Gnuo40Mni47WtzvIDxNMwSrthMNFrPyKbfO1zuus/WZt086+en0ahlwbRJINqJame7p7riyjWrXKffP5Zj/XEX31B88faw15H9c0nl3vmg8zmP61QX6QGbI30UrZ7NtbpySQ11yezuJhNRjlpe0f9vkZiSajvz36/9rPc5gguVDu9DJJukt+VckbmeHBSN7t+J97osv1f4KpqS3zz0fGMfaF7No2SwAi+zB4u82qWh5H5ClUc3VRDWmIFE1+b+bDrdCqevTw+1j3xItChqbf24prO58k4jmZT7atvv1V/Wzx+2z279JLF59/NBNt5OHr31dHsgnS98fiV8eiGejJOL9X3ylX/VK3nYdhSz1afkYTBSLd3nZ33vQ87a+fbF68kilX7Y/ZSet+pj5nNolQXvuaxv2crTvUbZA5Txgu99x8/dD/pO3V0dDS/ePUUc9XFbf9Y9aUuj/NYe5/qnPy54jlVn2+u1+LVHZmyNsWwqJQ8yKF75iVJMJ5o/9hERCTv8yv5od6lXN7o6Sy5bNe9F9ktfTa/n/VnUhg+K/Mqu+aZdV2SNI4+6XI+8+fWdYqm3ihI78pZLZ5c+1XlFkuruirLhWR1WakzPSovPuZYTufVhUftKqeqWpXpVp71cyffVUs9//O6nsIcT5+qX397p/795re36vTN23c//fKD+vnNDz8dqx9P3p6UE3iVrdr61jMtmkojlURxqiazq6wORiqPNEmUl4yy5iWYjEsoLq+90XmwM3sddV5+cYl1OosnaurFiX4VRl7a9sySv5PdygePneePlbqY61u0B7aLl7BO+PNmk17u+898uueTvf3E1xfeLEzVNI6yNUw/6agn3xwcHB+fnDzZcPAMcYhDHOIQhzjEIQ5xiEMc4vw5cVQyu8r+Cax8bR5UvndniGLtk4Y0pCENaUhDGtKQhjSkIQ1pimlu8j/N+gPNeTjTxCEOcYhDHOIQhzjEIQ5xiEOcOjj33xvomO8NPJ1J3xvYd/J32J4/39s7PCQpSUlKUpKSlKQkJSlJSUpSkpKUpNtB6uakXiqR9nLSft91D4YkJSlJSUpSkpKUpCQlKUlJSlKSknQ7SPuG9FUcCKTuYU7qOPv7/T5JSUpSkpKUpCQlKUlJSlKSkpSkJN0O0j1D+u5yJpEe5KSH2TF4QVKSkpSkJCUpSUlKUpKSlKQkJSlJt4N0YEj/pX2JdD8nffny+Hh/n6QkJSlJSUpSkpKUpCQlKUlJSlKSbgfpMP/NxExLpMOc9Ph4OCQpSUlKUpKSlKQkJSlJSUpSkpKUpNtCum9IX0dSsqA7yEkPDlx3MCApSUlKUpKSlKQkJSlJSUpSkpKUpI2RLlH82LtprxW77aZBGurTS2+qu6m+TdtPfoxmcbIe4+7LM18GV3qSBNEk1EmusEbi6VP13PeVp3IldROklyqJrrTy+2vOTK7HXW861RO/3TLerZ01JyyPrpemcbt12+qoYa/iSXfZSW75k5L0LtRzvF1vMrqM4uz8VqgvKtAuNC6iSbp7o4PxZWo0zqPQL68xvzen093/L0hHl3py9iqMz4bq9C7Z7avs5909dTq63H2hfvw1HF2lu9pLUvWfX9QvJ8cvzLNSfaX66tfT/6g3o5F56pOdohv7/dNkFAfT9B/ic75/6gfXXx8Wz5HFMi0V+Eetkan64+xCecFEx2eO02+p/PIdtfwgmYbe3bNgEmZju+dhNPr0XUsGzFTnr0Gld9PsfHMFn370rr35o4VnmuPai02FqiPlB1fTUHcn+ub0etxuffMVyI7a6/Xy/6ydckbX91IvE37/eyv0znXYetby9YU3C1M1jaOLINStznzk7Lb1zOn2Oq1rL5zp1rPBoNs/fHD0B53WyCxUmUS29hwfn5y0PndKybqbke1vRnZvM7KDzcgONyO7vxnZg83IHm5G1ultSHdD88zZ0ERzNjTTnA1NNWdDc83Z0GRzNjTbnA1NN2dD883d0HxzN7WvbWi+uRuab67NfFPJ7Opq5SvB63QOsfYrqJa9vtVUy17daqplr2011bIrWTXVsutYNdWyq1g11bJrWDXVsitYNdXSDUNF2c3MrtLtQkXZzcyv0s1CRdnNzLDSrUJF2c3MsdKNQkXZzcyy0m1CRdkN7WGbmWWle4SKsrVn2U0wSa3bg3PzjPKyZS9tRdmyl7aibNlLW1G27AJWUbbsAlZRtuwCVlG27AJWUbbsAlZRtnSfUFV3Q/OsdKdQVXdDM610r1BVd0NzrXS3UFV3Q7OtdL9QVXdD8610x1BVd1P72obmW+mmoaputfn2ocwbF4v3JdWRmuib5Rsj+fsh7eR63Mnf2Fj7Dsjyzc1Epy+i2cRP2oNeRznOoKP65id3UO5dlNsM4/49W98/9lI9juK757dBMn9z8P5alHgHNRN4E/s6fjsz79WVPtFw3K1yvNZeMov1HMO83bi4B7bvCedvSK1aneo40MkCN3Na3JBpGKVd8y7ZWsvka697PWnSzQtvGoVeGkSTDKqVpHq6e64voli3ylXSz3qsJ/7qC5o/1h5mVdA3lWDeVHPMfxZvua59N3op2z0b6/Rkkprrk1lczCajnLS9o34v8Z6rIdT3Z79fOzfMEVyodnoZJFldm/PKGZnjwUnd7PqdeKPL9n+Bq6ot8RfvMS50z6ZREhjBl9nDZV7N8jAyX6GKo5tqSEusYOJrM3F3nU7Fs5fHx7onXgQ6NPXWXlzT+TwZx9Fsqn317bfqb4vHb7tnl16yWE/MBNt5OHr31dHsgnS98fiV8eiGejJOL9X3ylX/VK3nYdhSz1afkYTBSLd3nZ33vQ87a+fbF68kilX7Y/ZSet+pj5nNolQXvuaxvx8pp/oNMocp44Xe+48fup90trwdHc0vXj3FXHVx2z9WfanL4zzW3qc6J3+ueE7V55vrtXh1R6asTTEsKiXfGLtn878n0n7+F0XJ+/xKfqh3KZc3ejpLLtt170V2S5/N72f9mRSGz8q8yq55Zl2XJI2jT7qcz/y5dZ2iqTcK0rtyVosn135VucXSqq7KciFZXVbqTI/Ki485ltN5deFRu8qpqlZlupVn/dzJd9VSz/+8rqcwx9On6tff3ql/v/ntrTp98/bdT7/8oH5+88NPx+rHk7cn5QReZau2vvVMi6bSSCVR1khPZldZHYxU3iImyktGWfMSTMYlFJfX3ug82Jm9jjovv7jEOp3FEzX14kS/CiMvbXtmyd/JbuWDx87zx0pdzPUt2gPbxUtYJ/z5f/B3n394x3bxx53mDdj/yZ+hEoc4xCEOcYhDHOIQhzjEIc7W43z5ly+GKNY+aUhDGtKQhjSkIQ1pSEMa0pCmmOaLvwk0NOZP/IhDHOIQhzjEIQ5xiEMc4hCHOP/DtMV3+mqqYy+dxVq1X+0wb/Fx5S3OptPwTj0PYmVu1JZkJu5tQ2biXmOZifnPdcOZQDp9kM4eSGcA0hmCdPZBOgcgnUOQzkqmgJUQqqIdVEk7qJp2UEXtoKraQZW1g6prB1XYDqqyXVRlu7C1GlXZLqqy3UqVXT7Lb0WqfnifhYx4herH81nIiPO+fgCfhYw45+tH7FnIiPPdIkTPRgdUx/I2ZpGLZ6MDKmV5D7OIurPRAVWzvIFZpNfZrIOgepZ3L4tAOhsdUD3LW1f9jLkVGYtQORsd8fJYxMbZ6IjT3SIYzkZHnO4W0W82OuJ0twl3sxJCVbS8g9nktVkJoYpa3sRsItishFB1Le9jNqlqVisjqrLlrcwmKM1KCFXZ8m72hdD99z055vueTmfS9z31nXK/b3z+fG/v8BBgIf/rFmYh/7sXZiH/ixhmIf8WCGYh/34IZiH/5ghmIf9OCWYh/7YJZlHwK1acRwPzu+AXsziPBmZ4wa9zcR4NzPGCXwLjPBqY5QW/OsZ5NDDPC37hjPNoYh9vYJ4X/AYb51Fvnru5h5dKHr1ybVW/77oHQ4CFfDdgFvLNgFnI9wJmIS+5MAt5xYVZyAsuzEJeb2EW8nILsyhoq3AeDczvgrYK59HADC9oq3AeDczxgrYK59HALC9oq3AeDczzgrYK59HEPt7APC9oq3Ae9eZ533i8igPp28kPy7VVjrO/3+8DLOS7AbOQbwbMQr4XMAt5yYVZyCsuzEJecGEW8noLs5CXW5hFQVuF82hgfhe0VTiPBmZ4QVuF82hgjhe0VTiPBmZ5QVuF82hgnhe0VTiPJvbxBuZ5QVuF86g3z/eMx7vLmeRxUK6tMt+4NHgBsJDvBsxCvhkwC/lewCzkJRdmIa+4MAt5wYVZyOstzEJebmEWBW0VzqOB+V3QVuE8GpjhBW0VzqOBOV7QVuE8GpjlBW0VzqOBeV7QVuE8mtjHG5jnBW0VzqPePB8Yj39pX/LYL9dWvXx5fLy/D7CQ7wbMQr4ZMAv5XsAs5CUXZiGvuDALecGFWcjrLcxCXm5hFgVtFc6jgfld0FbhPBqY4QVtFc6jgTle0FbhPBqY5QVtFc6jgXle0FbhPJrYxxuY5wVtFc6j3jwf5q3bTEsew3Jt1fHxcAixkO8GzEK+GTAL+V7ALOQlF2Yhr7gwC3nBhVnI6y3MQl5uYRYFbRXOo4H5XdBW4TwamOEFbRXOo4E5XtBW4TwamOUFbRXOo4F5XtBW4Tya2McbmOcFbRXOo9483zceryPpz+LdQbm26uDAdQcDgEVRzg3IoigBB2RRlI0DsijKgwJZFCVFgSyKMqRAFkXpUiCLotwpkEVh2BrKo4H5XRjRhvJoYIYXBruhPBqY44VxcCiPBmZ5YYgcyqOBeV4YPYfyaGIfb2CeF2bZoTzWz/MPZRJeFzHM6khN9M0yQTYPjm0n1+NOngC7Nip2meWc6PRFNJv4SXvQ6yjHGXRU3/zkDsrFzd5mGPc51L5/7KV6HMV3z2+DZJ6EfP/6SwRGZwJvYl/Hb2cmmLj0iYbjbpXjtfaSWaznGCZbeXHdN5zIzWEOc5jDHOYwhznMYQ5zmMMc5jCHOcxhDnOYwxzmMIc5zGEOc5jDHOYwhznMYQ5zmMMc5jCHOcxhDnOYwxzmMIc5zGEOc5jDHOYwhznM4T/V8F03utZxHPj6tWc+WOt0e5afVzUfjU1WPxp7quNAJ4uP17Y6yw8QT8Mo7YbBRK/9iGzytc/prv9kbdLNv3p+GoVeGkSTDKqVpHq6e64voli3yn3y+Wc91hN/9QXNH2sPex3VN59c7pkPMpv/tEJ9kRqwNdJL2e7ZWKcnk9Rcn8ziYjYZ5aTtHfX7Goklob4/+/3az3KbI7hQ7fQySLpJflfKGZnjwUnd7PqdeKPL9n+Bq6ot8c1HxzP2he7ZNEoCI/gye7jMq1keRuYrVHF0Uw1piRVMfG3mw67TqXj28vhY98SLQIem3tqLazqfJ+M4mk21r779Vv1t8fht9+zSSxaffzcTbOfh6N1XR7ML0vXG41fGoxvqyTi9VN8rV/1TtZ6HYUs9W31GEgYj3d51dt73PuysnW9fvJIoVu2P2Uvpfac+ZjaLUl34msf+nq041W+QOUwZL/Tef/zQ/aTv1NHR0fzi1VPMVRe3/WPVl7o8zmPtfapz8ueK51R9vrlei1d3ZMraFMOiUvIgh+6ZlyTBeKL9YxMRkbzPr+SHepdyeaOns+SyXfdeZLf02fx+1p9JYfiszKvsmmfWdUnSOPqky/nMn1vXKZp6oyC9K2e1eHLtV5VbLK3qqiwXktVlpc70qLz4mGM5nVcXHrWrnKpqVaZbedbPnXxXLfX8z+t6CnM8fap+/e2d+veb396q0zdv3/30yw/q5zc//HSsfjx5e1JO4FW2autbz7RoKo1UEsWpmsyusjoYqTzSJFFeMsqal2AyLqG4vPZG58HO7HXUefnFJdbpLJ6oqRcn+lUYeWnbM0v+TnYrHzx2nj9W6mKub9Ee2C5ewjrhz5tNernvP/Ppnk/29hNfX3izMFXTOMrWMP2ko558c3BwfHxy8mTDwTPEIQ5xiEMc4hCHOMQhDnGI8+fEUcnsKvsnsPK1eVD53p0hirVPGtKQhjSkIQ1pSEMa0pCGNKQpprnJ/zTrDzTn4UwThzjEIQ5xiEMc4hCHOMQhDnHq4Nx/b6BjvjfwdCZ9b2Dfyd9he/58b+/wkKQkJSlJSUpSkpKUpCQlKUlJSlKSbgepm5N6qUTay0n7fdc9GJKUpCQlKUlJSlKSkpSkJCUpSUlK0u0g7RvSV3EgkLqHOanj7O/3+yQlKUlJSlKSkpSkJCUpSUlKUpKSdDtI9wzpu8uZRHqQkx5mx+AFSUlKUpKSlKQkJSlJSUpSkpKUpCTdDtKBIf2X9iXS/Zz05cvj4/19kpKUpCQlKUlJSlKSkpSkJCUpSUm6HaTD/DcTMy2RDnPS4+PhkKQkJSlJSUpSkpKUpCQlKUlJSlKSbgvpviF9HUnJgu4gJz04cN3BgKQkJSlJSUpSkpKUpCQlKUlJSlKSNka6RPFj76a9Vuy2mwZpqE8vvanupvo2bT/5MZrFyXqMuy/PfBlc6UkSRJNQJ7nCGomnT9Vz31eeypXUTZBeqiS60srvrzkzuR53velUT/x2y3i3dtacsDy6XprG7dZtq6OGvYon3WUnueVPStK7UM/xdr3J6DKKs/Nbob6oQLvQuIgm6e6NDsaXqdE4j0K/vMb83vyf5/9nfoHf6kvtperNaKROR5dPdopu0vdPk1EcTNN/iM/5/qkfXH99WDxHFsu0VOAftUamgo+zF+0FEx2fOc6gpfJLcdTyg2QaenfPgkmYje2eh9Ho03ctGTBTnb8Gld5Ns/PN1Xj60bv25o8WnmmOay821aaOlB9cTUPdneib0+txu/XNVyA7aq/Xy/+zdvoYXd9LvUz4/e+t0DvXYetZy9cX3ixM1TSOLoJQtzrzkbPb1jOn2+u0rr1wplvPhofdwwfHwWGnNTJrTqaQLSPHxycnrc+dUqruRlT7G1Hd24jqYCOqw42o7m9E9WAjqocbUXV6m5HdzOxyNjO9nM3ML2czE8zZzAxzNjPFnM3MMWczk8zZzCxzNzPL3A3tYZuZZe5mZplrMctUMru6Wvka7xodQqz9CqIlr2010ZJXtppoyetaTbTk2lVNtOTKVU205LpVTbTkqlVNtOSaVU20bGNQUXUjc6psW1BRdSOzqmxTUFF1I/OqbEtQUXUjM6tsQ1BRdSNzq2w7UFF1M/vVRuZW2V6gomrduXUTTFLbNuDcPKG8asnLWlG15GWtqFryslZULblkVVQtuWRVVC25ZFVULblkVVQtuWRVVC3bD1SV3czsKtsRVJXdzPwq2xNUld3MDCvbFVSV3cwcK9sXVJXdzCwr2xlUld3QHraZWVa2OagqW2mWfSjzhsPivUF1pCb6ZvmGRv4+Rju5HnfyNyTWvnOxfIMx0emLaDbxk/ag11GOM+iovvnJHZR79+M2w7h/39T3j71Uj6P47vltkMzfoLu/FCXexcwE3sS+jt/OzPtlpU80HHerHK+1l8xiPccwb/ktboHt+7L5G0mrVqc6DnSywM2cFjdkGkZp17y7tdYy+drrXk+adPO6m0ahlwbRJINqJame7p7riyjWrXKV9LMe64m/+oLmj7WHWRX0TSWYN8Mc85/F255r3xFeynbPxjo9maTm+mQWF7PJKCdt76jfS7zvaQj1/dnv184NcwQXqp1eBklW1+a8ckbmeHBSN7t+J97osv1f4KpqS/zFe4ML3bNplARG8GX2cJlXszyMzFeo4uimGtISK5j42kzcXadT8ezl8bHuiReBDk29tRfXdD5PxnE0m2pfffut+tvi8dvu2aWXLNYTM8F2Ho7efXU0uyBdbzx+ZTy6oZ6M00v1vXLVP1XreRi21LPVZyRhMNLtXWfnfe/Dztr59sUriWLV/pi9lN536mNmsyjVha957O9Hyql+g8xhynih9/7jh+4nnS1vR0fzi1dPMVdd3PaPVV/q8jiPtfepzsmfK55T9fnmei1e3ZEpa1MMi0rJN8bu2fxverSf/1VP8j6/kh/qXcrljZ7Okst23XuR3dJn8/tZfyaF4bMyr7JrnlnXJUnj6JMu5zN/bl2naOqNgvSunNXiybVfVW6xtKqrslxIVpeVOtOj8uJjjuV0Xl141K5yqqpVmW7lWT938l211PM/r+spzPH0qfr1t3fq329+e6tO37x999MvP6if3/zw07H68eTtSTmBV9mqrW8906KpNFJJlDXSk9lVVgcjlbeIifKSUda8BJNxCcXltTc6D3Zmr6POyy8usU5n8URNvTjRr8LIS9ueWfJ3slv54LHz/LFSF3N9i/bAdvES1gl//h/87eUf3oBd/IGleUP1f/KnoMQhDnGIQxziEIc4xCEOcYiz9Thf/oGLIYq1TxrSkIY0pCENaUhDGtKQhjSkKab54k8CDY35Ez/iEIc4xCEOcYhDHOIQhzjEIc7/MPHwnb6a6thLZ7FW7Vc7zDx8VJmH//JMxf2o8/95fnUe6EmqzC0zyYfan2XXf1ft915tSQjicBtCEIeNhSDmHz2tG8IE0umDdPZAOgOQzhCksw/SOQDpHIJ0VtIFrIRQFe2gStpB1bSDKmoHVdUOqqwdVF07qMJ2UJXtoirbha3VqMp2UZXtVqrs8qF9K1L1Y/osZMQrVD+Kz0JGnPf14/YsZMQ5Xz9Sz0JGnO8WsXk2OqA6lrcxizA8Gx1QKct7mEXEnY0OqJrlDcwiuM5mHQTVs7x7WcTR2eiA6lneuuqHzK3IWMTK2eiIl8ciOs5GR5zuFvFwNjridLeIgLPREae7TcyblRCqouUdzCa8zUoIVdTyJmYTyWYlhKpreR+zCVqzWhlRlS1vZTbxaVZCqMqWdzOGom1FKBqHOcxhDnOYwxzmMIc5zGEOc5jDHOYwhx/T8F03utZxHPj6tWd+UeV0ewzFf/BKGIp/fzAUv9LBUHyG4lc4GIr/x4Oh+H88GIpf8WAoPkPxv3owFJ84xCEOcYhDHOIQhzjEIQ5xiLMNkZKkIQ1pSEMa0pCGNKQhDWlIsz00f5koS+IQhzjEIQ5xiEMc4hCHOMSp7/c/CMV/GVzpSRJEk1AnCSPxH1ckfhR/UicXF8Eo0JPR3X0QfrMR+Itn/2Hk4f9f/jz/33v1xQ/3/3Me+Xfmfy/Tq/Af/8//Dwiz1NM="
               },
               {
                  "name" : "annual_peak_electric_demand",
                  "units" : "kW",
                  "value" : 281.52446000000003
               },
               {
                  "name" : "first_year_capital_cost",
                  "units" : "$",
                  "value" : 0
               },
               {
                  "name" : "annual_utility_cost",
                  "units" : "$",
                  "value" : 0
               },
               {
                  "name" : "total_lifecycle_cost",
                  "units" : "$",
                  "value" : 0
               }
            ],
            "step_warnings" : []
         }
      }
   ],
   "updated_at" : "20170710T190555Z",
   "weather_file" : "USA_CO_Denver.Intl.AP.725650_TMY3.epw"
}
