{
   "completed_at" : "20170710T191252Z",
   "completed_status" : "Success",
   "created_at" : "2017-07-10 18:57:17 +0000",
   "current_step" : 5,
   "description" : "",
   "eplusout_err" : "Program Version,EnergyPlus, Version 8.7.0-78a111df4a, YMD=2017.07.10 19:02,IDD_Version 8.7.0\n   ************* IDF Context for following error/warning message:\n   ************* Note -- lines truncated at 300 characters, if necessary...\n   *************      5 Building,\n   ************* indicated Name=NECB 2011-HighriseApartment-NECB HDD Method-CAN_BC_Prince.George.718960_CWEC.epw created: 2017-07-10 18:57:27 +0000\n   ************* Only last 1 lines before error line shown.....\n   *************      6   NECB 2011-HighriseApartment-NECB HDD Method-CAN_BC_Prince.George.718960_CWEC.epw created: 2017-07-10 18:57:27 +0000, !- Name\n   ** Warning ** IP: IDF line~6 Alpha Argument length exceeds maximum, will be truncated=  NECB 2011-HighriseApartment-NECB HDD Method-CAN_BC_Prince.George.718960_CWEC.epw created: 2017-07-10 18:57:27 +000\n   **   ~~~   ** Will be processed as Alpha=NECB 2011-HIGHRISEAPARTMENT-NECB HDD METHOD-CAN_BC_PRINCE.GEORGE.718960_CWEC.EPW CREATED: 2017-07-10 18:57:27 +0000\n   ************* Beginning Zone Sizing Calculations\n   ** Warning ** ProcessScheduleInput: Schedule:Day:Interval=\"ECONOMIZER MAX OA FRACTION 100 PCT DEFAULT\", Blank Schedule Type Limits Name input -- will not be validated.\n   ** Warning ** ProcessScheduleInput: Schedule:Day:Interval=\"SCHEDULE DAY 1\", Blank Schedule Type Limits Name input -- will not be validated.\n   ** Warning ** ProcessScheduleInput: Schedule:Day:Interval=\"SCHEDULE DAY 10\", Blank Schedule Type Limits Name input -- will not be validated.\n   ** Warning ** ProcessScheduleInput: Schedule:Day:Interval=\"SCHEDULE DAY 100\", Blank Schedule Type Limits Name input -- will not be validated.\n   ** Warning ** ProcessScheduleInput: Schedule:Day:Interval=\"SCHEDULE DAY 101\", Blank Schedule Type Limits Name input -- will not be validated.\n   ** Warning ** ProcessScheduleInput: Schedule:Day:Interval=\"SCHEDULE DAY 102\", Blank Schedule Type Limits Name input -- will not be validated.\n   ** Warning ** ProcessScheduleInput: Schedule:Day:Interval=\"SCHEDULE DAY 103\", Blank Schedule Type Limits Name input -- will not be validated.\n   ** Warning ** ProcessScheduleInput: Schedule:Day:Interval=\"SCHEDULE DAY 104\", Blank Schedule Type Limits Name input -- will not be validated.\n   ** Warning ** ProcessScheduleInput: Schedule:Day:Interval=\"SCHEDULE DAY 105\", Blank Schedule Type Limits Name input -- will not be validated.\n   ** Warning ** ProcessScheduleInput: Schedule:Day:Interval=\"SCHEDULE DAY 106\", Blank Schedule Type Limits Name input -- will not be validated.\n   ** Warning ** ProcessScheduleInput: Schedule:Day:Interval=\"SCHEDULE DAY 107\", Blank Schedule Type Limits Name input -- will not be validated.\n   ** Warning ** ProcessScheduleInput: Schedule:Day:Interval=\"SCHEDULE DAY 108\", Blank Schedule Type Limits Name input -- will not be validated.\n   ** Warning ** ProcessScheduleInput: Schedule:Day:Interval=\"SCHEDULE DAY 109\", Blank Schedule Type Limits Name input -- will not be validated.\n   ** Warning ** ProcessScheduleInput: Schedule:Day:Interval=\"SCHEDULE DAY 11\", Blank Schedule Type Limits Name input -- will not be validated.\n   ** Warning ** ProcessScheduleInput: Schedule:Day:Interval=\"SCHEDULE DAY 110\", Blank Schedule Type Limits Name input -- will not be validated.\n   ** Warning ** ProcessScheduleInput: Schedule:Day:Interval=\"SCHEDULE DAY 111\", Blank Schedule Type Limits Name input -- will not be validated.\n   ** Warning ** ProcessScheduleInput: Schedule:Day:Interval=\"SCHEDULE DAY 112\", Blank Schedule Type Limits Name input -- will not be validated.\n   ** Warning ** ProcessScheduleInput: Schedule:Day:Interval=\"SCHEDULE DAY 113\", Blank Schedule Type Limits Name input -- will not be validated.\n   ** Warning ** ProcessScheduleInput: Schedule:Day:Interval=\"SCHEDULE DAY 114\", Blank Schedule Type Limits Name input -- will not be validated.\n   ** Warning ** ProcessScheduleInput: Schedule:Day:Interval=\"SCHEDULE DAY 115\", Blank Schedule Type Limits Name input -- will not be validated.\n   ** Warning ** ProcessScheduleInput: Schedule:Day:Interval=\"SCHEDULE DAY 116\", Blank Schedule Type Limits Name input -- will not be validated.\n   ** Warning ** ProcessScheduleInput: Schedule:Day:Interval=\"SCHEDULE DAY 117\", Blank Schedule Type Limits Name input -- will not be validated.\n   ** Warning ** ProcessScheduleInput: Schedule:Day:Interval=\"SCHEDULE DAY 118\", Blank Schedule Type Limits Name input -- will not be validated.\n   ** Warning ** ProcessScheduleInput: Schedule:Day:Interval=\"SCHEDULE DAY 119\", Blank Schedule Type Limits Name input -- will not be validated.\n   ** Warning ** ProcessScheduleInput: Schedule:Day:Interval=\"SCHEDULE DAY 12\", Blank Schedule Type Limits Name input -- will not be validated.\n   ** Warning ** ProcessScheduleInput: Schedule:Day:Interval=\"SCHEDULE DAY 120\", Blank Schedule Type Limits Name input -- will not be validated.\n   ** Warning ** ProcessScheduleInput: Schedule:Day:Interval=\"SCHEDULE DAY 121\", Blank Schedule Type Limits Name input -- will not be validated.\n   ** Warning ** ProcessScheduleInput: Schedule:Day:Interval=\"SCHEDULE DAY 122\", Blank Schedule Type Limits Name input -- will not be validated.\n   ** Warning ** ProcessScheduleInput: Schedule:Day:Interval=\"SCHEDULE DAY 123\", Blank Schedule Type Limits Name input -- will not be validated.\n   ** Warning ** ProcessScheduleInput: Schedule:Day:Interval=\"SCHEDULE DAY 124\", Blank Schedule Type Limits Name input -- will not be validated.\n   ** Warning ** ProcessScheduleInput: Schedule:Day:Interval=\"SCHEDULE DAY 125\", Blank Schedule Type Limits Name input -- will not be validated.\n   ** Warning ** ProcessScheduleInput: Schedule:Day:Interval=\"SCHEDULE DAY 126\", Blank Schedule Type Limits Name input -- will not be validated.\n   ** Warning ** ProcessScheduleInput: Schedule:Day:Interval=\"SCHEDULE DAY 127\", Blank Schedule Type Limits Name input -- will not be validated.\n   ** Warning ** ProcessScheduleInput: Schedule:Day:Interval=\"SCHEDULE DAY 128\", Blank Schedule Type Limits Name input -- will not be validated.\n   ** Warning ** ProcessScheduleInput: Schedule:Day:Interval=\"SCHEDULE DAY 129\", Blank Schedule Type Limits Name input -- will not be validated.\n   ** Warning ** ProcessScheduleInput: Schedule:Day:Interval=\"SCHEDULE DAY 13\", Blank Schedule Type Limits Name input -- will not be validated.\n   ** Warning ** ProcessScheduleInput: Schedule:Day:Interval=\"SCHEDULE DAY 130\", Blank Schedule Type Limits Name input -- will not be validated.\n   ** Warning ** ProcessScheduleInput: Schedule:Day:Interval=\"SCHEDULE DAY 131\", Blank Schedule Type Limits Name input -- will not be validated.\n   ** Warning ** ProcessScheduleInput: Schedule:Day:Interval=\"SCHEDULE DAY 132\", Blank Schedule Type Limits Name input -- will not be validated.\n   ** Warning ** ProcessScheduleInput: Schedule:Day:Interval=\"SCHEDULE DAY 133\", Blank Schedule Type Limits Name input -- will not be validated.\n   ** Warning ** ProcessScheduleInput: Schedule:Day:Interval=\"SCHEDULE DAY 134\", Blank Schedule Type Limits Name input -- will not be validated.\n   ** Warning ** ProcessScheduleInput: Schedule:Day:Interval=\"SCHEDULE DAY 135\", Blank Schedule Type Limits Name input -- will not be validated.\n   ** Warning ** ProcessScheduleInput: Schedule:Day:Interval=\"SCHEDULE DAY 136\", Blank Schedule Type Limits Name input -- will not be validated.\n   ** Warning ** ProcessScheduleInput: Schedule:Day:Interval=\"SCHEDULE DAY 137\", Blank Schedule Type Limits Name input -- will not be validated.\n   ** Warning ** ProcessScheduleInput: Schedule:Day:Interval=\"SCHEDULE DAY 138\", Blank Schedule Type Limits Name input -- will not be validated.\n   ** Warning ** ProcessScheduleInput: Schedule:Day:Interval=\"SCHEDULE DAY 139\", Blank Schedule Type Limits Name input -- will not be validated.\n   ** Warning ** ProcessScheduleInput: Schedule:Day:Interval=\"SCHEDULE DAY 14\", Blank Schedule Type Limits Name input -- will not be validated.\n   ** Warning ** ProcessScheduleInput: Schedule:Day:Interval=\"SCHEDULE DAY 140\", Blank Schedule Type Limits Name input -- will not be validated.\n   ** Warning ** ProcessScheduleInput: Schedule:Day:Interval=\"SCHEDULE DAY 141\", Blank Schedule Type Limits Name input -- will not be validated.\n   ** Warning ** ProcessScheduleInput: Schedule:Day:Interval=\"SCHEDULE DAY 142\", Blank Schedule Type Limits Name input -- will not be validated.\n   ** Warning ** ProcessScheduleInput: Schedule:Day:Interval=\"SCHEDULE DAY 143\", Blank Schedule Type Limits Name input -- will not be validated.\n   ** Warning ** ProcessScheduleInput: Schedule:Day:Interval=\"SCHEDULE DAY 144\", Blank Schedule Type Limits Name input -- will not be validated.\n   ** Warning ** ProcessScheduleInput: Schedule:Day:Interval=\"SCHEDULE DAY 145\", Blank Schedule Type Limits Name input -- will not be validated.\n   ** Warning ** ProcessScheduleInput: Schedule:Day:Interval=\"SCHEDULE DAY 146\", Blank Schedule Type Limits Name input -- will not be validated.\n   ** Warning ** ProcessScheduleInput: Schedule:Day:Interval=\"SCHEDULE DAY 147\", Blank Schedule Type Limits Name input -- will not be validated.\n   ** Warning ** ProcessScheduleInput: Schedule:Day:Interval=\"SCHEDULE DAY 148\", Blank Schedule Type Limits Name input -- will not be validated.\n   ** Warning ** ProcessScheduleInput: Schedule:Day:Interval=\"SCHEDULE DAY 149\", Blank Schedule Type Limits Name input -- will not be validated.\n   ** Warning ** ProcessScheduleInput: Schedule:Day:Interval=\"SCHEDULE DAY 15\", Blank Schedule Type Limits Name input -- will not be validated.\n   ** Warning ** ProcessScheduleInput: Schedule:Day:Interval=\"SCHEDULE DAY 150\", Blank Schedule Type Limits Name input -- will not be validated.\n   ** Warning ** ProcessScheduleInput: Schedule:Day:Interval=\"SCHEDULE DAY 151\", Blank Schedule Type Limits Name input -- will not be validated.\n   ** Warning ** ProcessScheduleInput: Schedule:Day:Interval=\"SCHEDULE DAY 152\", Blank Schedule Type Limits Name input -- will not be validated.\n   ** Warning ** ProcessScheduleInput: Schedule:Day:Interval=\"SCHEDULE DAY 153\", Blank Schedule Type Limits Name input -- will not be validated.\n   ** Warning ** ProcessScheduleInput: Schedule:Day:Interval=\"SCHEDULE DAY 154\", Blank Schedule Type Limits Name input -- will not be validated.\n   ** Warning ** ProcessScheduleInput: Schedule:Day:Interval=\"SCHEDULE DAY 155\", Blank Schedule Type Limits Name input -- will not be validated.\n   ** Warning ** ProcessScheduleInput: Schedule:Day:Interval=\"SCHEDULE DAY 156\", Blank Schedule Type Limits Name input -- will not be validated.\n   ** Warning ** ProcessScheduleInput: Schedule:Day:Interval=\"SCHEDULE DAY 157\", Blank Schedule Type Limits Name input -- will not be validated.\n   ** Warning ** ProcessScheduleInput: Schedule:Day:Interval=\"SCHEDULE DAY 158\", Blank Schedule Type Limits Name input -- will not be validated.\n   ** Warning ** ProcessScheduleInput: Schedule:Day:Interval=\"SCHEDULE DAY 159\", Blank Schedule Type Limits Name input -- will not be validated.\n   ** Warning ** ProcessScheduleInput: Schedule:Day:Interval=\"SCHEDULE DAY 16\", Blank Schedule Type Limits Name input -- will not be validated.\n   ** Warning ** ProcessScheduleInput: Schedule:Day:Interval=\"SCHEDULE DAY 160\", Blank Schedule Type Limits Name input -- will not be validated.\n   ** Warning ** ProcessScheduleInput: Schedule:Day:Interval=\"SCHEDULE DAY 161\", Blank Schedule Type Limits Name input -- will not be validated.\n   ** Warning ** ProcessScheduleInput: Schedule:Day:Interval=\"SCHEDULE DAY 162\", Blank Schedule Type Limits Name input -- will not be validated.\n   ** Warning ** ProcessScheduleInput: Schedule:Day:Interval=\"SCHEDULE DAY 163\", Blank Schedule Type Limits Name input -- will not be validated.\n   ** Warning ** ProcessScheduleInput: Schedule:Day:Interval=\"SCHEDULE DAY 164\", Blank Schedule Type Limits Name input -- will not be validated.\n   ** Warning ** ProcessScheduleInput: Schedule:Day:Interval=\"SCHEDULE DAY 165\", Blank Schedule Type Limits Name input -- will not be validated.\n   ** Warning ** ProcessScheduleInput: Schedule:Day:Interval=\"SCHEDULE DAY 166\", Blank Schedule Type Limits Name input -- will not be validated.\n   ** Warning ** ProcessScheduleInput: Schedule:Day:Interval=\"SCHEDULE DAY 167\", Blank Schedule Type Limits Name input -- will not be validated.\n   ** Warning ** ProcessScheduleInput: Schedule:Day:Interval=\"SCHEDULE DAY 168\", Blank Schedule Type Limits Name input -- will not be validated.\n   ** Warning ** ProcessScheduleInput: Schedule:Day:Interval=\"SCHEDULE DAY 169\", Blank Schedule Type Limits Name input -- will not be validated.\n   ** Warning ** ProcessScheduleInput: Schedule:Day:Interval=\"SCHEDULE DAY 17\", Blank Schedule Type Limits Name input -- will not be validated.\n   ** Warning ** ProcessScheduleInput: Schedule:Day:Interval=\"SCHEDULE DAY 170\", Blank Schedule Type Limits Name input -- will not be validated.\n   ** Warning ** ProcessScheduleInput: Schedule:Day:Interval=\"SCHEDULE DAY 171\", Blank Schedule Type Limits Name input -- will not be validated.\n   ** Warning ** ProcessScheduleInput: Schedule:Day:Interval=\"SCHEDULE DAY 172\", Blank Schedule Type Limits Name input -- will not be validated.\n   ** Warning ** ProcessScheduleInput: Schedule:Day:Interval=\"SCHEDULE DAY 173\", Blank Schedule Type Limits Name input -- will not be validated.\n   ** Warning ** ProcessScheduleInput: Schedule:Day:Interval=\"SCHEDULE DAY 174\", Blank Schedule Type Limits Name input -- will not be validated.\n   ** Warning ** ProcessScheduleInput: Schedule:Day:Interval=\"SCHEDULE DAY 175\", Blank Schedule Type Limits Name input -- will not be validated.\n   ** Warning ** ProcessScheduleInput: Schedule:Day:Interval=\"SCHEDULE DAY 176\", Blank Schedule Type Limits Name input -- will not be validated.\n   ** Warning ** ProcessScheduleInput: Schedule:Day:Interval=\"SCHEDULE DAY 177\", Blank Schedule Type Limits Name input -- will not be validated.\n   ** Warning ** ProcessScheduleInput: Schedule:Day:Interval=\"SCHEDULE DAY 178\", Blank Schedule Type Limits Name input -- will not be validated.\n   ** Warning ** ProcessScheduleInput: Schedule:Day:Interval=\"SCHEDULE DAY 179\", Blank Schedule Type Limits Name input -- will not be validated.\n   ** Warning ** ProcessScheduleInput: Schedule:Day:Interval=\"SCHEDULE DAY 18\", Blank Schedule Type Limits Name input -- will not be validated.\n   ** Warning ** ProcessScheduleInput: Schedule:Day:Interval=\"SCHEDULE DAY 180\", Blank Schedule Type Limits Name input -- will not be validated.\n   ** Warning ** ProcessScheduleInput: Schedule:Day:Interval=\"SCHEDULE DAY 181\", Blank Schedule Type Limits Name input -- will not be validated.\n   ** Warning ** ProcessScheduleInput: Schedule:Day:Interval=\"SCHEDULE DAY 182\", Blank Schedule Type Limits Name input -- will not be validated.\n   ** Warning ** ProcessScheduleInput: Schedule:Day:Interval=\"SCHEDULE DAY 183\", Blank Schedule Type Limits Name input -- will not be validated.\n   ** Warning ** ProcessScheduleInput: Schedule:Day:Interval=\"SCHEDULE DAY 184\", Blank Schedule Type Limits Name input -- will not be validated.\n   ** Warning ** ProcessScheduleInput: Schedule:Day:Interval=\"SCHEDULE DAY 185\", Blank Schedule Type Limits Name input -- will not be validated.\n   ** Warning ** ProcessScheduleInput: Schedule:Day:Interval=\"SCHEDULE DAY 186\", Blank Schedule Type Limits Name input -- will not be validated.\n   ** Warning ** ProcessScheduleInput: Schedule:Day:Interval=\"SCHEDULE DAY 187\", Blank Schedule Type Limits Name input -- will not be validated.\n   ** Warning ** ProcessScheduleInput: Schedule:Day:Interval=\"SCHEDULE DAY 188\", Blank Schedule Type Limits Name input -- will not be validated.\n   ** Warning ** ProcessScheduleInput: Schedule:Day:Interval=\"SCHEDULE DAY 189\", Blank Schedule Type Limits Name input -- will not be validated.\n   ** Warning ** ProcessScheduleInput: Schedule:Day:Interval=\"SCHEDULE DAY 19\", Blank Schedule Type Limits Name input -- will not be validated.\n   ** Warning ** ProcessScheduleInput: Schedule:Day:Interval=\"SCHEDULE DAY 190\", Blank Schedule Type Limits Name input -- will not be validated.\n   ** Warning ** ProcessScheduleInput: Schedule:Day:Interval=\"SCHEDULE DAY 191\", Blank Schedule Type Limits Name input -- will not be validated.\n   ** Warning ** ProcessScheduleInput: Schedule:Day:Interval=\"SCHEDULE DAY 192\", Blank Schedule Type Limits Name input -- will not be validated.\n   ** Warning ** ProcessScheduleInput: Schedule:Day:Interval=\"SCHEDULE DAY 193\", Blank Schedule Type Limits Name input -- will not be validated.\n   ** Warning ** ProcessScheduleInput: Schedule:Day:Interval=\"SCHEDULE DAY 194\", Blank Schedule Type Limits Name input -- will not be validated.\n   ** Warning ** ProcessScheduleInput: Schedule:Day:Interval=\"SCHEDULE DAY 195\", Blank Schedule Type Limits Name input -- will not be validated.\n   ** Warning ** ProcessScheduleInput: Schedule:Day:Interval=\"SCHEDULE DAY 196\", Blank Schedule Type Limits Name input -- will not be validated.\n   ** Warning ** ProcessScheduleInput: Schedule:Day:Interval=\"SCHEDULE DAY 197\", Blank Schedule Type Limits Name input -- will not be validated.\n   ** Warning ** ProcessScheduleInput: Schedule:Day:Interval=\"SCHEDULE DAY 198\", Blank Schedule Type Limits Name input -- will not be validated.\n   ** Warning ** ProcessScheduleInput: Schedule:Day:Interval=\"SCHEDULE DAY 199\", Blank Schedule Type Limits Name input -- will not be validated.\n   ** Warning ** ProcessScheduleInput: Schedule:Day:Interval=\"SCHEDULE DAY 2\", Blank Schedule Type Limits Name input -- will not be validated.\n   ** Warning ** ProcessScheduleInput: Schedule:Day:Interval=\"SCHEDULE DAY 20\", Blank Schedule Type Limits Name input -- will not be validated.\n   ** Warning ** ProcessScheduleInput: Schedule:Day:Interval=\"SCHEDULE DAY 200\", Blank Schedule Type Limits Name input -- will not be validated.\n   ** Warning ** ProcessScheduleInput: Schedule:Day:Interval=\"SCHEDULE DAY 201\", Blank Schedule Type Limits Name input -- will not be validated.\n   ** Warning ** ProcessScheduleInput: Schedule:Day:Interval=\"SCHEDULE DAY 202\", Blank Schedule Type Limits Name input -- will not be validated.\n   ** Warning ** ProcessScheduleInput: Schedule:Day:Interval=\"SCHEDULE DAY 203\", Blank Schedule Type Limits Name input -- will not be validated.\n   ** Warning ** ProcessScheduleInput: Schedule:Day:Interval=\"SCHEDULE DAY 204\", Blank Schedule Type Limits Name input -- will not be validated.\n   ** Warning ** ProcessScheduleInput: Schedule:Day:Interval=\"SCHEDULE DAY 205\", Blank Schedule Type Limits Name input -- will not be validated.\n   ** Warning ** ProcessScheduleInput: Schedule:Day:Interval=\"SCHEDULE DAY 206\", Blank Schedule Type Limits Name input -- will not be validated.\n   ** Warning ** ProcessScheduleInput: Schedule:Day:Interval=\"SCHEDULE DAY 207\", Blank Schedule Type Limits Name input -- will not be validated.\n   ** Warning ** ProcessScheduleInput: Schedule:Day:Interval=\"SCHEDULE DAY 208\", Blank Schedule Type Limits Name input -- will not be validated.\n   ** Warning ** ProcessScheduleInput: Schedule:Day:Interval=\"SCHEDULE DAY 209\", Blank Schedule Type Limits Name input -- will not be validated.\n   ** Warning ** ProcessScheduleInput: Schedule:Day:Interval=\"SCHEDULE DAY 21\", Blank Schedule Type Limits Name input -- will not be validated.\n   ** Warning ** ProcessScheduleInput: Schedule:Day:Interval=\"SCHEDULE DAY 210\", Blank Schedule Type Limits Name input -- will not be validated.\n   ** Warning ** ProcessScheduleInput: Schedule:Day:Interval=\"SCHEDULE DAY 211\", Blank Schedule Type Limits Name input -- will not be validated.\n   ** Warning ** ProcessScheduleInput: Schedule:Day:Interval=\"SCHEDULE DAY 212\", Blank Schedule Type Limits Name input -- will not be validated.\n   ** Warning ** ProcessScheduleInput: Schedule:Day:Interval=\"SCHEDULE DAY 213\", Blank Schedule Type Limits Name input -- will not be validated.\n   ** Warning ** ProcessScheduleInput: Schedule:Day:Interval=\"SCHEDULE DAY 214\", Blank Schedule Type Limits Name input -- will not be validated.\n   ** Warning ** ProcessScheduleInput: Schedule:Day:Interval=\"SCHEDULE DAY 215\", Blank Schedule Type Limits Name input -- will not be validated.\n   ** Warning ** ProcessScheduleInput: Schedule:Day:Interval=\"SCHEDULE DAY 216\", Blank Schedule Type Limits Name input -- will not be validated.\n   ** Warning ** ProcessScheduleInput: Schedule:Day:Interval=\"SCHEDULE DAY 217\", Blank Schedule Type Limits Name input -- will not be validated.\n   ** Warning ** ProcessScheduleInput: Schedule:Day:Interval=\"SCHEDULE DAY 218\", Blank Schedule Type Limits Name input -- will not be validated.\n   ** Warning ** ProcessScheduleInput: Schedule:Day:Interval=\"SCHEDULE DAY 219\", Blank Schedule Type Limits Name input -- will not be validated.\n   ** Warning ** ProcessScheduleInput: Schedule:Day:Interval=\"SCHEDULE DAY 22\", Blank Schedule Type Limits Name input -- will not be validated.\n   ** Warning ** ProcessScheduleInput: Schedule:Day:Interval=\"SCHEDULE DAY 220\", Blank Schedule Type Limits Name input -- will not be validated.\n   ** Warning ** ProcessScheduleInput: Schedule:Day:Interval=\"SCHEDULE DAY 221\", Blank Schedule Type Limits Name input -- will not be validated.\n   ** Warning ** ProcessScheduleInput: Schedule:Day:Interval=\"SCHEDULE DAY 222\", Blank Schedule Type Limits Name input -- will not be validated.\n   ** Warning ** ProcessScheduleInput: Schedule:Day:Interval=\"SCHEDULE DAY 223\", Blank Schedule Type Limits Name input -- will not be validated.\n   ** Warning ** ProcessScheduleInput: Schedule:Day:Interval=\"SCHEDULE DAY 224\", Blank Schedule Type Limits Name input -- will not be validated.\n   ** Warning ** ProcessScheduleInput: Schedule:Day:Interval=\"SCHEDULE DAY 225\", Blank Schedule Type Limits Name input -- will not be validated.\n   ** Warning ** ProcessScheduleInput: Schedule:Day:Interval=\"SCHEDULE DAY 226\", Blank Schedule Type Limits Name input -- will not be validated.\n   ** Warning ** ProcessScheduleInput: Schedule:Day:Interval=\"SCHEDULE DAY 227\", Blank Schedule Type Limits Name input -- will not be validated.\n   ** Warning ** ProcessScheduleInput: Schedule:Day:Interval=\"SCHEDULE DAY 228\", Blank Schedule Type Limits Name input -- will not be validated.\n   ** Warning ** ProcessScheduleInput: Schedule:Day:Interval=\"SCHEDULE DAY 229\", Blank Schedule Type Limits Name input -- will not be validated.\n   ** Warning ** ProcessScheduleInput: Schedule:Day:Interval=\"SCHEDULE DAY 23\", Blank Schedule Type Limits Name input -- will not be validated.\n   ** Warning ** ProcessScheduleInput: Schedule:Day:Interval=\"SCHEDULE DAY 230\", Blank Schedule Type Limits Name input -- will not be validated.\n   ** Warning ** ProcessScheduleInput: Schedule:Day:Interval=\"SCHEDULE DAY 231\", Blank Schedule Type Limits Name input -- will not be validated.\n   ** Warning ** ProcessScheduleInput: Schedule:Day:Interval=\"SCHEDULE DAY 232\", Blank Schedule Type Limits Name input -- will not be validated.\n   ** Warning ** ProcessScheduleInput: Schedule:Day:Interval=\"SCHEDULE DAY 233\", Blank Schedule Type Limits Name input -- will not be validated.\n   ** Warning ** ProcessScheduleInput: Schedule:Day:Interval=\"SCHEDULE DAY 234\", Blank Schedule Type Limits Name input -- will not be validated.\n   ** Warning ** ProcessScheduleInput: Schedule:Day:Interval=\"SCHEDULE DAY 235\", Blank Schedule Type Limits Name input -- will not be validated.\n   ** Warning ** ProcessScheduleInput: Schedule:Day:Interval=\"SCHEDULE DAY 236\", Blank Schedule Type Limits Name input -- will not be validated.\n   ** Warning ** ProcessScheduleInput: Schedule:Day:Interval=\"SCHEDULE DAY 237\", Blank Schedule Type Limits Name input -- will not be validated.\n   ** Warning ** ProcessScheduleInput: Schedule:Day:Interval=\"SCHEDULE DAY 238\", Blank Schedule Type Limits Name input -- will not be validated.\n   ** Warning ** ProcessScheduleInput: Schedule:Day:Interval=\"SCHEDULE DAY 239\", Blank Schedule Type Limits Name input -- will not be validated.\n   ** Warning ** ProcessScheduleInput: Schedule:Day:Interval=\"SCHEDULE DAY 24\", Blank Schedule Type Limits Name input -- will not be validated.\n   ** Warning ** ProcessScheduleInput: Schedule:Day:Interval=\"SCHEDULE DAY 240\", Blank Schedule Type Limits Name input -- will not be validated.\n   ** Warning ** ProcessScheduleInput: Schedule:Day:Interval=\"SCHEDULE DAY 241\", Blank Schedule Type Limits Name input -- will not be validated.\n   ** Warning ** ProcessScheduleInput: Schedule:Day:Interval=\"SCHEDULE DAY 242\", Blank Schedule Type Limits Name input -- will not be validated.\n   ** Warning ** ProcessScheduleInput: Schedule:Day:Interval=\"SCHEDULE DAY 243\", Blank Schedule Type Limits Name input -- will not be validated.\n   ** Warning ** ProcessScheduleInput: Schedule:Day:Interval=\"SCHEDULE DAY 244\", Blank Schedule Type Limits Name input -- will not be validated.\n   ** Warning ** ProcessScheduleInput: Schedule:Day:Interval=\"SCHEDULE DAY 245\", Blank Schedule Type Limits Name input -- will not be validated.\n   ** Warning ** ProcessScheduleInput: Schedule:Day:Interval=\"SCHEDULE DAY 246\", Blank Schedule Type Limits Name input -- will not be validated.\n   ** Warning ** ProcessScheduleInput: Schedule:Day:Interval=\"SCHEDULE DAY 247\", Blank Schedule Type Limits Name input -- will not be validated.\n   ** Warning ** ProcessScheduleInput: Schedule:Day:Interval=\"SCHEDULE DAY 248\", Blank Schedule Type Limits Name input -- will not be validated.\n   ** Warning ** ProcessScheduleInput: Schedule:Day:Interval=\"SCHEDULE DAY 249\", Blank Schedule Type Limits Name input -- will not be validated.\n   ** Warning ** ProcessScheduleInput: Schedule:Day:Interval=\"SCHEDULE DAY 25\", Blank Schedule Type Limits Name input -- will not be validated.\n   ** Warning ** ProcessScheduleInput: Schedule:Day:Interval=\"SCHEDULE DAY 250\", Blank Schedule Type Limits Name input -- will not be validated.\n   ** Warning ** ProcessScheduleInput: Schedule:Day:Interval=\"SCHEDULE DAY 251\", Blank Schedule Type Limits Name input -- will not be validated.\n   ** Warning ** ProcessScheduleInput: Schedule:Day:Interval=\"SCHEDULE DAY 26\", Blank Schedule Type Limits Name input -- will not be validated.\n   ** Warning ** ProcessScheduleInput: Schedule:Day:Interval=\"SCHEDULE DAY 27\", Blank Schedule Type Limits Name input -- will not be validated.\n   ** Warning ** ProcessScheduleInput: Schedule:Day:Interval=\"SCHEDULE DAY 28\", Blank Schedule Type Limits Name input -- will not be validated.\n   ** Warning ** ProcessScheduleInput: Schedule:Day:Interval=\"SCHEDULE DAY 29\", Blank Schedule Type Limits Name input -- will not be validated.\n   ** Warning ** ProcessScheduleInput: Schedule:Day:Interval=\"SCHEDULE DAY 30\", Blank Schedule Type Limits Name input -- will not be validated.\n   ** Warning ** ProcessScheduleInput: Schedule:Day:Interval=\"SCHEDULE DAY 31\", Blank Schedule Type Limits Name input -- will not be validated.\n   ** Warning ** ProcessScheduleInput: Schedule:Day:Interval=\"SCHEDULE DAY 32\", Blank Schedule Type Limits Name input -- will not be validated.\n   ** Warning ** ProcessScheduleInput: Schedule:Day:Interval=\"SCHEDULE DAY 33\", Blank Schedule Type Limits Name input -- will not be validated.\n   ** Warning ** ProcessScheduleInput: Schedule:Day:Interval=\"SCHEDULE DAY 34\", Blank Schedule Type Limits Name input -- will not be validated.\n   ** Warning ** ProcessScheduleInput: Schedule:Day:Interval=\"SCHEDULE DAY 35\", Blank Schedule Type Limits Name input -- will not be validated.\n   ** Warning ** ProcessScheduleInput: Schedule:Day:Interval=\"SCHEDULE DAY 36\", Blank Schedule Type Limits Name input -- will not be validated.\n   ** Warning ** ProcessScheduleInput: Schedule:Day:Interval=\"SCHEDULE DAY 37\", Blank Schedule Type Limits Name input -- will not be validated.\n   ** Warning ** ProcessScheduleInput: Schedule:Day:Interval=\"SCHEDULE DAY 38\", Blank Schedule Type Limits Name input -- will not be validated.\n   ** Warning ** ProcessScheduleInput: Schedule:Day:Interval=\"SCHEDULE DAY 39\", Blank Schedule Type Limits Name input -- will not be validated.\n   ** Warning ** ProcessScheduleInput: Schedule:Day:Interval=\"SCHEDULE DAY 40\", Blank Schedule Type Limits Name input -- will not be validated.\n   ** Warning ** ProcessScheduleInput: Schedule:Day:Interval=\"SCHEDULE DAY 41\", Blank Schedule Type Limits Name input -- will not be validated.\n   ** Warning ** ProcessScheduleInput: Schedule:Day:Interval=\"SCHEDULE DAY 42\", Blank Schedule Type Limits Name input -- will not be validated.\n   ** Warning ** ProcessScheduleInput: Schedule:Day:Interval=\"SCHEDULE DAY 43\", Blank Schedule Type Limits Name input -- will not be validated.\n   ** Warning ** ProcessScheduleInput: Schedule:Day:Interval=\"SCHEDULE DAY 44\", Blank Schedule Type Limits Name input -- will not be validated.\n   ** Warning ** ProcessScheduleInput: Schedule:Day:Interval=\"SCHEDULE DAY 45\", Blank Schedule Type Limits Name input -- will not be validated.\n   ** Warning ** ProcessScheduleInput: Schedule:Day:Interval=\"SCHEDULE DAY 46\", Blank Schedule Type Limits Name input -- will not be validated.\n   ** Warning ** ProcessScheduleInput: Schedule:Day:Interval=\"SCHEDULE DAY 47\", Blank Schedule Type Limits Name input -- will not be validated.\n   ** Warning ** ProcessScheduleInput: Schedule:Day:Interval=\"SCHEDULE DAY 48\", Blank Schedule Type Limits Name input -- will not be validated.\n   ** Warning ** ProcessScheduleInput: Schedule:Day:Interval=\"SCHEDULE DAY 49\", Blank Schedule Type Limits Name input -- will not be validated.\n   ** Warning ** ProcessScheduleInput: Schedule:Day:Interval=\"SCHEDULE DAY 50\", Blank Schedule Type Limits Name input -- will not be validated.\n   ** Warning ** ProcessScheduleInput: Schedule:Day:Interval=\"SCHEDULE DAY 51\", Blank Schedule Type Limits Name input -- will not be validated.\n   ** Warning ** ProcessScheduleInput: Schedule:Day:Interval=\"SCHEDULE DAY 52\", Blank Schedule Type Limits Name input -- will not be validated.\n   ** Warning ** ProcessScheduleInput: Schedule:Day:Interval=\"SCHEDULE DAY 53\", Blank Schedule Type Limits Name input -- will not be validated.\n   ** Warning ** ProcessScheduleInput: Schedule:Day:Interval=\"SCHEDULE DAY 54\", Blank Schedule Type Limits Name input -- will not be validated.\n   ** Warning ** ProcessScheduleInput: Schedule:Day:Interval=\"SCHEDULE DAY 55\", Blank Schedule Type Limits Name input -- will not be validated.\n   ** Warning ** ProcessScheduleInput: Schedule:Day:Interval=\"SCHEDULE DAY 56\", Blank Schedule Type Limits Name input -- will not be validated.\n   ** Warning ** ProcessScheduleInput: Schedule:Day:Interval=\"SCHEDULE DAY 57\", Blank Schedule Type Limits Name input -- will not be validated.\n   ** Warning ** ProcessScheduleInput: Schedule:Day:Interval=\"SCHEDULE DAY 58\", Blank Schedule Type Limits Name input -- will not be validated.\n   ** Warning ** ProcessScheduleInput: Schedule:Day:Interval=\"SCHEDULE DAY 59\", Blank Schedule Type Limits Name input -- will not be validated.\n   ** Warning ** ProcessScheduleInput: Schedule:Day:Interval=\"SCHEDULE DAY 60\", Blank Schedule Type Limits Name input -- will not be validated.\n   ** Warning ** ProcessScheduleInput: Schedule:Day:Interval=\"SCHEDULE DAY 61\", Blank Schedule Type Limits Name input -- will not be validated.\n   ** Warning ** ProcessScheduleInput: Schedule:Day:Interval=\"SCHEDULE DAY 62\", Blank Schedule Type Limits Name input -- will not be validated.\n   ** Warning ** ProcessScheduleInput: Schedule:Day:Interval=\"SCHEDULE DAY 63\", Blank Schedule Type Limits Name input -- will not be validated.\n   ** Warning ** ProcessScheduleInput: Schedule:Day:Interval=\"SCHEDULE DAY 64\", Blank Schedule Type Limits Name input -- will not be validated.\n   ** Warning ** ProcessScheduleInput: Schedule:Day:Interval=\"SCHEDULE DAY 65\", Blank Schedule Type Limits Name input -- will not be validated.\n   ** Warning ** ProcessScheduleInput: Schedule:Day:Interval=\"SCHEDULE DAY 66\", Blank Schedule Type Limits Name input -- will not be validated.\n   ** Warning ** ProcessScheduleInput: Schedule:Day:Interval=\"SCHEDULE DAY 67\", Blank Schedule Type Limits Name input -- will not be validated.\n   ** Warning ** ProcessScheduleInput: Schedule:Day:Interval=\"SCHEDULE DAY 68\", Blank Schedule Type Limits Name input -- will not be validated.\n   ** Warning ** ProcessScheduleInput: Schedule:Day:Interval=\"SCHEDULE DAY 69\", Blank Schedule Type Limits Name input -- will not be validated.\n   ** Warning ** ProcessScheduleInput: Schedule:Day:Interval=\"SCHEDULE DAY 70\", Blank Schedule Type Limits Name input -- will not be validated.\n   ** Warning ** ProcessScheduleInput: Schedule:Day:Interval=\"SCHEDULE DAY 71\", Blank Schedule Type Limits Name input -- will not be validated.\n   ** Warning ** ProcessScheduleInput: Schedule:Day:Interval=\"SCHEDULE DAY 72\", Blank Schedule Type Limits Name input -- will not be validated.\n   ** Warning ** ProcessScheduleInput: Schedule:Day:Interval=\"SCHEDULE DAY 73\", Blank Schedule Type Limits Name input -- will not be validated.\n   ** Warning ** ProcessScheduleInput: Schedule:Day:Interval=\"SCHEDULE DAY 74\", Blank Schedule Type Limits Name input -- will not be validated.\n   ** Warning ** ProcessScheduleInput: Schedule:Day:Interval=\"SCHEDULE DAY 75\", Blank Schedule Type Limits Name input -- will not be validated.\n   ** Warning ** ProcessScheduleInput: Schedule:Day:Interval=\"SCHEDULE DAY 76\", Blank Schedule Type Limits Name input -- will not be validated.\n   ** Warning ** ProcessScheduleInput: Schedule:Day:Interval=\"SCHEDULE DAY 77\", Blank Schedule Type Limits Name input -- will not be validated.\n   ** Warning ** ProcessScheduleInput: Schedule:Day:Interval=\"SCHEDULE DAY 78\", Blank Schedule Type Limits Name input -- will not be validated.\n   ** Warning ** ProcessScheduleInput: Schedule:Day:Interval=\"SCHEDULE DAY 79\", Blank Schedule Type Limits Name input -- will not be validated.\n   ** Warning ** ProcessScheduleInput: Schedule:Day:Interval=\"SCHEDULE DAY 8\", Blank Schedule Type Limits Name input -- will not be validated.\n   ** Warning ** ProcessScheduleInput: Schedule:Day:Interval=\"SCHEDULE DAY 80\", Blank Schedule Type Limits Name input -- will not be validated.\n   ** Warning ** ProcessScheduleInput: Schedule:Day:Interval=\"SCHEDULE DAY 81\", Blank Schedule Type Limits Name input -- will not be validated.\n   ** Warning ** ProcessScheduleInput: Schedule:Day:Interval=\"SCHEDULE DAY 82\", Blank Schedule Type Limits Name input -- will not be validated.\n   ** Warning ** ProcessScheduleInput: Schedule:Day:Interval=\"SCHEDULE DAY 83\", Blank Schedule Type Limits Name input -- will not be validated.\n   ** Warning ** ProcessScheduleInput: Schedule:Day:Interval=\"SCHEDULE DAY 84\", Blank Schedule Type Limits Name input -- will not be validated.\n   ** Warning ** ProcessScheduleInput: Schedule:Day:Interval=\"SCHEDULE DAY 85\", Blank Schedule Type Limits Name input -- will not be validated.\n   ** Warning ** ProcessScheduleInput: Schedule:Day:Interval=\"SCHEDULE DAY 86\", Blank Schedule Type Limits Name input -- will not be validated.\n   ** Warning ** ProcessScheduleInput: Schedule:Day:Interval=\"SCHEDULE DAY 87\", Blank Schedule Type Limits Name input -- will not be validated.\n   ** Warning ** ProcessScheduleInput: Schedule:Day:Interval=\"SCHEDULE DAY 88\", Blank Schedule Type Limits Name input -- will not be validated.\n   ** Warning ** ProcessScheduleInput: Schedule:Day:Interval=\"SCHEDULE DAY 89\", Blank Schedule Type Limits Name input -- will not be validated.\n   ** Warning ** ProcessScheduleInput: Schedule:Day:Interval=\"SCHEDULE DAY 9\", Blank Schedule Type Limits Name input -- will not be validated.\n   ** Warning ** ProcessScheduleInput: Schedule:Day:Interval=\"SCHEDULE DAY 90\", Blank Schedule Type Limits Name input -- will not be validated.\n   ** Warning ** ProcessScheduleInput: Schedule:Day:Interval=\"SCHEDULE DAY 91\", Blank Schedule Type Limits Name input -- will not be validated.\n   ** Warning ** ProcessScheduleInput: Schedule:Day:Interval=\"SCHEDULE DAY 92\", Blank Schedule Type Limits Name input -- will not be validated.\n   ** Warning ** ProcessScheduleInput: Schedule:Day:Interval=\"SCHEDULE DAY 93\", Blank Schedule Type Limits Name input -- will not be validated.\n   ** Warning ** ProcessScheduleInput: Schedule:Day:Interval=\"SCHEDULE DAY 94\", Blank Schedule Type Limits Name input -- will not be validated.\n   ** Warning ** ProcessScheduleInput: Schedule:Day:Interval=\"SCHEDULE DAY 95\", Blank Schedule Type Limits Name input -- will not be validated.\n   ** Warning ** ProcessScheduleInput: Schedule:Day:Interval=\"SCHEDULE DAY 96\", Blank Schedule Type Limits Name input -- will not be validated.\n   ** Warning ** ProcessScheduleInput: Schedule:Day:Interval=\"SCHEDULE DAY 97\", Blank Schedule Type Limits Name input -- will not be validated.\n   ** Warning ** ProcessScheduleInput: Schedule:Day:Interval=\"SCHEDULE DAY 98\", Blank Schedule Type Limits Name input -- will not be validated.\n   ** Warning ** ProcessScheduleInput: Schedule:Day:Interval=\"SCHEDULE DAY 99\", Blank Schedule Type Limits Name input -- will not be validated.\n   ** Warning ** ProcessScheduleInput: Schedule:Year=\"ECONOMIZER MAX OA FRACTION 100 PCT\", Blank Schedule Type Limits Name input -- will not be validated.\n   ** Warning ** ProcessScheduleInput: Schedule:Year=\"SCHEDULE RULESET 10\", Blank Schedule Type Limits Name input -- will not be validated.\n   ** Warning ** ProcessScheduleInput: Schedule:Year=\"SCHEDULE RULESET 100\", Blank Schedule Type Limits Name input -- will not be validated.\n   ** Warning ** ProcessScheduleInput: Schedule:Year=\"SCHEDULE RULESET 101\", Blank Schedule Type Limits Name input -- will not be validated.\n   ** Warning ** ProcessScheduleInput: Schedule:Year=\"SCHEDULE RULESET 102\", Blank Schedule Type Limits Name input -- will not be validated.\n   ** Warning ** ProcessScheduleInput: Schedule:Year=\"SCHEDULE RULESET 103\", Blank Schedule Type Limits Name input -- will not be validated.\n   ** Warning ** ProcessScheduleInput: Schedule:Year=\"SCHEDULE RULESET 104\", Blank Schedule Type Limits Name input -- will not be validated.\n   ** Warning ** ProcessScheduleInput: Schedule:Year=\"SCHEDULE RULESET 105\", Blank Schedule Type Limits Name input -- will not be validated.\n   ** Warning ** ProcessScheduleInput: Schedule:Year=\"SCHEDULE RULESET 106\", Blank Schedule Type Limits Name input -- will not be validated.\n   ** Warning ** ProcessScheduleInput: Schedule:Year=\"SCHEDULE RULESET 107\", Blank Schedule Type Limits Name input -- will not be validated.\n   ** Warning ** ProcessScheduleInput: Schedule:Year=\"SCHEDULE RULESET 108\", Blank Schedule Type Limits Name input -- will not be validated.\n   ** Warning ** ProcessScheduleInput: Schedule:Year=\"SCHEDULE RULESET 109\", Blank Schedule Type Limits Name input -- will not be validated.\n   ** Warning ** ProcessScheduleInput: Schedule:Year=\"SCHEDULE RULESET 11\", Blank Schedule Type Limits Name input -- will not be validated.\n   ** Warning ** ProcessScheduleInput: Schedule:Year=\"SCHEDULE RULESET 110\", Blank Schedule Type Limits Name input -- will not be validated.\n   ** Warning ** ProcessScheduleInput: Schedule:Year=\"SCHEDULE RULESET 111\", Blank Schedule Type Limits Name input -- will not be validated.\n   ** Warning ** ProcessScheduleInput: Schedule:Year=\"SCHEDULE RULESET 112\", Blank Schedule Type Limits Name input -- will not be validated.\n   ** Warning ** ProcessScheduleInput: Schedule:Year=\"SCHEDULE RULESET 113\", Blank Schedule Type Limits Name input -- will not be validated.\n   ** Warning ** ProcessScheduleInput: Schedule:Year=\"SCHEDULE RULESET 114\", Blank Schedule Type Limits Name input -- will not be validated.\n   ** Warning ** ProcessScheduleInput: Schedule:Year=\"SCHEDULE RULESET 115\", Blank Schedule Type Limits Name input -- will not be validated.\n   ** Warning ** ProcessScheduleInput: Schedule:Year=\"SCHEDULE RULESET 116\", Blank Schedule Type Limits Name input -- will not be validated.\n   ** Warning ** ProcessScheduleInput: Schedule:Year=\"SCHEDULE RULESET 117\", Blank Schedule Type Limits Name input -- will not be validated.\n   ** Warning ** ProcessScheduleInput: Schedule:Year=\"SCHEDULE RULESET 118\", Blank Schedule Type Limits Name input -- will not be validated.\n   ** Warning ** ProcessScheduleInput: Schedule:Year=\"SCHEDULE RULESET 119\", Blank Schedule Type Limits Name input -- will not be validated.\n   ** Warning ** ProcessScheduleInput: Schedule:Year=\"SCHEDULE RULESET 12\", Blank Schedule Type Limits Name input -- will not be validated.\n   ** Warning ** ProcessScheduleInput: Schedule:Year=\"SCHEDULE RULESET 120\", Blank Schedule Type Limits Name input -- will not be validated.\n   ** Warning ** ProcessScheduleInput: Schedule:Year=\"SCHEDULE RULESET 121\", Blank Schedule Type Limits Name input -- will not be validated.\n   ** Warning ** ProcessScheduleInput: Schedule:Year=\"SCHEDULE RULESET 122\", Blank Schedule Type Limits Name input -- will not be validated.\n   ** Warning ** ProcessScheduleInput: Schedule:Year=\"SCHEDULE RULESET 123\", Blank Schedule Type Limits Name input -- will not be validated.\n   ** Warning ** ProcessScheduleInput: Schedule:Year=\"SCHEDULE RULESET 124\", Blank Schedule Type Limits Name input -- will not be validated.\n   ** Warning ** ProcessScheduleInput: Schedule:Year=\"SCHEDULE RULESET 125\", Blank Schedule Type Limits Name input -- will not be validated.\n   ** Warning ** ProcessScheduleInput: Schedule:Year=\"SCHEDULE RULESET 126\", Blank Schedule Type Limits Name input -- will not be validated.\n   ** Warning ** ProcessScheduleInput: Schedule:Year=\"SCHEDULE RULESET 127\", Blank Schedule Type Limits Name input -- will not be validated.\n   ** Warning ** ProcessScheduleInput: Schedule:Year=\"SCHEDULE RULESET 128\", Blank Schedule Type Limits Name input -- will not be validated.\n   ** Warning ** ProcessScheduleInput: Schedule:Year=\"SCHEDULE RULESET 129\", Blank Schedule Type Limits Name input -- will not be validated.\n   ** Warning ** ProcessScheduleInput: Schedule:Year=\"SCHEDULE RULESET 13\", Blank Schedule Type Limits Name input -- will not be validated.\n   ** Warning ** ProcessScheduleInput: Schedule:Year=\"SCHEDULE RULESET 130\", Blank Schedule Type Limits Name input -- will not be validated.\n   ** Warning ** ProcessScheduleInput: Schedule:Year=\"SCHEDULE RULESET 131\", Blank Schedule Type Limits Name input -- will not be validated.\n   ** Warning ** ProcessScheduleInput: Schedule:Year=\"SCHEDULE RULESET 132\", Blank Schedule Type Limits Name input -- will not be validated.\n   ** Warning ** ProcessScheduleInput: Schedule:Year=\"SCHEDULE RULESET 133\", Blank Schedule Type Limits Name input -- will not be validated.\n   ** Warning ** ProcessScheduleInput: Schedule:Year=\"SCHEDULE RULESET 134\", Blank Schedule Type Limits Name input -- will not be validated.\n   ** Warning ** ProcessScheduleInput: Schedule:Year=\"SCHEDULE RULESET 135\", Blank Schedule Type Limits Name input -- will not be validated.\n   ** Warning ** ProcessScheduleInput: Schedule:Year=\"SCHEDULE RULESET 136\", Blank Schedule Type Limits Name input -- will not be validated.\n   ** Warning ** ProcessScheduleInput: Schedule:Year=\"SCHEDULE RULESET 137\", Blank Schedule Type Limits Name input -- will not be validated.\n   ** Warning ** ProcessScheduleInput: Schedule:Year=\"SCHEDULE RULESET 138\", Blank Schedule Type Limits Name input -- will not be validated.\n   ** Warning ** ProcessScheduleInput: Schedule:Year=\"SCHEDULE RULESET 139\", Blank Schedule Type Limits Name input -- will not be validated.\n   ** Warning ** ProcessScheduleInput: Schedule:Year=\"SCHEDULE RULESET 14\", Blank Schedule Type Limits Name input -- will not be validated.\n   ** Warning ** ProcessScheduleInput: Schedule:Year=\"SCHEDULE RULESET 140\", Blank Schedule Type Limits Name input -- will not be validated.\n   ** Warning ** ProcessScheduleInput: Schedule:Year=\"SCHEDULE RULESET 141\", Blank Schedule Type Limits Name input -- will not be validated.\n   ** Warning ** ProcessScheduleInput: Schedule:Year=\"SCHEDULE RULESET 142\", Blank Schedule Type Limits Name input -- will not be validated.\n   ** Warning ** ProcessScheduleInput: Schedule:Year=\"SCHEDULE RULESET 143\", Blank Schedule Type Limits Name input -- will not be validated.\n   ** Warning ** ProcessScheduleInput: Schedule:Year=\"SCHEDULE RULESET 144\", Blank Schedule Type Limits Name input -- will not be validated.\n   ** Warning ** ProcessScheduleInput: Schedule:Year=\"SCHEDULE RULESET 145\", Blank Schedule Type Limits Name input -- will not be validated.\n   ** Warning ** ProcessScheduleInput: Schedule:Year=\"SCHEDULE RULESET 146\", Blank Schedule Type Limits Name input -- will not be validated.\n   ** Warning ** ProcessScheduleInput: Schedule:Year=\"SCHEDULE RULESET 147\", Blank Schedule Type Limits Name input -- will not be validated.\n   ** Warning ** ProcessScheduleInput: Schedule:Year=\"SCHEDULE RULESET 148\", Blank Schedule Type Limits Name input -- will not be validated.\n   ** Warning ** ProcessScheduleInput: Schedule:Year=\"SCHEDULE RULESET 149\", Blank Schedule Type Limits Name input -- will not be validated.\n   ** Warning ** ProcessScheduleInput: Schedule:Year=\"SCHEDULE RULESET 15\", Blank Schedule Type Limits Name input -- will not be validated.\n   ** Warning ** ProcessScheduleInput: Schedule:Year=\"SCHEDULE RULESET 150\", Blank Schedule Type Limits Name input -- will not be validated.\n   ** Warning ** ProcessScheduleInput: Schedule:Year=\"SCHEDULE RULESET 151\", Blank Schedule Type Limits Name input -- will not be validated.\n   ** Warning ** ProcessScheduleInput: Schedule:Year=\"SCHEDULE RULESET 152\", Blank Schedule Type Limits Name input -- will not be validated.\n   ** Warning ** ProcessScheduleInput: Schedule:Year=\"SCHEDULE RULESET 153\", Blank Schedule Type Limits Name input -- will not be validated.\n   ** Warning ** ProcessScheduleInput: Schedule:Year=\"SCHEDULE RULESET 154\", Blank Schedule Type Limits Name input -- will not be validated.\n   ** Warning ** ProcessScheduleInput: Schedule:Year=\"SCHEDULE RULESET 155\", Blank Schedule Type Limits Name input -- will not be validated.\n   ** Warning ** ProcessScheduleInput: Schedule:Year=\"SCHEDULE RULESET 156\", Blank Schedule Type Limits Name input -- will not be validated.\n   ** Warning ** ProcessScheduleInput: Schedule:Year=\"SCHEDULE RULESET 157\", Blank Schedule Type Limits Name input -- will not be validated.\n   ** Warning ** ProcessScheduleInput: Schedule:Year=\"SCHEDULE RULESET 158\", Blank Schedule Type Limits Name input -- will not be validated.\n   ** Warning ** ProcessScheduleInput: Schedule:Year=\"SCHEDULE RULESET 159\", Blank Schedule Type Limits Name input -- will not be validated.\n   ** Warning ** ProcessScheduleInput: Schedule:Year=\"SCHEDULE RULESET 16\", Blank Schedule Type Limits Name input -- will not be validated.\n   ** Warning ** ProcessScheduleInput: Schedule:Year=\"SCHEDULE RULESET 160\", Blank Schedule Type Limits Name input -- will not be validated.\n   ** Warning ** ProcessScheduleInput: Schedule:Year=\"SCHEDULE RULESET 161\", Blank Schedule Type Limits Name input -- will not be validated.\n   ** Warning ** ProcessScheduleInput: Schedule:Year=\"SCHEDULE RULESET 162\", Blank Schedule Type Limits Name input -- will not be validated.\n   ** Warning ** ProcessScheduleInput: Schedule:Year=\"SCHEDULE RULESET 163\", Blank Schedule Type Limits Name input -- will not be validated.\n   ** Warning ** ProcessScheduleInput: Schedule:Year=\"SCHEDULE RULESET 164\", Blank Schedule Type Limits Name input -- will not be validated.\n   ** Warning ** ProcessScheduleInput: Schedule:Year=\"SCHEDULE RULESET 165\", Blank Schedule Type Limits Name input -- will not be validated.\n   ** Warning ** ProcessScheduleInput: Schedule:Year=\"SCHEDULE RULESET 166\", Blank Schedule Type Limits Name input -- will not be validated.\n   ** Warning ** ProcessScheduleInput: Schedule:Year=\"SCHEDULE RULESET 167\", Blank Schedule Type Limits Name input -- will not be validated.\n   ** Warning ** ProcessScheduleInput: Schedule:Year=\"SCHEDULE RULESET 168\", Blank Schedule Type Limits Name input -- will not be validated.\n   ** Warning ** ProcessScheduleInput: Schedule:Year=\"SCHEDULE RULESET 169\", Blank Schedule Type Limits Name input -- will not be validated.\n   ** Warning ** ProcessScheduleInput: Schedule:Year=\"SCHEDULE RULESET 17\", Blank Schedule Type Limits Name input -- will not be validated.\n   ** Warning ** ProcessScheduleInput: Schedule:Year=\"SCHEDULE RULESET 170\", Blank Schedule Type Limits Name input -- will not be validated.\n   ** Warning ** ProcessScheduleInput: Schedule:Year=\"SCHEDULE RULESET 171\", Blank Schedule Type Limits Name input -- will not be validated.\n   ** Warning ** ProcessScheduleInput: Schedule:Year=\"SCHEDULE RULESET 172\", Blank Schedule Type Limits Name input -- will not be validated.\n   ** Warning ** ProcessScheduleInput: Schedule:Year=\"SCHEDULE RULESET 173\", Blank Schedule Type Limits Name input -- will not be validated.\n   ** Warning ** ProcessScheduleInput: Schedule:Year=\"SCHEDULE RULESET 174\", Blank Schedule Type Limits Name input -- will not be validated.\n   ** Warning ** ProcessScheduleInput: Schedule:Year=\"SCHEDULE RULESET 175\", Blank Schedule Type Limits Name input -- will not be validated.\n   ** Warning ** ProcessScheduleInput: Schedule:Year=\"SCHEDULE RULESET 176\", Blank Schedule Type Limits Name input -- will not be validated.\n   ** Warning ** ProcessScheduleInput: Schedule:Year=\"SCHEDULE RULESET 177\", Blank Schedule Type Limits Name input -- will not be validated.\n   ** Warning ** ProcessScheduleInput: Schedule:Year=\"SCHEDULE RULESET 178\", Blank Schedule Type Limits Name input -- will not be validated.\n   ** Warning ** ProcessScheduleInput: Schedule:Year=\"SCHEDULE RULESET 179\", Blank Schedule Type Limits Name input -- will not be validated.\n   ** Warning ** ProcessScheduleInput: Schedule:Year=\"SCHEDULE RULESET 18\", Blank Schedule Type Limits Name input -- will not be validated.\n   ** Warning ** ProcessScheduleInput: Schedule:Year=\"SCHEDULE RULESET 180\", Blank Schedule Type Limits Name input -- will not be validated.\n   ** Warning ** ProcessScheduleInput: Schedule:Year=\"SCHEDULE RULESET 181\", Blank Schedule Type Limits Name input -- will not be validated.\n   ** Warning ** ProcessScheduleInput: Schedule:Year=\"SCHEDULE RULESET 182\", Blank Schedule Type Limits Name input -- will not be validated.\n   ** Warning ** ProcessScheduleInput: Schedule:Year=\"SCHEDULE RULESET 183\", Blank Schedule Type Limits Name input -- will not be validated.\n   ** Warning ** ProcessScheduleInput: Schedule:Year=\"SCHEDULE RULESET 184\", Blank Schedule Type Limits Name input -- will not be validated.\n   ** Warning ** ProcessScheduleInput: Schedule:Year=\"SCHEDULE RULESET 185\", Blank Schedule Type Limits Name input -- will not be validated.\n   ** Warning ** ProcessScheduleInput: Schedule:Year=\"SCHEDULE RULESET 186\", Blank Schedule Type Limits Name input -- will not be validated.\n   ** Warning ** ProcessScheduleInput: Schedule:Year=\"SCHEDULE RULESET 187\", Blank Schedule Type Limits Name input -- will not be validated.\n   ** Warning ** ProcessScheduleInput: Schedule:Year=\"SCHEDULE RULESET 188\", Blank Schedule Type Limits Name input -- will not be validated.\n   ** Warning ** ProcessScheduleInput: Schedule:Year=\"SCHEDULE RULESET 189\", Blank Schedule Type Limits Name input -- will not be validated.\n   ** Warning ** ProcessScheduleInput: Schedule:Year=\"SCHEDULE RULESET 19\", Blank Schedule Type Limits Name input -- will not be validated.\n   ** Warning ** ProcessScheduleInput: Schedule:Year=\"SCHEDULE RULESET 190\", Blank Schedule Type Limits Name input -- will not be validated.\n   ** Warning ** ProcessScheduleInput: Schedule:Year=\"SCHEDULE RULESET 191\", Blank Schedule Type Limits Name input -- will not be validated.\n   ** Warning ** ProcessScheduleInput: Schedule:Year=\"SCHEDULE RULESET 192\", Blank Schedule Type Limits Name input -- will not be validated.\n   ** Warning ** ProcessScheduleInput: Schedule:Year=\"SCHEDULE RULESET 193\", Blank Schedule Type Limits Name input -- will not be validated.\n   ** Warning ** ProcessScheduleInput: Schedule:Year=\"SCHEDULE RULESET 194\", Blank Schedule Type Limits Name input -- will not be validated.\n   ** Warning ** ProcessScheduleInput: Schedule:Year=\"SCHEDULE RULESET 195\", Blank Schedule Type Limits Name input -- will not be validated.\n   ** Warning ** ProcessScheduleInput: Schedule:Year=\"SCHEDULE RULESET 196\", Blank Schedule Type Limits Name input -- will not be validated.\n   ** Warning ** ProcessScheduleInput: Schedule:Year=\"SCHEDULE RULESET 197\", Blank Schedule Type Limits Name input -- will not be validated.\n   ** Warning ** ProcessScheduleInput: Schedule:Year=\"SCHEDULE RULESET 198\", Blank Schedule Type Limits Name input -- will not be validated.\n   ** Warning ** ProcessScheduleInput: Schedule:Year=\"SCHEDULE RULESET 199\", Blank Schedule Type Limits Name input -- will not be validated.\n   ** Warning ** ProcessScheduleInput: Schedule:Year=\"SCHEDULE RULESET 20\", Blank Schedule Type Limits Name input -- will not be validated.\n   ** Warning ** ProcessScheduleInput: Schedule:Year=\"SCHEDULE RULESET 200\", Blank Schedule Type Limits Name input -- will not be validated.\n   ** Warning ** ProcessScheduleInput: Schedule:Year=\"SCHEDULE RULESET 201\", Blank Schedule Type Limits Name input -- will not be validated.\n   ** Warning ** ProcessScheduleInput: Schedule:Year=\"SCHEDULE RULESET 202\", Blank Schedule Type Limits Name input -- will not be validated.\n   ** Warning ** ProcessScheduleInput: Schedule:Year=\"SCHEDULE RULESET 203\", Blank Schedule Type Limits Name input -- will not be validated.\n   ** Warning ** ProcessScheduleInput: Schedule:Year=\"SCHEDULE RULESET 204\", Blank Schedule Type Limits Name input -- will not be validated.\n   ** Warning ** ProcessScheduleInput: Schedule:Year=\"SCHEDULE RULESET 205\", Blank Schedule Type Limits Name input -- will not be validated.\n   ** Warning ** ProcessScheduleInput: Schedule:Year=\"SCHEDULE RULESET 206\", Blank Schedule Type Limits Name input -- will not be validated.\n   ** Warning ** ProcessScheduleInput: Schedule:Year=\"SCHEDULE RULESET 207\", Blank Schedule Type Limits Name input -- will not be validated.\n   ** Warning ** ProcessScheduleInput: Schedule:Year=\"SCHEDULE RULESET 208\", Blank Schedule Type Limits Name input -- will not be validated.\n   ** Warning ** ProcessScheduleInput: Schedule:Year=\"SCHEDULE RULESET 209\", Blank Schedule Type Limits Name input -- will not be validated.\n   ** Warning ** ProcessScheduleInput: Schedule:Year=\"SCHEDULE RULESET 21\", Blank Schedule Type Limits Name input -- will not be validated.\n   ** Warning ** ProcessScheduleInput: Schedule:Year=\"SCHEDULE RULESET 210\", Blank Schedule Type Limits Name input -- will not be validated.\n   ** Warning ** ProcessScheduleInput: Schedule:Year=\"SCHEDULE RULESET 211\", Blank Schedule Type Limits Name input -- will not be validated.\n   ** Warning ** ProcessScheduleInput: Schedule:Year=\"SCHEDULE RULESET 212\", Blank Schedule Type Limits Name input -- will not be validated.\n   ** Warning ** ProcessScheduleInput: Schedule:Year=\"SCHEDULE RULESET 213\", Blank Schedule Type Limits Name input -- will not be validated.\n   ** Warning ** ProcessScheduleInput: Schedule:Year=\"SCHEDULE RULESET 214\", Blank Schedule Type Limits Name input -- will not be validated.\n   ** Warning ** ProcessScheduleInput: Schedule:Year=\"SCHEDULE RULESET 215\", Blank Schedule Type Limits Name input -- will not be validated.\n   ** Warning ** ProcessScheduleInput: Schedule:Year=\"SCHEDULE RULESET 216\", Blank Schedule Type Limits Name input -- will not be validated.\n   ** Warning ** ProcessScheduleInput: Schedule:Year=\"SCHEDULE RULESET 217\", Blank Schedule Type Limits Name input -- will not be validated.\n   ** Warning ** ProcessScheduleInput: Schedule:Year=\"SCHEDULE RULESET 218\", Blank Schedule Type Limits Name input -- will not be validated.\n   ** Warning ** ProcessScheduleInput: Schedule:Year=\"SCHEDULE RULESET 219\", Blank Schedule Type Limits Name input -- will not be validated.\n   ** Warning ** ProcessScheduleInput: Schedule:Year=\"SCHEDULE RULESET 22\", Blank Schedule Type Limits Name input -- will not be validated.\n   ** Warning ** ProcessScheduleInput: Schedule:Year=\"SCHEDULE RULESET 220\", Blank Schedule Type Limits Name input -- will not be validated.\n   ** Warning ** ProcessScheduleInput: Schedule:Year=\"SCHEDULE RULESET 221\", Blank Schedule Type Limits Name input -- will not be validated.\n   ** Warning ** ProcessScheduleInput: Schedule:Year=\"SCHEDULE RULESET 222\", Blank Schedule Type Limits Name input -- will not be validated.\n   ** Warning ** ProcessScheduleInput: Schedule:Year=\"SCHEDULE RULESET 223\", Blank Schedule Type Limits Name input -- will not be validated.\n   ** Warning ** ProcessScheduleInput: Schedule:Year=\"SCHEDULE RULESET 224\", Blank Schedule Type Limits Name input -- will not be validated.\n   ** Warning ** ProcessScheduleInput: Schedule:Year=\"SCHEDULE RULESET 225\", Blank Schedule Type Limits Name input -- will not be validated.\n   ** Warning ** ProcessScheduleInput: Schedule:Year=\"SCHEDULE RULESET 226\", Blank Schedule Type Limits Name input -- will not be validated.\n   ** Warning ** ProcessScheduleInput: Schedule:Year=\"SCHEDULE RULESET 227\", Blank Schedule Type Limits Name input -- will not be validated.\n   ** Warning ** ProcessScheduleInput: Schedule:Year=\"SCHEDULE RULESET 228\", Blank Schedule Type Limits Name input -- will not be validated.\n   ** Warning ** ProcessScheduleInput: Schedule:Year=\"SCHEDULE RULESET 229\", Blank Schedule Type Limits Name input -- will not be validated.\n   ** Warning ** ProcessScheduleInput: Schedule:Year=\"SCHEDULE RULESET 23\", Blank Schedule Type Limits Name input -- will not be validated.\n   ** Warning ** ProcessScheduleInput: Schedule:Year=\"SCHEDULE RULESET 230\", Blank Schedule Type Limits Name input -- will not be validated.\n   ** Warning ** ProcessScheduleInput: Schedule:Year=\"SCHEDULE RULESET 231\", Blank Schedule Type Limits Name input -- will not be validated.\n   ** Warning ** ProcessScheduleInput: Schedule:Year=\"SCHEDULE RULESET 232\", Blank Schedule Type Limits Name input -- will not be validated.\n   ** Warning ** ProcessScheduleInput: Schedule:Year=\"SCHEDULE RULESET 233\", Blank Schedule Type Limits Name input -- will not be validated.\n   ** Warning ** ProcessScheduleInput: Schedule:Year=\"SCHEDULE RULESET 234\", Blank Schedule Type Limits Name input -- will not be validated.\n   ** Warning ** ProcessScheduleInput: Schedule:Year=\"SCHEDULE RULESET 235\", Blank Schedule Type Limits Name input -- will not be validated.\n   ** Warning ** ProcessScheduleInput: Schedule:Year=\"SCHEDULE RULESET 236\", Blank Schedule Type Limits Name input -- will not be validated.\n   ** Warning ** ProcessScheduleInput: Schedule:Year=\"SCHEDULE RULESET 237\", Blank Schedule Type Limits Name input -- will not be validated.\n   ** Warning ** ProcessScheduleInput: Schedule:Year=\"SCHEDULE RULESET 238\", Blank Schedule Type Limits Name input -- will not be validated.\n   ** Warning ** ProcessScheduleInput: Schedule:Year=\"SCHEDULE RULESET 239\", Blank Schedule Type Limits Name input -- will not be validated.\n   ** Warning ** ProcessScheduleInput: Schedule:Year=\"SCHEDULE RULESET 24\", Blank Schedule Type Limits Name input -- will not be validated.\n   ** Warning ** ProcessScheduleInput: Schedule:Year=\"SCHEDULE RULESET 240\", Blank Schedule Type Limits Name input -- will not be validated.\n   ** Warning ** ProcessScheduleInput: Schedule:Year=\"SCHEDULE RULESET 241\", Blank Schedule Type Limits Name input -- will not be validated.\n   ** Warning ** ProcessScheduleInput: Schedule:Year=\"SCHEDULE RULESET 242\", Blank Schedule Type Limits Name input -- will not be validated.\n   ** Warning ** ProcessScheduleInput: Schedule:Year=\"SCHEDULE RULESET 25\", Blank Schedule Type Limits Name input -- will not be validated.\n   ** Warning ** ProcessScheduleInput: Schedule:Year=\"SCHEDULE RULESET 26\", Blank Schedule Type Limits Name input -- will not be validated.\n   ** Warning ** ProcessScheduleInput: Schedule:Year=\"SCHEDULE RULESET 27\", Blank Schedule Type Limits Name input -- will not be validated.\n   ** Warning ** ProcessScheduleInput: Schedule:Year=\"SCHEDULE RULESET 28\", Blank Schedule Type Limits Name input -- will not be validated.\n   ** Warning ** ProcessScheduleInput: Schedule:Year=\"SCHEDULE RULESET 29\", Blank Schedule Type Limits Name input -- will not be validated.\n   ** Warning ** ProcessScheduleInput: Schedule:Year=\"SCHEDULE RULESET 3\", Blank Schedule Type Limits Name input -- will not be validated.\n   ** Warning ** ProcessScheduleInput: Schedule:Year=\"SCHEDULE RULESET 30\", Blank Schedule Type Limits Name input -- will not be validated.\n   ** Warning ** ProcessScheduleInput: Schedule:Year=\"SCHEDULE RULESET 31\", Blank Schedule Type Limits Name input -- will not be validated.\n   ** Warning ** ProcessScheduleInput: Schedule:Year=\"SCHEDULE RULESET 32\", Blank Schedule Type Limits Name input -- will not be validated.\n   ** Warning ** ProcessScheduleInput: Schedule:Year=\"SCHEDULE RULESET 33\", Blank Schedule Type Limits Name input -- will not be validated.\n   ** Warning ** ProcessScheduleInput: Schedule:Year=\"SCHEDULE RULESET 34\", Blank Schedule Type Limits Name input -- will not be validated.\n   ** Warning ** ProcessScheduleInput: Schedule:Year=\"SCHEDULE RULESET 35\", Blank Schedule Type Limits Name input -- will not be validated.\n   ** Warning ** ProcessScheduleInput: Schedule:Year=\"SCHEDULE RULESET 36\", Blank Schedule Type Limits Name input -- will not be validated.\n   ** Warning ** ProcessScheduleInput: Schedule:Year=\"SCHEDULE RULESET 37\", Blank Schedule Type Limits Name input -- will not be validated.\n   ** Warning ** ProcessScheduleInput: Schedule:Year=\"SCHEDULE RULESET 38\", Blank Schedule Type Limits Name input -- will not be validated.\n   ** Warning ** ProcessScheduleInput: Schedule:Year=\"SCHEDULE RULESET 39\", Blank Schedule Type Limits Name input -- will not be validated.\n   ** Warning ** ProcessScheduleInput: Schedule:Year=\"SCHEDULE RULESET 4\", Blank Schedule Type Limits Name input -- will not be validated.\n   ** Warning ** ProcessScheduleInput: Schedule:Year=\"SCHEDULE RULESET 40\", Blank Schedule Type Limits Name input -- will not be validated.\n   ** Warning ** ProcessScheduleInput: Schedule:Year=\"SCHEDULE RULESET 41\", Blank Schedule Type Limits Name input -- will not be validated.\n   ** Warning ** ProcessScheduleInput: Schedule:Year=\"SCHEDULE RULESET 42\", Blank Schedule Type Limits Name input -- will not be validated.\n   ** Warning ** ProcessScheduleInput: Schedule:Year=\"SCHEDULE RULESET 43\", Blank Schedule Type Limits Name input -- will not be validated.\n   ** Warning ** ProcessScheduleInput: Schedule:Year=\"SCHEDULE RULESET 44\", Blank Schedule Type Limits Name input -- will not be validated.\n   ** Warning ** ProcessScheduleInput: Schedule:Year=\"SCHEDULE RULESET 45\", Blank Schedule Type Limits Name input -- will not be validated.\n   ** Warning ** ProcessScheduleInput: Schedule:Year=\"SCHEDULE RULESET 46\", Blank Schedule Type Limits Name input -- will not be validated.\n   ** Warning ** ProcessScheduleInput: Schedule:Year=\"SCHEDULE RULESET 47\", Blank Schedule Type Limits Name input -- will not be validated.\n   ** Warning ** ProcessScheduleInput: Schedule:Year=\"SCHEDULE RULESET 48\", Blank Schedule Type Limits Name input -- will not be validated.\n   ** Warning ** ProcessScheduleInput: Schedule:Year=\"SCHEDULE RULESET 49\", Blank Schedule Type Limits Name input -- will not be validated.\n   ** Warning ** ProcessScheduleInput: Schedule:Year=\"SCHEDULE RULESET 5\", Blank Schedule Type Limits Name input -- will not be validated.\n   ** Warning ** ProcessScheduleInput: Schedule:Year=\"SCHEDULE RULESET 50\", Blank Schedule Type Limits Name input -- will not be validated.\n   ** Warning ** ProcessScheduleInput: Schedule:Year=\"SCHEDULE RULESET 51\", Blank Schedule Type Limits Name input -- will not be validated.\n   ** Warning ** ProcessScheduleInput: Schedule:Year=\"SCHEDULE RULESET 52\", Blank Schedule Type Limits Name input -- will not be validated.\n   ** Warning ** ProcessScheduleInput: Schedule:Year=\"SCHEDULE RULESET 53\", Blank Schedule Type Limits Name input -- will not be validated.\n   ** Warning ** ProcessScheduleInput: Schedule:Year=\"SCHEDULE RULESET 54\", Blank Schedule Type Limits Name input -- will not be validated.\n   ** Warning ** ProcessScheduleInput: Schedule:Year=\"SCHEDULE RULESET 55\", Blank Schedule Type Limits Name input -- will not be validated.\n   ** Warning ** ProcessScheduleInput: Schedule:Year=\"SCHEDULE RULESET 56\", Blank Schedule Type Limits Name input -- will not be validated.\n   ** Warning ** ProcessScheduleInput: Schedule:Year=\"SCHEDULE RULESET 57\", Blank Schedule Type Limits Name input -- will not be validated.\n   ** Warning ** ProcessScheduleInput: Schedule:Year=\"SCHEDULE RULESET 58\", Blank Schedule Type Limits Name input -- will not be validated.\n   ** Warning ** ProcessScheduleInput: Schedule:Year=\"SCHEDULE RULESET 59\", Blank Schedule Type Limits Name input -- will not be validated.\n   ** Warning ** ProcessScheduleInput: Schedule:Year=\"SCHEDULE RULESET 6\", Blank Schedule Type Limits Name input -- will not be validated.\n   ** Warning ** ProcessScheduleInput: Schedule:Year=\"SCHEDULE RULESET 60\", Blank Schedule Type Limits Name input -- will not be validated.\n   ** Warning ** ProcessScheduleInput: Schedule:Year=\"SCHEDULE RULESET 61\", Blank Schedule Type Limits Name input -- will not be validated.\n   ** Warning ** ProcessScheduleInput: Schedule:Year=\"SCHEDULE RULESET 62\", Blank Schedule Type Limits Name input -- will not be validated.\n   ** Warning ** ProcessScheduleInput: Schedule:Year=\"SCHEDULE RULESET 63\", Blank Schedule Type Limits Name input -- will not be validated.\n   ** Warning ** ProcessScheduleInput: Schedule:Year=\"SCHEDULE RULESET 64\", Blank Schedule Type Limits Name input -- will not be validated.\n   ** Warning ** ProcessScheduleInput: Schedule:Year=\"SCHEDULE RULESET 65\", Blank Schedule Type Limits Name input -- will not be validated.\n   ** Warning ** ProcessScheduleInput: Schedule:Year=\"SCHEDULE RULESET 66\", Blank Schedule Type Limits Name input -- will not be validated.\n   ** Warning ** ProcessScheduleInput: Schedule:Year=\"SCHEDULE RULESET 67\", Blank Schedule Type Limits Name input -- will not be validated.\n   ** Warning ** ProcessScheduleInput: Schedule:Year=\"SCHEDULE RULESET 68\", Blank Schedule Type Limits Name input -- will not be validated.\n   ** Warning ** ProcessScheduleInput: Schedule:Year=\"SCHEDULE RULESET 69\", Blank Schedule Type Limits Name input -- will not be validated.\n   ** Warning ** ProcessScheduleInput: Schedule:Year=\"SCHEDULE RULESET 7\", Blank Schedule Type Limits Name input -- will not be validated.\n   ** Warning ** ProcessScheduleInput: Schedule:Year=\"SCHEDULE RULESET 70\", Blank Schedule Type Limits Name input -- will not be validated.\n   ** Warning ** ProcessScheduleInput: Schedule:Year=\"SCHEDULE RULESET 71\", Blank Schedule Type Limits Name input -- will not be validated.\n   ** Warning ** ProcessScheduleInput: Schedule:Year=\"SCHEDULE RULESET 72\", Blank Schedule Type Limits Name input -- will not be validated.\n   ** Warning ** ProcessScheduleInput: Schedule:Year=\"SCHEDULE RULESET 73\", Blank Schedule Type Limits Name input -- will not be validated.\n   ** Warning ** ProcessScheduleInput: Schedule:Year=\"SCHEDULE RULESET 74\", Blank Schedule Type Limits Name input -- will not be validated.\n   ** Warning ** ProcessScheduleInput: Schedule:Year=\"SCHEDULE RULESET 75\", Blank Schedule Type Limits Name input -- will not be validated.\n   ** Warning ** ProcessScheduleInput: Schedule:Year=\"SCHEDULE RULESET 76\", Blank Schedule Type Limits Name input -- will not be validated.\n   ** Warning ** ProcessScheduleInput: Schedule:Year=\"SCHEDULE RULESET 77\", Blank Schedule Type Limits Name input -- will not be validated.\n   ** Warning ** ProcessScheduleInput: Schedule:Year=\"SCHEDULE RULESET 78\", Blank Schedule Type Limits Name input -- will not be validated.\n   ** Warning ** ProcessScheduleInput: Schedule:Year=\"SCHEDULE RULESET 79\", Blank Schedule Type Limits Name input -- will not be validated.\n   ** Warning ** ProcessScheduleInput: Schedule:Year=\"SCHEDULE RULESET 8\", Blank Schedule Type Limits Name input -- will not be validated.\n   ** Warning ** ProcessScheduleInput: Schedule:Year=\"SCHEDULE RULESET 80\", Blank Schedule Type Limits Name input -- will not be validated.\n   ** Warning ** ProcessScheduleInput: Schedule:Year=\"SCHEDULE RULESET 81\", Blank Schedule Type Limits Name input -- will not be validated.\n   ** Warning ** ProcessScheduleInput: Schedule:Year=\"SCHEDULE RULESET 82\", Blank Schedule Type Limits Name input -- will not be validated.\n   ** Warning ** ProcessScheduleInput: Schedule:Year=\"SCHEDULE RULESET 83\", Blank Schedule Type Limits Name input -- will not be validated.\n   ** Warning ** ProcessScheduleInput: Schedule:Year=\"SCHEDULE RULESET 84\", Blank Schedule Type Limits Name input -- will not be validated.\n   ** Warning ** ProcessScheduleInput: Schedule:Year=\"SCHEDULE RULESET 85\", Blank Schedule Type Limits Name input -- will not be validated.\n   ** Warning ** ProcessScheduleInput: Schedule:Year=\"SCHEDULE RULESET 86\", Blank Schedule Type Limits Name input -- will not be validated.\n   ** Warning ** ProcessScheduleInput: Schedule:Year=\"SCHEDULE RULESET 87\", Blank Schedule Type Limits Name input -- will not be validated.\n   ** Warning ** ProcessScheduleInput: Schedule:Year=\"SCHEDULE RULESET 88\", Blank Schedule Type Limits Name input -- will not be validated.\n   ** Warning ** ProcessScheduleInput: Schedule:Year=\"SCHEDULE RULESET 89\", Blank Schedule Type Limits Name input -- will not be validated.\n   ** Warning ** ProcessScheduleInput: Schedule:Year=\"SCHEDULE RULESET 9\", Blank Schedule Type Limits Name input -- will not be validated.\n   ** Warning ** ProcessScheduleInput: Schedule:Year=\"SCHEDULE RULESET 90\", Blank Schedule Type Limits Name input -- will not be validated.\n   ** Warning ** ProcessScheduleInput: Schedule:Year=\"SCHEDULE RULESET 91\", Blank Schedule Type Limits Name input -- will not be validated.\n   ** Warning ** ProcessScheduleInput: Schedule:Year=\"SCHEDULE RULESET 92\", Blank Schedule Type Limits Name input -- will not be validated.\n   ** Warning ** ProcessScheduleInput: Schedule:Year=\"SCHEDULE RULESET 93\", Blank Schedule Type Limits Name input -- will not be validated.\n   ** Warning ** ProcessScheduleInput: Schedule:Year=\"SCHEDULE RULESET 94\", Blank Schedule Type Limits Name input -- will not be validated.\n   ** Warning ** ProcessScheduleInput: Schedule:Year=\"SCHEDULE RULESET 95\", Blank Schedule Type Limits Name input -- will not be validated.\n   ** Warning ** ProcessScheduleInput: Schedule:Year=\"SCHEDULE RULESET 96\", Blank Schedule Type Limits Name input -- will not be validated.\n   ** Warning ** ProcessScheduleInput: Schedule:Year=\"SCHEDULE RULESET 97\", Blank Schedule Type Limits Name input -- will not be validated.\n   ** Warning ** ProcessScheduleInput: Schedule:Year=\"SCHEDULE RULESET 98\", Blank Schedule Type Limits Name input -- will not be validated.\n   ** Warning ** ProcessScheduleInput: Schedule:Year=\"SCHEDULE RULESET 99\", Blank Schedule Type Limits Name input -- will not be validated.\n   ** Warning ** ProcessScheduleInput: Schedule:Constant=\"ALWAYS OFF DISCRETE\", Blank Schedule Type Limits Name input -- will not be validated.\n   ** Warning ** ProcessScheduleInput: Schedule:Constant=\"ALWAYS ON CONTINUOUS\", Blank Schedule Type Limits Name input -- will not be validated.\n   ** Warning ** CheckUsedConstructions: There are 24 nominally unused constructions in input.\n   **   ~~~   ** For explicit details on each unused construction, use Output:Diagnostics,DisplayExtraWarnings;\n   ************* Beginning System Sizing Calculations\n   ** Warning ** GetDXCoils: Coil:Cooling:DX:SingleSpeed=\"COIL COOLING DX SINGLE SPEED 59 7KBTU/HR 11.0EER\", invalid\n   **   ~~~   ** ...Part Load Fraction Correlation Curve Name = DXCOOL-NECB2011-REF-COOLPLFFPLR 54 has out of range value.\n   **   ~~~   ** ...Curve maximum must be <= 1.0, curve max at PLR = 0.99 is 1.015\n   **   ~~~   ** ...Setting curve maximum to 1.0 and simulation continues.\n   ** Warning ** GetDXCoils: Coil:Cooling:DX:SingleSpeed=\"COIL COOLING DX SINGLE SPEED 56 6KBTU/HR 11.0EER\", invalid\n   **   ~~~   ** ...Part Load Fraction Correlation Curve Name = DXCOOL-NECB2011-REF-COOLPLFFPLR 51 has out of range value.\n   **   ~~~   ** ...Curve maximum must be <= 1.0, curve max at PLR = 0.99 is 1.015\n   **   ~~~   ** ...Setting curve maximum to 1.0 and simulation continues.\n   ** Warning ** GetDXCoils: Coil:Cooling:DX:SingleSpeed=\"COIL COOLING DX SINGLE SPEED 57 6KBTU/HR 11.0EER\", invalid\n   **   ~~~   ** ...Part Load Fraction Correlation Curve Name = DXCOOL-NECB2011-REF-COOLPLFFPLR 52 has out of range value.\n   **   ~~~   ** ...Curve maximum must be <= 1.0, curve max at PLR = 0.99 is 1.015\n   **   ~~~   ** ...Setting curve maximum to 1.0 and simulation continues.\n   ** Warning ** GetDXCoils: Coil:Cooling:DX:SingleSpeed=\"COIL COOLING DX SINGLE SPEED 58 10KBTU/HR 10.3EER\", invalid\n   **   ~~~   ** ...Part Load Fraction Correlation Curve Name = DXCOOL-NECB2011-REF-COOLPLFFPLR 53 has out of range value.\n   **   ~~~   ** ...Curve maximum must be <= 1.0, curve max at PLR = 0.99 is 1.015\n   **   ~~~   ** ...Setting curve maximum to 1.0 and simulation continues.\n   ** Warning ** GetDXCoils: Coil:Cooling:DX:SingleSpeed=\"COIL COOLING DX SINGLE SPEED 55 11KBTU/HR 10.1EER\", invalid\n   **   ~~~   ** ...Part Load Fraction Correlation Curve Name = DXCOOL-NECB2011-REF-COOLPLFFPLR 50 has out of range value.\n   **   ~~~   ** ...Curve maximum must be <= 1.0, curve max at PLR = 0.99 is 1.015\n   **   ~~~   ** ...Setting curve maximum to 1.0 and simulation continues.\n   ** Warning ** GetDXCoils: Coil:Cooling:DX:SingleSpeed=\"COIL COOLING DX SINGLE SPEED 63 9KBTU/HR 10.5EER\", invalid\n   **   ~~~   ** ...Part Load Fraction Correlation Curve Name = DXCOOL-NECB2011-REF-COOLPLFFPLR 59 has out of range value.\n   **   ~~~   ** ...Curve maximum must be <= 1.0, curve max at PLR = 0.99 is 1.015\n   **   ~~~   ** ...Setting curve maximum to 1.0 and simulation continues.\n   ** Warning ** GetDXCoils: Coil:Cooling:DX:SingleSpeed=\"COIL COOLING DX SINGLE SPEED 62 10KBTU/HR 10.4EER\", invalid\n   **   ~~~   ** ...Part Load Fraction Correlation Curve Name = DXCOOL-NECB2011-REF-COOLPLFFPLR 58 has out of range value.\n   **   ~~~   ** ...Curve maximum must be <= 1.0, curve max at PLR = 0.99 is 1.015\n   **   ~~~   ** ...Setting curve maximum to 1.0 and simulation continues.\n   ** Warning ** GetDXCoils: Coil:Cooling:DX:SingleSpeed=\"COIL COOLING DX SINGLE SPEED 60 13KBTU/HR 9.6EER\", invalid\n   **   ~~~   ** ...Part Load Fraction Correlation Curve Name = DXCOOL-NECB2011-REF-COOLPLFFPLR 56 has out of range value.\n   **   ~~~   ** ...Curve maximum must be <= 1.0, curve max at PLR = 0.99 is 1.015\n   **   ~~~   ** ...Setting curve maximum to 1.0 and simulation continues.\n   ** Warning ** GetDXCoils: Coil:Cooling:DX:SingleSpeed=\"COIL COOLING DX SINGLE SPEED 61 14KBTU/HR 9.6EER\", invalid\n   **   ~~~   ** ...Part Load Fraction Correlation Curve Name = DXCOOL-NECB2011-REF-COOLPLFFPLR 57 has out of range value.\n   **   ~~~   ** ...Curve maximum must be <= 1.0, curve max at PLR = 0.99 is 1.015\n   **   ~~~   ** ...Setting curve maximum to 1.0 and simulation continues.\n   ** Warning ** GetDXCoils: Coil:Cooling:DX:SingleSpeed=\"COIL COOLING DX SINGLE SPEED 77 7KBTU/HR 11.0EER\", invalid\n   **   ~~~   ** ...Part Load Fraction Correlation Curve Name = DXCOOL-NECB2011-REF-COOLPLFFPLR 74 has out of range value.\n   **   ~~~   ** ...Curve maximum must be <= 1.0, curve max at PLR = 0.99 is 1.015\n   **   ~~~   ** ...Setting curve maximum to 1.0 and simulation continues.\n   ** Warning ** GetDXCoils: Coil:Cooling:DX:SingleSpeed=\"COIL COOLING DX SINGLE SPEED 73 6KBTU/HR 11.0EER\", invalid\n   **   ~~~   ** ...Part Load Fraction Correlation Curve Name = DXCOOL-NECB2011-REF-COOLPLFFPLR 70 has out of range value.\n   **   ~~~   ** ...Curve maximum must be <= 1.0, curve max at PLR = 0.99 is 1.015\n   **   ~~~   ** ...Setting curve maximum to 1.0 and simulation continues.\n   ** Warning ** GetDXCoils: Coil:Cooling:DX:SingleSpeed=\"COIL COOLING DX SINGLE SPEED 75 6KBTU/HR 11.0EER\", invalid\n   **   ~~~   ** ...Part Load Fraction Correlation Curve Name = DXCOOL-NECB2011-REF-COOLPLFFPLR 72 has out of range value.\n   **   ~~~   ** ...Curve maximum must be <= 1.0, curve max at PLR = 0.99 is 1.015\n   **   ~~~   ** ...Setting curve maximum to 1.0 and simulation continues.\n   ** Warning ** GetDXCoils: Coil:Cooling:DX:SingleSpeed=\"COIL COOLING DX SINGLE SPEED 76 10KBTU/HR 10.3EER\", invalid\n   **   ~~~   ** ...Part Load Fraction Correlation Curve Name = DXCOOL-NECB2011-REF-COOLPLFFPLR 73 has out of range value.\n   **   ~~~   ** ...Curve maximum must be <= 1.0, curve max at PLR = 0.99 is 1.015\n   **   ~~~   ** ...Setting curve maximum to 1.0 and simulation continues.\n   ** Warning ** GetDXCoils: Coil:Cooling:DX:SingleSpeed=\"COIL COOLING DX SINGLE SPEED 74 11KBTU/HR 10.1EER\", invalid\n   **   ~~~   ** ...Part Load Fraction Correlation Curve Name = DXCOOL-NECB2011-REF-COOLPLFFPLR 71 has out of range value.\n   **   ~~~   ** ...Curve maximum must be <= 1.0, curve max at PLR = 0.99 is 1.015\n   **   ~~~   ** ...Setting curve maximum to 1.0 and simulation continues.\n   ** Warning ** GetDXCoils: Coil:Cooling:DX:SingleSpeed=\"COIL COOLING DX SINGLE SPEED 81 10KBTU/HR 10.5EER\", invalid\n   **   ~~~   ** ...Part Load Fraction Correlation Curve Name = DXCOOL-NECB2011-REF-COOLPLFFPLR 79 has out of range value.\n   **   ~~~   ** ...Curve maximum must be <= 1.0, curve max at PLR = 0.99 is 1.015\n   **   ~~~   ** ...Setting curve maximum to 1.0 and simulation continues.\n   ** Warning ** GetDXCoils: Coil:Cooling:DX:SingleSpeed=\"COIL COOLING DX SINGLE SPEED 80 10KBTU/HR 10.4EER\", invalid\n   **   ~~~   ** ...Part Load Fraction Correlation Curve Name = DXCOOL-NECB2011-REF-COOLPLFFPLR 78 has out of range value.\n   **   ~~~   ** ...Curve maximum must be <= 1.0, curve max at PLR = 0.99 is 1.015\n   **   ~~~   ** ...Setting curve maximum to 1.0 and simulation continues.\n   ** Warning ** GetDXCoils: Coil:Cooling:DX:SingleSpeed=\"COIL COOLING DX SINGLE SPEED 78 13KBTU/HR 9.7EER\", invalid\n   **   ~~~   ** ...Part Load Fraction Correlation Curve Name = DXCOOL-NECB2011-REF-COOLPLFFPLR 75 has out of range value.\n   **   ~~~   ** ...Curve maximum must be <= 1.0, curve max at PLR = 0.99 is 1.015\n   **   ~~~   ** ...Setting curve maximum to 1.0 and simulation continues.\n   ** Warning ** GetDXCoils: Coil:Cooling:DX:SingleSpeed=\"COIL COOLING DX SINGLE SPEED 79 14KBTU/HR 9.6EER\", invalid\n   **   ~~~   ** ...Part Load Fraction Correlation Curve Name = DXCOOL-NECB2011-REF-COOLPLFFPLR 7
[...]
KC60+J74FFBtafU58Ayg+tPqc+PRLRjQhyNXowniTpGhCkKvUhdkmedGEIFevC4NNUqMJN6Or2YWpJtnRhCBXswsjTRGk7edIhjQhKH6LJEeaEBQffsmSJgTFh1/ypAlB8eHXTGlKkq3bhcmmydKUJFu9C8NN86UpSbaGF+abpkxT7kpbxwsjTrOmKUm2jhemHOI0xGmI0x4QIk5rFuI0xGmI0woLcRritF6vCnFaa/8ez0ectr8Qp+3WAN/TOjK/ADjggAMOOOCAAw444IADzuhxjkw7AA000EADDTTQQAMNNNBAMx6aJ6M7AAcccMABBxxwwAEHHHDAqd8Pcdp2IU7bidMWIxGnrccgTlsfTJy2uPtZaK3kxhU0dQXNXEFzV9DCFbR0Ba1cQWtXUOv391qSrdvJVu5ka3ey1TvZ+p1sBU+2hidbxZOt49nW8ey7v20dz7aO534d7y5Oa2fVi9OUnPhdqhenKTnxLVAvTlNy4hugXpym5MSnXxCnSUGuRhfGmyBOk4JcpS7MNkGcJgW5el0YbII4TboZXc0uTDVBnCYFuZpdGGn14rR2jiBOk4Lit0gQp0lB8eEXxGlSUHz4BXGaFBQffkWcpiXZul2YbIo4TUuy1bsw3BRxmpZka3hhviniNO2utHW8MOIUcZqWZOt4YcohTkOchjjtASHitGYhTkOchjitsBCnIU7r9aoQp7X27/F8xGn7C3Habg3wPa0j8wuAAw444IADDjjggAMOOOCMHufItAPQQAMNNNBAAw000EADDTTjoXkyugNwwAEHHHDAAQcccMABB5z6/RCnbRfitJ04bTkOcdr8dATitFvIQ4nTTk+yxZum5ExNOTNTztyUszDlLE05K1PO2pTT+tm9FORqdHJVOrk6nVylTq5WJ1etk6vXyVXs5Gp2djU72+5qV7Ozq9m5V7O7C9JaUfV+NCEmfIfq7WhCTHju691oQkx45uvNaEJMeN4FL5qSY+pxPMYEKZqSY6pyPMMEI5qSY2pzPMAEHZpyD5r6HE8vwYWm5Jj6HI+uehFaK0bwoCk54dsjWNCUnPC4Cw40JSc87oIBTckJj7viP5OCXI2OJ5giP5OCXKWOh5hiPpOCXL2O55iiPZNuRlez41GmOM+kIFez42mG8AzhGcKzB4QIz5qF8AzhGcKzwkJ4hvCs16tCeNbav8fzEZ7tL4RnuzXA96uOzAsADjjggAMOOOCAAw444IAzepwj0wVAAw000EADDTTQQAMNNNCMh+bJaArAAQcccMABBxxwwAEHHHDq90N4tl0Iz3bCs9VIhGdpDMKzdEDh2encZDwTgqauoJkraO4KWriClq6glSto7Qr66Af3SpKt28lW7mRrd7LVO9n6nWwFT7aGJ1vFk63j2dbx7Lu/bR3Pto7nfh3vI0Lbz1JMaPU58bukuNDqc+JbQLGh1efEN4DiQ6vPiU+/ZEQTglyNLow3SYomBLlKXZhtkhdNCHL1ujDYJDWacDO6ml2YapIdTQhyNbsw0hRB2n6OZEgTguK3SHKkCUHx4ZcsaUJQfPglT5oQFB9+zZSmJNm6XZhsmixNSbLVuzDcNF+akmRreGG+aco05a60dbww4jRrmpJk63hhyiFOQ5yGOO0BIeK0ZiFOQ5yGOK2wEKchTuv1qhCntfbv8XzEafsLcdpuDfA9rSPzC4ADDjjggAMOOOCAAw444Iwe58i0A9BAAw000EADDTTQQAMNNOOheTK6A3DAAQcccMABBxxwwAEHnPr9EKdtF+K0nThtPRJxWh6DOC0fTJy2uPtZaK3kxhU0dQXNXEFzV9DCFbR0Ba1cQWtXUOv391qSrdvJVu5ka3ey1TvZ+p1sBU+2hidbxZOt49nW8ey7v20dz7aO534d7y5Oa2fVi9OUnPhdqhenKTnxLVAvTlNy4hugXpym5MSnXxCnSUGuRhfGmyBOk4JcpS7MNkGcJgW5el0YbII4TboZXc0uTDVBnCYFuZpdGGn14rR2jiBOk4Lit0gQp0lB8eEXxGlSUHz4BXGaFBQffkWcpiXZul2YbIo4TUuy1bsw3BRxmpZka3hhviniNO2utHW8MOIUcZqWZOt4YcohTkOchjjtASHitGYhTkOchjitsBCnIU7r9aoQp7X27/F8xGn7C3Habg3wPa0j8wuAAw444IADDjjggAMOOOCMHufItAPQQAMNNNBAAw000EADDTTjoXkyugNwwAEHHHDAAQcccMABB5z6/RCnbRfitHtx2mok3rTpGLxpU7xpdUF40x4PwpvWKQlvGt40vGl40/Cm4U3Dm4Y3DW/az96MeNMeD8Kb9mgQ3jS8aXjT8KbZkvCmdUvCmxbD4E3Dm/bxwpt2j4837eOFN63LwpvW7/l40/Cm9XpVeNNa+/d4Pt60/YU3bbcG+JrWkekFwAEHHHDAAQcccMABBxxwRo9zZNYBaKCBBhpooIEGGmiggQaa8dA8GdsBOOCAAw444IADDjjggANO/X5407YLb9rOm3Y6EnHabAzitNnBxGmnJ9niTVNypqacmSlnbspZmHKWppyVKWdtymn97F4KcjU6uSqdXJ1OrlInV6uTq9bJ1evkKnZyNTu7mp1td7Wr2dnV7Nyr2d0Faa2oej+aEBO+Q/V2NCEmPPf1bjQhJjzz9WY0ISY874IXTckx9TgeY4IUTckxVTmeYYIRTckxtTkeYIIOTbkHTX2Op5fgQlNyTH2OR1e9CK0VI3jQlJzw7REsaEpOeNwFB5qSEx53wYCm5ITHXfGfSUGuRscTTJGfSUGuUsdDTDGfSUGuXsdzTNGeSTejq9nxKFOcZ1KQq9nxNEN4hvAM4dkDQoRnzUJ4hvAM4VlhITxDeNbrVSE8a+3f4/kIz/YXwrPdGuD7VUfmBQAHHHDAAQcccMABBxxwwBk9zpHpAqCBBhpooIEGGmiggQYaaMZD82Q0BeCAAw444IADDjjggAMOOPX7ITzbLoRnO+FZGonwbD4G4dn8gMKz07nJeCYETV1BM1fQ3BW0cAUtXUErV9DaFfTRD+6VJFu3k63cydbuZKt3svU72QqebA1PtoonW8ezrePZd3/bOp5tHc/9Ot5HhLafpZjQ6nPid0lxodXnxLeAYkOrz4lvAMWHVp8Tn37JiCYEuRpdGG+SFE0IcpW6MNskL5oQ5Op1YbBJajThZnQ1uzDVJDuaEORqdmGkKYK0/RzJkCYExW+R5EgTguLDL1nShKD48EueNCEoPvyaKU1JsnW7MNk0WZqSZKt3YbhpvjQlydbwwnzTlGnKXWnreGHEadY0JcnW8cKUQ5yGOA1x2gNCxGnNQpyGOA1xWmEhTkOc1utVIU5r7d/j+YjT9hfitN0a4HtaR+YXAAcccMABBxxwwAEHHHDAGT3OkWkHoIEGGmiggQYaaKCBBhpoxkPzZHQH4IADDjjggAMOOOCAAw449fshTtsuxGk7cVoeiThtMQZx2uJg4rTF3c9CayU3rqCpK2jmCpq7ghauoKUraOUKWruCWr+/15Js3U62cidbu5Ot3snW72QreLI1PNkqnmwdz7aOZ9/9bet4tnU89+t4d3FaO6tenKbkxO9SvThNyYlvgXpxmpIT3wD14jQlJz79gjhNCnI1ujDeBHGaFOQqdWG2CeI0KcjV68JgE8Rp0s3oanZhqgniNCnI1ezCSKsXp7VzBHGaFBS/RYI4TQqKD78gTpOC4sMviNOkoPjwK+I0LcnW7cJkU8RpWpKt3oXhpojTtCRbwwvzTRGnaXelreOFEaeI07QkW8cLUw5xGuI0xGkPCBGnNQtxGuI0xGmFhTgNcVqvV4U4rbV/j+cjTttfiNN2a4DvaR2ZXwAccMABBxxwwAEHHHDAAWf0OEemHYAGGmiggQYaaKCBBhpooBkPzZPRHYADDjjggAMOOOCAAw444NTvhzhtuxCn7cRp05GI05ZjEKctDyZOOz3JFm+akjM15cxMOXNTzsKUszTlrEw5a1NO62f3UpCr0clV6eTqdHKVOrlanVy1Tq5eJ1exk6vZ2dXsbLurXc3OrmbnXs3uLkhrRdX70YSY8B2qt6MJMeG5r3ejCTHhma83owkx4XkXvGhKjqnH8RgTpGhKjqnK8QwTjGhKjqnN8QATdGjKPWjqczy9BBeakmPqczy66kVorRjBg6bkhG+PYEFTcsLjLjjQlJzwuAsGNCUnPO6K/0wKcjU6nmCK/EwKcpU6HmKK+UwKcvU6nmOK9ky6GV3NjkeZ4jyTglzNjqcZwjOEZwjPHhAiPGsWwjOEZwjPCgvhGcKzXq8K4Vlr/x7PR3i2vxCe7dYA3686Mi8AOOCAAw444IADDjjggAPO6HGOTBcADTTQQAMNNNBAAw000EAzHponoykABxxwwAEHHHDAAQcccMCp3w/h2XYhPNsJz2YjEZ6txiA8Wx1QeHY6NxnPhKCpK2jmCpq7ghauoKUraOUKWruCPvrBvZJk63aylTvZ2p1s9U62fidbwZOt4clW8WTreLZ1PPvub1vHs63juV/H+4jQ9rMUE1p9TvwuKS60+pz4FlBsaPU58Q2g+NDqc+LTLxnRhCBXowvjTZKiCUGuUhdmm+RFE4JcvS4MNkmNJtyMrmYXpppkRxOCXM0ujDRFkLafIxnShKD4LZIcaUJQfPglS5oQFB9+yZMmBMWHXzOlKUm2bhcmmyZLU5Js9S4MN82XpiTZGl6Yb5oyTbkrbR0vjDjNmqYk2TpemHKI0xCnIU57QIg4rVmI0xCnIU4rLMRpiNN6vSrEaa39ezwfcdr+Qpy2WwN8T+vI/ALggAMOOOCAAw444IADDjijxzky7QA00EADDTTQQAMNNNBAA814aJ6M7gAccMABBxxwwAEHHHDAAad+P8Rp24U4bSdOm49EnLYegzhtfTBx2uLuZ6G1khtX0NQVNHMFzV1BC1fQ0hW0cgWtXUGt399rSbZuJ1u5k63dyVbvZOt3shU82RqebBVPto5nW8ez7/62dTzbOp77dby7OK2dVS9OU3Lid6lenKbkxLdAvThNyYlvgHpxmpITn35BnCYFuRpdGG+COE0KcpW6MNsEcZoU5Op1YbAJ4jTpZnQ1uzDVBHGaFORqdmGk1YvT2jmCOE0Kit8iQZwmBcWHXxCnSUHx4RfEaVJQfPgVcZqWZOt2YbIp4jQtyVbvwnBTxGlakq3hhfmmiNO0u9LW8cKIU8RpWpKt44UphzgNcRritAeEiNOahTgNcRritMJCnIY4rderQpzW2r/H8xGn7S/Eabs1wPe0jswvAA444IADDjjggAMOOOCAM3qcI9MOQAMNNNBAAw000EADDTTQjIfmyegOwAEHHHDAAQcccMABBxxw6vdDnLZdiNN24rTFOMRpi9MRiNNuIQ8lTjs9yRZvmpIzNeXMTDlzU87ClLM05axMOWtTTutn91KQq9HJVenk6nRylTq5Wp1ctU6uXidXsZOr2dnV7Gy7q13Nzq5m517N7i5Ia0XV+9GEmPAdqrejCTHhua93owkx4ZmvN6MJMeF5F7xoSo6px/EYE6RoSo6pyvEME4xoSo6pzfEAE3Royj1o6nM8vQQXmpJj6nM8uupFaK0YwYOm5IRvj2BBU3LC4y440JSc8LgLBjQlJzzuiv9MCnI1Op5givxMCnKVOh5iivlMCnL1Op5jivZMuhldzY5HmeI8k4JczY6nGcIzhGcIzx4QIjxrFsIzhGcIzwoL4RnCs16vCuFZa/8ez0d4tr8Qnu3WAN+vOjIvADjggAMOOOCAAw444IADzuhxjkwXAA000EADDTTQQAMNNNBAMx6aJ6MpAAcccMABBxxwwAEHHHDAqd8P4dl2ITzbCc+WIxGepTEIz9IBhWenc5PxTAiauoJmrqC5K2jhClq6glauoLUr6KMf3CtJtm4nW7mTrd3JVu9k63eyFTzZGp5sFU+2jmdbx7Pv/rZ1PNs6nvt1vI8IbT9LMaHV58TvkuJCq8+JbwHFhlafE98Aig+tPic+/ZIRTQhyNbow3iQpmhDkKnVhtkleNCHI1evCYJPUaMLN6Gp2YapJdjQhyNXswkhTBGn7OZIhTQiK3yLJkSYExYdfsqQJQfHhlzxpQlB8+DVTmpJk63ZhsmmyNCXJVu/CcNN8aUqSreGF+aYp05S70tbxwojTrGlKkq3jhSmHOA1xGuK0B4SI05qFOA1xGuK0wkKchjit16tCnNbav8fzEaftL8RpuzXA97SOzC8ADjjggAMOOOCAAw444IAzepwj0w5AAw000EADDTTQQAMNNNCMh+bJ6A7AAQcccMABBxxwwAEHHHDq90Octl2I03bitNVIxGl5DOK0fDBx2uLuZ6G1khtX0NQVNHMFzV1BC1fQ0hW0cgWtXUGt399rSbZuJ1u5k63dyVbvZOt3shU82RqebBVPto5nW8ez7/62dTzbOp77dby7OK2dVS9OU3Lid6lenKbkxLdAvThNyYlvgHpxmpITn35BnCYFuRpdGG+COE0KcpW6MNsEcZoU5Op1YbAJ4jTpZnQ1uzDVBHGaFORqdmGk1YvT2jmCOE0Kit8iQZwmBcWHXxCnSUHx4RfEaVJQfPgVcZqWZOt2YbIp4jQtyVbvwnBTxGlakq3hhfmmiNO0u9LW8cKIU8RpWpKt44UphzgNcRritAeEiNOahTgNcRritMJCnIY4rderQpzW2r/H8xGn7S/Eabs1wPe0jswvAA444IADDjjggAMOOOCAM3qcI9MOQAMNNNBAAw000EADDTTQjIfmyegOwAEHHHDAAQcccMABBxxw6vdDnLZdiNN24rT1SMRp0zGI06YHE6ednmSLN03JmZpyZqacuSlnYcpZmnJWppy1Kaf1s3spyNXo5Kp0cnU6uUqdXK1OrlonV6+Tq9jJ1ezsana23dWuZmdXs3OvZncXpLWi6v1oQkz4DtXb0YSY8NzXu9GEmPDM15vRhJjwvAteNCXH1ON4jAlSNCXHVOV4hglGNCXH1OZ4gAk6NOUeNPU5nl6CC03JMfU5Hl31IrRWjOBBU3LCt0ewoCk54XEXHGhKTnjcBQOakhMed8V/JgW5Gh1PMEV+JgW5Sh0PMcV8JgW5eh3PMUV7Jt2MrmbHo0xxnklBrmbH0wzhGcIzhGcPCBGeNQvhGcIzhGeFhfAM4VmvV4XwrLV/j+cjPNtfCM92a4DvVx2ZFwAccMABBxxwwAEHHHDAAWf0OEemC4AGGmiggQYaaKCBBhpooBkPzZPRFIADDjjggAMOOOCAAw444NTvh/BsuxCe3QvPxuI7m43BdzbDd4bv7PGf2eM7w3eG7wzfWZcgfGf4zvCd4TvDd4bvDN8ZvrNegwvfGb6zTkH4zh4Pwnf2eBC+s8eD8J1FMPjO8J19vPCd3ePjO/t44TvrsvCd9Xs+vjN8Z71eFb6z1v49no/vbH/hO9utAb5edWRaAHDAAQcccMABBxxwwAEHnNHjHJktABpooIEGGmiggQYaaKCBZjw0T8ZSAA444IADDjjggAMOOOCAU78fvrPtwne2852djkR4Nh+D8Gx+QOHZ6dxkPBOCpq6gmSto7gpauIKWrqCVK2jtCvroB/dKkq3byVbuZGt3stU72fqdbAVPtoYnW8WTrePZ1vHsu79tHc+2jud+He8jQtvPUkxo9Tnxu6S40Opz4ltAsaHV58Q3gOJDq8+JT79kRBOCXI0ujDdJiiYEuUpdmG2SF00IcvW6MNgkNZpwM7qaXZhqkh1NCHI1uzDSFEHafo5kSBOC4rdIcqQJQfHhlyxpQlB8+CVPmhAUH37NlKYk2bpdmGyaLE1JstW7MNw0X5qSZGt4Yb5pyjTlrrR1vDDiNGuakmTreGHKIU5DnIY47QEh4rRmIU5DnIY4rbAQpyFO6/WqEKe19u/xfMRp+wtx2m4N8D2tI/MLgAMOOOCAAw444IADDjjgjB7nyLQD0EADDTTQQAMNNNBAAw0046F5MroDcMABBxxwwAEHHHDAAQec+v0Qp20X4rSdOC2NRJy2GIM4bXEwcdri7mehtZIbV9DUFTRzBc1dQQtX0NIVtHIFrV1Brd/fa0m2bidbuZOt3clW72Trd7IVPNkanmwVT7aOZ1vHs+/+tnU82zqe+3W8uzitnVUvTlNy4nepXpym5MS3QL04TcmJb4B6cZqSE59+QZwmBbkaXRhvgjhNCnKVujDbBHGaFOTqdWGwCeI06WZ0Nbsw1QRxmhTkanZhpNWL09o5gjhNCorfIkGcJgXFh18Qp0lB8eEXxGlSUHz4FXGalmTrdmGyKeI0LclW78JwU8RpWpKt4YX5pojTtLvS1vHCiFPEaVqSreOFKYc4DXEa4rQHhIjTmoU4DXEa4rTCQpyGOK3Xq0Kc1tq/x/MRp+0vxGm7NcD3tI7MLwAOOOCAAw444IADDjjggDN6nCPTDkADDTTQQAMNNNBAAw000IyH5snoDsABBxxwwAEHHHDAAQcccOr3Q5y2XYjTduK0PBJx2nIM4rTlwcRppyfZ4k1TcqamnJkpZ27KWZhylqaclSlnbcpp/exeCnI1OrkqnVydTq5SJ1erk6vWydXr5Cp2cjU7u5qdbXe1q9nZ1ezcq9ndBWmtqHo/mhATvkP1djQhJjz39W40ISY88/VmNCEmPO+CF03JMfU4HmOCFE3JMVU5nmGCEU3JMbU5HmCCDk25B019jqeX4EJTckx9jkdXvQitFSN40JSc8O0RLGhKTnjcBQeakhMed8GApuSEx13xn0lBrkbHE0yRn0lBrlLHQ0wxn0lBrl7Hc0zRnkk3o6vZ8ShTnGdSkKvZ8TRDeIbwDOHZA0KEZ81CeIbwDOFZYSE8Q3jW61UhPGvt3+P5CM/2F8Kz3Rrg+1VH5gUABxxwwAEHHHDAAQcccMAZPc6R6QKggQYaaKCBBhpooIEGGmjGQ/NkNAXggAMOOOCAAw444IADDjj1+yE82y6EZzvh2XQkwrPVGIRnqwMKz07nJuOZEDR1Bc1cQXNX0MIVtHQFrVxBa1fQRz+4V5Js3U62cidbu5Ot3snW72QreLI1PNkqnmwdz7aOZ9/9bet4tnU89+t4HxHafpZiQqvPid8lxYVWnxPfAooNrT4nvgEUH1p9Tnz6JSOaEORqdGG8SVI0IchV6sJsk7xoQpCr14XBJqnRhJvR1ezCVJPsaEKQq9mFkaYI0vZzJEOaEBS/RZIjTQiKD79kSROC4sMvedKEoPjwa6Y0JcnW7cJk02RpSpKt3oXhpvnSlCRbwwvzTVOmKXelreOFEadZ05QkW8cLUw5xGuI0xGkPCBGnNQtxGuI0xGmFhTgNcVqvV4U4rbV/j+cjTttfiNN2a4DvaR2ZXwAccMABBxxwwAEHHHDAAWf0OEemHYAGGmiggQYaaKCBBhpooBkPzZPRHYADDjjggAMOOOCAAw444NTvhzhtuxCn7cRps5GI09ZjEKetDyZOW9z9LLRWcuMKmrqCZq6guSto4QpauoJWrqC1K6j1+3stydbtZCt3srU72eqdbP1OtoInW8OTreLJ1vFs63j23d+2jmdbx3O/jncXp7Wz6sVpSk78LtWL05Sc+BaoF6cpOfENUC9OU3Li0y+I06QgV6ML400Qp0lBrlIXZpsgTpOCXL0uDDZBnCbdjK5mF6aaIE6TglzNLoy0enFaO0cQp0lB8VskiNOkoPjwC+I0KSg+/II4TQqKD78iTtOSbN0uTDZFnKYl2epdGG6KOE1LsjW8MN8UcZp2V9o6XhhxijhNS7J1vDDlEKchTkOc9oAQcVqzEKchTkOcVliI0xCn9XpViNNa+/d4PuK0/YU4bbcG+J7WkfkFwAEHHHDAAQcccMABBxxwRo9zZNoBaKCBBhpooIEGGmiggQaa8dA8Gd0BOOCAAw444IADDjjggANO/X6I07YLcdpOnDYfhzhteToCcdot5KHEaacn2eJNU3KmppyZKWduylmYcpamnJUpZ23Kaf3sXgpyNTq5Kp1cnU6uUidXq5Or1snV6+QqdnI1O7uanW13tavZ2dXs3KvZ3QVprah6P5oQE75D9XY0ISY89/VuNCEmPPP1ZjQhJjzvghdNyTH1OB5jghRNyTFVOZ5hghFNyTG1OR5ggg5NuQdNfY6nl+BCU3JMfY5HV70IrRUjeNCUnPDtESxoSk543AUHmpITHnfBgKbkhMdd8Z9JQa5GxxNMkZ9JQa5Sx0NMMZ9JQa5ex3NM0Z5JN6Or2fEoU5xnUpCr2fE0Q3iG8Azh2QNChGfNQniG8AzhWWEhPEN41utVITxr7d/j+QjP9hfCs90a4PtVR+YFAAcccMABBxxwwAEHHHDAGT3OkekCoIEGGmiggQYaaKCBBhpoxkPzZDQF4IADDjjggAMOOOCAAw449fshPNsuhGc74dliJMKzNAbhWTqg8Ox0bjKeCUFTV9DMFTR3BS1cQUtX0MoVtHYFffSDeyXJ1u1kK3eytTvZ6p1s/U62gidbw5Ot4snW8WzrePbd37aOZ1vHc7+O9xGh7WcpJrT6nPhdUlxo9TnxLaDY0Opz4htA8aHV58SnXzKiCUGuRhfGmyRFE4JcpS7MNsmLJgS5el0YbJIaTbgZXc0uTDXJjiYEuZpdGGmKIG0/RzKkCUHxWyQ50oSg+PBLljQhKD78kidNCIoPv2ZKU5Js3S5MNk2WpiTZ6l0YbpovTUmyNbww3zRlmnJX2jpeGHGaNU1JsnW8MOUQpyFOQ5z2gBBxWrMQpyFOQ5xWWIjTEKf1elWI01r793g+4rT9hThttwb4ntaR+QXAAQcccMABBxxwwAEHHHBGj3Nk2gFooIEGGmiggQYaaKCBBprx0DwZ3QE44IADDjjggAMOOOCAA079fojTtgtx2k6cthyJOC2PQZyWDyZOW9z9LLRWcuMKmrqCZq6guSto4QpauoJWrqC1K6j1+3stydbtZCt3srU72eqdbP1OtoInW8OTreLJ1vFs63j23d+2jmdbx3O/jncXp7Wz6sVpSk78LtWL05Sc+BaoF6cpOfENUC9OU3Li0y+I06QgV6ML400Qp0lBrlIXZpsgTpOCXL0uDDZBnCbdjK5mF6aaIE6TglzNLoy0enFaO0cQp0lB8VskiNOkoPjwC+I0KSg+/II4TQqKD78iTtOSbN0uTDZFnKYl2epdGG6KOE1LsjW8MN8UcZp2V9o6XhhxijhNS7J1vDDlEKchTkOc9oAQcVqzEKchTkOcVliI0xCn9XpViNNa+/d4PuK0/YU4bbcG+J7WkfkFwAEHHHDAAQcccMABBxxwRo9zZNoBaKCBBhpooIEGGmiggQaa8dA8Gd0BOOCAAw444IADDjjggANO/X6I07YLcdpOnLYaiThtOgZx2vRg4rTTk2zxpik5U1POzJQzN+UsTDlLU87KlLM25bR+di8FuRqdXJVOrk4nV6mTq9XJVevk6nVyFTu5mp1dzc62u9rV7Oxqdu7V7O6CtFZUvR9NiAnfoXo7mhATnvt6N5oQE575ejOaEBOed8GLpuSYehyPMUGKpuSYqhzPMMGIpuSY2hwPMEGHptyDpj7H00twoSk5pj7Ho6tehNaKETxoSk749ggWNCUnPO6CA03JCY+7YEBTcsLjrvjPpCBXo+MJpsjPpCBXqeMhppjPpCBXr+M5pmjPpJvR1ex4lCnOMynI1ex4miE8Q3iG8OwBIcKzZiE8Q3iG8KywEJ4hPOv1qhCetfbv8XyEZ/sL4dluDfD9qiPzAoADDjjggAMOOOCAAw444Iwe58h0AdBAAw000EADDTTQQAMNNOOheTKaAnDAAQcccMABBxxwwAEHnPr9EJ5tF8KznfBsPRLh2WwMwrPZwYRnaXZ6crq30sziPzPGToeJnQ0TOx8mdjFM7HKY2NUwsethYls/93fmDnTO0kAHLQ100tJARy0NdNbSQIctDXTa0kDHLQ103vJA5y0PNdcGOm95oPOWlfPWXSxXSq73zPlSu7679RY6X2rXm6zeUedL7XqL1RvsfKldbzDBb2eMHeZ0df64IMjwjLHDHLDOnxUEc54xdpgz1vmDgqDZM06FYU5Z508JgpPPGDvMKev8EaFe4FdKFXx+xtiub61g+zPGdr3ABBegMbbrBSaYAo2xXS8wxSPozB3onHX+pKBIB525Ax21zh8WFEOhM3eg09b584KiM3TOiYHOW+ePDIr70Jk70Hnr/KkBUSKiRESJDwgRJTYLUSKiRESJhYUoEVFir1eFKLG1f4/nI0rcX4gSd2uA72UemU8EHHDAAQcccMABBxxwwAFn9DhHphmBBhpooIEGGmiggQYaaKAZD82T0ZuAAw444IADDjjggAMOOODU7/efIEr84+b7t5urs5t3V5vJ868+wZt4XN7EzdUP5y83k38/a5r3m8vLt5PmL6z5nvPs9KuRKBTnY1Aozg+mUJzPT6brvTWdWxSKxtjpMLGzYWLnw8QuholdDhO7GiZ2PUxsy3TgzB3onKWBDloa6KSlgY5aGuispYEOWxrotKWBjlsa6Lzlgc5bHmquDXTe8kDnLSvnrbtCsZRcr1D0pXZ9d+sVir7UrjdZvULRl9r1FqtXKPpSu95ggkLRGDvM6er8cUFQKBpjhzlgnT8rCApFY+wwZ6zzBwVBoWicCsOcss6fEgSFojF2mFPW+SNCvUKxlCooFI2xXd9aQaFojO16gQkKRWNs1wtMUCgaY7teYIpC0Zk70Dnr/ElBUSg6cwc6ap0/LCgKRWfuQKet8+cFRaHonBMDnbfOHxkUhaIzd6Dz1vlTAwpFFIooFB8QolBsFgpFFIooFAsLhSIKxV6vCoVia/8ez0ehuL9QKO7WAN/YPDLTCDjggAMOOOCAAw444IADzuhxjkxAAg000EADDTTQQAMNNNBAMx6aJyM+AQcccMABBxxwwAEHHHDAqd8PheLPr6erUHz39u3F+8nn51d36sSROBMXY3AmLg7mTLz7z7VyJlPO1JQzM+XMTTkLU87SlLMy5axNOS2ngBTkanRyVTq5Op1cpU6uVidXrZOr18lV7ORqdnY1O9vualezs6vZuVezu7v8WlH18j4hJnyH6vV8Qkx47usFfEJMeObrFXtCTHjeBYmekmPqcTzGBC+ekmOqcjzDBNWdkmNqczzABHudcg+a+hxPL0FIp+SY+hyPrnrHXCtGkMopOeHbI2jjlJzwuAtiOCUnPO6C+k3JCY+7IneTglyNjieY4muTglyljoeYomCTgly9jueYYlWTbkZXs+NRpojSpCBXs+Np9iDoX6/OL6/Ob95P0uTTyfM/vHvzSWOhWnz6P8/efHqaPr37z7/evPx0mqIxd9r6/+h9/vlstl4btsjDbzEdfovZ8FvMh99iMfwWy+G3WA2/xXr4LVqTfag9DnC+0wEOeDrACU8HOOLpAGc8HeCQpwOc8nSAY54OcM7zAc55PsQcP8A5zwc457nunOe7Pc5uoj1Ou32smk5zXi0MW8R/G7Yt4r8M2xbx34Vti/jKtW0R37i2LeIL17ZFfN/atoivW9sWhY9Vvj0OcL4LH6t8exzghBc+Vvn2OMAZL3ys8u1xgFNe+Fjl2+MA57zwscq3xyHm+AHOeeFjlW+PunM+bfb46uo82COvu32sSmm5nE4NW8R/G7Yt4r8M2xbx34Vti/jKtW0R37i2LeIL17ZFfN/atoi/G2XbovCFQN8e8TeqfHvEX7by7RF/D8u3R/wVLd8e8fcSfXvEX1n07RF/m9G3R/xFR98eBzjnhY9Vvj0OMccPMMgLH6t8e9SN8lmzxx+/fRftser2sar5b1ya/6Nhi/hvw7ZF/Jdh2yL+u7BtEX+ssm0Rf6yybRF/rLJtEX+ssm0RX7e2LQofq3x7xB+rfHvEH6t8e8Qfq3x7xB+rfHvEH6t8e8Qfq3x7xB+rfHvEH6t8exzgnBc+Vvn2OMQcP8AgL3ys8u1RN8rnzR7/vnkV7bHs9rHq17/+4ovl0rBF/Ldh2yL+y7BtEf9d2LaIP1bZtog/Vtm2iD9W2baIP1bZtoivW9sWhY9Vvj3ij1W+PeKPVb494o9Vvj3ij1W+PeKPVb494o9Vvj3ij1W+PeKPVb49DnDOCx+rfHscYo4fYJAXPlb59qgb5Yu7j27vNtEei24fq774YrGwbBH/bdi2iP8ybFvEfxe2LeKPVbYt4o9Vti3ij1W2LeKPVbYt4uvWtkXhY5Vvj/hjlW+P+GOVb4/4Y5Vvj/hjlW+P+GOVb4/4Y5Vvj/hjlW+P+GOVb48DnPPCxyrfHoeY4wcY5IWPVb496kb5stnjt5fR1+LzvNvHqtUq5/ncsEX8t2HbIv7LsG0R/13Ytog/Vtm2iD9W2baIP1bZtog/Vtm2KHmnTFsUZWuuPUq2KtceJZGVa4+S48q1R0l/5dqj5Hxz7VHSwbn2KJniXHuUJHKuPQ5wzgsfq3x7HGKOH2CQFz5W+fZ4fJT/uYvhdathnnw2ebP58d4geyeOfX79w+sXdwbYR1Wx9y7n683NP16+e/Pq+vn89MUkpfmLybT5T3neTTf70y3GzkP96tUXZzeb15dX7z//6fz6gwl59/o7CKNvA3539Wpz9ft3jZi48x9sON63OX67Obt+d7X5gNG4lbfv+8BGbh7mYR7mYR7mYR7mYR7mYR7mYR7mYR7mYR7mYR7mYR7mYR7mYR7mYR7mYR7mYR7mYR7mYR7mYR7mYR7mYR7mYR7mYR7mYR7mYR7mYR7mYR7mYR7mYR7+/+rh9yeXP2yurs5fbX571vywNp2cir9XbX4ae93+aewfNlfnm+vtz2ufvbj/AfHbi8ubk4vzN5tHfyJ7/XO/0338l7XXJ3f/1fNvLy/Obs4v39xCPbu+2bz99OvNN5dXm2fdfvn8m83rzZtX7Rf04Z89X5y+mEybXy6fNj9kbv7Hs4vNNzcN2CPR97Enf3m9ufnyzU3z/txu8c27Ny/vSJ9/MvmPRyLuCTe7P/2nR3/L3azzbybPb749vz65vvtb6bZRs/b+0Mnt+/fl2ctvn/8/4L5p9/jNT8dv2be5f3l7eX3eBP769h93eTX3q4n5Gaqryx/7Id1jnb95tWnOw6fpRc8/fb++q/2D35xvLpq+Pd++px/Oyeury3dvN68mf/d3k/+y/ec/nfzl27Pr7e/fmwP2yf6j73/20ds35OTs9euvmj1OLjZvXt98O/mHSZ78j8mzzy8unk1+1X7G9cX5y83zT9Mnfzr98yePnrcHr+TyavL8u9uXcvr3k+9ut9lWdbtv88/+2+2N0/8vqFlNjbd5f/ruzyd/3byffPbZZx/evLrEu9TtX/t3fV/q/fr6anP215o//Leef6bv85v3a/vqPmtq3ZRh25Q7kcPJX86ur89fv9m8+qJRRFz/6e6d/HPdW3n/F/323fW3z2v/Lm7/Sn/14e+z/iRdXPyqy6s8aZ5Zu8v1zdXlXzfd9vnw3NqdLt+evTy/ed9tq+2Tq1/V3Rb3W9Wm3F8k7Wul5nj0vnyadX+c2xfP5NNJ6pvW57h1Z/3bi7up2un5f3vsM0WzfvnLyb/+2x8n/+d3//b7yR9+9/s//sv/+qfJb373T//yxeSfv/z9l90Cvrq9tTc/nTUf0SY3l5Pry6ubyZt339/24OXkTmlyPTm7fnn74eX8zesOiffvfZOzN5nPXky+7n65XG1u3l29mbw9u7refHVxeXbz/Ky58j+5/avc+2df3/2zTm/m4x/R9rbdvoTHgv82rOll9/nz7rjfHfbnv3i1+ebs3cXN5O3V5e0dtvnFi8kv/utq9cUXX375i4HFM+CAAw444IADDjjggAMOOP9/4kyu331/+/8FnrzaNP9w8ursfUN0tXkFDTTQQAMNNNBAAw000EADTZnmx7uvZn1E8/XFuw044IADDjjggAMOOOCAAw44NTi7/97A1Pz3Bv7hXfTfGzhNd/+G7fPPZ7P1GlJIIYUUUkghhRRSSCGFFFJIIR0Hab4jPbuJSE/vSKfTnFcLSCGFFFJIIYUUUkghhRRSSCGFdByk04b0q6vzgDSv70hTWi6nU0ghhRRSSCGFFFJIIYUUUkghhXQcpLOG9I/fvotIV3ek69s1/0dIIYUUUkghhRRSSCGFFFJIIYV0HKTzhvTfN68i0uUd6a9//cUXyyWkkEIKKaSQQgoppJBCCimkkEI6DtLF3f9l4t0mIl3ckX7xxWIBKaSQQgoppJBCCimkkEIKKaSQjoV02ZD+9jIyC+b5HelqlfN8DimkkEIKKaSQQgoppJBCCimkkB6M9B7l1dXZj88fDfvp5Ob85mLzh2/P3m5ObjY/3Tz/xT9fvru6fhzj/cM/+evz7zdvrs8v31xsru8SHon45S8nn796NTmb3CVNfjy/+XZyffn9ZvJq+sifvP7h9cnZ27ebN6+eP2v2fvbJI3/gfp2c3dxcPX/207MXk8Vpzz/0/vYP5e5/6Prm/cXmA96nZ29efnt5dfvnn11svulBu8345vLNzac/bs5ff3vTZHx9efGqe8aHv5v//fn//vAG/37z7ebsZvK7ly8nf3j57S8+Kf0l/cMvr19enb+9+e/hc/7hl6/Of/j5h8M/E4fdZk3OX3327GXT4C9uX/TZ+ZvN1V/ycvlscvdWfPbs1fn124uz9786f3Nx+9inX19cvvzr3z+LAW9TP7yGyc37t7d/vnk3fvnd2Q9nH/5p8U8264ezq6Ztk88mr86/f3uxOXmz+fEPP7x+/uy//gzki8ns9PTufzx6fJrcV2c3Z7fBf/qPZxdnX28unv3q2avNN2fvLm4mb68uvzm/2Dx78eGRv/z07Ffp5PTFsx/OLt5tnv1qsT5Z763V+sWzl82dc5twe4188cWXXz7724tOqXmQ1OkgqbNBUueDpC4GSV0OkroaJHU9SGo6HSZ2mNOVhjleaZjzlYY5YGmYE5aGOWJpmDOWhjlkaZhTloc5ZXmgGTbMKcvDnLIsnLLJ9bvvv2/913hXfEK42rzqEdrxve0X2vGd7Rfa8X3tF9rx7uoX2vHm6hfa8d7qF9rx1uoX2vHO6hfa9YNBz9RBzlTXjwU9Uwc5VV0/FPRMHeRcdf1I0DN1kJPV9QNBz9RBzlbXjwM9U4eZV4Ocra6fBXqm1p6tH8/f3KgfA75untA9tePb2jO149vaM7Xj29ozteOV1TO145XVM7XjldUzteOV1TO145XVM7Xr54G+scOcrq6fCPrGDnO+un4m6Bs7zAnr+qmgb+wwZ6zr54K+scOcsq6fDPrGDjTDhjllXT8c9I3tdcr+3OVfOGz/3eDks8mbzY/3/0Lj7t9jPL/+4fWLu38h8ei/ubj/F4zXm5t/vHz35tX18/npi0lK8xeTafOf8rzbv/346RZj9+9NX7364uxm8/ry6v3nP51ff/gXdLu3osO/xbwN+N3Vq83V7981/76s8x9sON63OX67Obt+d7X5gNH8K7/tX4H672Xv/kVSe6s/bK7ON9db3Nudtn8hby8ub06af7v16JbXP/e6Hye9Prnr3dvLi7Ob88s3t1DPrm82bz/9evPN5dXmWbcm/WbzevPmVfsFffhnzxe3LZg2TWj+ZVhq/sf2X3s++m+E72NP/vJ6c/Plm5vm/bnd4pt3b17ekT7/ZPIfHf69Z0O42f3pPz16Npp1/s3k+c2359e3vW7+XLeNmrX3h05u378vz15++/z/AfdNu8ff/rvBbe5f3l5enzeBv779x11ezf1qYn6G6uryx35I91jnb15tmoP7aXrR80/fr+9q/+A355uLpm/Pt+/ph3Py+ury3dvNq8nf/d3kv2z/+U8nf/n27Hp7nzQH7JP9R9//7KO3b8jJ2evXXzV7nFxs3ry++XbyD5M8+R+TZ59fXDyb/Kr9jOuL85eb55+mT/50+udPHj1vD17J5dXk+Xe3L+X07yff3W6zrep23+af/bfPJqn/X1Czmhpv8/703Z9P/rq5vd4+++zDm1eXeJe6/Wv/ru9LvV9fX23O/lrzh//W88/0fX7zfm1f3WdNrZsybJtyNxhP/vLhOz2bV3ff6rn+0907+ee6t/L+L/rtu+tvn9f+Xdz+lf7qw99n/Um6uPhVl1d50jyzdpfrm6vLv2667fPhubU7Xb49e3l+877bVtsnV7+quy3ut6pNub9I2tdKzfHoffk06/44ty+eyaeT1Detz3Hrzvq3F3dTtdPz//bYZ4pm/fKXk3/9tz9O/s/v/u33kz/87vd//Jf/9U+T3/zun/7li8k/f/n7L7sFfHV7a29+Oms+ok1uLifXl7cfpN+8+/62By8ndx8Rrydn1y9vP7ycv3ndIfH+vW9y9ibz2YvJ190vl6vNzburN5O3Z1fXm68uLs9unp81V/4nt3+Ve//s67t/1unNfPwj2t6225fwWPDf/hO+e/nRv4DdfsGy+Req/ylfBQUHHHDAAQcccMABBxxwwBk9zsMvuDREV5tX0EADDTTQQAMNNNBAAw000JRpHnwlsKFpvuIHDjjggAMOOOCAAw444IADzn+i8fCPm+/fbq7Obt5dbSbPv/oE5+FROQ///axp3D9v7v7X599/fb55czNp/soa8+Hm1bvb9//TyfL0q5FIEFdjkCCuDiZBvPvpaa2EyZQzNeXMTDlzU87ClLM05axMOWtTTssuIAW5Gp1clU6uTidXqZOr1clV6+TqdXIVO7manV3Nzra72tXs7Gp27tXs7tK+VlS9pk+ICd+hehWfEBOe+3rdnhATnvl6pZ4QE553QZun5Jh6HI8xQYan5JiqHM8wQXGn5JjaHA8wQVyn3IOmPsfTS9DRKTmmPsejq14y14oRtHJKTvj2COo4JSc87oIeTskJj7uggFNywuOuaN6kIFej4wmmyNukIFep4yGmKNmkIFev4zmmiNakm9HV7HiUKfo0KcjV7HiaIUUbhRSNh3mYh3mYh3mYh3mYh3mYh3mYh3mYh3mYh4/p4fcnlz9srq7OX21+e9b8H6rSySlS/L1XghR/t5Di91pI8ZHi91hI8T9eSPE/Xkjxey6k+Ejxf3YhxQcHHHDAAQcccMABBxxwwAFnDEpJaKCBBhpooIEGGmiggQaa8dA8GZUlOOCAAw444IADDjjggANO/X7/CVL8X59/v3lzfX755mJzfY0S/7iU+JdXf518+c035y/PN29evt+J8A+rwN8++6NH9v/f9//5w//epW//w+5/fX356n3zv7/9vyvJzbHjAgBkJbqH"
               },
               {
                  "name" : "annual_peak_electric_demand",
                  "units" : "kW",
                  "value" : 148.1097
               },
               {
                  "name" : "first_year_capital_cost",
                  "units" : "$",
                  "value" : 0
               },
               {
                  "name" : "annual_utility_cost",
                  "units" : "$",
                  "value" : 73246.179999999993
               },
               {
                  "name" : "total_lifecycle_cost",
                  "units" : "$",
                  "value" : 1276404.05
               }
            ],
            "step_warnings" : []
         }
      }
   ],
   "updated_at" : "20170710T191252Z",
   "weather_file" : "USA_CO_Denver.Intl.AP.725650_TMY3.epw"
}
