{
   "completed_at" : "20170710T191119Z",
   "completed_status" : "Success",
   "created_at" : "2017-07-10 19:04:14 +0000",
   "current_step" : 5,
   "description" : "",
   "eplusout_err" : "Program Version,EnergyPlus, Version 8.7.0-78a111df4a, YMD=2017.07.10 19:06,IDD_Version 8.7.0\n   ************* IDF Context for following error/warning message:\n   ************* Note -- lines truncated at 300 characters, if necessary...\n   *************      5 Building,\n   ************* indicated Name=NECB 2011-LargeHotel-NECB HDD Method-CAN_AB_Fort.McMurray.719320_CWEC.epw created: 2017-07-10 19:04:20 +0000\n   ************* Only last 1 lines before error line shown.....\n   *************      6   NECB 2011-LargeHotel-NECB HDD Method-CAN_AB_Fort.McMurray.719320_CWEC.epw created: 2017-07-10 19:04:20 +0000, !- Name\n   ** Warning ** IP: IDF line~6 Alpha Argument length exceeds maximum, will be truncated=  NECB 2011-LargeHotel-NECB HDD Method-CAN_AB_Fort.McMurray.719320_CWEC.epw created: 2017-07-10 19:04:20 +000\n   **   ~~~   ** Will be processed as Alpha=NECB 2011-LARGEHOTEL-NECB HDD METHOD-CAN_AB_FORT.MCMURRAY.719320_CWEC.EPW CREATED: 2017-07-10 19:04:20 +0000\n   ************* Beginning Zone Sizing Calculations\n   ** Warning ** ProcessScheduleInput: Schedule:Day:Interval=\"ECONOMIZER MAX OA FRACTION 100 PCT DEFAULT\", Blank Schedule Type Limits Name input -- will not be validated.\n   ** Warning ** ProcessScheduleInput: Schedule:Day:Interval=\"SCHEDULE DAY 1\", Blank Schedule Type Limits Name input -- will not be validated.\n   ** Warning ** ProcessScheduleInput: Schedule:Day:Interval=\"SCHEDULE DAY 10\", Blank Schedule Type Limits Name input -- will not be validated.\n   ** Warning ** ProcessScheduleInput: Schedule:Day:Interval=\"SCHEDULE DAY 11\", Blank Schedule Type Limits Name input -- will not be validated.\n   ** Warning ** ProcessScheduleInput: Schedule:Day:Interval=\"SCHEDULE DAY 12\", Blank Schedule Type Limits Name input -- will not be validated.\n   ** Warning ** ProcessScheduleInput: Schedule:Day:Interval=\"SCHEDULE DAY 13\", Blank Schedule Type Limits Name input -- will not be validated.\n   ** Warning ** ProcessScheduleInput: Schedule:Day:Interval=\"SCHEDULE DAY 14\", Blank Schedule Type Limits Name input -- will not be validated.\n   ** Warning ** ProcessScheduleInput: Schedule:Day:Interval=\"SCHEDULE DAY 15\", Blank Schedule Type Limits Name input -- will not be validated.\n   ** Warning ** ProcessScheduleInput: Schedule:Day:Interval=\"SCHEDULE DAY 16\", Blank Schedule Type Limits Name input -- will not be validated.\n   ** Warning ** ProcessScheduleInput: Schedule:Day:Interval=\"SCHEDULE DAY 17\", Blank Schedule Type Limits Name input -- will not be validated.\n   ** Warning ** ProcessScheduleInput: Schedule:Day:Interval=\"SCHEDULE DAY 18\", Blank Schedule Type Limits Name input -- will not be validated.\n   ** Warning ** ProcessScheduleInput: Schedule:Day:Interval=\"SCHEDULE DAY 19\", Blank Schedule Type Limits Name input -- will not be validated.\n   ** Warning ** ProcessScheduleInput: Schedule:Day:Interval=\"SCHEDULE DAY 2\", Blank Schedule Type Limits Name input -- will not be validated.\n   ** Warning ** ProcessScheduleInput: Schedule:Day:Interval=\"SCHEDULE DAY 20\", Blank Schedule Type Limits Name input -- will not be validated.\n   ** Warning ** ProcessScheduleInput: Schedule:Day:Interval=\"SCHEDULE DAY 21\", Blank Schedule Type Limits Name input -- will not be validated.\n   ** Warning ** ProcessScheduleInput: Schedule:Day:Interval=\"SCHEDULE DAY 22\", Blank Schedule Type Limits Name input -- will not be validated.\n   ** Warning ** ProcessScheduleInput: Schedule:Day:Interval=\"SCHEDULE DAY 23\", Blank Schedule Type Limits Name input -- will not be validated.\n   ** Warning ** ProcessScheduleInput: Schedule:Day:Interval=\"SCHEDULE DAY 24\", Blank Schedule Type Limits Name input -- will not be validated.\n   ** Warning ** ProcessScheduleInput: Schedule:Day:Interval=\"SCHEDULE DAY 25\", Blank Schedule Type Limits Name input -- will not be validated.\n   ** Warning ** ProcessScheduleInput: Schedule:Day:Interval=\"SCHEDULE DAY 26\", Blank Schedule Type Limits Name input -- will not be validated.\n   ** Warning ** ProcessScheduleInput: Schedule:Day:Interval=\"SCHEDULE DAY 27\", Blank Schedule Type Limits Name input -- will not be validated.\n   ** Warning ** ProcessScheduleInput: Schedule:Day:Interval=\"SCHEDULE DAY 28\", Blank Schedule Type Limits Name input -- will not be validated.\n   ** Warning ** ProcessScheduleInput: Schedule:Day:Interval=\"SCHEDULE DAY 29\", Blank Schedule Type Limits Name input -- will not be validated.\n   ** Warning ** ProcessScheduleInput: Schedule:Day:Interval=\"SCHEDULE DAY 30\", Blank Schedule Type Limits Name input -- will not be validated.\n   ** Warning ** ProcessScheduleInput: Schedule:Day:Interval=\"SCHEDULE DAY 31\", Blank Schedule Type Limits Name input -- will not be validated.\n   ** Warning ** ProcessScheduleInput: Schedule:Day:Interval=\"SCHEDULE DAY 32\", Blank Schedule Type Limits Name input -- will not be validated.\n   ** Warning ** ProcessScheduleInput: Schedule:Day:Interval=\"SCHEDULE DAY 33\", Blank Schedule Type Limits Name input -- will not be validated.\n   ** Warning ** ProcessScheduleInput: Schedule:Day:Interval=\"SCHEDULE DAY 34\", Blank Schedule Type Limits Name input -- will not be validated.\n   ** Warning ** ProcessScheduleInput: Schedule:Day:Interval=\"SCHEDULE DAY 35\", Blank Schedule Type Limits Name input -- will not be validated.\n   ** Warning ** ProcessScheduleInput: Schedule:Day:Interval=\"SCHEDULE DAY 36\", Blank Schedule Type Limits Name input -- will not be validated.\n   ** Warning ** ProcessScheduleInput: Schedule:Day:Interval=\"SCHEDULE DAY 37\", Blank Schedule Type Limits Name input -- will not be validated.\n   ** Warning ** ProcessScheduleInput: Schedule:Day:Interval=\"SCHEDULE DAY 38\", Blank Schedule Type Limits Name input -- will not be validated.\n   ** Warning ** ProcessScheduleInput: Schedule:Day:Interval=\"SCHEDULE DAY 39\", Blank Schedule Type Limits Name input -- will not be validated.\n   ** Warning ** ProcessScheduleInput: Schedule:Day:Interval=\"SCHEDULE DAY 40\", Blank Schedule Type Limits Name input -- will not be validated.\n   ** Warning ** ProcessScheduleInput: Schedule:Day:Interval=\"SCHEDULE DAY 41\", Blank Schedule Type Limits Name input -- will not be validated.\n   ** Warning ** ProcessScheduleInput: Schedule:Day:Interval=\"SCHEDULE DAY 42\", Blank Schedule Type Limits Name input -- will not be validated.\n   ** Warning ** ProcessScheduleInput: Schedule:Day:Interval=\"SCHEDULE DAY 43\", Blank Schedule Type Limits Name input -- will not be validated.\n   ** Warning ** ProcessScheduleInput: Schedule:Day:Interval=\"SCHEDULE DAY 44\", Blank Schedule Type Limits Name input -- will not be validated.\n   ** Warning ** ProcessScheduleInput: Schedule:Day:Interval=\"SCHEDULE DAY 45\", Blank Schedule Type Limits Name input -- will not be validated.\n   ** Warning ** ProcessScheduleInput: Schedule:Day:Interval=\"SCHEDULE DAY 46\", Blank Schedule Type Limits Name input -- will not be validated.\n   ** Warning ** ProcessScheduleInput: Schedule:Day:Interval=\"SCHEDULE DAY 47\", Blank Schedule Type Limits Name input -- will not be validated.\n   ** Warning ** ProcessScheduleInput: Schedule:Day:Interval=\"SCHEDULE DAY 48\", Blank Schedule Type Limits Name input -- will not be validated.\n   ** Warning ** ProcessScheduleInput: Schedule:Day:Interval=\"SCHEDULE DAY 49\", Blank Schedule Type Limits Name input -- will not be validated.\n   ** Warning ** ProcessScheduleInput: Schedule:Day:Interval=\"SCHEDULE DAY 50\", Blank Schedule Type Limits Name input -- will not be validated.\n   ** Warning ** ProcessScheduleInput: Schedule:Day:Interval=\"SCHEDULE DAY 51\", Blank Schedule Type Limits Name input -- will not be validated.\n   ** Warning ** ProcessScheduleInput: Schedule:Day:Interval=\"SCHEDULE DAY 52\", Blank Schedule Type Limits Name input -- will not be validated.\n   ** Warning ** ProcessScheduleInput: Schedule:Day:Interval=\"SCHEDULE DAY 53\", Blank Schedule Type Limits Name input -- will not be validated.\n   ** Warning ** ProcessScheduleInput: Schedule:Day:Interval=\"SCHEDULE DAY 54\", Blank Schedule Type Limits Name input -- will not be validated.\n   ** Warning ** ProcessScheduleInput: Schedule:Day:Interval=\"SCHEDULE DAY 55\", Blank Schedule Type Limits Name input -- will not be validated.\n   ** Warning ** ProcessScheduleInput: Schedule:Day:Interval=\"SCHEDULE DAY 56\", Blank Schedule Type Limits Name input -- will not be validated.\n   ** Warning ** ProcessScheduleInput: Schedule:Day:Interval=\"SCHEDULE DAY 57\", Blank Schedule Type Limits Name input -- will not be validated.\n   ** Warning ** ProcessScheduleInput: Schedule:Day:Interval=\"SCHEDULE DAY 58\", Blank Schedule Type Limits Name input -- will not be validated.\n   ** Warning ** ProcessScheduleInput: Schedule:Day:Interval=\"SCHEDULE DAY 59\", Blank Schedule Type Limits Name input -- will not be validated.\n   ** Warning ** ProcessScheduleInput: Schedule:Day:Interval=\"SCHEDULE DAY 60\", Blank Schedule Type Limits Name input -- will not be validated.\n   ** Warning ** ProcessScheduleInput: Schedule:Day:Interval=\"SCHEDULE DAY 61\", Blank Schedule Type Limits Name input -- will not be validated.\n   ** Warning ** ProcessScheduleInput: Schedule:Day:Interval=\"SCHEDULE DAY 62\", Blank Schedule Type Limits Name input -- will not be validated.\n   ** Warning ** ProcessScheduleInput: Schedule:Day:Interval=\"SCHEDULE DAY 63\", Blank Schedule Type Limits Name input -- will not be validated.\n   ** Warning ** ProcessScheduleInput: Schedule:Day:Interval=\"SCHEDULE DAY 64\", Blank Schedule Type Limits Name input -- will not be validated.\n   ** Warning ** ProcessScheduleInput: Schedule:Day:Interval=\"SCHEDULE DAY 65\", Blank Schedule Type Limits Name input -- will not be validated.\n   ** Warning ** ProcessScheduleInput: Schedule:Day:Interval=\"SCHEDULE DAY 66\", Blank Schedule Type Limits Name input -- will not be validated.\n   ** Warning ** ProcessScheduleInput: Schedule:Day:Interval=\"SCHEDULE DAY 67\", Blank Schedule Type Limits Name input -- will not be validated.\n   ** Warning ** ProcessScheduleInput: Schedule:Day:Interval=\"SCHEDULE DAY 68\", Blank Schedule Type Limits Name input -- will not be validated.\n   ** Warning ** ProcessScheduleInput: Schedule:Day:Interval=\"SCHEDULE DAY 69\", Blank Schedule Type Limits Name input -- will not be validated.\n   ** Warning ** ProcessScheduleInput: Schedule:Day:Interval=\"SCHEDULE DAY 70\", Blank Schedule Type Limits Name input -- will not be validated.\n   ** Warning ** ProcessScheduleInput: Schedule:Day:Interval=\"SCHEDULE DAY 71\", Blank Schedule Type Limits Name input -- will not be validated.\n   ** Warning ** ProcessScheduleInput: Schedule:Day:Interval=\"SCHEDULE DAY 72\", Blank Schedule Type Limits Name input -- will not be validated.\n   ** Warning ** ProcessScheduleInput: Schedule:Day:Interval=\"SCHEDULE DAY 73\", Blank Schedule Type Limits Name input -- will not be validated.\n   ** Warning ** ProcessScheduleInput: Schedule:Day:Interval=\"SCHEDULE DAY 74\", Blank Schedule Type Limits Name input -- will not be validated.\n   ** Warning ** ProcessScheduleInput: Schedule:Day:Interval=\"SCHEDULE DAY 75\", Blank Schedule Type Limits Name input -- will not be validated.\n   ** Warning ** ProcessScheduleInput: Schedule:Day:Interval=\"SCHEDULE DAY 76\", Blank Schedule Type Limits Name input -- will not be validated.\n   ** Warning ** ProcessScheduleInput: Schedule:Day:Interval=\"SCHEDULE DAY 77\", Blank Schedule Type Limits Name input -- will not be validated.\n   ** Warning ** ProcessScheduleInput: Schedule:Day:Interval=\"SCHEDULE DAY 78\", Blank Schedule Type Limits Name input -- will not be validated.\n   ** Warning ** ProcessScheduleInput: Schedule:Day:Interval=\"SCHEDULE DAY 8\", Blank Schedule Type Limits Name input -- will not be validated.\n   ** Warning ** ProcessScheduleInput: Schedule:Day:Interval=\"SCHEDULE DAY 9\", Blank Schedule Type Limits Name input -- will not be validated.\n   ** Warning ** ProcessScheduleInput: Schedule:Year=\"ECONOMIZER MAX OA FRACTION 100 PCT\", Blank Schedule Type Limits Name input -- will not be validated.\n   ** Warning ** ProcessScheduleInput: Schedule:Year=\"SCHEDULE RULESET 10\", Blank Schedule Type Limits Name input -- will not be validated.\n   ** Warning ** ProcessScheduleInput: Schedule:Year=\"SCHEDULE RULESET 11\", Blank Schedule Type Limits Name input -- will not be validated.\n   ** Warning ** ProcessScheduleInput: Schedule:Year=\"SCHEDULE RULESET 12\", Blank Schedule Type Limits Name input -- will not be validated.\n   ** Warning ** ProcessScheduleInput: Schedule:Year=\"SCHEDULE RULESET 13\", Blank Schedule Type Limits Name input -- will not be validated.\n   ** Warning ** ProcessScheduleInput: Schedule:Year=\"SCHEDULE RULESET 14\", Blank Schedule Type Limits Name input -- will not be validated.\n   ** Warning ** ProcessScheduleInput: Schedule:Year=\"SCHEDULE RULESET 15\", Blank Schedule Type Limits Name input -- will not be validated.\n   ** Warning ** ProcessScheduleInput: Schedule:Year=\"SCHEDULE RULESET 16\", Blank Schedule Type Limits Name input -- will not be validated.\n   ** Warning ** ProcessScheduleInput: Schedule:Year=\"SCHEDULE RULESET 17\", Blank Schedule Type Limits Name input -- will not be validated.\n   ** Warning ** ProcessScheduleInput: Schedule:Year=\"SCHEDULE RULESET 18\", Blank Schedule Type Limits Name input -- will not be validated.\n   ** Warning ** ProcessScheduleInput: Schedule:Year=\"SCHEDULE RULESET 19\", Blank Schedule Type Limits Name input -- will not be validated.\n   ** Warning ** ProcessScheduleInput: Schedule:Year=\"SCHEDULE RULESET 20\", Blank Schedule Type Limits Name input -- will not be validated.\n   ** Warning ** ProcessScheduleInput: Schedule:Year=\"SCHEDULE RULESET 21\", Blank Schedule Type Limits Name input -- will not be validated.\n   ** Warning ** ProcessScheduleInput: Schedule:Year=\"SCHEDULE RULESET 22\", Blank Schedule Type Limits Name input -- will not be validated.\n   ** Warning ** ProcessScheduleInput: Schedule:Year=\"SCHEDULE RULESET 23\", Blank Schedule Type Limits Name input -- will not be validated.\n   ** Warning ** ProcessScheduleInput: Schedule:Year=\"SCHEDULE RULESET 24\", Blank Schedule Type Limits Name input -- will not be validated.\n   ** Warning ** ProcessScheduleInput: Schedule:Year=\"SCHEDULE RULESET 25\", Blank Schedule Type Limits Name input -- will not be validated.\n   ** Warning ** ProcessScheduleInput: Schedule:Year=\"SCHEDULE RULESET 26\", Blank Schedule Type Limits Name input -- will not be validated.\n   ** Warning ** ProcessScheduleInput: Schedule:Year=\"SCHEDULE RULESET 27\", Blank Schedule Type Limits Name input -- will not be validated.\n   ** Warning ** ProcessScheduleInput: Schedule:Year=\"SCHEDULE RULESET 28\", Blank Schedule Type Limits Name input -- will not be validated.\n   ** Warning ** ProcessScheduleInput: Schedule:Year=\"SCHEDULE RULESET 29\", Blank Schedule Type Limits Name input -- will not be validated.\n   ** Warning ** ProcessScheduleInput: Schedule:Year=\"SCHEDULE RULESET 3\", Blank Schedule Type Limits Name input -- will not be validated.\n   ** Warning ** ProcessScheduleInput: Schedule:Year=\"SCHEDULE RULESET 30\", Blank Schedule Type Limits Name input -- will not be validated.\n   ** Warning ** ProcessScheduleInput: Schedule:Year=\"SCHEDULE RULESET 31\", Blank Schedule Type Limits Name input -- will not be validated.\n   ** Warning ** ProcessScheduleInput: Schedule:Year=\"SCHEDULE RULESET 32\", Blank Schedule Type Limits Name input -- will not be validated.\n   ** Warning ** ProcessScheduleInput: Schedule:Year=\"SCHEDULE RULESET 33\", Blank Schedule Type Limits Name input -- will not be validated.\n   ** Warning ** ProcessScheduleInput: Schedule:Year=\"SCHEDULE RULESET 34\", Blank Schedule Type Limits Name input -- will not be validated.\n   ** Warning ** ProcessScheduleInput: Schedule:Year=\"SCHEDULE RULESET 35\", Blank Schedule Type Limits Name input -- will not be validated.\n   ** Warning ** ProcessScheduleInput: Schedule:Year=\"SCHEDULE RULESET 36\", Blank Schedule Type Limits Name input -- will not be validated.\n   ** Warning ** ProcessScheduleInput: Schedule:Year=\"SCHEDULE RULESET 37\", Blank Schedule Type Limits Name input -- will not be validated.\n   ** Warning ** ProcessScheduleInput: Schedule:Year=\"SCHEDULE RULESET 38\", Blank Schedule Type Limits Name input -- will not be validated.\n   ** Warning ** ProcessScheduleInput: Schedule:Year=\"SCHEDULE RULESET 39\", Blank Schedule Type Limits Name input -- will not be validated.\n   ** Warning ** ProcessScheduleInput: Schedule:Year=\"SCHEDULE RULESET 4\", Blank Schedule Type Limits Name input -- will not be validated.\n   ** Warning ** ProcessScheduleInput: Schedule:Year=\"SCHEDULE RULESET 40\", Blank Schedule Type Limits Name input -- will not be validated.\n   ** Warning ** ProcessScheduleInput: Schedule:Year=\"SCHEDULE RULESET 41\", Blank Schedule Type Limits Name input -- will not be validated.\n   ** Warning ** ProcessScheduleInput: Schedule:Year=\"SCHEDULE RULESET 42\", Blank Schedule Type Limits Name input -- will not be validated.\n   ** Warning ** ProcessScheduleInput: Schedule:Year=\"SCHEDULE RULESET 43\", Blank Schedule Type Limits Name input -- will not be validated.\n   ** Warning ** ProcessScheduleInput: Schedule:Year=\"SCHEDULE RULESET 44\", Blank Schedule Type Limits Name input -- will not be validated.\n   ** Warning ** ProcessScheduleInput: Schedule:Year=\"SCHEDULE RULESET 45\", Blank Schedule Type Limits Name input -- will not be validated.\n   ** Warning ** ProcessScheduleInput: Schedule:Year=\"SCHEDULE RULESET 46\", Blank Schedule Type Limits Name input -- will not be validated.\n   ** Warning ** ProcessScheduleInput: Schedule:Year=\"SCHEDULE RULESET 47\", Blank Schedule Type Limits Name input -- will not be validated.\n   ** Warning ** ProcessScheduleInput: Schedule:Year=\"SCHEDULE RULESET 48\", Blank Schedule Type Limits Name input -- will not be validated.\n   ** Warning ** ProcessScheduleInput: Schedule:Year=\"SCHEDULE RULESET 49\", Blank Schedule Type Limits Name input -- will not be validated.\n   ** Warning ** ProcessScheduleInput: Schedule:Year=\"SCHEDULE RULESET 5\", Blank Schedule Type Limits Name input -- will not be validated.\n   ** Warning ** ProcessScheduleInput: Schedule:Year=\"SCHEDULE RULESET 50\", Blank Schedule Type Limits Name input -- will not be validated.\n   ** Warning ** ProcessScheduleInput: Schedule:Year=\"SCHEDULE RULESET 51\", Blank Schedule Type Limits Name input -- will not be validated.\n   ** Warning ** ProcessScheduleInput: Schedule:Year=\"SCHEDULE RULESET 52\", Blank Schedule Type Limits Name input -- will not be validated.\n   ** Warning ** ProcessScheduleInput: Schedule:Year=\"SCHEDULE RULESET 53\", Blank Schedule Type Limits Name input -- will not be validated.\n   ** Warning ** ProcessScheduleInput: Schedule:Year=\"SCHEDULE RULESET 54\", Blank Schedule Type Limits Name input -- will not be validated.\n   ** Warning ** ProcessScheduleInput: Schedule:Year=\"SCHEDULE RULESET 55\", Blank Schedule Type Limits Name input -- will not be validated.\n   ** Warning ** ProcessScheduleInput: Schedule:Year=\"SCHEDULE RULESET 56\", Blank Schedule Type Limits Name input -- will not be validated.\n   ** Warning ** ProcessScheduleInput: Schedule:Year=\"SCHEDULE RULESET 57\", Blank Schedule Type Limits Name input -- will not be validated.\n   ** Warning ** ProcessScheduleInput: Schedule:Year=\"SCHEDULE RULESET 58\", Blank Schedule Type Limits Name input -- will not be validated.\n   ** Warning ** ProcessScheduleInput: Schedule:Year=\"SCHEDULE RULESET 59\", Blank Schedule Type Limits Name input -- will not be validated.\n   ** Warning ** ProcessScheduleInput: Schedule:Year=\"SCHEDULE RULESET 6\", Blank Schedule Type Limits Name input -- will not be validated.\n   ** Warning ** ProcessScheduleInput: Schedule:Year=\"SCHEDULE RULESET 7\", Blank Schedule Type Limits Name input -- will not be validated.\n   ** Warning ** ProcessScheduleInput: Schedule:Year=\"SCHEDULE RULESET 8\", Blank Schedule Type Limits Name input -- will not be validated.\n   ** Warning ** ProcessScheduleInput: Schedule:Year=\"SCHEDULE RULESET 9\", Blank Schedule Type Limits Name input -- will not be validated.\n   ** Warning ** ProcessScheduleInput: Schedule:Constant=\"ALWAYS OFF DISCRETE\", Blank Schedule Type Limits Name input -- will not be validated.\n   ** Warning ** ProcessScheduleInput: Schedule:Constant=\"ALWAYS ON CONTINUOUS\", Blank Schedule Type Limits Name input -- will not be validated.\n   ** Warning ** CheckUsedConstructions: There are 23 nominally unused constructions in input.\n   **   ~~~   ** For explicit details on each unused construction, use Output:Diagnostics,DisplayExtraWarnings;\n   ** Warning ** GetInternalHeatGains: ElectricEquipment Combination of ZoneList and Object Name generate a name too long.\n   **   ~~~   ** Object Name=\"SPACE FUNCTION HOSPITAL - LAUNDRY/WASHING ELEC EQUIP\".\n   **   ~~~   ** ZoneList/Zone Name=\"SP-LAUNDRY_FLR_1 SYS-3 FLR-1 SCH-C HPLCMT-EAST ZN\".\n   **   ~~~   ** Item length=[101] > Maximum Length=[100]. You may need to shorten the names.\n   **   ~~~   ** Shortening the Object Name by [2] characters will assure uniqueness for this ZoneList.\n   **   ~~~   ** name that will be used (may be needed in reporting)=\"SP-LAUNDRY_FLR_1 SYS-3 FLR-1 SCH-C HPLCMT-EAST ZN SPACE FUNCTION HOSPITAL - LAUNDRY/WASHING ELEC EQUIP\".\n   ** Warning ** GetInternalHeatGains: ElectricEquipment Combination of ZoneList and Object Name generate a name too long.\n   **   ~~~   ** Object Name=\"SPACE FUNCTION HOTEL/MOTEL - ROOMS ELEC EQUIP\".\n   **   ~~~   ** ZoneList/Zone Name=\"SP-ROOM_3_MULT19_FLR_3 SYS-1 FLR-2 SCH-F HPLCMT-SOUTH ZN\".\n   **   ~~~   ** Item length=[101] > Maximum Length=[100]. You may need to shorten the names.\n   **   ~~~   ** Shortening the Object Name by [2] characters will assure uniqueness for this ZoneList.\n   **   ~~~   ** name that will be used (may be needed in reporting)=\"SP-ROOM_3_MULT19_FLR_3 SYS-1 FLR-2 SCH-F HPLCMT-SOUTH ZN SPACE FUNCTION HOTEL/MOTEL - ROOMS ELEC EQUIP\".\n   ** Warning ** GetInternalHeatGains: ElectricEquipment Combination of ZoneList and Object Name generate a name too long.\n   **   ~~~   ** Object Name=\"SPACE FUNCTION HOTEL/MOTEL - ROOMS ELEC EQUIP\".\n   **   ~~~   ** ZoneList/Zone Name=\"SP-ROOM_4_MULT19_FLR_3 SYS-1 FLR-2 SCH-F HPLCMT-NORTH ZN\".\n   **   ~~~   ** Item length=[101] > Maximum Length=[100]. You may need to shorten the names.\n   **   ~~~   ** Shortening the Object Name by [2] characters will assure uniqueness for this ZoneList.\n   **   ~~~   ** name that will be used (may be needed in reporting)=\"SP-ROOM_4_MULT19_FLR_3 SYS-1 FLR-2 SCH-F HPLCMT-NORTH ZN SPACE FUNCTION HOTEL/MOTEL - ROOMS ELEC EQUIP\".\n   ** Warning ** Calculated design heating load for zone=SP-BASEMENT SYS-4 FLR-3 SCH-E HPLCMT-NORTH ZN is zero.\n   **   ~~~   ** Check Sizing:Zone and ZoneControl:Thermostat inputs.\n   ** Warning ** Calculated design heating load for zone=SP-LOBBY_FLR_1 SYS-6 FLR-1 SCH-H HPLCMT-NORTH ZN is zero.\n   **   ~~~   ** Check Sizing:Zone and ZoneControl:Thermostat inputs.\n   ************* Beginning System Sizing Calculations\n   ** Warning ** Since Zone Minimum Air Flow Input Method = CONSTANT, input for Fixed Minimum Air Flow Rate will be ignored.\n   **   ~~~   ** Occurs in AirTerminal:SingleDuct:VAV:Reheat = AIR TERMINAL SINGLE DUCT VAV REHEAT 2\n   ** Warning ** Since Zone Minimum Air Flow Input Method = CONSTANT, input for Fixed Minimum Air Flow Rate will be ignored.\n   **   ~~~   ** Occurs in AirTerminal:SingleDuct:VAV:Reheat = AIR TERMINAL SINGLE DUCT VAV REHEAT 1\n   ** Warning ** Since Zone Minimum Air Flow Input Method = CONSTANT, input for Fixed Minimum Air Flow Rate will be ignored.\n   **   ~~~   ** Occurs in AirTerminal:SingleDuct:VAV:Reheat = AIR TERMINAL SINGLE DUCT VAV REHEAT 4\n   ** Warning ** Since Zone Minimum Air Flow Input Method = CONSTANT, input for Fixed Minimum Air Flow Rate will be ignored.\n   **   ~~~   ** Occurs in AirTerminal:SingleDuct:VAV:Reheat = AIR TERMINAL SINGLE DUCT VAV REHEAT 5\n   ** Warning ** Since Zone Minimum Air Flow Input Method = CONSTANT, input for Fixed Minimum Air Flow Rate will be ignored.\n   **   ~~~   ** Occurs in AirTerminal:SingleDuct:VAV:Reheat = AIR TERMINAL SINGLE DUCT VAV REHEAT 3\n   ** Warning ** GetDXCoils: Coil:Cooling:DX:SingleSpeed=\"COIL COOLING DX SINGLE SPEED 8 46KBTU/HR 9.3EER\", invalid\n   **   ~~~   ** ...Part Load Fraction Correlation Curve Name = DXCOOL-NECB2011-REF-COOLPLFFPLR 16 has out of range value.\n   **   ~~~   ** ...Curve maximum must be <= 1.0, curve max at PLR = 0.99 is 1.015\n   **   ~~~   ** ...Setting curve maximum to 1.0 and simulation continues.\n   ** Warning ** GetDXCoils: Coil:Cooling:DX:SingleSpeed=\"COIL COOLING DX SINGLE SPEED 5 17KBTU/HR 9.3EER\", invalid\n   **   ~~~   ** ...Part Load Fraction Correlation Curve Name = DXCOOL-NECB2011-REF-COOLPLFFPLR 13 has out of range value.\n   **   ~~~   ** ...Curve maximum must be <= 1.0, curve max at PLR = 0.99 is 1.015\n   **   ~~~   ** ...Setting curve maximum to 1.0 and simulation continues.\n   ** Warning ** GetDXCoils: Coil:Cooling:DX:SingleSpeed=\"COIL COOLING DX SINGLE SPEED 9 20KBTU/HR 9.3EER\", invalid\n   **   ~~~   ** ...Part Load Fraction Correlation Curve Name = DXCOOL-NECB2011-REF-COOLPLFFPLR 17 has out of range value.\n   **   ~~~   ** ...Curve maximum must be <= 1.0, curve max at PLR = 0.99 is 1.015\n   **   ~~~   ** ...Setting curve maximum to 1.0 and simulation continues.\n   ** Warning ** GetDXCoils: Coil:Cooling:DX:SingleSpeed=\"COIL COOLING DX SINGLE SPEED 6 16KBTU/HR 9.3EER\", invalid\n   **   ~~~   ** ...Part Load Fraction Correlation Curve Name = DXCOOL-NECB2011-REF-COOLPLFFPLR 14 has out of range value.\n   **   ~~~   ** ...Curve maximum must be <= 1.0, curve max at PLR = 0.99 is 1.015\n   **   ~~~   ** ...Setting curve maximum to 1.0 and simulation continues.\n   ** Warning ** GetDXCoils: Coil:Cooling:DX:SingleSpeed=\"COIL COOLING DX SINGLE SPEED 10 19KBTU/HR 9.3EER\", invalid\n   **   ~~~   ** ...Part Load Fraction Correlation Curve Name = DXCOOL-NECB2011-REF-COOLPLFFPLR 1 has out of range value.\n   **   ~~~   ** ...Curve maximum must be <= 1.0, curve max at PLR = 0.99 is 1.015\n   **   ~~~   ** ...Setting curve maximum to 1.0 and simulation continues.\n   ** Warning ** GetDXCoils: Coil:Cooling:DX:SingleSpeed=\"COIL COOLING DX SINGLE SPEED 7 6KBTU/HR 11.0EER\", invalid\n   **   ~~~   ** ...Part Load Fraction Correlation Curve Name = DXCOOL-NECB2011-REF-COOLPLFFPLR 15 has out of range value.\n   **   ~~~   ** ...Curve maximum must be <= 1.0, curve max at PLR = 0.99 is 1.015\n   **   ~~~   ** ...Setting curve maximum to 1.0 and simulation continues.\n   ** Warning ** GetDXCoils: Coil:Cooling:DX:SingleSpeed=\"COIL COOLING DX SINGLE SPEED 11 11KBTU/HR 10.1EER\", invalid\n   **   ~~~   ** ...Part Load Fraction Correlation Curve Name = DXCOOL-NECB2011-REF-COOLPLFFPLR 2 has out of range value.\n   **   ~~~   ** ...Curve maximum must be <= 1.0, curve max at PLR = 0.99 is 1.015\n   **   ~~~   ** ...Setting curve maximum to 1.0 and simulation continues.\n   ** Warning ** GetDXCoils: Coil:Cooling:DX:SingleSpeed=\"COIL COOLING DX SINGLE SPEED 2 3KBTU/HR 11.0EER\", invalid\n   **   ~~~   ** ...Part Load Fraction Correlation Curve Name = DXCOOL-NECB2011-REF-COOLPLFFPLR 10 has out of range value.\n   **   ~~~   ** ...Curve maximum must be <= 1.0, curve max at PLR = 0.99 is 1.015\n   **   ~~~   ** ...Setting curve maximum to 1.0 and simulation continues.\n   ** Warning ** GetDXCoils: Coil:Cooling:DX:SingleSpeed=\"COIL COOLING DX SINGLE SPEED 4 16KBTU/HR 9.3EER\", invalid\n   **   ~~~   ** ...Part Load Fraction Correlation Curve Name = DXCOOL-NECB2011-REF-COOLPLFFPLR 12 has out of range value.\n   **   ~~~   ** ...Curve maximum must be <= 1.0, curve max at PLR = 0.99 is 1.015\n   **   ~~~   ** ...Setting curve maximum to 1.0 and simulation continues.\n   ** Warning ** GetDXCoils: Coil:Cooling:DX:SingleSpeed=\"COIL COOLING DX SINGLE SPEED 3 16KBTU/HR 9.3EER\", invalid\n   **   ~~~   ** ...Part Load Fraction Correlation Curve Name = DXCOOL-NECB2011-REF-COOLPLFFPLR 11 has out of range value.\n   **   ~~~   ** ...Curve maximum must be <= 1.0, curve max at PLR = 0.99 is 1.015\n   **   ~~~   ** ...Setting curve maximum to 1.0 and simulation continues.\n   ** Warning ** GetDXCoils: Coil:Cooling:DX:SingleSpeed=\"COIL COOLING DX SINGLE SPEED 1 174KBTU/HR 9.7EER\", invalid\n   **   ~~~   ** ...Part Load Fraction Correlation Curve Name = DXCOOL-NECB2011-REF-COOLPLFFPLR has out of range value.\n   **   ~~~   ** ...Curve maximum must be <= 1.0, curve max at PLR = 0.99 is 1.015\n   **   ~~~   ** ...Setting curve maximum to 1.0 and simulation continues.\n   ** Warning ** GetDXCoils: Coil:Cooling:DX:SingleSpeed=\"COIL COOLING DX SINGLE SPEED 14 75KBTU/HR 9.7EER\", invalid\n   **   ~~~   ** ...Part Load Fraction Correlation Curve Name = DXCOOL-NECB2011-REF-COOLPLFFPLR 5 has out of range value.\n   **   ~~~   ** ...Curve maximum must be <= 1.0, curve max at PLR = 0.99 is 1.015\n   **   ~~~   ** ...Setting curve maximum to 1.0 and simulation continues.\n   ** Warning ** GetDXCoils: Coil:Cooling:DX:SingleSpeed=\"COIL COOLING DX SINGLE SPEED 18 78KBTU/HR 9.7EER\", invalid\n   **   ~~~   ** ...Part Load Fraction Correlation Curve Name = DXCOOL-NECB2011-REF-COOLPLFFPLR 9 has out of range value.\n   **   ~~~   ** ...Curve maximum must be <= 1.0, curve max at PLR = 0.99 is 1.015\n   **   ~~~   ** ...Setting curve maximum to 1.0 and simulation continues.\n   ** Warning ** GetDXCoils: Coil:Cooling:DX:SingleSpeed=\"COIL COOLING DX SINGLE SPEED 13 58KBTU/HR 14.0SEER\", invalid\n   **   ~~~   ** ...Part Load Fraction Correlation Curve Name = DXCOOL-NECB2011-REF-COOLPLFFPLR 4 has out of range value.\n   **   ~~~   ** ...Curve maximum must be <= 1.0, curve max at PLR = 0.99 is 1.015\n   **   ~~~   ** ...Setting curve maximum to 1.0 and simulation continues.\n   ** Warning ** GetDXCoils: Coil:Cooling:DX:SingleSpeed=\"COIL COOLING DX SINGLE SPEED 15 75KBTU/HR 9.7EER\", invalid\n   **   ~~~   ** ...Part Load Fraction Correlation Curve Name = DXCOOL-NECB2011-REF-COOLPLFFPLR 6 has out of range value.\n   **   ~~~   ** ...Curve maximum must be <= 1.0, curve max at PLR = 0.99 is 1.015\n   **   ~~~   ** ...Setting curve maximum to 1.0 and simulation continues.\n   ** Warning ** GetDXCoils: Coil:Cooling:DX:SingleSpeed=\"COIL COOLING DX SINGLE SPEED 16 55KBTU/HR 14.0SEER\", invalid\n   **   ~~~   ** ...Part Load Fraction Correlation Curve Name = DXCOOL-NECB2011-REF-COOLPLFFPLR 7 has out of range value.\n   **   ~~~   ** ...Curve maximum must be <= 1.0, curve max at PLR = 0.99 is 1.015\n   **   ~~~   ** ...Setting curve maximum to 1.0 and simulation continues.\n   ** Warning ** GetDXCoils: Coil:Cooling:DX:SingleSpeed=\"COIL COOLING DX SINGLE SPEED 12 14KBTU/HR 14.0SEER\", invalid\n   **   ~~~   ** ...Part Load Fraction Correlation Curve Name = DXCOOL-NECB2011-REF-COOLPLFFPLR 3 has out of range value.\n   **   ~~~   ** ...Curve maximum must be <= 1.0, curve max at PLR = 0.99 is 1.015\n   **   ~~~   ** ...Setting curve maximum to 1.0 and simulation continues.\n   ** Warning ** GetDXCoils: Coil:Cooling:DX:SingleSpeed=\"COIL COOLING DX SINGLE SPEED 17 6KBTU/HR 14.0SEER\", invalid\n   **   ~~~   ** ...Part Load Fraction Correlation Curve Name = DXCOOL-NECB2011-REF-COOLPLFFPLR 8 has out of range value.\n   **   ~~~   ** ...Curve maximum must be <= 1.0, curve max at PLR = 0.99 is 1.015\n   **   ~~~   ** ...Setting curve maximum to 1.0 and simulation continues.\n   ************* Beginning Plant Sizing Calculations\n   ** Warning ** The Standard Ratings is calculated for Coil:Cooling:DX:SingleSpeed = COIL COOLING DX SINGLE SPEED 8 46KBTU/HR 9.3EER but not at the AHRI test condition due to curve out of bound.\n   **   ~~~   **  Review the Standard Ratings calculations in the Engineering Reference for this coil type. Also, use Output:Diagnostics, DisplayExtraWarnings for further guidance.\n   ** Warning ** The Standard Ratings is calculated for Coil:Cooling:DX:SingleSpeed = COIL COOLING DX SINGLE SPEED 5 17KBTU/HR 9.3EER but not at the AHRI test condition due to curve out of bound.\n   **   ~~~   **  Review the Standard Ratings calculations in the Engineering Reference for this coil type. Also, use Output:Diagnostics, DisplayExtraWarnings for further guidance.\n   ** Warning ** The Standard Ratings is calculated for Coil:Cooling:DX:SingleSpeed = COIL COOLING DX SINGLE SPEED 9 20KBTU/HR 9.3EER but not at the AHRI test condition due to curve out of bound.\n   **   ~~~   **  Review the Standard Ratings calculations in the Engineering Reference for this coil type. Also, use Output:Diagnostics, DisplayExtraWarnings for further guidance.\n   ** Warning ** The Standard Ratings is calculated for Coil:Cooling:DX:SingleSpeed = COIL COOLING DX SINGLE SPEED 6 16KBTU/HR 9.3EER but not at the AHRI test condition due to curve out of bound.\n   **   ~~~   **  Review the Standard Ratings calculations in the Engineering Reference for this coil type. Also, use Output:Diagnostics, DisplayExtraWarnings for further guidance.\n   ** Warning ** The Standard Ratings is calculated for Coil:Cooling:DX:SingleSpeed = COIL COOLING DX SINGLE SPEED 10 19KBTU/HR 9.3EER but not at the AHRI test condition due to curve out of bound.\n   **   ~~~   **  Review the Standard Ratings calculations in the Engineering Reference for this coil type. Also, use Output:Diagnostics, DisplayExtraWarnings for further guidance.\n   ** Warning ** The Standard Ratings is calculated for Coil:Cooling:DX:SingleSpeed = COIL COOLING DX SINGLE SPEED 7 6KBTU/HR 11.0EER but not at the AHRI test condition due to curve out of bound.\n   **   ~~~   **  Review the Standard Ratings calculations in the Engineering Reference for this coil type. Also, use Output:Diagnostics, DisplayExtraWarnings for further guidance.\n   ** Warning ** The Standard Ratings is calculated for Coil:Cooling:DX:SingleSpeed = COIL COOLING DX SINGLE SPEED 11 11KBTU/HR 10.1EER but not at the AHRI test condition due to curve out of bound.\n   **   ~~~   **  Review the Standard Ratings calculations in the Engineering Reference for this coil type. Also, use Output:Diagnostics, DisplayExtraWarnings for further guidance.\n   ** Warning ** The Standard Ratings is calculated for Coil:Cooling:DX:SingleSpeed = COIL COOLING DX SINGLE SPEED 2 3KBTU/HR 11.0EER but not at the AHRI test condition due to curve out of bound.\n   **   ~~~   **  Review the Standard Ratings calculations in the Engineering Reference for this coil type. Also, use Output:Diagnostics, DisplayExtraWarnings for further guidance.\n   ** Warning ** The Standard Ratings is calculated for Coil:Cooling:DX:SingleSpeed = COIL COOLING DX SINGLE SPEED 4 16KBTU/HR 9.3EER but not at the AHRI test condition due to curve out of bound.\n   **   ~~~   **  Review the Standard Ratings calculations in the Engineering Reference for this coil type. Also, use Output:Diagnostics, DisplayExtraWarnings for further guidance.\n   ** Warning ** The Standard Ratings is calculated for Coil:Cooling:DX:SingleSpeed = COIL COOLING DX SINGLE SPEED 3 16KBTU/HR 9.3EER but not at the AHRI test condition due to curve out of bound.\n   **   ~~~   **  Review the Standard Ratings calculations in the Engineering Reference for this coil type. Also, use Output:Diagnostics, DisplayExtraWarnings for further guidance.\n   ** Warning ** The Standard Ratings is calculated for Coil:Cooling:DX:SingleSpeed = COIL COOLING DX SINGLE SPEED 1 174KBTU/HR 9.7EER but not at the AHRI test condition due to curve out of bound.\n   **   ~~~   **  Review the Standard Ratings calculations in the Engineering Reference for this coil type. Also, use Output:Diagnostics, DisplayExtraWarnings for further guidance.\n   ** Warning ** The Standard Ratings is calculated for Coil:Cooling:DX:SingleSpeed = COIL COOLING DX SINGLE SPEED 14 75KBTU/HR 9.7EER but not at the AHRI test condition due to curve out of bound.\n   **   ~~~   **  Review the Standard Ratings calculations in the Engineering Reference for this coil type. Also, use Output:Diagnostics, DisplayExtraWarnings for further guidance.\n   ** Warning ** The Standard Ratings is calculated for Coil:Cooling:DX:SingleSpeed = COIL COOLING DX SINGLE SPEED 18 78KBTU/HR 9.7EER but not at the AHRI test condition due to curve out of bound.\n   **   ~~~   **  Review the Standard Ratings calculations in the Engineering Reference for this coil type. Also, use Output:Diagnostics, DisplayExtraWarnings for further guidance.\n   ** Warning ** The Standard Ratings is calculated for Coil:Cooling:DX:SingleSpeed = COIL COOLING DX SINGLE SPEED 13 58KBTU/HR 14.0SEER but not at the AHRI test condition due to curve out of bound.\n   **   ~~~   **  Review the Standard Ratings calculations in the Engineering Reference for this coil type. Also, use Output:Diagnostics, DisplayExtraWarnings for further guidance.\n   ** Warning ** The Standard Ratings is calculated for Coil:Cooling:DX:SingleSpeed = COIL COOLING DX SINGLE SPEED 15 75KBTU/HR 9.7EER but not at the AHRI test condition due to curve out of bound.\n   **   ~~~   **  Review the Standard Ratings calculations in the Engineering Reference for this coil type. Also, use Output:Diagnostics, DisplayExtraWarnings for further guidance.\n   ** Warning ** The Standard Ratings is calculated for Coil:Cooling:DX:SingleSpeed = COIL COOLING DX SINGLE SPEED 16 55KBTU/HR 14.0SEER but not at the AHRI test condition due to curve out of bound.\n   **   ~~~   **  Review the Standard Ratings calculations in the Engineering Reference for this coil type. Also, use Output:Diagnostics, DisplayExtraWarnings for further guidance.\n   ** Warning ** The Standard Ratings is calculated for Coil:Cooling:DX:SingleSpeed = COIL COOLING DX SINGLE SPEED 12 14KBTU/HR 14.0SEER but not at the AHRI test condition due to curve out of bound.\n   **   ~~~   **  Review the Standard Ratings calculations in the Engineering Reference for this coil type. Also, use Output:Diagnostics, DisplayExtraWarnings for further guidance.\n   ** Warning ** The Standard Ratings is calculated for Coil:Cooling:DX:SingleSpeed = COIL COOLING DX SINGLE SPEED 17 6KBTU/HR 14.0SEER but not at the AHRI test condition due to curve out of bound.\n   **   ~~~   **  Review the Standard Ratings calculations in the Engineering Reference for this coil type. Also, use Output:Diagnostics, DisplayExtraWarnings for further guidance.\n   ** Warning ** Missing temperature setpoint for LeavingSetpointModulated mode chiller named PRIMARY CHILLER WATERCOOLED SCROLL 31TONS 0.8KW/TON\n   **   ~~~   **   A temperature setpoint is needed at the outlet node of a chiller in variable flow mode, use a SetpointManager\n   **   ~~~   **   The overall loop setpoint will be assumed for chiller. The simulation continues ... \n   ** Warning ** Missing temperature setpoint for LeavingSetpointModulated mode chiller named SECONDARY CHILLER WATERCOOLED SCROLL 0TONS 0.8KW/TON\n   **   ~~~   **   A temperature setpoint is needed at the outlet node of a chiller in variable flow mode, use a SetpointManager\n   **   ~~~   **   The overall loop setpoint will be assumed for chiller. The simulation continues ... \n   ** Warning ** Missing temperature setpoint for LeavingSetpointModulated mode Boiler named PRIMARY BOILER 2851KBTU/HR 0.833 COMBUSTION EFF\n   **   ~~~   **   A temperature setpoint is needed at the outlet node of a boiler in variable flow mode, use a SetpointManager\n   **   ~~~   **   The overall loop setpoint will be assumed for Boiler. The simulation continues ... \n   ** Warning ** Output:Meter: invalid Name=\"DISTRICTCOOLING:FACILITY\" - not found.\n   ** Warning ** Output:Meter: invalid Name=\"DISTRICTHEATING:FACILITY\" - not found.\n   ** Warning ** Output:Meter:MeterFileOnly requested for \"Electricity:Facility\" (TimeStep), already on \"Output:Meter\". Will report to both eplusout.eso and eplusout.mtr\n   ************* Testing Individual Branch Integrity\n   ************* All Branches passed integrity testing\n   ************* Testing Individual Supply Air Path Integrity\n   ************* All Supply Air Paths passed integrity testing\n   ************* Testing Individual Return Air Path Integrity\n   ************* All Return Air Paths passed integrity testing\n   ************* No node connection errors were found.\n   ************* Beginning Simulation\n   ** Warning ** CalcDoe2DXCoil: Coil:Cooling:DX:SingleSpeed \"COIL COOLING DX SINGLE SPEED 16 55KBTU/HR 14.0SEER\" - Air-cooled condenser inlet dry-bulb temperature below 0 C. Outdoor dry-bulb temperature = -20.93\n   **   ~~~   **  ... Occurrence info = RUN PERIOD 1, 01/01 01:01 - 01:03\n   **   ~~~   ** ... Operation at low ambient temperatures may require special performance curves.\n   ** Warning ** CalcDoe2DXCoil: Coil:Cooling:DX:SingleSpeed \"COIL COOLING DX SINGLE SPEED 16 55KBTU/HR 14.0SEER\" - Full load outlet air dry-bulb temperature < 2C. This indicates the possibility of coil frost/freeze. Outlet temperature = 1.52 C.\n   **   ~~~   **  ...Occurrence info = RUN PERIOD 1, 01/01 01:01 - 01:03\n   **   ~~~   ** ... Possible reasons for low outlet air dry-bulb temperatures are: This DX coil\n   **   ~~~   **    1) may have a low inlet air dry-bulb temperature. Inlet air temperature = 14.668 C.\n   **   ~~~   **    2) may have a low air flow rate per watt of cooling capacity. Check inputs.\n   **   ~~~   **    3) is used as part of a HX assisted cooling coil which uses a high sensible effectiveness. Check inputs.\n   ** Warning ** CalcDoe2DXCoil: Coil:Cooling:DX:SingleSpeed \"COIL COOLING DX SINGLE SPEED 13 58KBTU/HR 14.0SEER\" - Air-cooled condenser inlet dry-bulb temperature below 0 C. Outdoor dry-bulb temperature = -16.25\n   **   ~~~   **  ... Occurrence info = RUN PERIOD 1, 01/02 07:02 - 07:04\n   **   ~~~   ** ... Operation at low ambient temperatures may require special performance curves.\n   ** Warning ** CalcDoe2DXCoil: Coil:Cooling:DX:SingleSpeed \"COIL COOLING DX SINGLE SPEED 11 11KBTU/HR 10.1EER\" - Air-cooled condenser inlet dry-bulb temperature below 0 C. Outdoor dry-bulb temperature = -32.08\n   **   ~~~   **  ... Occurrence info = RUN PERIOD 1, 01/03 11:08 - 11:11\n   **   ~~~   ** ... Operation at low ambient temperatures may require special performance curves.\n   ** Warning ** CalcDoe2DXCoil: Coil:Cooling:DX:SingleSpeed \"COIL COOLING DX SINGLE SPEED 7 6KBTU/HR 11.0EER\" - Air-cooled condenser inlet dry-bulb temperature below 0 C. Outdoor dry-bulb temperature = -31.95\n   **   ~~~   **  ... Occurrence info = RUN PERIOD 1, 01/03 11:25 - 11:30\n   **   ~~~   ** ... Operation at low ambient temperatures may require special performance curves.\n   ** Warning ** SimHVAC: Maximum iterations (20) exceeded for all HVAC loops, at RUN PERIOD 1, 01/03 11:53 - 12:00\n   **   ~~~   ** The solution for one or more of the Air Loop HVAC systems did not appear to converge\n   **   ~~~   ** ...use Output:Diagnostics,DisplayExtraWarnings; to show more details on each max iteration exceeded.\n   ** Warning ** SimHVAC: Maximum iterations (20) exceeded for all HVAC loops, at RUN PERIOD 1, 01/03 12:00 - 12:15\n   **   ~~~   ** The solution for one or more of the Air Loop HVAC systems did not appear to converge\n   ** Warning ** SimHVAC: Maximum iterations (20) exceeded for all HVAC loops, at RUN PERIOD 1, 01/03 12:15 - 12:30\n   **   ~~~   ** The solution for one or more of the Air Loop HVAC systems did not appear to converge\n   ** Warning ** SimHVAC: Maximum iterations (20) exceeded for all HVAC loops, at RUN PERIOD 1, 01/03 14:30 - 14:45\n   **   ~~~   ** The solution for one or more of the Air Loop HVAC systems did not appear to converge\n   ** Warning ** SimHVAC: Maximum iterations (20) exceeded for all HVAC loops, at RUN PERIOD 1, 01/03 14:45 - 15:00\n   **   ~~~   ** The solution for one or more of the Air Loop HVAC systems did not appear to converge\n   ** Warning ** SimHVAC: Maximum iterations (20) exceeded for all HVAC loops, at RUN PERIOD 1, 01/03 15:20 - 15:25\n   **   ~~~   ** The solution for one or more of the Air Loop HVAC systems did not appear to converge\n   ** Warning ** SimHVAC: Maximum iterations (20) exceeded for all HVAC loops, at RUN PERIOD 1, 01/06 11:30 - 11:45\n   **   ~~~   ** The solution for one or more of the Air Loop HVAC systems did not appear to converge\n   ** Warning ** SimHVAC: Maximum iterations (20) exceeded for all HVAC loops, at RUN PERIOD 1, 01/06 11:38 - 11:45\n   **   ~~~   ** The solution for one or more of the Air Loop HVAC systems did not appear to converge\n   ** Warning ** CalcDoe2DXCoil: Coil:Cooling:DX:SingleSpeed \"COIL COOLING DX SINGLE SPEED 4 16KBTU/HR 9.3EER\" - Air-cooled condenser inlet dry-bulb temperature below 0 C. Outdoor dry-bulb temperature = -31.40\n   **   ~~~   **  ... Occurrence info = RUN PERIOD 1, 01/06 13:15 - 13:30\n   **   ~~~   ** ... Operation at low ambient temperatures may require special performance curves.\n   ** Warning ** CalcDoe2DXCoil: Coil:Cooling:DX:SingleSpeed \"COIL COOLING DX SINGLE SPEED 5 17KBTU/HR 9.3EER\" - Air-cooled condenser inlet dry-bulb temperature below 0 C. Outdoor dry-bulb temperature = -30.68\n   **   ~~~   **  ... Occurrence info = RUN PERIOD 1, 01/06 14:00 - 14:08\n   **   ~~~   ** ... Operation at low ambient temperatures may require special performance curves.\n   ** Warning ** CalcDoe2DXCoil: Coil:Cooling:DX:SingleSpeed \"COIL COOLING DX SINGLE SPEED 9 20KBTU/HR 9.3EER\" - Air-cooled condenser inlet dry-bulb temperature below 0 C. Outdoor dry-bulb temperature = -30.25\n   **   ~~~   **  ... Occurrence info = RUN PERIOD 1, 01/06 14:15 - 14:30\n   **   ~~~   ** ... Operation at low ambient temperatures may require special performance curves.\n   ** Warning ** SimHVAC: Maximum iterations (20) exceeded for all HVAC loops, at RUN PERIOD 1, 01/06 14:45 - 15:00\n   **   ~~~   ** The solution for one or more of the Air Loop HVAC systems did not appear to converge\n   ** Warning ** SimHVAC: Maximum iterations (20) exceeded for all HVAC loops, at RUN PERIOD 1, 01/06 15:00 - 15:15\n   **   ~~~   ** The solution for one or more of the Air Loop HVAC systems did not appear to converge\n   ** Warning ** SimHVAC: Maximum iterations (20) exceeded for all HVAC loops, at RUN PERIOD 1, 01/06 15:00 - 15:08\n   **   ~~~   ** The solution for one or more of the Air Loop HVAC systems did not appear to converge\n   ** Warning ** SimHVAC: Maximum iterations (20) exceeded for all HVAC loops, at RUN PERIOD 1, 01/06 15:08 - 15:15\n   **   ~~~   ** The solution for one or more of the Air Loop HVAC systems did not appear to converge\n   ** Warning ** SimHVAC: Maximum iterations (20) exceeded for all HVAC loops, at RUN PERIOD 1, 01/06 15:15 - 15:30\n   **   ~~~   ** The solution for one or more of the Air Loop HVAC systems did not appear to converge\n   ** Warning ** SimHVAC: Maximum iterations (20) exceeded for all HVAC loops, at RUN PERIOD 1, 01/06 15:15 - 15:20\n   **   ~~~   ** The solution for one or more of the Air Loop HVAC systems did not appear to converge\n   ** Warning ** CalcDoe2DXCoil: Coil:Cooling:DX:SingleSpeed \"COIL COOLING DX SINGLE SPEED 17 6KBTU/HR 14.0SEER\" - Air-cooled condenser inlet dry-bulb temperature below 0 C. Outdoor dry-bulb temperature = -8.60\n   **   ~~~   **  ... Occurrence info = RUN PERIOD 1, 01/09 19:15 - 19:18\n   **   ~~~   ** ... Operation at low ambient temperatures may require special performance curves.\n   ** Warning ** CalcDoe2DXCoil: Coil:Cooling:DX:SingleSpeed \"COIL COOLING DX SINGLE SPEED 17 6KBTU/HR 14.0SEER\" - Full load outlet air dry-bulb temperature < 2C. This indicates the possibility of coil frost/freeze. Outlet temperature = -1.63 C.\n   **   ~~~   **  ...Occurrence info = RUN PERIOD 1, 01/09 19:15 - 19:18\n   **   ~~~   ** ... Possible reasons for low outlet air dry-bulb temperatures are: This DX coil\n   **   ~~~   **    1) may have a low inlet air dry-bulb temperature. Inlet air temperature = 11.755 C.\n   **   ~~~   **    2) may have a low air flow rate per watt of cooling capacity. Check inputs.\n   **   ~~~   **    3) is used as part of a HX assisted cooling coil which uses a high sensible effectiveness. Check inputs.\n   ** Warning ** CalcDoe2DXCoil: Coil:Cooling:DX:SingleSpeed \"COIL COOLING DX SINGLE SPEED 10 19KBTU/HR 9.3EER\" - Air-cooled condenser inlet dry-bulb temperature below 0 C. Outdoor dry-bulb temperature = -12.20\n   **   ~~~   **  ... Occurrence info = RUN PERIOD 1, 01/28 15:25 - 15:30\n   **   ~~~   ** ... Operation at low ambient temperatures may require special performance curves.\n   ** Warning ** CalcDoe2DXCoil: Coil:Cooling:DX:SingleSpeed \"COIL COOLING DX SINGLE SPEED 6 16KBTU/HR 9.3EER\" - Air-cooled condenser inlet dry-bulb temperature below 0 C. Outdoor dry-bulb temperature = -12.20\n   **   ~~~   **  ... Occurrence info = RUN PERIOD 1, 01/28 15:38 - 15:45\n   **   ~~~   ** ... Operation at low ambient temperatures may require special performance curves.\n   ** Warning ** CalcDoe2DXCoil: Coil:Cooling:DX:SingleSpeed \"COIL COOLING DX SINGLE SPEED 3 16KBTU/HR 9.3EER\" - Air-cooled condenser inlet dry-bulb temperature below 0 C. Outdoor dry-bulb temperature = -3.08\n   **   ~~~   **  ... Occurrence info = RUN PERIOD 1, 02/13 10:08 - 10:15\n   **   ~~~   ** ... Operation at low ambient temperatures may require special performance curves.\n   ** Warning ** CalcDoe2DXCoil: Coil:Cooling:DX:SingleSpeed \"COIL COOLING DX SINGLE SPEED 8 46KBTU/HR 9.3EER\" - Air-cooled condenser inlet dry-bulb temperature below 0 C. Outdoor dry-bulb temperature = -12.38\n   **   ~~~   **  ... Occurrence info = RUN PERIOD 1, 02/27 15:00 - 15:15\n   **   ~~~   ** ... Operation at low ambient temperatures may require special performance curves.\n   ** Warning ** CalcDoe2DXCoil: Coil:Cooling:DX:SingleSpeed \"COIL COOLING DX SINGLE SPEED 2 3KBTU/HR 11.0EER\" - Air-cooled condenser inlet dry-bulb temperature below 0 C. Outdoor dry-bulb temperature = -0.28\n   **   ~~~   **  ... Occurrence info = RUN PERIOD 1, 03/17 21:03 - 21:05\n   **   ~~~   ** ... Operation at low ambient temperatures may require special performance curves.\n   ** Warning ** CalcDoe2DXCoil: Coil:Cooling:DX:SingleSpeed \"COIL COOLING DX SINGLE SPEED 12 14KBTU/HR 14.0SEER\" - Full load outlet air dry-bulb temperature < 2C. This indicates the possibility of coil frost/freeze. Outlet temperature = 1.55 C.\n   **   ~~~   **  ...Occurrence info = RUN PERIOD 1, 03/30 16:00 - 16:15\n   **   ~~~   ** ... Possible reasons for low outlet air dry-bulb temperatures are: This DX coil\n   **   ~~~   **    1) may have a low inlet air dry-bulb temperature. Inlet air temperature = 15.559 C.\n   **   ~~~   **    2) may have a low air flow rate per watt of cooling capacity. Check inputs.\n   **   ~~~   **    3) is used as part of a HX assisted cooling coil which uses a high sensible effectiveness. Check inputs.\n   ** Warning ** CalcDoe2DXCoil: Coil:Cooling:DX:SingleSpeed \"COIL COOLING DX SINGLE SPEED 2 3KBTU/HR 11.0EER\" - Full load outlet air dry-bulb temperature < 2C. This indicates the possibility of coil frost/freeze. Outlet temperature = 1.91 C.\n   **   ~~~   **  ...Occurrence info = RUN PERIOD 1, 03/31 22:45 - 23:00\n   **   ~~~   ** ... Possible reasons for low outlet air dry-bulb temperatures are: This DX coil\n   **   ~~~   **    1) may have a low inlet air dry-bulb temperature. Inlet air temperature = 15.071 C.\n   **   ~~~   **    2) may have a low air flow rate per watt of cooling capacity. Check inputs.\n   **   ~~~   **    3) is used as part of a HX assisted cooling coil which uses a high sensible effectiveness. Check inputs.\n   ** Warning ** CalcDoe2DXCoil: Coil:Cooling:DX:SingleSpeed \"COIL COOLING DX SINGLE SPEED 18 78KBTU/HR 9.7EER\" - Full load outlet air dry-bulb temperature < 2C. This indicates the possibility of coil frost/freeze. Outlet temperature = 1.96 C.\n   **   ~~~   **  ...Occurrence info = RUN PERIOD 1, 04/12 16:00 - 16:15\n   **   ~~~   ** ... Possible reasons for low outlet air dry-bulb temperatures are: This DX coil\n   **   ~~~   **    1) may have a low inlet air dry-bulb temperature. Inlet air temperature = 15.450 C.\n   **   ~~~   **    2) may have a low air flow rate per watt of cooling capacity. Check inputs.\n   **   ~~~   **    3) is used as part of a HX assisted cooling coil which uses a high sensible effectiveness. Check inputs.\n   ************* Simulation Error Summary *************\n   ************* There are 9 unused schedules in input.\n   ************* There are 9 unused week schedules in input.\n   ************* There are 35 unused day schedules in input.\n   ************* Use Output:Diagnostics,DisplayUnusedSchedules; to see them.\n   *************\n   ************* ===== Recurring Error Summary =====\n   ************* The following recurring error messages occurred.\n   *************\n   *************  ** Warning ** Plant loop falling below lower temperature limit, PlantLoop=\"MAIN SERVICE WATER LOOP\"\n   *************  **   ~~~   **   This error occurred 37 total times;\n   *************  **   ~~~   **   during Warmup 4 times;\n   *************  **   ~~~   **   during Sizing 0 times.\n   *************  **   ~~~   **   Min=0.\n   *************\n   *************  ** Warning ** CalcDoe2DXCoil: Coil:Cooling:DX:SingleSpeed=\"COIL COOLING DX SINGLE SPEED 16 55KBTU/HR 14.0SEER\" - Low condenser dry-bulb temperature error continues...\n   *************  **   ~~~   **   This error occurred 885 total times;\n   *************  **   ~~~   **   during Warmup 0 times;\n   *************  **   ~~~   **   during Sizing 0 times.\n   *************  **   ~~~   **   Max=-2.500000E-002 [C]  Min=-36.825 [C]\n   *************\n   *************  ** Warning ** CalcDoe2DXCoil: Coil:Cooling:DX:SingleSpeed=\"COIL COOLING DX SINGLE SPEED 16 55KBTU/HR 14.0SEER\" - Full load outlet temperature indicates a possibility of frost/freeze error continues. Outlet air temperature statistics follow:\n   *************  **   ~~~   **   This error occurred 14 total times;\n   *************  **   ~~~   **   during Warmup 0 times;\n   *************  **   ~~~   **   during Sizing 0 times.\n   *************  **   ~~~   **   Max=1.929256  Min=0.212767\n   *************\n   *************  ** Warning ** CalcDoe2DXCoil: Coil:Cooling:DX:SingleSpeed=\"COIL COOLING DX SINGLE SPEED 13 58KBTU/HR 14.0SEER\" - Low condenser dry-bulb temperature error continues...\n   *************  **   ~~~   **   This error occurred 584 total times;\n   *************  **   ~~~   **   during Warmup 0 times;\n   *************  **   ~~~   **   during Sizing 0 times.\n   *************  **   ~~~   **   Max=-2.500000E-002 [C]  Min=-37.2 [C]\n   *************\n   *************  ** Warning ** CalcDoe2DXCoil: Coil:Cooling:DX:SingleSpeed=\"COIL COOLING DX SINGLE SPEED 11 11KBTU/HR 10.1EER\" - Low condenser dry-bulb temperature error continues...\n   *************  **   ~~~   **   This error occurred 4078 total times;\n   *************  **   ~~~   **   during Warmup 0 times;\n   *************  **   ~~~   **   during Sizing 0 times.\n   *************  **   ~~~   **   Max=-2.500000E-002 [C]  Min=-35.275 [C]\n   *************\n   *************  ** Warning ** CalcDoe2DXCoil: Coil:Cooling:DX:SingleSpeed=\"COIL COOLING DX SINGLE SPEED 7 6KBTU/HR 11.0EER\" - Low condenser dry-bulb temperature error continues...\n   *************  **   ~~~   **   This error occurred 8129 total times;\n   *************  **   ~~~   **   during Warmup 0 times;\n   *************  **   ~~~   **   during Sizing 0 times.\n   *************  **   ~~~   **   Max=-2.500000E-002 [C]  Min=-34.45 [C]\n   *************\n   *************  ** Warning ** CalcDoe2DXCoil: Coil:Cooling:DX:SingleSpeed=\"COIL COOLING DX SINGLE SPEED 4 16KBTU/HR 9.3EER\" - Low condenser dry-bulb temperature error continues...\n   *************  **   ~~~   **   This error occurred 2878 total times;\n   *************  **   ~~~   **   during Warmup 0 times;\n   *************  **   ~~~   **   during Sizing 0 times.\n   *************  **   ~~~   **   Max=-2.500000E-002 [C]  Min=-31.4 [C]\n   *************\n   *************  ** Warning ** CalcDoe2DXCoil: Coil:Cooling:DX:SingleSpeed=\"COIL COOLING DX SINGLE SPEED 5 17KBTU/HR 9.3EER\" - Low condenser dry-bulb temperature error continues...\n   *************  **   ~~~   **   This error occurred 2120 total times;\n   *************  **   ~~~   **   during Warmup 0 times;\n   *************  **   ~~~   **   during Sizing 0 times.\n   *************  **   ~~~   **   Max=-2.500000E-002 [C]  Min=-30.675 [C]\n   *************\n   *************  ** Warning ** CalcDoe2DXCoil: Coil:Cooling:DX:SingleSpeed=\"COIL COOLING DX SINGLE SPEED 9 20KBTU/HR 9.3EER\" - Low condenser dry-bulb temperature error continues...\n   *************  **   ~~~   **   This error occurred 1737 total times;\n   *************  **   ~~~   **   during Warmup 0 times;\n   *************  **   ~~~   **   during Sizing 0 times.\n   *************  **   ~~~   **   Max=-2.500000E-002 [C]  Min=-30.25 [C]\n   *************\n   *************  ** Warning ** SimHVAC: Exceeding Maximum iterations for all HVAC loops, during RUN PERIOD 1 continues\n   *************  **   ~~~   **   This error occurred 41 total times;\n   *************  **   ~~~   **   during Warmup 0 times;\n   *************  **   ~~~   **   during Sizing 0 times.\n   *************\n   *************  ** Warning ** CalcDoe2DXCoil: Coil:Cooling:DX:SingleSpeed=\"COIL COOLING DX SINGLE SPEED 17 6KBTU/HR 14.0SEER\" - Low condenser dry-bulb temperature error continues...\n   *************  **   ~~~   **   This error occurred 134 total times;\n   *************  **   ~~~   **   during Warmup 0 times;\n   *************  **   ~~~   **   during Sizing 0 times.\n   *************  **   ~~~   **   Max=-0.3 [C]  Min=-9.75 [C]\n   *************\n   *************  ** Warning ** CalcDoe2DXCoil: Coil:Cooling:DX:SingleSpeed=\"COIL COOLING DX SINGLE SPEED 17 6KBTU/HR 14.0SEER\" - Full load outlet temperature indicates a possibility of frost/freeze error continues. Outlet air temperature statistics follow:\n   *************  **   ~~~   **   This error occurred 148 total times;\n   *************  **   ~~~   **   during Warmup 0 times;\n   *************  **   ~~~   **   during Sizing 0 times.\n   *************  **   ~~~   **   Max=1.996693  Min=-1.627402\n   *************\n   *************  ** Warning ** CalcDoe2DXCoil: Coil:Cooling:DX:SingleSpeed=\"COIL COOLING DX SINGLE SPEED 10 19KBTU/HR 9.3EER\" - Low condenser dry-bulb temperature error continues...\n   *************  **   ~~~   **   This error occurred 750 total times;\n   *************  **   ~~~   **   during Warmup 0 times;\n   *************  **   ~~~   **   during Sizing 0 times.\n   *************  **   ~~~   **   Max=-0.15 [C]  Min=-21.1 [C]\n   *************\n   *************  ** Warning ** CalcDoe2DXCoil: Coil:Cooling:DX:SingleSpeed=\"COIL COOLING DX SINGLE SPEED 6 16KBTU/HR 9.3EER\" - Low condenser dry-bulb temperature error continues...\n   *************  **   ~~~   **   This error occurred 829 total times;\n   *************  **   ~~~   **   during Warmup 0 times;\n   *************  **   ~~~   **   during Sizing 0 times.\n   *************  **   ~~~   **   Max=-2.500000E-002 [C]  Min=-24.025 [C]\n   *************\n   *************  ** Warning ** CalcDoe2DXCoil: Coil:Cooling:DX:SingleSpeed=\"COIL COOLING DX SINGLE SPEED 3 16KBTU/HR 9.3EER\" - Low condenser dry-bulb temperature error continues...\n   *************  **   ~~~   **   This error occurred 1254 total times;\n   *************  **   ~~~   **   during Warmup 0 times;\n   *************  **   ~~~   **   during Sizing 0 times.\n   *************  **   ~~~   **   Max=-2.500000E-002 [C]  Min=-24.75 [C]\n   *************\n   *************  ** Warning ** CalcDoe2DXCoil: Coil:Cooling:DX:SingleSpeed=\"COIL COOLING DX SINGLE SPEED 8 46KBTU/HR 9.3EER\" - Low condenser dry-bulb temperature error continues...\n   *************  **   ~~~   **   This error occurred 161 total times;\n   *************  **   ~~~   **   during Warmup 0 times;\n   *************  **   ~~~   **   during Sizing 0 times.\n   *************  **   ~~~   **   Max=-0.25 [C]  Min=-12.625 [C]\n   *************\n   *************  ** Warning ** CalcDoe2DXCoil: Coil:Cooling:DX:SingleSpeed=\"COIL COOLING DX SINGLE SPEED 2 3KBTU/HR 11.0EER\" - Low condenser dry-bulb temperature error continues...\n   *************  **   ~~~   **   This error occurred 295 total times;\n   *************  **   ~~~   **   during Warmup 0 times;\n   *************  **   ~~~   **   during Sizing 0 times.\n   *************  **   ~~~   **   Max=-2.500000E-002 [C]  Min=-9.725 [C]\n   *************\n   *************  ** Warning ** CalcDoe2DXCoil: Coil:Cooling:DX:SingleSpeed=\"COIL COOLING DX SINGLE SPEED 12 14KBTU/HR 14.0SEER\" - Full load outlet temperature indicates a possibility of frost/freeze error continues. Outlet air temperature statistics follow:\n   *************  **   ~~~   **   This error occurred 178 total times;\n   *************  **   ~~~   **   during Warmup 0 times;\n   *************  **   ~~~   **   during Sizing 0 times.\n   *************  **   ~~~   **   Max=1.989843  Min=-2.659442\n   *************\n   *************  ** Warning ** CalcDoe2DXCoil: Coil:Cooling:DX:SingleSpeed=\"COIL COOLING DX SINGLE SPEED 2 3KBTU/HR 11.0EER\" - Full load outlet temperature indicates a possibility of frost/freeze error continues. Outlet air temperature statistics follow:\n   *************  **   ~~~   **   This error occurred 4 total times;\n   *************  **   ~~~   **   during Warmup 0 times;\n   *************  **   ~~~   **   during Sizing 0 times.\n   *************  **   ~~~   **   Max=1.908753  Min=0.879155\n   *************\n   *************  ** Warning ** CalcDoe2DXCoil: Coil:Cooling:DX:SingleSpeed=\"COIL COOLING DX SINGLE SPEED 18 78KBTU/HR 9.7EER\" - Full load outlet temperature indicates a possibility of frost/freeze error continues. Outlet air temperature statistics follow:\n   *************  **   ~~~   **   This error occurred 16 total times;\n   *************  **   ~~~   **   during Warmup 0 times;\n   *************  **   ~~~   **   during Sizing 0 times.\n   *************  **   ~~~   **   Max=1.956424  Min=-1.036284\n   *************\n   *************\n   ************* ===== Final Error Summary =====\n   ************* The following error categories occurred.  Consider correcting or noting.\n   ************* Nominally Unused Constructions\n   ************* ..The nominally unused constructions warning is provided to alert you to potential conditions that can cause\n   ************* ..extra time during simulation. Each construction is calculated by the algorithm indicated in the HeatBalanceAlgorithm\n   ************* ..object. You may remove the constructions indicated (when you use the DisplayExtraWarnings option).\n   *************\n   ************* EnergyPlus Warmup Error Summary. During Warmup: 0 Warning; 0 Severe Errors.\n   ************* EnergyPlus Sizing Error Summary. During Sizing: 163 Warning; 0 Severe Errors.\n   ************* EnergyPlus Completed Successfully-- 24474 Warning; 0 Severe Errors; Elapsed Time=00hr 04min  9.81sec\n",
   "file_format_version" : "0.0.1",
   "file_paths" : [ "../weather", "../seeds", "../seed" ],
   "hash" : "BEE1427F",
   "measure_paths" : [ "../measures" ],
   "name" : "LHS Autogenerated 654",
   "osa_id" : "4fef0e0f-5396-4c55-a6e1-2cd6803db3ab",
   "osd_id" : "41131d8a-883a-438b-83df-15c0d27d654a",
   "run_directory" : "./run",
   "seed_file" : "seed.osm",
   "started_at" : "20170710T190417Z",
   "steps" : [
      {
         "arguments" : {
            "__SKIP__" : false,
            "building_type" : "LargeHotel",
            "climate_zone" : "NECB HDD Method",
            "epw_file" : "CAN_AB_Fort.McMurray.719320_CWEC.epw",
            "template" : "NECB 2011"
         },
         "measure_dir_name" : "create_prototype_building",
         "name" : "create_prototype_building",
         "result" : {
            "completed_at" : "20170710T190611Z",
            "measure_class_name" : "CreatePrototypeBuilding",
            "measure_display_name" : "Create Prototype Building",
            "measure_name" : "create_prototype_building",
            "measure_taxonomy" : "Whole Building.Space Types",
            "measure_type" : "ModelMeasure",
            "measure_uid" : "ae90fsd7-a651-467a-bc8d-29d310b0f937",
            "measure_version_id" : "c6ec5c18-5595-459f-a082-09a19c8c869c",
            "measure_version_modified" : "20170519T182315Z",
            "measure_xml_checksum" : "057E8D9D",
            "started_at" : "20170710T190419Z",
            "stderr" : "",
[...]
ryi2WVnVVlgvJ6rJSZ3pUXnzMsZzOqwuP2lVOVbUq06086+dOvquWev7ndT2FOZ4+Vb/+9k79+81vb9Xpm7fvfvrlB/Xzmx9+OlY/nrw9KSfwKlu19a1nWjSVRiqJ4lRNZldZHYxUHmmSKC8ZZc1LMBmXUFxee6PzYGf2Ouq8/OIS63QWT9TUixP9Koy8tO2ZJX8nu5UPHjvPHyt1Mde3aA9sFy9hnfDnzSa93Pef+XTPJ3v7ia8vvFmYqmkcZWuYftJRT745ODg+Pjl5suHgGeIQhzjEIQ5xiEMc4hCHOMT5c+KoZHaV/Sew8rV5UPnenSGKtU8a0pCGNKQhDWlIQxrSkIY0pCmmuck/mvUHmvNwpolDHOIQhzjEIQ5xiEMc4hCHOHVw7n830DG/G3g6k343sO/k77A9f763d3hIUpKSlKQkJSlJSUpSkpKUpCQlKUm3g9TNSb1UIu3lpP2+6x4MSUpSkpKUpCQlKUlJSlKSkpSkJCXpdpD2DemrOBBI3cOc1HH29/t9kpKUpCQlKUlJSlKSkpSkJCUpSUm6HaR7hvTd5UwiPchJD7Nj8IKkJCUpSUlKUpKSlKQkJSlJSUpSkm4H6cCQ/kv7Eul+Tvry5fHx/j5JSUpSkpKUpCQlKUlJSlKSkpSkJN0O0mH+l4mZlkiHOenx8XBIUpKSlKQkJSlJSUpSkpKUpCQlKUm3hXTfkL6OpGRBd5CTHhy47mBAUpKSlKQkJSlJSUpSkpKUpCQlKUkbI12i+LF3014rdttNgzTUp5feVHdTfZu2n/wYzeJkPcbdl2e+DK70JAmiSaiTXGGNxNOn6rnvK0/lSuomSC9VEl1p5ffXnJlcj7vedKonfrtlvFs7a05YHl0vTeN267bVUcNexZPuspPc8icl6V2o53i73mR0GcXZ+a1QX1SgXWhcRJN090YH48vUaJxHoV9eY35vTqe7L7xEZzcoVad3ye6eehXGu311OrrcPVE//hqOrtLdSRRnt+A/v6hfTo5fmKel+krtqV9P/6PejEbmuU92im7q90+TURxM03+Iz/n+qR9cf31YPEcWy7RU4B+1Rqbij7OL5AUTHZ85Tq+l8kt31PKDZBp6d8+CSZiN7Z6H0ejTdy0ZMFOdvwaV3k2z883Ve/rRu/bmjxaeaY5rLzbVqY6UH1xNQ92d6JvT63G79c1XIDtqr9fL/2ftdDO6vpd6mfD731uhd67D1rOWry+8WZiqaRxdBKFudeYjZ7etZ06312lde+FML/49MqtSdk620Bwfn5y0PndK6bggnT5IZw+kMwDpDEE6+yCdA5DOIUjH6aGEUBXtoEraQdW0gypqB1XVDqqsHVRdO6jCdlCV7aIq24Wt1ajKdlGV7VaqbJXMrq5Wfqa61I4Wa7+CjHiNqsmIV6iajHh9qsmI876ajDjrq8mIc76ajDjjq8mI872ajLyRVdQB1bG8jVXUAVWyvIlV1AHVsryFVdQBVbO8gVXUAdWzvH1V1EGty6B6lveuijrl6/kmmKTVt61z81B5HfHyVNQRL09FHfHyVNQRp3tFHXG6V9QRp3tFHXG6V9QRp3tFHXn/qiqEqmh5B6sqhKppeQ+rKoSqankXqyqEqmt5H6sqhKpseSerKgRbq1GVLW9mVYXKV/b9+xZrf1dY2uZ6K/+hN//hYYCFu3mL/uYt9jZvMdi8xXDzFvubtzjYvMXh5i1WdvZNeTQwv50GJrjTwAx3GpjiTgNz3GlgkjsNzHKngWnuNDDP3QbmudvEPt7APHcbmOduvXm+9ucby7VV8993BFjIdwNmId8MmIV8L2AW8pILs5BXXJiFvODCLOT1FmYhL7cwi4J3rnEe8lt/OA/5XUGch/yGIc6jgSle0FbhPBqY5AVtFc6jgWle0Fbh9j+5rcJ5NLGPN7CRF7RVOI9683ztr2SVa6vmP6MFsJDvBsxCvhkwC/lewCzkJRdmIa+4MAt5wYVZyOstzEL+bBTMoqCtwnnIbRXOQ26rcB5yW4XzkD+ihfOQP5eI85A/sojzkD/NiPOQP+iI82hgnhe0VTiPJvbxBjbygrYK51FvK1/7YyTl2qr5r5UALOS7AbOQbwbMQr4XMAu5rYJZyG0VzEJuq2AWclsFs5CXW5hFQVuF85DbKpyH3FbhPOS2Cucht1U4D7mtwnnIbRXOQ26rcB5yW4XzaGCeF7RVOI8m9vEGNvKCtgrnUW8rX5v5Xq6tmofCAyzkuwGzkG8GzEK+FzALua2CWchtFcxCbqtgFnJbBbOQl1uYRUFbhfOQ2yqch9xW4TzktgrnIbdVOA+5rcJ5yG0VzkNuq3AecluF82hgnhe0VTiPJvbxBjbygrYK51FvK18brVuurZpn7wIs5LsBs5BvBsxCvhcwC7mtglnIbRXMQm6rYBZyWwWzkJdbmEVBW4XzkNsqnIfcVuE85LYK5yG3VTgPua3CechtFc5DbqtwHnJbhfNoYJ4XtFU4jyb28QY28oK2CudRbytfm2BYrq2aRxwCLOS7AbOQbwbMQr4XMAu5rYJZyG0VzEJuq2AWclsFsyjKnQJZFIatoTyK0qpQHkVBViiPoowrlEdR/BXKoyjzDeVRFAeH8ihKikN5FIXIoTwamOcFbRXOo4l9vIGNvKCtwnms38o/lEl4XYQ3qyM10TfLBNk8OLadXI87eQLs2qjYZQJ0otMX0WziJ+1Br6McZ9BRffMvd1AubvY2w7gPtvb9Yy/V4yi+e34bJPME5fvXXyJmOhN4E/s6fjszgcalTzQcd6scr7WXzGI9xzCZzIvrvuGIbw5zmMMc5jCHOcxhDnOYwxzmMIc5zGEOc5jDHOYwhznMYQ5zmMMc5jCHOcxhDnOYwxzmMIc5zGEOc5jDHOYwhznMYQ5zmMMc5jCHOcxhDv+phu+60bWO48DXrz3zxVqn27P8vqr5amyy+tXYUx0HOll8vbbVWX6BeBpGaTcMJnrtV2STr31Pd/03a5Nu/tPz0yj00iCaZFCtJNXT3XN9EcW6Ve6bzz/rsZ74qy9o/lh72Ouovvnmcs98kdn8TyvUF6kBWyO9lO2ejXV6MknN9cksLmaTUU7a3lG/r5FYEur7s9+v/S63OYIL1U4vg6Sb5HelnJE5HpzUza7fiTe6bP8XuKraEt98dTxjX+ieTaMkMIIvs4fLvJrlYWS+QhVHN9WQlljBxNdmPuw6nYpnL4+PdU+8CHRo6q29uKbzeTKOo9lU++rbb9XfFo/fds8uvWTx/XczwXYejt59dTS7IF1vPH5lPLqhnozTS/W9ctU/Vet5GLbUs9VnJGEw0u1dZ+d978PO2vn2xSuJYtX+mL2U3nfqY2azKNWFr3ns79mKU/0GmcOU8ULv/ccP3U/6Th0dHc0vXj3FXHVx2z9WfanL4zzW3qc6J3+ueE7V55vrtXh1R6asTTEsKiUPcuieeUkSjCfaPzYREcn7/Ep+qHcplzd6Oksu23XvRXZLn83vZ/2ZFIbPyrzKrnlmXZckjaNPupzP/Ll1naKpNwrSu3JWiyfXflW5xdKqrspyIVldVupMj8qLjzmW03l14VG7yqmqVmW6lWf93Ml31VLP/7yupzDH06fq19/eqX+/+e2tOn3z9t1Pv/ygfn7zw0/H6seTtyflBF5lq7a+9UyLptJIJVGcqsnsKquDkcojTRLlJaOseQkm4xKKy2tvdB7szF5HnZdfXGKdzuKJmnpxol+FkZe2PbPk72S38sFj5/ljpS7m+hbtge3iJawT/rzZpJf7/jOf7vlkbz/x9YU3C1M1jaNsDdNPOurJNwcHx8cnJ082HDxDHOIQhzjEIQ5xiEMc4hCHOH9OHJXMrrL/BFa+Ng8q37szRLH2SUMa0pCGNKQhDWlIQxrSkIY0xTQ3+Uez/kBzHs40cYhDHOIQhzjEIQ5xiEMc4hCnDs797wY65ncDT2fS7wb2nfwdtufP9/YOD0lKUpKSlKQkJSlJSUpSkpKUpCQl6XaQujmpl0qkvZy033fdgyFJSUpSkpKUpCQlKUlJSlKSkpSkJN0O0r4hfRUHAql7mJM6zv5+v09SkpKUpCQlKUlJSlKSkpSkJCUpSbeDdM+QvrucSaQHOelhdgxekJSkJCUpSUlKUpKSlKQkJSlJSUrS7SAdGNJ/aV8i3c9JX748Pt7fJylJSUpSkpKUpCQlKUlJSlKSkpSk20E6zP8yMdMS6TAnPT4eDklKUpKSlKQkJSlJSUpSkpKUpCQl6baQ7hvS15GULOgOctKDA9cdDEhKUpKSlKQkJSlJSUpSkpKUpCQlaWOkSxQ/9m7aa8Vuu2mQhvr00pvqbqpv0/aTH6NZnKzHuPvyzJfBlZ4kQTQJdZIrrJF4+lQ9933lqVxJ3QTppUqiK638/pozk+tx15tO9cRvt4x3a2fNCcuj66Vp3G7dtjpq2Kt40l12klv+pCS9C/Ucb9ebjC6jODu/FeqLCrQLjYtoku7e6GB8mRqN8yj0y2vM783pdPc4iuPAj+KzV2F8NlSnd8luX2X/3t1Tp6PL3RP146/h6CrdTaJZdiP+84v65eT4hXlaqq9UX/16+h/1ZjQyz32yU3Rrv3+ajOJgmv5DfM73T/3g+uvD4jmyWKalAv+oNTJ1f5xdKi+Y6PjMcZyWyi/gUcsPkmno3T0LJmE2tnseRqNP37VkwEx1/hpUejfNzjfX8OlH79qbP1p4pjmuvdjUqDpSfnA1DXV3om9Or8ft1jdfgeyovV4v/5+1k87o+l7qZcLvf2+F3rkOW89avr7wZmGqpnF0EYS61ZmPnN22njndXqd17YUzvfj3yKxN2TnZcnN8fHLS+twppeOCdPognT2QzgCkMwTp7IN0DkA6hyAdp4cSQlW0gyppB1XTDqqoHVRVO6iydlB17aAK20FVtouqbBe2VqMq20VVtlupslUyu7pa+bHqUjtarP0KMuI1qiYjXqFqMuL1qSYjzvtqMuKsryYjzvlqMuKMryYjzvdqMvJGVlEHVMfyNlZRB1TJ8iZWUQdUy/IWVlEHVM3yBlZRB1TP8vZVUQe1LoPqWd67KuqUr+ebYJJW37bOzUPldcTLU1FHvDwVdcTLU1FHnO4VdcTpXlFHnO4VdcTpXlFHnO4VdeT9q6oQqqLlHayqEKqm5T2sqhCqquVdrKoQqq7lfayqEKqy5Z2sqhBsrUZVtryZVRUqX9n3716s/XVhaZvrrfyH3vznhwEW8n/dwiz6m38Ve5u3GGzeYrh5i/3NWxxs3uJw8xYrO/umPBqY3wV/mMV5yH/ZwnnIf/TCech/6cV5yH8ExnnIfx/Gech/OsZ5yH9Vxu1/8h+ccR7y36JxHg3M84K/YOM86m3la3/EsdzbuPNfeQRYyHcDZiG3VTAL+V7ALOS2CmYht1UwC7mtglnIbRXMQm6rYBYFbRXOo4H5XdBW4Tzk5RbnIbdVOA+5rcJ5yG0VzkNuq3AecluF85DbKtz+J7dVOI8m9vEG5nlBW4XzqDfP1/5WVrm2av5jWgALV9w9YBZyWwWzkNsqmIXcVsEs5LYKZiG3VTALua2CWchtFcyioK3CeTQwvwvaKpyHvNziPOTlFucht1U4D7mtwnnIbRXOQ26rcB5yW4Xb/+S2CufRxD7ewDwvaKtwHvXm+dqfJCnXVs1/swRgIbdVMAu5rYJZyG0VzEJuq2AWclsFs5DbKpiF3FbBLOS2CmZR0FbhPBqY3wVtFc5DXm5xHvJyi/OQ2yqch9xW4TzktgrnIbdVOA+5rcLtf3JbhfNoYh9vYJ4XtFU4j3rzfG3ye7m2ah4ND7CQ2yqYhdxWwSzktgpmIbdVMAu5rYJZyG0VzEJuq2AWclsFsyhoq3AeDczvgrYK5yEvtzgPebnFechtFc5DbqtwHnJbhfOQ2yqch9xW4fY/ua3CeTSxjzcwzwvaKpxHvXm+NmC3XFs1T+AFWMhtFcxCbqtgFnJbBbOQ2yqYhdxWwSzktgpmIbdVMAu5rYJZFLRVOI8G5ndBW4XzkJdbnIe83OI85LYK5yG3VTgPua3CechtFc5Dbqtw+5/cVuE8mtjHG5jnBW0VzqPePF+bY1iurZoHHQIs5LYKZiG3VTALua2CWchtFcxCbqtgFnJbBbOQ2yqYhdxWwSwK2iqcRwPzuzCiDeVRlHGF8iiKv0J5FGW+oTyK4uBQHkVJcSiPohA5lEdRvhxq/yuKnkN5NLGPNzDPC7PsUB7r5/mHMgmviwhndaQm+maZIJsHx7aT63EnT4BdGxW7zIFOdPoimk38pD3odZTjDDqqb/7lDsrFzd5mGPfx1r5/7KV6HMV3z2+DZJ6jfP/6S4RNZwJvYl/Hb2cm1rj0iYbjbpXjtfaSWaznGCaZeXHdNxz0zWEOc5jDHOYwhznMYQ5zmMMc5jCHOcxhDnOYwxzmMIc5zGEOc5jDHOYwhznMYQ5zmMMc5jCHOcxhDnOYwxzmMIc5zGEOc5jDHOYwhznM4T/V8F03utZxHPj6tWe+WOt0e5bfVzVfjU1Wvxp7quNAJ4uv17Y6yy8QT8Mo7YbBRK/9imzyte/prv9mbdLNf3p+GoVeGkSTDKqVpHq6e64voli3yn3z+Wc91hN/9QXNH2sPex3VN99c7pkvMpv/aYX6IjVga6SXst2zsU5PJqm5PpnFxWwyyknbO+r3NRJLQn1/9vu13+U2R3Ch2ullkHST/K6UMzLHg5O62fU78UaX7f8CV1Vb4puvjmfsC92zaZQERvBl9nCZV7M8jMxXqOLophrSEiuY+NrMh12nU/Hs5fGx7okXgQ5NvbUX13Q+T8ZxNJtqX337rfrb4vHb7tmllyy+/24m2M7D0buvjmYXpOuNx6+MRzfUk3F6qb5Xrvqnaj0Pw5Z6tvqMJAxGur3r7LzvfdhZO9++eCVRrNofs5fS+059zGwWpbrwNY/9PVtxqt8gc5gyXui9//ih+0nfqaOjo/nFq6eYqy5u+8eqL3V5nMfa+1Tn5M8Vz6n6fHO9Fq/uyJS1KYZFpeRBDt0zL0mC8UT7xyYiInmfX8kP9S7l8kZPZ8llu+69yG7ps/n9rD+TwvBZmVfZNc+s65KkcfRJl/OZP7euUzT1RkF6V85q8eTaryq3WFrVVVkuJKvLSp3pUXnxMcdyOq8uPGpXOVXVqky38qyfO/muWur5n9f1FOZ4+lT9+ts79e83v71Vp2/evvvplx/Uz29++OlY/Xjy9qScwKts1da3nmnRVBqpJIpTNZldZXUwUnmkSaK8ZJQ1L8FkXEJxee2NzoOd2euo8/KLS6zTWTxRUy9O9Ksw8tK2Z5b8nexWPnjsPH+s1MVc36I9sF28hHXCnzeb9HLff+bTPZ/s7Se+vvBmYaqmcZStYfpJRz355uDg+Pjk5MmGg2eIQxziEIc4xCEOcYhDHOIQ58+Jo5LZVfafwMrX5kHle3eGKNY+aUhDGtKQhjSkIQ1pSEMa0pCmmOYm/2jWH2jOw5kmDnGIQxziEIc4xCEOcYhDHOLUwbn/3UDH/G7g6Uz63cC+k7/D9vz53t7hIUlJSlKSkpSkJCUpSUlKUpKSlKQk3Q5SNyf1Uom0l5P2+657MCQpSUlKUpKSlKQkJSlJSUpSkpKUpNtB2jekr+JAIHUPc1LH2d/v90lKUpKSlKQkJSlJSUpSkpKUpCQl6XaQ7hnSd5czifQgJz3MjsELkpKUpCQlKUlJSlKSkpSkJCUpSUm6HaQDQ/ov7Uuk+znpy5fHx/v7JCUpSUlKUpKSlKQkJSlJSUpSkpJ0O0iH+V8mZloiHeakx8fDIUlJSlKSkpSkJCUpSUlKUpKSlKQk3RbSfUP6OpKSBd1BTnpw4LqDAUlJSlKSkpSkJCUpSUlKUpKSlKQkbYx0ieLH3k17rdhtNw3SUJ9eelPdTfVt2n7yYzSLk/UYd1+e+TK40pMkiCahTnKFNRJPn6rnvq88lSupmyC9VEl0pZXfX3Nmcj3uetOpnvjtlvFu7aw5YXl0vTSN263bVkcNexVPustOcsuflKR3oZ7j7XqT0WUUZ+e3Qn1RgXahcRFN0t0bHYwvU6NxHoV+eY35vTmd7r4MJsFkfPYqjM+G6vQu2e2r7N+7e+p0dLn7Qv34azi6SncnUZzdhv/8on45OX5hnpbqK9VXv57+R70Zjcxzn+wU3djvnyajOJim/xCf8/1TP7j++rB4jiyWaanAP2qNTNUfZxfKCyY6PnMct6Xyy3fU8oNkGnp3z4JJmI3tnofR6NN3LRkwU52/BpXeTbPzzRV8+tG79uaPFp5pjmsvNhWqjpQfXE1D3Z3om9Prcbv1zVcgO2qv18v/Z+2UM7q+l3qZ8PvfW6F3rsPWs5avL7xZmKppHF0EoW515iNnt61nTrfXaV174Uwv/j0yK1N2TrbYHB+fnLQ+d0rpuCCdPkhnD6QzAOkMQTr7IJ0DkM4hSMfpoYRQFe2gStpB1bSDKmoHVdUOqqwdVF07qMJ2UJXtoirbha3VqMp2UZXtVqpslcyurlZ+qrrUjhZrv4KMeI2qyYhXqJqMeH2qyYjzvpqMOOuryYhzvpqMOOOryYjzvZqMvJFV1AHVsbyNVdQBVbK8iVXUAdWyvIVV1AFVs7yBVdQB1bO8fVXUQa3LoHqW966KOuXr+SaYpNW3rXPzUHkd8fJU1BEvT0Ud8fJU1BGne0UdcbpX1BGne0UdcbpX1BGne0Udef+qKoSqaHkHqyqEqml5D6sqhKpqeRerKoSqa3kfqyqEqmx5J6sqBFurUZUtb2ZVhcpX9v17F2t/W1ja5nor/6E3//FhgIX8X7cwi/7mX8Xe5i0Gm7cYbt5if/MWB5u3ONy8xcrOvimPBuZ3wR9mcR7yX7ZwHvIfvXAe8l96cR7yH4FxHvLfh3Ee8p+OcR7yX5Vx+5/8B2ech/y3aJxHA/O84C/YOI96W/nan3As9zbu/DceARby3YBZyG0VzEK+FzALua2CWchtFcxCbqtgFnJbBbOQ2yqYRUFbhfNoYH4XtFU4D3m5xXnIbRXOQ26rcB5yW4XzkNsqnIfcVuE85LYKt//JbRXOo4l9vIF5XtBW4TzqzfO1v5RVrq2a/5QWwMIVdw+YhdxWwSzktgpmIbdVMAu5rYJZyG0VzEJuq2AWclsFsyhoq3AeDczvgrYK5yEvtzgPebnFechtFc5DbqtwHnJbhfOQ2yqch9xW4fY/ua3CeTSxjzcwzwvaKpxHvXm+9gdJyrVV818sAVjIbRXMQm6rYBZyWwWzkNsqmIXcVsEs5LYKZiG3VTALua2CWRS0VTiPBuZ3QVuF85CXW5yHvNziPOS2Cucht1U4D7mtwnnIbRXOQ26rcPuf3FbhPJrYxxuY5wVtFc6j3jxfm/terq2aB8MDLOS2CmYht1UwC7mtglnIbRXMQm6rYBZyWwWzkNsqmIXcVsEsCtoqnEcD87ugrcJ5yMstzkNebnEecluF85DbKpyH3FbhPOS2Cucht1W4/U9uq3AeTezjDczzgrYK51Fvnq+N1y3XVs3zdwEWclsFs5DbKpiF3FbBLOS2CmYht1UwC7mtglnIbRXMQm6rYBYFbRXOo4H5XdBW4Tzk5RbnIS+3OA+5rcJ5yG0VzkNuq3AecluF85DbKtz+J7dVOI8m9vEG5nlBW4XzqDfP16YYlmur5jGHAAu5rYJZyG0VzEJuq2AWclsFs5DbKpiF3FbBLOS2CmYht1Uwi4K2CufRwPwujGhDeRRlXKE8iuKvUB5FmW8oj6I4OJRHUVIcyqMoRA7lUZQvh9r/iqLnUB5N7OMNzPPCLDuUx/p5/qFMwusiwFkdqYm+WSbI5sGx7eR63MkTYNdGxS5ToBOdvohmEz9pD3od5TiDjuqbf7mDcnGztxnGfbi17x97qR5H8d3z2yCZpyjfv/4SUdOZwJvY1/HbmQk1Ln2i4bhb5XitvWQW6zmGyWVeXPcNx3xzmMMc5jCHOcxhDnOYwxzmMIc5zGEOc5jDHOYwhznMYQ5zmMMc5jCHOcxhDnOYwxzmMIc5zGEOc5jDHOYwhznMYQ5zmMMc5jCHOcxhDnP4TzV8142udRwHvn7tmS/WOt2e5fdVzVdjk9Wvxp7qONDJ4uu1rc7yC8TTMEq7YTDRa78im3zte7rrv1mbdPOfnp9GoZcG0SSDaiWpnu6e64so1q1y33z+WY/1xF99QfPH2sNeR/XNN5d75ovM5n9aob5IDdga6aVs92ys05NJaq5PZnExm4xy0vaO+n2NxJJQ35/9fu13uc0RXKh2ehkk3SS/K+WMzPHgpG52/U680WX7v8BV1Zb45qvjGftC92waJYERfJk9XObVLA8j8xWqOLqphrTECia+NvNh1+lUPHt5fKx74kWgQ1Nv7cU1nc+TcRzNptpX336r/rZ4/LZ7dukli++/mwm283D07quj2QXpeuPxK+PRDfVknF6q75Wr/qlaz8OwpZ6tPiMJg5Fu7zo773sfdtbOty9eSRSr9sfspfS+Ux8zm0WpLnzNY3/PVpzqN8gcpowXeu8/fuh+0nfq6OhofvHqKeaqi9v+sepLXR7nsfY+1Tn5c8Vzqj7fXK/FqzsyZW2KYVEpeZBD98xLkmA80f6xiYhI3udX8kO9S7m80dNZctmuey+yW/psfj/rz6QwfFbmVXbNM+u6JGkcfdLlfObPresUTb1RkN6Vs1o8ufaryi2WVnVVlgvJ6rJSZ3pUXnzMsZzOqwuP2lVOVbUq06086+dOvquWev7ndT2FOZ4+Vb/+9k79+81vb9Xpm7fvfvrlB/Xzmx9+OlY/nrw9KSfwKlu19a1nWjSVRiqJ4lRNZldZHYxUHmmSKC8ZZc1LMBmXUFxee6PzYGf2Ouq8/OIS63QWT9TUixP9Koy8tO2ZJX8nu5UPHjvPHyt1Mde3aA9sFy9hnfDnzSa93Pef+XTPJ3v7ia8vvFmYqmkcZWuYftJRT745ODg+Pjl5suHgGeIQhzjEIQ5xiEMc4hCHOMT5c+KoZHaV/Sew8rV5UPnenSGKtU8a0pCGNKQhDWlIQxrSkIY0pCmmuck/mvUHmvNwpolDHOIQhzjEIQ5xiEMc4hCHOHVw7n830DG/G3g6k343sO/k77A9f763d3hIUpKSlKQkJSlJSUpSkpKUpCQlKUm3g9TNSb1UIu3lpP2+6x4MSUpSkpKUpCQlKUlJSlKSkpSkJCXpdpD2DemrOBBI3cOc1HH29/t9kpKUpCQlKUlJSlKSkpSkJCUpSUm6HaR7hvTd5UwiPchJD7Nj8IKkJCUpSUlKUpKSlKQkJSlJSUpSkm4H6cCQ/kv7Eul+Tvry5fHx/j5JSUpSkpKUpCQlKUlJSlKSkpSkJN0O0mH+l4mZlkiHOenx8XBIUpKSlKQkJSlJSUpSkpKUpCQlKUm3hXTfkL6OpGRBd5CTHhy47mBAUpKSlKQkJSlJSUpSkpKUpCQlKUkbI12i+LF3014rdttNgzTUp5feVHdTfZu2n/wYzeJkPcbdl2e+DK70JAmiSaiTXGGNxNOn6rnvK0/lSuomSC9VEl1p5ffXnJlcj7vedKonfrtlvFs7a05YHl0vTeN267bVUcNexZPuspPc8icl6V2o53i73mR0GcXZ+a1QX1SgXWhcRJN090YH48vUaJxHoV9eY35vTqe7/1+Qji715OxVGJ8N1eldsttX2b9399Tp6HL3hfrx13B0le5qL0nVf35Rv5wcvzDPSvWV6qtfT/+j3oxG5qlPdopu7PdPk1EcTNN/iM/5/qkfXH99WDxHFsu0VOAftUam6o+zC+UFEx2fOU6/pfLLd9Tyg2QaenfPgkmYje2eh9Ho03ctGTBTnb8Gld5Ns/PNFXz60bv25o8WnmmOay82FaqOlB9cTUPdneib0+txu/XNVyA7aq/Xy/9n7ZQzur6Xepnw+99boXeuw9azlq8vvFmYqmkcXQShbnXmI2e3rWdOt9dpXXvhTLeeDQbd/uGDoz/otEZmocoksrXn+PjkpPW5U0rW3YxsfzOye5uRHWxGdrgZ2f3NyB5sRvZwM7JOb0O6G5pnzoYmmrOhmeZsaKo5G5przoYmm7Oh2eZsaLo5G5pv7obmm7upfW1D883d0HxzbeabSmZXVys/CV6nc4i1X0G17PWtplr26lZTLXttq6mWXcmqqZZdx6qpll3FqqmWXcOqqZZdwaqplm4YKspuZnaVbhcqym5mfpVuFirKbmaGlW4VKspuZo6VbhQqym5mlpVuEyrKbmgP28wsK90jVJStPctugklq3R6cm2eUly17aSvKlr20FWXLXtqKsmUXsIqyZRewirJlF7CKsmUXsIqyZRewirKl+4SquhuaZ6U7haq6G5pppXuFqrobmmulu4WquhuabaX7haq6G5pvpTuGqrqb2tc2NN9KNw1VdavNtw9l3rhYvC+pjtRE3yzfGMnfD2kn1+NO/sbG2ndAlm9uJjp9Ec0mftIe9DrKcQYd1Tf/cgfl3kW5zTDu37P1/WMv1eMovnt+GyTzNwfvr0WJd1AzgTexr+O3M/NeXekTDcfdKsdr7SWzWM8xzNuNi3tg+55w/obUqtWpjgOdLHAzp8UNmYZR2jXvkq21TL72uteTJt288KZR6KVBNMmgWkmqp7vn+iKKdatcJf2sx3rir76g+WPtYVYFfVMJ5k01x/zP4i3Xte9GL2W7Z2OdnkxSc30yi4vZZJSTtnfU7yXeczWE+v7s92vnhjmCC9VOL4Mkq2tzXjkjczw4qZtdvxNvdNn+L3BVtSX+4j3Ghe7ZNEoCI/gye7jMq1keRuYrVHF0Uw1piRVMfG0m7q7TqXj28vhY98SLQIem3tqLazqfJ+M4mk21r779Vv1t8fht9+zSSxbriZlgOw9H7746ml2QrjcevzIe3VBPxuml+l656p+q9TwMW+rZ6jOSMBjp9q6z8773YWftfPvilUSxan/MXkrvO/Uxs1mU6sLXPPb3I+VUv0HmMGW80Hv/8UP3k86Wt6Oj+cWrp5irLm77x6ovdXmcx9r7VOfkzxXPqfp8c70Wr+7IlLUphkWl5Btj92z+eSLt558oSt7nV/JDvUu5vNHTWXLZrnsvslv6bH4/68+kMHxW5lV2zTPruiRpHH3S5Xzmz63rFE29UZDelbNaPLn2q8otllZ1VZYLyeqyUmd6VF58zLGczqsLj9pVTlW1KtOtPOvnTr6rlnr+53U9hTmePlW//vZO/fvNb2/V6Zu373765Qf185sffjpWP568PSkn8CpbtfWtZ1o0lUYqibJGejK7yupgpPIWMVFeMsqal2AyLqG4vPZG58HO7HXUefnFJdbpLJ6oqRcn+lUYeWnbM0v+TnYrHzx2nj9W6mKub9Ee2C5ewjrhz/+Dz33+4R3bxYc7zRuw/5OPoRKHOMQhDnGIQxziEIc4xCHO1uN8+ckXQxRrnzSkIQ1pSEMa0pCGNKQhDWlIU0zzxWcCDY35iB9xiEMc4hCHOMQhDnGIQxziEOd/mLb4Tl9Ndeyls1ir9qsd5i0+rrzF2XQa3qnnQazMjdqSzMS9bchM3GssMzH/d91wJpBOH6SzB9IZgHSGIJ19kM4BSOcQpLOSKWAlhKpoB1XSDqqmHVRRO6iqdlBl7aDq2kEVtoOqbBdV2S5srUZVtouqbLdSZZfP8luRqh/eZyEjXqH68XwWMuK8rx/AZyEjzvn6EXsWMuJ8twjRs9EB1bG8jVnk4tnogEpZ3sMsou5sdEDVLG9gFul1NusgqJ7l3csikM5GB1TP8tZVP2NuRcYiVM5GR7w8FrFxNjridLcIhrPREae7RfSbjY443W3C3ayEUBUt72A2eW1WQqiiljcxmwg2KyFUXcv7mE2qmtXKiKpseSuzCUqzEkJVtrybfSF0/3tPjvm9p9OZ9HtPfafc3xufP9/bOzwEWMj/dQuzkP+7F2Yh/xcxzEL+KxDMQv77EMxC/ssRzEL+mxLMQv5rE8yi4E+sOI8G5nfBH2ZxHg3M8II/5+I8GpjjBX8Exnk0MMsL/nSM82hgnhf8wRnn0cQ+3sA8L/gLNs6j3jx3cw8vlTx65dqqft91D4YAC/luwCzkmwGzkO8FzEJecmEW8ooLs5AXXJiFvN7CLOTlFmZR0FbhPBqY3wVtFc6jgRle0FbhPBqY4wVtFc6jgVle0FbhPBqY5wVtFc6jiX28gXle0FbhPOrN877xeBUH0q+TH5Zrqxxnf7/fB1jIdwNmId8MmIV8L2AW8pILs5BXXJiFvODCLOT1FmYhL7cwi4K2CufRwPwuaKtwHg3M8IK2CufRwBwvaKtwHg3M8oK2CufRwDwvaKtwHk3s4w3M84K2CudRb57vGY93lzPJ46BcW2V+cWnwAmAh3w2YhXwzYBbyvYBZyEsuzEJecWEW8oILs5DXW5iFvNzCLAraKpxHA/O7oK3CeTQwwwvaKpxHA3O8oK3CeTQwywvaKpxHA/O8oK3CeTSxjzcwzwvaKpxHvXk+MB7/0r7ksV+urXr58vh4fx9gId8NmIV8M2AW8r2AWchLLsxCXnFhFvKCC7OQ11uYhbzcwiwK2iqcRwPzu6Ctwnk0MMML2iqcRwNzvKCtwnk0MMsL2iqcRwPzvKCtwnk0sY83MM8L2iqcR715Psxbt5mWPIbl2qrj4+EQYiHfDZiFfDNgFvK9gFnISy7MQl5xYRbygguzkNdbmIW83MIsCtoqnEcD87ugrcJ5NDDDC9oqnEcDc7ygrcJ5NDDLC9oqnEcD87ygrcJ5NLGPNzDPC9oqnEe9eb5vPF5H0sfi3UG5turgwHUHA4BFUc4NyKIoAQdkUZSNA7IoyoMCWRQlRYEsijKkQBZF6VIgi6LcKZBFYdgayqOB+V0Y0YbyaGCGFwa7oTwamOOFcXAojwZmeWGIHMqjgXleGD2H8mhiH29gnhdm2aE81s/zD2USXhcxzOpITfTNMkE2D45tJ9fjTp4AuzYqdpnlnOj0RTSb+El70Osoxxl0VN/8yx2Ui5u9zTDuc6h9/9hL9TiK757fBsk8Cfn+9ZcIjM4E3sS+jt/OTDBx6RMNx90qx2vtJbNYzzFMtvLium84kZvDHOYwhznMYQ5zmMMc5jCHOcxhDnOYwxzmMIc5zGEOc5jDHOYwhznMYQ5zmMMc5jCHOcxhDnOYwxzmMIc5zGEOc5jDHOYwhznMYQ5zmMN/quG7bnSt4zjw9WvPfLHW6fYsv69qvhqbrH419lTHgU4WX69tdZZfIJ6GUdoNg4le+xXZ5Gvf013/zdqkm//0/DQKvTSIJhlUK0n1dPdcX0SxbpX75vPPeqwn/uoLmj/WHvY6qm++udwzX2Q2/9MK9UVqwNZIL2W7Z2OdnkxSc30yi4vZZJSTtnfU72skloT6/uz3a7/LbY7gQrXTyyDpJvldKWdkjgcndbPrd+KNLtv/Ba6qtsQ3Xx3P2Be6Z9MoCYzgy+zhMq9meRiZr1DF0U01pCVWMPG1mQ+7Tqfi2cvjY90TLwIdmnprL67pfJ6M42g21b769lv1t8Xjt92zSy9ZfP/dTLCdh6N3Xx3NLkjXG49fGY9uqCfj9FJ9r1z1T9V6HoYt9Wz1GUkYjHR719l53/uws3a+ffFKoli1P2Yvpfed+pjZLEp14Wse+3u24lS/QeYwZbzQe//xQ/eTvlNHR0fzi1dPMVdd3PaPVV/q8jiPtfepzsmfK55T9fnmei1e3ZEpa1MMi0rJgxy6Z16SBOOJ9o9NRETyPr+SH+pdyuWNns6Sy3bde5Hd0mfz+1l/JoXhszKvsmueWdclSePoky7nM39uXado6o2C9K6c1eLJtV9VbrG0qquyXEhWl5U606Py4mOO5XReXXjUrnKqqlWZbuVZP3fyXbXU8z+v6ynM8fSp+vW3d+rfb357q07fvH330y8/qJ/f/PDTsfrx5O1JOYFX2aqtbz3Toqk0UkkUp2oyu8rqYKTySJNEeckoa16CybiE4vLaG50HO7PXUeflF5dYp7N4oqZenOhXYeSlbc8s+TvZrXzw2Hn+WKmLub5Fe2C7eAnrhD9vNunlvv/Mp3s+2dtPfH3hzcJUTeMoW8P0k4568s3BwfHxycmTDQfPEIc4xCEOcYhDHOIQhzjEIc6fE0cls6vsP4GVr82DyvfuDFGsfdKQhjSkIQ1pSEMa0pCGNKQhTTHNTf7RrD/QnIczTRziEIc4xCEOcYhDHOIQhzjEqYNz/7uBjvndwNOZ9LuBfSd/h+358729w0OSkpSkJCUpSUlKUpKSlKQkJSlJSbodpG5O6qUSaS8n7fdd92BIUpKSlKQkJSlJSUpSkpKUpCQlKUm3g7RvSF/FgUDqHuakjrO/3++TlKQkJSlJSUpSkpKUpCQlKUlJStLtIN0zpO8uZxLpQU56mB2DFyQlKUlJSlKSkpSkJCUpSUlKUpKSdDtIB4b0X9qXSPdz0pcvj4/390lKUpKSlKQkJSlJSUpSkpKUpCQl6XaQDvO/TMy0RDrMSY+Ph0OSkpSkJCUpSUlKUpKSlKQkJSlJSbotpPuG9HUkJQu6g5z04MB1BwOSkpSkJCUpSUlKUpKSlKQkJSlJSdoY6RLFj72b9lqx224apKE+vfSmupvq27T95MdoFifrMe6+PPNlcKUnSRBNQp3kCmsknj5Vz31feSpXUjdBeqmS6Eorv7/mzOR63PWmUz3x2y3j3dpZc8Ly6HppGrdbt62OGvYqnnSXneSWPylJ70I9x9v1JqPLKM7Ob4X6ogLtQuMimqS7NzoYX6ZG4zwK/fIa83vzf57/n/kFfqsvtZeqN6OROh1dPtkpuknfP01GcTBN/yE+5/unfnD99WHxHFks01KBf9QamQo+zl60F0x0fOY4g5bKL8VRyw+SaejdPQsmYTa2ex5Go0/ftWTATHX+GlR6N83ON1fj6Ufv2ps/WnimOa692FSbOlJ+cDUNdXeib06vx+3WN1+B7Ki9Xi//n7XTx+j6Xuplwu9/b4XeuQ5bz1q+vvBmYaqmcXQRhLrVmY+c3baeOd1ep3XthTPdejY87B4+OA4OO62RWXMyhWwZOT4+OWl97pRSdTei2t+I6t5GVAcbUR1uRHV/I6oHG1E93Iiq09uM7GZml7OZ6eVsZn45m5lgzmZmmLOZKeZsZo45m5lkzmZmmbuZWeZuaA/bzCxzNzPLXItZppLZ1dXKz3jX6BBi7VcQLXltq4mWvLLVREte12qiJdeuaqIlV65qoiXXrWqiJVetaqIl16xqomUbg4qqG5lTZduCiqobmVVlm4KKqhuZV2VbgoqqG5lZZRuCiqobmVtl24GKqpvZrzYyt8r2AhVV686tm2CS2rYB5+YJ5VVLXtaKqiUva0XVkpe1omrJJauiasklq6JqySWromrJJauiasklq6Jq2X6gquxmZlfZjqCq7GbmV9meoKrsZmZY2a6gquxm5ljZvqCq7GZmWdnOoKrshvawzcyyss1BVdlKs+xDmTccFu8NqiM10TfLNzTy9zHayfW4k78hsfadi+UbjIlOX0SziZ+0B72OcpxBR/XNv9xBuXc/bjOM+/dNff/YS/U4iu+e3wbJ/A26+0tR4l3MTOBN7Ov47cy8X1b6RMNxt8rxWnvJLNZzDPOW3+IW2L4vm7+RtGp1quNAJwvczGlxQ6ZhlHbNu1trLZOvve71pEk3r7tpFHppEE0yqFaS6unuub6IYt0qV0k/67Ge+KsvaP5Ye5hVQd9UgnkzzDH/s3jbc+07wkvZ7tlYpyeT1FyfzOJiNhnlpO0d9XuJ9z0Nob4/+/3auWGO4EK108sgyeranFfOyBwPTupm1+/EG122/wtcVW2Jv3hvcKF7No2SwAi+zB4u82qWh5H5ClUc3VRDWmIFE1+bibvrdCqevTw+1j3xItChqbf24prO58k4jmZT7atvv1V/Wzx+2z279JLFemIm2M7D0buvjmYXpOuNx6+MRzfUk3F6qb5Xrvqnaj0Pw5Z6tvqMJAxGur3r7LzvfdhZO9++eCVRrNofs5fS+059zGwWpbrwNY/9/Ug51W+QOUwZL/Tef/zQ/aSz5e3oaH7x6inmqovb/rHqS10e57H2PtU5+XPFc6o+31yvxas7MmVtimFRKfnG2D2bf6ZH+/mnepL3+ZX8UO9SLm/0dJZctuvei+yWPpvfz/ozKQyflXmVXfPMui5JGkefdDmf+XPrOkVTbxSkd+WsFk+u/apyi6VVXZXlQrK6rNSZHpUXH3Msp/PqwqN2lVNVrcp0K8/6uZPvqqWe/3ldT2GOp0/Vr7+9U/9+89tbdfrm7buffvlB/fzmh5+O1Y8nb0/KCbzKVm1965kWTaWRSqKskZ7MrrI6GKm8RUyUl4yy5iWYjEsoLq+90XmwM3sddV5+cYl1OosnaurFiX4VRl7a9sySv5PdygePneePlbqY61u0B7aLl7BO+PP/4LOXf3gDdvEBS/OG6v/ko6DEIQ5xiEMc4hCHOMQhDnGIs/U4X37AxRDF2icNaUhDGtKQhjSkIQ1pSEMa0hTTfPGRQENjPuJHHOIQhzjEIQ5xiEMc4hCHOMT5HyYevtNXUx176SzWqv1qh5mHjyrz8F+eqbgfdf5/nl+dB3qSKnPLTPKh9mfZ9d9V+71XWxKCONyGEMRhYyGI+VdP64YwgXT6IJ09kM4ApDME6eyDdA5AOocgnZV0ASshVEU7qJJ2UDXtoIraQVW1gyprB1XXDqqwHVRlu6jKdmFrNaqyXVRlu5Uqu3xo34pU/Zg+CxnxCtWP4rOQEed9/bg9CxlxzteP1LOQEee7RWyejQ6ojuVtzCIMz0YHVMryHmYRcWejA6pmeQOzCK6zWQdB9SzvXhZxdDY6oHqWt676IXMrMhaxcjY64uWxiI6z0RGnu0U8nI2OON0tIuBsdMTpbhPzZiWEqmh5B7MJb7MSQhW1vInZRLJZCaHqWt7HbILWrFZGVGXLW5lNfJqVEKqy5d2MoWhbEYrGYQ5zmMMc5jCHOcxhDnOYwxzmMIc5zOHHNHzXja51HAe+fu2ZP1Q53R5D8R+8Eobi3x8Mxa90MBSfofgVDobi//FgKP4fD4biVzwYis9Q/K8eDMUnDnGIQxziEIc4xCEOcYhDHOJsQ6QkaUhDGtKQhjSkIQ1pSEMa0mwPzV8mypI4xCEOcYhDHOIQhzjEIQ5x6vv9D0LxXwZXepIE0STUScJI/McViR/Fn9TJxUUwCvRkdHcfhN9sBP7i2X8Yefj/L/89/7/36ot/3P+f88i/M//3Mr0K//H//P8ZfXXL"
               },
               {
                  "name" : "annual_peak_electric_demand",
                  "units" : "kW",
                  "value" : 275.32211000000001
               },
               {
                  "name" : "first_year_capital_cost",
                  "units" : "$",
                  "value" : 0
               },
               {
                  "name" : "annual_utility_cost",
                  "units" : "$",
                  "value" : 0
               },
               {
                  "name" : "total_lifecycle_cost",
                  "units" : "$",
                  "value" : 0
               }
            ],
            "step_warnings" : []
         }
      }
   ],
   "updated_at" : "20170710T191119Z",
   "weather_file" : "USA_CO_Denver.Intl.AP.725650_TMY3.epw"
}
