{
   "completed_at" : "20170710T185306Z",
   "completed_status" : "Success",
   "created_at" : "2017-07-10 18:50:45 +0000",
   "current_step" : 5,
   "description" : "",
   "eplusout_err" : "Program Version,EnergyPlus, Version 8.7.0-78a111df4a, YMD=2017.07.10 18:51,IDD_Version 8.7.0\n   ************* IDF Context for following error/warning message:\n   ************* Note -- lines truncated at 300 characters, if necessary...\n   *************      5 Building,\n   ************* indicated Name=NECB 2011-RetailStandalone-NECB HDD Method-CAN_BC_Victoria.717990_CWEC.epw created: 2017-07-10 18:50:51 +0000\n   ************* Only last 1 lines before error line shown.....\n   *************      6   NECB 2011-RetailStandalone-NECB HDD Method-CAN_BC_Victoria.717990_CWEC.epw created: 2017-07-10 18:50:51 +0000, !- Name\n   ** Warning ** IP: IDF line~6 Alpha Argument length exceeds maximum, will be truncated=  NECB 2011-RetailStandalone-NECB HDD Method-CAN_BC_Victoria.717990_CWEC.epw created: 2017-07-10 18:50:51 +000\n   **   ~~~   ** Will be processed as Alpha=NECB 2011-RETAILSTANDALONE-NECB HDD METHOD-CAN_BC_VICTORIA.717990_CWEC.EPW CREATED: 2017-07-10 18:50:51 +0000\n   ************* Beginning Zone Sizing Calculations\n   ** Warning ** ProcessScheduleInput: Schedule:Day:Interval=\"ECONOMIZER MAX OA FRACTION 100 PCT DEFAULT\", Blank Schedule Type Limits Name input -- will not be validated.\n   ** Warning ** ProcessScheduleInput: Schedule:Day:Interval=\"SCHEDULE DAY 1\", Blank Schedule Type Limits Name input -- will not be validated.\n   ** Warning ** ProcessScheduleInput: Schedule:Day:Interval=\"SCHEDULE DAY 10\", Blank Schedule Type Limits Name input -- will not be validated.\n   ** Warning ** ProcessScheduleInput: Schedule:Day:Interval=\"SCHEDULE DAY 11\", Blank Schedule Type Limits Name input -- will not be validated.\n   ** Warning ** ProcessScheduleInput: Schedule:Day:Interval=\"SCHEDULE DAY 12\", Blank Schedule Type Limits Name input -- will not be validated.\n   ** Warning ** ProcessScheduleInput: Schedule:Day:Interval=\"SCHEDULE DAY 13\", Blank Schedule Type Limits Name input -- will not be validated.\n   ** Warning ** ProcessScheduleInput: Schedule:Day:Interval=\"SCHEDULE DAY 14\", Blank Schedule Type Limits Name input -- will not be validated.\n   ** Warning ** ProcessScheduleInput: Schedule:Day:Interval=\"SCHEDULE DAY 15\", Blank Schedule Type Limits Name input -- will not be validated.\n   ** Warning ** ProcessScheduleInput: Schedule:Day:Interval=\"SCHEDULE DAY 16\", Blank Schedule Type Limits Name input -- will not be validated.\n   ** Warning ** ProcessScheduleInput: Schedule:Day:Interval=\"SCHEDULE DAY 17\", Blank Schedule Type Limits Name input -- will not be validated.\n   ** Warning ** ProcessScheduleInput: Schedule:Day:Interval=\"SCHEDULE DAY 18\", Blank Schedule Type Limits Name input -- will not be validated.\n   ** Warning ** ProcessScheduleInput: Schedule:Day:Interval=\"SCHEDULE DAY 19\", Blank Schedule Type Limits Name input -- will not be validated.\n   ** Warning ** ProcessScheduleInput: Schedule:Day:Interval=\"SCHEDULE DAY 2\", Blank Schedule Type Limits Name input -- will not be validated.\n   ** Warning ** ProcessScheduleInput: Schedule:Day:Interval=\"SCHEDULE DAY 20\", Blank Schedule Type Limits Name input -- will not be validated.\n   ** Warning ** ProcessScheduleInput: Schedule:Day:Interval=\"SCHEDULE DAY 21\", Blank Schedule Type Limits Name input -- will not be validated.\n   ** Warning ** ProcessScheduleInput: Schedule:Day:Interval=\"SCHEDULE DAY 22\", Blank Schedule Type Limits Name input -- will not be validated.\n   ** Warning ** ProcessScheduleInput: Schedule:Day:Interval=\"SCHEDULE DAY 23\", Blank Schedule Type Limits Name input -- will not be validated.\n   ** Warning ** ProcessScheduleInput: Schedule:Day:Interval=\"SCHEDULE DAY 24\", Blank Schedule Type Limits Name input -- will not be validated.\n   ** Warning ** ProcessScheduleInput: Schedule:Day:Interval=\"SCHEDULE DAY 5\", Blank Schedule Type Limits Name input -- will not be validated.\n   ** Warning ** ProcessScheduleInput: Schedule:Day:Interval=\"SCHEDULE DAY 6\", Blank Schedule Type Limits Name input -- will not be validated.\n   ** Warning ** ProcessScheduleInput: Schedule:Day:Interval=\"SCHEDULE DAY 7\", Blank Schedule Type Limits Name input -- will not be validated.\n   ** Warning ** ProcessScheduleInput: Schedule:Day:Interval=\"SCHEDULE DAY 8\", Blank Schedule Type Limits Name input -- will not be validated.\n   ** Warning ** ProcessScheduleInput: Schedule:Day:Interval=\"SCHEDULE DAY 9\", Blank Schedule Type Limits Name input -- will not be validated.\n   ** Warning ** ProcessScheduleInput: Schedule:Year=\"ECONOMIZER MAX OA FRACTION 100 PCT\", Blank Schedule Type Limits Name input -- will not be validated.\n   ** Warning ** ProcessScheduleInput: Schedule:Year=\"SCHEDULE RULESET 10\", Blank Schedule Type Limits Name input -- will not be validated.\n   ** Warning ** ProcessScheduleInput: Schedule:Year=\"SCHEDULE RULESET 11\", Blank Schedule Type Limits Name input -- will not be validated.\n   ** Warning ** ProcessScheduleInput: Schedule:Year=\"SCHEDULE RULESET 12\", Blank Schedule Type Limits Name input -- will not be validated.\n   ** Warning ** ProcessScheduleInput: Schedule:Year=\"SCHEDULE RULESET 13\", Blank Schedule Type Limits Name input -- will not be validated.\n   ** Warning ** ProcessScheduleInput: Schedule:Year=\"SCHEDULE RULESET 14\", Blank Schedule Type Limits Name input -- will not be validated.\n   ** Warning ** ProcessScheduleInput: Schedule:Year=\"SCHEDULE RULESET 3\", Blank Schedule Type Limits Name input -- will not be validated.\n   ** Warning ** ProcessScheduleInput: Schedule:Year=\"SCHEDULE RULESET 4\", Blank Schedule Type Limits Name input -- will not be validated.\n   ** Warning ** ProcessScheduleInput: Schedule:Year=\"SCHEDULE RULESET 5\", Blank Schedule Type Limits Name input -- will not be validated.\n   ** Warning ** ProcessScheduleInput: Schedule:Year=\"SCHEDULE RULESET 6\", Blank Schedule Type Limits Name input -- will not be validated.\n   ** Warning ** ProcessScheduleInput: Schedule:Year=\"SCHEDULE RULESET 7\", Blank Schedule Type Limits Name input -- will not be validated.\n   ** Warning ** ProcessScheduleInput: Schedule:Year=\"SCHEDULE RULESET 8\", Blank Schedule Type Limits Name input -- will not be validated.\n   ** Warning ** ProcessScheduleInput: Schedule:Year=\"SCHEDULE RULESET 9\", Blank Schedule Type Limits Name input -- will not be validated.\n   ** Warning ** ProcessScheduleInput: Schedule:Constant=\"ALWAYS OFF DISCRETE\", Blank Schedule Type Limits Name input -- will not be validated.\n   ** Warning ** ProcessScheduleInput: Schedule:Constant=\"ALWAYS ON CONTINUOUS\", Blank Schedule Type Limits Name input -- will not be validated.\n   ** Warning ** CheckUsedConstructions: There are 25 nominally unused constructions in input.\n   **   ~~~   ** For explicit details on each unused construction, use Output:Diagnostics,DisplayExtraWarnings;\n   ** Severe  ** Problem in interior solar distribution calculation (CHKBKS)\n   **   ~~~   **    Solar Distribution = FullInteriorExterior will not work in Zone=SP-CORE_RETAIL SYS-3 FLR-1 SCH-C HPLCMT-EAST ZN\n   **   ~~~   **    because vertex 2 of back surface=CORE_RETAIL_WALL_EAST_1 is in front of receiving surface=CORE_RETAIL_ROOF\n   **   ~~~   **    (Dot Product indicator=459.6689)\n   **   ~~~   **    Check surface geometry; if OK, use Solar Distribution = FullExterior instead.\n   ** Severe  ** Problem in interior solar distribution calculation (CHKBKS)\n   **   ~~~   **    Solar Distribution = FullInteriorExterior will not work in Zone=SP-CORE_RETAIL SYS-3 FLR-1 SCH-C HPLCMT-EAST ZN\n   **   ~~~   **    because vertex 3 of back surface=CORE_RETAIL_WALL_EAST_1 is in front of receiving surface=CORE_RETAIL_ROOF\n   **   ~~~   **    (Dot Product indicator=459.6689)\n   **   ~~~   **    Check surface geometry; if OK, use Solar Distribution = FullExterior instead.\n   ** Severe  ** Problem in interior solar distribution calculation (CHKBKS)\n   **   ~~~   **    Solar Distribution = FullInteriorExterior will not work in Zone=SP-CORE_RETAIL SYS-3 FLR-1 SCH-C HPLCMT-EAST ZN\n   **   ~~~   **    because vertex 2 of back surface=CORE_RETAIL_WALL_EAST_2 is in front of receiving surface=CORE_RETAIL_ROOF\n   **   ~~~   **    (Dot Product indicator=459.6689)\n   **   ~~~   **    Check surface geometry; if OK, use Solar Distribution = FullExterior instead.\n   ** Severe  ** Problem in interior solar distribution calculation (CHKBKS)\n   **   ~~~   **    Solar Distribution = FullInteriorExterior will not work in Zone=SP-CORE_RETAIL SYS-3 FLR-1 SCH-C HPLCMT-EAST ZN\n   **   ~~~   **    because vertex 3 of back surface=CORE_RETAIL_WALL_EAST_2 is in front of receiving surface=CORE_RETAIL_ROOF\n   **   ~~~   **    (Dot Product indicator=459.6689)\n   **   ~~~   **    Check surface geometry; if OK, use Solar Distribution = FullExterior instead.\n   ** Severe  ** Problem in interior solar distribution calculation (CHKBKS)\n   **   ~~~   **    Solar Distribution = FullInteriorExterior will not work in Zone=SP-CORE_RETAIL SYS-3 FLR-1 SCH-C HPLCMT-EAST ZN\n   **   ~~~   **    because vertex 2 of back surface=CORE_RETAIL_WALL_NORTH is in front of receiving surface=CORE_RETAIL_ROOF\n   **   ~~~   **    (Dot Product indicator=459.6689)\n   **   ~~~   **    Check surface geometry; if OK, use Solar Distribution = FullExterior instead.\n   ** Severe  ** Problem in interior solar distribution calculation (CHKBKS)\n   **   ~~~   **    Solar Distribution = FullInteriorExterior will not work in Zone=SP-CORE_RETAIL SYS-3 FLR-1 SCH-C HPLCMT-EAST ZN\n   **   ~~~   **    because vertex 3 of back surface=CORE_RETAIL_WALL_NORTH is in front of receiving surface=CORE_RETAIL_ROOF\n   **   ~~~   **    (Dot Product indicator=459.6689)\n   **   ~~~   **    Check surface geometry; if OK, use Solar Distribution = FullExterior instead.\n   ** Severe  ** Problem in interior solar distribution calculation (CHKBKS)\n   **   ~~~   **    Solar Distribution = FullInteriorExterior will not work in Zone=SP-CORE_RETAIL SYS-3 FLR-1 SCH-C HPLCMT-EAST ZN\n   **   ~~~   **    because vertex 2 of back surface=CORE_RETAIL_WALL_SOUTH_1 is in front of receiving surface=CORE_RETAIL_ROOF\n   **   ~~~   **    (Dot Product indicator=459.6689)\n   **   ~~~   **    Check surface geometry; if OK, use Solar Distribution = FullExterior instead.\n   ** Severe  ** Problem in interior solar distribution calculation (CHKBKS)\n   **   ~~~   **    Solar Distribution = FullInteriorExterior will not work in Zone=SP-CORE_RETAIL SYS-3 FLR-1 SCH-C HPLCMT-EAST ZN\n   **   ~~~   **    because vertex 3 of back surface=CORE_RETAIL_WALL_SOUTH_1 is in front of receiving surface=CORE_RETAIL_ROOF\n   **   ~~~   **    (Dot Product indicator=459.6689)\n   **   ~~~   **    Check surface geometry; if OK, use Solar Distribution = FullExterior instead.\n   ** Severe  ** Problem in interior solar distribution calculation (CHKBKS)\n   **   ~~~   **    Solar Distribution = FullInteriorExterior will not work in Zone=SP-CORE_RETAIL SYS-3 FLR-1 SCH-C HPLCMT-EAST ZN\n   **   ~~~   **    because vertex 2 of back surface=CORE_RETAIL_WALL_SOUTH_2 is in front of receiving surface=CORE_RETAIL_ROOF\n   **   ~~~   **    (Dot Product indicator=459.6689)\n   **   ~~~   **    Check surface geometry; if OK, use Solar Distribution = FullExterior instead.\n   ** Severe  ** Problem in interior solar distribution calculation (CHKBKS)\n   **   ~~~   **    Solar Distribution = FullInteriorExterior will not work in Zone=SP-CORE_RETAIL SYS-3 FLR-1 SCH-C HPLCMT-EAST ZN\n   **   ~~~   **    because vertex 3 of back surface=CORE_RETAIL_WALL_SOUTH_2 is in front of receiving surface=CORE_RETAIL_ROOF\n   **   ~~~   **    (Dot Product indicator=459.6689)\n   **   ~~~   **    Check surface geometry; if OK, use Solar Distribution = FullExterior instead.\n   ** Severe  ** Problem in interior solar distribution calculation (CHKBKS)\n   **   ~~~   **    Solar Distribution = FullInteriorExterior will not work in Zone=SP-CORE_RETAIL SYS-3 FLR-1 SCH-C HPLCMT-EAST ZN\n   **   ~~~   **    because vertex 2 of back surface=CORE_RETAIL_WALL_SOUTH_3 is in front of receiving surface=CORE_RETAIL_ROOF\n   **   ~~~   **    (Dot Product indicator=459.6689)\n   **   ~~~   **    Check surface geometry; if OK, use Solar Distribution = FullExterior instead.\n   ** Severe  ** Problem in interior solar distribution calculation (CHKBKS)\n   **   ~~~   **    Solar Distribution = FullInteriorExterior will not work in Zone=SP-CORE_RETAIL SYS-3 FLR-1 SCH-C HPLCMT-EAST ZN\n   **   ~~~   **    because vertex 3 of back surface=CORE_RETAIL_WALL_SOUTH_3 is in front of receiving surface=CORE_RETAIL_ROOF\n   **   ~~~   **    (Dot Product indicator=459.6689)\n   **   ~~~   **    Check surface geometry; if OK, use Solar Distribution = FullExterior instead.\n   ** Severe  ** Problem in interior solar distribution calculation (CHKBKS)\n   **   ~~~   **    Solar Distribution = FullInteriorExterior will not work in Zone=SP-CORE_RETAIL SYS-3 FLR-1 SCH-C HPLCMT-EAST ZN\n   **   ~~~   **    because vertex 2 of back surface=CORE_RETAIL_WALL_WEST_1 is in front of receiving surface=CORE_RETAIL_ROOF\n   **   ~~~   **    (Dot Product indicator=459.6689)\n   **   ~~~   **    Check surface geometry; if OK, use Solar Distribution = FullExterior instead.\n   ** Severe  ** Problem in interior solar distribution calculation (CHKBKS)\n   **   ~~~   **    Solar Distribution = FullInteriorExterior will not work in Zone=SP-CORE_RETAIL SYS-3 FLR-1 SCH-C HPLCMT-EAST ZN\n   **   ~~~   **    because vertex 3 of back surface=CORE_RETAIL_WALL_WEST_1 is in front of receiving surface=CORE_RETAIL_ROOF\n   **   ~~~   **    (Dot Product indicator=459.6689)\n   **   ~~~   **    Check surface geometry; if OK, use Solar Distribution = FullExterior instead.\n   ** Severe  ** Problem in interior solar distribution calculation (CHKBKS)\n   **   ~~~   **    Solar Distribution = FullInteriorExterior will not work in Zone=SP-CORE_RETAIL SYS-3 FLR-1 SCH-C HPLCMT-EAST ZN\n   **   ~~~   **    because vertex 2 of back surface=CORE_RETAIL_WALL_WEST_2 is in front of receiving surface=CORE_RETAIL_ROOF\n   **   ~~~   **    (Dot Product indicator=459.6689)\n   **   ~~~   **    Check surface geometry; if OK, use Solar Distribution = FullExterior instead.\n   ** Severe  ** Problem in interior solar distribution calculation (CHKBKS)\n   **   ~~~   **    Solar Distribution = FullInteriorExterior will not work in Zone=SP-CORE_RETAIL SYS-3 FLR-1 SCH-C HPLCMT-EAST ZN\n   **   ~~~   **    because vertex 3 of back surface=CORE_RETAIL_WALL_WEST_2 is in front of receiving surface=CORE_RETAIL_ROOF\n   **   ~~~   **    (Dot Product indicator=459.6689)\n   **   ~~~   **    Check surface geometry; if OK, use Solar Distribution = FullExterior instead.\n   ** Severe  ** Problem in interior solar distribution calculation (CHKBKS)\n   **   ~~~   **    Solar Distribution = FullInteriorExterior will not work in Zone=SP-CORE_RETAIL SYS-3 FLR-1 SCH-C HPLCMT-EAST ZN\n   **   ~~~   **    because vertex 1 of back surface=CORE_RETAIL_FLOOR is in front of receiving surface=CORE_RETAIL_ROOF\n   **   ~~~   **    (Dot Product indicator=459.6689)\n   **   ~~~   **    Check surface geometry; if OK, use Solar Distribution = FullExterior instead.\n   ** Severe  ** Problem in interior solar distribution calculation (CHKBKS)\n   **   ~~~   **    Solar Distribution = FullInteriorExterior will not work in Zone=SP-CORE_RETAIL SYS-3 FLR-1 SCH-C HPLCMT-EAST ZN\n   **   ~~~   **    because vertex 2 of back surface=CORE_RETAIL_FLOOR is in front of receiving surface=CORE_RETAIL_ROOF\n   **   ~~~   **    (Dot Product indicator=459.6689)\n   **   ~~~   **    Check surface geometry; if OK, use Solar Distribution = FullExterior instead.\n   ** Severe  ** Problem in interior solar distribution calculation (CHKBKS)\n   **   ~~~   **    Solar Distribution = FullInteriorExterior will not work in Zone=SP-CORE_RETAIL SYS-3 FLR-1 SCH-C HPLCMT-EAST ZN\n   **   ~~~   **    because vertex 3 of back surface=CORE_RETAIL_FLOOR is in front of receiving surface=CORE_RETAIL_ROOF\n   **   ~~~   **    (Dot Product indicator=459.6689)\n   **   ~~~   **    Check surface geometry; if OK, use Solar Distribution = FullExterior instead.\n   ** Severe  ** Problem in interior solar distribution calculation (CHKBKS)\n   **   ~~~   **    Solar Distribution = FullInteriorExterior will not work in Zone=SP-CORE_RETAIL SYS-3 FLR-1 SCH-C HPLCMT-EAST ZN\n   **   ~~~   **    because vertex 4 of back surface=CORE_RETAIL_FLOOR is in front of receiving surface=CORE_RETAIL_ROOF\n   **   ~~~   **    (Dot Product indicator=459.6689)\n   **   ~~~   **    Check surface geometry; if OK, use Solar Distribution = FullExterior instead.\n   ** Severe  ** Problem in interior solar distribution calculation (CHKBKS)\n   **   ~~~   **    Solar Distribution = FullInteriorExterior will not work in Zone=SP-CORE_RETAIL SYS-3 FLR-1 SCH-C HPLCMT-EAST ZN\n   **   ~~~   **    because vertex 5 of back surface=CORE_RETAIL_FLOOR is in front of receiving surface=CORE_RETAIL_ROOF\n   **   ~~~   **    (Dot Product indicator=459.6689)\n   **   ~~~   **    Check surface geometry; if OK, use Solar Distribution = FullExterior instead.\n   ** Severe  ** Problem in interior solar distribution calculation (CHKBKS)\n   **   ~~~   **    Solar Distribution = FullInteriorExterior will not work in Zone=SP-CORE_RETAIL SYS-3 FLR-1 SCH-C HPLCMT-EAST ZN\n   **   ~~~   **    because vertex 6 of back surface=CORE_RETAIL_FLOOR is in front of receiving surface=CORE_RETAIL_ROOF\n   **   ~~~   **    (Dot Product indicator=459.6689)\n   **   ~~~   **    Check surface geometry; if OK, use Solar Distribution = FullExterior instead.\n   ** Severe  ** Problem in interior solar distribution calculation (CHKBKS)\n   **   ~~~   **    Solar Distribution = FullInteriorExterior will not work in Zone=SP-CORE_RETAIL SYS-3 FLR-1 SCH-C HPLCMT-EAST ZN\n   **   ~~~   **    because vertex 7 of back surface=CORE_RETAIL_FLOOR is in front of receiving surface=CORE_RETAIL_ROOF\n   **   ~~~   **    (Dot Product indicator=459.6689)\n   **   ~~~   **    Check surface geometry; if OK, use Solar Distribution = FullExterior instead.\n   ** Severe  ** Problem in interior solar distribution calculation (CHKBKS)\n   **   ~~~   **    Solar Distribution = FullInteriorExterior will not work in Zone=SP-CORE_RETAIL SYS-3 FLR-1 SCH-C HPLCMT-EAST ZN\n   **   ~~~   **    because vertex 8 of back surface=CORE_RETAIL_FLOOR is in front of receiving surface=CORE_RETAIL_ROOF\n   **   ~~~   **    (Dot Product indicator=459.6689)\n   **   ~~~   **    Check surface geometry; if OK, use Solar Distribution = FullExterior instead.\n   ************* Beginning System Sizing Calculations\n   ************* Beginning Plant Sizing Calculations\n   ** Warning ** GetDXCoils: Coil:Cooling:DX:SingleSpeed=\"COIL COOLING DX SINGLE SPEED 5 34KBTU/HR 14.0SEER\", invalid\n   **   ~~~   ** ...Part Load Fraction Correlation Curve Name = DXCOOL-NECB2011-REF-COOLPLFFPLR 4 has out of range value.\n   **   ~~~   ** ...Curve maximum must be <= 1.0, curve max at PLR = 0.99 is 1.015\n   **   ~~~   ** ...Setting curve maximum to 1.0 and simulation continues.\n   ** Warning ** GetDXCoils: Coil:Cooling:DX:SingleSpeed=\"COIL COOLING DX SINGLE SPEED 1 221KBTU/HR 9.7EER\", invalid\n   **   ~~~   ** ...Part Load Fraction Correlation Curve Name = DXCOOL-NECB2011-REF-COOLPLFFPLR has out of range value.\n   **   ~~~   ** ...Curve maximum must be <= 1.0, curve max at PLR = 0.99 is 1.015\n   **   ~~~   ** ...Setting curve maximum to 1.0 and simulation continues.\n   ** Warning ** GetDXCoils: Coil:Cooling:DX:SingleSpeed=\"COIL COOLING DX SINGLE SPEED 2 8KBTU/HR 14.0SEER\", invalid\n   **   ~~~   ** ...Part Load Fraction Correlation Curve Name = DXCOOL-NECB2011-REF-COOLPLFFPLR 1 has out of range value.\n   **   ~~~   ** ...Curve maximum must be <= 1.0, curve max at PLR = 0.99 is 1.015\n   **   ~~~   ** ...Setting curve maximum to 1.0 and simulation continues.\n   ** Warning ** GetDXCoils: Coil:Cooling:DX:SingleSpeed=\"COIL COOLING DX SINGLE SPEED 4 50KBTU/HR 14.0SEER\", invalid\n   **   ~~~   ** ...Part Load Fraction Correlation Curve Name = DXCOOL-NECB2011-REF-COOLPLFFPLR 3 has out of range value.\n   **   ~~~   ** ...Curve maximum must be <= 1.0, curve max at PLR = 0.99 is 1.015\n   **   ~~~   ** ...Setting curve maximum to 1.0 and simulation continues.\n   ** Warning ** GetDXCoils: Coil:Cooling:DX:SingleSpeed=\"COIL COOLING DX SINGLE SPEED 3 50KBTU/HR 14.0SEER\", invalid\n   **   ~~~   ** ...Part Load Fraction Correlation Curve Name = DXCOOL-NECB2011-REF-COOLPLFFPLR 2 has out of range value.\n   **   ~~~   ** ...Curve maximum must be <= 1.0, curve max at PLR = 0.99 is 1.015\n   **   ~~~   ** ...Setting curve maximum to 1.0 and simulation continues.\n   ** Warning ** The Standard Ratings is calculated for Coil:Cooling:DX:SingleSpeed = COIL COOLING DX SINGLE SPEED 5 34KBTU/HR 14.0SEER but not at the AHRI test condition due to curve out of bound.\n   **   ~~~   **  Review the Standard Ratings calculations in the Engineering Reference for this coil type. Also, use Output:Diagnostics, DisplayExtraWarnings for further guidance.\n   ** Warning ** The Standard Ratings is calculated for Coil:Cooling:DX:SingleSpeed = COIL COOLING DX SINGLE SPEED 1 221KBTU/HR 9.7EER but not at the AHRI test condition due to curve out of bound.\n   **   ~~~   **  Review the Standard Ratings calculations in the Engineering Reference for this coil type. Also, use Output:Diagnostics, DisplayExtraWarnings for further guidance.\n   ** Warning ** The Standard Ratings is calculated for Coil:Cooling:DX:SingleSpeed = COIL COOLING DX SINGLE SPEED 2 8KBTU/HR 14.0SEER but not at the AHRI test condition due to curve out of bound.\n   **   ~~~   **  Review the Standard Ratings calculations in the Engineering Reference for this coil type. Also, use Output:Diagnostics, DisplayExtraWarnings for further guidance.\n   ** Warning ** The Standard Ratings is calculated for Coil:Cooling:DX:SingleSpeed = COIL COOLING DX SINGLE SPEED 4 50KBTU/HR 14.0SEER but not at the AHRI test condition due to curve out of bound.\n   **   ~~~   **  Review the Standard Ratings calculations in the Engineering Reference for this coil type. Also, use Output:Diagnostics, DisplayExtraWarnings for further guidance.\n   ** Warning ** The Standard Ratings is calculated for Coil:Cooling:DX:SingleSpeed = COIL COOLING DX SINGLE SPEED 3 50KBTU/HR 14.0SEER but not at the AHRI test condition due to curve out of bound.\n   **   ~~~   **  Review the Standard Ratings calculations in the Engineering Reference for this coil type. Also, use Output:Diagnostics, DisplayExtraWarnings for further guidance.\n   ** Warning ** Check input. Pump nominal power or motor efficiency is set to 0, for pump=SERVICE WATER LOOP PUMP\n   ** Warning ** Output:Meter: invalid Name=\"DISTRICTCOOLING:FACILITY\" - not found.\n   ** Warning ** Output:Meter: invalid Name=\"DISTRICTHEATING:FACILITY\" - not found.\n   ** Warning ** Output:Meter:MeterFileOnly requested for \"Electricity:Facility\" (TimeStep), already on \"Output:Meter\". Will report to both eplusout.eso and eplusout.mtr\n   ************* Testing Individual Branch Integrity\n   ************* All Branches passed integrity testing\n   ************* Testing Individual Supply Air Path Integrity\n   ************* All Supply Air Paths passed integrity testing\n   ************* Testing Individual Return Air Path Integrity\n   ************* All Return Air Paths passed integrity testing\n   ************* No node connection errors were found.\n   ************* Beginning Simulation\n   ** Warning ** CalcDoe2DXCoil: Coil:Cooling:DX:SingleSpeed \"COIL COOLING DX SINGLE SPEED 2 8KBTU/HR 14.0SEER\" - Full load outlet air dry-bulb temperature < 2C. This indicates the possibility of coil frost/freeze. Outlet temperature = 1.23 C.\n   **   ~~~   **  ...Occurrence info = RUN PERIOD 1, 01/02 21:15 - 21:19\n   **   ~~~   ** ... Possible reasons for low outlet air dry-bulb temperatures are: This DX coil\n   **   ~~~   **    1) may have a low inlet air dry-bulb temperature. Inlet air temperature = 12.760 C.\n   **   ~~~   **    2) may have a low air flow rate per watt of cooling capacity. Check inputs.\n   **   ~~~   **    3) is used as part of a HX assisted cooling coil which uses a high sensible effectiveness. Check inputs.\n   ** Warning ** CalcDoe2DXCoil: Coil:Cooling:DX:SingleSpeed \"COIL COOLING DX SINGLE SPEED 2 8KBTU/HR 14.0SEER\" - Air-cooled condenser inlet dry-bulb temperature below 0 C. Outdoor dry-bulb temperature = -0.85\n   **   ~~~   **  ... Occurrence info = RUN PERIOD 1, 01/03 21:15 - 21:19\n   **   ~~~   ** ... Operation at low ambient temperatures may require special performance curves.\n   ** Warning ** CalcDoe2DXCoil: Coil:Cooling:DX:SingleSpeed \"COIL COOLING DX SINGLE SPEED 4 50KBTU/HR 14.0SEER\" - Air-cooled condenser inlet dry-bulb temperature below 0 C. Outdoor dry-bulb temperature = -0.43\n   **   ~~~   **  ... Occurrence info = RUN PERIOD 1, 01/06 07:03 - 07:06\n   **   ~~~   ** ... Operation at low ambient temperatures may require special performance curves.\n   ** Warning ** CalcDoe2DXCoil: Coil:Cooling:DX:SingleSpeed \"COIL COOLING DX SINGLE SPEED 3 50KBTU/HR 14.0SEER\" - Air-cooled condenser inlet dry-bulb temperature below 0 C. Outdoor dry-bulb temperature = -0.43\n   **   ~~~   **  ... Occurrence info = RUN PERIOD 1, 01/06 07:03 - 07:06\n   **   ~~~   ** ... Operation at low ambient temperatures may require special performance curves.\n   ** Warning ** CalcDoe2DXCoil: Coil:Cooling:DX:SingleSpeed \"COIL COOLING DX SINGLE SPEED 5 34KBTU/HR 14.0SEER\" - Air-cooled condenser inlet dry-bulb temperature below 0 C. Outdoor dry-bulb temperature = -0.43\n   **   ~~~   **  ... Occurrence info = RUN PERIOD 1, 01/06 07:06 - 07:09\n   **   ~~~   ** ... Operation at low ambient temperatures may require special performance curves.\n   ************* Simulation Error Summary *************\n   ************* There are 9 unused schedules in input.\n   ************* There are 9 unused week schedules in input.\n   ************* There are 20 unused day schedules in input.\n   ************* Use Output:Diagnostics,DisplayUnusedSchedules; to see them.\n   *************\n   ************* ===== Recurring Error Summary =====\n   ************* The following recurring error messages occurred.\n   *************\n   *************  ** Warning ** CalcDoe2DXCoil: Coil:Cooling:DX:SingleSpeed=\"COIL COOLING DX SINGLE SPEED 2 8KBTU/HR 14.0SEER\" - Full load outlet temperature indicates a possibility of frost/freeze error continues. Outlet air temperature statistics follow:\n   *************  **   ~~~   **   This error occurred 65 total times;\n   *************  **   ~~~   **   during Warmup 0 times;\n   *************  **   ~~~   **   during Sizing 0 times.\n   *************  **   ~~~   **   Max=1.998543  Min=-0.419138\n   *************\n   *************  ** Warning ** CalcDoe2DXCoil: Coil:Cooling:DX:SingleSpeed=\"COIL COOLING DX SINGLE SPEED 2 8KBTU/HR 14.0SEER\" - Low condenser dry-bulb temperature error continues...\n   *************  **   ~~~   **   This error occurred 7 total times;\n   *************  **   ~~~   **   during Warmup 0 times;\n   *************  **   ~~~   **   during Sizing 0 times.\n   *************  **   ~~~   **   Max=-5.000000E-002 [C]  Min=-0.85 [C]\n   *************\n   *************  ** Warning ** CalcDoe2DXCoil: Coil:Cooling:DX:SingleSpeed=\"COIL COOLING DX SINGLE SPEED 4 50KBTU/HR 14.0SEER\" - Low condenser dry-bulb temperature error continues...\n   *************  **   ~~~   **   This error occurred 38 total times;\n   *************  **   ~~~   **   during Warmup 0 times;\n   *************  **   ~~~   **   during Sizing 0 times.\n   *************  **   ~~~   **   Max=-0.1 [C]  Min=-3.625 [C]\n   *************\n   *************  ** Warning ** CalcDoe2DXCoil: Coil:Cooling:DX:SingleSpeed=\"COIL COOLING DX SINGLE SPEED 3 50KBTU/HR 14.0SEER\" - Low condenser dry-bulb temperature error continues...\n   *************  **   ~~~   **   This error occurred 39 total times;\n   *************  **   ~~~   **   during Warmup 0 times;\n   *************  **   ~~~   **   during Sizing 0 times.\n   *************  **   ~~~   **   Max=-0.1 [C]  Min=-3.625 [C]\n   *************\n   *************  ** Warning ** CalcDoe2DXCoil: Coil:Cooling:DX:SingleSpeed=\"COIL COOLING DX SINGLE SPEED 5 34KBTU/HR 14.0SEER\" - Low condenser dry-bulb temperature error continues...\n   *************  **   ~~~   **   This error occurred 26 total times;\n   *************  **   ~~~   **   during Warmup 0 times;\n   *************  **   ~~~   **   during Sizing 0 times.\n   *************  **   ~~~   **   Max=-0.15 [C]  Min=-3.625 [C]\n   *************\n   *************\n   ************* ===== Final Error Summary =====\n   ************* The following error categories occurred.  Consider correcting or noting.\n   ************* Nominally Unused Constructions\n   ************* ..The nominally unused constructions warning is provided to alert you to potential conditions that can cause\n   ************* ..extra time during simulation. Each construction is calculated by the algorithm indicated in the HeatBalanceAlgorithm\n   ************* ..object. You may remove the constructions indicated (when you use the DisplayExtraWarnings option).\n   *************\n   ************* EnergyPlus Warmup Error Summary. During Warmup: 0 Warning; 0 Severe Errors.\n   ************* EnergyPlus Sizing Error Summary. During Sizing: 39 Warning; 24 Severe Errors.\n   ************* EnergyPlus Completed Successfully-- 229 Warning; 24 Severe Errors; Elapsed Time=00hr 00min 46.21sec\n",
   "file_format_version" : "0.0.1",
   "file_paths" : [ "../weather", "../seeds", "../seed" ],
   "hash" : "BC66FF71",
   "measure_paths" : [ "../measures" ],
   "name" : "LHS Autogenerated 460",
   "osa_id" : "4fef0e0f-5396-4c55-a6e1-2cd6803db3ab",
   "osd_id" : "42aad92d-2fc8-4310-a8a5-54d449f09cd5",
   "run_directory" : "./run",
   "seed_file" : "seed.osm",
   "started_at" : "20170710T185048Z",
   "steps" : [
      {
         "arguments" : {
            "__SKIP__" : false,
            "building_type" : "RetailStandalone",
            "climate_zone" : "NECB HDD Method",
            "epw_file" : "CAN_BC_Victoria.717990_CWEC.epw",
            "template" : "NECB 2011"
         },
         "measure_dir_name" : "create_prototype_building",
         "name" : "create_prototype_building",
         "result" : {
            "completed_at" : "20170710T185145Z",
            "measure_class_name" : "CreatePrototypeBuilding",
            "measure_display_name" : "Create Prototype Building",
            "measure_name" : "create_prototype_building",
            "measure_taxonomy" : "Whole Building.Space Types",
            "measure_type" : "ModelMeasure",
            "measure_uid" : "ae90fsd7-a651-467a-bc8d-29d310b0f937",
            "measure_version_id" : "c6ec5c18-5595-459f-a082-09a19c8c869c",
            "measure_version_modified" : "20170519T182315Z",
            "measure_xml_checksum" : "057E8D9D",
            "started_at" : "20170710T185050Z",
            "stderr" : "",
            "stdout" : "[OpenStudio.Measure] <0> OSArgumentVector is deprecated, use OpenStudio::Measure::OSArgumentVector instead.\n[openstudio.EpwFile] <0> Successive data points (1970-Jan-31 to 1960-Feb-01, ending on line 753) are greater than 1 day apart in EPW file '/usr/local/bundle/bundler/gems/openstudio-standards-f448df66933d/openstudio-standards/data/weather/CAN_BC_Victoria.717990_CWEC.epw'. Data will be treated as typical (TMY)\n[openstudio.setFileExtension] <0> Path p, '/usr/local/bundle/bundler/gems/openstudio-standards-f448df66933d/openstudio-standards/data/weather/CAN_BC_Victoria.717990_CWEC.ddy', has an unexpected file extension. Was expecting 'idf'.\n[openstudio.model.YearDescription] <1> 'UseWeatherFile' is not yet a supported option for YearDescription\n[openstudio.model.YearDescription] <1> 'UseWeatherFile' is not yet a supported option for YearDescription\n[openstudio.setFileExtension] <0> Path p, '/usr/local/bundle/bundler/gems/openstudio-standards-f448df66933d/openstudio-standards/data/weather/CAN_BC_Victoria.717990_CWEC.ddy', has an unexpected file extension. Was expecting 'idf'.\n[openstudio.model.YearDescription] <1> 'UseWeatherFile' is not yet a supported option for YearDescription\n[openstudio.model.YearDescription] <1> 'UseWeatherFile' is not yet a supported option for YearDescription\n[openstudio.EpwFile] <0> Successive data points (1970-Jan-31 to 1960-Feb-01, ending on line 753) are greater than 1 day apart in EPW file '/usr/local/bundle/bundler/gems/openstudio-standards-f448df66933d/openstudio-standards/data/weather/CAN_BC_Victoria.717990_CWEC.epw'. Data will be treated as typical (TMY)\n[openstudio.weather.Model] <0> Could not find ground temperatures; will use generic temperatures, which will skew results.\n[openstudio.setFileExtension] <0> Path p, '/usr/local/bundle/bundler/gems/openstudio-standards-f448df66933d/openstudio-standards/data/weather/CAN_BC_Victoria.717990_CWEC.ddy', has an unexpected file extension. Was expecting 'idf'.\n[openstudio.model.YearDescription] <1> 'UseWeatherFile' is not yet a supported option for YearDescription\n[openstudio.model.YearDescription] <1> 'UseWeatherFile' is not yet a supported option for YearDescription\n[openstudio.EpwFile] <0> Successive data points (1970-Jan-31 to 1960-Feb-01, ending on line 753) are greater than 1 day apart in EPW file '/usr/local/bundle/bundler/gems/openstudio-standards-f448df66933d/openstudio-standards/data/weather/CAN_BC_Victoria.717990_CWEC.epw'. Data will be treated as typical (TMY)\n[openstudio.setFileExtension] <0> Path p, '/usr/local/bundle/bundler/gems/openstudio-standards-f448df66933d/openstudio-standards/data/weather/CAN_BC_Victoria.717990_CWEC.ddy', has an unexpected file extension. Was expecting 'idf'.\n[openstudio.model.YearDescription] <1> 'UseWeatherFile' is not yet a supported option for YearDescription\n[openstudio.model.YearDescription] <1> 'UseWeatherFile' is not yet a supported option for YearDescription\n[openstudio.setFileExtension] <0> Path p, '/usr/local/bundle/bundler/gems/openstudio-standards-f448df66933d/openstudio-standards/data/weather/CAN_BC_Victoria.717990_CWEC.ddy', has an unexpected file extension. Was expecting 'idf'.\n[openstudio.model.YearDescription] <1> 'UseWeatherFile' is not yet a supported option for YearDescription\n[openstudio.model.YearDescription] <1> 'UseWeatherFile' is not yet a supported option for YearDescription\n[openstudio.EpwFile] <0> Successive data points (1970-Jan-31 to 1960-Feb-01, ending on line 753) are greater than 1 day apart in EPW file '/usr/local/bundle/bundler/gems/openstudio-standards-f448df66933d/openstudio-standards/data/weather/CAN_BC_Victoria.717990_CWEC.epw'. Data will be treated as typical (TMY)\n[openstudio.setFileExtension] <0> Path p, '/usr/local/bundle/bundler/gems/openstudio-standards-f448df66933d/openstudio-standards/data/weather/CAN_BC_Victoria.717990_CWEC.ddy', has an unexpected file extension. Was expecting 'idf'.\n[openstudio.model.YearDescription] <1> 'UseWeatherFile' is not yet a supported option for YearDescription\n[openstudio.model.YearDescription] <1> 'UseWeatherFile' is not yet a supported option for YearDescription\n[openstudio.setFileExtension] <0> Path p, '/usr/local/bundle/bundler/gems/openstudio-standards-f448df66933d/openstudio-standards/data/weather/CAN_BC_Victoria.717990_CWEC.ddy', has an unexpected file extension. Was expecting 'idf'.\n[openstudio.model.YearDescription] <1> 'UseWeatherFile' is not yet a supported option for YearDescription\n[openstudio.model.YearDescription] <1> 'UseWeatherFile' is not yet a supported option for YearDescription\n[utilities.idf.WorkspaceObject] <0> Object of type 'Schedule:Constant' and named 'Always Off Discrete', points to an object named OnOff 1 from field 1, but that object cannot be located.\n[utilities.idf.WorkspaceObject] <0> Object of type 'Schedule:Constant' and named 'Always On Continuous', points to an object named Fractional 1 from field 1, but that object cannot be located.\n[openstudio.model.Model] <0> The run completed but had the following severe errors: Problem in interior solar distribution calculation (CHKBKS)     Solar Distribution = FullInteriorExterior will not work in Zone=CORE_RETAIL ZN     because vertex 2 of back surface=CORE_RETAIL_WALL_EAST_1 is in front of receiving surface=CORE_RETAIL_ROOF     (Dot Product indicator=459.6689)     Check surface geometry; if OK, use Solar Distribution = FullExterior instead.\\nProblem in interior solar distribution calculation (CHKBKS)     Solar Distribution = FullInteriorExterior will not work in Zone=CORE_RETAIL ZN     because vertex 3 of back surface=CORE_RETAIL_WALL_EAST_1 is in front of receiving surface=CORE_RETAIL_ROOF     (Dot Product indicator=459.6689)     Check surface geometry; if OK, use Solar Distribution = FullExterior instead.\\nProblem in interior solar distribution calculation (CHKBKS)     Solar Distribution = FullInteriorExterior will not work in Zone=CORE_RETAIL ZN     because vertex 2 of back surface=CORE_RETAIL_WALL_EAST_2 is in front of receiving surface=CORE_RETAIL_ROOF     (Dot Product indicator=459.6689)     Check surface geometry; if OK, use Solar Distribution = FullExterior instead.\\nProblem in interior solar distribution calculation (CHKBKS)     Solar Distribution = FullInteriorExterior will not work in Zone=CORE_RETAIL ZN     because vertex 3 of back surface=CORE_RETAIL_WALL_EAST_2 is in front of receiving surface=CORE_RETAIL_ROOF     (Dot Product indicator=459.6689)     Check surface geometry; if OK, use Solar Distribution = FullExterior instead.\\nProblem in interior solar distribution calculation (CHKBKS)     Solar Distribution = FullInteriorExterior will not work in Zone=CORE_RETAIL ZN     because vertex 2 of back surface=CORE_RETAIL_WALL_NORTH is in front of receiving surface=CORE_RETAIL_ROOF     (Dot Product indicator=459.6689)     Check surface geometry; if OK, use Solar Distribution = FullExterior instead.\\nProblem in interior solar distribution calculation (CHKBKS)     Solar Distribution = FullInteriorExterior will not work in Zone=CORE_RETAIL ZN     because vertex 3 of back surface=CORE_RETAIL_WALL_NORTH is in front of receiving surface=CORE_RETAIL_ROOF     (Dot Product indicator=459.6689)     Check surface geometry; if OK, use Solar Distribution = FullExterior instead.\\nProblem in interior solar distribution calculation (CHKBKS)     Solar Distribution = FullInteriorExterior will not work in Zone=CORE_RETAIL ZN     because vertex 2 of back surface=CORE_RETAIL_WALL_SOUTH_1 is in front of receiving surface=CORE_RETAIL_ROOF     (Dot Product indicator=459.6689)     Check surface geometry; if OK, use Solar Distribution = FullExterior instead.\\nProblem in interior solar distribution calculation (CHKBKS)     Solar Distribution = FullInteriorExterior will not work in Zone=CORE_RETAIL ZN     because vertex 3 of back surface=CORE_RETAIL_WALL_SOUTH_1 is in front of receiving surface=CORE_RETAIL_ROOF     (Dot Product indicator=459.6689)     Check surface geometry; if OK, use Solar Distribution = FullExterior instead.\\nProblem in interior solar distribution calculation (CHKBKS)     Solar Distribution = FullInteriorExterior will not work in Zone=CORE_RETAIL ZN     because vertex 2 of back surface=CORE_RETAIL_WALL_SOUTH_2 is in front of receiving surface=CORE_RETAIL_ROOF     (Dot Product indicator=459.6689)     Check surface geometry; if OK, use Solar Distribution = FullExterior instead.\\nProblem in interior solar distribution calculation (CHKBKS)     Solar Distribution = FullInteriorExterior will not work in Zone=CORE_RETAIL ZN     because vertex 3 of back surface=CORE_RETAIL_WALL_SOUTH_2 is in front of receiving surface=CORE_RETAIL_ROOF     (Dot Product indicator=459.6689)     Check surface geometry; if OK, use Solar Distribution = FullExterior instead.\\nProblem in interior solar distribution calculation (CHKBKS)     Solar Distribution = FullInteriorExterior will not work in Zone=CORE_RETAIL ZN     because vertex 2 of back surface=CORE_RETAIL_WALL_SOUTH_3 is in front of receiving surface=CORE_RETAIL_ROOF     (Dot Product indicator=459.6689)     Check surface geometry; if OK, use Solar Distribution = FullExterior instead.\\nProblem in interior solar distribution calculation (CHKBKS)     Solar Distribution = FullInteriorExterior will not work in Zone=CORE_RETAIL ZN     because vertex 3 of back surface=CORE_RETAIL_WALL_SOUTH_3 is in front of receiving surface=CORE_RETAIL_ROOF     (Dot Product indicator=459.6689)     Check surface geometry; if OK, use Solar Distribution = FullExterior instead.\\nProblem in interior solar distribution calculation (CHKBKS)     Solar Distribution = FullInteriorExterior will not work in Zone=CORE_RETAIL ZN     because vertex 2 of back surface=CORE_RETAIL_WALL_WEST_1 is in front of receiving surface=CORE_RETAIL_ROOF     (Dot Product indicator=459.6689)     Check surface geometry; if OK, use Solar Distribution = FullExterior instead.\\nProblem in interior solar distribution calculation (CHKBKS)     Solar Distribution = FullInteriorExterior will not work in Zone=CORE_RETAIL ZN     because vertex 3 of back surface=CORE_RETAIL_WALL_WEST_1 is in front of receiving surface=CORE_RETAIL_ROOF     (Dot Product indicator=459.6689)     Check surface geometry; if OK, use Solar Distribution = FullExterior instead.\\nProblem in interior solar distribution calculation (CHKBKS)     Solar Distribution = FullInteriorExterior will not work in Zone=CORE_RETAIL ZN     because vertex 2 of back surface=CORE_RETAIL_WALL_WEST_2 is in front of receiving surface=CORE_RETAIL_ROOF     (Dot Product indicator=459.6689)     Check surface geometry; if OK, use Solar Distribution = FullExterior instead.\\nProblem in interior solar distribution calculation (CHKBKS)     Solar Distribution = FullInteriorExterior will not work in Zone=CORE_RETAIL ZN     because vertex 3 of back surface=CORE_RETAIL_WALL_WEST_2 is in front of receiving surface=CORE_RETAIL_ROOF     (Dot Product indicator=459.6689)     Check surface geometry; if OK, use Solar Distribution = FullExterior instead.\\nProblem in interior solar distribution calculation (CHKBKS)     Solar Distribution = FullInteriorExterior will not work in Zone=CORE_RETAIL ZN     because vertex 1 of back surface=CORE_RETAIL_FLOOR is in front of receiving surface=CORE_RETAIL_ROOF     (Dot Product indicator=459.6689)     Check surface geometry; if OK, use Solar Distribution = FullExterior instead.\\nProblem in interior solar distribution calculation (CHKBKS)     Solar Distribution = FullInteriorExterior will not work in Zone=CORE_RETAIL ZN     because vertex 2 of back surface=CORE_RETAIL_FLOOR is in front of receiving surface=CORE_RETAIL_ROOF     (Dot Product indicator=459.6689)     Check surface geometry; if OK, use Solar Distribution = FullExterior instead.\\nProblem in interior solar distribution calculation (CHKBKS)     Solar Distribution = FullInteriorExterior will not work in Zone=CORE_RETAIL ZN     because vertex 3 of back surface=CORE_RETAIL_FLOOR is in front of receiving surface=CORE_RETAIL_ROOF     (Dot Product indicator=459.6689)     Check surface geometry; if OK, use Solar Distribution = FullExterior instead.\\nProblem in interior solar distribution calculation (CHKBKS)     Solar Distribution = FullInteriorExterior will not work in Zone=CORE_RETAIL ZN     because vertex 4 of back surface=CORE_RETAIL_FLOOR is in front of receiving surface=CORE_RETAIL_ROOF     (Dot Product indicator=459.6689)     Check surface geometry; if OK, use Solar Distribution = FullExterior instead.\\nProblem in interior solar distribution calculation (CHKBKS)     Solar Distribution = FullInteriorExterior will not work in Zone=CORE_RETAIL ZN     because vertex 5 of back surface=CORE_RETAIL_FLOOR is in front of receiving surface=CORE_RETAIL_ROOF     (Dot Product indicator=459.6689)     Check surface geometry; if OK, use Solar Distribution = FullExterior instead.\\nProblem in interior solar distribution calculation (CHKBKS)     Solar Distribution = FullInteriorExterior will not work in Zone=CORE_RETAIL ZN     because vertex 6 of back surface=CORE_RETAIL_FLOOR is in front of receiving surface=CORE_RETAIL_ROOF     (Dot Product indicator=459.6689)     Check surface geometry; if OK, use Solar Distribution = FullExterior instead.\\nProblem in interior solar distribution calculation (CHKBKS)     Solar Distribution = FullInteriorExterior will not work in Zone=CORE_RETAIL ZN     because vertex 7 of back surface=CORE_RETAIL_FLOOR is in front of receiving surface=CORE_RETAIL_ROOF     (Dot Product indicator=459.6689)     Check surface geometry; if OK, use Solar Distribution = FullExterior instead.\\nProblem in interior solar distribution calculation (CHKBKS)     Solar Distribution = FullInteriorExterior will not work in Zone=CORE_RETAIL ZN     because vertex 8 of back surface=CORE_RETAIL_FLOOR is in front of receiving surface=CORE_RETAIL_ROOF     (Dot Product indicator=459.6689)     Check surface geometry; if OK, use Solar Distribution = FullExterior instead.\n[utilities.idf.WorkspaceObject] <0> Object of type 'Schedule:Constant' and named 'Always Off Discrete', points to an object named OnOff 1 from field 1, but that object cannot be located.\n[utilities.idf.WorkspaceObject] <0> Object of type 'Schedule:Constant' and named 'Always On Continuous', points to an object named Fractional 1 from field 1, but that object cannot be located.\n[openstudio.model.Model] <0> The run completed but had the following severe errors: Problem in interior solar distribution calculation (CHKBKS)     Solar Distribution = FullInteriorExterior will not work in Zone=SP-CORE_RETAIL SYS-3 FLR-1 SCH-C HPLCMT-EAST ZN     because vertex 2 of back surface=CORE_RETAIL_WALL_EAST_1 is in front of receiving surface=CORE_RETAIL_ROOF     (Dot Product indicator=459.6689)     Check surface geometry; if OK, use Solar Distribution = FullExterior instead.\\nProblem in interior solar distribution calculation (CHKBKS)     Solar Distribution = FullInteriorExterior will not work in Zone=SP-CORE_RETAIL SYS-3 FLR-1 SCH-C HPLCMT-EAST ZN     because vertex 3 of back surface=CORE_RETAIL_WALL_EAST_1 is in front of receiving surface=CORE_RETAIL_ROOF     (Dot Product indicator=459.6689)     Check surface geometry; if OK, use Solar Distribution = FullExterior instead.\\nProblem in interior solar distribution calculation (CHKBKS)     Solar Distribution = FullInteriorExterior will not work in Zone=SP-CORE_RETAIL SYS-3 FLR-1 SCH-C HPLCMT-EAST ZN     because vertex 2 of back surface=CORE_RETAIL_WALL_EAST_2 is in front of receiving surface=CORE_RETAIL_ROOF     (Dot Product indicator=459.6689)     Check surface geometry; if OK, use Solar Distribution = FullExterior instead.\\nProblem in interior solar distribution calculation (CHKBKS)     Solar Distribution = FullInteriorExterior will not work in Zone=SP-CORE_RETAIL SYS-3 FLR-1 SCH-C HPLCMT-EAST ZN     because vertex 3 of back surface=CORE_RETAIL_WALL_EAST_2 is in front of receiving surface=CORE_RETAIL_ROOF     (Dot Product indicator=459.6689)     Check surface geometry; if OK, use Solar Distribution = FullExterior instead.\\nProblem in interior solar distribution calculation (CHKBKS)     Solar Distribution = FullInteriorExterior will not work in Zone=SP-CORE_RETAIL SYS-3 FLR-1 SCH-C HPLCMT-EAST ZN     because vertex 2 of back surface=CORE_RETAIL_WALL_NORTH is in front of receiving surface=CORE_RETAIL_ROOF     (Dot Product indicator=459.6689)     Check surface geometry; if OK, use Solar Distribution = FullExterior instead.\\nProblem in interior solar distribution calculation (CHKBKS)     Solar Distribution = FullInteriorExterior will not work in Zone=SP-CORE_RETAIL SYS-3 FLR-1 SCH-C HPLCMT-EAST ZN     because vertex 3 of back surface=CORE_RETAIL_WALL_NORTH is in front of receiving surface=CORE_RETAIL_ROOF     (Dot Product indicator=459.6689)     Check surface geometry; if OK, use Solar Distribution = FullExterior instead.\\nProblem in interior solar distribution calculation (CHKBKS)     Solar Distribution = FullInteriorExterior will not work in Zone=SP-CORE_RETAIL SYS-3 FLR-1 SCH-C HPLCMT-EAST ZN     because vertex 2 of back surface=CORE_RETAIL_WALL_SOUTH_1 is in front of receiving surface=CORE_RETAIL_ROOF     (Dot Product indicator=459.6689)     Check surface geometry; if OK, use Solar Distribution = FullExterior instead.\\nProblem in interior solar distribution calculation (CHKBKS)     Solar Distribution = FullInteriorExterior will not work in Zone=SP-CORE_RETAIL SYS-3 FLR-1 SCH-C HPLCMT-EAST ZN     because vertex 3 of back surface=CORE_RETAIL_WALL_SOUTH_1 is in front of receiving surface=CORE_RETAIL_ROOF     (Dot Product indicator=459.6689)     Check surface geometry; if OK, use Solar Distribution = FullExterior instead.\\nProblem in interior solar distribution calculation (CHKBKS)     Solar Distribution = FullInteriorExterior will not work in Zone=SP-CORE_RETAIL SYS-3 FLR-1 SCH-C HPLCMT-EAST ZN     because vertex 2 of back surface=CORE_RETAIL_WALL_SOUTH_2 is in front of receiving surface=CORE_RETAIL_ROOF     (Dot Product indicator=459.6689)     Check surface geometry; if OK, use Solar Distribution = FullExterior instead.\\nProblem in interior solar distribution calculation (CHKBKS)     Solar Distribution = FullInteriorExterior will not work in Zone=SP-CORE_RETAIL SYS-3 FLR-1 SCH-C HPLCMT-EAST ZN     because vertex 3 of back surface=CORE_RETAIL_WALL_SOUTH_2 is in front of receiving surface=CORE_RETAIL_ROOF     (Dot Product indicator=459.6689)     Check surface geometry; if OK, use Solar Distribution = FullExterior instead.\\nProblem in interior solar distribution calculation (CHKBKS)     Solar Distribution = FullInteriorExterior will not work in Zone=SP-CORE_RETAIL SYS-3 FLR-1 SCH-C HPLCMT-EAST ZN     because vertex 2 of back surface=CORE_RETAIL_WALL_SOUTH_3 is in front of receiving surface=CORE_RETAIL_ROOF     (Dot Product indicator=459.6689)     Check surface geometry; if OK, use Solar Distribution = FullExterior instead.\\nProblem in interior solar distribution calculation (CHKBKS)     Solar Distribution = FullInteriorExterior will not work in Zone=SP-CORE_RETAIL SYS-3 FLR-1 SCH-C HPLCMT-EAST ZN     because vertex 3 of back surface=CORE_RETAIL_WALL_SOUTH_3 is in front of receiving surface=CORE_RETAIL_ROOF     (Dot Product indicator=459.6689)     Check surface geometry; if OK, use Solar Distribution = FullExterior instead.\\nProblem in interior solar distribution calculation (CHKBKS)     Solar Distribution = FullInteriorExterior will not work in Zone=SP-CORE_RETAIL SYS-3 FLR-1 SCH-C HPLCMT-EAST ZN     because vertex 2 of back surface=CORE_RETAIL_WALL_WEST_1 is in front of receiving surface=CORE_RETAIL_ROOF     (Dot Product indicator=459.6689)     Check surface geometry; if OK, use Solar Distribution = FullExterior instead.\\nProblem in interior solar distribution calculation (CHKBKS)     Solar Distribution = FullInteriorExterior will not work in Zone=SP-CORE_RETAIL SYS-3 FLR-1 SCH-C HPLCMT-EAST ZN     because vertex 3 of back surface=CORE_RETAIL_WALL_WEST_1 is in front of receiving surface=CORE_RETAIL_ROOF     (Dot Product indicator=459.6689)     Check surface geometry; if OK, use Solar Distribution = FullExterior instead.\\nProblem in interior solar distribution calculation (CHKBKS)     Solar Distribution = FullInteriorExterior will not work in Zone=SP-CORE_RETAIL SYS-3 FLR-1 SCH-C HPLCMT-EAST ZN     because vertex 2 of back surface=CORE_RETAIL_WALL_WEST_2 is in front of receiving surface=CORE_RETAIL_ROOF     (Dot Product indicator=459.6689)     Check surface geometry; if OK, use Solar Distribution = FullExterior instead.\\nProblem in interior solar distribution calculation (CHKBKS)     Solar Distribution = FullInteriorExterior will not work in Zone=SP-CORE_RETAIL SYS-3 FLR-1 SCH-C HPLCMT-EAST ZN     because vertex 3 of back surface=CORE_RETAIL_WALL_WEST_2 is in front of receiving surface=CORE_RETAIL_ROOF     (Dot Product indicator=459.6689)     Check surface geometry; if OK, use Solar Distribution = FullExterior instead.\\nProblem in interior solar distribution calculation (CHKBKS)     Solar Distribution = FullInteriorExterior will not work in Zone=SP-CORE_RETAIL SYS-3 FLR-1 SCH-C HPLCMT-EAST ZN     because vertex 1 of back surface=CORE_RETAIL_FLOOR is in front of receiving surface=CORE_RETAIL_ROOF     (Dot Product indicator=459.6689)     Check surface geometry; if OK, use Solar Distribution = FullExterior instead.\\nProblem in interior solar distribution calculation (CHKBKS)     Solar Distribution = FullInteriorExterior will not work in Zone=SP-CORE_RETAIL SYS-3 FLR-1 SCH-C HPLCMT-EAST ZN     because vertex 2 of back surface=CORE_RETAIL_FLOOR is in front of receiving surface=CORE_RETAIL_ROOF     (Dot Product indicator=459.6689)     Check surface geometry; if OK, use Solar Distribution = FullExterior instead.\\nProblem in interior solar distribution calculation (CHKBKS)     Solar Distribution = FullInteriorExterior will not work in Zone=SP-CORE_RETAIL SYS-3 FLR-1 SCH-C HPLCMT-EAST ZN     because vertex 3 of back surface=CORE_RETAIL_FLOOR is in front of receiving surface=CORE_RETAIL_ROOF     (Dot Product indicator=459.6689)     Check surface geometry; if OK, use Solar Distribution = FullExterior instead.\\nProblem in interior solar distribution calculation (CHKBKS)     Solar Distribution = FullInteriorExterior will not work in Zone=SP-CORE_RETAIL SYS-3 FLR-1 SCH-C HPLCMT-EAST ZN     because vertex 4 of back surface=CORE_RETAIL_FLOOR is in front of receiving surface=CORE_RETAIL_ROOF     (Dot Product indicator=459.6689)     Check surface geometry; if OK, use Solar Distribution = FullExterior instead.\\nProblem in interior solar distribution calculation (CHKBKS)     Solar Distribution = FullInteriorExterior will not work in Zone=SP-CORE_RETAIL SYS-3 FLR-1 SCH-C HPLCMT-EAST ZN     because vertex 5 of back surface=CORE_RETAIL_FLOOR is in front of receiving surface=CORE_RETAIL_ROOF     (Dot Product indicator=459.6689)     Check surface geometry; if OK, use Solar Distribution = FullExterior instead.\\nProblem in interior solar distribution calculation (CHKBKS)     Solar Distribution = FullInteriorExterior will not work in Zone=SP-CORE_RETAIL SYS-3 FLR-1 SCH-C HPLCMT-EAST ZN     because vertex 6 of back surface=CORE_RETAIL_FLOOR is in front of receiving surface=CORE_RETAIL_ROOF     (Dot Product indicator=459.6689)     Check surface geometry; if OK, use Solar Distribution = FullExterior instead.\\nProblem in interior solar distribution calculation (CHKBKS)     Solar Distribution = FullInteriorExterior will not work in Zone=SP-CORE_RETAIL SYS-3 FLR-1 SCH-C HPLCMT-EAST ZN     because vertex 7 of back surface=CORE_RETAIL_FLOOR is in front of receiving surface=CORE_RETAIL_ROOF     (Dot Product indicator=459.6689)     Check surface geometry; if OK, use Solar Distribution = FullExterior instead.\\nProblem in interior solar distribution calculation (CHKBKS)     Solar Distribution = FullInteriorExterior will not work in Zone=SP-CORE_RETAIL SYS-3 FLR-1 SCH-C HPLCMT-EAST ZN     because vertex 8 of back surface=CORE_RETAIL_FLOOR is in front of receiving surface=CORE_RETAIL_ROOF     (Dot Product indicator=459.6689)     Check surface geometry; if OK, use Solar Distribution = FullExterior instead.\n[openstudio.standards.Fan] <0> For Fan Constant Volume 1, there is no greater nominal HP.  Use the efficiency of the largest motor category.\n[openstudio.standards.Fan] <0> For Fan Constant Volume 2, there is no greater nominal HP.  Use the efficiency of the largest motor category.\n[openstudio.standards.Fan] <0> For Fan Constant Volume 3, there is no greater nominal HP.  Use the efficiency of the largest motor category.\n[openstudio.standards.Fan] <0> For Fan Constant Volume 4, there is no greater nominal HP.  Use the efficiency of the largest motor category.\n[openstudio.standards.Fan] <0> For Fan Constant Volume 5, there is no greater nominal HP.  Use the efficiency of the largest motor category.\n[openstudio.EpwFile] <0> Successive data points (1970-Jan-31 to 1960-Feb-01, ending on line 753) are greater than 1 day apart in EPW file '/usr/local/bundle/bundler/gems/openstudio-standards-f448df66933d/openstudio-standards/data/weather/CAN_BC_Victoria.717990_CWEC.epw'. Data will be treated as typical (TMY)\n[openstudio.setFileExtension] <0> Path p, '/usr/local/bundle/bundler/gems/openstudio-standards-f448df66933d/openstudio-standards/data/weather/CAN_BC_Victoria.717990_CWEC.ddy', has an unexpected file extension. Was expecting 'idf'.\n[openstudio.model.YearDescription] <1> 'UseWeatherFile' is not yet a supported option for YearDescription\n[openstudio.model.YearDescription] <1> 'UseWeatherFile' is not yet a supported option for YearDescription\n[openstudio.setFileExtension] <0> Path p, '/usr/local/bundle/bundler/gems/openstudio-standards-f448df66933d/openstudio-standards/data/weather/CAN_BC_Victoria.717990_CWEC.ddy', has an unexpected file extension. Was expecting 'idf'.\n[openstudio.model.YearDescription] <1> 'UseWeatherFile' is not yet a supported option for YearDescription\n[openstudio.model.YearDescription] <1> 'UseWeatherFile' is not yet a supported option for YearDescription\n[openstudio.EpwFile] <0> Successive data points (1970-Jan-31 to 1960-Feb-01, ending on line 753) are greater than 1 day apart in EPW file '/usr/local/bundle/bundler/gems/openstudio-standards-f448df66933d/openstudio-standards/data/weather/CAN_BC_Victoria.717990_CWEC.epw'. Data will be treated as typical (TMY)\n[openstudio.setFileExtension] <0> Path p, '/usr/local/bundle/bundler/gems/openstudio-standards-f448df66933d/openstudio-standards/data/weather/CAN_BC_Victoria.717990_CWEC.ddy', has an unexpected file extension. Was expecting 'idf'.\n[openstudio.model.YearDescription] <1> 'UseWeatherFile' is not yet a supported option for YearDescription\n[openstudio.model.YearDescription] <1> 'UseWeatherFile' is not yet a supported option for YearDescription\n[openstudio.setFileExtension] <0> Path p, '/usr/local/bundle/bundler/gems/openstudio-standards-f448df66933d/openstudio-standards/data/weather/CAN_BC_Victoria.717990_CWEC.ddy', has an unexpected file extension. Was expecting 'idf'.\n[openstudio.model.YearDescription] <1> 'UseWeatherFile' is not yet a supported option for YearDescription\n[openstudio.model.YearDescription] <1> 'UseWeatherFile' is not yet a supported option for YearDescription\n[openstudio.EpwFile] <0> Successive data points (1970-Jan-31 to 1960-Feb-01, ending on line 753) are greater than 1 day apart in EPW file '/usr/local/bundle/bundler/gems/openstudio-standards-f448df66933d/openstudio-standards/data/weather/CAN_BC_Victoria.717990_CWEC.epw'. Data will be treated as typical (TMY)\n[openstudio.setFileExtension] <0> Path p, '/usr/local/bundle/bundler/gems/openstudio-standards-f448df66933d/openstudio-standards/data/weather/CAN_BC_Victoria.717990_CWEC.ddy', has an unexpected file extension. Was expecting 'idf'.\n[openstudio.model.YearDescription] <1> 'UseWeatherFile' is not yet a supported option for YearDescription\n[openstudio.model.YearDescription] <1> 'UseWeatherFile' is not yet a supported option for YearDescription\n[openstudio.setFileExtension] <0> Path p, '/usr/local/bundle/bundler/gems/openstudio-standards-f448df66933d/openstudio-standards/data/weather/CAN_BC_Victoria.717990_CWEC.ddy', has an unexpected file extension. Was expecting 'idf'.\n[openstudio.model.YearDescription] <1> 'UseWeatherFile' is not yet a supported option for YearDescription\n[openstudio.model.YearDescription] <1> 'UseWeatherFile' is not yet a supported option for YearDescription\n[openstudio.EpwFile] <0> Successive data points (1970-Jan-31 to 1960-Feb-01, ending on line 753) are greater than 1 day apart in EPW file '/usr/local/bundle/bundler/gems/openstudio-standards-f448df66933d/openstudio-standards/data/weather/CAN_BC_Victoria.717990_CWEC.epw'. Data will be treated as typical (TMY)\n[openstudio.setFileExtension] <0> Path p, '/usr/local/bundle/bundler/gems/openstudio-standards-f448df66933d/openstudio-standards/data/weather/CAN_BC_Victoria.717990_CWEC.ddy', has an unexpected file extension. Was expecting 'idf'.\n[openstudio.model.YearDescription] <1> 'UseWeatherFile' is not yet a supported option for YearDescription\n[openstudio.model.YearDescription] <1> 'UseWeatherFile' is not yet a supported option for YearDescription\n[openstudio.setFileExtension] <0> Path p, '/usr/local/bundle/bundler/gems/openstudio-standards-f448df66933d/openstudio-standards/data/weather/CAN_BC_Victoria.717990_CWEC.ddy', has an unexpected file extension. Was expecting 'idf'.\n[openstudio.model.YearDescription] <1> 'UseWeatherFile' is not yet a supported option for YearDescription\n[openstudio.model.YearDescription] <1> 'UseWeatherFile' is not yet a supported option for YearDescription\n[openstudio.EpwFile] <0> Successive data points (1970-Jan-31 to 1960-Feb-01, ending on line 753) are greater than 1 day apart in EPW file '/usr/local/bundle/bundler/gems/openstudio-standards-f448df66933d/openstudio-standards/data/weather/CAN_BC_Victoria.717990_CWEC.epw'. Data will be treated as typical (TMY)\n[openstudio.setFileExtension] <0> Path p, '/usr/local/bundle/bundler/gems/openstudio-standards-f448df66933d/openstudio-standards/data/weather/CAN_BC_Victoria.717990_CWEC.ddy', has an unexpected file extension. Was expecting 'idf'.\n[openstudio.model.YearDescription] <1> 'UseWeatherFile' is not yet a supported option for YearDescription\n[openstudio.model.YearDescription] <1> 'UseWeatherFile' is not yet a supported option for YearDescription\n[openstudio.setFileExtension] <0> Path p, '/usr/local/bundle/bundler/gems/openstudio-standards-f448df66933d/openstudio-standards/data/weather/CAN_BC_Victoria.717990_CWEC.ddy', has an unexpected file extension. Was expecting 'idf'.\n[openstudio.model.YearDescription] <1> 'UseWeatherFile' is not yet a supported option for YearDescription\n[openstudio.model.YearDescription] <1> 'UseWeatherFile' is not yet a supported option for YearDescription\n[openstudio.standards.Fan] <0> For Fan Constant Volume 1, there is no greater nominal HP.  Use the efficiency of the largest motor category.\n[openstudio.standards.Fan] <0> For Fan Constant Volume 2, there is no greater nominal HP.  Use the efficiency of the largest motor category.\n[openstudio.standards.Fan] <0> For Fan Constant Volume 3, there is no greater nominal HP.  Use the efficiency of the largest motor category.\n[openstudio.standards.Fan] <0> For Fan Constant Volume 4, there is no greater nominal HP.  Use the efficiency of the largest motor category.\n[openstudio.standards.Fan] <0> For Fan Constant Volume 5, there is no greater nominal HP.  Use the efficiency of the largest motor category.\n",
            "step_errors" : [],
            "step_files" : [],
            "step_info" : [
               "Started adding geometry",
               "Finished adding geometry",
               "Started adding weather file for climate zone: NECB HDD Method.",
               "Template =",
               "Setting Back_Space to Space Function.Storage area",
               "Setting Core_Retail to Space Function.Retail - sales",
               "Setting Front_Retail to Space Function.Retail - sales",
               "Setting Point_Of_Sale to Space Function.Retail - sales",
               "Setting Front_Entry to Space Function.Lobby - elevator",
               "Started applying space types (loads)",
               "Space Function Lobby - elevator had no people, one has been created.",
               "Space Function Lobby - elevator set occupancy to 9.29 people/1000 ft^2.",
               "Space Function Lobby - elevator had no lights, one has been created.",
               "Space Function Lobby - elevator set LPD to 0.641025641 W/ft^2.",
               "Space Function Lobby - elevator had no electric equipment, one has been created.",
               "Space Function Lobby - elevator set electric EPD to 0.092902267 W/ft^2.",
               "Space Function Lobby - elevator had no ventilation specification, one has been created.",
               "Space Function Lobby - elevator set ventilation per area to 0.81 cfm/ft^2.",
               "Space Function Lobby - elevator had no infiltration objects, one has been created.",
               "Space Function Lobby - elevator set infiltration to 0.0 per ft^2 exterior surface area.",
               "Space Function Lobby - elevator set occupancy schedule to NECB-C-Occupancy.",
               "Space Function Lobby - elevator set occupant activity schedule to NECB-Activity.",
               "Space Function Lobby - elevator set lighting schedule to NECB-C-Lighting.",
               "Space Function Lobby - elevator set electric equipment schedule to NECB-C-Electric-Equipment.",
               "Space Function Lobby - elevator set infiltration schedule to Always On.",
               "Space Function Lobby - elevator set heating setpoint schedule to NECB-C-Thermostat Setpoint-Heating.",
               "Space Function Lobby - elevator set cooling setpoint schedule to NECB-C-Thermostat Setpoint-Cooling.",
               "Space Function Retail - sales had no people, one has been created.",
               "Space Function Retail - sales set occupancy to 3.1 people/1000 ft^2.",
               "Space Function Retail - sales had no lights, one has been created.",
               "Space Function Retail - sales set LPD to 1.681531029 W/ft^2.",
               "Space Function Retail - sales had no electric equipment, one has been created.",
               "Space Function Retail - sales set electric EPD to 0.232255667 W/ft^2.",
               "Space Function Retail - sales had no ventilation specification, one has been created.",
               "Space Function Retail - sales set ventilation per area to 0.233 cfm/ft^2.",
               "Space Function Retail - sales had no infiltration objects, one has been created.",
               "Space Function Retail - sales set infiltration to 0.0 per ft^2 exterior surface area.",
               "Space Function Retail - sales set occupancy schedule to NECB-C-Occupancy.",
               "Space Function Retail - sales set occupant activity schedule to NECB-Activity.",
               "Space Function Retail - sales set lighting schedule to NECB-C-Lighting.",
               "Space Function Retail - sales set electric equipment schedule to NECB-C-Electric-Equipment.",
               "Space Function Retail - sales set infiltration schedule to Always On.",
               "Space Function Retail - sales set heating setpoint schedule to NECB-C-Thermostat Setpoint-Heating.",
               "Space Function Retail - sales set cooling setpoint schedule to NECB-C-Thermostat Setpoint-Cooling.",
               "Space Function Storage area had no people, one has been created.",
               "Space Function Storage area set occupancy to 0.93 people/1000 ft^2.",
               "Space Function Storage area had no lights, one has been created.",
               "Space Function Storage area set LPD to 0.631735414 W/ft^2.",
               "Space Function Storage area had no electric equipment, one has been created.",
               "Space Function Storage area set electric EPD to 0.092902267 W/ft^2.",
               "Space Function Storage area had no ventilation specification, one has been created.",
               "Space Function Storage area set ventilation per area to 0.07 cfm/ft^2.",
               "Space Function Storage area had no infiltration objects, one has been created.",
               "Space Function Storage area set infiltration to 0.0 per ft^2 exterior surface area.",
               "Space Function Storage area set occupancy schedule to NECB-E-Occupancy.",
               "Space Function Storage area set occupant activity schedule to NECB-Activity.",
               "Space Function Storage area set lighting schedule to NECB-E-Lighting.",
               "Space Function Storage area set electric equipment schedule to NECB-E-Electric-Equipment.",
               "Space Function Storage area set infiltration schedule to Always On.",
               "Space Function Storage area set heating setpoint schedule to NECB-E-Thermostat Setpoint-Heating.",
               "Space Function Storage area set cooling setpoint schedule to NECB-E-Thermostat Setpoint-Cooling.",
               "Finished applying space types (loads)",
               "Started applying constructions",
               "Adding construction set: NECB 2011-NECB HDD Method-Retail--is_residentialNo",
               "Adding construction Typical Insulated Exterior Mass Floor R-15.63.",
               "Adding construction Typical Insulated Exterior Mass Wall R-12.5.",
               "Adding construction Typical Insulated Metal Building Roof R-20.41.",
               "Adding construction Typical Interior Floor.",
               "Adding construction Typical Interior Wall.",
               "Adding construction Typical Interior Ceiling.",
               "Adding construction Typical Insulated Carpeted 6in Slab Floor.",
               "Adding construction U 0.55 SHGC 0.31 Dbl Ref-D Tint 6mm/6mm Air.",
               "Adding construction Typical Insulated Metal Door R-1.43.",
               "Adding construction U 0.35 SHGC 0.35 Dbl LoE (e2-.1) Tint 6mm/13mm Air.",
               "Adding construction Typical Overhead Door R-2.0.",
               "Adding construction U 0.48 SHGC 0.40 Dbl Ref-D Clr 6mm/13mm.",
               "Adding construction Typical Interior Window.",
               "Adding construction Typical Interior Door.",
               "Adding construction Typical Interior Partition.",
               "Finished applying constructions",
               "WWR NonRes = 0%; window = 0 ft2, wall = 0 ft2.",
               "WWR Res = 0%; window = 0 ft2, wall = 0 ft2.",
               "WWR Semiheated = 0%; window = 0 ft2, wall = 0 ft2.",
               "The skylight to roof ratios (SRRs) are: NonRes: 1%, Res: 0%.",
               "Started creating thermal zones",
               "Finished creating thermal zones",
               "Running simulation /mnt/openstudio/analysis_4fef0e0f-5396-4c55-a6e1-2cd6803db3ab/data_point_42aad92d-2fc8-4310-a8a5-54d449f09cd5/run/000_create_prototype_building/output/RetailStandalone-NECB 2011-NECB HDD Method-CAN_BC_Victoria.717990_CWEC.epw/SR0.",
               "Finished run.",
               "Started Adding HVAC",
               "Finished adding HVAC",
               "Started Adding Service Water Heating",
               "Adding service water loop.",
               "Adding water heater.",
               "Template =",
               "Finished adding Service Water Heating",
               "Set sizing factors to 1.3 for heating and 1.3 for cooling.",
               "Running simulation /mnt/openstudio/analysis_4fef0e0f-5396-4c55-a6e1-2cd6803db3ab/data_point_42aad92d-2fc8-4310-a8a5-54d449f09cd5/run/000_create_prototype_building/output/RetailStandalone-NECB 2011-NECB HDD Method-CAN_BC_Victoria.717990_CWEC.epw/SR1.",
               "Finished run.",
               "Started applying multizone vav OA sizing.",
               "Finished applying multizone vav OA sizing.",
               "Started applying prototype HVAC assumptions.",
               "For Fan Constant Volume 1: allowed_hp = 5.67HP; motor eff = 61.5%; total fan eff = 40% based on 8282 cfm.",
               "For Fan Constant Volume 2: allowed_hp = 1.01HP; motor eff = 61.5%; total fan eff = 40% based on 302 cfm.",
               "For Fan Constant Volume 3: allowed_hp = 1.28HP; motor eff = 61.5%; total fan eff = 40% based on 1871 cfm.",
               "For Fan Constant Volume 4: allowed_hp = 1.28HP; motor eff = 61.5%; total fan eff = 40% based on 1876 cfm.",
               "For Fan Constant Volume 5: allowed_hp = 1.01HP; motor eff = 61.5%; total fan eff = 40% based on 1274 cfm.",
               "Sp-Back_Space Sys-4 Flr-1 Sch-E HPlcmt-north ZN NECB System 4 PSZ does not require an economizer because the total cooling capacity of 33973 Btu/hr is less than the minimum capacity of 68243 Btu/hr.",
               "Sp-Point_Of_Sale Sys-3 Flr-1 Sch-C HPlcmt-south ZN NECB System 3 PSZ does not require an economizer because the total cooling capacity of 49886 Btu/hr is less than the minimum capacity of 68243 Btu/hr.",
               "Sp-Core_Retail Sys-3 Flr-1 Sch-C HPlcmt-east ZN NECB System 3 PSZ requires an economizer because the total cooling capacity of 220769 Btu/hr exceeds the minimum capacity of 68243 Btu/hr.",
               "Sp-Front_Entry Sys-3 Flr-1 Sch-C HPlcmt-south ZN NECB System 3 PSZ does not require an economizer because the total cooling capacity of 8059 Btu/hr is less than the minimum capacity of 68243 Btu/hr.",
               "Sp-Front_Retail Sys-3 Flr-1 Sch-C HPlcmt-south ZN NECB System 3 PSZ does not require an economizer because the total cooling capacity of 50014 Btu/hr is less than the minimum capacity of 68243 Btu/hr.",
               "Finished applying prototype HVAC assumptions.",
               "Started applying HVAC efficiency standards.",
               "For Sp-Back_Space Sys-4 Flr-1 Sch-E HPlcmt-north ZN NECB System 4 PSZ, ERV not required based on 0% OA flow, design supply air flow of 1274cfm, and climate zone NECB HDD Method.",
               "For Sp-Back_Space Sys-4 Flr-1 Sch-E HPlcmt-north ZN NECB System 4 PSZ, ERV not required based on exhaust heat content.",
               "For NECB 2011 NECB HDD Method:  Sp-Back_Space Sys-4 Flr-1 Sch-E HPlcmt-north ZN NECB System 4 PSZ: DCV is not required for any system.",
               "For Sp-Back_Space Sys-4 Flr-1 Sch-E HPlcmt-north ZN NECB System 4 PSZ: Annual occupied hours = 3068 hr/yr, assuming a 0.15 occupancy threshold.  This schedule will be used as the HVAC operation schedule.",
               "For Sp-Back_Space Sys-4 Flr-1 Sch-E HPlcmt-north ZN NECB System 4 PSZ: Setting motorized OA damper schedule to Sp-Back_Space Sys-4 Flr-1 Sch-E HPlcmt-north ZN NECB System 4 PSZ Occ Sch.",
               "For Sp-Core_Retail Sys-3 Flr-1 Sch-C HPlcmt-east ZN NECB System 3 PSZ, ERV not required based on 0% OA flow, design supply air flow of 8282cfm, and climate zone NECB HDD Method.",
               "For Sp-Core_Retail Sys-3 Flr-1 Sch-C HPlcmt-east ZN NECB System 3 PSZ, ERV not required based on exhaust heat content.",
               "For NECB 2011 NECB HDD Method:  Sp-Core_Retail Sys-3 Flr-1 Sch-C HPlcmt-east ZN NECB System 3 PSZ: DCV is not required for any system.",
               "For Sp-Core_Retail Sys-3 Flr-1 Sch-C HPlcmt-east ZN NECB System 3 PSZ: Annual occupied hours = 4168 hr/yr, assuming a 0.15 occupancy threshold.  This schedule will be used as the HVAC operation schedule.",
               "For Sp-Core_Retail Sys-3 Flr-1 Sch-C HPlcmt-east ZN NECB System 3 PSZ: Because the system has an economizer, it requires a motorized OA damper.",
               "For Sp-Core_Retail Sys-3 Flr-1 Sch-C HPlcmt-east ZN NECB System 3 PSZ: Setting motorized OA damper schedule to Sp-Core_Retail Sys-3 Flr-1 Sch-C HPlcmt-east ZN NECB System 3 PSZ Occ Sch.",
               "For Sp-Front_Entry Sys-3 Flr-1 Sch-C HPlcmt-south ZN NECB System 3 PSZ, ERV not required based on 0% OA flow, design supply air flow of 302cfm, and climate zone NECB HDD Method.",
               "For Sp-Front_Entry Sys-3 Flr-1 Sch-C HPlcmt-south ZN NECB System 3 PSZ, ERV not required based on exhaust heat content.",
               "For NECB 2011 NECB HDD Method:  Sp-Front_Entry Sys-3 Flr-1 Sch-C HPlcmt-south ZN NECB System 3 PSZ: DCV is not required for any system.",
               "For Sp-Front_Entry Sys-3 Flr-1 Sch-C HPlcmt-south ZN NECB System 3 PSZ: Unoccupied fan shutoff not required because system fan HP of 0.31 HP is less than the minimum threshold of 0.75 HP.",
               "For Sp-Front_Entry Sys-3 Flr-1 Sch-C HPlcmt-south ZN NECB System 3 PSZ: Setting motorized OA damper schedule to Always On Discrete.",
               "For Sp-Front_Retail Sys-3 Flr-1 Sch-C HPlcmt-south ZN NECB System 3 PSZ, ERV not required based on 0% OA flow, design supply air flow of 1876cfm, and climate zone NECB HDD Method.",
               "For Sp-Front_Retail Sys-3 Flr-1 Sch-C HPlcmt-south ZN NECB System 3 PSZ, ERV not required based on exhaust heat content.",
               "For NECB 2011 NECB HDD Method:  Sp-Front_Retail Sys-3 Flr-1 Sch-C HPlcmt-south ZN NECB System 3 PSZ: DCV is not required for any system.",
               "For Sp-Front_Retail Sys-3 Flr-1 Sch-C HPlcmt-south ZN NECB System 3 PSZ: Annual occupied hours = 4168 hr/yr, assuming a 0.15 occupancy threshold.  This schedule will be used as the HVAC operation schedule.",
               "For Sp-Front_Retail Sys-3 Flr-1 Sch-C HPlcmt-south ZN NECB System 3 PSZ: Setting motorized OA damper schedule to Sp-Front_Retail Sys-3 Flr-1 Sch-C HPlcmt-south ZN NECB System 3 PSZ Occ Sch.",
               "For Sp-Point_Of_Sale Sys-3 Flr-1 Sch-C HPlcmt-south ZN NECB System 3 PSZ, ERV not required based on 0% OA flow, design supply air flow of 1871cfm, and climate zone NECB HDD Method.",
               "For Sp-Point_Of_Sale Sys-3 Flr-1 Sch-C HPlcmt-south ZN NECB System 3 PSZ, ERV not required based on exhaust heat content.",
               "For NECB 2011 NECB HDD Method:  Sp-Point_Of_Sale Sys-3 Flr-1 Sch-C HPlcmt-south ZN NECB System 3 PSZ: DCV is not required for any system.",
               "For Sp-Point_Of_Sale Sys-3 Flr-1 Sch-C HPlcmt-south ZN NECB System 3 PSZ: Annual occupied hours = 4168 hr/yr, assuming a 0.15 occupancy threshold.  This schedule will be used as the HVAC operation schedule.",
               "For Sp-Point_Of_Sale Sys-3 Flr-1 Sch-C HPlcmt-south ZN NECB System 3 PSZ: Setting motorized OA damper schedule to Sp-Point_Of_Sale Sys-3 Flr-1 Sch-C HPlcmt-south ZN NECB System 3 PSZ Occ Sch.",
               "For Fan Constant Volume 1: motor nameplate = 5HP, motor eff = 61.5%.",
               "For Fan Constant Volume 2: motor nameplate = 0.18832315857409535HP, motor eff = 61.5%.",
               "For Fan Constant Volume 3: motor nameplate = 1.1656933717680689HP, motor eff = 61.5%.",
               "For Fan Constant Volume 4: motor nameplate = 1.1686914486383972HP, motor eff = 61.5%.",
               "For Fan Constant Volume 5: motor nameplate = 0.7938678524940375HP, motor eff = 61.5%.",
               "For Service Water Loop Pump: brake hp = 0.0HP, motor nameplate = 0.1HP, motor eff = 70.0%.",
               "For Pump Variable Speed 1: brake hp = 0.34HP, motor nameplate = 1.0HP, motor eff = 85.5%.",
               "For NECB 2011: Coil Cooling DX Single Speed 1: AirCooled All Other Single Package Capacity = 221kBtu/hr; EER = 9.7",
               "For NECB 2011: Coil Cooling DX Single Speed 2: AirCooled All Other Single Package Capacity = 8kBtu/hr; SEER = 14.0",
               "For NECB 2011: Coil Cooling DX Single Speed 3: AirCooled All Other Single Package Capacity = 50kBtu/hr; SEER = 14.0",
               "For NECB 2011: Coil Cooling DX Single Speed 4: AirCooled All Other Single Package Capacity = 50kBtu/hr; SEER = 14.0",
               "For NECB 2011: Coil Cooling DX Single Speed 5: AirCooled All Other Single Package Capacity = 34kBtu/hr; SEER = 14.0",
               "For NECB 2011: Primary Boiler: Gas Hot Water Capacity = 256kBtu/hr; AFUE = 0.85",
               "For NECB 2011: Secondary Boiler: Gas Hot Water Capacity = 0kBtu/hr; AFUE = 0.85",
               "For NECB 2011: 40.0gal NaturalGas Water Heater - 40kBtu/hr 0.82 Therm Eff; thermal efficiency = 0.82, skin-loss UA = 6Btu/hr",
               "Finished applying HVAC efficiency standards.",
               "Started adding daylighting controls.",
               "For Back_Space, daylighting control not applicable because no exterior fenestration is present.",
               "Finished adding daylighting controls.",
               "Total Time = 53sec."
[...]
E1bbOiatuya1t+Ormn7W9A1bX9jXdO6HZelaZqNTo9JZ49Jp8+kM2DS2WfSOWDSOWTSWbnn3kqIK6IdrpB2uGLa4QpqhyuqHa6wdrji2uEKbIcrsl2uyHbZ1mquyHa5Its1imz97mgrUtWbo1nIkGeoems0Cxly3ldvjGYhQ8756m3RLGTI+W7RFM1GhymO6TRm0RHNRocplOkcZtEOzUaHKZrpBGbRC81mHWSKZzp7WTRCs9Fhimc6dVXvgrYiY9EEzUaHPD0WLdBsdMjpbtEAzUaHnO4W7c9sdMjpbtP8zEqIK6LpDGbT+cxKiCuo6SRm0/bMSogrruk8ZtPzzGpl5IpsOpXZNDyzEuKKbDqbodsZup2h29kzQnQ7Uxu6naHbGbqdlWzodoZuZ0ZHhW5nK/4G70e3s6cbup09bjX8uOobawoAHOAABzjAAQ5wgAMc4AAHOFuP8431CgANaEADGtCABjSgAQ1oQAOa7aH5y/QoAA5wgAMc4AAHOMABDnCAA5zqfuh2ttjQ7WzZ7WywHd3ODrag29nBBruddftM7c4shHpcQntcQn0uoQGX0D6X0AGX0CGX0J/utrdRYotthy24HbbodtjC22GLb4ctwB22CHfYQtxhi3GXLcZdvvWbLcZdthh3zWLcpAvaUy2bNmjVdeizZNMIrboOvQrYtEKrrkOvADbN0Krr0LPfqh2ahRBXRJekN6uOaBZCXEFdktusmqJZCHHFdUlis+qLZrEyckV2SVazao1mIcQV2SUpzaY72lMdq/ZoFkL0KbJqkGYhRE9+qxZpFkL05LdqkmYhRE9+uzZpNkpssV2S2ew6pdkosYV3SXKza5Zmo8QW4SX5za5fms1ayRbjJSnOrmWajRJbjJdkOXRNQ9c0dE17RoiuaWpD1zR0TUPXtJINXdPQNc3oqNA1bcXf4P3omvZ0Q9e0x62GH2l9Y80FgAMc4AAHOMABDnCAAxzgAGfrcb6xngOgAQ1oQAMa0IAGNKABDWhAsz00f5leB8ABDnCAAxzgAAc4wAEOcIBT3Q9d0xYbuqYtu6btb0fXtMMt6Jp2uLGuaYPintCqHW64hHpcQntcQn0uoQGX0D6X0AGX0CGX0MrN93ZKbLHtsAW3wxbdDlt4O2zx7bAFuMMW4Q5biDtsMe6yxbjLt36zxbjLFuOuWYzrd01b1areNc1Ghz5L1bum2ejQq0D1rmk2OvQKUL1rmo0OPfstuqZZCXFFdEl6s+iaZiXEFdQluc2ia5qVEFdclyQ2i65pVisjV2SXZDWLrmlWQlyRXZLSqndNW9Wx6JpmJUSfIouuaVZC9OS36JpmJURPfouuaVZC9OS36Zpmp8QW2yWZzaZrmp0SW3iXJDebrml2SmwRXpLfbLqm2a2VbDFekuJsuqbZKbHFeEmWQ9c0dE1D17RnhOiapjZ0TUPXNHRNK9nQNQ1d04yOCl3TVvwN3o+uaU83dE173Gr4kdY31lwAOMABDnCAAxzgAAc4wAEOcLYe5xvrOQAa0IAGNKABDWhAAxrQgAY020Pzl+l1ABzgAAc4wAEOcIADHOAABzjV/dA1bbGha9qya9rBVnRN2+t++13TcsZNdU3rdlyWpmk2Oj0mnT0mnT6TzoBJZ59J54BJ55BJZ+Weeyshroh2uELa4YpphyuoHa6odrjC2uGKa4crsB2uyHa5IttlW6u5ItvlimzXKLL1u6OtSFVvjmYhQ56h6q3RLGTIeV+9MZqFDDnnq7dFs5Ah57tFUzQbHaY4ptOYRUc0Gx2mUKZzmEU7NBsdpmimE5hFLzSbdZApnunsZdEIzUaHKZ7p1FW9C9qKjEUTNBsd8vRYtECz0SGnu0UDNBsdcrpbtD+z0SGnu03zMyshroimM5hN5zMrIa6gppOYTdszKyGuuKbzmE3PM6uVkSuy6VRm0/DMSogrsulshm5n6HaGbmfPCNHtTG3odoZuZ+h2VrKh2xm6nRkdFbqdrfgbvB/dzp5u6Hb2uNXw46pvrCkAcIADHOAABzjAAQ5wgAMc4Gw9zjfWKwA0oAENaEADGtCABjSgAQ1otofmL9OjADjAAQ5wgAMc4AAHOMABDnCq+6Hb2WJDt7Nlt7PD7eh25mxBtzNnY93OnL1up/tkc/ZYmp8xyvbqkd2rR7Zfj+ygHtn9emQP6pE9rEd25V5/Tt2a5plT00RzapppTk1Tzalprjk1TTanptnm1DTdnJrmm1vTfHPryms1zTe3pvnm2sw3/a5yZcrVm8zxqeqe3eot6PhUdVey6g3q+FR1V7Hq7ev4VHVXMIvmdoyy9cwu7XLBohMeo2w9E0y7VrBom8coW88c0y4ULHrsMWaFemaZdpVg0ZCPUbaeWaZdIlTv3lematHMj1FW99RatPpjlNVdwCwaATLK6i5gFm0CGWV1FzCbJoKcujXNM+1KwabjIKduTVNNu1iwaU/IqVvTbNOuF2x6GXLmiZrmm3bJYNP4kFO3pvmmXTWgSyK6JKJL4jNCdElUG7okoksiuiSWbOiSiC6JRkeFLokr/gbvR5fEpxu6JD5uNfwo8xtrJgIc4AAHOMABDnCAAxzgAAc4W4/zjfUYAQ1oQAMa0IAGNKABDWhAA5rtofnL9DYBDnCAAxzgAAc4wAEOcIADnOp+X6FL4gd5O5GJl00TKZpnO2ia+G01TZTJXTCU4l+eiryf43gi1AVTv3Pe655tRwNFdwsaKLqba6Co/l61UxOTTo9JZ49Jp8+kM2DS2WfSOWDSOWTSWW0wYCPEFdEOV0g7XDHtcAW1wxXVDldYO1xx7XAFtsMV2S5XZLtsazVXZLtcke0aRbZBY7+nUhad/KrLkGfIoldfdRly3lt046suQ855i3571WXI+W7TUc9ChymO6TRm0yTPQocplOkcZtP3zkKHKZrpBGbTys5iHWSKZzp72XSns9Bhimc6dVk0nHsqY9NhzkKHPD02PeQsdMjpbtMlzkKHnO42feAsdMjpbtXpzUaIK6LpDGbVvM1GiCuo6SRm1Y/NRogrruk8ZtVizWZl5IpsOpVZdU2zEeKKbDqbPRP6LQniJMhmwhFt0TyfRjuqJdWg/X9e1O467eLvb+Sw3XOoNNdd+Yfeq1d7e4eHDBZu/Ra9+i326rfo128xqN9iv36Lg/otDuu3WMnsdXlsYH47G5jgzgZmuLOBKe5sYI47G5jkzgZmubOBae5sYJ67G5jn7iby+AbmubuBee5Wm+du4eFllEdXr6zq9Vz3YMBgQV8NNgv6YrBZ0NeCzYJectks6BWXzYJecNks6PWWzYJebtksSr655vOgv/rj86C/FeTzoL8w5PPYwBQvKav4PDYwyUvKKj6PDUzzkrKKL//RZRWfxyby+AYSeUlZxedRbZ73lMdZEhAe7qFeWeU4+/u9HoMFfTXYLOiLwWZBXws2C3rJZbOgV1w2C3rBZbOg11s2C/q3UWwWJWUVnwddVvF50GUVnwddVvF50D/R4vOgf5fI50H/ZJHPg/41I58H/UNHPo8NzPOSsorPYxN5fAOJvKSs4vOolsr3lMeH8ZTyONArqw7zrf+awYK+GmwW9MVgs6CvBZsFXVaxWdBlFZsFXVaxWdBlFZsFvdyyWZSUVXwedFnF50GXVXwedFnF50GXVXwedFnF50GXVXwedFnF50GXVXweG5jnJWUVn8cm8vgGEnlJWcXnUS2V95XHv6RPeezrlVVv3pyc7O8zWNBXg82CvhhsFvS1YLOgyyo2C7qsYrOgyyo2C7qsYrOgl1s2i5Kyis+DLqv4POiyis+DLqv4POiyis+DLqv4POiyis+DLqv4POiyis9jA/O8pKzi89hEHt9AIi8pq/g8qqXyQVG6TSXlMdArq05OBgMWC/pqsFnQF4PNgr4WbBZ0WcVmQZdVbBZ0WcVmQZdVbBb0cstmUVJW8XnQZRWfB11W8XnQZRWfB11W8XnQZRWfB11W8XnQZRWfB11W8XlsYJ6XlFV8HpvI4xtI5CVlFZ9HtVS+rzx+iamfxbt9vbLq4MB1+30GC/pqsFnQF4PNgr4WbBZ0WcVmQZdVbBZ0WcVmQZdVbBZlfaeYLEqbrXF5lHWr4vIoa2TF5VHW44rLo6z9FZdHWc83Lo+ydnBcHmWd4rg8yprIcXlsYJ6XlFV8HpvI4xtI5CVlFZ/H+lT+UafD66InszgWkbxfNpAt+sY207tRq+gAu7ZV7LKxcyqz1/E08tNmv9sSjtNviZ76m9vXazf7kGM8NqX2/RMvk6M4mb16CNJ5W+TH49foHp0LvEt8mbyfqi7F2jsqjtkqxy/SS6eJnGOoRsuL815ze24MYxjDGMYwhjGMYQxjGMMYxjCGMYxhDGMYwxjGMIYxjGEMYxjDGMYwhjGMYQxjGMMYxjCGMYxhDGMYwxjGMIYxjGEMYxjDGMYwhjGMYQz/Tw3POvGdTJLAl7946sZap9O1vF9V3Rqbrt4aey6TQKaL22sbreUNxJMwzjphEMm1t8imX7pPd/2dtWmnePT8JA69LIijHKqRZnLSvpLXcSIbenc+/yxHMvJXD2j+WnPQbYmeunO5q25kVn80QnmdKbA10kvZzuVIZqdRps5PbnE9jYYFaXNH/LFGYkkoH/e+WHsvt9qCa9HMxkHaSYuromektic7dfLzd+oNx83/ApuqLfHVreM5+0L3chKngRJ8k7+sczTLTcl8gSqJ782QllhB5Es1H9pOy3Dv5XZTdcfrQIYq3pqLczqfJ6Mknk6kL77/Xvxt8fpD53LspYv739UE23k6OvviaH5COt5odKY8OqGMRtlYvBSu+KdovArDhjhafUcaBkPZbDs7F92PO2vn27MjiRPRvMkPpfuDuMltFqG68FWv/T1fccwvkNpUGC/0Lm4+dj7JmTg+Pp6fvGqKherist+YHupyu0qk96nKzp8N9zF9vzpfi6M7VmGtgmERKUUjh86ll6bBKJL+iWoRkV4UZ/JjtVO5vNCTaTpuVr0W+SU9ml/P6jMpDI90jrKj3lnVJc2S+JPU85m/t6pTPPGGQTbTs1q8ufJRFRZLq6oqy4VkdVmpMj2MFx+1Lafz6sIj2sIxVTOZbvqsn1tFVtV6/+d1NYXadnfFb79/EP9+9/t7cf7u/Yeffv1R/Pzux59OxNvT96d6Amf5qi0fPFWiiSwWaZxkIpre5nEwFEVLk1R46TAvXoJopKG4PPdK50lm9lriSn9xSWQ2TSIx8ZJUnoWxlzU9teTv5JfyyWtXxWtaJ3N9ifbEdnEI64Q/19vp5bH+LKZ7MdmbL3x57U3DTEySOF/D5IuWePHdwcHJyenpi5obzwAHOMABDnCAAxzgAAc4wAHO/yaOSKe3+T+BhS/Vi8L3ZoookT5oQAMa0IAGNKABDWhAAxrQgKac5r74adafaK7CqQQOcIADHOAABzjAAQ5wgAMc4FTBeXxuoKOeG3g+pZ4b2HOKb9hevdrbOzwEKUhBClKQghSkIAUpSEEKUpCCFKTbQeoWpF5GkXYL0l7PdQ8GIAUpSEEKUpCCFKQgBSlIQQpSkIJ0O0h7ivQsCQhS97AgdZz9/V4PpCAFKUhBClKQghSkIAUpSEEKUpBuB+meIv0wnlKkBwXpYb71X4MUpCAFKUhBClKQghSkIAUpSEEK0u0g7SvSf0mfIt0vSN+8OTnZ3wcpSEEKUpCCFKQgBSlIQQpSkIIUpNtBOig+mZhKinRQkJ6cDAYgBSlIQQpSkIIUpCAFKUhBClKQgnRbSPcV6S8x1VnQ7RekBweu2++DFKQgBSlIQQpSkIIUpCAFKUhBCtKNkS5R/MS7b64Ve+hkQRbK87E3kZ1MPmTNF2/jaZKux5g93/NNcCujNIijUKaFwhqJ3V3xyveFJwolcR9kY5HGt1L4vTV7pnejjjeZyMhvNpR3Y2fNDsut42VZ0mw8NFpi0DXcaZbv5OrvlGazUM7x2l40HMdJvn8jlNcGtAuN6zjK2vcyGI0zpXEVh76+xvzanE/ar73hp8vziTeU4nyWtvfEWZi0HXE+HLdPxdvfwuFt1o7iJL8I//lV/Hp68lq9LZO3Yk/8dv4f8W44VO99sVN2WV/upsMkmGT/IN/zctcP7r48TO5Di+VaIvCPG0MV8yf5afKCSCaXe72GKM7dccMP0knozY6CKMyH2ldhPPz0Q4Pmy0XnhyCy2STfX52+3Rvvzpu/Wrqn2u68RIWnOBZ+cDsJZSeS9+d3o2bju+eMLbHX7RZ/rJ1uStb3Mi/XvfijEXpXMmwcNXx57U3DTEyS+DoIZaM1H7l8aBw5nW6rceeFU7n4+1CtSvk++UJzcnJ62vjc0tJxmXR6TDp7TDp9Jp0Bk84+k84Bk84hk47T5RLiimiHK6Qdrph2uILa4YpqhyusHa64drgC2+GKbJcrsl22tZorsl2uyHaNIluk09vblcdUa2W0RPoGMuQ5MpMhz5CZDHl+zGTIeW8mQ856MxlyzpvJkDPeTIac72YydCIz1GGKYzqNGeowRTKdxAx1mGKZTmGGOkzRTCcwQx2meKbTl6EO17rMFM907jLU0Y/n+yDKzNPWlXpJX4c8PYY65Okx1CFPj6EOOd0NdcjpbqhDTndDHXK6G+qQ091Qh85fpkJcEU1nMFMhrpimc5ipEFdU01nMVIgrruk8ZirEFdl0JjMVYluruSKbTmamQvqR/fi9xdrnClNprrvyD735g4cZLNz6LXr1W+zVb9Gv32JQv8V+/RYH9Vsc1m+xktnr8tjA/C75YJbPg/5ki8+D/tCLz4P+pJfPg/4QmM+D/nyYz4P+6JjPg/5UmS//bWCeu5vI4xtI5O4GMrlbLZWvfXyjXlk1f74jgwV9Ndgs6IvBZkFfCzYLuqxis6DLKjYLuqxis6DLKjYLuqxisyj55prPg/7qj8+DLqv4POiyis+DLqv4POiyis+DLqv4POiyis+DLqv4POiyii//bWCel3zFz+exgUReUlbxeVRL5WufkqVXVs0fo8VgQV8NNgv6YrBZ0NeCzYIuq9gs6LKKzYIuq9gs6LKKzYIuq9gsSsoqPg96ueXzoMsqPg+6rOLzoMsqPg+6rOLzoMsqPg+6rOLzoMsqPg+6rOLLfxuY5yVlFZ/HBhJ5SVnF51Etla99GIleWTV/WgmDBX012Czoi8FmQV8LNgu6rGKzoMsqNgu6rGKzoMsqNgu6rGKzKCmr+Dzo5ZbPgy6r+DzosorPgy6r+DzosorPgy6r+DzosorPgy6r+Dzosoov/21gnpeUVXweG0jkJWUVn0e1VL6257teWTVvCs9gQV8NNgv6YrBZ0NeCzYIuq9gs6LKKzYIuq9gs6LKKzYIuq9gsSsoqPg96ueXzoMsqPg+6rOLzoMsqPg+6rOLzoMsqPg+6rOLzoMsqPg+6rOLLfxuY5yVlFZ/HBhJ5SVnF51Etla9tratXVs177zJY0FeDzYK+GGwW9LVgs6DLKjYLuqxis6DLKjYLuqxis6DLKjaLkrKKz4Nebvk86LKKz4Muq/g86LKKz4Muq/g86LKKz4Muq/g86LKKz4Muq/jy3wbmeUlZxeexgUReUlbxeVRL5Ws7GOqVVfMWhwwW9NVgs6AvBpsFfS3YLOiyis2CLqvYLOiyis2CLqvYLOiyis2itNkalwe93PJ5lDWy4vIo63HF5VHW/orLo6znG5dHWTs4Lo+yTnFcHmVN5Lg8yvrLceW/Dczz0q50XB4bSOQlZRWfx/pU/lGnw+uiebM4FpG8XzaQLfrGNtO7UavoALu2VeyyA3Qqs9fxNPLTZr/bEo7Tb4me+pvb12s3+5BjPDa29v0TL5OjOJm9egjSeQflx+PXaDOdC7xLfJm8n6qGxto7Ko7ZKscv0kuniZxjqJ7Mi/Nec4tvDGMYwxjGMIYxjGEMYxjDGMYwhjGMYQxjGMMYxjCGMYxhDGMYwxjGMIYxjGEMYxjDGMYwhjGMYQxjGMMYxjCGMYxhDGMYwxjGMIYxjGEM/08NzzrxnUySwJe/eOrGWqfTtbxfVd0am67eGnsuk0Cmi9trG63lDcSTMM46YRDJtbfIpl+6T3f9nbVpp3j0/CQOvSyIoxyqkWZy0r6S13EiG3p3Pv8sRzLyVw9o/lpz0G2JnrpzuatuZFZ/NEJ5nSmwNdJL2c7lSGanUabOT25xPY2GBWlzR/yxRmJJKB/3vlh7L7fagmvRzMZB2kmLq6JnpLYnO3Xy83fqDcfN/wKbqi3x1a3jOftC93ISp4ESfJO/rHM0y03JfIEqie/NkJZYQeRLNR/aTstw7+V2U3XH60CGKt6ai3M6nyejJJ5OpC++/178bfH6Q+dy7KWL+9/VBNt5Ojr74mh+QjreaHSmPDqhjEbZWLwUrvinaLwKw4Y4Wn1HGgZD2Ww7Oxfdjztr59uzI4kT0bzJD6X7g7jJbRahuvBVr/09X3HML5DaVBgv9C5uPnY+yZk4Pj6en7xqioXq4rLfmB7qcrtKpPepys6fDfcxfb86X4ujO1ZhrYJhESlFI4fOpZemwSiS/olqEZFeFGfyY7VTubzQk2k6bla9FvklPZpfz+ozKQyPdI6yo95Z1SXNkviT1POZv7eqUzzxhkE207NavLnyURUWS6uqKsuFZHVZqTI9jBcftS2n8+rCI9rCMVUzmW76rJ9bRVbVev/ndTWF2nZ3xW+/fxD/fvf7e3H+7v2Hn379Ufz87sefTsTb0/enegJn+aotHzxVooksFmmcZCKa3uZxMBRFS5NUeOkwL16CaKShuDz3SudJZvZa4kp/cUlkNk0iMfGSVJ6FsZc1PbXk7+SX8slrV8VrWidzfYn2xHZxCOuEP9fb6eWx/iymezHZmy98ee1Nw0xMkjhfw+SLlnjx3cHBycnp6YuaG88ABzjAAQ5wgAMc4AAHOMABzv8mjkint/k/gYUv1YvC92aKKJE+aEADGtCABjSgAQ1oQAMa0ICmnOa++GnWn2iuwqkEDnCAAxzgAAc4wAEOcIADHOBUwXl8bqCjnht4PqWeG9hzim/YXr3a2zs8BClIQQpSkIIUpCAFKUhBClKQghSk20HqFqReRpF2C9Jez3UPBiAFKUhBClKQghSkIAUpSEEKUpCCdDtIe4r0LAkIUvewIHWc/f1eD6QgBSlIQQpSkIIUpCAFKUhBClKQbgfpniL9MJ5SpAcF6WG+9V+DFKQgBSlIQQpSkIIUpCAFKUhBCtLtIO0r0n9JnyLdL0jfvDk52d8HKUhBClKQghSkIAUpSEEKUpCCFKTbQTooPpmYSop0UJCenAwGIAUpSEEKUpCCFKQgBSlIQQpSkIJ0W0j3FekvMdVZ0O0XpAcHrtvvgxSkIAUpSEEKUpCCFKQgBSlIQQrSjZEuUfzEu2+uFXvoZEEWyvOxN5GdTD5kzRdv42mSrseYPd/zTXArozSIo1CmhcIaid1d8cr3hScKJXEfZGORxrdS+L01e6Z3o443mcjIbzaUd2NnzQ7LreNlWdJsPDRaYtA13GmW7+Tq75Rms1DO8dpeNBzHSb5/I5TXBrQLjes4ytr3MhiNM6VxFYe+vsb82pxP2idxIi/fy8wLQnE+S9s9cRYmbUecD8ftE/H2t3B4m7Wll2biP7+KX09PXqt3ZfJW9MRv5/8R74ZD9dYXO2WX9eVuOkyCSfYP8j0vd/3g7svD5D60WK4lAv+4MVQxf5KfJi+IZHK5t9cQxbk7bvhBOgm92VEQhflQ+yqMh59+aNB8uej8EEQ2m+T7q9O3e+PdefNXS/dU252XqPAUx8IPbieh7ETy/vxu1Gx895yxJfa63eKPtdNNyfpe5uW6F380Qu9Kho2jhi+vvWmYiUkSXwehbLTmI5cPjSOn02017rxwKhd/H6pVKd8nX2hOTk5PG59bWjouk06PSWePSafPpDNg0tln0jlg0jlk0nG6XEJcEe1whbTDFdMOV1A7XFHtcIW1wxXXDldgO1yR7XJFtsu2VnNFtssV2a5RZIt0enu78phqrYyWSN9AhjxHZjLkGTKTIc+PmQw5781kyFlvJkPOeTMZcsabyZDz3UyGTmSGOkxxTKcxQx2mSKaTmKEOUyzTKcxQhyma6QRmqMMUz3T6MtThWpeZ4pnOXYY6+vF8H0SZedq6Ui/p65Cnx1CHPD2GOuTpMdQhp7uhDjndDXXI6W6oQ053Qx1yuhvq0PnLVIgroukMZirEFdN0DjMV4opqOouZCnHFNZ3HTIW4IpvOZKZCbGs1V2TTycxUSD+yH7+3WPtcYSrNdVf+oTd/8DCDhVu/Ra9+i736Lfr1Wwzqt9iv3+KgfovD+i1WMntdHhuY3yUfzPJ50J9s8XnQH3rxedCf9PJ50B8C83nQnw/zedAfHfN50J8q8+W/DcxzdxN5fAOJ3N1AJnerpfK1j2/UK6vmz3dksKCvBpsFfTHYLOhrwWZBl1VsFnRZxWZBl1VsFnRZxWZBl1VsFiXfXPN50F/98XnQZRWfB11W8XnQZRWfB11W8XnQZRWfB11W8XnQZRWfB11W8eW/Dczzkq/4+Tw2kMhLyio+j2qpfO1TsvTKqvljtBgs6KvBZkFfDDYL+lqwWdBlFZsFXVaxWdBlFZsFXVaxWdBlFZtFSVnF50Evt3wedFnF50GXVXwedFnF50GXVXwedFnF50GXVXwedFnF50GXVXz5bwPzvKSs4vPYQCIvKav4PKql8rUPI9Erq+ZPK2GwoK8GmwV9Mdgs6GvBZkGXVWwWdFnFZkGXVWwWdFnFZkGXVWwWJWUVnwe93PJ50GUVnwddVvF50GUVnwddVvF50GUVnwddVvF50GUVnwddVvHlvw3M85Kyis9jA4m8pKzi86iWytf2fNcrq+ZN4Rks6KvBZkFfDDYL+lqwWdBlFZsFXVaxWdBlFZsFXVaxWdBlFZtFSVnF50Evt3wedFnF50GXVXwedFnF50GXVXwedFnF50GXVXwedFnF50GXVXz5bwPzvKSs4vPYQCIvKav4PKql8rWtdfXKqnnvXQYL+mqwWdAXg82CvhZsFnRZxWZBl1VsFnRZxWZBl1VsFnRZxWZRUlbxedDLLZ8HXVbxedBlFZ8HXVbxedBlFZ8HXVbxedBlFZ8HXVbxedBlFV/+28A8Lymr+Dw2kMhLyio+j2qpfG0HQ72yat7ikMGCvhpsFvTFYLOgrwWbBV1WsVnQZRWbBV1WsVnQZRWbBV1WsVmUNlvj8qCXWz6PskZWXB5lPa64PMraX3F5lPV84/IoawfH5VHWKY7Lo6yJHJdHWX85rvy3gXle2pWOy2MDibykrOLzWJ/KP+p0eF00bxbHIpL3ywayRd/YZno3ahUdYNe2il12gE5l9jqeRn7a7HdbwnH6LdFTf3P7eu1mH3KMx8bWvn/iZXIUJ7NXD0E676D8ePwabaZzgXeJL5P3U9XQWHtHxTFb5fhFeuk0kXMM1ZN5cd5rbvGNYQxjGMMYxjCGMYxhDGMYwxjGMIYxjGEMYxjDGMYwhjGMYQxjGMMYxjCGMYxhDGMYwxjGMIYxjGEMYxjDGMYwhjGMYQxjGMMYxjCGMYzh/6nhWSe+k0kS+PIXT91Y63S6lverqltj09VbY89lEsh0cXtto7W8gXgSxlknDCK59hbZ9Ev36a6/szbtFI+en8ShlwVxlEM10kxO2lfyOk5kQ+/O55/lSEb+6gHNX2sOui3RU3cud9WNzOqPRiivMwW2Rnop27kcyew0ytT5yS2up9GwIG3uiD/WSCwJ5ePeF2vv5VZbcC2a2ThIO2lxVfSM1PZkp05+/k694bj5X2BTtSW+unU8Z1/oXk7iNFCCb/KXdY5muSmZL1Al8b0Z0hIriHyp5kPbaRnuvdxuqu54HchQxVtzcU7n82SUxNOJ9MX334u/LV5/6FyOvXRx/7uaYDtPR2dfHM1PSMcbjc6URyeU0Sgbi5fCFf8UjVdh2BBHq+9Iw2Aom21n56L7cWftfHt2JHEimjf5oXR/EDe5zSJUF77qtb/nK475BVKbCuOF3sXNx84nORPHx8fzk1dNsVBdXPYb00NdbleJ9D5V2fmz4T6m71fna3F0xyqsVTAsIqVo5NC59NI0GEXSP1EtItKL4kx+rHYqlxd6Mk3HzarXIr+kR/PrWX0mheGRzlF21DuruqRZEn+Sej7z91Z1iifeMMhmelaLN1c+qsJiaVVVZbmQrC4rVaaH8eKjtuV0Xl14RFs4pmom002f9XOryKpa7/+8rqZQ2+6u+O33D+Lf735/L87fvf/w068/ip/f/fjTiXh7+v5UT+AsX7Xlg6dKNJHFIo2TTETT2zwOhqJoaZIKLx3mxUsQjTQUl+de6TzJzF5LXOkvLonMpkkkJl6SyrMw9rKmp5b8nfxSPnntqnhN62SuL9Ge2C4OYZ3w53o7vTzWn8V0LyZ784Uvr71pmIlJEudrmHzREi++Ozg4OTk9fVFz4xngAAc4wAEOcIADHOAABzjA+d/EEen0Nv8nsPClelH43kwRJdIHDWhAAxrQgAY0oAENaEADGtCU09wXP836E81VOJXAAQ5wgAMc4AAHOMABDnCAA5wqOI/PDXTUcwPPp9RzA3tO8Q3bq1d7e4eHIAUpSEEKUpCCFKQgBSlIQQpSkIJ0O0jdgtTLKNJuQdrrue7BAKQgBSlIQQpSkIIUpCAFKUhBClKQbgdpT5GeJQFB6h4WpI6zv9/rgRSkIAUpSEEKUpCCFKQgBSlIQQrS7SDdU6QfxlOK9KAgPcy3/muQghSkIAUpSEEKUpCCFKQgBSlIQbodpH1F+i/pU6T7BembNycn+/sgBSlIQQpSkIIUpCAFKUhBClKQgnQ7SAfFJxNTSZEOCtKTk8EApCAFKUhBClKQghSkIAUpSEEKUpBuC+m+Iv0lpjoLuv2C9ODAdft9kIIUpCAFKUhBClKQghSkIAUpSEG6MdIlip949821Yg+dLMhCeT72JrKTyYes+eJtPE3S9Riz53u+CW5llAZxFMq0UFgjsbsrXvm+8EShJO6DbCzS+FYKv7dmz/Ru1PEmExn5zYbybuys2WG5dbwsS5qNh0ZLDLqGO83ynVz9ndJsFso5XtuLhuM4yfdvhPLagHahcR1HWfteBqNxpjSu4tDX15hfm/NJ+yzJZS7fy8wLQnE+S9s9cRYmbUecD8ftE/H2t3B4m7XTeJpfhv/8Kn49PXmt3pbJW9ETv53/R7wbDtV7X+yUXdiXu+kwCSbZP8j3vNz1g7svD5P70GK5lgj848ZQRf1JfoReEMnkcq/fEMXZO274QToJvdlREIX5UPsqjIeffmjQfLno/BBENpvk+6sTuHvj3XnzV0v3VNudl6gAFcfCD24noexE8v78btRsfPecsSX2ut3ij7UTTsn6Xubluhd/NELvSoaNo4Yvr71pmIlJEl8HoWy05iOXD40jp9NtNe68cCoXfx+qdSnfJ19qTk5OTxufW1o6LpNOj0lnj0mnz6QzYNLZZ9I5YNI5ZNJxulxCXBHtcIW0wxXTDldQO1xR7XCFtcMV1w5XYDtcke1yRbbLtlZzRbbLFdmuUWSLdHp7u/Kgaq2MlkjfQIY8R2Yy5BkykyHPj5kMOe/NZMhZbyZDznkzGXLGm8mQ891Mhk5khjpMcUynMUMdpkimk5ihDlMs0ynMUIcpmukEZqjDFM90+jLU4VqXmeKZzl2GOvrxfB9EmXnaulIv6euQp8dQhzw9hjrk6THUIae7oQ453Q11yOluqENOd0Mdcrob6tD5y1SIK6LpDGYqxBXTdA4zFeKKajqLmQpxxTWdx0yFuCKbzmSmQmxrNVdk08nMVEg/sh+/uVj7ZGEqzXVX/qE3f/Qwg4Vbv0Wvfou9+i369VsM6rfYr9/ioH6Lw/otVjJ7XR4bmN8lH8zyedCfbPF50B968XnQn/TyedAfAvN50J8P83nQHx3zedCfKvPlvw3Mc3cTeXwDidzdQCZ3q6XytQ9w1Cur5k94ZLCgrwabBX0x2Czoa8FmQZdVbBZ0WcVmQZdVbBZ0WcVmQZdVbBYl31zzedBf/fF50GUVnwddVvF50GUVnwddVvF50GUVnwddVvF50GUVnwddVvHlvw3M85Kv+Pk8NpDIS8oqPo9qqXztc7L0yqr5g7QYLOirwWZBXww2C/pasFnQZRWbBV1WsVnQZRWbBV1WsVnQZRWbRUlZxedBL7d8HnRZxedBl1V8HnRZxedBl1V8HnRZxedBl1V8HnRZxedBl1V8+W8D87ykrOLz2EAiLymr+DyqpfK1jyPRK6vmzythsKCvBpsFfTHYLOhrwWZBl1VsFnRZxWZBl1VsFnRZxWZBl1VsFiVlFZ8HvdzyedBlFZ8HXVbxedBlFZ8HXVbxedBlFZ8HXVbxedBlFZ8HXVbx5b8NzPOSsorPYwOJvKSs4vOolsrXdn3XK6vmbeEZLOirwWZBXww2C/pasFnQZRWbBV1WsVnQZRWbBV1WsVnQZRWbRUlZxedBL7d8HnRZxedBl1V8HnRZxedBl1V8HnRZxedBl1V8HnRZxedBl1V8+W8D87ykrOLz2EAiLymr+DyqpfK1zXX1yqp5910GC/pqsFnQF4PNgr4WbBZ0WcVmQZdVbBZ0WcVmQZdVbBZ0WcVmUVJW8XnQyy2fB11W8XnQZRWfB11W8XnQZRWfB11W8XnQZRWfB11W8XnQZRVf/tvAPC8pq/g8NpDIS8oqPo9qqXxtD0O9smre5JDBgr4abBb0xWCzoK8FmwVdVrFZ0GUVmwVdVrFZ0GUVmwVdVrFZlDZb4/Kgl1s+j7JGVlweZT2uuDzK2l9xeZT1fOPyKGsHx+VR1imOy6OsiRyXR1l/Oa78t4F5XtqVjstjA4m8pKzi81ifyj/qdHhdtG8WxyKS98sGskXf2GZ6N2oVHWDXtopd9oBOZfY6nkZ+2ux3W8Jx+i3RU39z+3rtZh9yjMfW1r5/4mVyFCezVw9BOu+h/Hj8Go2mc4F3iS+T91PV0lh7R8UxW+X4RXrpNJFzDNWVeXHea27yjWEMYxjDGMYwhjGMYQxjGMMYxjCGMYxhDGMYwxjGMIYxjGEMYxjDGMYwhjGMYQxjGMMYxjCGMYxhDGMYwxjGMIYxjGEMYxjDGMYwhjGM4f+p4VknvpNJEvjyF0/dWOt0upb3q6pbY9PVW2PPZRLIdHF7baO1vIF4EsZZJwwiufYW2fRL9+muv7M27RSPnp/EoZcFcZRDNdJMTtpX8jpOZEPvzuef5UhG/uoBzV9rDrot0VN3LnfVjczqj0YorzMFtkZ6Kdu5HMnsNMrU+cktrqfRsCBt7og/1kgsCeXj3hdr7+VWW3Atmtk4SDtpcVX0jNT2ZKdOfv5OveG4+V9gU7Ulvrp1PGdf6F5O4jRQgm/yl3WOZrkpmS9QJfG9GdISK4h8qeZD22kZ7r3cbqrueB3IUMVbc3FO5/NklMTTifTF99+Lvy1ef+hcjr10cf+7mmA7T0dnXxzNT0jHG43OlEcnlNEoG4uXwhX/FI1XYdgQR6vvSMNgKJttZ+ei+3Fn7Xx7diRxIpo3+aF0fxA3uc0iVBe+6rW/5yuO+QVSmwrjhd7FzcfOJzkTx8fH85NXTbFQXVz2G9NDXW5XifQ+Vdn5s+E+pu9X52txdMcqrFUwLCKlaOTQufTSNBhF0j9RLSLSi+JMfqx2KpcXejJNx82q1yK/pEfz61l9JoXhkc5RdtQ7q7qkWRJ/kno+8/dWdYon3jDIZnpWizdXPqrCYmlVVWW5kKwuK1Wmh/Hio7bldF5deERbOKZqJtNNn/Vzq8iqWu//vK6mUNvurvjt9w/i3+9+fy/O373/8NOvP4qf3/3404l4e/r+VE/gLF+15YOnSjSRxSKNk0xE09s8DoaiaGmSCi8d5sVLEI00FJfnXuk8ycxeS1zpLy6JzKZJJCZeksqzMPaypqeW/J38Uj557ap4Tetkri/RntguDmGd8Od6O7081p/FdC8me/OFL6+9aZiJSRLna5h80RIvvjs4ODk5PX1Rc+MZ4AAHOMABDnCAAxzgAAc4wPnfxBHp9Db/J7DwpXpR+N5MESXSBw1oQAMa0IAGNKABDWhAAxrQlNPcFz/N+hPNVTiVwAEOcIADHOAABzjAAQ5wgAOcKjiPzw101HMDz6fUcwN7TvEN26tXe3uHhyAFKUhBClKQghSkIAUpSEEKUpCCdDtI3YLUyyjSbkHa67nuwQCkIAUpSEEKUpCCFKQgBSlIQQpSkG4HaU+RniUBQeoeFqSOs7/f64EUpCAFKUhBClKQghSkIAUpSEEK0u0g3VOkH8ZTivSgID3Mt/5rkIIUpCAFKUhBClKQghSkIAUpSEG6HaR9Rfov6VOk+wXpmzcnJ/v7IAUpSEEKUpCCFKQgBSlIQQpSkIJ0O0gHxScTU0mRDgrSk5PBAKQgBSlIQQpSkIIUpCAFKUhBClKQbgvpviL9JaY6C7r9gvTgwHX7fZCCFKQgBSlIQQpSkIIUpCAFKUhBujHSJYqfePfNtWIPnSzIQnk+9iayk8mHrPnibTxN0vUYs+d7vgluZZQGcRTKtFBYI7G7K175vvBEoSTug2ws0vhWCr+3Zs/0btTxJhMZ+c2G8m7srNlhuXW8LEuajYdGSwy6hjvN8p1c/Z3SbBbKOV7bi4bjOMn3b4Ty2oB2oXEdR1n7XgajcaY0ruLQ19eYX5vzSfu3OIiyy3fXl+defrbPZ2m7J87CpO2I8+G4fSLe/hYOb7N2Gk/z6/CfX8Wvpyev1dsyeSt64rfz/4h3w6F674udsiv7cjcdJsEk+wf5npe7fnD35WFyH1os1xKBf9wYqrA/yc+UF0QyudwbNERx+o4bfpBOQm92FERhPtS+CuPhpx8aNF8uOj8Ekc0m+f7qDO7eeHfe/NXSPdV25yUqQsWx8IPbSSg7kbw/vxs1G989Z2yJvW63+GPtjFOyvpd5ue7FH43Qu5Jh46jhy2tvGmZiksTXQSgbrfnI5UPjyOl0W407L5zKxtHgsHP4ZDs4bDWGapnKFfKV5+Tk9LTxuaWl6tai2qtFda8W1X4tqoNaVPdrUT2oRfWwFlWnW49sPbPLqWd6OfXML6eeCebUM8OceqaYU88cc+qZZE49s8ytZ5a5NeWwemaZW88scy1mmUint7crT/6uUCEk0jcQ1Ty3ZqKaZ9ZMVPO8molqrl1moporl5mo5rplJqq5apmJaq5ZZqK6hYGhai1zSrcsMFStZVbpFgWGqrXMK92SwFC1lpmlWxAYqtYyt3TLAUPVevJVLXNLtxYwVK06t+6DKLMtA67UG/RVNU+roarmaTVU1TythqqaS5ahquaSZaiquWQZqmouWYaqmkuWoapuPWAqW8/s0q0ITGXrmV+6NYGpbD0zTLcqMJWtZ47p1gWmsvXMMt3KwFS2phxWzyzTLQ5MZY1m2UedLxwWXyeKYxHJ++X3GcXXGM30btQqvpBY+83F8jvJVGav42nkp81+tyUcp98SPfU3t6/37cdDjvH4Vavvn3iZHMXJ7NVDkM6/03s8FRpffOYC7xJfJu+n6is27R0Vx2yV4xfppdNEzjHUt4SLS2D7VW7xPdKq1blMApkucHOnxQWZhHHWUV9urbVMv3Tc60nTThF3kzj0siCOcqhGmslJ+0pex4ls6EXSz3IkI3/1gOavNQd5FPRUJKgvwxz1x+Kb0rVfIi9lO5cjmZ1GmTo/ucX1NBoWpM0d8YfGV6WKUD7ufbF2bqgtuBbNbBykeVyr/fSM1PZkp05+/k694bj5X2BTtSX+4rvBhe7lJE4DJfgmf1nnaJabkvkCVRLfmyEtsYLIl2ritp2W4d7L7abqjteBDFW8NRfndD5PRkk8nUhffP+9+Nvi9YfO5dhLF+uJmmA7T0dnXxzNT0jHG43OlEcnlNEoG4uXwhX/FI1XYdgQR6vvSMNgKJttZ+ei+3Fn7Xx7diRxIpo3+aF0fxA3uc0iVBe+6rW/HwvH/AKpTYXxQu/i5mPnk8yXt+Pj+cmrplioLi77jemhLrerRHqfquz82XAf0/er87U4umMV1ioYFpFSJMbO5fxnQNIvfgiUXhRn8mO1U7m80JNpOm5WvRb5JT2aX8/qMykMj3SOsqPeWdUlzZL4k9Tzmb+3qlM88YZBNtOzWry58lEVFkurqirLhWR1WakyPYwXH7Utp/PqwiPawjFVM5lu+qyfW0VW1Xr/53U1hdp2d8Vvv38Q/373+3tx/u79h59+/VH8/O7Hn07E29P3p3oCZ/mqLR88VaKJLBZpnBfS0fQ2j4OhKErEVHjpMC9egmikobg890rnSWb2WuJKf3FJZDZNIjHxklSehbGXNT215O/kl/LJa1fFa1onc32J9sR2cQjrhD9/hZ9r/ukL2MVvMtUXql/l16PAAQ5wgAMc4AAHOMABDnCAs/U4z3/googS6YMGNKABDWhAAxrQgAY0oAENaMppnv0kUNGon/gBBzjAAQ5wgAMc4AAHOMABDnC+YpPED/J2IhMvmyZSNM920Cbxm2qT+C9PRdxbWfzn1e1VIKNMqEum+h5Kf5qf/7bY755tRwvE/S1ogbi/sRaIxY2nVVswMen0mHT2mHT6TDoDJp19Jp0DJp1DJp2V3gJWQlwR7XCFtMMV0w5XUDtcUe1whbXDFdcOV2A7XJHtckW2y7ZWc0W2yxXZrlFk67fsW5Gq3qTPQoY8Q9Ub8VnIkPO+erM9CxlyzldvqGchQ853i6Z5NjpMcUynMYtWeDY6TKFM5zCLBnc2OkzRTCcwi7Z1NusgUzzT2cuiGZ2NDlM806mreou5FRmLpnI2OuTpsWgcZ6NDTneL5nA2OuR0t2gAZ6NDTnebJm9WQlwRTWcwm9ZtVkJcQU0nMZuGbFZCXHFN5zGbNmtWKyNXZNOpzKZ5mpUQV2TT2Qwt0baiJRqGMYxhDGMYwxjGMIYxjGEMYxjDGMYwhr+l4VknvpNJEvjyF099UOV0umiJ/+RI0BL/cUNLfKMNLfHREt9gQ0v8P29oif/nDS3xDTe0xEdL/C9uaIkPHOAABzjAAQ5wgAMc4AAHOMDZhoaSoAENaEADGtCABjSgAQ1oQLM9NH+ZRpbAAQ5wgAMc4AAHOMABDnCAU93vK7TEfxPcyigN4iiUaYqG+N9WQ/w4+SROr6+DYSCj4eyxDf5mG+Av3v2nkaf/v/z7/L+P6ou/PP7nKvZn6r/j7Db8x//7/0NYET0="
               },
               {
                  "name" : "annual_peak_electric_demand",
                  "units" : "kW",
                  "value" : 74.493560000000002
               },
               {
                  "name" : "first_year_capital_cost",
                  "units" : "$",
                  "value" : 0
               },
               {
                  "name" : "annual_utility_cost",
                  "units" : "$",
                  "value" : 22144.719999999998
               },
               {
                  "name" : "total_lifecycle_cost",
                  "units" : "$",
                  "value" : 373357.67999999999
               }
            ],
            "step_warnings" : []
         }
      }
   ],
   "updated_at" : "20170710T185306Z",
   "weather_file" : "USA_CO_Denver.Intl.AP.725650_TMY3.epw"
}
