{
   "completed_at" : "20170710T192521Z",
   "completed_status" : "Success",
   "created_at" : "2017-07-10 19:23:21 +0000",
   "current_step" : 5,
   "description" : "",
   "eplusout_err" : "Program Version,EnergyPlus, Version 8.7.0-78a111df4a, YMD=2017.07.10 19:24,IDD_Version 8.7.0\n   ************* Beginning Zone Sizing Calculations\n   ** Warning ** ProcessScheduleInput: Schedule:Day:Interval=\"ECONOMIZER MAX OA FRACTION 100 PCT DEFAULT\", Blank Schedule Type Limits Name input -- will not be validated.\n   ** Warning ** ProcessScheduleInput: Schedule:Day:Interval=\"SCHEDULE DAY 1\", Blank Schedule Type Limits Name input -- will not be validated.\n   ** Warning ** ProcessScheduleInput: Schedule:Day:Interval=\"SCHEDULE DAY 10\", Blank Schedule Type Limits Name input -- will not be validated.\n   ** Warning ** ProcessScheduleInput: Schedule:Day:Interval=\"SCHEDULE DAY 11\", Blank Schedule Type Limits Name input -- will not be validated.\n   ** Warning ** ProcessScheduleInput: Schedule:Day:Interval=\"SCHEDULE DAY 12\", Blank Schedule Type Limits Name input -- will not be validated.\n   ** Warning ** ProcessScheduleInput: Schedule:Day:Interval=\"SCHEDULE DAY 13\", Blank Schedule Type Limits Name input -- will not be validated.\n   ** Warning ** ProcessScheduleInput: Schedule:Day:Interval=\"SCHEDULE DAY 14\", Blank Schedule Type Limits Name input -- will not be validated.\n   ** Warning ** ProcessScheduleInput: Schedule:Day:Interval=\"SCHEDULE DAY 15\", Blank Schedule Type Limits Name input -- will not be validated.\n   ** Warning ** ProcessScheduleInput: Schedule:Day:Interval=\"SCHEDULE DAY 16\", Blank Schedule Type Limits Name input -- will not be validated.\n   ** Warning ** ProcessScheduleInput: Schedule:Day:Interval=\"SCHEDULE DAY 17\", Blank Schedule Type Limits Name input -- will not be validated.\n   ** Warning ** ProcessScheduleInput: Schedule:Day:Interval=\"SCHEDULE DAY 18\", Blank Schedule Type Limits Name input -- will not be validated.\n   ** Warning ** ProcessScheduleInput: Schedule:Day:Interval=\"SCHEDULE DAY 19\", Blank Schedule Type Limits Name input -- will not be validated.\n   ** Warning ** ProcessScheduleInput: Schedule:Day:Interval=\"SCHEDULE DAY 2\", Blank Schedule Type Limits Name input -- will not be validated.\n   ** Warning ** ProcessScheduleInput: Schedule:Day:Interval=\"SCHEDULE DAY 5\", Blank Schedule Type Limits Name input -- will not be validated.\n   ** Warning ** ProcessScheduleInput: Schedule:Day:Interval=\"SCHEDULE DAY 6\", Blank Schedule Type Limits Name input -- will not be validated.\n   ** Warning ** ProcessScheduleInput: Schedule:Day:Interval=\"SCHEDULE DAY 7\", Blank Schedule Type Limits Name input -- will not be validated.\n   ** Warning ** ProcessScheduleInput: Schedule:Day:Interval=\"SCHEDULE DAY 8\", Blank Schedule Type Limits Name input -- will not be validated.\n   ** Warning ** ProcessScheduleInput: Schedule:Day:Interval=\"SCHEDULE DAY 9\", Blank Schedule Type Limits Name input -- will not be validated.\n   ** Warning ** ProcessScheduleInput: Schedule:Year=\"ECONOMIZER MAX OA FRACTION 100 PCT\", Blank Schedule Type Limits Name input -- will not be validated.\n   ** Warning ** ProcessScheduleInput: Schedule:Year=\"SCHEDULE RULESET 10\", Blank Schedule Type Limits Name input -- will not be validated.\n   ** Warning ** ProcessScheduleInput: Schedule:Year=\"SCHEDULE RULESET 11\", Blank Schedule Type Limits Name input -- will not be validated.\n   ** Warning ** ProcessScheduleInput: Schedule:Year=\"SCHEDULE RULESET 3\", Blank Schedule Type Limits Name input -- will not be validated.\n   ** Warning ** ProcessScheduleInput: Schedule:Year=\"SCHEDULE RULESET 4\", Blank Schedule Type Limits Name input -- will not be validated.\n   ** Warning ** ProcessScheduleInput: Schedule:Year=\"SCHEDULE RULESET 5\", Blank Schedule Type Limits Name input -- will not be validated.\n   ** Warning ** ProcessScheduleInput: Schedule:Year=\"SCHEDULE RULESET 6\", Blank Schedule Type Limits Name input -- will not be validated.\n   ** Warning ** ProcessScheduleInput: Schedule:Year=\"SCHEDULE RULESET 7\", Blank Schedule Type Limits Name input -- will not be validated.\n   ** Warning ** ProcessScheduleInput: Schedule:Year=\"SCHEDULE RULESET 8\", Blank Schedule Type Limits Name input -- will not be validated.\n   ** Warning ** ProcessScheduleInput: Schedule:Year=\"SCHEDULE RULESET 9\", Blank Schedule Type Limits Name input -- will not be validated.\n   ** Warning ** ProcessScheduleInput: Schedule:Constant=\"ALWAYS OFF DISCRETE\", Blank Schedule Type Limits Name input -- will not be validated.\n   ** Warning ** ProcessScheduleInput: Schedule:Constant=\"ALWAYS ON CONTINUOUS\", Blank Schedule Type Limits Name input -- will not be validated.\n   ** Warning ** CheckUsedConstructions: There are 22 nominally unused constructions in input.\n   **   ~~~   ** For explicit details on each unused construction, use Output:Diagnostics,DisplayExtraWarnings;\n   ************* Beginning System Sizing Calculations\n   ************* Beginning Plant Sizing Calculations\n   ** Warning ** GetDXCoils: Coil:Cooling:DX:SingleSpeed=\"COIL COOLING DX SINGLE SPEED 1 29KBTU/HR 14.0SEER\", invalid\n   **   ~~~   ** ...Part Load Fraction Correlation Curve Name = DXCOOL-NECB2011-REF-COOLPLFFPLR has out of range value.\n   **   ~~~   ** ...Curve maximum must be <= 1.0, curve max at PLR = 0.99 is 1.015\n   **   ~~~   ** ...Setting curve maximum to 1.0 and simulation continues.\n   ** Warning ** GetDXCoils: Coil:Cooling:DX:SingleSpeed=\"COIL COOLING DX SINGLE SPEED 3 141KBTU/HR 9.7EER\", invalid\n   **   ~~~   ** ...Part Load Fraction Correlation Curve Name = DXCOOL-NECB2011-REF-COOLPLFFPLR 2 has out of range value.\n   **   ~~~   ** ...Curve maximum must be <= 1.0, curve max at PLR = 0.99 is 1.015\n   **   ~~~   ** ...Setting curve maximum to 1.0 and simulation continues.\n   ** Warning ** GetDXCoils: Coil:Cooling:DX:SingleSpeed=\"COIL COOLING DX SINGLE SPEED 2 283KBTU/HR 8.21EER\", invalid\n   **   ~~~   ** ...Part Load Fraction Correlation Curve Name = DXCOOL-NECB2011-REF-COOLPLFFPLR 1 has out of range value.\n   **   ~~~   ** ...Curve maximum must be <= 1.0, curve max at PLR = 0.99 is 1.015\n   **   ~~~   ** ...Setting curve maximum to 1.0 and simulation continues.\n   ** Warning ** The Standard Ratings is calculated for Coil:Cooling:DX:SingleSpeed = COIL COOLING DX SINGLE SPEED 1 29KBTU/HR 14.0SEER but not at the AHRI test condition due to curve out of bound.\n   **   ~~~   **  Review the Standard Ratings calculations in the Engineering Reference for this coil type. Also, use Output:Diagnostics, DisplayExtraWarnings for further guidance.\n   ** Warning ** The Standard Ratings is calculated for Coil:Cooling:DX:SingleSpeed = COIL COOLING DX SINGLE SPEED 3 141KBTU/HR 9.7EER but not at the AHRI test condition due to curve out of bound.\n   **   ~~~   **  Review the Standard Ratings calculations in the Engineering Reference for this coil type. Also, use Output:Diagnostics, DisplayExtraWarnings for further guidance.\n   ** Warning ** The Standard Ratings is calculated for Coil:Cooling:DX:SingleSpeed = COIL COOLING DX SINGLE SPEED 2 283KBTU/HR 8.21EER but not at the AHRI test condition due to curve out of bound.\n   **   ~~~   **  Review the Standard Ratings calculations in the Engineering Reference for this coil type. Also, use Output:Diagnostics, DisplayExtraWarnings for further guidance.\n   ** Warning ** Check input. Pump nominal power or motor efficiency is set to 0, for pump=SERVICE WATER LOOP PUMP\n   ** Warning ** Output:Meter: invalid Name=\"DISTRICTCOOLING:FACILITY\" - not found.\n   ** Warning ** Output:Meter: invalid Name=\"DISTRICTHEATING:FACILITY\" - not found.\n   ** Warning ** Output:Meter:MeterFileOnly requested for \"Electricity:Facility\" (TimeStep), already on \"Output:Meter\". Will report to both eplusout.eso and eplusout.mtr\n   ************* Testing Individual Branch Integrity\n   ************* All Branches passed integrity testing\n   ************* Testing Individual Supply Air Path Integrity\n   ************* All Supply Air Paths passed integrity testing\n   ************* Testing Individual Return Air Path Integrity\n   ************* All Return Air Paths passed integrity testing\n   ************* No node connection errors were found.\n   ************* Beginning Simulation\n   ** Warning ** CalcDoe2DXCoil: Coil:Cooling:DX:SingleSpeed \"COIL COOLING DX SINGLE SPEED 1 29KBTU/HR 14.0SEER\" - Air-cooled condenser inlet dry-bulb temperature below 0 C. Outdoor dry-bulb temperature = -0.15\n   **   ~~~   **  ... Occurrence info = RUN PERIOD 1, 01/02 06:05 - 06:08\n   **   ~~~   ** ... Operation at low ambient temperatures may require special performance curves.\n   ************* Simulation Error Summary *************\n   ************* There are 9 unused schedules in input.\n   ************* There are 9 unused week schedules in input.\n   ************* There are 18 unused day schedules in input.\n   ************* Use Output:Diagnostics,DisplayUnusedSchedules; to see them.\n   *************\n   ************* ===== Recurring Error Summary =====\n   ************* The following recurring error messages occurred.\n   *************\n   *************  ** Warning ** CalcDoe2DXCoil: Coil:Cooling:DX:SingleSpeed=\"COIL COOLING DX SINGLE SPEED 1 29KBTU/HR 14.0SEER\" - Low condenser dry-bulb temperature error continues...\n   *************  **   ~~~   **   This error occurred 78 total times;\n   *************  **   ~~~   **   during Warmup 0 times;\n   *************  **   ~~~   **   during Sizing 0 times.\n   *************  **   ~~~   **   Max=-0.15 [C]  Min=-10.725 [C]\n   *************\n   *************\n   ************* ===== Final Error Summary =====\n   ************* The following error categories occurred.  Consider correcting or noting.\n   ************* Nominally Unused Constructions\n   ************* ..The nominally unused constructions warning is provided to alert you to potential conditions that can cause\n   ************* ..extra time during simulation. Each construction is calculated by the algorithm indicated in the HeatBalanceAlgorithm\n   ************* ..object. You may remove the constructions indicated (when you use the DisplayExtraWarnings option).\n   *************\n   ************* EnergyPlus Warmup Error Summary. During Warmup: 0 Warning; 0 Severe Errors.\n   ************* EnergyPlus Sizing Error Summary. During Sizing: 31 Warning; 0 Severe Errors.\n   ************* EnergyPlus Completed Successfully-- 119 Warning; 0 Severe Errors; Elapsed Time=00hr 00min 36.74sec\n",
   "file_format_version" : "0.0.1",
   "file_paths" : [ "../weather", "../seeds", "../seed" ],
   "hash" : "BA131891",
   "measure_paths" : [ "../measures" ],
   "name" : "LHS Autogenerated 939",
   "osa_id" : "4fef0e0f-5396-4c55-a6e1-2cd6803db3ab",
   "osd_id" : "449a1e2a-605a-4aba-9552-04d19794a57d",
   "run_directory" : "./run",
   "seed_file" : "seed.osm",
   "started_at" : "20170710T192324Z",
   "steps" : [
      {
         "arguments" : {
            "__SKIP__" : false,
            "building_type" : "Warehouse",
            "climate_zone" : "NECB HDD Method",
            "epw_file" : "CAN_BC_Comox.718930_CWEC.epw",
            "template" : "NECB 2011"
         },
         "measure_dir_name" : "create_prototype_building",
         "name" : "create_prototype_building",
         "result" : {
            "completed_at" : "20170710T192415Z",
            "measure_class_name" : "CreatePrototypeBuilding",
            "measure_display_name" : "Create Prototype Building",
            "measure_name" : "create_prototype_building",
            "measure_taxonomy" : "Whole Building.Space Types",
            "measure_type" : "ModelMeasure",
            "measure_uid" : "ae90fsd7-a651-467a-bc8d-29d310b0f937",
            "measure_version_id" : "c6ec5c18-5595-459f-a082-09a19c8c869c",
            "measure_version_modified" : "20170519T182315Z",
            "measure_xml_checksum" : "057E8D9D",
            "started_at" : "20170710T192326Z",
            "stderr" : "",
            "stdout" : "[OpenStudio.Measure] <0> OSArgumentVector is deprecated, use OpenStudio::Measure::OSArgumentVector instead.\n[openstudio.EpwFile] <0> Successive data points (1973-Jan-31 to 1966-Feb-01, ending on line 753) are greater than 1 day apart in EPW file '/usr/local/bundle/bundler/gems/openstudio-standards-f448df66933d/openstudio-standards/data/weather/CAN_BC_Comox.718930_CWEC.epw'. Data will be treated as typical (TMY)\n[openstudio.setFileExtension] <0> Path p, '/usr/local/bundle/bundler/gems/openstudio-standards-f448df66933d/openstudio-standards/data/weather/CAN_BC_Comox.718930_CWEC.ddy', has an unexpected file extension. Was expecting 'idf'.\n[openstudio.model.YearDescription] <1> 'UseWeatherFile' is not yet a supported option for YearDescription\n[openstudio.model.YearDescription] <1> 'UseWeatherFile' is not yet a supported option for YearDescription\n[openstudio.setFileExtension] <0> Path p, '/usr/local/bundle/bundler/gems/openstudio-standards-f448df66933d/openstudio-standards/data/weather/CAN_BC_Comox.718930_CWEC.ddy', has an unexpected file extension. Was expecting 'idf'.\n[openstudio.model.YearDescription] <1> 'UseWeatherFile' is not yet a supported option for YearDescription\n[openstudio.model.YearDescription] <1> 'UseWeatherFile' is not yet a supported option for YearDescription\n[openstudio.EpwFile] <0> Successive data points (1973-Jan-31 to 1966-Feb-01, ending on line 753) are greater than 1 day apart in EPW file '/usr/local/bundle/bundler/gems/openstudio-standards-f448df66933d/openstudio-standards/data/weather/CAN_BC_Comox.718930_CWEC.epw'. Data will be treated as typical (TMY)\n[openstudio.weather.Model] <0> Could not find ground temperatures; will use generic temperatures, which will skew results.\n[openstudio.setFileExtension] <0> Path p, '/usr/local/bundle/bundler/gems/openstudio-standards-f448df66933d/openstudio-standards/data/weather/CAN_BC_Comox.718930_CWEC.ddy', has an unexpected file extension. Was expecting 'idf'.\n[openstudio.model.YearDescription] <1> 'UseWeatherFile' is not yet a supported option for YearDescription\n[openstudio.model.YearDescription] <1> 'UseWeatherFile' is not yet a supported option for YearDescription\n[openstudio.EpwFile] <0> Successive data points (1973-Jan-31 to 1966-Feb-01, ending on line 753) are greater than 1 day apart in EPW file '/usr/local/bundle/bundler/gems/openstudio-standards-f448df66933d/openstudio-standards/data/weather/CAN_BC_Comox.718930_CWEC.epw'. Data will be treated as typical (TMY)\n[openstudio.setFileExtension] <0> Path p, '/usr/local/bundle/bundler/gems/openstudio-standards-f448df66933d/openstudio-standards/data/weather/CAN_BC_Comox.718930_CWEC.ddy', has an unexpected file extension. Was expecting 'idf'.\n[openstudio.model.YearDescription] <1> 'UseWeatherFile' is not yet a supported option for YearDescription\n[openstudio.model.YearDescription] <1> 'UseWeatherFile' is not yet a supported option for YearDescription\n[openstudio.setFileExtension] <0> Path p, '/usr/local/bundle/bundler/gems/openstudio-standards-f448df66933d/openstudio-standards/data/weather/CAN_BC_Comox.718930_CWEC.ddy', has an unexpected file extension. Was expecting 'idf'.\n[openstudio.model.YearDescription] <1> 'UseWeatherFile' is not yet a supported option for YearDescription\n[openstudio.model.YearDescription] <1> 'UseWeatherFile' is not yet a supported option for YearDescription\n[openstudio.EpwFile] <0> Successive data points (1973-Jan-31 to 1966-Feb-01, ending on line 753) are greater than 1 day apart in EPW file '/usr/local/bundle/bundler/gems/openstudio-standards-f448df66933d/openstudio-standards/data/weather/CAN_BC_Comox.718930_CWEC.epw'. Data will be treated as typical (TMY)\n[openstudio.setFileExtension] <0> Path p, '/usr/local/bundle/bundler/gems/openstudio-standards-f448df66933d/openstudio-standards/data/weather/CAN_BC_Comox.718930_CWEC.ddy', has an unexpected file extension. Was expecting 'idf'.\n[openstudio.model.YearDescription] <1> 'UseWeatherFile' is not yet a supported option for YearDescription\n[openstudio.model.YearDescription] <1> 'UseWeatherFile' is not yet a supported option for YearDescription\n[openstudio.setFileExtension] <0> Path p, '/usr/local/bundle/bundler/gems/openstudio-standards-f448df66933d/openstudio-standards/data/weather/CAN_BC_Comox.718930_CWEC.ddy', has an unexpected file extension. Was expecting 'idf'.\n[openstudio.model.YearDescription] <1> 'UseWeatherFile' is not yet a supported option for YearDescription\n[openstudio.model.YearDescription] <1> 'UseWeatherFile' is not yet a supported option for YearDescription\n[utilities.idf.WorkspaceObject] <0> Object of type 'Schedule:Constant' and named 'Always Off Discrete', points to an object named OnOff 1 from field 1, but that object cannot be located.\n[utilities.idf.WorkspaceObject] <0> Object of type 'Schedule:Constant' and named 'Always On Continuous', points to an object named Fractional 1 from field 1, but that object cannot be located.\n[utilities.idf.WorkspaceObject] <0> Object of type 'Schedule:Constant' and named 'Always Off Discrete', points to an object named OnOff 1 from field 1, but that object cannot be located.\n[utilities.idf.WorkspaceObject] <0> Object of type 'Schedule:Constant' and named 'Always On Continuous', points to an object named Fractional 1 from field 1, but that object cannot be located.\n[openstudio.standards.Fan] <0> For Fan Constant Volume 1, there is no greater nominal HP.  Use the efficiency of the largest motor category.\n[openstudio.standards.Fan] <0> For Fan Constant Volume 2, there is no greater nominal HP.  Use the efficiency of the largest motor category.\n[openstudio.standards.Fan] <0> For Fan Constant Volume 3, there is no greater nominal HP.  Use the efficiency of the largest motor category.\n[openstudio.EpwFile] <0> Successive data points (1973-Jan-31 to 1966-Feb-01, ending on line 753) are greater than 1 day apart in EPW file '/usr/local/bundle/bundler/gems/openstudio-standards-f448df66933d/openstudio-standards/data/weather/CAN_BC_Comox.718930_CWEC.epw'. Data will be treated as typical (TMY)\n[openstudio.setFileExtension] <0> Path p, '/usr/local/bundle/bundler/gems/openstudio-standards-f448df66933d/openstudio-standards/data/weather/CAN_BC_Comox.718930_CWEC.ddy', has an unexpected file extension. Was expecting 'idf'.\n[openstudio.model.YearDescription] <1> 'UseWeatherFile' is not yet a supported option for YearDescription\n[openstudio.model.YearDescription] <1> 'UseWeatherFile' is not yet a supported option for YearDescription\n[openstudio.setFileExtension] <0> Path p, '/usr/local/bundle/bundler/gems/openstudio-standards-f448df66933d/openstudio-standards/data/weather/CAN_BC_Comox.718930_CWEC.ddy', has an unexpected file extension. Was expecting 'idf'.\n[openstudio.model.YearDescription] <1> 'UseWeatherFile' is not yet a supported option for YearDescription\n[openstudio.model.YearDescription] <1> 'UseWeatherFile' is not yet a supported option for YearDescription\n[openstudio.EpwFile] <0> Successive data points (1973-Jan-31 to 1966-Feb-01, ending on line 753) are greater than 1 day apart in EPW file '/usr/local/bundle/bundler/gems/openstudio-standards-f448df66933d/openstudio-standards/data/weather/CAN_BC_Comox.718930_CWEC.epw'. Data will be treated as typical (TMY)\n[openstudio.setFileExtension] <0> Path p, '/usr/local/bundle/bundler/gems/openstudio-standards-f448df66933d/openstudio-standards/data/weather/CAN_BC_Comox.718930_CWEC.ddy', has an unexpected file extension. Was expecting 'idf'.\n[openstudio.model.YearDescription] <1> 'UseWeatherFile' is not yet a supported option for YearDescription\n[openstudio.model.YearDescription] <1> 'UseWeatherFile' is not yet a supported option for YearDescription\n[openstudio.setFileExtension] <0> Path p, '/usr/local/bundle/bundler/gems/openstudio-standards-f448df66933d/openstudio-standards/data/weather/CAN_BC_Comox.718930_CWEC.ddy', has an unexpected file extension. Was expecting 'idf'.\n[openstudio.model.YearDescription] <1> 'UseWeatherFile' is not yet a supported option for YearDescription\n[openstudio.model.YearDescription] <1> 'UseWeatherFile' is not yet a supported option for YearDescription\n[openstudio.EpwFile] <0> Successive data points (1973-Jan-31 to 1966-Feb-01, ending on line 753) are greater than 1 day apart in EPW file '/usr/local/bundle/bundler/gems/openstudio-standards-f448df66933d/openstudio-standards/data/weather/CAN_BC_Comox.718930_CWEC.epw'. Data will be treated as typical (TMY)\n[openstudio.setFileExtension] <0> Path p, '/usr/local/bundle/bundler/gems/openstudio-standards-f448df66933d/openstudio-standards/data/weather/CAN_BC_Comox.718930_CWEC.ddy', has an unexpected file extension. Was expecting 'idf'.\n[openstudio.model.YearDescription] <1> 'UseWeatherFile' is not yet a supported option for YearDescription\n[openstudio.model.YearDescription] <1> 'UseWeatherFile' is not yet a supported option for YearDescription\n[openstudio.setFileExtension] <0> Path p, '/usr/local/bundle/bundler/gems/openstudio-standards-f448df66933d/openstudio-standards/data/weather/CAN_BC_Comox.718930_CWEC.ddy', has an unexpected file extension. Was expecting 'idf'.\n[openstudio.model.YearDescription] <1> 'UseWeatherFile' is not yet a supported option for YearDescription\n[openstudio.model.YearDescription] <1> 'UseWeatherFile' is not yet a supported option for YearDescription\n[openstudio.standards.Fan] <0> For Fan Constant Volume 1, there is no greater nominal HP.  Use the efficiency of the largest motor category.\n[openstudio.standards.Fan] <0> For Fan Constant Volume 2, there is no greater nominal HP.  Use the efficiency of the largest motor category.\n[openstudio.standards.Fan] <0> For Fan Constant Volume 3, there is no greater nominal HP.  Use the efficiency of the largest motor category.\n",
            "step_errors" : [],
            "step_files" : [],
            "step_info" : [
               "Started adding geometry",
               "Finished adding geometry",
               "Started adding weather file for climate zone: NECB HDD Method.",
               "Template =",
               "Setting Zone3 Bulk Storage to Space Function.Warehouse - med/blk",
               "Setting Zone2 Fine Storage to Space Function.Warehouse - fine",
               "Setting Zone1 Office to Space Function.Office - enclosed",
               "Started applying space types (loads)",
               "Space Function Office - enclosed had no people, one has been created.",
               "Space Function Office - enclosed set occupancy to 4.65 people/1000 ft^2.",
               "Space Function Office - enclosed had no lights, one has been created.",
               "Space Function Office - enclosed set LPD to 1.105536975 W/ft^2.",
               "Space Function Office - enclosed had no electric equipment, one has been created.",
               "Space Function Office - enclosed set electric EPD to 0.696767001 W/ft^2.",
               "Space Function Office - enclosed had no ventilation specification, one has been created.",
               "Space Function Office - enclosed set ventilation per area to 0.085 cfm/ft^2.",
               "Space Function Office - enclosed had no infiltration objects, one has been created.",
               "Space Function Office - enclosed set infiltration to 0.0 per ft^2 exterior surface area.",
               "Space Function Office - enclosed set occupancy schedule to NECB-A-Occupancy.",
               "Space Function Office - enclosed set occupant activity schedule to NECB-Activity.",
               "Space Function Office - enclosed set lighting schedule to NECB-A-Lighting.",
               "Space Function Office - enclosed set electric equipment schedule to NECB-A-Electric-Equipment.",
               "Space Function Office - enclosed set infiltration schedule to Always On.",
               "Space Function Office - enclosed set heating setpoint schedule to NECB-A-Thermostat Setpoint-Heating.",
               "Space Function Office - enclosed set cooling setpoint schedule to NECB-A-Thermostat Setpoint-Cooling.",
               "Space Function Warehouse - fine had no people, one has been created.",
               "Space Function Warehouse - fine set occupancy to 1.86 people/1000 ft^2.",
               "Space Function Warehouse - fine had no lights, one has been created.",
               "Space Function Warehouse - fine set LPD to 0.947603122 W/ft^2.",
               "Space Function Warehouse - fine had no electric equipment, one has been created.",
               "Space Function Warehouse - fine set electric EPD to 0.092902267 W/ft^2.",
               "Space Function Warehouse - fine had no ventilation specification, one has been created.",
               "Space Function Warehouse - fine set ventilation per area to 0.06 cfm/ft^2.",
               "Space Function Warehouse - fine had no infiltration objects, one has been created.",
               "Space Function Warehouse - fine set infiltration to 0.0 per ft^2 exterior surface area.",
               "Space Function Warehouse - fine set occupancy schedule to NECB-A-Occupancy.",
               "Space Function Warehouse - fine set occupant activity schedule to NECB-Activity.",
               "Space Function Warehouse - fine set lighting schedule to NECB-A-Lighting.",
               "Space Function Warehouse - fine set electric equipment schedule to NECB-A-Electric-Equipment.",
               "Space Function Warehouse - fine set infiltration schedule to Always On.",
               "Space Function Warehouse - fine set heating setpoint schedule to NECB-A-Thermostat Setpoint-Heating.",
               "Space Function Warehouse - fine set cooling setpoint schedule to NECB-A-Thermostat Setpoint-Cooling.",
               "Space Function Warehouse - med/blk had no people, one has been created.",
               "Space Function Warehouse - med/blk set occupancy to 0.93 people/1000 ft^2.",
               "Space Function Warehouse - med/blk had no lights, one has been created.",
               "Space Function Warehouse - med/blk set LPD to 0.594574508 W/ft^2.",
               "Space Function Warehouse - med/blk had no electric equipment, one has been created.",
               "Space Function Warehouse - med/blk set electric EPD to 0.092902267 W/ft^2.",
               "Space Function Warehouse - med/blk had no ventilation specification, one has been created.",
               "Space Function Warehouse - med/blk set ventilation per area to 0.06 cfm/ft^2.",
               "Space Function Warehouse - med/blk had no infiltration objects, one has been created.",
               "Space Function Warehouse - med/blk set infiltration to 0.0 per ft^2 exterior surface area.",
               "Space Function Warehouse - med/blk set occupancy schedule to NECB-A-Occupancy.",
               "Space Function Warehouse - med/blk set occupant activity schedule to NECB-Activity.",
               "Space Function Warehouse - med/blk set lighting schedule to NECB-A-Lighting.",
               "Space Function Warehouse - med/blk set electric equipment schedule to NECB-A-Electric-Equipment.",
               "Space Function Warehouse - med/blk set infiltration schedule to Always On.",
               "Space Function Warehouse - med/blk set heating setpoint schedule to NECB-A-Thermostat Setpoint-Heating.",
               "Space Function Warehouse - med/blk set cooling setpoint schedule to NECB-A-Thermostat Setpoint-Cooling.",
               "Finished applying space types (loads)",
               "Started applying constructions",
               "Adding construction set: NECB 2011-NECB HDD Method-Warehouse--is_residentialNo",
               "Adding construction Typical Insulated Exterior Mass Floor R-15.63.",
               "Adding construction Typical Insulated Exterior Mass Wall R-12.5.",
               "Adding construction Typical Insulated Metal Building Roof R-20.41.",
               "Adding construction Typical Interior Floor.",
               "Adding construction Typical Interior Wall.",
               "Adding construction Typical Interior Ceiling.",
               "Adding construction Typical Insulated Carpeted 6in Slab Floor.",
               "Adding construction U 0.55 SHGC 0.31 Dbl Ref-D Tint 6mm/6mm Air.",
               "Adding construction Typical Insulated Metal Door R-1.43.",
               "Adding construction U 0.35 SHGC 0.35 Dbl LoE (e2-.1) Tint 6mm/13mm Air.",
               "Adding construction Typical Overhead Door R-2.0.",
               "Adding construction U 0.48 SHGC 0.40 Dbl Ref-D Clr 6mm/13mm.",
               "Adding construction Typical Interior Window.",
               "Adding construction Typical Interior Door.",
               "Adding construction Typical Interior Partition.",
               "Finished applying constructions",
               "WWR NonRes = 0%; window = 0 ft2, wall = 0 ft2.",
               "WWR Res = 0%; window = 0 ft2, wall = 0 ft2.",
               "WWR Semiheated = 0%; window = 0 ft2, wall = 0 ft2.",
               "The skylight to roof ratios (SRRs) are: NonRes: 2%, Res: 0%.",
               "Started creating thermal zones",
               "Finished creating thermal zones",
               "Running simulation /mnt/openstudio/analysis_4fef0e0f-5396-4c55-a6e1-2cd6803db3ab/data_point_449a1e2a-605a-4aba-9552-04d19794a57d/run/000_create_prototype_building/output/Warehouse-NECB 2011-NECB HDD Method-CAN_BC_Comox.718930_CWEC.epw/SR0.",
               "Finished run.",
               "Started Adding HVAC",
               "Finished adding HVAC",
               "Started Adding Service Water Heating",
               "Adding service water loop.",
               "Adding water heater.",
               "Template =",
               "Finished adding Service Water Heating",
               "Set sizing factors to 1.3 for heating and 1.3 for cooling.",
               "Running simulation /mnt/openstudio/analysis_4fef0e0f-5396-4c55-a6e1-2cd6803db3ab/data_point_449a1e2a-605a-4aba-9552-04d19794a57d/run/000_create_prototype_building/output/Warehouse-NECB 2011-NECB HDD Method-CAN_BC_Comox.718930_CWEC.epw/SR1.",
               "Finished run.",
               "Started applying multizone vav OA sizing.",
               "Finished applying multizone vav OA sizing.",
               "Started applying prototype HVAC assumptions.",
               "For Fan Constant Volume 1: allowed_hp = 1.01HP; motor eff = 61.5%; total fan eff = 40% based on 1098 cfm.",
               "For Fan Constant Volume 2: allowed_hp = 7.27HP; motor eff = 61.5%; total fan eff = 40% based on 10632 cfm.",
               "For Fan Constant Volume 3: allowed_hp = 3.61HP; motor eff = 61.5%; total fan eff = 40% based on 5284 cfm.",
               "Sp-Zone2 Fine Storage Sys-4 Flr-1 Sch-A HPlcmt-south ZN NECB System 4 PSZ requires an economizer because the total cooling capacity of 140843 Btu/hr exceeds the minimum capacity of 68243 Btu/hr.",
               "Sp-Zone3 Bulk Storage Sys-4 Flr-1 Sch-A HPlcmt-east ZN NECB System 4 PSZ requires an economizer because the total cooling capacity of 283418 Btu/hr exceeds the minimum capacity of 68243 Btu/hr.",
               "Sp-Zone1 Office Sys-3 Flr-1 Sch-A HPlcmt-south ZN NECB System 3 PSZ does not require an economizer because the total cooling capacity of 29259 Btu/hr is less than the minimum capacity of 68243 Btu/hr.",
               "Finished applying prototype HVAC assumptions.",
               "Started applying HVAC efficiency standards.",
               "For Sp-Zone1 Office Sys-3 Flr-1 Sch-A HPlcmt-south ZN NECB System 3 PSZ, ERV not required based on 0% OA flow, design supply air flow of 1098cfm, and climate zone NECB HDD Method.",
               "For Sp-Zone1 Office Sys-3 Flr-1 Sch-A HPlcmt-south ZN NECB System 3 PSZ, ERV not required based on exhaust heat content.",
               "For NECB 2011 NECB HDD Method:  Sp-Zone1 Office Sys-3 Flr-1 Sch-A HPlcmt-south ZN NECB System 3 PSZ: DCV is not required for any system.",
               "For Sp-Zone1 Office Sys-3 Flr-1 Sch-A HPlcmt-south ZN NECB System 3 PSZ: Annual occupied hours = 2860 hr/yr, assuming a 0.15 occupancy threshold.  This schedule will be used as the HVAC operation schedule.",
               "For Sp-Zone1 Office Sys-3 Flr-1 Sch-A HPlcmt-south ZN NECB System 3 PSZ: Setting motorized OA damper schedule to Sp-Zone1 Office Sys-3 Flr-1 Sch-A HPlcmt-south ZN NECB System 3 PSZ Occ Sch.",
               "For Sp-Zone2 Fine Storage Sys-4 Flr-1 Sch-A HPlcmt-south ZN NECB System 4 PSZ, ERV not required based on 0% OA flow, design supply air flow of 5284cfm, and climate zone NECB HDD Method.",
               "For Sp-Zone2 Fine Storage Sys-4 Flr-1 Sch-A HPlcmt-south ZN NECB System 4 PSZ, ERV not required based on exhaust heat content.",
               "For NECB 2011 NECB HDD Method:  Sp-Zone2 Fine Storage Sys-4 Flr-1 Sch-A HPlcmt-south ZN NECB System 4 PSZ: DCV is not required for any system.",
               "For Sp-Zone2 Fine Storage Sys-4 Flr-1 Sch-A HPlcmt-south ZN NECB System 4 PSZ: Annual occupied hours = 2860 hr/yr, assuming a 0.15 occupancy threshold.  This schedule will be used as the HVAC operation schedule.",
               "For Sp-Zone2 Fine Storage Sys-4 Flr-1 Sch-A HPlcmt-south ZN NECB System 4 PSZ: Because the system has an economizer, it requires a motorized OA damper.",
               "For Sp-Zone2 Fine Storage Sys-4 Flr-1 Sch-A HPlcmt-south ZN NECB System 4 PSZ: Setting motorized OA damper schedule to Sp-Zone2 Fine Storage Sys-4 Flr-1 Sch-A HPlcmt-south ZN NECB System 4 PSZ Occ Sch.",
               "For Sp-Zone3 Bulk Storage Sys-4 Flr-1 Sch-A HPlcmt-east ZN NECB System 4 PSZ, ERV not required based on 0% OA flow, design supply air flow of 10632cfm, and climate zone NECB HDD Method.",
               "For Sp-Zone3 Bulk Storage Sys-4 Flr-1 Sch-A HPlcmt-east ZN NECB System 4 PSZ, ERV not required based on exhaust heat content.",
               "For NECB 2011 NECB HDD Method:  Sp-Zone3 Bulk Storage Sys-4 Flr-1 Sch-A HPlcmt-east ZN NECB System 4 PSZ: DCV is not required for any system.",
               "For Sp-Zone3 Bulk Storage Sys-4 Flr-1 Sch-A HPlcmt-east ZN NECB System 4 PSZ: Annual occupied hours = 2860 hr/yr, assuming a 0.15 occupancy threshold.  This schedule will be used as the HVAC operation schedule.",
               "For Sp-Zone3 Bulk Storage Sys-4 Flr-1 Sch-A HPlcmt-east ZN NECB System 4 PSZ: Because the system has an economizer, it requires a motorized OA damper.",
               "For Sp-Zone3 Bulk Storage Sys-4 Flr-1 Sch-A HPlcmt-east ZN NECB System 4 PSZ: Setting motorized OA damper schedule to Sp-Zone3 Bulk Storage Sys-4 Flr-1 Sch-A HPlcmt-east ZN NECB System 4 PSZ Occ Sch.",
               "For Fan Constant Volume 1: motor nameplate = 0.6836984197019601HP, motor eff = 61.5%.",
               "For Fan Constant Volume 2: motor nameplate = 7HP, motor eff = 61.5%.",
               "For Fan Constant Volume 3: motor nameplate = 3HP, motor eff = 61.5%.",
               "For Service Water Loop Pump: brake hp = 0.0HP, motor nameplate = 0.1HP, motor eff = 70.0%.",
               "For Pump Variable Speed 1: brake hp = 0.83HP, motor nameplate = 1.0HP, motor eff = 85.5%.",
               "For NECB 2011: Coil Cooling DX Single Speed 1: AirCooled All Other Single Package Capacity = 29kBtu/hr; SEER = 14.0",
               "For NECB 2011: Coil Cooling DX Single Speed 2: AirCooled All Other Single Package Capacity = 283kBtu/hr; EER = 8.21",
               "For NECB 2011: Coil Cooling DX Single Speed 3: AirCooled All Other Single Package Capacity = 141kBtu/hr; EER = 9.7",
               "For NECB 2011: Primary Boiler: Gas Hot Water Capacity = 310kBtu/hr; Thermal Efficiency = 0.83",
               "For NECB 2011: Secondary Boiler: Gas Hot Water Capacity = 310kBtu/hr; Thermal Efficiency = 0.83",
               "For NECB 2011: 40.0gal NaturalGas Water Heater - 40kBtu/hr 0.82 Therm Eff; thermal efficiency = 0.82, skin-loss UA = 6Btu/hr",
               "Finished applying HVAC efficiency standards.",
               "Started adding daylighting controls.",
               "Finished adding daylighting controls.",
               "Total Time = 48sec."
            ],
            "step_result" : "Success",
            "step_values" : [
               {
                  "name" : "building_type",
                  "value" : "Warehouse"
               },
               {
                  "name" : "template",
                  "value" : "NECB 2011"
               },
               {
                  "name" : "climate_zone",
                  "value" : "NECB HDD Method"
               },
               {
                  "name" : "epw_file",
                  "value" : "CAN_BC_Comox.718930_CWEC.epw"
               }
            ],
            "step_warnings" : [
               "[openstudio.EpwFile] Successive data points (1973-Jan-31 to 1966-Feb-01, ending on line 753) are greater than 1 day apart in EPW file '/usr/local/bundle/bundler/gems/openstudio-standards-f448df66933d/openstudio-standards/data/weather/CAN_BC_Comox.718930_CWEC.epw'. Data will be treated as typical (TMY)",
               "[openstudio.EpwFile] Successive data points (1973-Jan-31 to 1966-Feb-01, ending on line 753) are greater than 1 day apart in EPW file '/usr/local/bundle/bundler/gems/openstudio-standards-f448df66933d/openstudio-standards/data/weather/CAN_BC_Comox.718930_CWEC.epw'. Data will be treated as typical (TMY)",
               "[openstudio.weather.Model] Could not find ground temperatures; will use generic temperatures, which will skew results.",
               "[openstudio.EpwFile] Successive data points (1973-Jan-31 to 1966-Feb-01, ending on line 753) are greater than 1 day apart in EPW file '/usr/local/bundle/bundler/gems/openstudio-standards-f448df66933d/openstudio-standards/data/weather/CAN_BC_Comox.718930_CWEC.epw'. Data will be treated as typical (TMY)",
               "[openstudio.EpwFile] Successive data points (1973-Jan-31 to 1966-Feb-01, ending on line 753) are greater than 1 day apart in EPW file '/usr/local/bundle/bundler/gems/openstudio-standards-f448df66933d/openstudio-standards/data/weather/CAN_BC_Comox.718930_CWEC.epw'. Data will be treated as typical (TMY)",
               "[openstudio.standards.Fan] For Fan Constant Volume 1, there is no greater nominal HP.  Use the efficiency of the largest motor category.",
               "[openstudio.standards.Fan] For Fan Constant Volume 2, there is no greater nominal HP.  Use the efficiency of the largest motor category.",
               "[openstudio.standards.Fan] For Fan Constant Volume 3, there is no greater nominal HP.  Use the efficiency of the largest motor category.",
               "[openstudio.EpwFile] Successive data points (1973-Jan-31 to 1966-Feb-01, ending on line 753) are greater than 1 day apart in EPW file '/usr/local/bundle/bundler/gems/openstudio-standards-f448df66933d/openstudio-standards/data/weather/CAN_BC_Comox.718930_CWEC.epw'. Data will be treated as typical (TMY)",
               "[openstudio.EpwFile] Successive data points (1973-Jan-31 to 1966-Feb-01, ending on line 753) are greater than 1 day apart in EPW file '/usr/local/bundle/bundler/gems/openstudio-standards-f448df66933d/openstudio-standards/data/weather/CAN_BC_Comox.718930_CWEC.epw'. Data will be treated as typical (TMY)",
               "[openstudio.EpwFile] Successive data points (1973-Jan-31 to 1966-Feb-01, ending on line 753) are greater than 1 day apart in EPW file '/usr/local/bundle/bundler/gems/openstudio-standards-f448df66933d/openstudio-standards/data/weather/CAN_BC_Comox.718930_CWEC.epw'. Data will be treated as typical (TMY)",
               "[openstudio.standards.Fan] For Fan Constant Volume 1, there is no greater nominal HP.  Use the efficiency of the largest motor category.",
               "[openstudio.standards.Fan] For Fan Constant Volume 2, there is no greater nominal HP.  Use the efficiency of the largest motor category.",
               "[openstudio.standards.Fan] For Fan Constant Volume 3, there is no greater nominal HP.  Use the efficiency of the largest motor category."
            ]
         }
      },
      {
         "arguments" : {
            "__SKIP__" : false
         },
         "measure_dir_name" : "view_model",
         "name" : "view_model",
         "result" : {
            "completed_at" : "20170710T192415Z",
            "measure_class_name" : "ViewModel",
            "measure_display_name" : "ViewModel",
            "measure_name" : "view_model",
            "measure_taxonomy" : "Reporting.QAQC",
            "measure_type" : "ModelMeasure",
            "measure_uid" : "f4669f10-fda5-489d-8e1c-7ca3c2d40378",
            "measure_version_id" : "f4975c5f-7c25-42a2-927b-02d99b4427ef",
            "measure_version_modified" : "20170526T150340Z",
            "measure_xml_checksum" : "1E1F8B97",
            "started_at" : "20170710T192415Z",
            "stderr" : "",
            "stdout" : "[OpenStudio.Measure] <0> OSArgumentVector is deprecated, use OpenStudio::Measure::OSArgumentVector instead.\n",
            "step_errors" : [],
            "step_files" : [
               "/mnt/openstudio/analysis_4fef0e0f-5396-4c55-a6e1-2cd6803db3ab/data_point_449a1e2a-605a-4aba-9552-04d19794a57d/run/001_view_model/report.html",
               "/mnt/openstudio/analysis_4fef0e0f-5396-4c55-a6e1-2cd6803db3ab/data_point_449a1e2a-605a-4aba-9552-04d19794a57d/run/001_view_model/report.json"
            ],
            "step_final_condition" : "Report written to <a href='file:////mnt/openstudio/analysis_4fef0e0f-5396-4c55-a6e1-2cd6803db3ab/data_point_449a1e2a-605a-4aba-9552-04d19794a57d/run/001_view_model/report.html'>report.html</a>.",
            "step_info" : [ "No changes made to the model." ],
            "step_result" : "NA",
            "step_values" : [
               {
                  "name" : "view_model_html_zip",
                  "value" : "eJzsvXlvHMmRN/y/AX+HfrR/2H7A4OR9yOsF7Jmd3QXWY8PjPV8sBnlKtCm2niY1xxrz3d+IOppVzeruIiWKzVHZI3ZWVGZVRlTkLyPyiPz7//PFHz7/83/98R9Xr2/eXP7Dz3/299vfEjL93lzcXJZ/+PeL8t3q9+tcLv/+s5aCt96Um7BKr8Pmutz85sW//flLcC9Wn23vXIU35TcvvsWSb9ebmxertL66KVeY87uLfPP6N7l8e5EKNBdnq4uri5uLcAnXKVyW3/Cz1bvrsmmuQkTC1bp78nXaXLy9WV1v0m9evL65eXv98rPPUr76y/V5uly/y/UybMp5Wr/5LPwlfP/Z5UW8/uzm9aaU879cf7axvLt4c3GFhBf/8Peftc878OTzTfju1cVN88w3m7xex/EDy/fhzdvLcv0ZXhOHm/Xl9Wd/2MSLm8+7q7lvOsRDDjfw6t3FZ+xcU/oc0/dh4tCjX12Ht5/xc27O+Wd//q6Uq3+9uJmW0Ge9TsR1/qF5280Pl2V188Nb/M435fubz9I1Fvn5z/6OMl7Du7erv/38Z6tVDOmvrzbrd1cZ0vpyvXn5dznnXzd31puMn3kT8sW765fu7fcNNV9cv70MP7y8Wl+VhvA25Hxx9eolW+m336846/Kt34Z0cfPDS3budJtvfY1atL56GeL1+vLdTVv6stSbl7ovRPWEcHnx6uol3Who/wsXV7l8/5IzvPwR699UE2LYdAw01XzJ8eX43Iu8+jtr7YE3xvXNzfrNS9G/s6nB9urt+gIbwgbKt9garl+Gy8vdtwIpUri4Kt377wpk/IgBfao6N5tw1dFfl4tXr29WqEbXqxKuy1l7s643b0bE9dvhJdX/9rqt7TlKcL0pcPvwtq73fdnq/1y8IXwIVzfdg2/FcHOR/rpPhfov0L7kJdeddBs8eSm2sr4rkJ13oD4Mak6Ve7lZ34Sb8kvJWC6vfvXr0U1Yby5eXVy9JBFtFaj/QBdXl/jVIF6u018PfJAdFgYim5JQV+W2Um1Ve6ZRIQfiW332f1dfXny/wuKrvAmvsJqvVt+9Llertmxe/d/PJhn1PZ+D98wTkbCDoogVBAi3OISpn//sW2xF6+tvELXC6jerv72gvoEuXrz824tvy+Ya2X7xUp3LsxcEJC9evvhD/EtJNy/OXrwq2ALCzXpDxLfl6uubd/lijTfiu4tLAoSv8d4PX2E3c/3i5f/34ncdddWQV/zF/2BOUhmk/W79Pb0PUe0/XyBesDNK/tdt8r/7ZPgeMyh9bjl+HSYdV0bZho65OcOPYj3zykkvhGjoWNSdaym9k44prRjD/Jfr9V9/e0Pv6tP/NUj/9yD9pxcvtT5XTGuludTcevPjj8T7GgW1uWhY+9uLd+8uMkqBixyTqBEoIyhRPfjKGFTDlQ0h5KLji60g/6l9xg9IGQgcG1XzUKHPPVZVnQtjz4C4H1P8OVeqp9HtCQr+QSEjDrwJl/RMvHj3bZeooX0PO2Nn/Eyc0a84k3in6eNRmmdoHFxfRErfbN6VsxcpXN98/Trk9Xc9ZVNSufi29MSKr0FqXr/DUl9f5JLbjCixWxlJX7zWBawyBZTMCTyTEpgwmlkmeNRhrowaRXBn9H3VGUh2rqxvOL9LaeTRXXfFBqTTk5LSsWamIBXlQGnHIYjgoTiPam8EU6rOldJAIL0kustWY4gwUqoB4RQ1SKQiuLAcVAgMVFQFQnXY3qz3KrlYQuIPkM1YOSaJQyXaUarTk1KJ0mQtwXltUIOsBJ+VgCpzEcqZYLy8j5TkOVPuDBAMhRK33O9eH2yEHaXD6bPhY+25cfz2McMs7XtuM3RFrDyX1t7mGFz3OfS543qQY+da+nOtzLDEBMWec+YGZW6vuxwKLXM7eOrgus/hzg2Xgxw7106dOyeHJSYo4lx1TbMtc3vd5TDYSQ8keHvZ3zfnVg042b328tyPqn2XwM81H3zr9vq+mt/8yjOs+xk+vftVZyj1M4sp+nVnvsnvuvyuy88p2SXaEpxTui9jm1/bPJfeyduX4g+J+4yrM/z8ok21T8ZE92hJadXmH9fONfU7/HZuzrhtH236R5v+0Y7SXaor6Cl9W5B3Je9XUyqw+wp6vm1+B2LwbaJ5KevrwZpcenbl6cmiLYQ/gtPXFGdCNq/D1PH39QLFzLpPqPZJ71kF3iXbD9IqQ1MLt62F62ux/YyUn03W48N+jtk1vqO+R+R4RzGnOBJkEjZ1F33dRV93YSjdpVrNFJbSZlvQtqkP3aaE6lXgAVU4BCUTD977DUSnue0L26R5kPju9ZlF+537t7r+pTM+48f7Gk/G0UM+rmvrie+lFiPxP97WSbJtpSTrayWbzP5+H3fqFY0oJLufKCTrRbFbj4/8cT8CR7xL9gg2D+WpgPvwn/mueMfw+qGh/2639yjaO4+tYzJ/v8qyroZz0ZW3MNAW4k+mOpPVfl98m8Hb89LEjyylR3eMmWFOeKmAeetB+ZogFuPQ9xPGaxF1VO/pGO/xae9cNyVObuCgJlNq9gaEVwZU8gWi4QGCt5rbKpG3ew2v3HWk7zrbu+74wNU+OfkIHj26vRGciw5UrhZczhVQcXwVyVct2QPkc//hi7bEyckn5yid1wwSkxqUMQb1R2uokrsYbGVSiQfI5+6Ax2CQZHcYZTBEcnLykYUVYZ0Co5wEFYUHX1BIpghtBS85Gf8A+dx/2KktcXLySU4oq0tB/XGIP9wLiBLVyQeXgveZG/WQ9jUYvLozvrUz/vUeg1uPLh1rk+VaV0ieM1AB/0RmAjArk8pJycwfIp17jxY2BU5OOorRPJsQkG1E6RSF3ZYLFrwPgnMhUtKz+/ap6bbJqZI9k28N5eQkpLmp1TIBJTJEnyA0eCEcFB6yz0kjcqcHTJ4Mx+vH4/7i3PKeZNi5VDskbGYGzUN+brXeFlWI3HzPVMwo58QTtTj3EkWJf3dI46IarxAOh0UVfltvRkU70riowkaCffWwqNTnZlyypSh8tT3MWC+7naxNcTSJmNuRFZfnDm+NJbBDbHOOS7cZR7ROMOPCnWB2iG3Ocek244jWyWtcuJPXDrHNOS7dZhzRWkGMy3Zy3CHelVifT58zp3fF6BuDYkeMY2KbUzB8sNwl4jPRh9nRwzFxsnj3onGVpoj9xxlVqf84Y2Kbc/yinjiqUq/0Y+Jk8e5F4ypNEftPPqpS/8nHxDbn+EU9cVSlvoWNiZPFuxeNq9QSh82x+xgjUit1dy7cbisZ07rvaNBf2wWuEcy00hmVnaR18h49bwK2Oi5GZSdpnVxGz5vAsq41jMpO0toWN5JoSxvh7AR+dmLHD7STa0TqOB2QOqmPSJ18B6SJx/e6N65ry9OOPDqNGgv9Lg89RI/AuKvfmNgXHqtFxwlHX83vfosxsa3Q+JmTzaZHsTGx/SCjtjBJawuP393XkjyAXdXfydl9hnHOKWL/dcbEjnN7Lr09TOyKj97ea8/omT1xnLNTqnHOqX6/79HHcp+qUi+QMXHKYOkFMsrZ13NMnDRFOuJYvabwu1ftMbH97CM9nKR1qjBoP1Ok1pIZSXeS1hUdSXya2JYeyWGSNtn0Jg1EKv2AhQcKr2kQlObIabDT04BkM5bZjrLyZrySxkZ1m9A0hsqa4dg+2Uwpi9vx2uGQdzO2KZsr3Q2v2nZYtR0VHYyrSqoX/eJfqhqyJTUKjpLYDFCZmrykVGeqGYPVlEfR2xTqijxTzbgtVhaVuZnyN81VM4grmzz0BI3/IdP0Ni3PNHJGNaNfvKK30V38a9vBY3Y7tK7pSfhH+zPD2iT+mm6anK66JP5ux61dJ5pm9lB2I9LEW7fYQdJH75K25ZGS+Ip2wQcCl2nntvHHtN/K9Qn8EaJJkYRVm1LEKqWI45aGP6otQQKxbcqemW7NBrpvxnVJfLZvFYH3KfxpBrCbH9GqCf5o1qRIVqJNCZJhk5KtVD39WNaOzGOXYrvRevy1slMytU1a6hbbJCmB6JJ4o+FCnmEjIAljda1pUqisCJGWqoQ/2BK76T6HTbwrjmVdWymsh2vFQSYyVY86ufZBVCHePrIhyfY1vEu55qKZDvVnjcfRabBvk6gsostA2tMlnT3rXuRoOsB1Hx8/rGtUWdJr6Z2odrp7FTUA2RIV0dsHKbrqk8SfaB+KV9sk+iKsexVyS0/wggTQcO9kM5vZpviZ72j461Wb090m8dfrLqnPfPPpG/HaLnXmGyXwdLFNolRYoxGcxN9U1je/nPEuzehfV18/SFOCM9lfUJF2nkTT523mUyhN0MQalWW2I9xeoahYo8NYtHmR7C9kN3NEaXqP79+jhhek8M2LUO+9a1ilpO3WNYnmqk/jy9rn0xxU8+rtxVnTggkc8bJP08Obso3islabu5kiatayTSJGGtUlZTPp1yw48M0EE+tgzHdJR1dt0tBVO+3UoF+fpObhWkXEqz5pXSOyJt3KzvUXrqlte9GwYPoL4rj5/IaUhrcpmh93XZK6gWbajrTG3KYpwRsIbNSR2mTbvbSFt2n8K/o0zYsJ2Rfhwwv6mKq/oA/a9EskKiG6h+nmYWZLpxlD2xfRwwuaU3T9Bdal6Y04wUwzI0lJaoi09q7BzCbd3OJ00eiIp4umt2mmLZtpak0XDa25aGiOLhqpe7roUraDLEMX22TToJqk912rog/AWuVrLxqNlP0FjU600Olbjvt0O+GIKWoIW1DwgwvChV4ituvSeXtpusbBWU+3zfVWK+xtmqCKPfpondMh2GAE+FoqKKs9+OA1GCd1DDUrYeZvKLg7EDfhDE+4zHeH605uVFPRlo/iEhSXNahUGQQZJDCerHTGxDBfTtPDa8eHa6ZH505TXlFaw7WKUHiNqFfBQPA0EWV8Tky4GPLsTRjTA2FTTvHkAMrUkNnJyUvrUL2MAaquFlRB1UIRVrA6C+WtT9qaufKaGm46OlDbCWtiWOrkZIXwGZhgCUzgHlRWAVwoeGkL00zWoFh5WFs8NNQ3PSQ5MeB8evJKJToXFUgfJSiRBThUKxDeKSsE06nOltfEQNbEAODdWYo7MxknJ6WifXE8VqhFFVCeVwjaFAiIYCGiEc3Z7A1RkyPqk6PfkyPqU2PvJyevlKRixngQplmFwRyEbBw4pZw3jEmZZ8trakD76ERQJ6yJge+Tk1UJNblqA4SYyHrICnwmVcM+smjhQ7RurqymBtcmh82mxtd2R+FOTlLMJW5z0FCzR2yvqgKaoQY0U7ZaFFb1D7JHJ+ZrpkjdPMedGduTk5OOkWvjHVRuaPum9eBEyPQnMUk94PzNd1PTNVOTnBOTpndndU5OUsKkGiXa68U6xHWO5rvz2kIxPFXtAs9x9mqo6emM2UP6U3McJycv7APRs2EKiuYGFPPYBWo0R6vXkVWelA6zV9dNzOZNTGdOLKS4u9zi5OQUUpROKwU6G8T0mBz4hKmqo0YfUbHMZ3s408sjjk+MT6+uOE15KW5kYdWBFImQXSYIDI0sYbMzBduMVvohfeDktN40sZuCuzO7e3Kycl5WbIcOsOFlUCEX7AWLhaDQGjVVFD1/c/7U5P7RJTGdqCYWAZycrNAX1EwUgchLI1jJBIiWc0i2lMpykErMXm82vUhscoHVxFKqDzCD+BHCPsRSTRJQRYr4SRO2wmYptVHGK42Qf6/1ixMLao6viZhej3Oa2uWZcYHVDOgUYkv0JK9YJOSq0YCvzspkH2Y99Gb61AT15Ez23Rnvk5OWyDYUozTEWNAqddgdRm4TJO6r9r6GomaPYk0vK5tcXDO1zGlqAdrJySvbXIrwCqLOFptA1OB14GAZQ7zX6ELr2bbW5Oq4yZVsk6vjptbRnZy8TA7J8OzAKkR4pYQE73QCaaJIurho0+x+cXrJz+z1NVPrgE5OXsyguFLiEJygcQenIKBjDaJamzPTXMrZ8ppc2zy5Xm1yldHUeqSTkxeilOJCWpBOBVDCWHAqMRBk2XurvJWzRx8mF3RPrsWbXCg2taTs5OSVgmXWI2oJbsn2QgcbryrYVJTCrsCiAj5MXpPrIaeJ+5fLnZy80LrivqBJ7wrH9ugYBd2qApJg3Cu0J7zID8P7fgJsaiX45OryqXXoJycvy6NRzAqw2hdsj4GBE0wBU9FxbI5omc1uj1OrgSeXrE6uTr2zbvjkZGV0UB6daSg1oqxqRT8IjQv0g7zgOimT0mzdml4SOrXUc3JN6N21oycnLcZYzlmg6VCCAmWtAV8QvorKTjmLvWaYjVzTO0emFoxPrXif2GJyctKK3Hn0DckLErRKxAj0sbMEIRJqm5Ssigfaqb0aTa0on1p6PrFE/eSkFaoKCu13hCka6TKK9pcqC9Y4IyMa+SY+0Erth7Um17VProCfWCt/cvJyngdegoUqvcFe0aKVmvCPkyFEG3Op88ckpnaGTC74n1zbf2cPycnJSkeeirUe7QaaH6MtuigmAaZGk/FWEfNHBru9pB3DO5E7+8u94WFPMXCnxZZXYuTgmVI0uhXB81Jo76nWPippwuy9yweC4d6VSR8M9xnsz3XaVl+qBMkM+tC6RIgIVBAJtKyp1cy3E+7sVp4XQXi8p/nkJORlYAxNAAjYtYEqPgOa5ghPJUtRjKklzo5P0m3EFefoap9hUz3XnI+CvU6Qttt1pzfxHggf279GnKO3OhVTdvTmUa6uqHLnyoyrMyb1+WwTSmWU7y7JoL1jxU7RfUTv7hRG0n21o/l9nOCfvC00Dpdk29S88HK8D4t0G07JbaMp7Xv7449CCklzcNinFASDJl4ROqkGrM8alYxTzJkPoe/7tXOK1BQ9OWyomUlbdKVxDsQGHx3EHCVwlwLjqlTOZ6+lO9QCJtvKRJt6j5by+HqFSiSqqaAl+uyKyUCjtQ4KEwU9LquNmd0bH0Kpe0FSW/TkZBVYDKwGbINBY69MLnzMCXvlyoIQBS37PLtXHosFfU7jxzKYIM2ITT4wDHfeoM6tG2vkIFP7xibLh8byj6DBCe1stJW8Fwy1KUfEJcUh14BOiVBaz1+3d+ir7BfkFKkpenoaLKysNSkwksYIovPgs8lQveJOV6WZmt2L3LWzd1yROYbn6UlIs1KrcOCMc6CEQO9EKQksqFq4k7n6+bMxd9rkXW9u1zfZaaCnJx8rRNWsQs00JhdFAqck6pIqeCs4eQ87pBlV2zYsYrmjTHpqk97trs5xcc6kHz5y68cMbt9e45fwFA7M8/57iHNBO6bvUMS5wpLDUgOKPZdNTL5tIXluaC/1LuFOkVvCo9jQZmtD+64Ub/cvizZB5Xm3p7gL50mmYG/ZmmZ7PG2T5+3m6oFZ3WWin5akewudqtFuoe/DwXMK9c51V+Uu0eyrb2zrI5Vstic3v66tYlM3edZVmT/+BrxQpDQJ+/xsYqLTarDjpykOkQ2r3GSZ3f02s4yV/o7O3lHTcbM4OVCoaGxX7h2ajrKgEemwM44xg8b/sURTtHL2QP1uu7jbcu60rd3Wd3LyiTVrl4oDLi2aKMoVcB41KSeeeQjW6/lLSObA0QxYOzkZBU8bNAsaJJLRshEv0NV1GgLaciZFnwO7V0DMQ/H47vQrw07i9CRTba0hakjRZjrfSEIwDv008meNrRZJD5TMqHNs/zUKos+lM0MC+mi8BaROzW4JdyIhdjlun7HTXfeu4DkfxrG9vezu0wTl8OifwaXTakww3o+f0NSAnxuhh1zcEroc8txqN8wxrFRDuJOjee0DOmvVDT41Qa67XrWNTtKNNvVRF7adtm9DV3Qb8vsjQXh74keT0H1n2PWTbXSGvhPtAtqINuX7uB5zKtJHwOFdisbOeGtamG73e7NvfnukSk9rT+zgre3B2oG5ZvN+E8ChS4kuNkUTDcJ1KdduyOfNa93jr/KIIqZiLGSWDahgCvgkEzUvk6qVkZV7xSe+o/R32smdljRsaycHOsobLhSvtB810/worYIxBrzRlTFm8e/snQCTTXJfC7xDaIqcnHwEkyUr7K44Mx5NQs8hSkTmWDUXIntd9L3io98BxeMo2IPmyckmOqVUpX3ylXbpFkeyQSkVX2WpSQW0mx8wezXtAM4J0HuCEorMaCnIjUjkRVuKbi2hRuN0CVzHMHvMit3OB8+alBpNX201qSOcnKRySpwlSasXRUBJBYumM0Ndkq4GllyWZf6uXH8u/XZljzDnTPszfU5BlXpRefQtsOs6l2KXNhBzN+Q6LukaPBvkouQoy9QLhT0X1k0P6Y5qMZmRXjGua1sLjiaS2KWhT6kO0lo+ucHLOw8cE7ucdriasyOSo7Fbekzr8knkcZdmz7F72S08JnY5sVm7XaJEx9DtlB7TJgt3rxnVp+N6zGD3RHXuD5G6uoxUrc83JrY5FVqvfDfnDrGT9/Brdfow/jCdhu0Qu5wjZjri6Mt0pce0Lt9QOj1t9GH6wmPiVOmujuPqdMQRhy1t3Aq6fEP9nqR1Lx596V4Qo8Yx9RG6J+4Q29I7GDL5nrb4SPUmad0TB9ozRWpK3gOXmzG9xr6XnV3fhi6T3ZmQNJPeOxS+8we6UG5nXRw2fnukTxtIrk2q2/CXtouA2Z8I1IQxa2NftjEvVXPVnPjUnB7UxB9rjfwm+hg9SW1HDnkfC841V6zNK7r4bqJ9G+se1gXHo7CMXSXpbV0AOLSORMfFnQibbdxN3gQwbDK08QG7ZOO0tBE4ZZvS2ziVbSDOJgBns6+QotC1ATh5G21SNvHNmnCTVKYJSEc+F+q9amNHUug63/l1XYIWMrdDoPSq7ts0UT+blGtf2Pyo1hWk17WrIfCnCUWpGo+s6Yx5d1Zc415p3nXRXUJ3rlz7GU2bMq3P1X7P7elTonUmBWu/ah/WlJ31AfqalG7DVrJt1MomHmafooV6qkuqRpoUHVM0KZKEbVW0jeHXCk2ZbQTIVv6qkT9vpavaKJgobNn6xW2cz6aEposuxbtwps3FNmnayKZuG+PU0U8b2pSq16faOKesu2gD47E+QX33409nOq3QL1WKopah8exoYWrkCWKQyvOQ0Xucv5lxqkec13/d7TdPzjRkteoaVIVkEqNwb+h9WV1AWqWL0LJ6MVtS72Ux3e1QTk5WNSYjgtNQWdSgWEWtKjwCC9LIUEyV7oFm9LTFcsCMmbKCTk5eQQpmhBDAIhN0xLyGmBLtzHPVssJLSWquvKacgCmrZsren3AWTk5WVsiorEUJqUwj97QUA5UNPGfZZ2uCL7Pd/Wl7dtJWnLJnpyzfk5NXFMbXREGTtKStByFCYIhbns5uyp5LPz980qQlPGFFT/oOdy3mk5NVtbbkQAutYmEUGAgxnruKGK8NF1Xreo/N6pMOy5TpPuk3TLk2JyevnGvUvnhwaCzQ5mtMpeSh5OKCls5nNl9eU87hhCs36RzedSJPTlY2C80pPFd2jDbGBgO+Rtq1YbBXTNhHzj/ictLZu+PFTfp6d13Ck5NUQrPT+4BGaM4UdlEm2tCioHrDbSwpSj5/0c/k+NLUSMvk+NLUSNTJyctIoVxxgrZICQqsi6iVELVUTUEllZJhsyeXpkYZp8b8psYsJ8Y2T05WLNjqM3aEhTM6aBaN0ii9AlG4FYk7pcz8tRGTA4iTw31TA4hTQ40nJy+rik6JezDRWrTkC+pWVAhiWTAmY+KIau81IP5+Y2EnJ69ajfWIU+B4om2xXoNPQkEu0XiP9paNsy35ycHtiYHjycHtu4PgJyerYhNqlza05BW9RDTrIdaUEOdrErwKVcVDJjWRW6kHi012r28n7Trx3CF0MyKDZwp2LszgJNJBjua6vf/sFrNr73QtTEPIEnuOSMGZWMKUkUw4zwubj4bTX2CP/Hav2xKnp6HOSLT7KbaXT+iXY/fqYtUIPoaC0RrH5m9D3p37PLS/b1LH2uvTk1GULoZKsb14E8TRAQKdRcTjljnhmAr3mn4f8n5ku+KBNdtTq87uOzkvurZJqfZXnelHkic+9k24KZuLtmK3tjD6VF47A8wGS6EMKXCTRrS0Dn2snCOCJMryKrwh6f7bVS714qoM9gX9vly//l24vki/7x6Pt9L6cr1BBoy1VmA/++Iaq/LipRjaSWgjSRoXFpq2btBC5Oi0BCGLQHTwOVh7+96vGokO3jB4+R9fr69eHXp5eBMvytXNkFTeXFxfo9xevGRYubclvbsM4wq/vrhCPq9RVhqzrN+GdHHzQ/NNbjbh6vpt2DSP7AT+3cWm1E1T145yl+NgMmNOcZDRYlv3OYKXqkCJpQqWJEJk3MfxN//4/c2DRM6GYIzvD65GwHcxNLUsmqZVIeJwldFqQHur2S0zXYF/ubqZK3bOEbfGYu9I+8XeZfhAYufDlU2h2mB8AB0dKbhDg4lRINjKIjouFKKm3nL95eUauZjDqFMoZqYGfG4pe9jc3n8E5aqyGhZyAkOxnZSms2IKpaKPMkeNxnXY4fKuTp0sp0Mtxs9GMU7QiiuadjThp0Tm0GsIAZtUUQGdrF1OZyuv0MYg+gyVd0vap7zbDI+gvPjlstTJoo2vA3neHPB7RrAiMG2N4LwOUPI/wuVMbJQKvw8fftJb0j4+txkeQX2tDA5N9QKepiZUIj5dlhBSsEpJYUKOYz5na+9J8DpU4JjR8k0qguK00Sxn7HG1R4euMrQQrBeoyTu8ztZfrbRnfKS/W9I+XrcZHkF/lTbkbHmo2iUKPqfA20RdIKu+qKg8G4Dvn9br+nm5uLy4ejWPXeyxjFajvmZL2sfuNsMjqLHTJfokLfBMseNiSOBcZiAyttYUZXKcTbI7X5tPgeWRNgf0V6L3QIHpUZs5fuGI3ra0jjnNaymVT7M8W6klekPajAy5LWlvA+4zPIJSJy45dqpoR1idaPLZQPQlk1mVfDDKluYsqL4BX1yRaT6HU2Mlo0hjt4xuKXv43N7fxyZFlxoz2voNc7Q5RyuzVZLMVPy0IVHjRTfeMqsoJCICdNrlc7YinwCvQzUu0mXh0clknoYhQ8rIK0crOQtbogmo2He+6T3MCqOwEY7Nip6016zoM3wodocqLLnwvDiJnU7APkgaBp4WJOcUjfVMCOcGrfaLuTYxVthwbHtjdOpI+9Gpy/AIgGyirSlZxGJF3q0vDvmsHrALrgjV2O0NVfiL+1jFJ8HrUIWZtOi0SwdJcNrKXhQEHzJiU7Zc1BBUcDu83gOCHfYgfgzBHWk/BHcZHgGCSwqZZYfNlWeCJokQ7IqnU2O0sSozWQau7NcXN80IyVy7QnllmR821y1lD7Pb+4+gw7ygHVFNgBpoXregURGU5cBMrJZr9JudnOR1tio/Pb9DPUbgC2hHVUBlphA+NUMQXEBkkqE7FL0109/2HngsmfPajPC4J+3F4z7DY4xROMO0ZAI/LLcUpSMgMPsAXjlLw58l28Eg3O/eXVwSv/dRaauE5tYOON5S9jC8vf8YQ2FoJJvCOcRCW4ALp/gk+J2ztkXzWNHfi3v5na3WT8/zyMJIyWgeaKifFh2kQCvKigUhsk6iCF4V38/zbNVWglm00oaqvSXtU+1thsdQbRlQf71GpC6NpeEg8IA9sK2K4rXzVIfohW+8F1RrxjyaowN2t5Q93G7vP4JeM5u8j+gZhMjohDz072NVGYzOnCU0KCXn08zOVuqnZ3io1NjzSsGtBJHomNeqGUQuCwivsRGzWkURexieD9ZMoWUzGr/ZkvaCdZ/hMcY0ApeRJ4auPUUHoU2zMaDPX0XFnkmjq68HGo1sIkPrzR/D5ubi5mJ99fW7Dc0EzbQxFUNRjuyuLWmvjdlneAQFR961il6BNrSNOgjaQc0iSMMrglmQvLrjvN/Dxj4B/of6blWRoaAXoVlzBGbCjro4dP1FUJ6RTWTCDP7noznjVkg+QvOetBfN+wyPMfQhFG/OCE+JAM6h8xicpF3jnCsfeRFRDzqx9burHDY/fHMfnZeeGzdguLvew2139xFUPTmdkgu0kIsHUHRKc5QeWc01qsqzLnmK1d/mixDDzUWa94GNldaOB6e3pP2zZV2Gx+jB0Nws1SkQTtNed2/BhRyB1+q58DR9aKc+8NvZkHYK84OjqQcv0MquHIqoNC0raCrJaJDK0exgdFbnCY7/8O4mowt9PRPHrKRIHCMc60l7cazP8BjKrUJV0TDQhQ4SFXScfZTINMMuLEqTnRAHmMYGfTWLcQqV5UbNeUvZw/b2/mMot6jVIIvgWc4U9N/SIVURdb0mHZJ2SqtDXNOw37zBTcmMH6p4T9g3tNndfowpCYvtmSeN/TSPdDwehV6PAV2t4hzX2fLAjnzp2WwrFCkb+R5byr5xhP7+I3CeuU0lBAGMafzakXYeplKgBiNoVWCptUxw/k8bSs2eWjTyztRiSzowtdhmeASWBX5tiZyB0wjcKmc69SkZ4EVVE4LjvolUMs1yTdhH36w3b8rN6/VMAaBonbA7s1Edaf8YaJfhMcZ70T7VkRZeu8DpMLUIAR0USD6i6nsus5kC81YA15chvt2Ut5t1wkqtN+HbsgmvZndrhmbkx91aR9rfrXUZHqNbyyIG9L8gO0MLQrDxB0eLu9DTF8ZVb2uYLYm03swWg3ZSiLEYOtJ+MXQZHkMhWE7SGwuloB+uKhOAnKPBnrlhHkVTbJ0thrfILbaOMnMyBPmycjxoviUdkEWb4TEGktEfD7lYkJo2b1gy3qMyYE3RWbBiY0p7ZRHDdXmDb5xoIN/NX3YinVBsBBdb0l687DM8RucosYfIJUGhteFKYj/hXYmQpYgm+cyc3o+XByRSZ68iQ/Y842JHJB1pv0i6DI+BG1xyyaIDkwV5eLSQTFcJCbst1B/pormfSN69xWZzHxXxjnm7I4+WdEAebYbHsJRj4ZmJTPstGM00JbSfvKD1Dclr5YTUUw7Rfnlcrr+7lzwUl9brHROjJR0wMdoMjyEPbryIPmG/Emj0qzrsV5KHZLOMXHn0Et2UPXnzumzoaWmNdtdFIlbm+U6KKzUeAtpS9hmV/f1HGQBjMUZHB2kibCiagowc+1aL1pPWSUcZJl2IW/avcjMUdP1mnctMHWAM7SWnxlZWR9pvZXUZHkMHcg5CVjqLj1Z1ea4hSuYgc2WEy6L64Zrxz5HZm827RFx/8+cf3l6kcLnqh8ZW89csGnQWBB8PHPSkvd1pn2GvFM7Zw+Xgk861ZAXYRaHJqR16lr5w4N6bYEUx2KPukcPn765v1m8u/rfkFdbl/70rqzS4vfpbUdj9CCbBGDoxyyEgO5rbZz4Wp4VILLAfVzdrKpaxULhKZbWuK3Yuh9FzD/moWrEhzHbX+zzU9u6jiFFnLYVNFmxzYjSd+RijLdgpo9MiUnQi2KPqdI31vEFp/uP3nWL9PlxfN9q1+hNwca5nCeUxljq/j2hYCIpUCTwPFLeDjm+grRKO20L/CT2c+7+XaJqV0SQbfW7kLOFIKbyUwwa4pewbne3vP4pwhFcpCm2BVVoYYSx20oE8vsC4ljpoGfY1vzswdL9lp2iRCjnG4560F4/7DI8iiqhrithCwfIcUE8qB68CTdP4ii6QjaN5mXshUQpFNIEqFKuFwnvQiUrGodegnOVGY0/rppGIu3l6RXtWmBA7jlJHOrBTp83wOKqluTXGIbITv0rTUvSC9k6I2MEbz2Pm++R5R7W2sz+zhaH92CHYkg4Io83wKMJwMflosYfLhbZqMRbBGRpVEt5RCFzJmdkjjH9DNdB69fU//9Pn1DXx1RcR8bhU+GL154urm5V58+Yz/Lf67cU8dwmNbTEcX+yu98FPe/dxWpyv1tGGtSDIEEy5gKNI/zpmgcZQ5VHlPUL5XecVdBA8bG7PrOfO0qGJVRjobGk6lM4SI3GExHW0tQTJ9gnhTjOZvcjUCGO0GM4pbCn7RNDff5w+WljtGPLPhDbtCpfIMUWDS1oo5qve1zwa82Q7Y3h/TeAjMfADIuCPxn5gaKdlBEipaAMAGnIQK7ZwKZQxyZWQLD/WEBo53Jt7r9DQ5sNuY0vZI4Xt/UeRBA/WqawcSEsbe0quELG/hCw4uo1JRcv2uUXHOuEcbA28GJCehu6y8uC1rmB4MEYxdEjTZCcszsU8u1c6Z+Vw9HpL2Wf39vcfqf91PhUVoTQLqTK6mbF47HK0xd4oOIotdlyUXxasF1aB6C8b0fyGnQvBVjffXlxT0qvVzfX6EpNoqc60/TQzdjw+tSXttf36DI/jhXIWquAScq7oPpWCfZKkhe4K5RQEi7EcB+HeR/h9ucHrLzrX4FzNtOAUGvo7o5hb0t51Kn2Gx3EqU6UjLFEgmTbpKFqp46KkkE9M+IptyT3UN+e0DMJlCzpURpNM2OFlBHzmvLAo7aSYmbaIxfDoxkPT5tqMRsm7631T5u3dx+nhs6bBh0BL3CLymtG9KoqBrbFKMi2i3IfuZPvJW9tPN7bfv67/cfXLIuCc/+rWAuTyHiYgN5x74cb7+nvSXgO5z/A4aMWU8BabnJK0GwEFBg49COCsWBZpxYGY7S3cY7sY5xo7s/GI2Ja0TxLbDI8iCRoL1JJHqJWi/RomweUkgUbRC3rARcvywFYn8AMaQ3PbvlCrFh4iNmTy9osu+FZf7Hv6oaeHYkFYRqoLxWHnrxjtBC+axseQ/+IQf2w80PyU65ufYgPX6/PLzbbdzbQzBefGjHq9LWmvxdlneBx815Vbl7ClpRhpV0yzWyKAkNUVZtHo5DPw/aiFQMnWQhBzLQRtPc2VjfZg96S9e7D7DI8iK1MRgNBXR1TiHPBF2GoMmqhCYNtMURhr9ANb5cPHqa228/pCNoT65mpfP8geC+C54ujbGoaGlcQeX1pUO4sap0vhKWWb/XC72UiArY//Pj4eRXThbmeJaEc6FMeGH5z9ea/+jua6BEJxpBDc6PGSoxMs8IpOvwvRW74P5ft+7st3m6sLqtyrmbOA2J+60Y6tLWXfLGB//1FEYFXlMZcA6OIb2liqEZhpFNrFmhB9FMsfAH6w0fbw4+S85qK1t94PneItZd/+kP7+owiq5OKj4WgbMdqVihYk+JQ0BM6l9h69lXJ8rnDsnfR7o1YUTQDdFIHdG5/dlowfY/OWdKAttRkeRT41skQrNOm4dzofQaNoCvkpwoSkM/rA+tjk1x++LZvXJeTebRPnbN5Amre0H3k4kNZT9g2k9fcfRRSSZeyPhAChQqIQgejD5sjwj1DexqSiZw/sptAOkYECnBllafyEW6ATyyA7EURo1jyL9xk/4Up7s7tRoyftNR37DI80OR1qNRROVTDav4DMR+sTWOmU1NrSrsvZDe/zsHlbKGEurlZfX4a4mh8oqw1JxnYbXUs6GIjt8bzagD22cQm4ov2n1JUFmoBWIqCMCp1gvG946Y7DNl8QBq2IUcCL9npfW2vvPo5boSWFl8A+S1IMLZsE+IrIzF3C7iwxxewMg/BY76UU3xrPMxcltI76DkD3pIPO/aMBtHVRJVMDQkczy+woVIYVIHOgxaW5OjXowP78ulDYvP9eX5Vvvn4L9Cuxw7r86+rrmzUtDVx9/cM1KNSaDfDV1+k1/Hb1z3+8TG9uoITrm9V/fzXPHLJSSTX0x7aUfeZQf/+RwAZdLmENNigar1UB/X4tNVRbaojGZDtcFjUhJLH6Eit1XEjX63c3r+dK6dQ6OPRJLXbpBmrMFLpOKwiK0Qk/gU4yKKYWd1BKfPUHWjzXyke+t3w418J7Y8YDSB1p/wBSl+FxXAtetcyxgE6BZpNo5BHtbKga8dkWtCaHS6qabWeIyKXdgLb68t1V2+F3YoJVuUqX6+vdeKUfN2Toe5mHjiXFVUABZAoQ7Gnsp1pIkYtsZGTC7W6wnpLHf+CbX6/fXZNI3pT8Wbz863OVSGGxRNq6FY2giffCwCXrQBQTfDAR7cR6T4lQRNvnKg5fa3A8KuCRzLzKMwT0HKBYJ6N3hQs5XK/dh5VAnP3hm60j1VyuZvpQchwG6FAEoA/rVP4PFo9/KemGgjr3a1NSDpYbBviPhrbwT2TKYO+ctanJMVcHlsfXqTRf+k242Vx8T6d3nLHu/5MpfGN6jTLCCg5jJhsvGE+6gsu2OT+kQqTj2qom09GLGONA5h0W/eni1etupvtPBT22O6CEV6/64NUvX2DzjknUCFI3IWGqRxONMagGbdYQQi46vriN6fxidqzQe/COrWPzRRdE+3W4yhSIem7F5jB/3W4L/3Mrg24l8NBx+6rrCfcsGr6mJt3luWtEkHRvu9Cvejx4qLlx3SPJVwNkOYgncdjYvho3wEGTw1eQhvdrxT/vV4jTO7b75vdl+kPTIL7aI+yjBf+5/6q2qlBiRJVhFOtPpUjRaQoUHrT2UUnTbBNN64urhI+7uvmPi5vXf2if/YeuUbbh567fXf3j92/X+G3puV+t263C311c5RG521Q6UIEeajpmuvrHruI7dydCCwwVZyf3vCXot8qyU/zD2KtbBdp5+n26qJFK7YrkMLaPjmxLoaIlFSEJilOasSN10XPQKugoAqfFs8NOY+C+fLlZX90HxqQvXusCVqGTrSQaMZ5JCUwYzSwTPOrwNDA2r2LzRbCA2YcFsz0inw9pIhXBheV03CWj/d+Fjru0dGaOV8nFEhJfIO2nAmlcRy/xs4JD3KCTyTxEGkdnkaUUnNIuDsP8Dzntus1/LfVmYjvSDp4pHWtmClJRtOLVcQiCgsQ4b5k0AnvP+jR4Nq9iM/mfC2aPvVTqJw+KgzAys1BxNvxdvbu8PAJuvXs1Qrevu6umT9uBuP/oL3c7vIfh3ESMkbmA9+hL9D4d4PRGOUOnT8nSHEGVMtBiZagMQbRmjZ3nMEDM3l55L2TO7Ic/PmTOrNhRzj+05TeeMDgEcvefWrgHxt2OE56K7Tc0t2cagTPN/MUIfH+NegiU7dGx90Azq43N2JK9jYL2qlkIAT1b4Vx0KUfnTNrTpmfZf6JQdDQtgWJBo5llJfisBFSZi0AgDcbLpwGzeRU7xvipGn4/QUxcTL/nb/o9e7gsWnNTC5hA0W0s7WfNDPvIyqs2jKJWDwYCxwvN9CGcZIY5gQ45nafiQflKG7iMA+mF8VpEHdUOTs48kuR9cXJmxfZyPAbIbtPqAwDy/VakLfD4POGx05cnhMf3XAn5KYEjGk0+W19AShpSs9lTAFEKeIT+oYyBmRT2QYU9BI41mVKzNyC8Qlst4Sui4QECWq/cVsmU408CjjMrtpfjBRwXcFzA8ZMAx+wl98xXsIq2RKHViEYjwqRNXggWeCnDOJFjqJCHwFHw6DUXkbZr09b/asFlCqWgo68i+aolexJwnFmxvRwv4LiA4wKOnwQ4RjpzXpUIPBRP4VoquEhn5QQRjTcK4dLvgwpxCBxzjtJ5zSAxqUEZY9BA0xqq5C4GW5lsNiN8fHCcWbG9HC/guIDjAo6fBDiGKnLVUSFABATHJB2FoY9QbGJJRHSz9d4ROHMIHGVhRVin8Bsg3qkoPHi0QsEUoa3gJafm4NCPD44zK7aX4wUcF3BcwPGTAEdRo8yhOMQG9K2VoLgSlRuwkhlbkzcl7bWj+CFwTE4oq0tBA80ZUBRTKEq013xwKXifuVFP41bPrNhejhdwXMBxAcdPAhyjQ0OppAy1lu70UQqEBjIVyWOSydS4DyrUIXC0FC+M4qkmz2kwE//gNwjArEwqJyUzfxpwnFmxvRwv4LiA4wKOnwQ4Mh9yZkWBc16Rk4luteEFZEg0G8M8epkv7uzLLWEzfzOfYrTDVwjINiIaFRUguECH3gTBuRAp6adZ/DizYjN4X3bxPc6W5F7Ws3HvhdO2+lIloOfDQelCB9eqRJEGVbSmVpNapFlWbv8EdqFEyxNnjEHIZNpZmlwtWoCuNNGqXNJ5eMzeEKkpCuAh1KIFjtUyQbHkJZ2hhC412me0tT0jKGrndRqjltKmetpBWDWdb+aYAm8TBxkZqqSKyrP6AVBrZsUO8DxGKyLenmP0ACvvfY/6Wey852nnjRXnCc299z5r6lMy+DQPkmMfibBUaeOeQBfUFAvcqcyCSkwPN+59/dcfLikuyDcblw76wk4HtLgNRQQsdEqw9uCD12Cc1DHUTIdqP4kvPLNie/gdQ2V/9yhO3vsIkQUDnycGbs9d+Djwd/+jaT4laJPoI6LbJgAtQoQ2K9GVyxTboUiD/qxgmbmppm4OQ5vyysmCJl1xWYNKdLa1DBIYT1Y6Y2J4ImibWbE9/C7QtkDbAm3PBNoYZ1kbbaFUnUFxFyEKiyYu45zCT2uZ5FRTV4ehLUpruKZVNLxGGmgzEDytMzEInEy4GHJ4EmibWbE9/C7QtkDbAm3PBNpk9r5GTzGnhEVE8QGi0wa99yRSQI9UeT/V1O1haNM6VC8jhUCulk56koCgUsHq5lwIn7Q1TwJtMyu2h98F2hZoW6DtmUBbjTkZipUqc6VDIKwGp72ELCvH5hyzsXsc0oPbOThngQl0cU3gzT6RAC4UvLSFaSYrnQ7wJNA2s2J7+F2gbYG2BdqeCbSJKJlD+wxypPPbI7c0Bytp1C1qYXkpdc+w+sH1xjyV6FxUIH2UdHCwQMTEP8I7ZVH4OtUngrZ5FdvD7wJtC7Qt0PZMoC1UFYSzHixFJlCVHDTrBO3KLUUVKxFfppq6TgcjFBTti+OxQsWHgPK8QtB0hFzhNUTOJGf1SaBtZsX28LtA2wJtC7Q9E2irheI2Zw5FNcfG+gxepAqcJc8qS0LWyWkEexjaUpKKGeNBmGYbP3NoDBoHTuErDGMS/d8ngbaZFdvD7wJtC7Qt0PZMoC1pw6UwGqykPQOZJ3BCKNAlcsFsTCxNjrXJww5pCTW5agOESAeEpKzodOlK55bpooUPsRnCewKrbV7F9vC7QNsCbQu0PRdoEz4priNkWRQ6pOiVhoRIx4TUVuVsjdwz9nRwGoG5xG0OGmr2nh5bIYZqQDPaSIEgUv3TrGubWbE9/C7QtkDbAm3PBtoSq1xWYI4c0qI9hIL+aYwCBcOqVsPNTEMH7aDVpmPk2ngHlRs61sx6NAZDpj+JSZqG3D1v42Mt/phXsT38LtC2QNsCbc8E2phSOajMIHL0RZX0BqJNFL7NFsudL1bxqaYuDq9rEybVKCujo9oRMXnWdHaPhWJ4qtoFnuPThKubWbE9/C7QtkDbAm3PBNpMNsk7H4ErgQ5pjhJiKRE00jmPKlY3uTrfHZ5GcDwGGZiCorkBxXyBoIOE6nVEKzEpHZ4mTPHMiu3hd4G2BdoWaHsm0BZC5UWrAqZZzZYd+qIFGz0z0dvArTN1EtrMYWgLKUqnlSKI1KBicuBpCK/qqF3WimX+NButZlZsD78LtC3QtkDbM4G2SOaKNx5sqg6UqR6iyhVcCeifsZBszdMzhgenERQ3sjB8ohSJRutlgsB4BWGzM0Uqr5V+EmibWbE9/C7QtkDbAm3PBNqyjyFzKdAjUxwU1xK8QGhLRUSUDBdc7lnndRDanJcVfT8H6OxlOq2sQAzFQlABbcIq0FB8mnVtMyu2h98F2hZoW6DtmUAbM55ppgPaLgodUiUqxMwiWjE6+yAT43LSiuGHZ0hZwKeKIsAwCouWTIBoOYdkS6ksB6lEehJom1mxPfwu0LZA2wJtzwTaBJNMqeChJqERUSpaMZkzYEwWW0Wwwk2u81JHtserWKpJaAyKFBExE/p9zRmDRhmvtOZmN974x9pDOq9ie/hdoG2BtgXangm0ValkITCRlbaLMx3B18RAFlFj4jk4PxllVxy22jwzLrCaoaiCfp8nBIlFQq46x1qdlck+CbTNrNgefhdoW6BtgbbnAm3aaWF9BFZjABWthsAp/AdZcyIGXtLkbgR1eIZUZBuKURpibE7pMpjiNkHivmrvayjqaeK1zazYHn4XaFugbYG2ZwJtzEWVQgkgZWCgLLbyUKuGar0RXHru1aRDqg87pNnmUlCyEHW26PdFDV4HDpaxGIqWMuunWdc2s2J7+F2gbYG2BdqeCbRxOhRZCQnMOQGqugyxJgkixVIs/uNpcp2XOGy1mRyS4dmBVZzT7IQE73QCaaJIurho09PMkM6s2B5+F2hboG2BtucCbdwaKYIEow2FZkweXGEMWPDSJJo9ZZNWGz8MbcwggKTEITianUhOoTGYPYhqbc5McymfBtpmVmwPvwu0LdC2QNszgTbHQwjeWSiqOcg9UUBt48EUp0NiVaa0ZzHEQYfUV624kBakUwER01hwKjEQtPTfW+WtfJrIHzMrtoffBdoWaFug7ZlAGxovVTCFTZ0Xg1aM0uBispCDdVJy42SYjF/GD2+PT8Ey66MGwS0tH3MF8KqCTUUpG4pF6+lJoG1mxfbwu0DbAm0LtD0TaIs6ooHGDQSNppsSER1SiSCXhEef1BpR7ORGK30Y2rjR3BeZ0bvlms6XRw8QMRQfy2hiolYv8pNA28yK7eF3gbYF2hZoeybQVqKKhnsOPlBTF8aANzUD01ZErQvaNpOLP+ThsTbLo1HMCrDaF3xsYODQOASmouPo9gVWn8YhnVmxPfwu0LZA2wJtzwTaIq+6ek+D6UmiFYP4FrTl2PKjMsJWLabPRlCHl+waHZQXNkOpERGk1kCxktA4sl5wtIBMSk9jtc2s2B5+F2hboG2BtmcCbTZYwbMpkFwu7dhTyMpDYVYynUPybs85pIf3kDKWcxYJZAmKlsuhMVjw2UVlp5w1PIUn2kM6r2J7+F2gbYG2BdqeCbQlS7tFjQaUSAQVrAPHioLIlXTRG+vM5Lo2fRjaIndea077mQQClTUCos0S35LQXJKSVfE0S3ZnVmwPvwu0LdC2QNszgTaJ3pmXJqNDqig0YwjgXfGgleQhh5DRyplq6uLw4g863hQfVoApCotmFCKIVBascUZGFbWJT7OubWbF9vC7QNsCbQu0PRdoUwgZSVuQMdPq/EhBfliCqFWKGp3S6CbH2uThGVLneeAlWKh02gJ6egpCwj9OhhBtzKU+UeSPmRXbw+8CbQu0LdD2TKCtuMSCrxFcVuiQpmohoK0GggXBc8y+5sFY25cXV2XL6x9qvaB6btZXN1jJy8tDWKcjT8VaD0HQIXmeM0ITAaZGk/FWEbuxKXPUWepkwSc6IdUGDj7KCFYEptGR5LzaD4B1Mys2VwBj8OuIh4Fv/Tb8v3dlNcy0+hv3wVWXLehQGc1cJwhZG2AOzewYS1LM/Li6WTcKjYXCFdZkXVeoz81BqrvgKFbDqh8Cx3HO/Rp9jUjz+t7oWPHZCzTuhcZWXz4OMD6K3t0LPN9H1R6CnlPK9x5jeSKhwxc1iioicrDgIJLRFHRMrjLL9HA7egcWfyJb6ChaWvQtS4yIeEwpCr0W0c4rBQoPWvuIhl9gT4KWMyt2gOe5AIkZLlK4XP3LFfG43mzL7wAb72D4EKT1eRoNk+8HZt2TYFWu0mXXoN8fzb5upTIXzO4IdvWn8m3ZtLWZB3MvuMgxCez5pea07LN68JUxOpEb1QdtgKLjiyNAiN/sDg5+tUZUuguBX607pHpv9LuV1VzQ26dL9wKrhynRXJg6qlbvEwGp4jcVEVJw5L2ineeYlsBzLp5LW4X1d9tsCZujMOW0rb5UCZIZfLIuESJT6BfTyJg1+NrdxSIfCaZmVmw/ywtKfUCU6uX6AJBSjLBICMg2ojlSVIDgsI/1Ht0TLkRKzUjEAlLPHaRS8iWgqwXC8gJK4oeOhhVIsRqjKzdhuAZi5HPPM6m8DIxZRIMQpURN8hRRBL3dWrIUxZhaIn8SrJpZsaOcn6rnuQzLLb7nCfqez33gLlZni0ODDmETzXdESQTMEGl5bEiJsSqq2gMbX+D3g4MbHLKQdOoUnW6PppPyNYEv0oD1WWupeBXpaU5tnlmxg1yPgZLIDwNKY6wMFo0Ro2iLbEYvKjKjITsRRLAGOwsxpa7ifJm9eL4w2enLE8Lk++ndJwWSsiSdSkEYKhlNuEybPj2CpEzGZBGL1E4fgouDK1NqZtIWXWljPBpuPjqIdLY0dykwrkrlvDwJSM6s2EGuF5BcQHIByU8CJF1hJngrwVuLZrejhWzGefRzLXcekVMYcQguDq5MzmidiWoqaMkUKCZpVaB2UJgoylqrjWFPApIzK3aQ6wUkF5BcQPKTAEltkrc6JCiJzvmTBS1J5wxwGzzXmgmu9y0TmTc+GVgMrAb0bIPm6M9HOl0sJYiVBSGK9DY/zVzKzIod5fxUxyeXlTHPASw/sdHJ570yxpmA7id2KYzi5KkiCnjasB+EFNLEIlwQByGj6xoPWJUpCF/RZPWCTr7IEZxUHHINpWqhtG5E/hRW5ayKHeX8NC3LBSqfA1R+UnblMwfKZHSswoKLNoIy2YE3aF+KKHW0aN4xP7E0Z42iGiyl2G9SCitrTQqMpM23EX16n02G6hV3uirN1M4sjgjVBuMD6EihAJPT4JmkY4VYTIZRjJX6IUzKeRU7zPYYIr+83IuRdxZW9Hl/8vD2wPU6KOjZQPciOqUUHa1XqyrY1zsOURoPBXvBgt84iGxefNQVOv3n/QhLdPpXfUKQpdF2czxSHCZGR8VWD9FWAzH4WFhFwAqDtjvidN5OkaBZqVU4cMY5tLNFBK+UBBZULdzJXP3T7BSZWbGjnC+O8GLdLY7wJwGW0ajqrELIUI46Ry5RVCKBc8xEIXgRcnDO9L021AUrRNWsQs0UNCrSU5VEa0oVvBWcvLNE52PB5LyKHeD5VAHyp7GIe0HF54+Kz3aZt7Ql5GITeI/unzJcoTWVNdhslcgMvWG2DxCPjQmGIqVJmkM2MYGSuUCk2Mfof7DKTZbZPc1ynJkVO8DzaY4GLnB4snD4SQ0BPlswjJLJ6ioiAUcjSTEu0DRzlgJosSpKDFrKPcDQbKdqA2msDq6/qUXXyr0D7yRaoAzRzkf03jX+jyU6skzuBD1NXPIoEZO91VQr8u19yZBkSD7g5yysfABUnFmxOczvjARefF/yNsbIe8acoWQbG0RMxpxZMPBkMfDUwszsqtKngXEu1cqCVjRKRsOFJqDzWx3w4kPihTkn1fFmfnAddqxZu1TwmZLWL5Kn7TxaWjnxzEOwvo3D8PEhbmbFZvC+INyCcAvCnSbCpWq1YDxDQIsXlEO/1mtewDCdgjGRKcvvtvLLY96sx6KhePCSUdAGLyAUpyFIxU2KPgf2RHO38yo2ze7sOdtj7kVRyWfBJBhDAR5cdNitSAfMR6yMEIkFNj3aYrX9yaLcP22IeDIY9/hTuFuGP5Tb+r569alAHmJJZQascxlUsU3MPAOICDxWpavj9Q4G/GupM2Y1qq01RA0pWnyy9RKCcQE87V0ztlpln2hWY17F9rO8TGos9t0yqfGThENdTY0JxVIz9hdKskI+LkVSU0aImkrUdyc1ttjQuXkHR/F4FDEVYyGzbEAFUxDu0LZD0DFof8rIytO4uDMrdpz1xcNdEHDxcE8T36KyZPwwRJCA+MZogzDLCbjQzGiVtazHG/nBITzlDReKV5A+ZjpLg47kbg7r1ZUxZvGvfhJ8m1mx46wv+Lbg24Jvp4lv2ZjCPLbqKpgFxY2jhb20XU3UUtCw89UcaOTHFqYIJktWxQNnxqN56GmFPPqPsWouRPa66J3Igx9pYcrMih3he1mcsoDesjjlJweKxasUc/CQZSroz/ECMQRav+x1FcZV6cIdcOi2Du2fqp23WWgAhUqb6mvyULVDO88xhRZf4oCeZfVFReXZh5jVmFmxSW7HAEjEz8vFJcp1GgfvbCK6zf3TBLGH70J7QMDomVsLP+J2tLFCfIRNabcv+zSQSrkotDcBEivNnvtMp5VlkGjeyOyNcGpv6Og5Ue6jo85BClq1m2hDA/YWUkuo0ThdAtcx7AQb+EhzEjMrdozxU52ZWOJYPQ977hObpnjukazQ0VXGcnTzMqFG1eRmpgQlRVZ0bo6zfLEnRMkR8y6nxFmSmhY0BzoC2ILzDK0oiY4sSy7LsoOUH8m8m1mxAzzf08g7prEpFKF4bjZQo71pmsOSjQNrlLPcaK+9m9ZY3hw1uuzdfY5IeT9T8BEB833V7xPawusMJ/fPAs80Fqc5Hc9hKoia0epKOorExtDRMfrNdX8urj+EmU6rVIxSwDj52U301cgTOttSeY7dGPf2SUYHZ1bsGONPdRrwgojPARFPbQLkvc4Cft5Ax1lwUrsMnFNAZOM1BAr76WTMDlt+rcYfae8H17CwWnUNqkIyidFJw2iBWl1AWqWL0LKirf4kQDezYscYX4BuAboF6J4B0Hmdq2BaQXaFfE40gz3H9h5ZqNwVE4zjx9o7O4R0NSYjgtNQWdRkYqPlVHgEFqSRoZgq3dNEJ51ZsaOcL1C3QN0Cdc8B6qo2kiYzM6PY7SLSGc8xgQ+shJDQyJNHoe7gwr0gBTNCCGCRCVAhaIgpKbQcXbWs8FKSehKom1mxo5wvULdA3QJ1zwDqcvRZmurBKjrlnKkAHhs54D+jNYKdZsfG6bg6BHVWSFoIjTiiMm18pSDvaE0herHsszXBF/MkUDezYkc5X6BugboF6p4B1BlmJS+0CyHHAKoUbPqlGKgySRq0UiyGYw3+4PG/URhfk6oQtfQ0PRQhMPSQvUwqZ8+l9/FJoG5mxY5yvkDdAnUL1D0DqKtCahlrBgQXhDpDa+oQ/sAIx60rwmZzbGz+INJVa0sOdKRZpLWDNCUeuasgrTZcVK2rehqjbmbFjjG+AN0CdAvQPQOg45WHWhDooipNDAG07hh3YGuwLBsvUk5H2vvBgbqca9S+eHDKk5MoMJWSh5IRWLV0PrOnAbqZFTvG+AJ0C9AtQPcMgK7KLIqtCmjvPKhcOXpvAg2bwpU10ZaSxJH2fniYLgvNjXeQHUPYSsHQlIenbftBmsSqcE+z23ZmxY4xvgDdAnQL0D0DoJOScwoBiuYMAZ0xdNRF1OCL4rUUg17tscUW5hDQpZC19yFBzLmA8jJRED4F1RtuY0lRcv8kQDezYscYX4BuAboF6J4B0DGbVZQhgpSuMWwYBOUySHy/VCmjF3d05vXgymEjhXLFCdrWK2g7rYSY6FU1BZVUSoaJJ0G6mRU7yvkCdQvULVD3DKBOaiYZNwJY0QYUkxFi8QY0t8HrwoK2x6DOHUI6Fmz1WXoonOHzE48UkUmBKNyKxJ1S5mmQbmbFjjG+AN0CdAvQPQOgY7W6UtCm0zFFWk2XIfAYgVufXaVja/mxeVd9cJROFZ0S92Citfj8gpZTVA5yFgxRNfEs9JMA3cyKHWN8AboF6BagewZAFwQd6yE0VB49KO4KRC0U5MpELTqqWI7Nu9pDQFcropM3HBxPlcKia/CJnl+i8T5nb+PTbJCYWbFjjC9AtwDdAnTPAOhYVhpdVAVSmADKWw6xigq+amEkV4qXHdd1y+msk3uKTWg6oVfsldIIW1Hh81MCCu8keBWqip15148UJW9mxY4xfqpR8hYgfBZA+GnFyHveUGlUMpXTmYaBJxQVBUGxSQM3teZSGAsxHUKMYwHhtXe6FobPz1KAikZDZAlTRjLh0PhjTzTKN7Nixxg/zYjwC1A+B6D8pILDP2+YZC5lYVOGFCIHpZMDV6SBILThxgVf0mCdxyho6tHjb4tDm1RUiX64RwgOVoCLVYOwpmZ0Wx3TcgyRH+n425kVO8T0yR6C+xMMuLyciPu+cPhRT8R97rGVsbMIUjIGiTsHqnoBUQkJOrGk0Pl2le/zNY9DYpQuhoqPddzjs/EbeI/2fC7cMiccU8E8DSTOq9ghpk8WEn9yRuMCiM8KEJ+jhfg/P/7465//7NuwWW3KVS6bsjlbXadyVc5WzeRAd/XNulGM6/6y5FcFL1pqf3WrUbfZY0h/7a+6F70tm+u3eH3xbfkca7kJ+JzNzev1q014+/oi9bRhtvXVzWZ9eb2TsaP2j92s6S1nqx5UMTvSL0K8LF2WjGj45foyE5OYLn++eNM/u8uR1pfrze/C5mybovsBBT0g/XNpJdNf/8dFvnndPeANfZsv1t9d/efZbfq/+vejXvzn1zdhg4Up/V9NGm92XyD8kLCvLJvhs7r06xLy9b+97a4u6PiYa+S2ZPwi5bJJfdMzPkH6hr7D9kWvys3X2I1cvfpys37zr+sULnud/c2q9pr2y7+WH7CapYZ3lzf/Hi7flV+t/vbzn61W2MO1iRXKF8lY6HLwjHN8+r/clDdU/le/bvNd1NUvu7y/WRH8/Kp7wArV7ubd5mr0nq7QjwUxaDfft8MM9PPjKoWb9PqXfe32PxGz/ziQwO/W68vnx//tY35BJx/94lcfRBaIz+Hm+QnjbcBG0NS9feAHEMZ1uTksg2+nmR8xfX3LdF/g11NV2nnxDbbIa3xjc6+F49/98HL1i+6YqRX1B784o5vXr9ffNRiOd397edng+UW5vr3ZdLjXL/fp+S9/cZvpF2cr0qRfbcvS8Pexok2eOyUHRyYce8Aw690aNDORR+vQ5rpT+osZrH8xyfnXrwN1j0fKdrnulP4jYnljbR17+W3GCc43pW6wBzzKe5dv9ITv//2ifPdyq7G/RDVDtUIFafvU3169uizXv2RnK/yP/+rXPzaFfphVCJ2RcbH/nfsuPyy1KZjp+MsklpHDcsN+/x6iaczYTjZfl9RONbOW7Z3r/9257k2Hr5qP8Yu2aTU9PtpypftA073oL38xyIe1+EVGG2bzinSmrUsOP3x9iYbSpn8ZWnSbnsLbN/2QLv//7p6GqY0k17/Sm6pbj8E2/gICLFu1Cbnd1CYvqZDkBVJUaoABZtd4fJ4x2OT4709Sf3/MeAzsfbxU3a3pVktqSaNWd6u7k9+geJd3QhceTpLkfLfUawNxBQW0e50upznNCogFXoqQpUKGNqAtRBk0oUDAd5kBBTWw3OUcIqB0jPEY/JrEI3Bw3PEhJhwE5u4AIBz0OLllH3/78OpVh5BG/c3NFpP/15QumzFSK5CEmPeqA6Qi/iOeC9JNos0biMATgtcCWkTzNtZvRFBPvxQMdqEHsbWAVeWnJeWXXjl9yrcp+HkWmb3GDkJ4l7BGnsBEZVxAWNbYVSOawNPtDHb6bI1FPbbOkulFFEmuse751k6TbeA2HwhCjnaMM9Hp9jmC4eZWKYLN/jZHMNjeMhCcKurDnUFp4/52v7kBTbs7ZtNpEv+5Z3ZPW7vVO3ymehvw9Ds9JCERr7P+Voe6TNqbZLeSJqi7CfBbm53NYO2gCY23BiW1Q2zb73cGW8HqTVt6CiACGW33AXEPZDU0+GxDyfNer4RPFGrEJdjf6Vnd63Z6m9vDsnb4f44aEBMwsQPYhp2uLatev1JWg14nTIlkNXzeCQuDy2pQLqsqdU9hdnSa3drKBjEOQYxkclvbVhegT2GNKSmus+ed7b4t+51Ob7us3yCWYSesmYHzlYAyus93Bn1SZ7+/Ndi0TXG7039epitos/McFBPmgyTcA3MclIu4B/oZ7IR7v0ka6na2BmH6W0Ez2dmGVvAJ2Ja69bzkoyBh9YdhFgdkBTvh7g2pe/0y3kMGcs8H/KBLh9n0ZYudYjMcRdSgcZEWr8c8sIuE1+TTcjEJh56fZ2ezayCLU4tXowR/vli8PheDbvs0nrYVeEM79rxYjDCcV3UdKtmTg9EPMgDv2ANgU09vcBaOM3/CYi4FoGh6/T0Nd4srAgYYrRCgfk2gIpsACM1hXo+LiNjpQGHTgBnhTr0HhKXmbIqgfmJdxStjGhCtXs6LGM6iqMktybiTjkESnLufBJ51zn2zDFmgaVs0gbaNybxhzsI4g9jVEH9cBEvYEzL+iaNZF0rw+ePIQk3bsk2AQUHUVHI8ukBEvvLQP5ka9MwhqGfXGEpsptQckH1gqZ5VoHw0cB3jaFN/bcH8tXYiOvRQc6nN79MZjpBq0H5oDq8c2GxybjiPQ1qHw4mOuWxAKsSV4lrOLJc42tjG8GhFMi9WRYFtBAq9DPPDPoTzlp8zImUO0lbzoQ4VvIWYGUcgpzSeByGFvJD/jm0j/S6I1P561EDmSBtZd1r3VmzNVfvx7RsZ8dF2g+jiGut1u9gp+M+e7xkM5s/TfDKKF4CkMc5AJT6DQYigpbyIR6MM7IMvkRsGkk/icZV2T3nDtpR2G7fsDNVi+yZhsbrN6XTk3mDHnObuyUnVyrT/TBaPpP97sngcCyjMh5OHPx5Bu0gf03WcUMt546qUyXQfTlqugdIqpLLMaXKd3STadwmr5F6E7xBGNG0nsmJnosryVX9Os/OFADybTXNaMGjEsyJz4Op7w1pk63vGcnTmp4tauD2YZpMouRHCSW46k2lyAyQO+PJy1HQa4YaPhtdbQUAEGs/3ZOmRUbrwcCyn+diIma9zySD5bBTn+Zs0LzrxObRIL8fZFAx+Go9zWsKsGWFXBzjrLMLOwtihBaDxVkc72HIuWn4xWppDOx/+1WhgDSIiltGVSYEfZDYrInOVMiQR/p2EhXJPi5eI0JrSSBKB5UIYwj5mk0YrJKEl7TCf129IEmrKrzsdp9w+4nGKu4L02zAtaix3j/PojzwbG6OR2lPF7Yl7rZosPicT0/M7ieINVYkeX8CXHlGLFOP9FhvBf5AEMDm+LK72oPwnNsL/rK8zKxTBPVsB/BWqT4wwWDJFe05IrUOdiHgbGXVIqA6m/eDXgA4Qf7v1OIDJ+rEci3R9/lVXsRMAlBXeZFe18DzrGa1yv8myP38ppFv1ZsifwSNl00GU5d+I4HVSxPSDsidgivoim3dGhONLi9WAOm6xdg2wo2YJvx/i83SWO/ziikMNpB88nIH1/uIKEID9XqUtVtwmyRi/QEHOSAP4KKvwk5a/Sfrm9kA5FA2QcpZvNpHrzyW0RDho7ECW0etqWwBCVh8DWQ/BDAdTFiF+lCuwsIcSKEK5Ejb+YDeUFWxscGCW5nz3gIY+UHHB3k2S8WExO08zdsxS3FK9nCaYAgKYXPCbhF1SnM1gSIVJjwa3jcLqz5now1mQb9dG0BnE6TWOPdYHJqIqPjjByMANWQb/+T+mRaQWs3hL+MldOI0pgLMzF6tmpYALAbhYBngnAO9oqVP50GR8rviyvzcT5AsGBApSLMKdZeLbkQXvX+P85Xm3AxMZAwa1EoBY5x3cY6DpL6gXQ61nWTaFLxk8WW5wcRTiIk/H1RQWROG4FoVjXJEIknh0R++IjaMqNgxGPk2+qA9aFWH/e3bRsYJC94IM7O+zna50KQ4m5uJhGksbeO1JB6KCpngKUZtMCmCY5QTfTp7LnUPGLXtXr2nMd5lnyy1ZufArF6ryzq+8U5XTXfMbUsWklV0u8hhV4Fv9htmwqVqCqGS7Ih73/e+q5fdDt55NvihuZxOjh7PJkVmxMCqOzQrdMzGU7ipn0+FCN5CKAdIHWTggxz6IJsQLKgnxgkpCvKCS0F2WXau+4h9ivaqlLM62F/Qvpongl25aBX6XpiGo77PcDOhT3tCQ5XonYsSCo13+6diK5V+PrVP+Afnq5N7bUyH31Z7auGf2VGUjUeqxkSiV2Ei4GnrmYqEYkWiwfZMWGN1HvLUxqrX8j70nVRfnyS57n90m00EH/3g9fjcrRGU2/kRrSrvGJjwhNVY85R43lUvLoe+zMwU/aRVL8rghbFWAxAG6HUSid4LIfZHTDpLjVauQ5C2CZKnKJk2uOASLFauQRfggUaiwSaLCwzSpZhWi1CBIFWtsspgDMfWGSndgtNssqtuIMd3pntlGxR42zIwGuwDbWLGKABA+2H+ocEkelZE8WpHkURnJI5fkcRnJ4xVJHpeRPLZJCrcWJisrVyEt2wTJi8oQCyXClpWrs1AidGNS6rJQInxZuToLJUoQlY5L40NDiVMTlSu5NdEm7Nh4ZYiFEkXIytVZKFGEqAyxUKIIWbk6CyWKEJVyQof/3NgQZpCY9gVR453m1AiBgFP8j1sFkSC2BKfSQkeC/3fsted2EPlLNGoVRhir/HHc9HDw7Z73/JACP9UyTeeR1SU7oLOW1SRFYQ8taQPyh2L63gkG3sfT+BoiiK/PvufJ6OL+2YkCeJldT0aJHS8YoUJIwhQpMhWy+aISou6VyFnEdDKOE7FbmcAhnHoaOQIia8/WX+niy6MyO5FW0PPcXDvHbY5OPIGJ4/nLq3R0Hqmas2kCHImF9ahBi68NYQCAxNqIaeAOCPvOLoDF3a1ul/X6k4JdZ+OMTgLtsesYU+d2u3ssu0mmF6PsdvcqPT9PxnvsviH6CLPY33DThX2a4J9iA8ZklvZZ6jB7nt5IVtU+TlL8UoBMT2cFrm1jEmmD6tqzSaOpWeAJny/iKd8wsHIb9tmQz3ftzdl91t/csspNph3WzuLxTZyL/QUJH+RObWNUA/Ot/IZ7jqeyDeUrNJyjPlIIinP5Q/Du4MjGuG1DecB8+wZ3pwWrK6CIL9EiEI25/aRwqQUD2vGoyA629hq63jbL8pZit6FrC+5laMPpIXboIazWuZfstaw9SvISNz8RjXGGZlk7rgMaj7guaTvP0GUAAe3DqCyhKJQBZOUplKGQKUTBnKQa7YPbYGXAJRtj1uq5myPn43I2DnmDUkmZNiJrTas+rXQVZD2EGeBcytpSivTsTwOO9/Y0Kwoasnzt9HuWcHUbISFKXqkQp9mp03iqKENTzieeS87Ok8jlycTvavyJ6VV+WsHUI81mcNM9INlGv+vLUH0Vjc2tlbqkHJ2T/uQOw5NYbk5TYk65VeiUKJ7BUymS69TCutSGBl3Lhvwkpt4KRoStNXH8onnPbL3W6UU893thMvRAq3syBoMZa/VoI6Q8y2yF0P+bnP765oOoiUSYG48mV7FeX4vpWEYaQ8CMQ4MoPRslSBWo77Lu/IL+iTiSmeSwU4fpXeKnPraYn13IO6XbXsUA8DaevBrj6IRb1chCCdBhRspSEOVDrmp7nl2Lr0OKic5yWzI6xBIVTMe0+wgAfirnRqBD3lYs39KzCLzzqiM2XOOE1ursJwPlNuu3Vm5ETf4CWGKm12KbXYjmxeYsCpHcjC+MJm1CYT4EHa/HqwcuMoznwrKT8ya626NZImA5XbI3P6USvY1nSx/v3dpouNmqqW/Vb7fbHsnKXnvQgU77MJV9pukJnwR6IhPljlWepoWsCW6ml3xFYdx4GO0Ahhq6TQI9agVkPLcguxWwiesYXMks71ogC6G0ZwHM4Y4FAcP9CoEGuwUaxCk5OuO7RMz9wTufq8k9WVzF0dGuYQtv0OioxUgEHVo+v1yfptBlAom681P65xr0SPprgfCXOSY7gFuYFMD4BUyVoCjNf0tG0MHOH2pDO4ZCHBBCW/sSZo4t3+pUJs3aGxjjXsR5eiZro+98DOSjUBc9zr2ewBGiX8UdRBYiWSjGXwuwA5NKCIyTvDOZ5VdRYMmJbhRqtgI1snsE4MrM6Uhkk205/W4yUyaLh8mk20WpmDJZ1JXJ4qlkgjVtKZjlQlnYQllUCOXuoUJBsZhCuasrlLunE4o2leUyubNlclciE/gOCQn5Fb4eaHs+ylQeHETe8MSBTdkGEhl5cyuNUeQiWsmGIkwQLpNjJiqy1GRV3oSDOVLxmMXTKUyfsguZOpnkV+z2CpwxS+KzK3aNfyMk+GjouZG0wtGoXim0+4qDM4z9wLV/7Z6o35qZIrmecMzX8QQZMHDzq8JwiObhoabFZ13XE50DalHvwPj+CvjWebPWoQZGbb+6qeic3IlKUt9TC7SCV/9WIZaDUSUglAsQFQwwOTtNaNMAPPIfMR1ckZDFVVyAmBMcWkYLA1cLpBuP8S4kAilgOjpl0sKpxZlYHYdmUMty8N+CI1DRGNXHiTRyA60oQ9nepHkK4xq7TSA4Z+OsYLcwuyC5XmW3hBMv5THkG+jpAyWNazWuoCvu+9IXsPgsKIXN0vMTmtEFlFjn3jGZuXvvKti8IkpIfpKCEsAsbesmTSXgDEDMY1BLnqFwz0AT5OyEEkmoyE2u5UYXVAHzX0/EKoRBUYnYvMzqoYKXjbUbeYUlPDCIBImW8MpqwmA6J8Igi/EPwMZr1Sdt/ylSqNu9ExMX7wZ31fhTYjQ76aoWC9U2iiEjfYCEZvKRxGWAdKS17/PrIgIQIr3aK1pnDfYCChueKAzQAMmV5WJSvtSjn1NS3kdPXkad57XoG8c5CgObncBXVfAKykW9tOfcE3T5aujFSdWgj/8T1iEaXdtp9jA22EM+nlGwYsN7u73XPAJGWohXghlDcq4L7Q1Ae76F2bFOycIruVOrMvJ+M4uVD7JUyJxuPQvsffZV1OzdbuZ17f1VNr7UwRBX5Zjf5HIoWjfk4o65rtOVWZUxnxZ45Th7mY1iv0FyneY5TGv8FlcwkRlTFtemKgP3tCv4Pchm8OEcQomyIX4MzTxz4ZzOUGsTssRd+DImc6jQVzc0xQEpw+Q9apCIYTI/brTAkx6IpaO38ro6eeXLXn2MZyNcW/ewvcRiA513EkAqQ+nK8qcbG3ibY4Zrk9ll9EycSIMx+xl4DcOHyN6Lots4/6zcke2fDEffGYHVGeG0KLVOdXjOTa23OdDojFyrDMF1xkmCu6y4h63RhY7f1ZLIBwRFgSg+aC76bxOP9v2+fPDEYKCvFMu9MWgt6TDCY4+RPd1tiKqqO33j9lhLoYTfgBjUPpgDLeOnWsoWEVBYykEhWQcvLenIS+LI/OTWnCjjzOYHfM4SadB91sDChvY02CXjSkk8EJ6pwJB3DYY0oSstdDwgNJsC4gKDMWH+OgA1MOoAUwZIVhxiQPLBdU+CIx4eESkMAoeWMjlwHJw+/PpCzEH3SoFxI0vupvbKwUo0p+JX67qCH4SUf/zRvJjTyKQJWbkJqYIuKwA3NbIfisyrxRbGZHAV5qukmdl9+ZPiH5tLK1yq5s9tvZQzr0FAJcpYwRxoioVxgcmi4E0oz+JdRXIaSXyTOI4GlyARN+LN+NrDv9Xa8Vq0uvY+/FfZe2hg/8+wd2tk/U8xdYupOlaubG6JHniunJrLGPeVGKNLIAAUeS0ckb7RGKeIN7TVPsLY+MueVX3kVB/t2WfXQ6GhRQg+uHc4rY/PcH5PXy+fC1BwiR1OcQ2Fr5ydFTP4Gs94fImLKzGdAMdAIMMdD2rOJyJyhDM74vQERWh2xOmJEinBdDDfPrLbbwTjZHEr0hqj+8b2TBw4ZLctJEclSOTVRYhlnbBoA6g8zWpMuNBfYEKX2OIjFkK3bitLsW/brUYT2O3z/bGe+ylTzeGnDMvUyl7GLtIRgl2k07zgzek0Byg65gGcsyJD4HpBZt78Lk4oz1VUey85MmjvG91SxTzGyiNJTbUzHXwuVhZUtih3eUaMpkFx+VWvYEhg+8oMM++iSxe3+duv68r01ipgjPtuXCI8A6xdQkRddySNM0RF5bRUkDFSgk5HmV7UeaK7PR6Ds+yCj3SM1NoKtUROq92UxNIQd8BC1y0/L1c/5TLWT6fTnzVz8g5QLzC3vD/dofjMvOH52a6uZcTB+r59B3QFK8YTDD5HniVbLeVjGmbsYXFADxEsEYXCYhG9N/8wb5DUEvifDF9TePK+/zd0Xa6a250v5bZsrb2MebHSz2QDplpUdKaMSNio7sNaGzP5Skil1tQTI2HkEh9eoVIHofk6yd5y6ZvPidTUgPvUTZnkTdTLrMfFuaoRiedIGL5DUrMbzus4Zb0wMVd0wMG2Kv/8E/P9X/VHK9/jqf5wl/kNE9PKH6/1pEpN3r2XgUr5p3dalpiOh23VPvBHokw4yr5hf8Q3cX42TScFi7q0btTA/+erubU6at0zxn7Yty4adDv7WQDvsp/oHrT0fP9Z8Ja7Zz+XysK8zo7cyQai+tn3Kprs78mikqK8264GVXGJXU3CB3RUu4IyTt5qUEU8NUnyu9srSOJNdjVI0nU39UiS6itp0h12NYhyI9JUy78I2eLTOKVXh0q+hrK7Opdz0awYWO79ON88AQZy8ePX4L14tGuYTJ1LTo1FReeWvspZvrz1CxWcF/H1RK0g/2MGBb9QNQD+HV9OiAR0RYajtbQQyuqzAJbOVdXEl/+IxBNUZTNUc35a0rRkVuoJBm+5n+sVCBqH43GhU/h6oAu6cX/4vL+zucOv7KWaPqNLW/rPh8Odre3Blq4ZYJteZ9jvDXuD7aG+MiYe0iysM9wc9Db73f62rtnkbbpbvWF3c9jfUTUTxjkY9Lc3d3pyAQB4PcTlScpNSS/HmC4xl02oQC5w86cWzPt0RXVb3TZjvKMQn+bR3Ex1/PEQE3evZ6OYbXd6nf6WJEKT1k53I4L/gy9xsmY8tbDgdTCjjPBfvLmGE8d42FyjS/viQZMX9MV/e/DfNaKfzCdRe7421zuaNJlHltcWe8aDOfbXy/atR0UkH2fFnOmblzv0TsUYZ4JRo39u3F0oIcRuCTQT50leX8eX6GFj++hV+BChielDdqsTTuj+O3X9Hb/tzn49jKXr6/YVvOk8GfHzePzK9JTeX7EPZrQxWUB9WMarI9IZGNx8TdeGJwxtiVB38CaH/uZmGHC9d6IALysB+xrwtBJwgICy+n6ZVMjn0h63uiHQEJAH9TU9MfRMJNnfnONya8PmiSaOKp7MCl+/+AeJWmUQ11hmoGNB5fcLOxci+3cN1yGBZ3ZqkojnLgnrln31uIz8VCz/rGq1v5BV+p0ac8fRKP0b6w/FKqUeYdXQZNytqYi0KDmcbTCbPr1fY7tsem5llupdUnk9JH/Szy6fyb0MfbTdvIL7CTZO7QX4HzQjTf0Vk06+YfRoZJ8xdW+ihAjllXGQbzfGCwQuSp7dZUCqjW+KA+QP2Qj3oVzCX7sne46OrRB6X9/mLa7E5NCW2EEpmBLC/45IRoyfs6Inj/bcJpRiJOm1WMOk2Gg5nWwS4UjNDuAbyMYvr+LxZRJxJcua5YTsZ5m+N36dxov8LAakML26VH+0MElIP9FjPdgDdQf6fRvzsRuo+SCfQtGvotxL/vlxeUHc6IPSuGmeQiFVj0rd2HGoPRpGboXzPt5yUaknqhrkC7UVzK4PQE7tHt5vK7oGBb5WlpPQbsNQOjmT/H0yfY2x7w0+Ztkf4qptMolKYSQj6E+AkxGlJUVVLJlPf7L9Sjlw2IbuLLgVUSIJLe2q86aWxPWBivVNCrXsQt3bb68jr3QAOzSfqMYh7zr20cgf/j3HQSv2nhdb1TLVyKHE+BJLmCjyBagafA5IsrSSmaOk29u6bKpX2HCUs9nlVQ9zBCbqpeLLJqaJrnQV+JINmJDGg37IeJ/DyB0wRkzZWRxJuKXVHkz0sC9VWhHIMOZXOinL908jKOvZBzk3SE1mRfSCY2yjoUoKfpGwUTLDRQxdZIcd0iXKmCOVYeEFvu2pPWYqPCV6TXDXawaMkohy+ThDC7ZEcQWbalfebBpb3YURctDCw1eFFv98DVqdn0DorgMVdi5yedHNRl1+bvQjTHG7ONGdJniwAme89LLq7VV6doUa5WUkzCKj38kkO7sSmsRd608fXx4m+MZ3Hqlccj0YYJjX6OJyUnSOCgfot6Dcq6i53muCckfpWRK1+VUbGwQG0OsSlFg1wWTvuSoFZgmNMswjF+uuhxWmCbMiyV3ETrAmhyc+hvFk+jYtjBWpWgh2xjuxNHPAjdW4OYmPLEJBZHbmTrcIJ6Q1Rg3TSngxUG+6j+Pgf+qfoRDdM3by/McrjFrFelmibsArqLdzKaA3X89l//wnC4O5LFQs4IO9jrN2NhFSsBIpKs9K3Jvc/mDxwR/qxe/dkgywTzWNZk0K2gtb6Okx3xB2rHgscvOh3xANo/7R/eAPAjtUwIOBm3l3ETV4faPJfmbt3l9M61eMnA5IOQ45MJAr3I8FNwWYb9PiCgYbUK+u/0sYOvxzQaeY/zXd/zg7xVMSMNQ8IdGDwFegSQaF/SA64oFnpBSFZSlegBbUHklOPwftUqQPhCY5aTZVYCIdolGbrnQszpsZRthk1nw7pwMp33D//7wCjM7ZWdUy4yWQ6FKd5mIwpV/bqHD7MlkSPa/OtGSlXbAOLfB/TsZo6ISXvSlrnUSVxzwn+J41Hibl5xHxzFc6pmwLZNVs/pgu4rj6DcygYfb1PtBtoZKnIWDvapVl6YT61eFgb32p/5cpyOkIimhFDVRjCIk4lA1Uy3hORcOyjyNErCz5pRZBM2VlFaJlqSq1iBppJqvQDKeX1PsoJ0u8TlCLpWkh9XRpxper0HVTOdBj8+cNLU8tq/4UCQtqdqmrxJEFtVIcCMSN5euKJFx+7nc/vMCsU3Pxnz5apemKKQiMtF37ew8wqU9aBBa4S0nwPROajFKKivkivSbGZWi3kYoLoTLmtfzf/TI2pDLKeNDKKmlZRk7/tEV9o7JyiJydl1OmbMFCWJt1EBzwCTdOQWvBy6ec0pr4f1diComlrNVnpeDRrF6LT2ImPHOSTOwp3/8zUeo2qwi10XicRHVGjeU/q07Dfw8fsbbcjX+mKlK77WQHLed7f5uOvaJ4XrID3yxx1ffm6pN7csw9uyOfhw0eCHp8/pLFi38E1gnLHICyIM4qN9Zltep8D1fz5KwzmRHXY5TeaRFaFOaz12lygYlOuOJjz53ss3uhk9/uF+7ABWde9rUVpXdKGPyad18oUuYNFgE1UfSprMMSOQ9MQyNL+BKPwLHwchYqTw863nD5nSH2QTfzTg0KKLKLC/PenFxcmOSF/vwqGUECETz4Bh3PMrxpSfi4YkCzJdOaEn3UMJVKcyml53eJ/wtOofRVRi2+cOXcWqT/1dFtyCaqSOPRPkWe5m8rkrcWgk2pVHkzVzD8NDBf3igyxkEZd3zqQ9TXEfFDR6y4SnMXT+k9A1Xes7R51ZcnZL0sJvQ+Nv5Glc6h+ayDazOXRocqRrqdNVvwk1xqzBJCkwNzX0JtSXxXw4Dkzov5qU/BDUkjL4l3V233+VebHLx7SzmDY34XHO65qh7o46tSAlcx7zZu/Hg3yGrx/Pij/3iq10VhtlDZ+fXTa3w+pcgKXIg0t0jNxMex1gYj6+t8+3ZBUPlXrDvBy41ynY8VBDGOnk5ivNwBb242f3Lq4tLl2hiqaFLMd55cpGNl8gSWjT8kOd6nLLaRhUBEEhhEf0I0xlOZfO3x2zVQpJQr6/AY5ujwBRn8JVda8Le5EIJ/m2sUlA80MXHYs3uxaoZWKrVvpzVzbni2lplBdi8642WLiPXTRstCoLJGqIy9WNTIHihLEvezgtRAK9cevuENDAuVvOZfh+zugfGQPdS8MxvnV+lFEVnbbZxuoP9q6w0EEEInBXGIwwEH/EskgfZ00fMT3KRJ/Z38mezIRS/UD75117BYVmUP5dnLCDEoORkhJd0rY5e2Am1uZdGTMsuRPo5Xc2fRZhlrnpxli9wjpcx3zxw5q8KnlbRA+ziOD3wrPvgrjPjgCWxY7c5ZbkIVPim/Eu3jONY7gDbTVvmT8m1grsM6XyIoM2YxmXbNWRc/sUFLxCsIXSXBKb/e9/06Pyck3Xnf7ax5GEn19Z1duKynXo8spFaH7sv4mH9Ok1vFwBfG/ywBXljAR9XAdxbwcTUw7qwVOpWV/yVhLXlvrJVJ/JArnL2cFaV05gKIJyIPtrq657ImIHc3R9a8RQ5ans0KfqK2jsAXZRwcPZiDo9U4uCvj4PjBHBwv4UBocG2D69CcMeH//bTBTwb/jD/x+CL9uCquRz//H3t4Tjo="
               }
            ],
            "step_warnings" : []
         }
      },
      {
         "arguments" : {
            "__SKIP__" : false
         },
         "measure_dir_name" : "BTAPUtilityTariffs",
         "name" : "btaputilitytariffs",
         "result" : {
            "completed_at" : "20170710T192421Z",
            "measure_class_name" : "UtilityTariffsModelSetup",
            "measure_display_name" : "Utility Tariffs Model Setup",
            "measure_name" : "utility_tariffs_model_setup",
[...]
fy+upjL10FkvRfrOhNEpENjfFq9FIeCLXErd+OhFJdC3FaFCyZ3Iz7nnTqXqhSEu5tzZKdlhtPS9N48UrZHb6hjupF764+jsl6Vy9d0Xhdb1wOIni1v3LTgw1LqMw7d5KfzxJlcZFFIz0NRZX57fjox+7r7rvJzK+jpLUS8WpTKeRnwn/LL3UD8cvNoqu18vNZBj70/Rf5Hdebo78my8Pk/vQYpmW8EeHraEK56Ps+D0/lPG522+J/KQctkZ+Mg28+YEfqvfhdC+CaPjxhxbNl4kuDkGk82m2vzovm1fejbf4tHBPteUv6bkZi8PVu3hCeXt6M263vnvM2BFb6tU22T+lmfTghS5nf70l6rNWftR7VJ1B/g6woZp+1BufFt3+1t43VaDksikN2JS22JS22ZR22JR22ZT22JT22ZTWXr5pKcUX5Q5fmDt8ce7wBbrDF+kOX6g7fLHu8AW7wxftLl+0u4xzOl+0u3zR7hpG++PGS5oVMJYjA6GCc2UmVHCmzIQKzpOZUMGcYCZUMCOYCRXMB2ZCBbOBmVDBXGAmVFT4DJXYYruo7BkqsUV3UdEzVGKL76KSZ6jEFuFFBc9QiS3Gi8qdoRLf/M0W40W1zlDJJMYfNb7QLHOqN4aBUsFpMlQqOE2GSgWnyVCpYCowVCqYCgyVCqYCQ6WCqcBQqWAqMFQqqnemUnxRXlTxTKX44ryo5plK8UV6UdUzleKL9aK6ZyrFF+1Flc9UinFO54v2ouJnKlUa7XgZPV5GvxTS2A0vo3+04WX0Olh4GT1eRl9lw8vo1YaX0eNl9PmGl9EXfxMvoy8XUBteRv803tkIHOAABzjAAQ5wgAMc4AAHOE8e5xt7lSNoQAMa0IAGNKABDWhAAxrQPB2ab+udjcABDnCAAxzgAAc4wAEOcIDzTeF8xeZsr4apf+On87fyRgai/R+0Z/sW27MtL9LT6MTmPIFObE5jndj6vf42SyM2K6EBl9AWl9A2l9AOl9Aul9Ael9A+l9Dac/l2Smyx7bAFt8MW3Q5beDts8e2wBbjDFuEOW4g7bDHussW4yzd/s8W4yxbjrlmM63dcW9eq3nDNRoc+S9Xbrdno0LNA9WZrNjr0DFC91ZqNDp39Fo3WrIS4IrqgvFl0WbMS4grqgtpm0WLNSogrrgsKm0V/NauZkSuyC6qaRXM1KyGuyC4oadU7q63rWDRWsxKiT5FFWzUrITr5LZqqWQnRyW/RUs1KiE5+m4ZqdkpssV1Q2Wy6qdkpsYV3QXGzaaVmp8QW4QX1zaaPmt1cyRbjBSXOpomanRJbjBdUOXRQQwc1dFB7RIgOampDBzV0UEMHtYINHdTQQc3oqNBBbc3f4PvooPZwQwe1+62GG7a+sUYDwAEOcIADHOAABzjAAQ5wgPPkcb6x/gOgAQ1oQAMa0IAGNKABDWhA83Ro/jZ9D4ADHOAABzjAAQ5wgAMc4ACnut9X6KCGhmnfVMO00+FEjmbZWVaPQyUyFU7/abRNc59A2zS3sbZpO/lDoVVb3HAJDbiEtriEtrmEdriEdrmE9riE9rmE1p6+t1Nii22HLbgdtuh22MLbYYtvhy3AHbYId9hC3GGLcZctxl2++Zstxl22GHfNYly/bdq6VvW2aTY69Fmq3jbNRoeeBaq3TbPRoWeA6m3TbHTo7Ldom2YlxBXRBeXNom2alRBXUBfUNou2aVZCXHFdUNgs2qZZzYxckV1Q1SzaplkJcUV2QUmr3jZtXceibZqVEH2KLNqmWQnRyW/RNs1KiE5+i7ZpVkJ08tu0TbNTYovtgspm0zbNToktvAuKm03bNDsltggvqG82bdPs5kq2GC8ocTZt0+yU2GK8oMqhbRrapqFt2iNCtE1TG9qmoW0a2qYVbGibhrZpRkeFtmlr/gbfR9u0hxvapt1vNdyl9Y11FwAOcIADHOAABzjAAQ5wgAOcJ4/zjTUdAA1oQAMa0IAGNKABDWhAA5qnQ/O3aXYAHOAABzjAAQ5wgAMc4AAHONX90DZtuaFt2n3bNOdptE0bPIG2aYPG2qb1ey5L1zQbnQGTzhaTzjaTzg6Tzi6Tzh6Tzj6TztpD91ZCXBHtcIW0wxXTDldQO1xR7XCFtcMV1w5XYDtcke1yRbbLNldzRbbLFdmuUWTrt0dbk6reHc1ChjxD1XujWciQeV+9M5qFDJnz1fuiWciQ+W7RFc1GhymO6TJm0RLNRocplOkaZtEPzUaHKZrpAmbRDM1mHmSKZ7p6WXRCs9Fhime6dFVvg7YmY9EFzUaHPD0WPdBsdMh0t+iAZqNDprtF/zMbHTLdbbqfWQlxRTRdwWxan1kJcQU1XcRs+p5ZCXHFNV3HbJqeWc2MXJFNlzKbjmdWQlyRTVcztDtDuzO0O3tEiHZnakO7M7Q7Q7uzgg3tztDuzOio0O5szd/g+2h39nBDu7P7rYa7q76xrgDAAQ5wgAMc4AAHOMABDnCA8+RxvrFmAaABDWhAAxrQgAY0oAENaEDzdGj+Nk0KgAMc4AAHOMABDnCAAxzgAKe6H9qdLTe0O1u1Oxs8jW5nW0+g29lWg93O+ttM7c4shAZcQltcQttcQjtcQrtcQntcQvtcQp89bW+jxBbbDltwO2zR7bCFt8MW3w5bgDtsEe6whbjDFuMuW4y7fPM3W4y7bDHumsW4SRe0h1o2bdCq69BnyaYRWnUdehawaYVWXYeeAWyaoVXXobPfqh2ahRBXRBeUN6uOaBZCXEFdUNusmqJZCHHFdUFhs+qLZjEzckV2QVWzao1mIcQV2QUlzaY72kMdq/ZoFkL0KbJqkGYhRCe/VYs0CyE6+a2apFkI0clv1ybNRokttgsqm12nNBsltvAuKG52zdJslNgivKC+2fVLs5kr2WK8oMTZtUyzUWKL8YIqh65p6JqGrmmPCNE1TW3omoauaeiaVrChaxq6phkdFbqmrfkbfB9d0x5u6Jp2v9Vwk9Y31lwAOMABDnCAAxzgAAc4wAEOcJ48zjfWcwA0oAENaEADGtCABjSgAQ1ong7N36bXAXCAAxzgAAc4wAEOcIADHOBU90PXtOWGrmmrrmlbT6Nr2vYT6Jq23VjXtJ38mdCqHW64hAZcQltcQttcQjtcQrtcQntcQvtcQmsP39spscW2wxbcDlt0O2zh7bDFt8MW4A5bhDtsIe6wxbjLFuMu3/zNFuMuW4y7ZjGu3zVtXat61zQbHfosVe+aZqNDzwLVu6bZ6NAzQPWuaTY6dPZbdE2zEuKK6ILyZtE1zUqIK6gLaptF1zQrIa64LihsFl3TrGZGrsguqGoWXdOshLgiu6CkVe+atq5j0TXNSog+RRZd06yE6OS36JpmJUQnv0XXNCshOvltuqbZKbHFdkFls+maZqfEFt4Fxc2ma5qdEluEF9Q3m65pdnMlW4wXlDibrml2SmwxXlDl0DUNXdPQNe0RIbqmqQ1d09A1DV3TCjZ0TUPXNKOjQte0NX+D76Nr2sMNXdPutxpu0vrGmgsABzjAAQ5wgAMc4AAHOMABzpPH+cZ6DoAGNKABDWhAAxrQgAY0oAHN06H52/Q6AA5wgAMc4AAHOMABDnCAA5zqfuiattzQNW3VNW37aXRN23kCXdN2Guua1u+5LE3TbHQGTDpbTDrbTDo7TDq7TDp7TDr7TDprz9xbCXFFtMMV0g5XTDtcQe1wRbXDFdYOV1w7XIHtcEW2yxXZLttczRXZLldku0aRrd8dbU2qenM0CxnyDFVvjWYhQ+Z99cZoFjJkzldvi2YhQ+a7RVM0Gx2mOKbLmEVHNBsdplCma5hFOzQbHaZopguYRS80m3mQKZ7p6mXRCM1Ghyme6dJVvQvamoxFEzQbHfL0WLRAs9Eh092iAZqNDpnuFu3PbHTIdLdpfmYlxBXRdAWz6XxmJcQV1HQRs2l7ZiXEFdd0HbPpeWY1M3JFNl3KbBqeWQlxRTZdzdDtDN3O0O3sESG6nakN3c7Q7Qzdzgo2dDtDtzOjo0K3szV/g++j29nDDd3O7rcabq76xpoCAAc4wAEOcIADHOAABzjAAc6Tx/nGegWABjSgAQ1oQAMa0IAGNKABzdOh+dv0KAAOcIADHOAABzjAAQ5wgAOc6n7odrbc0O1s1e1s52l0O9t9At3OdhvsdtbfZmp3ZiE04BLa4hLa5hLa4RLa5RLa4xLa5xL67Gl7GyW22HbYgtthi26HLbwdtvh22ALcYYtwhy3EHbYYd9li3OWbv9li3GWLcdcsxk26oD3UsmmDVl2HPks2jdCq69CzgE0rtOo69Axg0wytug6d/Vbt0CyEuCK6oLxZdUSzEOIK6oLaZtUUzUKIK64LCptVXzSLmZErsguqmlVrNAshrsguKGk23dEe6li1R7MQok+RVYM0CyE6+a1apFkI0clv1STNQohOfrs2aTZKbLFdUNnsOqXZKLGFd0Fxs2uWZqPEFuEF9c2uX5rNXMkW4wUlzq5lmo0SW4wXVDl0TUPXNHRNe0SIrmlqQ9c0dE1D17SCDV3T0DXN6KjQNW3N3+D76Jr2cEPXtPuthpu0vrHmAsABDnCAAxzgAAc4wAEOcIDz5HG+sZ4DoAENaEADGtCABjSgAQ1oQPN0aP42vQ6AAxzgAAc4wAEOcIADHOAAp7ofuqYtN3RNW3VN230aXdP2nkDXtL3Guqbt5M+EVu1wwyU04BLa4hLa5hLa4RLa5RLa4xLa5xJae/jeToktth224HbYotthC2+HLb4dtgB32CLcYQtxhy3GXbYYd/nmb7YYd9li3DWLcf2uaeta1bum2ejQZ6l61zQbHXoWqN41zUaHngGqd02z0aGz36JrmpUQV0QXlDeLrmlWQlxBXVDbLLqmWQlxxXVBYbPommY1M3JFdkFVs+iaZiXEFdkFJa1617R1HYuuaVZC9Cmy6JpmJUQnv0XXNCshOvktuqZZCdHJb9M1zU6JLbYLKptN1zQ7JbbwLihuNl3T7JTYIrygvtl0TbObK9livKDE2XRNs1Nii/GCKoeuaeiahq5pjwjRNU1t6JqGrmnomlawoWsauqYZHRW6pq35G3wfXdMebuiadr/VcJPWN9ZcADjAAQ5wgAMc4AAHOMABDnCePM431nMANKABDWhAAxrQgAY0oAENaJ4Ozd+m1wFwgAMc4AAHOMABDnCAAxzgVPdD17Tlhq5pq65pe0+ja9r+E+iatt9Y17R+z2VpmmajM2DS2WLS2WbS2WHS2WXS2WPS2WfSWXvm3kqIK6IdrpB2uGLa4QpqhyuqHa6wdrji2uEKbIcrsl2uyHbZ5mquyHa5Its1imz97mhrUtWbo1nIkGeoems0Cxky76s3RrOQIXO+els0Cxky3y2aotnoMMUxXcYsOqLZ6DCFMl3DLNqh2egwRTNdwCx6odnMg0zxTFcvi0ZoNjpM8UyXrupd0NZkLJqg2eiQp8eiBZqNDpnuFg3QbHTIdLdof2ajQ6a7TfMzKyGuiKYrmE3nMyshrqCmi5hN2zMrIa64puuYTc8zq5mRK7LpUmbT8MxKiCuy6WqGbmfodoZuZ48I0e1Mbeh2hm5n6HZWsKHbGbqdGR0Vup2t+Rt8H93OHm7odna/1XBz1TfWFAA4wAEOcIADHOAABzjAAQ5wnjzON9YrADSgAQ1oQAMa0IAGNKABDWieDs3fpkcBcIADHOAABzjAAQ5wgAMc4FT3Q7ez5YZuZ6tuZ/tPotvZoP/tdzvLGJvqduZs9Xv9B5uzxdL8jFF2UI/sVj2y2/XI7tQju1uP7F49svv1yK4968+pW1OeOTUlmlNTpjk1pZpTU645NSWbU1O2OTWlm1NTvrk15ZtbV12rKd/cmvLNtck3/a5yRcrVm8zxqeqe3eot6PhUdWey6g3q+FR1Z7Hq7ev4VHVnMIvmdoyy9WSX9nLBohMeo2w9Caa9VrBom8coW0+OaS8ULHrsMVaFerJMe5Vg0ZCPUbaeLNNeIlTv3lekatHMj1FW99RatPpjlNWdwCwaATLK6k5gFm0CGWV1JzCbJoKcujXlmfZKwabjIKduTammvViwaU/IqVtTtmmvF2x6GXLWiZryTXvJYNP4kFO3pnzTXjWgSyK6JKJL4iNCdElUG7okoksiuiQWbOiSiC6JRkeFLolr/gbfR5fEhxu6JN5vNdyU+Y01EwEOcIADHOAABzjAAQ5wgAOcJ4/zjfUYAQ1oQAMa0IAGNKABDWhAA5qnQ/O36W0CHOAABzjAAQ5wgAMc4AAHONX9vkKXxPfyeipjL53FUrTfbKBp4rfVNFHGN/5Qiv94KvLeRtFUqAum7nPe6r95Gg0UnSfQQNFproGi+v+qnZqYdAZMOltMOttMOjtMOrtMOntMOvtMOusNBmyEuCLa4QpphyumHa6gdrii2uEKa4crrh2uwHa4ItvlimyXba7mimyXK7Jdo8g2aOz3UMqik191GfIMWfTqqy5D5r1FN77qMmTOW/Tbqy5D5rtNRz0LHaY4psuYTZM8Cx2mUKZrmE3fOwsdpmimC5hNKzuLeZApnunqZdOdzkKHKZ7p0mXRcO6hjE2HOQsd8vTY9JCz0CHT3aZLnIUOme42feAsdMh0t+r0ZiPEFdF0BbNq3mYjxBXUdBGz6sdmI8QV13Qds2qxZjMzckU2XcqsuqbZCHFFNl3NHgn9HvtR7Kdz4YiuaJ/Owg3Vkmqn+3+8sNt3uvn/v5bDrvoF5pfLXH/tB71Xr7a29vcZLNz6LQb1W2zVb7Fdv8VO/Ra79Vvs1W+xX7/FWmWvy6OB/HYaSHCngQx3Gkhxp4EcdxpIcqeBLHcaSHOngTx3G8hzt4k63kCeuw3kuVstz93cw0spj77esmowcN29HQYL+mqwWdAXg82CvhZsFvSUy2ZBz7hsFvSEy2ZBz7dsFvR0y2ZRsKzi82ggvwuWVXweDWR4wbKKz6OBHC9YVvF5NJDlBcsqPo8G8rxgWcXn0UQdbyDPC5ZVfB7V8nygPN7EPuHh7ustqxxnd3cwYLCgrwabBX0x2Czoa8FmQU+5bBb0jMtmQU+4bBb0fMtmQd8bxWZRcEMgnwd9RxWfB32zFZ8HfR8Wnwd9ixafB31fIp8Hfcsinwd9NyOfB32jI59HA3lesKzi82iijjdQyAuWVXwe1Ur5lvJ4P5lRHnt6y6r9bNv+kcGCvhpsFvTFYLOgrwWbBb2sYrOgl1VsFvSyis2CXlaxWdDTLZtFwbKKz4NeVvF50MsqPg96WcXnQS+r+DzoZRWfB72s4vOgl1V8HvSyis+jgTwvWFbxeTRRxxso5AXLKj6PaqV8W3n8R44oj129ZdXr10dHu7sMFvTVYLOgLwabBX0t2CzoZRWbBb2sYrOgl1VsFvSyis2Cnm7ZLAqWVXwe9LKKz4NeVvF50MsqPg96WcXnQS+r+DzoZRWfB72s4vOgl1V8Hg3kecGyis+jiTreQCEvWFbxeVQr5Tv50m0mKY8dvWXV0dHODosFfTXYLOiLwWZBXws2C3pZxWZBL6vYLOhlFZsFvaxis6CnWzaLgmUVnwe9rOLzoJdVfB70sorPg15W8XnQyyo+D3pZxedBL6v4POhlFZ9HA3lesKzi82iijjdQyAuWVXwe1Ur5rvL4NaJui3e39ZZVe3uuu73NYEFfDTYL+mKwWdDXgs2CXlaxWdDLKjYLelnFZkEvq9gsivpOMVkUNlvj8ijqVsXlUdTIisujqMcVl0dR+ysuj6Keb1weRe3guDyKOsVxeRQ1kePyaCDPC5ZVfB5N1PEGCnnBsorPo7yUf9Dp8LrsySwORShvVw1k876x7eRm3Mk7wJa2il01dk5k+mM0C0dJe7vfEY6z3RED9X/utl672bsM474p9Wh05KVyHMXzV3d+smiLfH/8Gt2jM4GTeCTjdzPVpVh7R8UxX+f4VXrJLJYLDNVoeXnea27PjWEMYxjDGMYwhjGMYQxjGMMYxjCGMYxhDGMYwxjGMIYxjGEMYxjDGMYwhjGMYQxjGMMYxjCGMYxhDGMYwxjGMIYxjGEMYxjDGMYwhjGM4Wc1PO9FNzKO/ZH81VMP1jq9vuXzqurR2GT90dhTGfsyWT5e2+qsHiCeBlHaC/xQlj4im3zpOd3yJ2uTXv7q+WkUeKkfhRlUK0nltHshL6NYtvSefH4rxzIcrR/Q4rP2Tr8jBurJ5b56kFn90wrkZarASqRXsr3zsUyPw1Sdn8zichYOc9L2hvizRGJFKO/3Pit9lltt/qVopxM/6SX5VdEzUtuDnXrZ+Tv2hpP2X8Cmait89eh4xr7UPZ9Gia8EX2cf6xzNalMyX6CKo1szpBWWH46kyoeu0zHce7VdVd3x0peBirf28pwu8mQcR7OpHInvvxf/WH5+1zufeMny+XeVYBsPR+dfHM1OSM8bj98oj14gw3E6ES+FK/4tWq+CoCUO1r+RBP5QtrvOxln/w0Zpvj06kigW7avsUPo/iKvMZhmqS1/12T+zGcf8AqlNhfFS7+zqQ++jnIvDw8PFyaummKsuL/uV6aGutotYeh+r7PzJcB/T76vztTy6QxXWKhiWkZI3cuide0nij0M5OlItIpKz/Ex+qHYqVxd6Oksm7arXIrukB4vrWT2TguBA5yh76ptVXZI0jj5KPZ/Fd6s6RVNv6KdzPavllysfVW6xsqqqsppI1qeVKulhPPmobZXO6xOP6ArHVM0k3fRZP3Xyqqr1/U9lawq1bW6K3/94L/578sc7cXry7v0vv/0k3p789MuR+Pn43bGewJts1pZ3nlqiiTQSSRSnIpxdZ3EwFHlLk0R4yTBbvPjhWENxde6VzoPK7HXEhf7kEst0Fodi6sWJfBNEXtr21JS/kV3KB59d5J9pnczyJdoD2+UhlAl/qrfTy/36M0/3PNnbL0by0psFqZjGUTaHyRcd8eK7vb2jo+PjFzU3ngEOcIADHOAABzjAAQ5wgAOc54kjktl19iOwGEn1oRh5c0UUyxFoQAMa0IAGNKABDWhAAxrQgKaY5ja/NeszmotgJoEDHOAABzjAAQ5wgAMc4AAHOFVw7t8b6Kj3Bp7OqPcGDpz8L2yvXm1t7e+DFKQgBSlIQQpSkIIUpCAFKUhBCtKnQermpF5KkfZz0sHAdfd2QApSkIIUpCAFKUhBClKQghSkIAXp0yAdKNI3sU+Quvs5qePs7g4GIAUpSEEKUpCCFKQgBSlIQQpSkIL0aZBuKdL3kxlFupeT7mfb9o8gBSlIQQpSkIIUpCAFKUhBClKQgvRpkG4r0v/IEUW6m5O+fn10tLsLUpCCFKQgBSlIQQpSkIIUpCAFKUifBulO/puJmaRId3LSo6OdHZCCFKQgBSlIQQpSkIIUpCAFKUhB+lRIdxXprxHVWdDdzkn39lx3exukIAUpSEEKUpCCFKQgBSlIQQpSkDZGukIZxd5tu1Tsrpf6aSBPJ95U9lJ5l7Zf/BzN4qQcY/54z9f+tQwTPwoDmeQKJRKbm+LVaCQ8kSuJWz+diCS6lmI0KNkzuRn3vOlUhqN2S3m3Nkp2WG09L03jduuu1RE7fcOd5tlOrv5OSToP5AKv64XDSRRn+7cCeWlAu9S4jMK0eyv98SRVGhdRMNLXWFyb02n3f1EoHXFyeekPpTidJ92BeBPEXUecDifdV+Ln34PhddpNoll2Gf73m/jt+OhH9bVUXouB+P30f+JkOFTffbFRdGFfbibD2J+m/yK/83Jz5N98eZjchxbLtIQ/OmwNVdQfZSfK80MZnw/clsjP3mFr5CfTwJsf+GGQDXUvgmj48YcWzZeJLg5BpPNptr86gZtX3o23+LRwT7XdeLEKUHEoRv71NJC9UN6e3ozbre8eM3bEVr+f/1OacEp25KVepnv2ZyvwLmTQOmiN5KU3C1IxjaNLP5CtzmLk/K514PT6ndaNF8zk8v+Hal7K9smmmqOj4+PWp46WjsukM2DS2WLS2WbS2WHS2WXS2WPS2WfScfpcQlwR7XCFtMMV0w5XUDtcUe1whbXDFdcOV2A7XJHtckW2yzZXc0W2yxXZrlFki2R2fb32omqtihbLkYEMeY7MZMgzZCZDnh8zGTLvzWTIrDeTIXPeTIbMeDMZMt/NZOhCZqjDFMd0GTPUYYpkuogZ6jDFMl3CDHWYopkuYIY6TPFMly9DHa55mSme6dplqKMfz7d+mJqXrQv1kb4OeXoMdcjTY6hDnh5DHTLdDXXIdDfUIdPdUIdMd0MdMt0Ndej6ZSrEFdF0BTMV4oppuoaZCnFFNV3FTIW44pquY6ZCXJFNVzJTIba5miuy6WJmKqQf2fd/uSh9szBV5vprP+gtXj3MYOHWbzGo32Krfovt+i126rfYrd9ir36L/fot1ip7XR4N5LfTQII7DWS400CKOw3kuNNAkjsNZLnTQJo7DeS520Ceu03U8Qby3G0gz91qeV76Ake9ZdXiDY8MFvTVYLOgLwabBX0t2CzoKZfNgp5x2SzoCZfNgp5v2Szo6ZbNomBZxefRQH4XLKv4PBrI8IJlFZ9HAzlesKzi82ggywuWVXweDeR5wbKKz6OJOt5Anhcsq/g8quV56Xuy9JZVixdpMVjQV4PNgr4YbBb0tWCzoKdcNgt6xmWzoCdcNgt6vmWzoO+NYrMouCGQz4O+o4rPg77Zis+Dvg+Lz4O+RYvPg74vkc+DvmWRz4O+m5HPg77Rkc+jgTwvWFbxeTRRxxso5AXLKj6PaqW89HUkesuqxftKGCzoq8FmQV8MNgv6WrBZ0MsqNgt6WcVmQS+r2CzoZRWbBT3dslkULKv4POhlFZ8Hvazi86CXVXwe9LKKz4NeVvF50MsqPg96WcXnQS+r+DwayPOCZRWfRxN1vIFCXrCs4vOoVspLu77rLasWbeEZLOirwWZBXww2C/pasFnQyyo2C3pZxWZBL6vYLOhlFZsFPd2yWRQsq/g86GUVnwe9rOLzoJdVfB70sorPg15W8XnQyyo+D3pZxedBL6v4PBrI84JlFZ9HE3W8gUJesKzi86hWykub6+otqxbddxks6KvBZkFfDDYL+lqwWdDLKjYLelnFZkEvq9gs6GUVmwU93bJZFCyr+DzoZRWfB72s4vOgl1V8HvSyis+DXlbxedDLKj4PelnF50Evq/g8GsjzgmUVn0cTdbyBQl6wrOLzqFbKS3sY6i2rFk0OGSzoq8FmQV8MNgv6WrBZ0MsqNgt6WcVmQS+r2CzoZRWbRVHfKSaLwmZrXB5F3aq4PIoaWXF5FPW44vIoan/F5VHU843Lo6gdHJdHUac4Lo+iJnJcHg3kecGyis+jiTreQCEvWFbxeZSX8g86HV6X7ZvFoQjl7aqBbN43tp3cjDt5B9jSVrGrHtCJTH+MZuEoaW/3O8JxtjtioP7P3dZrN3uXYdy3th6NjrxUjqN4/urOTxY9lO+PX6PRdCZwEo9k/G6mWhpr76g45uscv0ovmcVygaG6Mi/Pe81NvjGMYQxjGMMYxjCGMYxhDGMYwxjGMIYxjGEMYxjDGMYwhjGMYQxjGMMYxjCGMYxhDGMYwxjGMIYxjGEMYxjDGMYwhjGMYQxjGMMYxjCGMfyshue96EbGsT+Sv3rqwVqn17d8XlU9GpusPxp7KmNfJsvHa1ud1QPE0yBKe4EfytJHZJMvPadb/mRt0stfPT+NAi/1ozCDaiWpnHYv5GUUy5bek89v5ViGo/UDWnzW3ul3xEA9udxXDzKrf1qBvEwVWIn0SrZ3PpbpcZiq85NZXM7CYU7a3hB/lkisCOX93melz3Krzb8U7XTiJ70kvyp6Rmp7sFMvO3/H3nDS/gvYVG2Frx4dz9iXuufTKPGV4OvsY52jWW1K5gtUcXRrhrTC8sORVPnQdTqGe6+2q6o7XvoyUPHWXp7TRZ6M42g2lSPx/ffiH8vP73rnEy9ZPv+uEmzj4ej8i6PZCel54/Eb5dELZDhOJ+KlcMW/RetVELTEwfo3ksAfynbX2Tjrf9gozbdHRxLFon2VHUr/B3GV2SxDdemrPvtnNuOYXyC1qTBe6p1dfeh9lHNxeHi4OHnVFHPV5WW/Mj3U1XYRS+9jlZ0/Ge5j+n11vpZHd6jCWgXDMlLyRg69cy9J/HEoR0eqRURylp/JD9VO5epCT2fJpF31WmSX9GBxPatnUhAc6BxlT32zqkuSxtFHqeez+G5Vp2jqDf10rme1/HLlo8otVlZVVVYTyfq0UiU9jCcfta3SeX3iEV3hmKqZpJs+66dOXlW1vv+pbE2hts1N8fsf78V/T/54J05P3r3/5befxNuTn345Ej8fvzvWE3iTzdryzlNLNJFGIoniVISz6ywOhiJvaZIILxlmixc/HGsors690nlQmb2OuNCfXGKZzuJQTL04kW+CyEvbnpryN7JL+eCzi/wzrZNZvkR7YLs8hDLhT/V2erlff+bpnid7+8VIXnqzIBXTOMrmMPmiI158t7d3dHR8/KLmxjPAAQ5wgAMc4AAHOMABDnCA8zxxRDK7zn4EFiOpPhQjb66IYjkCDWhAAxrQgAY0oAENaEADGtAU09zmt2Z9RnMRzCRwgAMc4AAHOMABDnCAAxzgAKcKzv17Ax313sDTGfXewIGT/4Xt1autrf19kIIUpCAFKUhBClKQghSkIAUpSEH6NEjdnNRLKdJ+TjoYuO7eDkhBClKQghSkIAUpSEEKUpCCFKQgfRqkA0X6JvYJUnc/J3Wc3d3BAKQgBSlIQQpSkIIUpCAFKUhBClKQPg3SLUX6fjKjSPdy0v1s2/4RpCAFKUhBClKQghSkIAUpSEEKUpA+DdJtRfofOaJId3PS16+PjnZ3QQpSkIIUpCAFKUhBClKQghSkIAXp0yDdyX8zMZMU6U5OenS0swNSkIIUpCAFKUhBClKQghSkIAUpSJ8K6a4i/TWiOgu62znp3p7rbm+DFKQgBSlIQQpSkIIUpCAFKUhBCtLGSFcoo9i7bZeK3fVSPw3k6cSbyl4q79L2i5+jWZyUY8wf7/nav5Zh4kdhIJNcoURic1O8Go2EJ3IlceunE5FE11KMBiV7JjfjnjedynDUbinv1kbJDqut56Vp3G7dtTpip2+40zzbydXfKUnngVzgdb1wOInibP9WIC8NaJcal1GYdm+lP56kSuMiCkb6Gotrczrt/i8KpSve+KEUp2kUe+Psv/OkuyXeBHHXEafDSfeV+Pn3YHiddpNoll2M//0mfjs++lF9LZXXYkv8fvo/cTIcqu++2Ci6vC83k2HsT9N/kd95uTnyb748TO5Di2Vawh8dtoYq9o+y0+VlhxmfDwYtkZ/Dw9bIT6aBNz/wwyAb6l4E0fDjDy2aLxNdHIJI59Nsf3UaN6+8G2/xaeGearvxYhWm4lCM/OtpIHuhvD29Gbdb3z1m7Iitfj//pzTtlOzIS71M9+zPVuBdyKB10BrJS28WpGIaR5d+IFudxcj5XevA6fU7rRsvmMnl/w/V7JTtk004R0fHx61PHS0dl0lnwKSzxaSzzaSzw6Szy6Szx6Szz6Tj9LmEuCLa4QpphyumHa6gdrii2uEKa4crrh2uwHa4ItvlimyXba7mimyXK7Jdo8gWyez6eu111VoVLZYjAxnyHJnJkGfITIY8P2YyZN6byZBZbyZD5ryZDJnxZjJkvpvJ0IXMUIcpjukyZqjDFMl0ETPUYYpluoQZ6jBFM13ADHWY4pkuX4Y6XPMyUzzTtctQRz+eb/0wNS9bF+ojfR3y9BjqkKfHUIc8PYY6ZLob6pDpbqhDpruhDpnuhjpkuhvq0PXLVIgroukKZirEFdN0DTMV4opquoqZCnHFNV3HTIW4IpuuZKZCbHM1V2TTxcxUSD+y7/9+Ufp+YarM9dd+0Fu8gJjBwq3fYlC/xVb9Ftv1W+zUb7Fbv8Ve/Rb79VusVfa6PBrIb6eBBHcayHCngRR3Gshxp4EkdxrIcqeBNHcayHO3gTx3m6jjDeS520Ceu9XyvPQ1jnrLqsV7Hhks6KvBZkFfDDYL+lqwWdBTLpsFPeOyWdATLpsFPd+yWdDTLZtFwbKKz6OB/C5YVvF5NJDhBcsqPo8GcrxgWcXn0UCWFyyr+DwayPOCZRWfRxN1vIE8L1hW8XlUy/PSt2XpLasWr9NisKCvBpsFfTHYLOhrwWZBT7lsFvSMy2ZBT7hsFvR8y2ZB3xvFZlFwQyCfB31HFZ8HfbMVnwd9HxafB32LFp8HfV8inwd9yyKfB303I58HfaMjn0cDeV6wrOLzaKKON1DIC5ZVfB7VSnnpS0n0llWLt5YwWNBXg82CvhhsFvS1YLOgl1VsFvSyis2CXlaxWdDLKjYLerplsyhYVvF50MsqPg96WcXnQS+r+DzoZRWfB72s4vOgl1V8HvSyis+DXlbxeTSQ5wXLKj6PJup4A4W8YFnF51GtlJf2ftdbVi2awzNY0FeDzYK+GGwW9LVgs6CXVWwW9LKKzYJeVrFZ0MsqNgt6umWzKFhW8XnQyyo+D3pZxedBL6v4POhlFZ8Hvazi86CXVXwe9LKKz4NeVvF5NJDnBcsqPo8m6ngDhbxgWcXnUa2Ul7bY1VtWLXrwMljQV4PNgr4YbBb0tWCzoJdVbBb0sorNgl5WsVnQyyo2C3q6ZbMoWFbxedDLKj4PelnF50Evq/g86GUVnwe9rOLzoJdVfB70sorPg15W8Xk0kOcFyyo+jybqeAOFvGBZxedRrZSXdjLUW1YtWh0yWNBXg82CvhhsFvS1YLOgl1VsFvSyis2CXlaxWdDLKjaLor5TTBaFzda4PIq6VXF5FDWy4vIo6nHF5VHU/orLo6jnG5dHUTs4Lo+iTnFcHkVN5Lg8GsjzgmUVn0cTdbyBQl6wrOLzKC/lH3Q6vC6bOItDEcrbVQPZvG9sO7kZd/IOsKWtYledoBOZ/hjNwlHS3u53hONsd8RA/Z+7rddu9i7DuG9wPRodeakcR/H81Z2fLDop3x+/RrvpTOAkHsn43Uw1NtbeUXHM1zl+lV4yi+UCQ/VmXp73mlt9YxjDGMYwhjGMYQxjGMMYxjCGMYxhDGMYwxjGMIYxjGEMYxjDGMYwhjGMYQxjGMMYxjCGMYxhDGMYwxjGMIYxjGEMYxjDGMYwhjGMYQxj+FkNz3vRjYxjfyR/9dSDtU6vb/m8qno0Nll/NPZUxr5Mlo/XtjqrB4inQZT2Aj+UpY/IJl96Trf8ydqkl796fhoFXupHYQbVSlI57V7IyyiWLb0nn9/KsQxH6we0+Ky90++IgXpyua8eZFb/tAJ5mSqwEumVbO98LNPjMFXnJ7O4nIXDnLS9If4skVgRyvu9z0qf5Vabfyna6cRPekl+VfSM1PZgp152/o694aT9F7Cp2gpfPTqesS91z6dR4ivB19nHOkez2pTMF6ji6NYMaYXlhyOp8qHrdAz3Xm1XVXe89GWg4q29PKeLPBnH0WwqR+L778U/lp/f9c4nXrJ8/l0l2MbD0fkXR7MT0vPG4zfKoxfIcJxOxEvhin+L1qsgaImD9W8kgT+U7a6zcdb/sFGab4+OJIpF+yo7lP4P4iqzWYbq0ld99s9sxjG/QGpTYbzUO7v60Pso5+Lw8HBx8qop5qrLy35leqir7SKW3scqO38y3Mf0++p8LY/uUIW1CoZlpOSNHHrnXpL441COjlSLiOQsP5Mfqp3K1YWezpJJu+q1yC7pweJ6Vs+kIDjQOcqe+mZVlySNo49Sz2fx3apO0dQb+ulcz2r55cpHlVusrKqqrCaS9WmlSnoYTz5qW6Xz+sQjusIxVTNJN33WT528qmp9/1PZmkJtm5vi9z/ei/+e/PFOnJ68e//Lbz+Jtyc//XIkfj5+d6wn8CabteWdp5ZoIo1EEsWpCGf/f3tn29u2rcXx9/dT8GrAouDajiXHzsOaXaSOsw5Ym6LuMKxBEdASbSuRJUGikhhDvvtEWc61k6gm9dDWu3++iFNR/PNH6pxDtlSPZ4kdWCRNaRIRGlnJ5sXxJhKKy7kXOisrM22QkXxwCRmPQ48ENIzYuetTrlMR8neTR7lybZRek5rMzVu0lW6zIWwSfqg308vj/jN199TZ9R2bjWnschKEfhLD2E6D7PxweNjvDwY7NSeeAQ5wgAMc4AAHOMABDnCAA5x/Jg6J4lnyV2BiM3GR2HQuiEJmgwY0oAENaEADGtCABjSgAQ1ovkxzl76a9YRm5MYMOMABDnCAAxzgAAc4wAEOcIBTBOfxewMN8b2BwzjvewM7RnrCdnq6v390BFKQghSkIAUpSEEKUpCCFKQgBSlIt4PUTEkpzyNtp6Sdjmke9kAKUpCCFKQgBSlIQQpSkIIUpCAF6XaQdgTpeejkkJpHKalhHBx0OiAFKUhBClKQghSkIAUpSEEKUpCCdDtI9wXpx2mcR3qYkh4lpfsapCAFKUhBClKQghSkIAUpSEEKUpBuB2lXkP7B7DzSg5T07KzfPzgAKUhBClKQghSkIAUpSEEKUpCCFKTbQdpL/2UiZnmkvZS03+/1QApSkIIUpCAFKUhBClKQghSkIAXptpAeCNK3fl5mQbObkh4emma3C1KQghSkIAUpSEEKUpCCFKQgBSlIvxrpEsUO6Z2+Uey+xR3usuGUBqzF2T3Xd974cRhtxpg/b3nmzJgXOb7nsihV2CCxt0dObZtQkiqRO4dPSeTPGLE7G1pGt5MWDQLm2bom+tZ2NzRYlhblPNS1e61Bem3FRvOkkSnfKOJzly3wmtSzpn6YtNdcNlagzTTGvsebd8yZTLnQGPmuLa+xeDbDoPnJ91iHvI7dGzLkfkgnjAznUXOfnLth0yBDa9o8JW/eu9aMNxmNOPn0jrwb9F+LuzibkX3yfviJXFiWuHVn90tP99VeZIVOwH/OvefVnu3cvlyd2yZfLNEijn2iWcL0+8lsUcdj4VVnXyPpFJ5othMFLp0fO56bVDVHrm/d/KTl8yWiiyEQPg+S9mIW967pLV1c/WJLUW5pKKyUnBDbmQUua3nsbng70bUfnjM2yH67nf7Y6HVC1qacJrqXf2kuHTFXO9ZsNqaxy0kQ+mPHZVpjUXN1rx0brXZDu6VuzLTj3lHraKUcHjU0S4SqRCGJPv3+YKA9NKRUzVpUO7Wo7tei2q1FtVeL6kEtqoe1qB7Vomq065Gtx7uMetzLqMe/jHoczKjHw4x6XMyox8eMepzMqMfLzHq8zKxpDavHy8x6vMws4WUkimeztW//LrBDCJmtICo5t2qikjOrJio5r2qikrFLTVQycqmJSsYtNVHJqKUmKhmz1ERlNwaKqrX4lOy2QFG1Fq+S3RQoqtbiV7JbAkXVWjxLdkOgqFqLb8luBxRV61mvavEt2b2AompR37pzPF52GzASN8irSk6roqrktCqqSk6roqpkyFJUlQxZiqqSIUtRVTJkKapKhixFVdn9gKpsPd4luyNQla3Hv2T3BKqy9XiY7K5AVbYeH5PdF6jK1uNlsjsDVdma1rB6vEx2c6Aqq+Rln2UOHLIjRXJCPHa3PM9IjzH06HbSSA8kNp5cLM8lI8Zf+7FnR3q33SCG0W2QjvjN7MqdftwnGI/Hrbbdp5xN/HB+eu9Ei3O9x6mQOPxMBC5Cm4UfYnHMJt1QcMzXOd4yGsUhW2CIk8LsEZQ9zk3Pkda7GrLQYVGGm/SUPZDA9XlLHG5t7DJ6adybSaNWaneB71Lu+F4CpUWcBc0RG/sh0+Qs6Tc2YZ69PqDFNb2XWEFHWII4DDPEj+y0dONB8lK2dTVhfOBxMT9JF+PYs1JSfZf8JXFcKgjZY+vLjb4hijMmOp86UWLXop1cR6KsNGol8zeg1lT/H7Cq2hI/OxvMdK8CP3KE4FlyWWY0yyJkXqAK/Ts1pCWW49lMOG7TaCi2Xpbrog3HDnOFvenZnC78ZBL6ccBs8uOP5N/Z9fvW1ZRGWTwRDra7Wjt/sTaZkBadTM5FHy2XeRM+Ja+ISf5LtFPX1cjx+h2R61hMbxq7l+3Puxv97dlI/JDo18lQ2j+R66SbzFSzfsW1/5wQQ/0BiSLMONO7vP7cumFJeDs5WUxeMcVUNXvs16pDXZZRyOhNkcYPim1U7xfzlY3uRJi1MIbMUtKFsXW1eBWI2enLQNFlOpOfi03l8kEHcTTViz6L5JEeL55ncU9y3WOZUbbEnUV7iXjo3zC5fhb3Fu3JD6jl8LlcV9nNhUeVdrHsqqjKMpCsh5Ui7qEcfERZuvN64CFNYqiqqbibPOtDI11Vpe5/2LSnEGVvj7z//SP58+L3D2R48eHjr+9+Ib9d/PJrn7wZfBjICZwnUZvdU7FFI9wnkZ9spL14ltiBRdItYkRoZCWbF8ebSCgu517orKzMtEFG8sElZDwOPRLQMGLnrk+5TkXI300e5cq1UXpNajI3b9FWus2GsEn44Ru8svnkADZ7L1McqH6TN0iBAxzgAAc4wAEOcIADHOAAZ+txnr/gIohCZoMGNKABDWhAAxrQgAY0oAENaL5M8+yVQEEjXvEDDnCAAxzgAAc4wAEOcIADHOB8w0SJH9ksYCHlcciIfr6LVInfVarEP6iwuDcs/TidjRzmcSIemch7yOw4mf8mOWifb0cKxO4WpEDsfrUUiOl/PC2agqkinU5FOvsV6XQr0ulVpHNQkc5hRTpHFems5RYoJVSVRRtVmbRRlU0bVRm1UZVVG1WZtVGVXRtVGbZRlWWbVVm2WVmsrsqyzaos21SybPmUfWtSxZP0lZDJnaHiifhKyOT6ffFkeyVkcn2+eEK9EjK5/l4iaV4ZnYrsOH8ZK5EKr4xORaacv4aVSHBXRqcia85fwEqkrSsTByuy5/zVq0QyujI6Fdlz/tJVPMXcmkyJpHJldHKnp0TiuDI6ue5eIjlcGZ1cdy+RAK6MTq67l0nyVkqoKovOX8HKpG4rJVSVUecvYmUSspUSqsqu89exMmnWSkXGqiw7fykrkzytlFBVlp2/miEl2lakREM1qlGNalSjGtWoRjWqUY1qVKMa1ahG9fdUPW/5tywMHZu9peIfqoxWGynxV0aClPiPBSnxlQpS4iMlvkJBSvynBSnxnxakxFcsSImPlPgvFqTEBw5wgAMc4AAHOMABDnCAAxzgbENCSdCABjSgAQ1oQAMa0IAGNKDZHpr/m0SWwAEOcIADHOAABzjAAQ5wgFO8v2+QEv/MmTEvcnzPZVGEhPjfV0J8P7whg/HYsRzmWfPHNPhfNwF+dveTmtU/L39ffD6qZ788fox8ey4+p3zm/vyvvwE1QV2J"
               },
               {
                  "name" : "annual_peak_electric_demand",
                  "units" : "kW",
                  "value" : 88.483869999999996
               },
               {
                  "name" : "first_year_capital_cost",
                  "units" : "$",
                  "value" : 0
               },
               {
                  "name" : "annual_utility_cost",
                  "units" : "$",
                  "value" : 0
               },
               {
                  "name" : "total_lifecycle_cost",
                  "units" : "$",
                  "value" : 0
               }
            ],
            "step_warnings" : []
         }
      }
   ],
   "updated_at" : "20170710T192521Z",
   "weather_file" : "USA_CO_Denver.Intl.AP.725650_TMY3.epw"
}
