{
   "completed_at" : "20170710T190911Z",
   "completed_status" : "Success",
   "created_at" : "2017-07-10 19:06:22 +0000",
   "current_step" : 5,
   "description" : "",
   "eplusout_err" : "Program Version,EnergyPlus, Version 8.7.0-78a111df4a, YMD=2017.07.10 19:07,IDD_Version 8.7.0\n   ************* IDF Context for following error/warning message:\n   ************* Note -- lines truncated at 300 characters, if necessary...\n   *************      5 Building,\n   ************* indicated Name=NECB 2011-RetailStripmall-NECB HDD Method-CAN_PQ_Schefferville.718280_CWEC.epw created: 2017-07-10 19:06:28 +0000\n   ************* Only last 1 lines before error line shown.....\n   *************      6   NECB 2011-RetailStripmall-NECB HDD Method-CAN_PQ_Schefferville.718280_CWEC.epw created: 2017-07-10 19:06:28 +0000, !- Name\n   ** Warning ** IP: IDF line~6 Alpha Argument length exceeds maximum, will be truncated=  NECB 2011-RetailStripmall-NECB HDD Method-CAN_PQ_Schefferville.718280_CWEC.epw created: 2017-07-10 19:06:28 +000\n   **   ~~~   ** Will be processed as Alpha=NECB 2011-RETAILSTRIPMALL-NECB HDD METHOD-CAN_PQ_SCHEFFERVILLE.718280_CWEC.EPW CREATED: 2017-07-10 19:06:28 +0000\n   ************* Beginning Zone Sizing Calculations\n   ** Warning ** ProcessScheduleInput: Schedule:Day:Interval=\"ECONOMIZER MAX OA FRACTION 100 PCT DEFAULT\", Blank Schedule Type Limits Name input -- will not be validated.\n   ** Warning ** ProcessScheduleInput: Schedule:Day:Interval=\"SCHEDULE DAY 1\", Blank Schedule Type Limits Name input -- will not be validated.\n   ** Warning ** ProcessScheduleInput: Schedule:Day:Interval=\"SCHEDULE DAY 10\", Blank Schedule Type Limits Name input -- will not be validated.\n   ** Warning ** ProcessScheduleInput: Schedule:Day:Interval=\"SCHEDULE DAY 11\", Blank Schedule Type Limits Name input -- will not be validated.\n   ** Warning ** ProcessScheduleInput: Schedule:Day:Interval=\"SCHEDULE DAY 12\", Blank Schedule Type Limits Name input -- will not be validated.\n   ** Warning ** ProcessScheduleInput: Schedule:Day:Interval=\"SCHEDULE DAY 13\", Blank Schedule Type Limits Name input -- will not be validated.\n   ** Warning ** ProcessScheduleInput: Schedule:Day:Interval=\"SCHEDULE DAY 14\", Blank Schedule Type Limits Name input -- will not be validated.\n   ** Warning ** ProcessScheduleInput: Schedule:Day:Interval=\"SCHEDULE DAY 15\", Blank Schedule Type Limits Name input -- will not be validated.\n   ** Warning ** ProcessScheduleInput: Schedule:Day:Interval=\"SCHEDULE DAY 16\", Blank Schedule Type Limits Name input -- will not be validated.\n   ** Warning ** ProcessScheduleInput: Schedule:Day:Interval=\"SCHEDULE DAY 17\", Blank Schedule Type Limits Name input -- will not be validated.\n   ** Warning ** ProcessScheduleInput: Schedule:Day:Interval=\"SCHEDULE DAY 18\", Blank Schedule Type Limits Name input -- will not be validated.\n   ** Warning ** ProcessScheduleInput: Schedule:Day:Interval=\"SCHEDULE DAY 19\", Blank Schedule Type Limits Name input -- will not be validated.\n   ** Warning ** ProcessScheduleInput: Schedule:Day:Interval=\"SCHEDULE DAY 2\", Blank Schedule Type Limits Name input -- will not be validated.\n   ** Warning ** ProcessScheduleInput: Schedule:Day:Interval=\"SCHEDULE DAY 20\", Blank Schedule Type Limits Name input -- will not be validated.\n   ** Warning ** ProcessScheduleInput: Schedule:Day:Interval=\"SCHEDULE DAY 21\", Blank Schedule Type Limits Name input -- will not be validated.\n   ** Warning ** ProcessScheduleInput: Schedule:Day:Interval=\"SCHEDULE DAY 22\", Blank Schedule Type Limits Name input -- will not be validated.\n   ** Warning ** ProcessScheduleInput: Schedule:Day:Interval=\"SCHEDULE DAY 23\", Blank Schedule Type Limits Name input -- will not be validated.\n   ** Warning ** ProcessScheduleInput: Schedule:Day:Interval=\"SCHEDULE DAY 24\", Blank Schedule Type Limits Name input -- will not be validated.\n   ** Warning ** ProcessScheduleInput: Schedule:Day:Interval=\"SCHEDULE DAY 25\", Blank Schedule Type Limits Name input -- will not be validated.\n   ** Warning ** ProcessScheduleInput: Schedule:Day:Interval=\"SCHEDULE DAY 26\", Blank Schedule Type Limits Name input -- will not be validated.\n   ** Warning ** ProcessScheduleInput: Schedule:Day:Interval=\"SCHEDULE DAY 27\", Blank Schedule Type Limits Name input -- will not be validated.\n   ** Warning ** ProcessScheduleInput: Schedule:Day:Interval=\"SCHEDULE DAY 28\", Blank Schedule Type Limits Name input -- will not be validated.\n   ** Warning ** ProcessScheduleInput: Schedule:Day:Interval=\"SCHEDULE DAY 29\", Blank Schedule Type Limits Name input -- will not be validated.\n   ** Warning ** ProcessScheduleInput: Schedule:Day:Interval=\"SCHEDULE DAY 30\", Blank Schedule Type Limits Name input -- will not be validated.\n   ** Warning ** ProcessScheduleInput: Schedule:Day:Interval=\"SCHEDULE DAY 31\", Blank Schedule Type Limits Name input -- will not be validated.\n   ** Warning ** ProcessScheduleInput: Schedule:Day:Interval=\"SCHEDULE DAY 32\", Blank Schedule Type Limits Name input -- will not be validated.\n   ** Warning ** ProcessScheduleInput: Schedule:Day:Interval=\"SCHEDULE DAY 33\", Blank Schedule Type Limits Name input -- will not be validated.\n   ** Warning ** ProcessScheduleInput: Schedule:Day:Interval=\"SCHEDULE DAY 34\", Blank Schedule Type Limits Name input -- will not be validated.\n   ** Warning ** ProcessScheduleInput: Schedule:Day:Interval=\"SCHEDULE DAY 35\", Blank Schedule Type Limits Name input -- will not be validated.\n   ** Warning ** ProcessScheduleInput: Schedule:Day:Interval=\"SCHEDULE DAY 36\", Blank Schedule Type Limits Name input -- will not be validated.\n   ** Warning ** ProcessScheduleInput: Schedule:Day:Interval=\"SCHEDULE DAY 37\", Blank Schedule Type Limits Name input -- will not be validated.\n   ** Warning ** ProcessScheduleInput: Schedule:Day:Interval=\"SCHEDULE DAY 38\", Blank Schedule Type Limits Name input -- will not be validated.\n   ** Warning ** ProcessScheduleInput: Schedule:Day:Interval=\"SCHEDULE DAY 39\", Blank Schedule Type Limits Name input -- will not be validated.\n   ** Warning ** ProcessScheduleInput: Schedule:Day:Interval=\"SCHEDULE DAY 40\", Blank Schedule Type Limits Name input -- will not be validated.\n   ** Warning ** ProcessScheduleInput: Schedule:Day:Interval=\"SCHEDULE DAY 41\", Blank Schedule Type Limits Name input -- will not be validated.\n   ** Warning ** ProcessScheduleInput: Schedule:Day:Interval=\"SCHEDULE DAY 42\", Blank Schedule Type Limits Name input -- will not be validated.\n   ** Warning ** ProcessScheduleInput: Schedule:Day:Interval=\"SCHEDULE DAY 43\", Blank Schedule Type Limits Name input -- will not be validated.\n   ** Warning ** ProcessScheduleInput: Schedule:Day:Interval=\"SCHEDULE DAY 44\", Blank Schedule Type Limits Name input -- will not be validated.\n   ** Warning ** ProcessScheduleInput: Schedule:Day:Interval=\"SCHEDULE DAY 45\", Blank Schedule Type Limits Name input -- will not be validated.\n   ** Warning ** ProcessScheduleInput: Schedule:Day:Interval=\"SCHEDULE DAY 46\", Blank Schedule Type Limits Name input -- will not be validated.\n   ** Warning ** ProcessScheduleInput: Schedule:Day:Interval=\"SCHEDULE DAY 47\", Blank Schedule Type Limits Name input -- will not be validated.\n   ** Warning ** ProcessScheduleInput: Schedule:Day:Interval=\"SCHEDULE DAY 48\", Blank Schedule Type Limits Name input -- will not be validated.\n   ** Warning ** ProcessScheduleInput: Schedule:Day:Interval=\"SCHEDULE DAY 49\", Blank Schedule Type Limits Name input -- will not be validated.\n   ** Warning ** ProcessScheduleInput: Schedule:Day:Interval=\"SCHEDULE DAY 5\", Blank Schedule Type Limits Name input -- will not be validated.\n   ** Warning ** ProcessScheduleInput: Schedule:Day:Interval=\"SCHEDULE DAY 50\", Blank Schedule Type Limits Name input -- will not be validated.\n   ** Warning ** ProcessScheduleInput: Schedule:Day:Interval=\"SCHEDULE DAY 51\", Blank Schedule Type Limits Name input -- will not be validated.\n   ** Warning ** ProcessScheduleInput: Schedule:Day:Interval=\"SCHEDULE DAY 52\", Blank Schedule Type Limits Name input -- will not be validated.\n   ** Warning ** ProcessScheduleInput: Schedule:Day:Interval=\"SCHEDULE DAY 53\", Blank Schedule Type Limits Name input -- will not be validated.\n   ** Warning ** ProcessScheduleInput: Schedule:Day:Interval=\"SCHEDULE DAY 54\", Blank Schedule Type Limits Name input -- will not be validated.\n   ** Warning ** ProcessScheduleInput: Schedule:Day:Interval=\"SCHEDULE DAY 6\", Blank Schedule Type Limits Name input -- will not be validated.\n   ** Warning ** ProcessScheduleInput: Schedule:Day:Interval=\"SCHEDULE DAY 7\", Blank Schedule Type Limits Name input -- will not be validated.\n   ** Warning ** ProcessScheduleInput: Schedule:Day:Interval=\"SCHEDULE DAY 8\", Blank Schedule Type Limits Name input -- will not be validated.\n   ** Warning ** ProcessScheduleInput: Schedule:Day:Interval=\"SCHEDULE DAY 9\", Blank Schedule Type Limits Name input -- will not be validated.\n   ** Warning ** ProcessScheduleInput: Schedule:Year=\"ECONOMIZER MAX OA FRACTION 100 PCT\", Blank Schedule Type Limits Name input -- will not be validated.\n   ** Warning ** ProcessScheduleInput: Schedule:Year=\"SCHEDULE RULESET 10\", Blank Schedule Type Limits Name input -- will not be validated.\n   ** Warning ** ProcessScheduleInput: Schedule:Year=\"SCHEDULE RULESET 11\", Blank Schedule Type Limits Name input -- will not be validated.\n   ** Warning ** ProcessScheduleInput: Schedule:Year=\"SCHEDULE RULESET 12\", Blank Schedule Type Limits Name input -- will not be validated.\n   ** Warning ** ProcessScheduleInput: Schedule:Year=\"SCHEDULE RULESET 13\", Blank Schedule Type Limits Name input -- will not be validated.\n   ** Warning ** ProcessScheduleInput: Schedule:Year=\"SCHEDULE RULESET 14\", Blank Schedule Type Limits Name input -- will not be validated.\n   ** Warning ** ProcessScheduleInput: Schedule:Year=\"SCHEDULE RULESET 15\", Blank Schedule Type Limits Name input -- will not be validated.\n   ** Warning ** ProcessScheduleInput: Schedule:Year=\"SCHEDULE RULESET 16\", Blank Schedule Type Limits Name input -- will not be validated.\n   ** Warning ** ProcessScheduleInput: Schedule:Year=\"SCHEDULE RULESET 17\", Blank Schedule Type Limits Name input -- will not be validated.\n   ** Warning ** ProcessScheduleInput: Schedule:Year=\"SCHEDULE RULESET 18\", Blank Schedule Type Limits Name input -- will not be validated.\n   ** Warning ** ProcessScheduleInput: Schedule:Year=\"SCHEDULE RULESET 19\", Blank Schedule Type Limits Name input -- will not be validated.\n   ** Warning ** ProcessScheduleInput: Schedule:Year=\"SCHEDULE RULESET 20\", Blank Schedule Type Limits Name input -- will not be validated.\n   ** Warning ** ProcessScheduleInput: Schedule:Year=\"SCHEDULE RULESET 21\", Blank Schedule Type Limits Name input -- will not be validated.\n   ** Warning ** ProcessScheduleInput: Schedule:Year=\"SCHEDULE RULESET 22\", Blank Schedule Type Limits Name input -- will not be validated.\n   ** Warning ** ProcessScheduleInput: Schedule:Year=\"SCHEDULE RULESET 23\", Blank Schedule Type Limits Name input -- will not be validated.\n   ** Warning ** ProcessScheduleInput: Schedule:Year=\"SCHEDULE RULESET 24\", Blank Schedule Type Limits Name input -- will not be validated.\n   ** Warning ** ProcessScheduleInput: Schedule:Year=\"SCHEDULE RULESET 25\", Blank Schedule Type Limits Name input -- will not be validated.\n   ** Warning ** ProcessScheduleInput: Schedule:Year=\"SCHEDULE RULESET 26\", Blank Schedule Type Limits Name input -- will not be validated.\n   ** Warning ** ProcessScheduleInput: Schedule:Year=\"SCHEDULE RULESET 27\", Blank Schedule Type Limits Name input -- will not be validated.\n   ** Warning ** ProcessScheduleInput: Schedule:Year=\"SCHEDULE RULESET 28\", Blank Schedule Type Limits Name input -- will not be validated.\n   ** Warning ** ProcessScheduleInput: Schedule:Year=\"SCHEDULE RULESET 29\", Blank Schedule Type Limits Name input -- will not be validated.\n   ** Warning ** ProcessScheduleInput: Schedule:Year=\"SCHEDULE RULESET 3\", Blank Schedule Type Limits Name input -- will not be validated.\n   ** Warning ** ProcessScheduleInput: Schedule:Year=\"SCHEDULE RULESET 30\", Blank Schedule Type Limits Name input -- will not be validated.\n   ** Warning ** ProcessScheduleInput: Schedule:Year=\"SCHEDULE RULESET 31\", Blank Schedule Type Limits Name input -- will not be validated.\n   ** Warning ** ProcessScheduleInput: Schedule:Year=\"SCHEDULE RULESET 32\", Blank Schedule Type Limits Name input -- will not be validated.\n   ** Warning ** ProcessScheduleInput: Schedule:Year=\"SCHEDULE RULESET 4\", Blank Schedule Type Limits Name input -- will not be validated.\n   ** Warning ** ProcessScheduleInput: Schedule:Year=\"SCHEDULE RULESET 5\", Blank Schedule Type Limits Name input -- will not be validated.\n   ** Warning ** ProcessScheduleInput: Schedule:Year=\"SCHEDULE RULESET 6\", Blank Schedule Type Limits Name input -- will not be validated.\n   ** Warning ** ProcessScheduleInput: Schedule:Year=\"SCHEDULE RULESET 7\", Blank Schedule Type Limits Name input -- will not be validated.\n   ** Warning ** ProcessScheduleInput: Schedule:Year=\"SCHEDULE RULESET 8\", Blank Schedule Type Limits Name input -- will not be validated.\n   ** Warning ** ProcessScheduleInput: Schedule:Year=\"SCHEDULE RULESET 9\", Blank Schedule Type Limits Name input -- will not be validated.\n   ** Warning ** ProcessScheduleInput: Schedule:Constant=\"ALWAYS OFF DISCRETE\", Blank Schedule Type Limits Name input -- will not be validated.\n   ** Warning ** ProcessScheduleInput: Schedule:Constant=\"ALWAYS ON CONTINUOUS\", Blank Schedule Type Limits Name input -- will not be validated.\n   ** Warning ** CheckUsedConstructions: There are 24 nominally unused constructions in input.\n   **   ~~~   ** For explicit details on each unused construction, use Output:Diagnostics,DisplayExtraWarnings;\n   ************* Beginning System Sizing Calculations\n   ************* Beginning Plant Sizing Calculations\n   ** Warning ** GetDXCoils: Coil:Cooling:DX:SingleSpeed=\"COIL COOLING DX SINGLE SPEED 10 65KBTU/HR 9.7EER\", invalid\n   **   ~~~   ** ...Part Load Fraction Correlation Curve Name = DXCOOL-NECB2011-REF-COOLPLFFPLR 1 has out of range value.\n   **   ~~~   ** ...Curve maximum must be <= 1.0, curve max at PLR = 0.99 is 1.015\n   **   ~~~   ** ...Setting curve maximum to 1.0 and simulation continues.\n   ** Warning ** GetDXCoils: Coil:Cooling:DX:SingleSpeed=\"COIL COOLING DX SINGLE SPEED 1 65KBTU/HR 9.7EER\", invalid\n   **   ~~~   ** ...Part Load Fraction Correlation Curve Name = DXCOOL-NECB2011-REF-COOLPLFFPLR has out of range value.\n   **   ~~~   ** ...Curve maximum must be <= 1.0, curve max at PLR = 0.99 is 1.015\n   **   ~~~   ** ...Setting curve maximum to 1.0 and simulation continues.\n   ** Warning ** GetDXCoils: Coil:Cooling:DX:SingleSpeed=\"COIL COOLING DX SINGLE SPEED 3 34KBTU/HR 14.0SEER\", invalid\n   **   ~~~   ** ...Part Load Fraction Correlation Curve Name = DXCOOL-NECB2011-REF-COOLPLFFPLR 3 has out of range value.\n   **   ~~~   ** ...Curve maximum must be <= 1.0, curve max at PLR = 0.99 is 1.015\n   **   ~~~   ** ...Setting curve maximum to 1.0 and simulation continues.\n   ** Warning ** GetDXCoils: Coil:Cooling:DX:SingleSpeed=\"COIL COOLING DX SINGLE SPEED 2 33KBTU/HR 14.0SEER\", invalid\n   **   ~~~   ** ...Part Load Fraction Correlation Curve Name = DXCOOL-NECB2011-REF-COOLPLFFPLR 2 has out of range value.\n   **   ~~~   ** ...Curve maximum must be <= 1.0, curve max at PLR = 0.99 is 1.015\n   **   ~~~   ** ...Setting curve maximum to 1.0 and simulation continues.\n   ** Warning ** GetDXCoils: Coil:Cooling:DX:SingleSpeed=\"COIL COOLING DX SINGLE SPEED 6 33KBTU/HR 14.0SEER\", invalid\n   **   ~~~   ** ...Part Load Fraction Correlation Curve Name = DXCOOL-NECB2011-REF-COOLPLFFPLR 6 has out of range value.\n   **   ~~~   ** ...Curve maximum must be <= 1.0, curve max at PLR = 0.99 is 1.015\n   **   ~~~   ** ...Setting curve maximum to 1.0 and simulation continues.\n   ** Warning ** GetDXCoils: Coil:Cooling:DX:SingleSpeed=\"COIL COOLING DX SINGLE SPEED 8 34KBTU/HR 14.0SEER\", invalid\n   **   ~~~   ** ...Part Load Fraction Correlation Curve Name = DXCOOL-NECB2011-REF-COOLPLFFPLR 8 has out of range value.\n   **   ~~~   ** ...Curve maximum must be <= 1.0, curve max at PLR = 0.99 is 1.015\n   **   ~~~   ** ...Setting curve maximum to 1.0 and simulation continues.\n   ** Warning ** GetDXCoils: Coil:Cooling:DX:SingleSpeed=\"COIL COOLING DX SINGLE SPEED 7 34KBTU/HR 14.0SEER\", invalid\n   **   ~~~   ** ...Part Load Fraction Correlation Curve Name = DXCOOL-NECB2011-REF-COOLPLFFPLR 7 has out of range value.\n   **   ~~~   ** ...Curve maximum must be <= 1.0, curve max at PLR = 0.99 is 1.015\n   **   ~~~   ** ...Setting curve maximum to 1.0 and simulation continues.\n   ** Warning ** GetDXCoils: Coil:Cooling:DX:SingleSpeed=\"COIL COOLING DX SINGLE SPEED 5 33KBTU/HR 14.0SEER\", invalid\n   **   ~~~   ** ...Part Load Fraction Correlation Curve Name = DXCOOL-NECB2011-REF-COOLPLFFPLR 5 has out of range value.\n   **   ~~~   ** ...Curve maximum must be <= 1.0, curve max at PLR = 0.99 is 1.015\n   **   ~~~   ** ...Setting curve maximum to 1.0 and simulation continues.\n   ** Warning ** GetDXCoils: Coil:Cooling:DX:SingleSpeed=\"COIL COOLING DX SINGLE SPEED 4 33KBTU/HR 14.0SEER\", invalid\n   **   ~~~   ** ...Part Load Fraction Correlation Curve Name = DXCOOL-NECB2011-REF-COOLPLFFPLR 4 has out of range value.\n   **   ~~~   ** ...Curve maximum must be <= 1.0, curve max at PLR = 0.99 is 1.015\n   **   ~~~   ** ...Setting curve maximum to 1.0 and simulation continues.\n   ** Warning ** GetDXCoils: Coil:Cooling:DX:SingleSpeed=\"COIL COOLING DX SINGLE SPEED 9 34KBTU/HR 14.0SEER\", invalid\n   **   ~~~   ** ...Part Load Fraction Correlation Curve Name = DXCOOL-NECB2011-REF-COOLPLFFPLR 9 has out of range value.\n   **   ~~~   ** ...Curve maximum must be <= 1.0, curve max at PLR = 0.99 is 1.015\n   **   ~~~   ** ...Setting curve maximum to 1.0 and simulation continues.\n   ** Warning ** The Standard Ratings is calculated for Coil:Cooling:DX:SingleSpeed = COIL COOLING DX SINGLE SPEED 10 65KBTU/HR 9.7EER but not at the AHRI test condition due to curve out of bound.\n   **   ~~~   **  Review the Standard Ratings calculations in the Engineering Reference for this coil type. Also, use Output:Diagnostics, DisplayExtraWarnings for further guidance.\n   ** Warning ** The Standard Ratings is calculated for Coil:Cooling:DX:SingleSpeed = COIL COOLING DX SINGLE SPEED 1 65KBTU/HR 9.7EER but not at the AHRI test condition due to curve out of bound.\n   **   ~~~   **  Review the Standard Ratings calculations in the Engineering Reference for this coil type. Also, use Output:Diagnostics, DisplayExtraWarnings for further guidance.\n   ** Warning ** The Standard Ratings is calculated for Coil:Cooling:DX:SingleSpeed = COIL COOLING DX SINGLE SPEED 3 34KBTU/HR 14.0SEER but not at the AHRI test condition due to curve out of bound.\n   **   ~~~   **  Review the Standard Ratings calculations in the Engineering Reference for this coil type. Also, use Output:Diagnostics, DisplayExtraWarnings for further guidance.\n   ** Warning ** The Standard Ratings is calculated for Coil:Cooling:DX:SingleSpeed = COIL COOLING DX SINGLE SPEED 2 33KBTU/HR 14.0SEER but not at the AHRI test condition due to curve out of bound.\n   **   ~~~   **  Review the Standard Ratings calculations in the Engineering Reference for this coil type. Also, use Output:Diagnostics, DisplayExtraWarnings for further guidance.\n   ** Warning ** The Standard Ratings is calculated for Coil:Cooling:DX:SingleSpeed = COIL COOLING DX SINGLE SPEED 6 33KBTU/HR 14.0SEER but not at the AHRI test condition due to curve out of bound.\n   **   ~~~   **  Review the Standard Ratings calculations in the Engineering Reference for this coil type. Also, use Output:Diagnostics, DisplayExtraWarnings for further guidance.\n   ** Warning ** The Standard Ratings is calculated for Coil:Cooling:DX:SingleSpeed = COIL COOLING DX SINGLE SPEED 8 34KBTU/HR 14.0SEER but not at the AHRI test condition due to curve out of bound.\n   **   ~~~   **  Review the Standard Ratings calculations in the Engineering Reference for this coil type. Also, use Output:Diagnostics, DisplayExtraWarnings for further guidance.\n   ** Warning ** The Standard Ratings is calculated for Coil:Cooling:DX:SingleSpeed = COIL COOLING DX SINGLE SPEED 7 34KBTU/HR 14.0SEER but not at the AHRI test condition due to curve out of bound.\n   **   ~~~   **  Review the Standard Ratings calculations in the Engineering Reference for this coil type. Also, use Output:Diagnostics, DisplayExtraWarnings for further guidance.\n   ** Warning ** The Standard Ratings is calculated for Coil:Cooling:DX:SingleSpeed = COIL COOLING DX SINGLE SPEED 5 33KBTU/HR 14.0SEER but not at the AHRI test condition due to curve out of bound.\n   **   ~~~   **  Review the Standard Ratings calculations in the Engineering Reference for this coil type. Also, use Output:Diagnostics, DisplayExtraWarnings for further guidance.\n   ** Warning ** The Standard Ratings is calculated for Coil:Cooling:DX:SingleSpeed = COIL COOLING DX SINGLE SPEED 4 33KBTU/HR 14.0SEER but not at the AHRI test condition due to curve out of bound.\n   **   ~~~   **  Review the Standard Ratings calculations in the Engineering Reference for this coil type. Also, use Output:Diagnostics, DisplayExtraWarnings for further guidance.\n   ** Warning ** The Standard Ratings is calculated for Coil:Cooling:DX:SingleSpeed = COIL COOLING DX SINGLE SPEED 9 34KBTU/HR 14.0SEER but not at the AHRI test condition due to curve out of bound.\n   **   ~~~   **  Review the Standard Ratings calculations in the Engineering Reference for this coil type. Also, use Output:Diagnostics, DisplayExtraWarnings for further guidance.\n   ** Warning ** Check input. Pump nominal power or motor efficiency is set to 0, for pump=SERVICE WATER LOOP PUMP\n   ** Warning ** Output:Meter: invalid Name=\"GAS:FACILITY\" - not found.\n   ** Warning ** Output:Meter: invalid Name=\"DISTRICTCOOLING:FACILITY\" - not found.\n   ** Warning ** Output:Meter: invalid Name=\"DISTRICTHEATING:FACILITY\" - not found.\n   ** Warning ** Output:Meter:MeterFileOnly: invalid Name=\"GAS:FACILITY\" - not found.\n   ** Warning ** Output:Meter:MeterFileOnly requested for \"Electricity:Facility\" (TimeStep), already on \"Output:Meter\". Will report to both eplusout.eso and eplusout.mtr\n   ************* Testing Individual Branch Integrity\n   ************* All Branches passed integrity testing\n   ************* Testing Individual Supply Air Path Integrity\n   ************* All Supply Air Paths passed integrity testing\n   ************* Testing Individual Return Air Path Integrity\n   ************* All Return Air Paths passed integrity testing\n   ************* No node connection errors were found.\n   ************* Beginning Simulation\n   ** Warning ** CalcDoe2DXCoil: Coil:Cooling:DX:SingleSpeed \"COIL COOLING DX SINGLE SPEED 10 65KBTU/HR 9.7EER\" - Air-cooled condenser inlet dry-bulb temperature below 0 C. Outdoor dry-bulb temperature = -17.08\n   **   ~~~   **  ... Occurrence info = RUN PERIOD 1, 01/01 09:04 - 09:08\n   **   ~~~   ** ... Operation at low ambient temperatures may require special performance curves.\n   ** Warning ** CalcDoe2DXCoil: Coil:Cooling:DX:SingleSpeed \"COIL COOLING DX SINGLE SPEED 1 65KBTU/HR 9.7EER\" - Air-cooled condenser inlet dry-bulb temperature below 0 C. Outdoor dry-bulb temperature = -17.08\n   **   ~~~   **  ... Occurrence info = RUN PERIOD 1, 01/01 09:04 - 09:08\n   **   ~~~   ** ... Operation at low ambient temperatures may require special performance curves.\n   ** Warning ** CalcDoe2DXCoil: Coil:Cooling:DX:SingleSpeed \"COIL COOLING DX SINGLE SPEED 3 34KBTU/HR 14.0SEER\" - Air-cooled condenser inlet dry-bulb temperature below 0 C. Outdoor dry-bulb temperature = -17.08\n   **   ~~~   **  ... Occurrence info = RUN PERIOD 1, 01/01 09:04 - 09:08\n   **   ~~~   ** ... Operation at low ambient temperatures may require special performance curves.\n   ** Warning ** CalcDoe2DXCoil: Coil:Cooling:DX:SingleSpeed \"COIL COOLING DX SINGLE SPEED 2 33KBTU/HR 14.0SEER\" - Air-cooled condenser inlet dry-bulb temperature below 0 C. Outdoor dry-bulb temperature = -17.08\n   **   ~~~   **  ... Occurrence info = RUN PERIOD 1, 01/01 09:04 - 09:08\n   **   ~~~   ** ... Operation at low ambient temperatures may require special performance curves.\n   ** Warning ** CalcDoe2DXCoil: Coil:Cooling:DX:SingleSpeed \"COIL COOLING DX SINGLE SPEED 6 33KBTU/HR 14.0SEER\" - Air-cooled condenser inlet dry-bulb temperature below 0 C. Outdoor dry-bulb temperature = -17.08\n   **   ~~~   **  ... Occurrence info = RUN PERIOD 1, 01/01 09:04 - 09:08\n   **   ~~~   ** ... Operation at low ambient temperatures may require special performance curves.\n   ** Warning ** CalcDoe2DXCoil: Coil:Cooling:DX:SingleSpeed \"COIL COOLING DX SINGLE SPEED 8 34KBTU/HR 14.0SEER\" - Air-cooled condenser inlet dry-bulb temperature below 0 C. Outdoor dry-bulb temperature = -17.08\n   **   ~~~   **  ... Occurrence info = RUN PERIOD 1, 01/01 09:04 - 09:08\n   **   ~~~   ** ... Operation at low ambient temperatures may require special performance curves.\n   ** Warning ** CalcDoe2DXCoil: Coil:Cooling:DX:SingleSpeed \"COIL COOLING DX SINGLE SPEED 7 34KBTU/HR 14.0SEER\" - Air-cooled condenser inlet dry-bulb temperature below 0 C. Outdoor dry-bulb temperature = -17.08\n   **   ~~~   **  ... Occurrence info = RUN PERIOD 1, 01/01 09:04 - 09:08\n   **   ~~~   ** ... Operation at low ambient temperatures may require special performance curves.\n   ** Warning ** CalcDoe2DXCoil: Coil:Cooling:DX:SingleSpeed \"COIL COOLING DX SINGLE SPEED 5 33KBTU/HR 14.0SEER\" - Air-cooled condenser inlet dry-bulb temperature below 0 C. Outdoor dry-bulb temperature = -17.08\n   **   ~~~   **  ... Occurrence info = RUN PERIOD 1, 01/01 09:04 - 09:08\n   **   ~~~   ** ... Operation at low ambient temperatures may require special performance curves.\n   ** Warning ** CalcDoe2DXCoil: Coil:Cooling:DX:SingleSpeed \"COIL COOLING DX SINGLE SPEED 4 33KBTU/HR 14.0SEER\" - Air-cooled condenser inlet dry-bulb temperature below 0 C. Outdoor dry-bulb temperature = -17.08\n   **   ~~~   **  ... Occurrence info = RUN PERIOD 1, 01/01 09:04 - 09:08\n   **   ~~~   ** ... Operation at low ambient temperatures may require special performance curves.\n   ** Warning ** CalcDoe2DXCoil: Coil:Cooling:DX:SingleSpeed \"COIL COOLING DX SINGLE SPEED 9 34KBTU/HR 14.0SEER\" - Air-cooled condenser inlet dry-bulb temperature below 0 C. Outdoor dry-bulb temperature = -12.35\n   **   ~~~   **  ... Occurrence info = RUN PERIOD 1, 01/02 07:03 - 07:05\n   **   ~~~   ** ... Operation at low ambient temperatures may require special performance curves.\n   ** Warning ** CalcDoe2DXCoil: Coil:Cooling:DX:SingleSpeed \"COIL COOLING DX SINGLE SPEED 10 65KBTU/HR 9.7EER\" - Full load outlet air dry-bulb temperature < 2C. This indicates the possibility of coil frost/freeze. Outlet temperature = -0.74 C.\n   **   ~~~   **  ...Occurrence info = RUN PERIOD 1, 03/05 11:15 - 11:20\n   **   ~~~   ** ... Possible reasons for low outlet air dry-bulb temperatures are: This DX coil\n   **   ~~~   **    1) may have a low inlet air dry-bulb temperature. Inlet air temperature = 12.683 C.\n   **   ~~~   **    2) may have a low air flow rate per watt of cooling capacity. Check inputs.\n   **   ~~~   **    3) is used as part of a HX assisted cooling coil which uses a high sensible effectiveness. Check inputs.\n   ** Warning ** CalcDoe2DXCoil: Coil:Cooling:DX:SingleSpeed \"COIL COOLING DX SINGLE SPEED 1 65KBTU/HR 9.7EER\" - Full load outlet air dry-bulb temperature < 2C. This indicates the possibility of coil frost/freeze. Outlet temperature = -0.74 C.\n   **   ~~~   **  ...Occurrence info = RUN PERIOD 1, 03/05 11:15 - 11:20\n   **   ~~~   ** ... Possible reasons for low outlet air dry-bulb temperatures are: This DX coil\n   **   ~~~   **    1) may have a low inlet air dry-bulb temperature. Inlet air temperature = 12.688 C.\n   **   ~~~   **    2) may have a low air flow rate per watt of cooling capacity. Check inputs.\n   **   ~~~   **    3) is used as part of a HX assisted cooling coil which uses a high sensible effectiveness. Check inputs.\n   ** Warning ** CalcDoe2DXCoil: Coil:Cooling:DX:SingleSpeed \"COIL COOLING DX SINGLE SPEED 3 34KBTU/HR 14.0SEER\" - Full load outlet air dry-bulb temperature < 2C. This indicates the possibility of coil frost/freeze. Outlet temperature = -0.62 C.\n   **   ~~~   **  ...Occurrence info = RUN PERIOD 1, 03/05 11:15 - 11:20\n   **   ~~~   ** ... Possible reasons for low outlet air dry-bulb temperatures are: This DX coil\n   **   ~~~   **    1) may have a low inlet air dry-bulb temperature. Inlet air temperature = 12.813 C.\n   **   ~~~   **    2) may have a low air flow rate per watt of cooling capacity. Check inputs.\n   **   ~~~   **    3) is used as part of a HX assisted cooling coil which uses a high sensible effectiveness. Check inputs.\n   ** Warning ** CalcDoe2DXCoil: Coil:Cooling:DX:SingleSpeed \"COIL COOLING DX SINGLE SPEED 8 34KBTU/HR 14.0SEER\" - Full load outlet air dry-bulb temperature < 2C. This indicates the possibility of coil frost/freeze. Outlet temperature = -0.64 C.\n   **   ~~~   **  ...Occurrence info = RUN PERIOD 1, 03/05 11:15 - 11:20\n   **   ~~~   ** ... Possible reasons for low outlet air dry-bulb temperatures are: This DX coil\n   **   ~~~   **    1) may have a low inlet air dry-bulb temperature. Inlet air temperature = 12.789 C.\n   **   ~~~   **    2) may have a low air flow rate per watt of cooling capacity. Check inputs.\n   **   ~~~   **    3) is used as part of a HX assisted cooling coil which uses a high sensible effectiveness. Check inputs.\n   ** Warning ** CalcDoe2DXCoil: Coil:Cooling:DX:SingleSpeed \"COIL COOLING DX SINGLE SPEED 7 34KBTU/HR 14.0SEER\" - Full load outlet air dry-bulb temperature < 2C. This indicates the possibility of coil frost/freeze. Outlet temperature = -0.64 C.\n   **   ~~~   **  ...Occurrence info = RUN PERIOD 1, 03/05 11:15 - 11:20\n   **   ~~~   ** ... Possible reasons for low outlet air dry-bulb temperatures are: This DX coil\n   **   ~~~   **    1) may have a low inlet air dry-bulb temperature. Inlet air temperature = 12.789 C.\n   **   ~~~   **    2) may have a low air flow rate per watt of cooling capacity. Check inputs.\n   **   ~~~   **    3) is used as part of a HX assisted cooling coil which uses a high sensible effectiveness. Check inputs.\n   ** Warning ** CalcDoe2DXCoil: Coil:Cooling:DX:SingleSpeed \"COIL COOLING DX SINGLE SPEED 9 34KBTU/HR 14.0SEER\" - Full load outlet air dry-bulb temperature < 2C. This indicates the possibility of coil frost/freeze. Outlet temperature = 0.51 C.\n   **   ~~~   **  ...Occurrence info = RUN PERIOD 1, 03/19 11:15 - 11:22\n   **   ~~~   ** ... Possible reasons for low outlet air dry-bulb temperatures are: This DX coil\n   **   ~~~   **    1) may have a low inlet air dry-bulb temperature. Inlet air temperature = 13.938 C.\n   **   ~~~   **    2) may have a low air flow rate per watt of cooling capacity. Check inputs.\n   **   ~~~   **    3) is used as part of a HX assisted cooling coil which uses a high sensible effectiveness. Check inputs.\n   ** Warning ** CalcDoe2DXCoil: Coil:Cooling:DX:SingleSpeed \"COIL COOLING DX SINGLE SPEED 2 33KBTU/HR 14.0SEER\" - Full load outlet air dry-bulb temperature < 2C. This indicates the possibility of coil frost/freeze. Outlet temperature = 0.71 C.\n   **   ~~~   **  ...Occurrence info = RUN PERIOD 1, 03/19 11:30 - 11:45\n   **   ~~~   ** ... Possible reasons for low outlet air dry-bulb temperatures are: This DX coil\n   **   ~~~   **    1) may have a low inlet air dry-bulb temperature. Inlet air temperature = 14.130 C.\n   **   ~~~   **    2) may have a low air flow rate per watt of cooling capacity. Check inputs.\n   **   ~~~   **    3) is used as part of a HX assisted cooling coil which uses a high sensible effectiveness. Check inputs.\n   ** Warning ** CalcDoe2DXCoil: Coil:Cooling:DX:SingleSpeed \"COIL COOLING DX SINGLE SPEED 6 33KBTU/HR 14.0SEER\" - Full load outlet air dry-bulb temperature < 2C. This indicates the possibility of coil frost/freeze. Outlet temperature = 0.71 C.\n   **   ~~~   **  ...Occurrence info = RUN PERIOD 1, 03/19 11:30 - 11:45\n   **   ~~~   ** ... Possible reasons for low outlet air dry-bulb temperatures are: This DX coil\n   **   ~~~   **    1) may have a low inlet air dry-bulb temperature. Inlet air temperature = 14.130 C.\n   **   ~~~   **    2) may have a low air flow rate per watt of cooling capacity. Check inputs.\n   **   ~~~   **    3) is used as part of a HX assisted cooling coil which uses a high sensible effectiveness. Check inputs.\n   ** Warning ** CalcDoe2DXCoil: Coil:Cooling:DX:SingleSpeed \"COIL COOLING DX SINGLE SPEED 5 33KBTU/HR 14.0SEER\" - Full load outlet air dry-bulb temperature < 2C. This indicates the possibility of coil frost/freeze. Outlet temperature = 0.69 C.\n   **   ~~~   **  ...Occurrence info = RUN PERIOD 1, 03/19 11:30 - 11:45\n   **   ~~~   ** ... Possible reasons for low outlet air dry-bulb temperatures are: This DX coil\n   **   ~~~   **    1) may have a low inlet air dry-bulb temperature. Inlet air temperature = 14.115 C.\n   **   ~~~   **    2) may have a low air flow rate per watt of cooling capacity. Check inputs.\n   **   ~~~   **    3) is used as part of a HX assisted cooling coil which uses a high sensible effectiveness. Check inputs.\n   ** Warning ** CalcDoe2DXCoil: Coil:Cooling:DX:SingleSpeed \"COIL COOLING DX SINGLE SPEED 4 33KBTU/HR 14.0SEER\" - Full load outlet air dry-bulb temperature < 2C. This indicates the possibility of coil frost/freeze. Outlet temperature = 0.86 C.\n   **   ~~~   **  ...Occurrence info = RUN PERIOD 1, 03/19 11:45 - 12:00\n   **   ~~~   ** ... Possible reasons for low outlet air dry-bulb temperatures are: This DX coil\n   **   ~~~   **    1) may have a low inlet air dry-bulb temperature. Inlet air temperature = 14.287 C.\n   **   ~~~   **    2) may have a low air flow rate per watt of cooling capacity. Check inputs.\n   **   ~~~   **    3) is used as part of a HX assisted cooling coil which uses a high sensible effectiveness. Check inputs.\n   ************* Simulation Error Summary *************\n   ************* There are 9 unused schedules in input.\n   ************* There are 9 unused week schedules in input.\n   ************* There are 32 unused day schedules in input.\n   ************* Use Output:Diagnostics,DisplayUnusedSchedules; to see them.\n   *************\n   ************* ===== Recurring Error Summary =====\n   ************* The following recurring error messages occurred.\n   *************\n   *************  ** Warning ** CalcDoe2DXCoil: Coil:Cooling:DX:SingleSpeed=\"COIL COOLING DX SINGLE SPEED 10 65KBTU/HR 9.7EER\" - Low condenser dry-bulb temperature error continues...\n   *************  **   ~~~   **   This error occurred 450 total times;\n   *************  **   ~~~   **   during Warmup 0 times;\n   *************  **   ~~~   **   during Sizing 0 times.\n   *************  **   ~~~   **   Max=-5.000000E-002 [C]  Min=-40.725 [C]\n   *************\n   *************  ** Warning ** CalcDoe2DXCoil: Coil:Cooling:DX:SingleSpeed=\"COIL COOLING DX SINGLE SPEED 1 65KBTU/HR 9.7EER\" - Low condenser dry-bulb temperature error continues...\n   *************  **   ~~~   **   This error occurred 517 total times;\n   *************  **   ~~~   **   during Warmup 0 times;\n   *************  **   ~~~   **   during Sizing 0 times.\n   *************  **   ~~~   **   Max=-5.000000E-002 [C]  Min=-40.725 [C]\n   *************\n   *************  ** Warning ** CalcDoe2DXCoil: Coil:Cooling:DX:SingleSpeed=\"COIL COOLING DX SINGLE SPEED 3 34KBTU/HR 14.0SEER\" - Low condenser dry-bulb temperature error continues...\n   *************  **   ~~~   **   This error occurred 478 total times;\n   *************  **   ~~~   **   during Warmup 0 times;\n   *************  **   ~~~   **   during Sizing 0 times.\n   *************  **   ~~~   **   Max=-5.000000E-002 [C]  Min=-40.725 [C]\n   *************\n   *************  ** Warning ** CalcDoe2DXCoil: Coil:Cooling:DX:SingleSpeed=\"COIL COOLING DX SINGLE SPEED 2 33KBTU/HR 14.0SEER\" - Low condenser dry-bulb temperature error continues...\n   *************  **   ~~~   **   This error occurred 457 total times;\n   *************  **   ~~~   **   during Warmup 0 times;\n   *************  **   ~~~   **   during Sizing 0 times.\n   *************  **   ~~~   **   Max=-5.000000E-002 [C]  Min=-40.725 [C]\n   *************\n   *************  ** Warning ** CalcDoe2DXCoil: Coil:Cooling:DX:SingleSpeed=\"COIL COOLING DX SINGLE SPEED 6 33KBTU/HR 14.0SEER\" - Low condenser dry-bulb temperature error continues...\n   *************  **   ~~~   **   This error occurred 458 total times;\n   *************  **   ~~~   **   during Warmup 0 times;\n   *************  **   ~~~   **   during Sizing 0 times.\n   *************  **   ~~~   **   Max=-5.000000E-002 [C]  Min=-40.725 [C]\n   *************\n   *************  ** Warning ** CalcDoe2DXCoil: Coil:Cooling:DX:SingleSpeed=\"COIL COOLING DX SINGLE SPEED 8 34KBTU/HR 14.0SEER\" - Low condenser dry-bulb temperature error continues...\n   *************  **   ~~~   **   This error occurred 479 total times;\n   *************  **   ~~~   **   during Warmup 0 times;\n   *************  **   ~~~   **   during Sizing 0 times.\n   *************  **   ~~~   **   Max=-5.000000E-002 [C]  Min=-40.725 [C]\n   *************\n   *************  ** Warning ** CalcDoe2DXCoil: Coil:Cooling:DX:SingleSpeed=\"COIL COOLING DX SINGLE SPEED 7 34KBTU/HR 14.0SEER\" - Low condenser dry-bulb temperature error continues...\n   *************  **   ~~~   **   This error occurred 479 total times;\n   *************  **   ~~~   **   during Warmup 0 times;\n   *************  **   ~~~   **   during Sizing 0 times.\n   *************  **   ~~~   **   Max=-5.000000E-002 [C]  Min=-40.725 [C]\n   *************\n   *************  ** Warning ** CalcDoe2DXCoil: Coil:Cooling:DX:SingleSpeed=\"COIL COOLING DX SINGLE SPEED 5 33KBTU/HR 14.0SEER\" - Low condenser dry-bulb temperature error continues...\n   *************  **   ~~~   **   This error occurred 457 total times;\n   *************  **   ~~~   **   during Warmup 0 times;\n   *************  **   ~~~   **   during Sizing 0 times.\n   *************  **   ~~~   **   Max=-5.000000E-002 [C]  Min=-40.725 [C]\n   *************\n   *************  ** Warning ** CalcDoe2DXCoil: Coil:Cooling:DX:SingleSpeed=\"COIL COOLING DX SINGLE SPEED 4 33KBTU/HR 14.0SEER\" - Low condenser dry-bulb temperature error continues...\n   *************  **   ~~~   **   This error occurred 448 total times;\n   *************  **   ~~~   **   during Warmup 0 times;\n   *************  **   ~~~   **   during Sizing 0 times.\n   *************  **   ~~~   **   Max=-5.000000E-002 [C]  Min=-40.725 [C]\n   *************\n   *************  ** Warning ** CalcDoe2DXCoil: Coil:Cooling:DX:SingleSpeed=\"COIL COOLING DX SINGLE SPEED 9 34KBTU/HR 14.0SEER\" - Low condenser dry-bulb temperature error continues...\n   *************  **   ~~~   **   This error occurred 377 total times;\n   *************  **   ~~~   **   during Warmup 0 times;\n   *************  **   ~~~   **   during Sizing 0 times.\n   *************  **   ~~~   **   Max=-5.000000E-002 [C]  Min=-40.725 [C]\n   *************\n   *************  ** Warning ** CalcDoe2DXCoil: Coil:Cooling:DX:SingleSpeed=\"COIL COOLING DX SINGLE SPEED 10 65KBTU/HR 9.7EER\" - Full load outlet temperature indicates a possibility of frost/freeze error continues. Outlet air temperature statistics follow:\n   *************  **   ~~~   **   This error occurred 80 total times;\n   *************  **   ~~~   **   during Warmup 0 times;\n   *************  **   ~~~   **   during Sizing 0 times.\n   *************  **   ~~~   **   Max=1.974675  Min=-1.460746\n   *************\n   *************  ** Warning ** CalcDoe2DXCoil: Coil:Cooling:DX:SingleSpeed=\"COIL COOLING DX SINGLE SPEED 1 65KBTU/HR 9.7EER\" - Full load outlet temperature indicates a possibility of frost/freeze error continues. Outlet air temperature statistics follow:\n   *************  **   ~~~   **   This error occurred 106 total times;\n   *************  **   ~~~   **   during Warmup 0 times;\n   *************  **   ~~~   **   during Sizing 0 times.\n   *************  **   ~~~   **   Max=1.929246  Min=-1.527999\n   *************\n   *************  ** Warning ** CalcDoe2DXCoil: Coil:Cooling:DX:SingleSpeed=\"COIL COOLING DX SINGLE SPEED 3 34KBTU/HR 14.0SEER\" - Full load outlet temperature indicates a possibility of frost/freeze error continues. Outlet air temperature statistics follow:\n   *************  **   ~~~   **   This error occurred 94 total times;\n   *************  **   ~~~   **   during Warmup 0 times;\n   *************  **   ~~~   **   during Sizing 0 times.\n   *************  **   ~~~   **   Max=1.996178  Min=-1.329507\n   *************\n   *************  ** Warning ** CalcDoe2DXCoil: Coil:Cooling:DX:SingleSpeed=\"COIL COOLING DX SINGLE SPEED 8 34KBTU/HR 14.0SEER\" - Full load outlet temperature indicates a possibility of frost/freeze error continues. Outlet air temperature statistics follow:\n   *************  **   ~~~   **   This error occurred 97 total times;\n   *************  **   ~~~   **   during Warmup 0 times;\n   *************  **   ~~~   **   during Sizing 0 times.\n   *************  **   ~~~   **   Max=1.996712  Min=-1.35874\n   *************\n   *************  ** Warning ** CalcDoe2DXCoil: Coil:Cooling:DX:SingleSpeed=\"COIL COOLING DX SINGLE SPEED 7 34KBTU/HR 14.0SEER\" - Full load outlet temperature indicates a possibility of frost/freeze error continues. Outlet air temperature statistics follow:\n   *************  **   ~~~   **   This error occurred 97 total times;\n   *************  **   ~~~   **   during Warmup 0 times;\n   *************  **   ~~~   **   during Sizing 0 times.\n   *************  **   ~~~   **   Max=1.997018  Min=-1.358608\n   *************\n   *************  ** Warning ** CalcDoe2DXCoil: Coil:Cooling:DX:SingleSpeed=\"COIL COOLING DX SINGLE SPEED 9 34KBTU/HR 14.0SEER\" - Full load outlet temperature indicates a possibility of frost/freeze error continues. Outlet air temperature statistics follow:\n   *************  **   ~~~   **   This error occurred 50 total times;\n   *************  **   ~~~   **   during Warmup 0 times;\n   *************  **   ~~~   **   during Sizing 0 times.\n   *************  **   ~~~   **   Max=1.892619  Min=-1.498181\n   *************\n   *************  ** Warning ** CalcDoe2DXCoil: Coil:Cooling:DX:SingleSpeed=\"COIL COOLING DX SINGLE SPEED 2 33KBTU/HR 14.0SEER\" - Full load outlet temperature indicates a possibility of frost/freeze error continues. Outlet air temperature statistics follow:\n   *************  **   ~~~   **   This error occurred 95 total times;\n   *************  **   ~~~   **   during Warmup 0 times;\n   *************  **   ~~~   **   during Sizing 0 times.\n   *************  **   ~~~   **   Max=1.972787  Min=-1.582876\n   *************\n   *************  ** Warning ** CalcDoe2DXCoil: Coil:Cooling:DX:SingleSpeed=\"COIL COOLING DX SINGLE SPEED 6 33KBTU/HR 14.0SEER\" - Full load outlet temperature indicates a possibility of frost/freeze error continues. Outlet air temperature statistics follow:\n   *************  **   ~~~   **   This error occurred 96 total times;\n   *************  **   ~~~   **   during Warmup 0 times;\n   *************  **   ~~~   **   during Sizing 0 times.\n   *************  **   ~~~   **   Max=1.970349  Min=-1.585735\n   *************\n   *************  ** Warning ** CalcDoe2DXCoil: Coil:Cooling:DX:SingleSpeed=\"COIL COOLING DX SINGLE SPEED 5 33KBTU/HR 14.0SEER\" - Full load outlet temperature indicates a possibility of frost/freeze error continues. Outlet air temperature statistics follow:\n   *************  **   ~~~   **   This error occurred 96 total times;\n   *************  **   ~~~   **   during Warmup 0 times;\n   *************  **   ~~~   **   during Sizing 0 times.\n   *************  **   ~~~   **   Max=1.999946  Min=-1.586122\n   *************\n   *************  ** Warning ** CalcDoe2DXCoil: Coil:Cooling:DX:SingleSpeed=\"COIL COOLING DX SINGLE SPEED 4 33KBTU/HR 14.0SEER\" - Full load outlet temperature indicates a possibility of frost/freeze error continues. Outlet air temperature statistics follow:\n   *************  **   ~~~   **   This error occurred 91 total times;\n   *************  **   ~~~   **   during Warmup 0 times;\n   *************  **   ~~~   **   during Sizing 0 times.\n   *************  **   ~~~   **   Max=1.989489  Min=-1.58968\n   *************\n   *************\n   ************* ===== Final Error Summary =====\n   ************* The following error categories occurred.  Consider correcting or noting.\n   ************* Nominally Unused Constructions\n   ************* ..The nominally unused constructions warning is provided to alert you to potential conditions that can cause\n   ************* ..extra time during simulation. Each construction is calculated by the algorithm indicated in the HeatBalanceAlgorithm\n   ************* ..object. You may remove the constructions indicated (when you use the DisplayExtraWarnings option).\n   *************\n   ************* EnergyPlus Warmup Error Summary. During Warmup: 0 Warning; 0 Severe Errors.\n   ************* EnergyPlus Sizing Error Summary. During Sizing: 87 Warning; 0 Severe Errors.\n   ************* EnergyPlus Completed Successfully-- 5616 Warning; 0 Severe Errors; Elapsed Time=00hr 00min 57.68sec\n",
   "file_format_version" : "0.0.1",
   "file_paths" : [ "../weather", "../seeds", "../seed" ],
   "hash" : "D0F173D0",
   "measure_paths" : [ "../measures" ],
   "name" : "LHS Autogenerated 691",
   "osa_id" : "4fef0e0f-5396-4c55-a6e1-2cd6803db3ab",
   "osd_id" : "466328c5-e8f2-4989-99b2-dbe341ea4e66",
   "run_directory" : "./run",
   "seed_file" : "seed.osm",
   "started_at" : "20170710T190625Z",
   "steps" : [
      {
         "arguments" : {
            "__SKIP__" : false,
            "building_type" : "RetailStripmall",
            "climate_zone" : "NECB HDD Method",
            "epw_file" : "CAN_PQ_Schefferville.718280_CWEC.epw",
            "template" : "NECB 2011"
         },
         "measure_dir_name" : "create_prototype_building",
         "name" : "create_prototype_building",
         "result" : {
            "completed_at" : "20170710T190736Z",
            "measure_class_name" : "CreatePrototypeBuilding",
            "measure_display_name" : "Create Prototype Building",
            "measure_name" : "create_prototype_building",
            "measure_taxonomy" : "Whole Building.Space Types",
            "measure_type" : "ModelMeasure",
            "measure_uid" : "ae90fsd7-a651-467a-bc8d-29d310b0f937",
            "measure_version_id" : "c6ec5c18-5595-459f-a082-09a19c8c869c",
            "measure_version_modified" : "20170519T182315Z",
            "measure_xml_checksum" : "057E8D9D",
            "started_at" : "20170710T190628Z",
            "stderr" : "",
            "stdout" : "[OpenStudio.Measure] <0> OSArgumentVector is deprecated, use OpenStudio::Measure::OSArgumentVector instead.\n[openstudio.EpwFile] <0> Successive data points (1970-Jan-31 to 1985-Feb-01, ending on line 753) are greater than 1 day apart in EPW file '/usr/local/bundle/bundler/gems/openstudio-standards-f448df66933d/openstudio-standards/data/weather/CAN_PQ_Schefferville.718280_CWEC.epw'. Data will be treated as typical (TMY)\n[openstudio.setFileExtension] <0> Path p, '/usr/local/bundle/bundler/gems/openstudio-standards-f448df66933d/openstudio-standards/data/weather/CAN_PQ_Schefferville.718280_CWEC.ddy', has an unexpected file extension. Was expecting 'idf'.\n[openstudio.model.YearDescription] <1> 'UseWeatherFile' is not yet a supported option for YearDescription\n[openstudio.model.YearDescription] <1> 'UseWeatherFile' is not yet a supported option for YearDescription\n[openstudio.setFileExtension] <0> Path p, '/usr/local/bundle/bundler/gems/openstudio-standards-f448df66933d/openstudio-standards/data/weather/CAN_PQ_Schefferville.718280_CWEC.ddy', has an unexpected file extension. Was expecting 'idf'.\n[openstudio.model.YearDescription] <1> 'UseWeatherFile' is not yet a supported option for YearDescription\n[openstudio.model.YearDescription] <1> 'UseWeatherFile' is not yet a supported option for YearDescription\n[openstudio.EpwFile] <0> Successive data points (1970-Jan-31 to 1985-Feb-01, ending on line 753) are greater than 1 day apart in EPW file '/usr/local/bundle/bundler/gems/openstudio-standards-f448df66933d/openstudio-standards/data/weather/CAN_PQ_Schefferville.718280_CWEC.epw'. Data will be treated as typical (TMY)\n[openstudio.weather.Model] <0> Could not find ground temperatures; will use generic temperatures, which will skew results.\n[openstudio.setFileExtension] <0> Path p, '/usr/local/bundle/bundler/gems/openstudio-standards-f448df66933d/openstudio-standards/data/weather/CAN_PQ_Schefferville.718280_CWEC.ddy', has an unexpected file extension. Was expecting 'idf'.\n[openstudio.model.YearDescription] <1> 'UseWeatherFile' is not yet a supported option for YearDescription\n[openstudio.model.YearDescription] <1> 'UseWeatherFile' is not yet a supported option for YearDescription\n[openstudio.EpwFile] <0> Successive data points (1970-Jan-31 to 1985-Feb-01, ending on line 753) are greater than 1 day apart in EPW file '/usr/local/bundle/bundler/gems/openstudio-standards-f448df66933d/openstudio-standards/data/weather/CAN_PQ_Schefferville.718280_CWEC.epw'. Data will be treated as typical (TMY)\n[openstudio.setFileExtension] <0> Path p, '/usr/local/bundle/bundler/gems/openstudio-standards-f448df66933d/openstudio-standards/data/weather/CAN_PQ_Schefferville.718280_CWEC.ddy', has an unexpected file extension. Was expecting 'idf'.\n[openstudio.model.YearDescription] <1> 'UseWeatherFile' is not yet a supported option for YearDescription\n[openstudio.model.YearDescription] <1> 'UseWeatherFile' is not yet a supported option for YearDescription\n[openstudio.setFileExtension] <0> Path p, '/usr/local/bundle/bundler/gems/openstudio-standards-f448df66933d/openstudio-standards/data/weather/CAN_PQ_Schefferville.718280_CWEC.ddy', has an unexpected file extension. Was expecting 'idf'.\n[openstudio.model.YearDescription] <1> 'UseWeatherFile' is not yet a supported option for YearDescription\n[openstudio.model.YearDescription] <1> 'UseWeatherFile' is not yet a supported option for YearDescription\n[openstudio.EpwFile] <0> Successive data points (1970-Jan-31 to 1985-Feb-01, ending on line 753) are greater than 1 day apart in EPW file '/usr/local/bundle/bundler/gems/openstudio-standards-f448df66933d/openstudio-standards/data/weather/CAN_PQ_Schefferville.718280_CWEC.epw'. Data will be treated as typical (TMY)\n[openstudio.setFileExtension] <0> Path p, '/usr/local/bundle/bundler/gems/openstudio-standards-f448df66933d/openstudio-standards/data/weather/CAN_PQ_Schefferville.718280_CWEC.ddy', has an unexpected file extension. Was expecting 'idf'.\n[openstudio.model.YearDescription] <1> 'UseWeatherFile' is not yet a supported option for YearDescription\n[openstudio.model.YearDescription] <1> 'UseWeatherFile' is not yet a supported option for YearDescription\n[openstudio.setFileExtension] <0> Path p, '/usr/local/bundle/bundler/gems/openstudio-standards-f448df66933d/openstudio-standards/data/weather/CAN_PQ_Schefferville.718280_CWEC.ddy', has an unexpected file extension. Was expecting 'idf'.\n[openstudio.model.YearDescription] <1> 'UseWeatherFile' is not yet a supported option for YearDescription\n[openstudio.model.YearDescription] <1> 'UseWeatherFile' is not yet a supported option for YearDescription\n[utilities.idf.WorkspaceObject] <0> Object of type 'Schedule:Constant' and named 'Always Off Discrete', points to an object named OnOff 1 from field 1, but that object cannot be located.\n[utilities.idf.WorkspaceObject] <0> Object of type 'Schedule:Constant' and named 'Always On Continuous', points to an object named Fractional 1 from field 1, but that object cannot be located.\n[utilities.idf.WorkspaceObject] <0> Object of type 'Schedule:Constant' and named 'Always Off Discrete', points to an object named OnOff 1 from field 1, but that object cannot be located.\n[utilities.idf.WorkspaceObject] <0> Object of type 'Schedule:Constant' and named 'Always On Continuous', points to an object named Fractional 1 from field 1, but that object cannot be located.\n[openstudio.standards.Fan] <0> For Fan Constant Volume 1, there is no greater nominal HP.  Use the efficiency of the largest motor category.\n[openstudio.standards.Fan] <0> For Fan Constant Volume 10, there is no greater nominal HP.  Use the efficiency of the largest motor category.\n[openstudio.standards.Fan] <0> For Fan Constant Volume 2, there is no greater nominal HP.  Use the efficiency of the largest motor category.\n[openstudio.standards.Fan] <0> For Fan Constant Volume 3, there is no greater nominal HP.  Use the efficiency of the largest motor category.\n[openstudio.standards.Fan] <0> For Fan Constant Volume 4, there is no greater nominal HP.  Use the efficiency of the largest motor category.\n[openstudio.standards.Fan] <0> For Fan Constant Volume 5, there is no greater nominal HP.  Use the efficiency of the largest motor category.\n[openstudio.standards.Fan] <0> For Fan Constant Volume 6, there is no greater nominal HP.  Use the efficiency of the largest motor category.\n[openstudio.standards.Fan] <0> For Fan Constant Volume 7, there is no greater nominal HP.  Use the efficiency of the largest motor category.\n[openstudio.standards.Fan] <0> For Fan Constant Volume 8, there is no greater nominal HP.  Use the efficiency of the largest motor category.\n[openstudio.standards.Fan] <0> For Fan Constant Volume 9, there is no greater nominal HP.  Use the efficiency of the largest motor category.\n[openstudio.EpwFile] <0> Successive data points (1970-Jan-31 to 1985-Feb-01, ending on line 753) are greater than 1 day apart in EPW file '/usr/local/bundle/bundler/gems/openstudio-standards-f448df66933d/openstudio-standards/data/weather/CAN_PQ_Schefferville.718280_CWEC.epw'. Data will be treated as typical (TMY)\n[openstudio.setFileExtension] <0> Path p, '/usr/local/bundle/bundler/gems/openstudio-standards-f448df66933d/openstudio-standards/data/weather/CAN_PQ_Schefferville.718280_CWEC.ddy', has an unexpected file extension. Was expecting 'idf'.\n[openstudio.model.YearDescription] <1> 'UseWeatherFile' is not yet a supported option for YearDescription\n[openstudio.model.YearDescription] <1> 'UseWeatherFile' is not yet a supported option for YearDescription\n[openstudio.setFileExtension] <0> Path p, '/usr/local/bundle/bundler/gems/openstudio-standards-f448df66933d/openstudio-standards/data/weather/CAN_PQ_Schefferville.718280_CWEC.ddy', has an unexpected file extension. Was expecting 'idf'.\n[openstudio.model.YearDescription] <1> 'UseWeatherFile' is not yet a supported option for YearDescription\n[openstudio.model.YearDescription] <1> 'UseWeatherFile' is not yet a supported option for YearDescription\n[openstudio.EpwFile] <0> Successive data points (1970-Jan-31 to 1985-Feb-01, ending on line 753) are greater than 1 day apart in EPW file '/usr/local/bundle/bundler/gems/openstudio-standards-f448df66933d/openstudio-standards/data/weather/CAN_PQ_Schefferville.718280_CWEC.epw'. Data will be treated as typical (TMY)\n[openstudio.setFileExtension] <0> Path p, '/usr/local/bundle/bundler/gems/openstudio-standards-f448df66933d/openstudio-standards/data/weather/CAN_PQ_Schefferville.718280_CWEC.ddy', has an unexpected file extension. Was expecting 'idf'.\n[openstudio.model.YearDescription] <1> 'UseWeatherFile' is not yet a supported option for YearDescription\n[openstudio.model.YearDescription] <1> 'UseWeatherFile' is not yet a supported option for YearDescription\n[openstudio.setFileExtension] <0> Path p, '/usr/local/bundle/bundler/gems/openstudio-standards-f448df66933d/openstudio-standards/data/weather/CAN_PQ_Schefferville.718280_CWEC.ddy', has an unexpected file extension. Was expecting 'idf'.\n[openstudio.model.YearDescription] <1> 'UseWeatherFile' is not yet a supported option for YearDescription\n[openstudio.model.YearDescription] <1> 'UseWeatherFile' is not yet a supported option for YearDescription\n[openstudio.EpwFile] <0> Successive data points (1970-Jan-31 to 1985-Feb-01, ending on line 753) are greater than 1 day apart in EPW file '/usr/local/bundle/bundler/gems/openstudio-standards-f448df66933d/openstudio-standards/data/weather/CAN_PQ_Schefferville.718280_CWEC.epw'. Data will be treated as typical (TMY)\n[openstudio.setFileExtension] <0> Path p, '/usr/local/bundle/bundler/gems/openstudio-standards-f448df66933d/openstudio-standards/data/weather/CAN_PQ_Schefferville.718280_CWEC.ddy', has an unexpected file extension. Was expecting 'idf'.\n[openstudio.model.YearDescription] <1> 'UseWeatherFile' is not yet a supported option for YearDescription\n[openstudio.model.YearDescription] <1> 'UseWeatherFile' is not yet a supported option for YearDescription\n[openstudio.setFileExtension] <0> Path p, '/usr/local/bundle/bundler/gems/openstudio-standards-f448df66933d/openstudio-standards/data/weather/CAN_PQ_Schefferville.718280_CWEC.ddy', has an unexpected file extension. Was expecting 'idf'.\n[openstudio.model.YearDescription] <1> 'UseWeatherFile' is not yet a supported option for YearDescription\n[openstudio.model.YearDescription] <1> 'UseWeatherFile' is not yet a supported option for YearDescription\n[openstudio.EpwFile] <0> Successive data points (1970-Jan-31 to 1985-Feb-01, ending on line 753) are greater than 1 day apart in EPW file '/usr/local/bundle/bundler/gems/openstudio-standards-f448df66933d/openstudio-standards/data/weather/CAN_PQ_Schefferville.718280_CWEC.epw'. Data will be treated as typical (TMY)\n[openstudio.setFileExtension] <0> Path p, '/usr/local/bundle/bundler/gems/openstudio-standards-f448df66933d/openstudio-standards/data/weather/CAN_PQ_Schefferville.718280_CWEC.ddy', has an unexpected file extension. Was expecting 'idf'.\n[openstudio.model.YearDescription] <1> 'UseWeatherFile' is not yet a supported option for YearDescription\n[openstudio.model.YearDescription] <1> 'UseWeatherFile' is not yet a supported option for YearDescription\n[openstudio.setFileExtension] <0> Path p, '/usr/local/bundle/bundler/gems/openstudio-standards-f448df66933d/openstudio-standards/data/weather/CAN_PQ_Schefferville.718280_CWEC.ddy', has an unexpected file extension. Was expecting 'idf'.\n[openstudio.model.YearDescription] <1> 'UseWeatherFile' is not yet a supported option for YearDescription\n[openstudio.model.YearDescription] <1> 'UseWeatherFile' is not yet a supported option for YearDescription\n[openstudio.EpwFile] <0> Successive data points (1970-Jan-31 to 1985-Feb-01, ending on line 753) are greater than 1 day apart in EPW file '/usr/local/bundle/bundler/gems/openstudio-standards-f448df66933d/openstudio-standards/data/weather/CAN_PQ_Schefferville.718280_CWEC.epw'. Data will be treated as typical (TMY)\n[openstudio.setFileExtension] <0> Path p, '/usr/local/bundle/bundler/gems/openstudio-standards-f448df66933d/openstudio-standards/data/weather/CAN_PQ_Schefferville.718280_CWEC.ddy', has an unexpected file extension. Was expecting 'idf'.\n[openstudio.model.YearDescription] <1> 'UseWeatherFile' is not yet a supported option for YearDescription\n[openstudio.model.YearDescription] <1> 'UseWeatherFile' is not yet a supported option for YearDescription\n[openstudio.setFileExtension] <0> Path p, '/usr/local/bundle/bundler/gems/openstudio-standards-f448df66933d/openstudio-standards/data/weather/CAN_PQ_Schefferville.718280_CWEC.ddy', has an unexpected file extension. Was expecting 'idf'.\n[openstudio.model.YearDescription] <1> 'UseWeatherFile' is not yet a supported option for YearDescription\n[openstudio.model.YearDescription] <1> 'UseWeatherFile' is not yet a supported option for YearDescription\n[openstudio.EpwFile] <0> Successive data points (1970-Jan-31 to 1985-Feb-01, ending on line 753) are greater than 1 day apart in EPW file '/usr/local/bundle/bundler/gems/openstudio-standards-f448df66933d/openstudio-standards/data/weather/CAN_PQ_Schefferville.718280_CWEC.epw'. Data will be treated as typical (TMY)\n[openstudio.setFileExtension] <0> Path p, '/usr/local/bundle/bundler/gems/openstudio-standards-f448df66933d/openstudio-standards/data/weather/CAN_PQ_Schefferville.718280_CWEC.ddy', has an unexpected file extension. Was expecting 'idf'.\n[openstudio.model.YearDescription] <1> 'UseWeatherFile' is not yet a supported option for YearDescription\n[openstudio.model.YearDescription] <1> 'UseWeatherFile' is not yet a supported option for YearDescription\n[openstudio.setFileExtension] <0> Path p, '/usr/local/bundle/bundler/gems/openstudio-standards-f448df66933d/openstudio-standards/data/weather/CAN_PQ_Schefferville.718280_CWEC.ddy', has an unexpected file extension. Was expecting 'idf'.\n[openstudio.model.YearDescription] <1> 'UseWeatherFile' is not yet a supported option for YearDescription\n[openstudio.model.YearDescription] <1> 'UseWeatherFile' is not yet a supported option for YearDescription\n[openstudio.EpwFile] <0> Successive data points (1970-Jan-31 to 1985-Feb-01, ending on line 753) are greater than 1 day apart in EPW file '/usr/local/bundle/bundler/gems/openstudio-standards-f448df66933d/openstudio-standards/data/weather/CAN_PQ_Schefferville.718280_CWEC.epw'. Data will be treated as typical (TMY)\n[openstudio.setFileExtension] <0> Path p, '/usr/local/bundle/bundler/gems/openstudio-standards-f448df66933d/openstudio-standards/data/weather/CAN_PQ_Schefferville.718280_CWEC.ddy', has an unexpected file extension. Was expecting 'idf'.\n[openstudio.model.YearDescription] <1> 'UseWeatherFile' is not yet a supported option for YearDescription\n[openstudio.model.YearDescription] <1> 'UseWeatherFile' is not yet a supported option for YearDescription\n[openstudio.setFileExtension] <0> Path p, '/usr/local/bundle/bundler/gems/openstudio-standards-f448df66933d/openstudio-standards/data/weather/CAN_PQ_Schefferville.718280_CWEC.ddy', has an unexpected file extension. Was expecting 'idf'.\n[openstudio.model.YearDescription] <1> 'UseWeatherFile' is not yet a supported option for YearDescription\n[openstudio.model.YearDescription] <1> 'UseWeatherFile' is not yet a supported option for YearDescription\n[openstudio.EpwFile] <0> Successive data points (1970-Jan-31 to 1985-Feb-01, ending on line 753) are greater than 1 day apart in EPW file '/usr/local/bundle/bundler/gems/openstudio-standards-f448df66933d/openstudio-standards/data/weather/CAN_PQ_Schefferville.718280_CWEC.epw'. Data will be treated as typical (TMY)\n[openstudio.setFileExtension] <0> Path p, '/usr/local/bundle/bundler/gems/openstudio-standards-f448df66933d/openstudio-standards/data/weather/CAN_PQ_Schefferville.718280_CWEC.ddy', has an unexpected file extension. Was expecting 'idf'.\n[openstudio.model.YearDescription] <1> 'UseWeatherFile' is not yet a supported option for YearDescription\n[openstudio.model.YearDescription] <1> 'UseWeatherFile' is not yet a supported option for YearDescription\n[openstudio.setFileExtension] <0> Path p, '/usr/local/bundle/bundler/gems/openstudio-standards-f448df66933d/openstudio-standards/data/weather/CAN_PQ_Schefferville.718280_CWEC.ddy', has an unexpected file extension. Was expecting 'idf'.\n[openstudio.model.YearDescription] <1> 'UseWeatherFile' is not yet a supported option for YearDescription\n[openstudio.model.YearDescription] <1> 'UseWeatherFile' is not yet a supported option for YearDescription\n[openstudio.EpwFile] <0> Successive data points (1970-Jan-31 to 1985-Feb-01, ending on line 753) are greater than 1 day apart in EPW file '/usr/local/bundle/bundler/gems/openstudio-standards-f448df66933d/openstudio-standards/data/weather/CAN_PQ_Schefferville.718280_CWEC.epw'. Data will be treated as typical (TMY)\n[openstudio.setFileExtension] <0> Path p, '/usr/local/bundle/bundler/gems/openstudio-standards-f448df66933d/openstudio-standards/data/weather/CAN_PQ_Schefferville.718280_CWEC.ddy', has an unexpected file extension. Was expecting 'idf'.\n[openstudio.model.YearDescription] <1> 'UseWeatherFile' is not yet a supported option for YearDescription\n[openstudio.model.YearDescription] <1> 'UseWeatherFile' is not yet a supported option for YearDescription\n[openstudio.setFileExtension] <0> Path p, '/usr/local/bundle/bundler/gems/openstudio-standards-f448df66933d/openstudio-standards/data/weather/CAN_PQ_Schefferville.718280_CWEC.ddy', has an unexpected file extension. Was expecting 'idf'.\n[openstudio.model.YearDescription] <1> 'UseWeatherFile' is not yet a supported option for YearDescription\n[openstudio.model.YearDescription] <1> 'UseWeatherFile' is not yet a supported option for YearDescription\n[openstudio.EpwFile] <0> Successive data points (1970-Jan-31 to 1985-Feb-01, ending on line 753) are greater than 1 day apart in EPW file '/usr/local/bundle/bundler/gems/openstudio-standards-f448df66933d/openstudio-standards/data/weather/CAN_PQ_Schefferville.718280_CWEC.epw'. Data will be treated as typical (TMY)\n[openstudio.setFileExtension] <0> Path p, '/usr/local/bundle/bundler/gems/openstudio-standards-f448df66933d/openstudio-standards/data/weather/CAN_PQ_Schefferville.718280_CWEC.ddy', has an unexpected file extension. Was expecting 'idf'.\n[openstudio.model.YearDescription] <1> 'UseWeatherFile' is not yet a supported option for YearDescription\n[openstudio.model.YearDescription] <1> 'UseWeatherFile' is not yet a supported option for YearDescription\n[openstudio.setFileExtension] <0> Path p, '/usr/local/bundle/bundler/gems/openstudio-standards-f448df66933d/openstudio-standards/data/weather/CAN_PQ_Schefferville.718280_CWEC.ddy', has an unexpected file extension. Was expecting 'idf'.\n[openstudio.model.YearDescription] <1> 'UseWeatherFile' is not yet a supported option for YearDescription\n[openstudio.model.YearDescription] <1> 'UseWeatherFile' is not yet a supported option for YearDescription\n[openstudio.standards.Fan] <0> For Fan Constant Volume 1, there is no greater nominal HP.  Use the efficiency of the largest motor category.\n[openstudio.standards.Fan] <0> For Fan Constant Volume 10, there is no greater nominal HP.  Use the efficiency of the largest motor category.\n[openstudio.standards.Fan] <0> For Fan Constant Volume 2, there is no greater nominal HP.  Use the efficiency of the largest motor category.\n[openstudio.standards.Fan] <0> For Fan Constant Volume 3, there is no greater nominal HP.  Use the efficiency of the largest motor category.\n[openstudio.standards.Fan] <0> For Fan Constant Volume 4, there is no greater nominal HP.  Use the efficiency of the largest motor category.\n[openstudio.standards.Fan] <0> For Fan Constant Volume 5, there is no greater nominal HP.  Use the efficiency of the largest motor category.\n[openstudio.standards.Fan] <0> For Fan Constant Volume 6, there is no greater nominal HP.  Use the efficiency of the largest motor category.\n[openstudio.standards.Fan] <0> For Fan Constant Volume 7, there is no greater nominal HP.  Use the efficiency of the largest motor category.\n[openstudio.standards.Fan] <0> For Fan Constant Volume 8, there is no greater nominal HP.  Use the efficiency of the largest motor category.\n[openstudio.standards.Fan] <0> For Fan Constant Volume 9, there is no greater nominal HP.  Use the efficiency of the largest motor category.\n",
            "step_errors" : [],
            "step_files" : [],
            "step_info" : [
               "Started adding geometry",
               "Finished adding geometry",
               "Started adding weather file for climate zone: NECB HDD Method.",
               "Template =",
               "Setting LGstore1 to Space Function.Retail - sales",
               "Setting LGstore2 to Space Function.Retail - sales",
               "Setting SMstore1 to Space Function.Retail - sales",
               "Setting SMstore2 to Space Function.Retail - sales",
               "Setting SMstore3 to Space Function.Retail - sales",
               "Setting SMstore4 to Space Function.Retail - sales",
               "Setting SMstore5 to Space Function.Retail - sales",
               "Setting SMstore6 to Space Function.Retail - sales",
               "Setting SMstore7 to Space Function.Retail - sales",
               "Setting SMstore8 to Space Function.Retail - sales",
               "Started applying space types (loads)",
               "Space Function Retail - sales had no people, one has been created.",
               "Space Function Retail - sales set occupancy to 3.1 people/1000 ft^2.",
               "Space Function Retail - sales had no lights, one has been created.",
               "Space Function Retail - sales set LPD to 1.681531029 W/ft^2.",
               "Space Function Retail - sales had no electric equipment, one has been created.",
               "Space Function Retail - sales set electric EPD to 0.232255667 W/ft^2.",
               "Space Function Retail - sales had no ventilation specification, one has been created.",
               "Space Function Retail - sales set ventilation per area to 0.233 cfm/ft^2.",
               "Space Function Retail - sales had no infiltration objects, one has been created.",
               "Space Function Retail - sales set infiltration to 0.0 per ft^2 exterior surface area.",
               "Space Function Retail - sales set occupancy schedule to NECB-C-Occupancy.",
               "Space Function Retail - sales set occupant activity schedule to NECB-Activity.",
               "Space Function Retail - sales set lighting schedule to NECB-C-Lighting.",
               "Space Function Retail - sales set electric equipment schedule to NECB-C-Electric-Equipment.",
               "Space Function Retail - sales set infiltration schedule to Always On.",
               "Space Function Retail - sales set heating setpoint schedule to NECB-C-Thermostat Setpoint-Heating.",
               "Space Function Retail - sales set cooling setpoint schedule to NECB-C-Thermostat Setpoint-Cooling.",
               "Finished applying space types (loads)",
               "Started applying constructions",
               "Adding construction set: NECB 2011-NECB HDD Method-StripMall--is_residentialNo",
               "Adding construction Typical Insulated Exterior Mass Floor R-15.63.",
               "Adding construction Typical Insulated Exterior Mass Wall R-12.5.",
               "Adding construction Typical Insulated Metal Building Roof R-20.41.",
               "Adding construction Typical Interior Floor.",
               "Adding construction Typical Interior Wall.",
               "Adding construction Typical Interior Ceiling.",
               "Adding construction Typical Insulated Carpeted 6in Slab Floor.",
               "Adding construction U 0.55 SHGC 0.31 Dbl Ref-D Tint 6mm/6mm Air.",
               "Adding construction Typical Insulated Metal Door R-1.43.",
               "Adding construction U 0.35 SHGC 0.35 Dbl LoE (e2-.1) Tint 6mm/13mm Air.",
               "Adding construction Typical Overhead Door R-2.0.",
               "Adding construction U 0.48 SHGC 0.40 Dbl Ref-D Clr 6mm/13mm.",
               "Adding construction Typical Interior Window.",
               "Adding construction Typical Interior Door.",
               "Adding construction Typical Interior Partition.",
               "Finished applying constructions",
               "WWR NonRes = 0%; window = 0 ft2, wall = 0 ft2.",
               "WWR Res = 0%; window = 0 ft2, wall = 0 ft2.",
               "WWR Semiheated = 0%; window = 0 ft2, wall = 0 ft2.",
               "The skylight to roof ratios (SRRs) are: NonRes: 0%, Res: 0%.",
               "Started creating thermal zones",
               "Finished creating thermal zones",
               "Running simulation /mnt/openstudio/analysis_4fef0e0f-5396-4c55-a6e1-2cd6803db3ab/data_point_466328c5-e8f2-4989-99b2-dbe341ea4e66/run/000_create_prototype_building/output/RetailStripmall-NECB 2011-NECB HDD Method-CAN_PQ_Schefferville.718280_CWEC.epw/SR0.",
               "Finished run.",
               "Started Adding HVAC",
               "Finished adding HVAC",
               "Started Adding Service Water Heating",
               "Adding service water loop.",
               "Adding water heater.",
               "Template =",
               "Finished adding Service Water Heating",
               "Set sizing factors to 1.3 for heating and 1.3 for cooling.",
               "Running simulation /mnt/openstudio/analysis_4fef0e0f-5396-4c55-a6e1-2cd6803db3ab/data_point_466328c5-e8f2-4989-99b2-dbe341ea4e66/run/000_create_prototype_building/output/RetailStripmall-NECB 2011-NECB HDD Method-CAN_PQ_Schefferville.718280_CWEC.epw/SR1.",
               "Finished run.",
               "Started applying multizone vav OA sizing.",
               "Finished applying multizone vav OA sizing.",
               "Started applying prototype HVAC assumptions.",
               "For Fan Constant Volume 1: allowed_hp = 1.67HP; motor eff = 61.5%; total fan eff = 40% based on 2439 cfm.",
               "For Fan Constant Volume 10: allowed_hp = 1.68HP; motor eff = 61.5%; total fan eff = 40% based on 2456 cfm.",
               "For Fan Constant Volume 2: allowed_hp = 1.01HP; motor eff = 61.5%; total fan eff = 40% based on 1252 cfm.",
               "For Fan Constant Volume 3: allowed_hp = 1.01HP; motor eff = 61.5%; total fan eff = 40% based on 1279 cfm.",
               "For Fan Constant Volume 4: allowed_hp = 1.01HP; motor eff = 61.5%; total fan eff = 40% based on 1252 cfm.",
               "For Fan Constant Volume 5: allowed_hp = 1.01HP; motor eff = 61.5%; total fan eff = 40% based on 1252 cfm.",
               "For Fan Constant Volume 6: allowed_hp = 1.01HP; motor eff = 61.5%; total fan eff = 40% based on 1251 cfm.",
               "For Fan Constant Volume 7: allowed_hp = 1.01HP; motor eff = 61.5%; total fan eff = 40% based on 1276 cfm.",
               "For Fan Constant Volume 8: allowed_hp = 1.01HP; motor eff = 61.5%; total fan eff = 40% based on 1276 cfm.",
               "For Fan Constant Volume 9: allowed_hp = 1.01HP; motor eff = 61.5%; total fan eff = 40% based on 1259 cfm.",
               "Sp-SMstore5 Sys-3 Flr-1 Sch-C HPlcmt-north ZN NECB System 3 PSZ does not require an economizer because the total cooling capacity of 34007 Btu/hr is less than the minimum capacity of 68243 Btu/hr.",
               "Sp-SMstore1 Sys-3 Flr-1 Sch-C HPlcmt-north ZN NECB System 3 PSZ does not require an economizer because the total cooling capacity of 34106 Btu/hr is less than the minimum capacity of 68243 Btu/hr.",
               "Sp-SMstore8 Sys-3 Flr-1 Sch-C HPlcmt-east ZN NECB System 3 PSZ does not require an economizer because the total cooling capacity of 33554 Btu/hr is less than the minimum capacity of 68243 Btu/hr.",
               "Sp-SMstore4 Sys-3 Flr-1 Sch-C HPlcmt-north ZN NECB System 3 PSZ does not require an economizer because the total cooling capacity of 34006 Btu/hr is less than the minimum capacity of 68243 Btu/hr.",
               "Sp-SMstore3 Sys-3 Flr-1 Sch-C HPlcmt-north ZN NECB System 3 PSZ does not require an economizer because the total cooling capacity of 33360 Btu/hr is less than the minimum capacity of 68243 Btu/hr.",
               "Sp-LGstore2 Sys-3 Flr-1 Sch-C HPlcmt-north ZN NECB System 3 PSZ does not require an economizer because the total cooling capacity of 65020 Btu/hr is less than the minimum capacity of 68243 Btu/hr.",
               "Sp-SMstore2 Sys-3 Flr-1 Sch-C HPlcmt-north ZN NECB System 3 PSZ does not require an economizer because the total cooling capacity of 33371 Btu/hr is less than the minimum capacity of 68243 Btu/hr.",
               "Sp-SMstore6 Sys-3 Flr-1 Sch-C HPlcmt-north ZN NECB System 3 PSZ does not require an economizer because the total cooling capacity of 33364 Btu/hr is less than the minimum capacity of 68243 Btu/hr.",
               "Sp-LGstore1 Sys-3 Flr-1 Sch-C HPlcmt-west ZN NECB System 3 PSZ does not require an economizer because the total cooling capacity of 65476 Btu/hr is less than the minimum capacity of 68243 Btu/hr.",
               "Sp-SMstore7 Sys-3 Flr-1 Sch-C HPlcmt-north ZN NECB System 3 PSZ does not require an economizer because the total cooling capacity of 33381 Btu/hr is less than the minimum capacity of 68243 Btu/hr.",
               "Finished applying prototype HVAC assumptions.",
               "Started applying HVAC efficiency standards.",
               "For Sp-LGstore1 Sys-3 Flr-1 Sch-C HPlcmt-west ZN NECB System 3 PSZ, ERV not required based on 0% OA flow, design supply air flow of 2456cfm, and climate zone NECB HDD Method.",
               "For Sp-LGstore1 Sys-3 Flr-1 Sch-C HPlcmt-west ZN NECB System 3 PSZ, ERV not required based on exhaust heat content.",
               "For NECB 2011 NECB HDD Method:  Sp-LGstore1 Sys-3 Flr-1 Sch-C HPlcmt-west ZN NECB System 3 PSZ: DCV is not required for any system.",
               "For Sp-LGstore1 Sys-3 Flr-1 Sch-C HPlcmt-west ZN NECB System 3 PSZ: Annual occupied hours = 4168 hr/yr, assuming a 0.15 occupancy threshold.  This schedule will be used as the HVAC operation schedule.",
               "For Sp-LGstore1 Sys-3 Flr-1 Sch-C HPlcmt-west ZN NECB System 3 PSZ: Setting motorized OA damper schedule to Sp-LGstore1 Sys-3 Flr-1 Sch-C HPlcmt-west ZN NECB System 3 PSZ Occ Sch.",
               "For Sp-LGstore2 Sys-3 Flr-1 Sch-C HPlcmt-north ZN NECB System 3 PSZ, ERV not required based on 0% OA flow, design supply air flow of 2439cfm, and climate zone NECB HDD Method.",
               "For Sp-LGstore2 Sys-3 Flr-1 Sch-C HPlcmt-north ZN NECB System 3 PSZ, ERV not required based on exhaust heat content.",
               "For NECB 2011 NECB HDD Method:  Sp-LGstore2 Sys-3 Flr-1 Sch-C HPlcmt-north ZN NECB System 3 PSZ: DCV is not required for any system.",
               "For Sp-LGstore2 Sys-3 Flr-1 Sch-C HPlcmt-north ZN NECB System 3 PSZ: Annual occupied hours = 4168 hr/yr, assuming a 0.15 occupancy threshold.  This schedule will be used as the HVAC operation schedule.",
               "For Sp-LGstore2 Sys-3 Flr-1 Sch-C HPlcmt-north ZN NECB System 3 PSZ: Setting motorized OA damper schedule to Sp-LGstore2 Sys-3 Flr-1 Sch-C HPlcmt-north ZN NECB System 3 PSZ Occ Sch.",
               "For Sp-SMstore1 Sys-3 Flr-1 Sch-C HPlcmt-north ZN NECB System 3 PSZ, ERV not required based on 0% OA flow, design supply air flow of 1279cfm, and climate zone NECB HDD Method.",
               "For Sp-SMstore1 Sys-3 Flr-1 Sch-C HPlcmt-north ZN NECB System 3 PSZ, ERV not required based on exhaust heat content.",
               "For NECB 2011 NECB HDD Method:  Sp-SMstore1 Sys-3 Flr-1 Sch-C HPlcmt-north ZN NECB System 3 PSZ: DCV is not required for any system.",
               "For Sp-SMstore1 Sys-3 Flr-1 Sch-C HPlcmt-north ZN NECB System 3 PSZ: Annual occupied hours = 4168 hr/yr, assuming a 0.15 occupancy threshold.  This schedule will be used as the HVAC operation schedule.",
               "For Sp-SMstore1 Sys-3 Flr-1 Sch-C HPlcmt-north ZN NECB System 3 PSZ: Setting motorized OA damper schedule to Sp-SMstore1 Sys-3 Flr-1 Sch-C HPlcmt-north ZN NECB System 3 PSZ Occ Sch.",
               "For Sp-SMstore2 Sys-3 Flr-1 Sch-C HPlcmt-north ZN NECB System 3 PSZ, ERV not required based on 0% OA flow, design supply air flow of 1252cfm, and climate zone NECB HDD Method.",
               "For Sp-SMstore2 Sys-3 Flr-1 Sch-C HPlcmt-north ZN NECB System 3 PSZ, ERV not required based on exhaust heat content.",
               "For NECB 2011 NECB HDD Method:  Sp-SMstore2 Sys-3 Flr-1 Sch-C HPlcmt-north ZN NECB System 3 PSZ: DCV is not required for any system.",
[...]
nMZ6pbzyHVn1bNXiJVoACbk3YBJyZ8Ak5L6ASci2CiYh2yqYhGyrYBKyrYJJyLYKJlFiq3Aa8nKL05BtFU5DtlU4DdlW4TRkW4XTkG0VTkO2VTgN2VbhNGRbhat/W5jnJbYKp7GFQl5iq3Aa65XyyleR1LNVi3eVACTk3oBJyJ0Bk5D7AiYh2yqYhGyrYBKyrYJJyLYKJiHbKphEia3CacjLLU5DtlU4DdlW4TRkW4XTkG0VTkO2VTgN2VbhNGRbhdOQbRWu/m1hnpfYKpzGFgp5ia3CaaxXyit3fK9nqxZbwgMk5N6AScidAZOQ+wImIdsqmIRsq2ASsq2CSci2CiYh2yqYRImtwmnIyy1OQ7ZVOA3ZVuE0ZFuF05BtFU5DtlU4DdlW4TRkW4XTkG0Vrv5tYZ6X2CqcxhYKeYmtwmmsV8orN9atZ6sWO+8CJOTegEnInQGTkPsCJiHbKpiEbKtgErKtgknItgomIdsqmESJrcJpyMstTkO2VTgN2VbhNGRbhdOQbRVOQ7ZVOA3ZVuE0ZFuF05BtFa7+bWGel9gqnMYWCnmJrcJprFfKK/cvrGerFhscAiTk3oBJyJ0Bk5D7AiYh2yqYhGyrYBKyrYJJyLYKJiHbKphE6WZrKA15ucVplG1khdIo2+MKpVG2/RVKo2zPN5RG2XZwKI2yneJQGmWbyKE0yvaXQ9W/Lczz0l3pUBpbKOQltgqnUV3KP9fZ4XW5dbM6VZG+W20gW+wb20hvx81iB9jKrWJX+z+nOnsRzyI/bfQ7TeW6/abqmb91+/W2m73PMR62tfb9gZfpcZzMn98H6WL/5If7r7HJdJ7gfeLr5OPMbGdc+0LDMX/M8VZ76SzRCwyzI/Oy3Te8wTfDDDPMMMMMM8wwwwwzzDDDDDPMMMMMM8wwwwwzzDDDDDPMMMMMM8wwwwwzzDDDDDPMMMMMM8wwwwwzzDDDDDPMMMMMM8www3+p8Lwd3+okCXz91jMP1rrtzv/5vKp5NDZ9/GjsuU4CnS4fr3WaqweIp2GctcMg0pWPyKY/ek63+snatF28en4ah14WxFEO5aSZnrau9ChOtFPvyec3eqwj//ENLc41DjpN1TNPLnfMg8zmDyfUo8yAVaRepW1fjnV2FmWmfXKJ0SwaFqSNXfVnRYoVoX64+qLyWW5zBCPVyCZB2k6LXqknZI5vLmrn7XfmDSeN/wLbZlvhm0fHc/Zl3stpnAYm4cv8dJ27WR0mzQ+okvjODmmFFUS+NvOh5TYtr14d1+teOAp0aMZbY9mmi3kyTuLZVPvq55/V35bn79uXEy9dPv9uJtjut9H5D6N5g7S98fiV0WiHOhpnE/VMddU/lfM8DB118vgTaRgMdaPl7l50Pu9Wzrfv7iROVOM6v5XOL+o6l1kO1aWuOff3fMWx7yBzmGG8zHdx/bn9Rc/V6enpovHWy1hkXXb7te2tro6rRHtf1rn4q+U1tp837bW8u1MzrM1gWI6UYiOH9qWXpsE40v7AbBGRXhQt+Xm9plx19HSWThrr9kXepSeL/lx/JoXhSZ27bJtPrquSZkn8RdfTWXx2XaV46g2DbF5Pavnhte+qkFhJrZtltZA8XlbWmR7Wi485VtP58cKjWsq1zWYz3eqzfm0WVbXW579WeQpz7O2pD79/Uv9+//tHdf7+46ff3v2q3rz/9beBen328axeglf5qq3vPWPRVBarNE4yFc1u8nEwVMWWJqny0mFuXoJoXCPjqu1Nnm8qs9dUV/UXl0RnsyRSUy9J9asw9rKGZ5b83bwrvzl3VZyr1ZjVFu0b2eUtVCX+utmdXh78ZzHdi8ne2PH1yJuFmZomcb6G6Z2m2vnp6GgwODvb2fDGM8QhDnGIQxziEIc4xCEOcYjz18RR6ewm/yew8rU5qXxvbogS7ZOGNKQhDWlIQxrSkIY0pCENacpp7or/mvU/NFfhTBOHOMQhDnGIQxziEIc4xCEOcdbBeXhvoGveG3g+k94b2HOLX9ieP9/fPz4mKUlJSlKSkpSkJCUpSUlKUpKSlKRPg7RbkHqZRNopSHu9bvfogKQkJSlJSUpSkpKUpCQlKUlJSlKSPg3SniF9lQQCafe4IHXdw8Nej6QkJSlJSUpSkpKUpCQlKUlJSlKSPg3SfUP6aTKTSI8K0uP86L8gKUlJSlKSkpSkJCUpSUlKUpKSlKRPg7RvSP+lfYn0sCB9+XIwODwkKUlJSlKSkpSkJCUpSUlKUpKSlKRPg/Sg+GZipiXSg4J0MDg4IClJSUpSkpKUpCQlKUlJSlKSkpSkT4X00JC+jaWdBbv9gvToqNvt90lKUpKSlKQkJSlJSUpSkpKUpCQl6dZIVyh+4t01KpPdt7MgC/X5xJvqdqbvs8bO63iWpNUY8++vfBnc6CgN4ijUaZGhIsXennru+8pTRSZ1F2QTlcY3Wvm9iivT23Hbm0515Dcco+3sVlywOtpeliUN595pqoOO5UXz/KJu/YvSbB7qBV7Li4aTOMmvd0I9sqBd5hjFUda608F4kpkcV3Ho18+x6Jvzaev8bZrFid5X5/O01VOvwqTlqvPhpDVQrz+Ew5usFcVJ3gV/vFPvzgYvzMcyfaN66sP5H+r9cGg+u7Nb1qnP9tJhEkyzf4ifebbnB7c/DovXyMnyXCrwT52hGfGDvJG8INLJZb/vqKLlTh0/SKehNz8JojAPta7CePjlF0fmy5MubkFl82l+vWm8vWvv1lucLb3SHLdeYganOlV+cDMNdTvSd+e344bz0/eMTbXf6RR/VE42k9b3Mi/Pe/GnE3pXOnROHF+PvFmYqWkSj4JQO81F5PLeOXHbnaZz64Uzvfz70KxJ+TX5MjMYnJ05X5u18nRBeXqgPPugPH1QngNQnkNQniNQnmNQHreDSoQa0S5qSLuoMe2iBrWLGtUuali7qHHtoga2ixrZXdTI7sLWatTI7qJGdtdqZKt0dnPz6CXVtSpaon2LNGIb2aURW8gujdg+dmnEeW+XRpz1dmnEOW+XRpzxdmnE+W6XRi5klnlA41guY5Z5QCNZLmKWeUBjWS5hlnlAo1kuYJZ5QONZLl+WeVDrMmg8y7XLMk/98XwXRJl92boyp+rnEZvHMo/YPJZ5xOaxzCNOd8s84nS3zCNOd8s84nS3zCNOd8s8cv2yTYQa0XIFs02EGtNyDbNNhBrVchWzTYQa13Ids02EGtlyJbNNBFurUSNbLma2ieqP7IdfLSrfKiyVuc6jf+gtXjsMkOhuXqK3eYn9zUv0Ny9xsHmJw81LHG1e4njzEo8q+6Y0tjC/S76YxWnI32zhNOQvvXAa8je9OA35S2Cchvz9ME5D/uoYpyF/q4yrf1uY591t1PEtFPLuFip5d71SXvnyxnq2avF2R4CE3BswCbkzYBJyX8AkZFsFk5BtFUxCtlUwCdlWwSRkWwWTKPnlGqch//SH05BtFU5DtlU4DdlW4TRkW4XTkG0VTkO2VTgN2VbhNGRbhat/W5jnJT/x4zS2UMhLbBVOY71SXvmOrHq2avESLYCE3BswCbkzYBJyX8AkZFsFk5BtFUxCtlUwCdlWwSRkWwWTKLFVOA15ucVpyLYKpyHbKpyGbKtwGrKtwmnItgqnIdsqnIZsq3Aasq3C1b8tzPMSW4XT2EIhL7FVOI31Snnlq0jq2arFu0oAEnJvwCTkzoBJyH0Bk5BtFUxCtlUwCdlWwSRkWwWTkG0VTKLEVuE05OUWpyHbKpyGbKtwGrKtwmnItgqnIdsqnIZsq3Aasq3Caci2Clf/tjDPS2wVTmMLhbzEVuE01ivllTu+17NViy3hARJyb8Ak5M6ASch9AZOQbRVMQrZVMAnZVsEkZFsFk5BtFUyixFbhNOTlFqch2yqchmyrcBqyrcJpyLYKpyHbKpyGbKtwGrKtwmnItgpX/7Ywz0tsFU5jC4W8xFbhNNYr5ZUb69azVYuddwEScm/AJOTOgEnIfQGTkG0VTEK2VTAJ2VbBJGRbBZOQbRVMosRW4TTk5RanIdsqnIZsq3Aasq3Caci2Cqch2yqchmyrcBqyrcJpyLYKV/+2MM9LbBVOYwuFvMRW4TTWK+WV+xfWs1WLDQ4BEnJvwCTkzoBJyH0Bk5BtFUxCtlUwCdlWwSRkWwWTkG0VTKJ0szWUhrzc4jTKNrJCaZTtcYXSKNv+CqVRtucbSqNsOziURtlOcSiNsk3kUBpl+8uh6t8W5nnprnQojS0U8hJbhdOoLuWf6+zwuty6WZ2qSN+tNpAt9o1tpLfjZrEDbOVWsav9n1OdvYhnkZ82+p2mct1+U/XM37r9etvN3ucYD9ta+/7Ay/Q4TubP74N0sX/yw/3X2GQ6T/A+8XXycWa2M659oeGYP+Z4q710lugFhtmRednuG97gm2GGGWaYYYYZZphhhhlmmGGGGWaYYYYZZphhhhlmmGGGGWaYYYYZZphhhhlmmGGGGWaYYYYZZphhhhlmmGGGGWaYYYYZZpjhv1R43o5vdZIEvn7rmQdr3Xbn/3xe1Twamz5+NPZcJ4FOl4/XOs3VA8TTMM7aYRDpykdk0x89p1v9ZG3aLl49P41DLwviKIdy0kxPW1d6FCfaqffk8xs91pH/+IYW5xoHnabqmSeXO+ZBZvOHE+pRZsAqUq/Sti/HOjuLMtM+ucRoFg0L0sau+rMixYpQP1x9UfkstzmCkWpkkyBtp0Wv1BMyxzcXtfP2O/OGk8Z/gW2zrfDNo+M5+zLv5TROA5PwZX66zt2sDpPmB1RJfGeHtMIKIl+b+dBym5ZXr47rdS8cBTo0462xbNPFPBkn8WyqffXzz+pvy/P37cuJly6ffzcTbPfb6PyH0bxB2t54/MpotEMdjbOJeqa66p/KeR6Gjjp5/Ik0DIa60XJ3Lzqfdyvn23d3EieqcZ3fSucXdZ3LLIfqUtec+3u+4th3kDnMMF7mu7j+3P6i5+r09HTReOtlLLIuu/3a9lZXx1WivS/rXPzV8hrbz5v2Wt7dqRnWZjAsR0qxkUP70kvTYBxpf2C2iEgvipb8vF5Trjp6OksnjXX7Iu/Sk0V/rj+TwvCkzl22zSfXVUmzJP6i6+ksPruuUjz1hkE2rye1/PDad1VIrKTWzbJaSB4vK+tMD+vFxxyr6fx44VEt5dpms5lu9Vm/NouqWuvzX6s8hTn29tSH3z+pf7///aM6f//x02/vflVv3v/620C9Pvt4Vi/Bq3zV1veesWgqi1UaJ5mKZjf5OBiqYkuTVHnpMDcvQTSukXHV9ibPN5XZa6qr+otLorNZEqmpl6T6VRh7WcMzS/5u3pXfnLsqztVqzGqL9o3s8haqEn/d7E4vD/6zmO7FZG/s+HrkzcJMTZM4X8P0TlPt/HR0NBicne1seOMZ4hCHOMQhDnGIQxziEIc4xPlr4qh0dpP/E1j52pxUvjc3RIn2SUMa0pCGNKQhDWlIQxrSkIY05TR3xX/N+h+aq3CmiUMc4hCHOMQhDnGIQxziEIc46+A8vDfQNe8NPJ9J7w3sucUvbM+f7+8fH5OUpCQlKUlJSlKSkpSkJCUpSUlK0qdB2i1IvUwi7RSkvV63e3RAUpKSlKQkJSlJSUpSkpKUpCQlKUmfBmnPkL5KAoG0e1yQuu7hYa9HUpKSlKQkJSlJSUpSkpKUpCQlKUmfBum+If00mUmkRwXpcX70X5CUpCQlKUlJSlKSkpSkJCUpSUlK0qdB2jek/9K+RHpYkL58ORgcHpKUpCQlKUlJSlKSkpSkJCUpSUlK0qdBelB8MzHTEulBQToYHByQlKQkJSlJSUpSkpKUpCQlKUlJStKnQnpoSN/G0s6C3X5BenTU7fb7JCUpSUlKUpKSlKQkJSlJSUpSkpJ0a6QrFD/x7hqVye7bWZCF+nziTXU70/dZY+d1PEvSaoz591e+DG50lAZxFOq0yFCRYm9PPfd95akik7oLsolK4xut/F7FlentuO1NpzryG47RdnYrLlgdbS/LkoZz7zTVQcfyonl+Ubf+RWk2D/UCr+VFw0mc5Nc7oR5Z0C5zjOIoa93pYDzJTI6rOPTr51j0zfm0df42zeJE99X5PG311KswabnqfDhpDdTrD+HwJmtFcZJ3wR/v1LuzwQvzsUzfqJ76cP6Hej8cms/u7JZ16rO9dJgE0+wf4mee7fnB7Y/D4jVysjyXCvxTZ2hG/CBvJC+IdHLZP3BU0XKnjh+k09CbnwRRmIdaV2E8/PKLI/PlSRe3oLL5NL/eNN7etXfrLc6WXmmOWy8xg1OdKj+4mYa6Hem789txw/npe8am2u90ij8qJ5tJ63uZl+e9+NMJvSsdOieOr0feLMzUNIlHQaid5iJyee+cuO1O07n1wple/n1o1qT8mnyZGQzOzpyvzVp5uqA8PVCefVCePijPASjPISjPESjPMSiP20ElQo1oFzWkXdSYdlGD2kWNahc1rF3UuHZRA9tFjewuamR3YWs1amR3USO7azWyVTq7uXn0kupaFS3RvkUasY3s0ogtZJdGbB+7NOK8t0sjznq7NOKct0sjzni7NOJ8t0sjFzLLPKBxLJcxyzygkSwXMcs8oLEslzDLPKDRLBcwyzyg8SyXL8s8qHUZNJ7l2mWZp/54vguizL5sXZlT9fOIzWOZR2weyzxi81jmEae7ZR5xulvmEae7ZR5xulvmEae7ZR65ftkmQo1ouYLZJkKNabmG2SZCjWq5itkmQo1ruY7ZJkKNbLmS2SaCrdWokS0XM9tE9Uf2w68WlW8Vlspc59E/9BavHQZIdDcv0du8xP7mJfqblzjYvMTh5iWONi9xvHmJR5V9UxpbmN8lX8ziNORvtnAa8pdeOA35m16chvwlME5D/n4YpyF/dYzTkL9VxtW/Lczz7jbq+BYKeXcLlby7XimvfHljPVu1eLsjQELuDZiE3BkwCbkvYBKyrYJJyLYKJiHbKpiEbKtgErKtgkmU/HKN05B/+sNpyLYKpyHbKpyGbKtwGrKtwmnItgqnIdsqnIZsq3Aasq3C1b8tzPOSn/hxGlso5CW2CqexXimvfEdWPVu1eIkWQELuDZiE3BkwCbkvYBKyrYJJyLYKJiHbKpiEbKtgErKtgkmU2Cqchrzc4jRkW4XTkG0VTkO2VTgN2VbhNGRbhdOQbRVOQ7ZVOA3ZVuHq3xbmeYmtwmlsoZCX2CqcxnqlvPJVJPVs1eJdJQAJuTdgEnJnwCTkvoBJyLYKJiHbKpiEbKtgErKtgknItgomUWKrcBrycovTkG0VTkO2VTgN2VbhNGRbhdOQbRVOQ7ZVOA3ZVuE0ZFuFq39bmOcltgqnsYVCXmKrcBrrlfLKHd/r2arFlvAACbk3YBJyZ8Ak5L6ASci2CiYh2yqYhGyrYBKyrYJJyLYKJlFiq3Aa8nKL05BtFU5DtlU4DdlW4TRkW4XTkG0VTkO2VTgN2VbhNGRbhat/W5jnJbYKp7GFQl5iq3Aa65Xyyo1169mqxc67AAm5N2AScmfAJOS+gEnItgomIdsqmIRsq2ASsq2CSci2CiZRYqtwGvJyi9OQbRVOQ7ZVOA3ZVuE0ZFuF05BtFU5DtlU4DdlW4TRkW4Wrf1uY5yW2CqexhUJeYqtwGuuV8sr9C+vZqsUGhwAJuTdgEnJnwCTkvoBJyLYKJiHbKpiEbKtgErKtgknItgomUbrZGkpDXm5xGmUbWaE0yva4QmmUbX+F0ijb8w2lUbYdHEqjbKc4lEbZJnIojbL95VD1bwvzvHRXOpTGFgp5ia3CaVSX8s91dnhdbt2sTlWk71YbyBb7xjbS23Gz2AG2cqvY1f7Pqc5exLPITxv9TlO5br+peuZv3X697Wbvc4yHba19f+Blehwn8+f3QbrYP/nh/mtsMp0neJ/4Ovk4M9sZ177QcMwfc7zVXjpL9ALD7Mi8bPcNb/DNMMMMM8wwwwwzzDDDDDPMMMMMM8wwwwwzzDDDDDPMMMMMM8wwwwwzzDDDDDPMMMMMM8wwwwwzzDDDDDPMMMMMM8wwwwwzzPBfKjxvx7c6SQJfv/XMg7Vuu/N/Pq9qHo1NHz8ae66TQKfLx2ud5uoB4mkYZ+0wiHTlI7Lpj57TrX6yNm0Xr56fxqGXBXGUQzlppqetKz2KE+3Ue/L5jR7ryH98Q4tzjYNOU/XMk8sd8yCz+cMJ9SgzYBWpV2nbl2OdnUWZaZ9cYjSLhgVpY1f9WZFiRagfrr6ofJbbHMFINbJJkLbTolfqCZnjm4vaefudecNJ47/AttlW+ObR8Zx9mfdyGqeBSfgyP13nblaHSfMDqiS+s0NaYQWRr818aLlNy6tXx/W6F44CHZrx1li26WKejJN4NtW++vln9bfl+fv25cRLl8+/mwm2+210/sNo3iBtbzx+ZTTaoY7G2UQ9U131T+U8D0NHnTz+RBoGQ91oubsXnc+7lfPtuzuJE9W4zm+l84u6zmWWQ3Wpa879PV9x7DvIHGYYL/NdXH9uf9FzdXp6umi89TIWWZfdfm17q6vjKtHel3Uu/mp5je3nTXst7+7UDGszGJYjpdjIoX3ppWkwjrQ/MFtEpBdFS35erylXHT2dpZPGun2Rd+nJoj/Xn0lheFLnLtvmk+uqpFkSf9H1dBafXVcpnnrDIJvXk1p+eO27KiRWUutmWS0kj5eVdaaH9eJjjtV0frzwqJZybbPZTLf6rF+bRVWt9fmvVZ7CHHt76sPvn9S/3//+UZ2///jpt3e/qjfvf/1toF6ffTyrl+BVvmrre89YNJXFKo2TTEWzm3wcDFWxpUmqvHSYm5cgGtfIuGp7k+ebyuw11VX9xSXR2SyJ1NRLUv0qjL2s4Zklfzfvym/OXRXnajVmtUX7RnZ5C1WJv252p5cH/1lM92KyN3Z8PfJmYaamSZyvYXqnqXZ+OjoaDM7Odja88QxxiEMc4hCHOMQhDnGIQxzi/DVxVDq7yf8JrHxtTirfmxuiRPukIQ1pSEMa0pCGNKQhDWlIQ5pymrviv2b9D81VONPEIQ5xiEMc4hCHOMQhDnGIQ5x1cB7eG+ia9waez6T3Bvbc4he258/394+PSUpSkpKUpCQlKUlJSlKSkpSkJCXp0yDtFqReJpF2CtJer9s9OiApSUlKUpKSlKQkJSlJSUpSkpKUpE+DtGdIXyWBQNo9Lkhd9/Cw1yMpSUlKUpKSlKQkJSlJSUpSkpKUpE+DdN+QfprMJNKjgvQ4P/ovSEpSkpKUpCQlKUlJSlKSkpSkJCXp0yDtG9J/aV8iPSxIX74cDA4PSUpSkpKUpCQlKUlJSlKSkpSkJCXp0yA9KL6ZmGmJ9KAgHQwODkhKUpKSlKQkJSlJSUpSkpKUpCQl6VMhPTSkb2NpZ8FuvyA9Oup2+32SkpSkJCUpSUlKUpKSlKQkJSlJSbo10hWKn3h3jcpk9+0syEJ9PvGmup3p+6yx8zqeJWk1xvz7K18GNzpKgzgKdVpkqEixt6ee+77yVJFJ3QXZRKXxjVZ+r+LK9Hbc9qZTHfkNx2g7uxUXrI62l2VJw7l3muqgY3nRPL+oW/+iNJuHeoHX8qLhJE7y651QjyxolzlGcZS17nQwnmQmx1Uc+vVzLPrmfNo6f5tmcaIP1Pk8bfXUqzBpuep8OGkN1OsP4fAma0VxknfBH+/Uu7PBC/OxTN+onvpw/od6Pxyaz+7slnXqs710mATT7B/iZ57t+cHtj8PiNXKyPJcK/FNnaEb8IG8kL4h0ctk/dFTRcqeOH6TT0JufBFGYh1pXYTz88osj8+VJF7egsvk0v9403t61d+stzpZeaY5bLzGDU50qP7iZhrod6bvz23HD+el7xqba73SKPyonm0nre5mX57340wm9Kx06J46vR94szNQ0iUdBqJ3mInJ575y47U7TufXCmV7+fWjWpPyafJkZDM7OnK/NWnm6oDw9UJ59UJ4+KM8BKM8hKM8RKM8xKI/bQSVCjWgXNaRd1Jh2UYPaRY1qFzWsXdS4dlED20WN7C5qZHdhazVqZHdRI7trNbJVOru5efSS6loVLdG+RRqxjezSiC1kl0ZsH7s04ry3SyPOers04py3SyPOeLs04ny3SyMXMss8oHEslzHLPKCRLBcxyzygsSyXMMs8oNEsFzDLPKDxLJcvyzyodRk0nuXaZZmn/ni+C6LMvmxdmVP184jNY5lHbB7LPGLzWOYRp7tlHnG6W+YRp7tlHnG6W+YRp7tlHrl+2SZCjWi5gtkmQo1puYbZJkKNarmK2SZCjWu5jtkmQo1suZLZJoKt1aiRLRcz20T1R/bDrxaVbxWWylzn0T/0Fq8dBkh0Ny/R27zE/uYl+puXONi8xOHmJY42L3G8eYlHlX1TGluY3yVfzOI05G+2cBryl144DfmbXpyG/CUwTkP+fhinIX91jNOQv1XG1b8tzPPuNur4Fgp5dwuVvLteKa98eWM9W7V4uyNAQu4NmITcGTAJuS9gErKtgknItgomIdsqmIRsq2ASsq2CSZT8co3TkH/6w2nItgqnIdsqnIZsq3Aasq3Caci2Cqch2yqchmyrcBqyrcLVvy3M85Kf+HEaWyjkJbYKp7FeKa98R1Y9W7V4iRZAQu4NmITcGTAJuS9gErKtgknItgomIdsqmIRsq2ASsq2CSZTYKpyGvNziNGRbhdOQbRVOQ7ZVOA3ZVuE0ZFuF05BtFU5DtlU4DdlW4erfFuZ5ia3CaWyhkJfYKpzGeqW88lUk9WzV4l0lAAm5N2AScmfAJOS+gEnItgomIdsqmIRsq2ASsq2CSci2CiZRYqtwGvJyi9OQbRVOQ7ZVOA3ZVuE0ZFuF05BtFU5DtlU4DdlW4TRkW4Wrf1uY5yW2CqexhUJeYqtwGuuV8sod3+vZqsWW8AAJuTdgEnJnwCTkvoBJyLYKJiHbKpiEbKtgErKtgknItgomUWKrcBrycovTkG0VTkO2VTgN2VbhNGRbhdOQbRVOQ7ZVOA3ZVuE0ZFuFq39bmOcltgqnsYVCXmKrcBrrlfLKjXXr2arFzrsACbk3YBJyZ8Ak5L6ASci2CiYh2yqYhGyrYBKyrYJJyLYKJlFiq3Aa8nKL05BtFU5DtlU4DdlW4TRkW4XTkG0VTkO2VTgN2VbhNGRbhat/W5jnJbYKp7GFQl5iq3Aa65Xyyv0L69mqxQaHAAm5N2AScmfAJOS+gEnItgomIdsqmIRsq2ASsq2CSci2CiZRutkaSkNebnEaZRtZoTTK9rhCaZRtf4XSKNvzDaVRth0cSqNspziURtkmciiNsv3lUPVvC/O8dFc6lMYWCnmJrcJpVJfyz3V2eF1u3axOVaTvVhvIFvvGNtLbcbPYAbZyq9jV/s+pzl7Es8hPG/1OU7luv6l65m/dfr3tZu9zjIdtrX1/4GV6HCfz5/dButg/+eH+a2wynSd4n/g6+Tgz2xnXvtBwzB9zvNVeOkv0AsPsyLxs9w1v8M0wwwwzzDDDDDPMMMMMM8wwwwwzzDDDDDPMMMMMM8wwwwwzzDDDDDPMMMMMM8wwwwwzzDDDDDPMMMMMM8wwwwwzzDDDDDPM8F8qPG/HtzpJAl+/9cyDtW67838+r2oejU0fPxp7rpNAp8vHa53m6gHiaRhn7TCIdOUjsumPntOtfrI2bRevnp/GoZcFcZRDOWmmp60rPYoT7dR78vmNHuvIf3xDi3ONg05T9cyTyx3zILP5wwn1KDNgFalXaduXY52dRZlpn1xiNIuGBWljV/1ZkWJFqB+uvqh8ltscwUg1skmQttOiV+oJmeObi9p5+515w0njv8C22Vb45tHxnH2Z93Iap4FJ+DI/XeduVodJ8wOqJL6zQ1phBZGvzXxouU3Lq1fH9boXjgIdmvHWWLbpYp6Mk3g21b76+Wf1t+X5+/blxEuXz7+bCbb7bXT+w2jeIG1vPH5lNNqhjsbZRD1TXfVP5TwPQ0edPP5EGgZD3Wi5uxedz7uV8+27O4kT1bjOb6Xzi7rOZZZDdalrzv09X3HsO8gcZhgv811cf25/0XN1enq6aLz1MhZZl91+bXurq+Mq0d6XdS7+anmN7edNey3v7tQMazMYliOl2MihfemlaTCOtD8wW0SkF0VLfl6vKVcdPZ2lk8a6fZF36cmiP9efSWF4Uucu2+aT66qkWRJ/0fV0Fp9dVymeesMgm9eTWn547bsqJFZS62ZZLSSPl5V1pof14mOO1XR+vPColnJts9lMt/qsX5tFVa31+a9VnsIce3vqw++f1L/f//5Rnb//+Om3d7+qN+9//W2gXp99PKuX4FW+aut7z1g0lcUqjZNMRbObfBwMVbGlSaq8dJiblyAa18i4anuT55vK7DXVVf3FJdHZLInU1EtS/SqMvazhmSV/N+/Kb85dFedqNWa1RftGdnkLVYm/bnanlwf/WUz3YrI3dnw98mZhpqZJnK9heqepdn46OhoMzs52NrzxDHGIQxziEIc4xCEOcYhDHOL8NXFUOrvJ/wmsfG1OKt+bG6JE+6QhDWlIQxrSkIY0pCENaUhDmnKau+K/Zv0PzVU408QhDnGIQxziEIc4xCEOcYhDnHVwHt4b6Jr3Bp7PpPcG9tziF7bnz/f3j49JSlKSkpSkJCUpSUlKUpKSlKQkJenTIO0WpF4mkXYK0l6v2z06IClJSUpSkpKUpCQlKUlJSlKSkpSkT4O0Z0hfJYFA2j0uSF338LDXIylJSUpSkpKUpCQlKUlJSlKSkpSkT4N035B+mswk0qOC9Dg/+i9ISlKSkpSkJCUpSUlKUpKSlKQkJenTIO0b0n9pXyI9LEhfvhwMDg9JSlKSkpSkJCUpSUlKUpKSlKQkJenTID0ovpmYaYn0oCAdDA4OSEpSkpKUpCQlKUlJSlKSkpSkJCXpUyE9NKRvY2lnwW6/ID066nb7fZKSlKQkJSlJSUpSkpKUpCQlKUlJujXSFYqfeHeNymT37SzIQn0+8aa6nen7rLHzOp4laTXG/PsrXwY3OkqDOAp1WmSoSLG3p577vvJUkUndBdlEpfGNVn6v4sr0dtz2plMd+Q3HaDu7FResjraXZUnDuXea6qBjedE8v6hb/6I0m4d6gdfyouEkTvLrnVCPLGiXOUZxlLXudDCeZCbHVRz69XMs+uZ82jp/m2Zxog/V+Txt9dSrMGm56nw4aQ3U6w/h8CZrRXGSd8Ef79S7s8EL87FM36ie+nD+h3o/HJrP7uyWdeqzvXSYBNPsH+Jnnu35we2Pw+I1crI8lwr8U2doRvwgbyQviHRy2T9yVNFyp44fpNPQm58EUZiHWldhPPzyiyPz5UkXt6Cy+TS/3jTe3rV36y3Oll5pjlsvMYNTnSo/uJmGuh3pu/PbccP56XvGptrvdIo/KiebSet7mZfnvfjTCb0rHTonjq9H3izM1DSJR0GoneYicnnvnLjtTtO59cKZXv59aNak/Jp8mRkMzs6cr81aebqgPD1Qnn1Qnj4ozwEozyEozxEozzEoj9tBJUKNaBc1pF3UmHZRg9pFjWoXNaxd1Lh2UQPbRY3sLmpkd2FrNWpkd1Eju2s1slU6u7l59JLqWhUt0b5FGrGN7NKILWSXRmwfuzTivLdLI856uzTinLdLI854uzTifLdLIxcyyzygcSyXMcs8oJEsFzHLPKCxLJcwyzyg0SwXMMs8oPEsly/LPKh1GTSe5dplmaf+eL4Losy+bF2ZU/XziM1jmUdsHss8YvNY5hGnu2Uecbpb5hGnu2Uecbpb5hGnu2UeuX7ZJkKNaLmC2SZCjWm5htkmQo1quYrZJkKNa7mO2SZCjWy5ktkmgq3VqJEtFzPbRPVH9sOvFpVvFZbKXOfRP/QWrx0GSHQ3L9HbvMT+5iX6m5c42LzE4eYljjYvcbx5iUeVfVMaW5jfJV/M4jTkb7ZwGvKXXjgN+ZtenIb8JTBOQ/5+GKchf3WM05C/VcbVvy3M8+426vgWCnl3C5W8u14pr3x5Yz1btXi7I0BC7g2YhNwZMAm5L2ASsq2CSci2CiYh2yqYhGyrYBKyrYJJlPxyjdOQf/rDaci2Cqch2yqchmyrcBqyrcJpyLYKpyHbKpyGbKtwGrKtwtW/Lczzkp/4cRpbKOQltgqnsV4pr3xHVj1btXiJFkBC7g2YhNwZMAm5L2ASsq2CSci2CiYh2yqYhGyrYBKyrYJJlNgqnIa83OI0ZFuF05BtFU5DtlU4DdlW4TRkW4XTkG0VTkO2VTgN2Vbh6t8W5nmJrcJpbKGQl9gqnMZ6pbzyVST1bNXiXSUACbk3YBJyZ8Ak5L6ASci2CiYh2yqYhGyrYBKyrYJJyLYKJlFiq3Aa8nKL05BtFU5DtlU4DdlW4TRkW4XTkG0VTkO2VTgN2VbhNGRbhat/W5jnJbYKp7GFQl5iq3Aa65Xyyh3f69mqxZbwAAm5N2AScmfAJOS+gEnItgomIdsqmIRsq2ASsq2CSci2CiZRYqtwGvJyi9OQbRVOQ7ZVOA3ZVuE0ZFuF05BtFU5DtlU4DdlW4TRkW4Wrf1uY5yW2CqexhUJeYqtwGuuV8sqNdevZqsXOuwAJuTdgEnJnwCTkvoBJyLYKJiHbKpiEbKtgErKtgknItgomUWKrcBrycovTkG0VTkO2VTgN2VbhNGRbhdOQbRVOQ7ZVOA3ZVuE0ZFuFq39bmOcltgqnsYVCXmKrcBrrlfLK/Qvr2arFBocACbk3YBJyZ8Ak5L6ASci2CiYh2yqYhGyrYBKyrYJJyLYKJlG62RpKQ15ucRplG1mhNMr2uEJplG1/hdIo2/MNpVG2HRxKo2ynOJRG2SZyKI2y/eVQ9W8L87x0VzqUxhYKeYmtwmlUl/LPdXZ4XW7drE5VpO9WG8gW+8Y20ttxs9gBtnKr2NX+z6nOXsSzyE8b/U5TuW6/qXrmb91+ve1m73OMh22tfX/gZXocJ/Pn90G62D/54f5rbDKdJ3if+Dr5ODPbGde+0HDMH3O81V46S/QCw+zIvGz3DW/wzTDDDDPMMMMMM8wwwwwzzDDDDDPMMMMMM8wwwwwzzDDDDDPMMMMMM8wwwwwzzDDDDDPMMMMMM8wwwwwzzDDDDDPMMMMMM8zwXyo8b8e3OkkCX7/1zIO1brvzfz6vah6NTR8/Gnuuk0Cny8drnebqAeJpGGftMIh05SOy6Y+e061+sjZtF6+en8ahlwVxlEM5aaanrSs9ihPt1Hvy+Y0e68h/fEOLc42DTlP1zJPLHfMgs/nDCfUoM2AVqVdp25djnZ1FmWmfXGI0i4YFaWNX/VmRYkWoH66+qHyW2xzBSDWySZC206JX6gmZ45uL2nn7nXnDSeO/wLbZVvjm0fGcfZn3chqngUn4Mj9d525Wh0nzA6okvrNDWmEFka/NfGi5TcurV8f1uheOAh2a8dZYtulinoyTeDbVvvr5Z/W35fn79uXES5fPv5sJtvttdP7DaN4gbW88fmU02qGOxtlEPVNd9U/lPA9DR508/kQaBkPdaLm7F53Pu5Xz7bs7iRPVuM5vpfOLus5llkN1qWvO/T1fcew7yBxmGC/zXVx/bn/R/2nvXHvbxrEw/H1/BVcDTBys7Vh27FymnkXqOG2BtiniFIOZoAhoi7aVyJIgUkmMQf77irKUjduqJnVp692XH+JUJF8+JM8h2VI9XpJ+v78avHyKsWoy7Te6XU3TOGD0Nk/lR806uuXleCW960uzlsaQWEocyKF5TTm3Zy6zBjJEBL+KR/JTvqFMJ9oP+byWdy6iKT1ezWd+T3KcY5VeNmXJvK1wEXi3TK2dVdm8LXk+ndhiqdZUUjh3r+Im0qbyqqQLyfqyksc9tBcfmVJ3Xl94SIOYumo67qbO+liPd1Wl8o+bzhQy7e2RDx8vyZ/nHy/I6Pzi8s37V+Tt+as3A/J6eDFUEziLVm32QOURjQiPcC8QxA0XkR1MSBzShBPKJ9HhxXZnCorp2EudZzszrZOx+uISMBEGLvFpwNmZ41FRo3LJ342m8tmzcfxMaTA3H9GeNZt0YZPwY7WRXp7On7G7x85e27HYlIaOIH7gRWsY26mTnV8ODweD4XCn4sAzwAEOcIADHOAABzjAAQ5wgPO/iUN4uIj+CkwsJh8Siy4lUcAs0IAGNKABDWhAAxrQgAY0oAHNt2nu41ezPqMZOyEDDnCAAxzgAAc4wAEOcIADHODkwXn63kBTfm/gKMz63sCOGd+wnZzs7x8dgRSkIAUpSEEKUpCCFKQgBSlIQQrS7SBtx6RUZJG2YtJOp90+7IEUpCAFKUhBClKQghSkIAUpSEEK0u0g7UjSs8DOIG0fxaSmeXDQ6YAUpCAFKUhBClKQghSkIAUpSEEK0u0g3Zekl/Mwi/QwJj2KUvclSEEKUpCCFKQgBSlIQQpSkIIUpCDdDtKuJP2DWVmkBzHp6elgcHAAUpCCFKQgBSlIQQpSkIIUpCAFKUi3g7QX/8tEyLJIezHpYNDrgRSkIAUpSEEKUpCCFKQgBSlIQQrSbSE9kKTvvKzIgu1uTHp42G53uyAFKUhBClKQghSkIAUpSEEKUpCC9LuRpihWQO9rG8UemsIWDhvNqc+agj2I2s5rLwz4ZozllzVP7QVzue25DuOxwgaJvT1yYlmEkliJ3NtiTri3YMTqbKjJ72ZN6vvMtWqGbNvY3VAhTU0qRFAzHow66bU0Ky2jSm31SlwsHbbCa1B3MveCqL7hsKkGbaIx9VzRuGf2bC6kxthzLHWN1dyM/MboHRdewA7JaMkbHXLmBA2TjCbzxoC8/uBMFqLBKBfkr/fk/XDwUpYSbEE65MPoL3I+mciiO7vfmtMXe3wS2L74PbPMiz3Lvvt6dmadbLFIi9hW35hIgx9EY0RtlwXX3SODxAPXNyyb+w5dHtuuE2U1xo43uf3NyOaLRFddIGLpR/Xl2O3d0Du6evrNmjLd0UDaJukTy174Dmu67H50N6sZv3zJWCf7rVb8Y6OvSVmLChrpXv1tOHTMHOPYsNiUho4gfuBNbYcZ9VXO9YNxbDZbdeOOOiEzjntHzaNn6fCobkzkAhUpRGvOYDAcGo91JdV2JaqdSlT3K1HtVqLaq0T1oBLVw0pUjypRNVvVyFbjXWY17mVW419mNQ5mVuNhZjUuZlbjY2Y1TmZW42XtarysXdEeVo2XtavxsnYBLyM8XCzWvvM7xwkhYJaGqOLY6okqjqyeqOK46okqrl16ooorl56o4rqlJ6q4aumJKq5ZeqKqBwNN1Up8SvVYoKlaiVepHgo0VSvxK9UjgaZqJZ6leiDQVK3Et1SPA5qq1exXlfiW6llAUzWvb93brih6DBjLAuqqisOqqao4rJqqisOqqaq4ZGmqKi5ZmqqKS5amquKSpamquGRpqqqeB3Rlq/Eu1ROBrmw1/qV6JtCVrcbDVE8FurLV+JjquUBXthovUz0Z6MpWtIdV42WqhwNdWS0v+6Ry4ZBcJJI+cdl9ep8RX2PU+N2sHl9IbLy5SG8jORMvvdC1eK3bqhPT7NZJR/7W7qrdfjxEGE+XrJY1oILNvGB58mDz1W3e01AoXHlGAueBxYKLUF6uKVeUHMt1jneM8jBgKwx5P5hMQdFL3Pgeab2pEQtsxhPcqKVkQnzHE015ubWxSf61fm8m5c3Y7nzPocL23AjK4IL5jTGbegEz1CzpLZsx11rv0OpZrRdZQUdagrwMM+WP5I504/VxKtu8njExdIUcn6iJaehOYtLaLvlb4ZJUErKn2lcbfUMme0pqYm7zyK5lPbWGZHpWqRmN35BO5rX/AuuqpfjJ3WCie+173JaCp9Fjld6kScp8hSrw7vWQUizbtZh03IZZ16ydppu8Fac2c6S91ZIxXfnJLPBCn1nk11/JP5PnD83rOeXJeiIdbPd57vKrudGANOlsdibbaDrMnYk5eUHa5N/EOHEcgxyvl+COPWG1hrl71fq0u9HfvuiJF5DaTdSV1m/kJmomMdWkXfnsX31i6k+QTNKME72rm0/NWxYtb/3+avDyKcaqybTf6HY1TeOA0ds8lR816+iWl+OV9K4vzVoaQ2Ip8cbYvF69AMSs+BUgfhWP5Kd8Q5lOtB/yeS3vXERTeryaz/ye5DjHKr1sypJ5W+Ei8G6ZWjursnlb8nw6scVSramkcO5exU2kTeVVSReS9WUlj3toLz4ype68vvCQBjF11XTcTZ31sR7vqkrlHzedKWTa2yMfPl6SP88/XpDR+cXlm/evyNvzV28G5PXwYqgmcBat2uyByiMaER7hXnSQdsNFZAcTEh8ROaF8Eh1ebHemoJiOvdR5tjPTOhmrLy4BE2HgEp8GnJ05HhU1Kpf83Wgqnz0bx8+UBnPzEe1Zs0kXNgk//oAXNT+7gE3expQXqj/kvVHgAAc4wAEOcIADHOAABzjA2XqcL19wkUQBs0ADGtCABjSgAQ1oQAMa0IAGNN+m+eKVQEkjX/EDDnCAAxzgAAc4wAEOcIADHOD8wPCIl2zhs4CKMGCkdraLAIk/VYDEP6i0uNcs/jhZjG3mCiKnTMY9ZFYYjX+DHLTOtiIEYq/184dAjBi/VwjE+D+e5g3BVJJOpySd/ZJ0uiXp9ErSOShJ57AknaOSdNZiCxQSKsuizbJM2izLps2yjNosy6rNsszaLMuuzbIM2yzLsttlWXa7tLW6LMtul2XZbS3LVg/ZtyaVP0hfAZnMEcofiK+ATKbf5w+2V0Am0+fzB9QrIJPp7wWC5hXRKcmOs7exAqHwiuiUZMrZe1iBAHdFdEqy5uwNrEDYuiLrYEn2nL17FQhGV0SnJHvO3rryh5hbkykQVK6ITubwFAgcV0Qn090LBIcropPp7gUCwBXRyXT3IkHeCgmVZdHZO1iR0G2FhMoy6uxNrEhAtkJCZdl19j5WJMxaoZWxLMvO3sqKBE8rJFSWZWfvZgiJthUh0ZCNbGQjG9nIRjaykY1sZCMb2chGNrKR/TNlL5veHQsC22LvqPyHKrPZQkj8Zz1BSPynhJD4Wgkh8RESXyMhJP7nCSHxP08Iia+ZEBIfIfG/mhASHzjAAQ5wgAMc4AAHOMABDnCAsw0BJUEDGtCABjSgAQ1oQAMa0IBme2j+bwJZAgc4wAEOcIADHOAABzjAAU7+9n5ASPxTe8FcbnuuwzhHQPyfKyC+F9yS4XRqT2zmTpZPYfC/bwD8pPRnOc//nP6++nxST355+hh71lJ+zsXC+f0f/wHh8VXW"
               },
               {
                  "name" : "annual_peak_electric_demand",
                  "units" : "kW",
                  "value" : 275.39058
               },
               {
                  "name" : "first_year_capital_cost",
                  "units" : "$",
                  "value" : 0
               },
               {
                  "name" : "annual_utility_cost",
                  "units" : "$",
                  "value" : 0
               },
               {
                  "name" : "total_lifecycle_cost",
                  "units" : "$",
                  "value" : 0
               }
            ],
            "step_warnings" : [ "A table in Annual Overview section returned false and was skipped." ]
         }
      }
   ],
   "updated_at" : "20170710T190911Z",
   "weather_file" : "USA_CO_Denver.Intl.AP.725650_TMY3.epw"
}
