{
   "completed_at" : "20170710T191811Z",
   "completed_status" : "Success",
   "created_at" : "2017-07-10 18:57:15 +0000",
   "current_step" : 5,
   "description" : "",
   "eplusout_err" : "Program Version,EnergyPlus, Version 8.7.0-78a111df4a, YMD=2017.07.10 19:06,IDD_Version 8.7.0\n   ************* IDF Context for following error/warning message:\n   ************* Note -- lines truncated at 300 characters, if necessary...\n   *************      5 Building,\n   ************* indicated Name=NECB 2011-Hospital-NECB HDD Method-CAN_BC_Prince.Rupert.718980_CWEC.epw created: 2017-07-10 18:57:23 +0000\n   ************* Only last 1 lines before error line shown.....\n   *************      6   NECB 2011-Hospital-NECB HDD Method-CAN_BC_Prince.Rupert.718980_CWEC.epw created: 2017-07-10 18:57:23 +0000, !- Name\n   ** Warning ** IP: IDF line~6 Alpha Argument length exceeds maximum, will be truncated=  NECB 2011-Hospital-NECB HDD Method-CAN_BC_Prince.Rupert.718980_CWEC.epw created: 2017-07-10 18:57:23 +000\n   **   ~~~   ** Will be processed as Alpha=NECB 2011-HOSPITAL-NECB HDD METHOD-CAN_BC_PRINCE.RUPERT.718980_CWEC.EPW CREATED: 2017-07-10 18:57:23 +0000\n   ************* IDF Context for following error/warning message:\n   ************* Note -- lines truncated at 300 characters, if necessary...\n   *************   5704 Schedule:Week:Daily,\n   ************* indicated Name=Schedule:Week:Daily {14ef904c-0755-4b8d-85a7-7a15549b4036}\n   ************* Only last 10 lines before error line shown.....\n   *************   5705   Schedule:Week:Daily {14ef904c-0755-4b8d-85a7-7a15549b4036}, !- Name\n   *************   5706   Sp-ER_NurseStn_Lobby_Flr_1 Sys-3 Flr-1 Sch-H HPlcmt-east ZN NECB System 3 PSZ Occ Sch Sunday, !- Sunday Schedule:Day Name\n   *************   5707   Sp-ER_NurseStn_Lobby_Flr_1 Sys-3 Flr-1 Sch-H HPlcmt-east ZN NECB System 3 PSZ Occ Sch Monday, !- Monday Schedule:Day Name\n   *************   5708   Sp-ER_NurseStn_Lobby_Flr_1 Sys-3 Flr-1 Sch-H HPlcmt-east ZN NECB System 3 PSZ Occ Sch Tuesday, !- Tuesday Schedule:Day Name\n   *************   5709   Sp-ER_NurseStn_Lobby_Flr_1 Sys-3 Flr-1 Sch-H HPlcmt-east ZN NECB System 3 PSZ Occ Sch Wednesday, !- Wednesday Schedule:Day Name\n   *************   5710   Sp-ER_NurseStn_Lobby_Flr_1 Sys-3 Flr-1 Sch-H HPlcmt-east ZN NECB System 3 PSZ Occ Sch Thursday, !- Thursday Schedule:Day Name\n   *************   5711   Sp-ER_NurseStn_Lobby_Flr_1 Sys-3 Flr-1 Sch-H HPlcmt-east ZN NECB System 3 PSZ Occ Sch Friday, !- Friday Schedule:Day Name\n   *************   5712   Sp-ER_NurseStn_Lobby_Flr_1 Sys-3 Flr-1 Sch-H HPlcmt-east ZN NECB System 3 PSZ Occ Sch Saturday, !- Saturday Schedule:Day Name\n   *************   5713   Sp-ER_NurseStn_Lobby_Flr_1 Sys-3 Flr-1 Sch-H HPlcmt-east ZN NECB System 3 PSZ Occ Sch Default, !- Holiday Schedule:Day Name\n   *************   5714   Sp-ER_NurseStn_Lobby_Flr_1 Sys-3 Flr-1 Sch-H HPlcmt-east ZN NECB System 3 PSZ Occ Sch Summer Design Day, !- SummerDesignDay Schedule:Day Name\n   ** Warning ** IP: IDF line~5714 Alpha Argument length exceeds maximum, will be truncated=  Sp-ER_NurseStn_Lobby_Flr_1 Sys-3 Flr-1 Sch-H HPlcmt-east ZN NECB System 3 PSZ Occ Sch Summer Design Da\n   **   ~~~   ** Will be processed as Alpha=SP-ER_NURSESTN_LOBBY_FLR_1 SYS-3 FLR-1 SCH-H HPLCMT-EAST ZN NECB SYSTEM 3 PSZ OCC SCH SUMMER DESIGN DAY\n   ************* IDF Context for following error/warning message:\n   ************* Note -- lines truncated at 300 characters, if necessary...\n   *************   5704 Schedule:Week:Daily,\n   ************* indicated Name=Schedule:Week:Daily {14ef904c-0755-4b8d-85a7-7a15549b4036}\n   ************* Only last 10 lines before error line shown.....\n   *************   5706   Sp-ER_NurseStn_Lobby_Flr_1 Sys-3 Flr-1 Sch-H HPlcmt-east ZN NECB System 3 PSZ Occ Sch Sunday, !- Sunday Schedule:Day Name\n   *************   5707   Sp-ER_NurseStn_Lobby_Flr_1 Sys-3 Flr-1 Sch-H HPlcmt-east ZN NECB System 3 PSZ Occ Sch Monday, !- Monday Schedule:Day Name\n   *************   5708   Sp-ER_NurseStn_Lobby_Flr_1 Sys-3 Flr-1 Sch-H HPlcmt-east ZN NECB System 3 PSZ Occ Sch Tuesday, !- Tuesday Schedule:Day Name\n   *************   5709   Sp-ER_NurseStn_Lobby_Flr_1 Sys-3 Flr-1 Sch-H HPlcmt-east ZN NECB System 3 PSZ Occ Sch Wednesday, !- Wednesday Schedule:Day Name\n   *************   5710   Sp-ER_NurseStn_Lobby_Flr_1 Sys-3 Flr-1 Sch-H HPlcmt-east ZN NECB System 3 PSZ Occ Sch Thursday, !- Thursday Schedule:Day Name\n   *************   5711   Sp-ER_NurseStn_Lobby_Flr_1 Sys-3 Flr-1 Sch-H HPlcmt-east ZN NECB System 3 PSZ Occ Sch Friday, !- Friday Schedule:Day Name\n   *************   5712   Sp-ER_NurseStn_Lobby_Flr_1 Sys-3 Flr-1 Sch-H HPlcmt-east ZN NECB System 3 PSZ Occ Sch Saturday, !- Saturday Schedule:Day Name\n   *************   5713   Sp-ER_NurseStn_Lobby_Flr_1 Sys-3 Flr-1 Sch-H HPlcmt-east ZN NECB System 3 PSZ Occ Sch Default, !- Holiday Schedule:Day Name\n   *************   5714   Sp-ER_NurseStn_Lobby_Flr_1 Sys-3 Flr-1 Sch-H HPlcmt-east ZN NECB System 3 PSZ Occ Sch Summer Design Day, !- SummerDesignDay Schedule:Day Name\n   *************   5715   Sp-ER_NurseStn_Lobby_Flr_1 Sys-3 Flr-1 Sch-H HPlcmt-east ZN NECB System 3 PSZ Occ Sch Winter Design Day, !- WinterDesignDay Schedule:Day Name\n   ** Warning ** IP: IDF line~5715 Alpha Argument length exceeds maximum, will be truncated=  Sp-ER_NurseStn_Lobby_Flr_1 Sys-3 Flr-1 Sch-H HPlcmt-east ZN NECB System 3 PSZ Occ Sch Winter Design Da\n   **   ~~~   ** Will be processed as Alpha=SP-ER_NURSESTN_LOBBY_FLR_1 SYS-3 FLR-1 SCH-H HPLCMT-EAST ZN NECB SYSTEM 3 PSZ OCC SCH WINTER DESIGN DAY\n   ************* IDF Context for following error/warning message:\n   ************* Note -- lines truncated at 300 characters, if necessary...\n   *************   5735 Schedule:Day:Interval,\n   ************* indicated Name=Sp-ER_NurseStn_Lobby_Flr_1 Sys-3 Flr-1 Sch-H HPlcmt-east ZN NECB System 3 PSZ Occ Sch Summer Design Day\n   ************* Only last 1 lines before error line shown.....\n   *************   5736   Sp-ER_NurseStn_Lobby_Flr_1 Sys-3 Flr-1 Sch-H HPlcmt-east ZN NECB System 3 PSZ Occ Sch Summer Design Day, !- Name\n   ** Warning ** IP: IDF line~5736 Alpha Argument length exceeds maximum, will be truncated=  Sp-ER_NurseStn_Lobby_Flr_1 Sys-3 Flr-1 Sch-H HPlcmt-east ZN NECB System 3 PSZ Occ Sch Summer Design Da\n   **   ~~~   ** Will be processed as Alpha=SP-ER_NURSESTN_LOBBY_FLR_1 SYS-3 FLR-1 SCH-H HPLCMT-EAST ZN NECB SYSTEM 3 PSZ OCC SCH SUMMER DESIGN DAY\n   ************* IDF Context for following error/warning message:\n   ************* Note -- lines truncated at 300 characters, if necessary...\n   *************   5742 Schedule:Day:Interval,\n   ************* indicated Name=Sp-ER_NurseStn_Lobby_Flr_1 Sys-3 Flr-1 Sch-H HPlcmt-east ZN NECB System 3 PSZ Occ Sch Winter Design Day\n   ************* Only last 1 lines before error line shown.....\n   *************   5743   Sp-ER_NurseStn_Lobby_Flr_1 Sys-3 Flr-1 Sch-H HPlcmt-east ZN NECB System 3 PSZ Occ Sch Winter Design Day, !- Name\n   ** Warning ** IP: IDF line~5743 Alpha Argument length exceeds maximum, will be truncated=  Sp-ER_NurseStn_Lobby_Flr_1 Sys-3 Flr-1 Sch-H HPlcmt-east ZN NECB System 3 PSZ Occ Sch Winter Design Da\n   **   ~~~   ** Will be processed as Alpha=SP-ER_NURSESTN_LOBBY_FLR_1 SYS-3 FLR-1 SCH-H HPLCMT-EAST ZN NECB SYSTEM 3 PSZ OCC SCH WINTER DESIGN DAY\n   ************* IDF Context for following error/warning message:\n   ************* Note -- lines truncated at 300 characters, if necessary...\n   *************   7141 Schedule:Week:Daily,\n   ************* indicated Name=Schedule:Week:Daily {954bbae1-f709-4965-ba7b-94dfd5cbaada}\n   ************* Only last 10 lines before error line shown.....\n   *************   7142   Schedule:Week:Daily {954bbae1-f709-4965-ba7b-94dfd5cbaada}, !- Name\n   *************   7143   Sp-ICU_NurseStn_Lobby_Flr_2 Sys-3 Flr-4 Sch-H HPlcmt-core ZN NECB System 3 PSZ Occ Sch Sunday, !- Sunday Schedule:Day Name\n   *************   7144   Sp-ICU_NurseStn_Lobby_Flr_2 Sys-3 Flr-4 Sch-H HPlcmt-core ZN NECB System 3 PSZ Occ Sch Monday, !- Monday Schedule:Day Name\n   *************   7145   Sp-ICU_NurseStn_Lobby_Flr_2 Sys-3 Flr-4 Sch-H HPlcmt-core ZN NECB System 3 PSZ Occ Sch Tuesday, !- Tuesday Schedule:Day Name\n   *************   7146   Sp-ICU_NurseStn_Lobby_Flr_2 Sys-3 Flr-4 Sch-H HPlcmt-core ZN NECB System 3 PSZ Occ Sch Wednesday, !- Wednesday Schedule:Day Name\n   *************   7147   Sp-ICU_NurseStn_Lobby_Flr_2 Sys-3 Flr-4 Sch-H HPlcmt-core ZN NECB System 3 PSZ Occ Sch Thursday, !- Thursday Schedule:Day Name\n   *************   7148   Sp-ICU_NurseStn_Lobby_Flr_2 Sys-3 Flr-4 Sch-H HPlcmt-core ZN NECB System 3 PSZ Occ Sch Friday, !- Friday Schedule:Day Name\n   *************   7149   Sp-ICU_NurseStn_Lobby_Flr_2 Sys-3 Flr-4 Sch-H HPlcmt-core ZN NECB System 3 PSZ Occ Sch Saturday, !- Saturday Schedule:Day Name\n   *************   7150   Sp-ICU_NurseStn_Lobby_Flr_2 Sys-3 Flr-4 Sch-H HPlcmt-core ZN NECB System 3 PSZ Occ Sch Default, !- Holiday Schedule:Day Name\n   *************   7151   Sp-ICU_NurseStn_Lobby_Flr_2 Sys-3 Flr-4 Sch-H HPlcmt-core ZN NECB System 3 PSZ Occ Sch Summer Design Day, !- SummerDesignDay Schedule:Day Name\n   ** Warning ** IP: IDF line~7151 Alpha Argument length exceeds maximum, will be truncated=  Sp-ICU_NurseStn_Lobby_Flr_2 Sys-3 Flr-4 Sch-H HPlcmt-core ZN NECB System 3 PSZ Occ Sch Summer Design Da\n   **   ~~~   ** Will be processed as Alpha=SP-ICU_NURSESTN_LOBBY_FLR_2 SYS-3 FLR-4 SCH-H HPLCMT-CORE ZN NECB SYSTEM 3 PSZ OCC SCH SUMMER DESIGN DAY\n   ************* IDF Context for following error/warning message:\n   ************* Note -- lines truncated at 300 characters, if necessary...\n   *************   7141 Schedule:Week:Daily,\n   ************* indicated Name=Schedule:Week:Daily {954bbae1-f709-4965-ba7b-94dfd5cbaada}\n   ************* Only last 10 lines before error line shown.....\n   *************   7143   Sp-ICU_NurseStn_Lobby_Flr_2 Sys-3 Flr-4 Sch-H HPlcmt-core ZN NECB System 3 PSZ Occ Sch Sunday, !- Sunday Schedule:Day Name\n   *************   7144   Sp-ICU_NurseStn_Lobby_Flr_2 Sys-3 Flr-4 Sch-H HPlcmt-core ZN NECB System 3 PSZ Occ Sch Monday, !- Monday Schedule:Day Name\n   *************   7145   Sp-ICU_NurseStn_Lobby_Flr_2 Sys-3 Flr-4 Sch-H HPlcmt-core ZN NECB System 3 PSZ Occ Sch Tuesday, !- Tuesday Schedule:Day Name\n   *************   7146   Sp-ICU_NurseStn_Lobby_Flr_2 Sys-3 Flr-4 Sch-H HPlcmt-core ZN NECB System 3 PSZ Occ Sch Wednesday, !- Wednesday Schedule:Day Name\n   *************   7147   Sp-ICU_NurseStn_Lobby_Flr_2 Sys-3 Flr-4 Sch-H HPlcmt-core ZN NECB System 3 PSZ Occ Sch Thursday, !- Thursday Schedule:Day Name\n   *************   7148   Sp-ICU_NurseStn_Lobby_Flr_2 Sys-3 Flr-4 Sch-H HPlcmt-core ZN NECB System 3 PSZ Occ Sch Friday, !- Friday Schedule:Day Name\n   *************   7149   Sp-ICU_NurseStn_Lobby_Flr_2 Sys-3 Flr-4 Sch-H HPlcmt-core ZN NECB System 3 PSZ Occ Sch Saturday, !- Saturday Schedule:Day Name\n   *************   7150   Sp-ICU_NurseStn_Lobby_Flr_2 Sys-3 Flr-4 Sch-H HPlcmt-core ZN NECB System 3 PSZ Occ Sch Default, !- Holiday Schedule:Day Name\n   *************   7151   Sp-ICU_NurseStn_Lobby_Flr_2 Sys-3 Flr-4 Sch-H HPlcmt-core ZN NECB System 3 PSZ Occ Sch Summer Design Day, !- SummerDesignDay Schedule:Day Name\n   *************   7152   Sp-ICU_NurseStn_Lobby_Flr_2 Sys-3 Flr-4 Sch-H HPlcmt-core ZN NECB System 3 PSZ Occ Sch Winter Design Day, !- WinterDesignDay Schedule:Day Name\n   ** Warning ** IP: IDF line~7152 Alpha Argument length exceeds maximum, will be truncated=  Sp-ICU_NurseStn_Lobby_Flr_2 Sys-3 Flr-4 Sch-H HPlcmt-core ZN NECB System 3 PSZ Occ Sch Winter Design Da\n   **   ~~~   ** Will be processed as Alpha=SP-ICU_NURSESTN_LOBBY_FLR_2 SYS-3 FLR-4 SCH-H HPLCMT-CORE ZN NECB SYSTEM 3 PSZ OCC SCH WINTER DESIGN DAY\n   ************* IDF Context for following error/warning message:\n   ************* Note -- lines truncated at 300 characters, if necessary...\n   *************   7172 Schedule:Day:Interval,\n   ************* indicated Name=Sp-ICU_NurseStn_Lobby_Flr_2 Sys-3 Flr-4 Sch-H HPlcmt-core ZN NECB System 3 PSZ Occ Sch Summer Design Day\n   ************* Only last 1 lines before error line shown.....\n   *************   7173   Sp-ICU_NurseStn_Lobby_Flr_2 Sys-3 Flr-4 Sch-H HPlcmt-core ZN NECB System 3 PSZ Occ Sch Summer Design Day, !- Name\n   ** Warning ** IP: IDF line~7173 Alpha Argument length exceeds maximum, will be truncated=  Sp-ICU_NurseStn_Lobby_Flr_2 Sys-3 Flr-4 Sch-H HPlcmt-core ZN NECB System 3 PSZ Occ Sch Summer Design Da\n   **   ~~~   ** Will be processed as Alpha=SP-ICU_NURSESTN_LOBBY_FLR_2 SYS-3 FLR-4 SCH-H HPLCMT-CORE ZN NECB SYSTEM 3 PSZ OCC SCH SUMMER DESIGN DAY\n   ************* IDF Context for following error/warning message:\n   ************* Note -- lines truncated at 300 characters, if necessary...\n   *************   7179 Schedule:Day:Interval,\n   ************* indicated Name=Sp-ICU_NurseStn_Lobby_Flr_2 Sys-3 Flr-4 Sch-H HPlcmt-core ZN NECB System 3 PSZ Occ Sch Winter Design Day\n   ************* Only last 1 lines before error line shown.....\n   *************   7180   Sp-ICU_NurseStn_Lobby_Flr_2 Sys-3 Flr-4 Sch-H HPlcmt-core ZN NECB System 3 PSZ Occ Sch Winter Design Day, !- Name\n   ** Warning ** IP: IDF line~7180 Alpha Argument length exceeds maximum, will be truncated=  Sp-ICU_NurseStn_Lobby_Flr_2 Sys-3 Flr-4 Sch-H HPlcmt-core ZN NECB System 3 PSZ Occ Sch Winter Design Da\n   **   ~~~   ** Will be processed as Alpha=SP-ICU_NURSESTN_LOBBY_FLR_2 SYS-3 FLR-4 SCH-H HPLCMT-CORE ZN NECB SYSTEM 3 PSZ OCC SCH WINTER DESIGN DAY\n   ************* IDF Context for following error/warning message:\n   ************* Note -- lines truncated at 300 characters, if necessary...\n   *************   7990 Schedule:Week:Daily,\n   ************* indicated Name=Schedule:Week:Daily {1014b8f0-69eb-4572-b27f-a9bfebf3a7c7}\n   ************* Only last 10 lines before error line shown.....\n   *************   7991   Schedule:Week:Daily {1014b8f0-69eb-4572-b27f-a9bfebf3a7c7}, !- Name\n   *************   7992   Sp-IC_PatRoom3_Mult6_Flr_2 Sys-3 Flr-4 Sch-H HPlcmt-west ZN NECB System 3 PSZ Occ Sch Sunday, !- Sunday Schedule:Day Name\n   *************   7993   Sp-IC_PatRoom3_Mult6_Flr_2 Sys-3 Flr-4 Sch-H HPlcmt-west ZN NECB System 3 PSZ Occ Sch Monday, !- Monday Schedule:Day Name\n   *************   7994   Sp-IC_PatRoom3_Mult6_Flr_2 Sys-3 Flr-4 Sch-H HPlcmt-west ZN NECB System 3 PSZ Occ Sch Tuesday, !- Tuesday Schedule:Day Name\n   *************   7995   Sp-IC_PatRoom3_Mult6_Flr_2 Sys-3 Flr-4 Sch-H HPlcmt-west ZN NECB System 3 PSZ Occ Sch Wednesday, !- Wednesday Schedule:Day Name\n   *************   7996   Sp-IC_PatRoom3_Mult6_Flr_2 Sys-3 Flr-4 Sch-H HPlcmt-west ZN NECB System 3 PSZ Occ Sch Thursday, !- Thursday Schedule:Day Name\n   *************   7997   Sp-IC_PatRoom3_Mult6_Flr_2 Sys-3 Flr-4 Sch-H HPlcmt-west ZN NECB System 3 PSZ Occ Sch Friday, !- Friday Schedule:Day Name\n   *************   7998   Sp-IC_PatRoom3_Mult6_Flr_2 Sys-3 Flr-4 Sch-H HPlcmt-west ZN NECB System 3 PSZ Occ Sch Saturday, !- Saturday Schedule:Day Name\n   *************   7999   Sp-IC_PatRoom3_Mult6_Flr_2 Sys-3 Flr-4 Sch-H HPlcmt-west ZN NECB System 3 PSZ Occ Sch Default, !- Holiday Schedule:Day Name\n   *************   8000   Sp-IC_PatRoom3_Mult6_Flr_2 Sys-3 Flr-4 Sch-H HPlcmt-west ZN NECB System 3 PSZ Occ Sch Summer Design Day, !- SummerDesignDay Schedule:Day Name\n   ** Warning ** IP: IDF line~8000 Alpha Argument length exceeds maximum, will be truncated=  Sp-IC_PatRoom3_Mult6_Flr_2 Sys-3 Flr-4 Sch-H HPlcmt-west ZN NECB System 3 PSZ Occ Sch Summer Design Da\n   **   ~~~   ** Will be processed as Alpha=SP-IC_PATROOM3_MULT6_FLR_2 SYS-3 FLR-4 SCH-H HPLCMT-WEST ZN NECB SYSTEM 3 PSZ OCC SCH SUMMER DESIGN DAY\n   ************* IDF Context for following error/warning message:\n   ************* Note -- lines truncated at 300 characters, if necessary...\n   *************   7990 Schedule:Week:Daily,\n   ************* indicated Name=Schedule:Week:Daily {1014b8f0-69eb-4572-b27f-a9bfebf3a7c7}\n   ************* Only last 10 lines before error line shown.....\n   *************   7992   Sp-IC_PatRoom3_Mult6_Flr_2 Sys-3 Flr-4 Sch-H HPlcmt-west ZN NECB System 3 PSZ Occ Sch Sunday, !- Sunday Schedule:Day Name\n   *************   7993   Sp-IC_PatRoom3_Mult6_Flr_2 Sys-3 Flr-4 Sch-H HPlcmt-west ZN NECB System 3 PSZ Occ Sch Monday, !- Monday Schedule:Day Name\n   *************   7994   Sp-IC_PatRoom3_Mult6_Flr_2 Sys-3 Flr-4 Sch-H HPlcmt-west ZN NECB System 3 PSZ Occ Sch Tuesday, !- Tuesday Schedule:Day Name\n   *************   7995   Sp-IC_PatRoom3_Mult6_Flr_2 Sys-3 Flr-4 Sch-H HPlcmt-west ZN NECB System 3 PSZ Occ Sch Wednesday, !- Wednesday Schedule:Day Name\n   *************   7996   Sp-IC_PatRoom3_Mult6_Flr_2 Sys-3 Flr-4 Sch-H HPlcmt-west ZN NECB System 3 PSZ Occ Sch Thursday, !- Thursday Schedule:Day Name\n   *************   7997   Sp-IC_PatRoom3_Mult6_Flr_2 Sys-3 Flr-4 Sch-H HPlcmt-west ZN NECB System 3 PSZ Occ Sch Friday, !- Friday Schedule:Day Name\n   *************   7998   Sp-IC_PatRoom3_Mult6_Flr_2 Sys-3 Flr-4 Sch-H HPlcmt-west ZN NECB System 3 PSZ Occ Sch Saturday, !- Saturday Schedule:Day Name\n   *************   7999   Sp-IC_PatRoom3_Mult6_Flr_2 Sys-3 Flr-4 Sch-H HPlcmt-west ZN NECB System 3 PSZ Occ Sch Default, !- Holiday Schedule:Day Name\n   *************   8000   Sp-IC_PatRoom3_Mult6_Flr_2 Sys-3 Flr-4 Sch-H HPlcmt-west ZN NECB System 3 PSZ Occ Sch Summer Design Day, !- SummerDesignDay Schedule:Day Name\n   *************   8001   Sp-IC_PatRoom3_Mult6_Flr_2 Sys-3 Flr-4 Sch-H HPlcmt-west ZN NECB System 3 PSZ Occ Sch Winter Design Day, !- WinterDesignDay Schedule:Day Name\n   ** Warning ** IP: IDF line~8001 Alpha Argument length exceeds maximum, will be truncated=  Sp-IC_PatRoom3_Mult6_Flr_2 Sys-3 Flr-4 Sch-H HPlcmt-west ZN NECB System 3 PSZ Occ Sch Winter Design Da\n   **   ~~~   ** Will be processed as Alpha=SP-IC_PATROOM3_MULT6_FLR_2 SYS-3 FLR-4 SCH-H HPLCMT-WEST ZN NECB SYSTEM 3 PSZ OCC SCH WINTER DESIGN DAY\n   ************* IDF Context for following error/warning message:\n   ************* Note -- lines truncated at 300 characters, if necessary...\n   *************   8021 Schedule:Day:Interval,\n   ************* indicated Name=Sp-IC_PatRoom3_Mult6_Flr_2 Sys-3 Flr-4 Sch-H HPlcmt-west ZN NECB System 3 PSZ Occ Sch Summer Design Day\n   ************* Only last 1 lines before error line shown.....\n   *************   8022   Sp-IC_PatRoom3_Mult6_Flr_2 Sys-3 Flr-4 Sch-H HPlcmt-west ZN NECB System 3 PSZ Occ Sch Summer Design Day, !- Name\n   ** Warning ** IP: IDF line~8022 Alpha Argument length exceeds maximum, will be truncated=  Sp-IC_PatRoom3_Mult6_Flr_2 Sys-3 Flr-4 Sch-H HPlcmt-west ZN NECB System 3 PSZ Occ Sch Summer Design Da\n   **   ~~~   ** Will be processed as Alpha=SP-IC_PATROOM3_MULT6_FLR_2 SYS-3 FLR-4 SCH-H HPLCMT-WEST ZN NECB SYSTEM 3 PSZ OCC SCH SUMMER DESIGN DAY\n   ************* IDF Context for following error/warning message:\n   ************* Note -- lines truncated at 300 characters, if necessary...\n   *************   8028 Schedule:Day:Interval,\n   ************* indicated Name=Sp-IC_PatRoom3_Mult6_Flr_2 Sys-3 Flr-4 Sch-H HPlcmt-west ZN NECB System 3 PSZ Occ Sch Winter Design Day\n   ************* Only last 1 lines before error line shown.....\n   *************   8029   Sp-IC_PatRoom3_Mult6_Flr_2 Sys-3 Flr-4 Sch-H HPlcmt-west ZN NECB System 3 PSZ Occ Sch Winter Design Day, !- Name\n   ** Warning ** IP: IDF line~8029 Alpha Argument length exceeds maximum, will be truncated=  Sp-IC_PatRoom3_Mult6_Flr_2 Sys-3 Flr-4 Sch-H HPlcmt-west ZN NECB System 3 PSZ Occ Sch Winter Design Da\n   **   ~~~   ** Will be processed as Alpha=SP-IC_PATROOM3_MULT6_FLR_2 SYS-3 FLR-4 SCH-H HPLCMT-WEST ZN NECB SYSTEM 3 PSZ OCC SCH WINTER DESIGN DAY\n   ************* IDF Context for following error/warning message:\n   ************* Note -- lines truncated at 300 characters, if necessary...\n   *************  10685 Schedule:Week:Daily,\n   ************* indicated Name=Schedule:Week:Daily {dc22063b-ff72-45ad-aa46-a6c70dbb324d}\n   ************* Only last 10 lines before error line shown.....\n   *************  10686   Schedule:Week:Daily {dc22063b-ff72-45ad-aa46-a6c70dbb324d}, !- Name\n   *************  10687   Sp-NurseStn_Lobby_Flr_5 Sys-3 Flr-6 Sch-H HPlcmt-south ZN NECB System 3 PSZ Occ Sch Sunday, !- Sunday Schedule:Day Name\n   *************  10688   Sp-NurseStn_Lobby_Flr_5 Sys-3 Flr-6 Sch-H HPlcmt-south ZN NECB System 3 PSZ Occ Sch Monday, !- Monday Schedule:Day Name\n   *************  10689   Sp-NurseStn_Lobby_Flr_5 Sys-3 Flr-6 Sch-H HPlcmt-south ZN NECB System 3 PSZ Occ Sch Tuesday, !- Tuesday Schedule:Day Name\n   *************  10690   Sp-NurseStn_Lobby_Flr_5 Sys-3 Flr-6 Sch-H HPlcmt-south ZN NECB System 3 PSZ Occ Sch Wednesday, !- Wednesday Schedule:Day Name\n   *************  10691   Sp-NurseStn_Lobby_Flr_5 Sys-3 Flr-6 Sch-H HPlcmt-south ZN NECB System 3 PSZ Occ Sch Thursday, !- Thursday Schedule:Day Name\n   *************  10692   Sp-NurseStn_Lobby_Flr_5 Sys-3 Flr-6 Sch-H HPlcmt-south ZN NECB System 3 PSZ Occ Sch Friday, !- Friday Schedule:Day Name\n   *************  10693   Sp-NurseStn_Lobby_Flr_5 Sys-3 Flr-6 Sch-H HPlcmt-south ZN NECB System 3 PSZ Occ Sch Saturday, !- Saturday Schedule:Day Name\n   *************  10694   Sp-NurseStn_Lobby_Flr_5 Sys-3 Flr-6 Sch-H HPlcmt-south ZN NECB System 3 PSZ Occ Sch Default, !- Holiday Schedule:Day Name\n   *************  10695   Sp-NurseStn_Lobby_Flr_5 Sys-3 Flr-6 Sch-H HPlcmt-south ZN NECB System 3 PSZ Occ Sch Summer Design Day, !- SummerDesignDay Schedule:Day Name\n   ** Warning ** IP: IDF line~10695 Alpha Argument length exceeds maximum, will be truncated=  Sp-NurseStn_Lobby_Flr_5 Sys-3 Flr-6 Sch-H HPlcmt-south ZN NECB System 3 PSZ Occ Sch Summer Design Da\n   **   ~~~   ** Will be processed as Alpha=SP-NURSESTN_LOBBY_FLR_5 SYS-3 FLR-6 SCH-H HPLCMT-SOUTH ZN NECB SYSTEM 3 PSZ OCC SCH SUMMER DESIGN DAY\n   ************* IDF Context for following error/warning message:\n   ************* Note -- lines truncated at 300 characters, if necessary...\n   *************  10685 Schedule:Week:Daily,\n   ************* indicated Name=Schedule:Week:Daily {dc22063b-ff72-45ad-aa46-a6c70dbb324d}\n   ************* Only last 10 lines before error line shown.....\n   *************  10687   Sp-NurseStn_Lobby_Flr_5 Sys-3 Flr-6 Sch-H HPlcmt-south ZN NECB System 3 PSZ Occ Sch Sunday, !- Sunday Schedule:Day Name\n   *************  10688   Sp-NurseStn_Lobby_Flr_5 Sys-3 Flr-6 Sch-H HPlcmt-south ZN NECB System 3 PSZ Occ Sch Monday, !- Monday Schedule:Day Name\n   *************  10689   Sp-NurseStn_Lobby_Flr_5 Sys-3 Flr-6 Sch-H HPlcmt-south ZN NECB System 3 PSZ Occ Sch Tuesday, !- Tuesday Schedule:Day Name\n   *************  10690   Sp-NurseStn_Lobby_Flr_5 Sys-3 Flr-6 Sch-H HPlcmt-south ZN NECB System 3 PSZ Occ Sch Wednesday, !- Wednesday Schedule:Day Name\n   *************  10691   Sp-NurseStn_Lobby_Flr_5 Sys-3 Flr-6 Sch-H HPlcmt-south ZN NECB System 3 PSZ Occ Sch Thursday, !- Thursday Schedule:Day Name\n   *************  10692   Sp-NurseStn_Lobby_Flr_5 Sys-3 Flr-6 Sch-H HPlcmt-south ZN NECB System 3 PSZ Occ Sch Friday, !- Friday Schedule:Day Name\n   *************  10693   Sp-NurseStn_Lobby_Flr_5 Sys-3 Flr-6 Sch-H HPlcmt-south ZN NECB System 3 PSZ Occ Sch Saturday, !- Saturday Schedule:Day Name\n   *************  10694   Sp-NurseStn_Lobby_Flr_5 Sys-3 Flr-6 Sch-H HPlcmt-south ZN NECB System 3 PSZ Occ Sch Default, !- Holiday Schedule:Day Name\n   *************  10695   Sp-NurseStn_Lobby_Flr_5 Sys-3 Flr-6 Sch-H HPlcmt-south ZN NECB System 3 PSZ Occ Sch Summer Design Day, !- SummerDesignDay Schedule:Day Name\n   *************  10696   Sp-NurseStn_Lobby_Flr_5 Sys-3 Flr-6 Sch-H HPlcmt-south ZN NECB System 3 PSZ Occ Sch Winter Design Day, !- WinterDesignDay Schedule:Day Name\n   ** Warning ** IP: IDF line~10696 Alpha Argument length exceeds maximum, will be truncated=  Sp-NurseStn_Lobby_Flr_5 Sys-3 Flr-6 Sch-H HPlcmt-south ZN NECB System 3 PSZ Occ Sch Winter Design Da\n   **   ~~~   ** Will be processed as Alpha=SP-NURSESTN_LOBBY_FLR_5 SYS-3 FLR-6 SCH-H HPLCMT-SOUTH ZN NECB SYSTEM 3 PSZ OCC SCH WINTER DESIGN DAY\n   ************* IDF Context for following error/warning message:\n   ************* Note -- lines truncated at 300 characters, if necessary...\n   *************  10716 Schedule:Day:Interval,\n   ************* indicated Name=Sp-NurseStn_Lobby_Flr_5 Sys-3 Flr-6 Sch-H HPlcmt-south ZN NECB System 3 PSZ Occ Sch Summer Design Day\n   ************* Only last 1 lines before error line shown.....\n   *************  10717   Sp-NurseStn_Lobby_Flr_5 Sys-3 Flr-6 Sch-H HPlcmt-south ZN NECB System 3 PSZ Occ Sch Summer Design Day, !- Name\n   ** Warning ** IP: IDF line~10717 Alpha Argument length exceeds maximum, will be truncated=  Sp-NurseStn_Lobby_Flr_5 Sys-3 Flr-6 Sch-H HPlcmt-south ZN NECB System 3 PSZ Occ Sch Summer Design Da\n   **   ~~~   ** Will be processed as Alpha=SP-NURSESTN_LOBBY_FLR_5 SYS-3 FLR-6 SCH-H HPLCMT-SOUTH ZN NECB SYSTEM 3 PSZ OCC SCH SUMMER DESIGN DAY\n   ************* IDF Context for following error/warning message:\n   ************* Note -- lines truncated at 300 characters, if necessary...\n   *************  10723 Schedule:Day:Interval,\n   ************* indicated Name=Sp-NurseStn_Lobby_Flr_5 Sys-3 Flr-6 Sch-H HPlcmt-south ZN NECB System 3 PSZ Occ Sch Winter Design Day\n   ************* Only last 1 lines before error line shown.....\n   *************  10724   Sp-NurseStn_Lobby_Flr_5 Sys-3 Flr-6 Sch-H HPlcmt-south ZN NECB System 3 PSZ Occ Sch Winter Design Day, !- Name\n   ** Warning ** IP: IDF line~10724 Alpha Argument length exceeds maximum, will be truncated=  Sp-NurseStn_Lobby_Flr_5 Sys-3 Flr-6 Sch-H HPlcmt-south ZN NECB System 3 PSZ Occ Sch Winter Design Da\n   **   ~~~   ** Will be processed as Alpha=SP-NURSESTN_LOBBY_FLR_5 SYS-3 FLR-6 SCH-H HPLCMT-SOUTH ZN NECB SYSTEM 3 PSZ OCC SCH WINTER DESIGN DAY\n   ************* IDF Context for following error/warning message:\n   ************* Note -- lines truncated at 300 characters, if necessary...\n   *************  13860 Schedule:Week:Daily,\n   ************* indicated Name=Schedule:Week:Daily {16bd96ee-c317-48e2-90ee-a5884f6ba237}\n   ************* Only last 10 lines before error line shown.....\n   *************  13861   Schedule:Week:Daily {16bd96ee-c317-48e2-90ee-a5884f6ba237}, !- Name\n   *************  13862   Sp-OR_NurseStn_Lobby_Flr_2 Sys-3 Flr-4 Sch-H HPlcmt-south ZN NECB System 3 PSZ Occ Sch Sunday, !- Sunday Schedule:Day Name\n   *************  13863   Sp-OR_NurseStn_Lobby_Flr_2 Sys-3 Flr-4 Sch-H HPlcmt-south ZN NECB System 3 PSZ Occ Sch Monday, !- Monday Schedule:Day Name\n   *************  13864   Sp-OR_NurseStn_Lobby_Flr_2 Sys-3 Flr-4 Sch-H HPlcmt-south ZN NECB System 3 PSZ Occ Sch Tuesday, !- Tuesday Schedule:Day Name\n   *************  13865   Sp-OR_NurseStn_Lobby_Flr_2 Sys-3 Flr-4 Sch-H HPlcmt-south ZN NECB System 3 PSZ Occ Sch Wednesday, !- Wednesday Schedule:Day Name\n   *************  13866   Sp-OR_NurseStn_Lobby_Flr_2 Sys-3 Flr-4 Sch-H HPlcmt-south ZN NECB System 3 PSZ Occ Sch Thursday, !- Thursday Schedule:Day Name\n   *************  13867   Sp-OR_NurseStn_Lobby_Flr_2 Sys-3 Flr-4 Sch-H HPlcmt-south ZN NECB System 3 PSZ Occ Sch Friday, !- Friday Schedule:Day Name\n   *************  13868   Sp-OR_NurseStn_Lobby_Flr_2 Sys-3 Flr-4 Sch-H HPlcmt-south ZN NECB System 3 PSZ Occ Sch Saturday, !- Saturday Schedule:Day Name\n   *************  13869   Sp-OR_NurseStn_Lobby_Flr_2 Sys-3 Flr-4 Sch-H HPlcmt-south ZN NECB System 3 PSZ Occ Sch Default, !- Holiday Schedule:Day Name\n   *************  13870   Sp-OR_NurseStn_Lobby_Flr_2 Sys-3 Flr-4 Sch-H HPlcmt-south ZN NECB System 3 PSZ Occ Sch Summer Design Day, !- SummerDesignDay Schedule:Day Name\n   ** Warning ** IP: IDF line~13870 Alpha Argument length exceeds maximum, will be truncated=  Sp-OR_NurseStn_Lobby_Flr_2 Sys-3 Flr-4 Sch-H HPlcmt-south ZN NECB System 3 PSZ Occ Sch Summer Design Da\n   **   ~~~   ** Will be processed as Alpha=SP-OR_NURSESTN_LOBBY_FLR_2 SYS-3 FLR-4 SCH-H HPLCMT-SOUTH ZN NECB SYSTEM 3 PSZ OCC SCH SUMMER DESIGN DAY\n   ************* IDF Context for following error/warning message:\n   ************* Note -- lines truncated at 300 characters, if necessary...\n   *************  13860 Schedule:Week:Daily,\n   ************* indicated Name=Schedule:Week:Daily {16bd96ee-c317-48e2-90ee-a5884f6ba237}\n   ************* Only last 10 lines before error line shown.....\n   *************  13862   Sp-OR_NurseStn_Lobby_Flr_2 Sys-3 Flr-4 Sch-H HPlcmt-south ZN NECB System 3 PSZ Occ Sch Sunday, !- Sunday Schedule:Day Name\n   *************  13863   Sp-OR_NurseStn_Lobby_Flr_2 Sys-3 Flr-4 Sch-H HPlcmt-south ZN NECB System 3 PSZ Occ Sch Monday, !- Monday Schedule:Day Name\n   *************  13864   Sp-OR_NurseStn_Lobby_Flr_2 Sys-3 Flr-4 Sch-H HPlcmt-south ZN NECB System 3 PSZ Occ Sch Tuesday, !- Tuesday Schedule:Day Name\n   *************  13865   Sp-OR_NurseStn_Lobby_Flr_2 Sys-3 Flr-4 Sch-H HPlcmt-south ZN NECB System 3 PSZ Occ Sch Wednesday, !- Wednesday Schedule:Day Name\n   *************  13866   Sp-OR_NurseStn_Lobby_Flr_2 Sys-3 Flr-4 Sch-H HPlcmt-south ZN NECB System 3 PSZ Occ Sch Thursday, !- Thursday Schedule:Day Name\n   *************  13867   Sp-OR_NurseStn_Lobby_Flr_2 Sys-3 Flr-4 Sch-H HPlcmt-south ZN NECB System 3 PSZ Occ Sch Friday, !- Friday Schedule:Day Name\n   *************  13868   Sp-OR_NurseStn_Lobby_Flr_2 Sys-3 Flr-4 Sch-H HPlcmt-south ZN NECB System 3 PSZ Occ Sch Saturday, !- Saturday Schedule:Day Name\n   *************  13869   Sp-OR_NurseStn_Lobby_Flr_2 Sys-3 Flr-4 Sch-H HPlcmt-south ZN NECB System 3 PSZ Occ Sch Default, !- Holiday Schedule:Day Name\n   *************  13870   Sp-OR_NurseStn_Lobby_Flr_2 Sys-3 Flr-4 Sch-H HPlcmt-south ZN NECB System 3 PSZ Occ Sch Summer Design Day, !- SummerDesignDay Schedule:Day Name\n   *************  13871   Sp-OR_NurseStn_Lobby_Flr_2 Sys-3 Flr-4 Sch-H HPlcmt-south ZN NECB System 3 PSZ Occ Sch Winter Design Day, !- WinterDesignDay Schedule:Day Name\n   ** Warning ** IP: IDF line~13871 Alpha Argument length exceeds maximum, will be truncated=  Sp-OR_NurseStn_Lobby_Flr_2 Sys-3 Flr-4 Sch-H HPlcmt-south ZN NECB System 3 PSZ Occ Sch Winter Design Da\n   **   ~~~   ** Will be processed as Alpha=SP-OR_NURSESTN_LOBBY_FLR_2 SYS-3 FLR-4 SCH-H HPLCMT-SOUTH ZN NECB SYSTEM 3 PSZ OCC SCH WINTER DESIGN DAY\n   ************* IDF Context for following error/warning message:\n   ************* Note -- lines truncated at 300 characters, if necessary...\n   *************  13891 Schedule:Day:Interval,\n   ************* indicated Name=Sp-OR_NurseStn_Lobby_Flr_2 Sys-3 Flr-4 Sch-H HPlcmt-south ZN NECB System 3 PSZ Occ Sch Summer Design Day\n   ************* Only last 1 lines before error line shown.....\n   *************  13892   Sp-OR_NurseStn_Lobby_Flr_2 Sys-3 Flr-4 Sch-H HPlcmt-south ZN NECB System 3 PSZ Occ Sch Summer Design Day, !- Name\n   ** Warning ** IP: IDF line~13892 Alpha Argument length exceeds maximum, will be truncated=  Sp-OR_NurseStn_Lobby_Flr_2 Sys-3 Flr-4 Sch-H HPlcmt-south ZN NECB System 3 PSZ Occ Sch Summer Design Da\n   **   ~~~   ** Will be processed as Alpha=SP-OR_NURSESTN_LOBBY_FLR_2 SYS-3 FLR-4 SCH-H HPLCMT-SOUTH ZN NECB SYSTEM 3 PSZ OCC SCH SUMMER DESIGN DAY\n   ************* IDF Context for following error/warning message:\n   ************* Note -- lines truncated at 300 characters, if necessary...\n   *************  13898 Schedule:Day:Interval,\n   ************* indicated Name=Sp-OR_NurseStn_Lobby_Flr_2 Sys-3 Flr-4 Sch-H HPlcmt-south ZN NECB System 3 PSZ Occ Sch Winter Design Day\n   ************* Only last 1 lines before error line shown.....\n   *************  13899   Sp-OR_NurseStn_Lobby_Flr_2 Sys-3 Flr-4 Sch-H HPlcmt-south ZN NECB System 3 PSZ Occ Sch Winter Design Day, !- Name\n   ** Warning ** IP: IDF line~13899 Alpha Argument length exceeds maximum, will be truncated=  Sp-OR_NurseStn_Lobby_Flr_2 Sys-3 Flr-4 Sch-H HPlcmt-south ZN NECB System 3 PSZ Occ Sch Winter Design Da\n   **   ~~~   ** Will be processed as Alpha=SP-OR_NURSESTN_LOBBY_FLR_2 SYS-3 FLR-4 SCH-H HPLCMT-SOUTH ZN NECB SYSTEM 3 PSZ OCC SCH WINTER DESIGN DAY\n   ************* IDF Context for following error/warning message:\n   ************* Note -- lines truncated at 300 characters, if necessary...\n   *************  14203 Schedule:Week:Daily,\n   ************* indicated Name=Schedule:Week:Daily {37b04634-adba-42d6-bf20-4295a835400f}\n   ************* Only last 10 lines before error line shown.....\n   *************  14204   Schedule:Week:Daily {37b04634-adba-42d6-bf20-4295a835400f}, !- Name\n   *************  14205   Sp-PatRoom1_Mult10_Flr_3 Sys-3 Flr-2 Sch-H HPlcmt-south ZN NECB System 3 PSZ Occ Sch Sunday, !- Sunday Schedule:Day Name\n   *************  14206   Sp-PatRoom1_Mult10_Flr_3 Sys-3 Flr-2 Sch-H HPlcmt-south ZN NECB System 3 PSZ Occ Sch Monday, !- Monday Schedule:Day Name\n   *************  14207   Sp-PatRoom1_Mult10_Flr_3 Sys-3 Flr-2 Sch-H HPlcmt-south ZN NECB System 3 PSZ Occ Sch Tuesday, !- Tuesday Schedule:Day Name\n   *************  14208   Sp-PatRoom1_Mult10_Flr_3 Sys-3 Flr-2 Sch-H HPlcmt-south ZN NECB System 3 PSZ Occ Sch Wednesday, !- Wednesday Schedule:Day Name\n   *************  14209   Sp-PatRoom1_Mult10_Flr_3 Sys-3 Flr-2 Sch-H HPlcmt-south ZN NECB System 3 PSZ Occ Sch Thursday, !- Thursday Schedule:Day Name\n   *************  14210   Sp-PatRoom1_Mult10_Flr_3 Sys-3 Flr-2 Sch-H HPlcmt-south ZN NECB System 3 PSZ Occ Sch Friday, !- Friday Schedule:Day Name\n   *************  14211   Sp-PatRoom1_Mult10_Flr_3 Sys-3 Flr-2 Sch-H HPlcmt-south ZN NECB System 3 PSZ Occ Sch Saturday, !- Saturday Schedule:Day Name\n   *************  14212   Sp-PatRoom1_Mult10_Flr_3 Sys-3 Flr-2 Sch-H HPlcmt-south ZN NECB System 3 PSZ Occ Sch Default, !- Holiday Schedule:Day Name\n   *************  14213   Sp-PatRoom1_Mult10_Flr_3 Sys-3 Flr-2 Sch-H HPlcmt-south ZN NECB System 3 PSZ Occ Sch Summer Design Day, !- SummerDesignDay Schedule:Day Name\n   ** Warning ** IP: IDF line~14213 Alpha Argument length exceeds maximum, will be truncated=  Sp-PatRoom1_Mult10_Flr_3 Sys-3 Flr-2 Sch-H HPlcmt-south ZN NECB System 3 PSZ Occ Sch Summer Design Da\n   **   ~~~   ** Will be processed as Alpha=SP-PATROOM1_MULT10_FLR_3 SYS-3 FLR-2 SCH-H HPLCMT-SOUTH ZN NECB SYSTEM 3 PSZ OCC SCH SUMMER DESIGN DAY\n   ************* IDF Context for following error/warning message:\n   ************* Note -- lines truncated at 300 characters, if necessary...\n   *************  14203 Schedule:Week:Daily,\n   ************* indicated Name=Schedule:Week:Daily {37b04634-adba-42d6-bf20-4295a835400f}\n   ************* Only last 10 lines before error line shown.....\n   *************  14205   Sp-PatRoom1_Mult10_Flr_3 Sys-3 Flr-2 Sch-H HPlcmt-south ZN NECB System 3 PSZ Occ Sch Sunday, !- Sunday Schedule:Day Name\n   *************  14206   Sp-PatRoom1_Mult10_Flr_3 Sys-3 Flr-2 Sch-H HPlcmt-south ZN NECB System 3 PSZ Occ Sch Monday, !- Monday Schedule:Day Name\n   *************  14207   Sp-PatRoom1_Mult10_Flr_3 Sys-3 Flr-2 Sch-H HPlcmt-south ZN NECB System 3 PSZ Occ Sch Tuesday, !- Tuesday Schedule:Day Name\n   *************  14208   Sp-PatRoom1_Mult10_Flr_3 Sys-3 Flr-2 Sch-H HPlcmt-south ZN NECB System 3 PSZ Occ Sch Wednesday, !- Wednesday Schedule:Day Name\n   *************  14209   Sp-PatRoom1_Mult10_Flr_3 Sys-3 Flr-2 Sch-H HPlcmt-south ZN NECB System 3 PSZ Occ Sch Thursday, !- Thursday Schedule:Day Name\n   *************  14210   Sp-PatRoom1_Mult10_Flr_3 Sys-3 Flr-2 Sch-H HPlcmt-south ZN NECB System 3 PSZ Occ Sch Friday, !- Friday Schedule:Day Name\n   *************  14211   Sp-PatRoom1_Mult10_Flr_3 Sys-3 Flr-2 Sch-H HPlcmt-south ZN NECB System 3 PSZ Occ Sch Saturday, !- Saturday Schedule:Day Name\n   *************  14212   Sp-PatRoom1_Mult10_Flr_3 Sys-3 Flr-2 Sch-H HPlcmt-south ZN NECB System 3 PSZ Occ Sch Default, !- Holiday Schedule:Day Name\n   *************  14213   Sp-PatRoom1_Mult10_Flr_3 Sys-3 Flr-2 Sch-H HPlcmt-south ZN NECB System 3 PSZ Occ Sch Summer Design Day, !- SummerDesignDay Schedule:Day Name\n   *************  14214   Sp-PatRoom1_Mult10_Flr_3 Sys-3 Flr-2 Sch-H HPlcmt-south ZN NECB System 3 PSZ Occ Sch Winter Design Day, !- WinterDesignDay Schedule:Day Name\n   ** Warning ** IP: IDF line~14214 Alpha Argument length exceeds maximum, will be truncated=  Sp-PatRoom1_Mult10_Flr_3 Sys-3 Flr-2 Sch-H HPlcmt-south ZN NECB System 3 PSZ Occ Sch Winter Design Da\n   **   ~~~   ** Will be processed as Alpha=SP-PATROOM1_MULT10_FLR_3 SYS-3 FLR-2 SCH-H HPLCMT-SOUTH ZN NECB SYSTEM 3 PSZ OCC SCH WINTER DESIGN DAY\n   ************* IDF Context for following error/warning message:\n   ************* Note -- lines truncated at 300 characters, if necessary...\n   *************  14234 Schedule:Day:Interval,\n   ************* indicated Name=Sp-PatRoom1_Mult10_Flr_3 Sys-3 Flr-2 Sch-H HPlcmt-south ZN NECB System 3 PSZ Occ Sch Summer Design Day\n   ************* Only last 1 lines before error line shown.....\n   *************  14235   Sp-PatRoom1_Mult10_Flr_3 Sys-3 Flr-2 Sch-H HPlcmt-south ZN NECB System 3 PSZ Occ Sch Summer Design Day, !- Name\n   ** Warning ** IP: IDF line~14235 Alpha Argument length exceeds maximum, will be truncated=  Sp-PatRoom1_Mult10_Flr_3 Sys-3 Flr-2 Sch-H HPlcmt-south ZN NECB System 3 PSZ Occ Sch Summer Design Da\n   **   ~~~   ** Will be processed as Alpha=SP-PATROOM1_MULT10_FLR_3 SYS-3 FLR-2 SCH-H HPLCMT-SOUTH ZN NECB SYSTEM 3 PSZ OCC SCH SUMMER DESIGN DAY\n   ************* IDF Context for following error/warning message:\n   ************* Note -- lines truncated at 300 characters, if necessary...\n   *************  14241 Schedule:Day:Interval,\n   ************* indicated Name=Sp-PatRoom1_Mult10_Flr_3 Sys-3 Flr-2 Sch-H HPlcmt-south ZN NECB System 3 PSZ Occ Sch Winter Design Day\n   ************* Only last 1 lines before error line shown.....\n   *************  14242   Sp-PatRoom1_Mult10_Flr_3 Sys-3 Flr-2 Sch-H HPlcmt-south ZN NECB System 3 PSZ Occ Sch Winter Design Day, !- Name\n   ** Warning ** IP: IDF line~14242 Alpha Argument length exceeds maximum, will be truncated=  Sp-PatRoom1_Mult10_Flr_3 Sys-3 Flr-2 Sch-H HPlcmt-south ZN NECB System 3 PSZ Occ Sch Winter Design Da\n   **   ~~~   ** Will be processed as Alpha=SP-PATROOM1_MULT10_FLR_3 SYS-3 FLR-2 SCH-H HPLCMT-SOUTH ZN NECB SYSTEM 3 PSZ OCC SCH WINTER DESIGN DAY\n   ************* IDF Context for following error/warning message:\n   ************* Note -- lines truncated at 300 characters, if necessary...\n   *************  14546 Schedule:Week:Daily,\n   ************* indicated Name=Schedule:Week:Daily {0770ce8e-e483-4b0b-acbd-f11532ab4220}\n   ************* Only last 10 lines before error line shown.....\n   *************  14547   Schedule:Week:Daily {0770ce8e-e483-4b0b-acbd-f11532ab4220}, !- Name\n   *************  14548   Sp-PatRoom1_Mult10_Flr_4 Sys-3 Flr-3 Sch-H HPlcmt-south ZN NECB System 3 PSZ Occ Sch Sunday, !- Sunday Schedule:Day Name\n   *************  14549   Sp-PatRoom1_Mult10_Flr_4 Sys-3 Flr-3 Sch-H HPlcmt-south ZN NECB System 3 PSZ Occ Sch Monday, !- Monday Schedule:Day Name\n   *************  14550   Sp-PatRoom1_Mult10_Flr_4 Sys-3 Flr-3 Sch-H HPlcmt-south ZN NECB System 3 PSZ Occ Sch Tuesday, !- Tuesday Schedule:Day Name\n   *************  14551   Sp-PatRoom1_Mult10_Flr_4 Sys-3 Flr-3 Sch-H HPlcmt-south ZN NECB System 3 PSZ Occ Sch Wednesday, !- Wednesday Schedule:Day Name\n   *************  14552   Sp-PatRoom1_Mult10_Flr_4 Sys-3 Flr-3 Sch-H HPlcmt-south ZN NECB System 3 PSZ Occ Sch Thursday, !- Thursday Schedule:Day Name\n   *************  14553   Sp-PatRoom1_Mult10_Flr_4 Sys-3 Flr-3 Sch-H HPlcmt-south ZN NECB System 3 PSZ Occ Sch Friday, !- Friday Schedule:Day Name\n   *************  14554   Sp-PatRoom1_Mult10_Flr_4 Sys-3 Flr-3 Sch-H HPlcmt-south ZN NECB System 3 PSZ Occ Sch Saturday, !- Saturday Schedule:Day Name\n   *************  14555   Sp-PatRoom1_Mult10_Flr_4 Sys-3 Flr-3 Sch-H HPlcmt-south ZN NECB System 3 PSZ Occ Sch Default, !- Holiday Schedule:Day Name\n   *************  14556   Sp-PatRoom1_Mult10_Flr_4 Sys-3 Flr-3 Sch-H HPlcmt-south ZN NECB System 3 PSZ Occ Sch Summer Design Day, !- SummerDesignDay Schedule:Day Name\n   ** Warning ** IP: IDF line~14556 Alpha Argument length exceeds maximum, will be truncated=  Sp-PatRoom1_Mult10_Flr_4 Sys-3 Flr-3 Sch-H HPlcmt-south ZN NECB System 3 PSZ Occ Sch Summer Design Da\n   **   ~~~   ** Will be processed as Alpha=SP-PATROOM1_MULT10_FLR_4 SYS-3 FLR-3 SCH-H HPLCMT-SOUTH ZN NECB SYSTEM 3 PSZ OCC SCH SUMMER DESIGN DAY\n   ************* IDF Context for following error/warning message:\n   ************* Note -- lines truncated at 300 characters, if necessary...\n   *************  14546 Schedule:Week:Daily,\n   ************* indicated Name=Schedule:Week:Daily {0770ce8e-e483-4b0b-acbd-f11532ab4220}\n   ************* Only last 10 lines before error line shown.....\n   *************  14548   Sp-PatRoom1_Mult10_Flr_4 Sys-3 Flr-3 Sch-H HPlcmt-south ZN NECB System 3 PSZ Occ Sch Sunday, !- Sunday Schedule:Day Name\n   *************  14549   Sp-PatRoom1_Mult10_Flr_4 Sys-3 Flr-3 Sch-H HPlcmt-south ZN NECB System 3 PSZ Occ Sch Monday, !- Monday Schedule:Day Name\n   *************  14550   Sp-PatRoom1_Mult10_Flr_4 Sys-3 Flr-3 Sch-H HPlcmt-south ZN NECB System 3 PSZ Occ Sch Tuesday, !- Tuesday Schedule:Day Name\n   *************  14551   Sp-PatRoom1_Mult10_Flr_4 Sys-3 Flr-3 Sch-H HPlcmt-south ZN NECB System 3 PSZ Occ Sch Wednesday, !- Wednesday Schedule:Day Name\n   *************  14552   Sp-PatRoom1_Mult10_Flr_4 Sys-3 Flr-3 Sch-H HPlcmt-south ZN NECB System 3 PSZ Occ Sch Thursday, !- Thursday Schedule:Day Name\n   *************  14553   Sp-PatRoom1_Mult10_Flr_4 Sys-3 Flr-3 Sch-H HPlcmt-south ZN NECB System 3 PSZ Occ Sch Friday, !- Friday Schedule:Day Name\n   *************  14554   Sp-PatRoom1_Mult10_Flr_4 Sys-3 Flr-3 Sch-H HPlcmt-south ZN NECB System 3 PSZ Occ Sch Saturday, !- Saturday Schedule:Day Name\n   *************  14555   Sp-PatRoom1_Mult10_Flr_4 Sys-3 Flr-3 Sch-H HPlcmt-south ZN NECB System 3 PSZ Occ Sch Default, !- Holiday Schedule:Day Name\n   *************  14556   Sp-PatRoom1_Mult10_Flr_4 Sys-3 Flr-3 Sch-H HPlcmt-south ZN NECB System 3 PSZ Occ Sch Summer Design Day, !- SummerDesignDay Schedule:Day Name\n   *************  14557   Sp-PatRoom1_Mult10_Flr_4 Sys-3 Flr-3 Sch-H HPlcmt-south ZN NECB System 3 PSZ Occ Sch Winter Design Day, !- WinterDesignDay Schedule:Day Name\n   ** Warning ** IP: IDF line~14557 Alpha Argument length exceeds maximum, will be truncated=  Sp-PatRoom1_Mult10_Flr_4 Sys-3 Flr-3 Sch-H HPlcmt-south ZN NECB System 3 PSZ Occ Sch Winter Design Da\n   **   ~~~   ** Will be processed as Alpha=SP-PATROOM1_MULT10_FLR_4 SYS-3 FLR-3 SCH-H HPLCMT-SOUTH ZN NECB SYSTEM 3 PSZ OCC SCH WINTER DESIGN DAY\n   ************* IDF Context for following error/warning message:\n   ************* Note -- lines truncated at 300 characters, if necessary...\n   *************  14577 Schedule:Day:Interval,\n   ************* indicated Name=Sp-PatRoom1_Mult10_Flr_4 Sys-3 Flr-3 Sch-H HPlcmt-south ZN NECB System 3 PSZ Occ Sch Summer Design Day\n   ************* Only last 1 lines before error line shown.....\n   *************  14578   Sp-PatRoom1_Mult10_Flr_4 Sys-3 Flr-3 Sch-H HPlcmt-south ZN NECB System 3 PSZ Occ Sch Summer Design Day, !- Name\n   ** Warning ** IP: IDF line~14578 Alpha Argument length exceeds maximum, will be truncated=  Sp-PatRoom1_Mult10_Flr_4 Sys-3 Flr-3 Sch-H HPlcmt-south ZN NECB System 3 PSZ Occ Sch Summer Design Da\n   **   ~~~   ** Will be processed as Alpha=SP-PATROOM1_MULT10_FLR_4 SYS-3 FLR-3 SCH-H HPLCMT-SOUTH ZN NECB SYSTEM 3 PSZ OCC SCH SUMMER DESIGN DAY\n   ************* IDF Context for following error/warning message:\n   ************* Note -- lines truncated at 300 characters, if necessary...\n   *************  14584 Schedule:Day:Interval,\n   ************* indicated Name=Sp-PatRoom1_Mult10_Flr_4 Sys-3 Flr-3 Sch-H HPlcmt-south ZN NECB System 3 PSZ Occ Sch Winter Design Day\n   ************* Only last 1 lines before error line shown.....\n   *************  14585   Sp-PatRoom1_Mult10_Flr_4 Sys-3 Flr-3 Sch-H HPlcmt-south ZN NECB System 3 PSZ Occ Sch Winter Design Day, !- Name\n   ** Warning ** IP: IDF line~14585 Alpha Argument length exceeds maximum, will be truncated=  Sp-PatRoom1_Mult10_Flr_4 Sys-3 Flr-3 Sch-H HPlcmt-south ZN NECB System 3 PSZ Occ Sch Winter Design Da\n   **   ~~~   ** Will be processed as Alpha=SP-PATROOM1_MULT10_FLR_4 SYS-3 FLR-3 SCH-H HPLCMT-SOUTH ZN NECB SYSTEM 3 PSZ OCC SCH WINTER DESIGN DAY\n   ************* IDF Context for following error/warning message:\n   ************* Note -- lines truncated at 300 characters, if necessary...\n   *************  15451 Schedule:Week:Daily,\n   ************* indicated Name=Schedule:Week:Daily {21fb2828-3def-48f2-a696-c896424ccb14}\n   ************* Only last 10 lines before error line shown.....\n   *************  15452   Schedule:Week:Daily {21fb2828-3def-48f2-a696-c896424ccb14}, !- Name\n   *************  15453   Sp-PatRoom3_Mult10_Flr_3 Sys-3 Flr-2 Sch-H HPlcmt-east ZN NECB System 3 PSZ Occ Sch Sunday, !- Sunday Schedule:Day Name\n   *************  15454   Sp-PatRoom3_Mult10_Flr_3 Sys-3 Flr-2 Sch-H HPlcmt-east ZN NECB System 3 PSZ Occ Sch Monday, !- Monday Schedule:Day Name\n   *************  15455   Sp-PatRoom3_Mult10_Flr_3 Sys-3 Flr-2 Sch-H HPlcmt-east ZN NECB System 3 PSZ Occ Sch Tuesday, !- Tuesday Schedule:Day Name\n   *************  15456   Sp-PatRoom3_Mult10_Flr_3 Sys-3 Flr-2 Sch-H HPlcmt-east ZN NECB System 3 PSZ Occ Sch Wednesday, !- Wednesday Schedule:Day Name\n   *************  15457   Sp-PatRoom3_Mult10_Flr_3 Sys-3 Flr-2 Sch-H HPlcmt-east ZN NECB System 3 PSZ Occ Sch Thursday, !- Thursday Schedule:Day Name\n   *************  15458   Sp-PatRoom3_Mult10_Flr_3 Sys-3 Flr-2 Sch-H HPlcmt-east ZN NECB System 3 PSZ Occ Sch Friday, !- Friday Schedule:Day Name\n   *************  15459   Sp-PatRoom3_Mult10_Flr_3 Sys-3 Flr-2 Sch-H HPlcmt-east ZN NECB System 3 PSZ Occ Sch Saturday, !- Saturday Schedule:Day Name\n   *************  15460   Sp-PatRoom3_Mult10_Flr_3 Sys-3 Flr-2 Sch-H HPlcmt-east ZN NECB System 3 PSZ Occ Sch Default, !- Holiday Schedule:Day Name\n   *************  15461   Sp-PatRoom3_Mult10_Flr_3 Sys-3 Flr-2 Sch-H HPlcmt-east ZN NECB System 3 PSZ Occ Sch Summer Design Day, !- SummerDesignDay Schedule:Day Name\n   ** Warning ** IP: IDF line~15461 Alpha Argument length exceeds maximum, will be truncated=  Sp-PatRoom3_Mult10_Flr_3 Sys-3 Flr-2 Sch-H HPlcmt-east ZN NECB System 3 PSZ Occ Sch Summer Design Da\n   **   ~~~   ** Will be processed as Alpha=SP-PATROOM3_MULT10_FLR_3 SYS-3 FLR-2 SCH-H HPLCMT-EAST ZN NECB SYSTEM 3 PSZ OCC SCH SUMMER DESIGN DAY\n   ************* IDF Context for following error/warning message:\n   ************* Note -- lines truncated at 300 characters, if necessary...\n   *************  15451 Schedule:Week:Daily,\n   ************* indicated Name=Schedule:Week:Daily {21fb2828-3def-48f2-a696-c896424ccb14}\n   ************* Only last 10 lines before error line shown.....\n   *************  15453   Sp-PatRoom3_Mult10_Flr_3 Sys-3 Flr-2 Sch-H HPlcmt-east ZN NECB System 3 PSZ Occ Sch Sunday, !- Sunday Schedule:Day Name\n   *************  15454   Sp-PatRoom3_Mult10_Flr_3 Sys-3 Flr-2 Sch-H HPlcmt-east ZN NECB System 3 PSZ Occ Sch Monday, !- Monday Schedule:Day Name\n   *************  15455   Sp-PatRoom3_Mult10_Flr_3 Sys-3 Flr-2 Sch-H HPlcmt-east ZN NECB System 3 PSZ Occ Sch Tuesday, !- Tuesday Schedule:Day Name\n   *************  15456   Sp-PatRoom3_Mult10_Flr_3 Sys-3 Flr-2 Sch-H HPlcmt-east ZN NECB System 3 PSZ Occ Sch Wednesday, !- Wednesday Schedule:Day Name\n   *************  15457   Sp-PatRoom3_Mult10_Flr_3 Sys-3 Flr-2 Sch-H HPlcmt-east ZN NECB System 3 PSZ Occ Sch Thursday, !- Thursday Schedule:Day Name\n   *************  15458   Sp-PatRoom3_Mult10_Flr_3 Sys-3 Flr-2 Sch-H HPlcmt-east ZN NECB System 3 PSZ Occ Sch Friday, !- Friday Schedule:Day Name\n   *************  15459   Sp-PatRoom3_Mult10_Flr_3 Sys-3 Flr-2 Sch-H HPlcmt-east ZN NECB System 3 PSZ Occ Sch Saturday, !- Saturday Schedule:Day Name\n   *************  15460   Sp-PatRoom3_Mult10_Flr_3 Sys-3 Flr-2 Sch-H HPlcmt-east ZN NECB System 3 PSZ Occ Sch Default, !- Holiday Schedule:Day Name\n   *************  15461   Sp-PatRoom3_Mult10_Flr_3 Sys-3 Flr-2 Sch-H HPlcmt-east ZN NECB System 3 PSZ Occ Sch Summer Design Day, !- SummerDesignDay Schedule:Day Name\n   *************  15462   Sp-PatRoom3_Mult10_Flr_3 Sys-3 Flr-2 Sch-H HPlcmt-east ZN NECB System 3 PSZ Occ Sch Winter Design Day, !- WinterDesignDay Schedule:Day Name\n   ** Warning ** IP: IDF line~15462 Alpha Argument length exceeds maximum, will be truncated=  Sp-PatRoom3_Mult10_Flr_3 Sys-3 Flr-2 Sch-H HPlcmt-east ZN NECB System 3 PSZ Occ Sch Winter Design Da\n   **   ~~~   ** Will be processed as Alpha=SP-PATROOM3_MULT10_FLR_3 SYS-3 FLR-2 SCH-H HPLCMT-EAST ZN NECB SYSTEM 3 PSZ OCC SCH WINTER DESIGN DAY\n   ************* IDF Context for following error/warning message:\n   ************* Note -- lines truncated at 300 characters, if necessary...\n   *************  15482 Schedule:Day:Interval,\n   ************* indicated Name=Sp-PatRoom3_Mult10_Flr_3 Sys-3 Flr-2 Sch-H HPlcmt-east ZN NECB System 3 PSZ Occ Sch Summer Design Day\n   ************* Only last 1 lines before error line shown.....\n   *************  15483   Sp-PatRoom3_Mult10_Flr_3 Sys-3 Flr-2 Sch-H HPlcmt-east ZN NECB System 3 PSZ Occ Sch Summer Design Day, !- Name\n   ** Warning ** IP: IDF line~15483 Alpha Argument length exceeds maximum, will be truncated=  Sp-PatRoom3_Mult10_Flr_3 Sys-3 Flr-2 Sch-H HPlcmt-east ZN NECB System 3 PSZ Occ Sch Summer Design Da\n   **   ~~~   ** Will be processed as Alpha=SP-PATROOM3_MULT10_FLR_3 SYS-3 FLR-2 SCH-H HPLCMT-EAST ZN NECB SYSTEM 3 PSZ OCC SCH SUMMER DESIGN DAY\n   ************* IDF Context for following error/warning message:\n   ************* Note -- lines truncated at 300 characters, if necessary...\n   *************  15489 Schedule:Day:Interval,\n   ************* indicated Name=Sp-PatRoom3_Mult10_Flr_3 Sys-3 Flr-2 Sch-H HPlcmt-east ZN NECB System 3 PSZ Occ Sch Winter Design Day\n   ************* Only last 1 lines before error line shown.....\n   *************  15490   Sp-PatRoom3_Mult10_Flr_3 Sys-3 Flr-2 Sch-H HPlcmt-east ZN NECB System 3 PSZ Occ Sch Winter Design Day, !- Name\n   ** Warning ** IP: IDF line~15490 Alpha Argument length exceeds maximum, will be truncated=  Sp-PatRoom3_Mult10_Flr_3 Sys-3 Flr-2 Sch-H HPlcmt-east ZN NECB System 3 PSZ Occ Sch Winter Design Da\n   **   ~~~   ** Will be processed as Alpha=SP-PATROOM3_MULT10_FLR_3 SYS-3 FLR-2 SCH-H HPLCMT-EAST ZN NECB SYSTEM 3 PSZ OCC SCH WINTER DESIGN DAY\n   ************* IDF Context for following error/warning message:\n   ************* Note -- lines truncated at 300 characters, if necessary...\n   *************  15794 Schedule:Week:Daily,\n   ************* indicated Name=Schedule:Week:Daily {e41f33e5-de2f-493e-9557-88c8b741e6f3}\n   ************* Only last 10 lines before error line shown.....\n   *************  15795   Schedule:Week:Daily {e41f33e5-de2f-493e-9557-88c8b741e6f3}, !- Name\n   *************  15796   Sp-PatRoom3_Mult10_Flr_4 Sys-3 Flr-3 Sch-H HPlcmt-east ZN NECB System 3 PSZ Occ Sch Sunday, !- Sunday Schedule:Day Name\n   *************  15797   Sp-PatRoom3_Mult10_Flr_4 Sys-3 Flr-3 Sch-H HPlcmt-east ZN NECB System 3 PSZ Occ Sch Monday, !- Monday Schedule:Day Name\n   *************  15798   Sp-PatRoom3_Mult10_Flr_4 Sys-3 Flr-3 Sch-H HPlcmt-east ZN NECB System 3 PSZ Occ Sch Tuesday, !- Tuesday Schedule:Day Name\n   *************  15799   Sp-PatRoom3_Mult10_Flr_4 Sys-3 Flr-3 Sch-H HPlcmt-east ZN NECB System 3 PSZ Occ Sch Wednesday, !- Wednesday Schedule:Day Name\n   *************  15800   Sp-PatRoom3_Mult10_Flr_4 Sys-3 Flr-3 Sch-H HPlcmt-east ZN NECB System 3 PSZ Occ Sch Thursday, !- Thursday Schedule:Day Name\n   *************  15801   Sp-PatRoom3_Mult10_Flr_4 Sys-3 Flr-3 Sch-H HPlcmt-east ZN NECB System 3 PSZ Occ Sch Friday, !- Friday Schedule:Day Name\n   *************  15802   Sp-PatRoom3_Mult10_Flr_4 Sys-3 Flr-3 Sch-H HPlcmt-east ZN NECB System 3 PSZ Occ Sch Saturday, !- Saturday Schedule:Day Name\n   *************  15803   Sp-PatRoom3_Mult10_Flr_4 Sys-3 Flr-3 Sch-H HPlcmt-east ZN NECB System 3 PSZ Occ Sch Default, !- Holiday Schedule:Day Name\n   *************  15804   Sp-PatRoom3_Mult10_Flr_4 Sys-3 Flr-3 Sch-H HPlcmt-east ZN NECB System 3 PSZ Occ Sch Summer Design Day, !- SummerDesignDay Schedule:Day Name\n   ** Warning ** IP: IDF line~15804 Alpha Argument length exceeds maximum, will be truncated=  Sp-PatRoom3_Mult10_Flr_4 Sys-3 Flr-3 Sch-H HPlcmt-east ZN NECB System 3 PSZ Occ Sch Summer Design Da\n   **   ~~~   ** Will be processed as Alpha=SP-PATROOM3_MULT10_FLR_4 SYS-3 FLR-3 SCH-H HPLCMT-EAST ZN NECB SYSTEM 3 PSZ OCC SCH SUMMER DESIGN DAY\n   ************* IDF Context for following error/warning message:\n   ************* Note -- lines truncated at 300 characters, if necessary...\n   *************  15794 Schedule:Week:Daily,\n   ************* indicated Name=Schedule:Week:Daily {e41f33e5-de2f-493e-9557-88c8b741e6f3}\n   ************* Only last 10 lines before error line shown.....\n   *************  15796   Sp-PatRoom3_Mult10_Flr_4 Sys-3 Flr-3 Sch-H HPlcmt-east ZN NECB System 3 PSZ Occ Sch Sunday, !- Sunday Schedule:Day Name\n   *************  15797   Sp-PatRoom3_Mult10_Flr_4 Sys-3 Flr-3 Sch-H HPlcmt-east ZN NECB System 3 PSZ Occ Sch Monday, !- Monday Schedule:Day Name\n   *************  15798   Sp-PatRoom3_Mult10_Flr_4 Sys-3 Flr-3 Sch-H HPlcmt-east ZN NECB System 3 PSZ Occ Sch Tuesday, !- Tuesday Schedule:Day Name\n   *************  15799   Sp-PatRoom3_Mult10_Flr_4 Sys-3 Flr-3 Sch-H HPlcmt-east ZN NECB System 3 PSZ Occ Sch Wednesday, !- Wednesday Schedule:Day Name\n   *************  15800   Sp-PatRoom3_Mult10_Flr_4 Sys-3 Flr-3 Sch-H HPlcmt-east ZN NECB System 3 PSZ Occ Sch Thursday, !- Thursday Schedule:Day Name\n   *************  15801   Sp-PatRoom3_Mult10_Flr_4 Sys-3 Flr-3 Sch-H HPlcmt-east ZN NECB System 3 PSZ Occ Sch Friday, !- Friday Schedule:Day Name\n   *************  15802   Sp-PatRoom3_Mult10_Flr_4 Sys-3 Flr-3 Sch-H HPlcmt-east ZN NECB System 3 PSZ Occ Sch Saturday, !- Saturday Schedule:Day Name\n   *************  15803   Sp-PatRoom3_Mult10_Flr_4 Sys-3 Flr-3 Sch-H HPlcmt-east ZN NECB System 3 PSZ Occ Sch Default, !- Holiday Schedule:Day Name\n   *************  15804   Sp-PatRoom3_Mult10_Flr_4 Sys-3 Flr-3 Sch-H HPlcmt-east ZN NECB System 3 PSZ Occ Sch Summer Design Day, !- SummerDesignDay Schedule:Day Name\n   *************  15805   Sp-PatRoom3_Mult10_Flr_4 Sys-3 Flr-3 Sch-H HPlcmt-east ZN NECB System 3 PSZ Occ Sch Winter Design Day, !- WinterDesignDay Schedule:Day Name\n   ** Warning ** IP: IDF line~15805 Alpha Argument length exceeds maximum, will be truncated=  Sp-PatRoom3_Mult10_Flr_4 Sys-3 Flr-3 Sch-H HPlcmt-east ZN NECB System 3 PSZ Occ Sch Winter Design Da\n   **   ~~~   ** Will be processed as Alpha=SP-PATROOM3_MULT10_FLR_4 SYS-3 FLR-3 SCH-H HPLCMT-EAST ZN NECB SYSTEM 3 PSZ OCC SCH WINTER DESIGN DAY\n   ************* IDF Context for following error/warning message:\n   ************* Note -- lines truncated at 300 characters, if necessary...\n   *************  15825 Schedule:Day:Interval,\n   ************* indicated Name=Sp-PatRoom3_Mult10_Flr_4 Sys-3 Flr-3 Sch-H HPlcmt-east ZN NECB System 3 PSZ Occ Sch Summer Design Day\n   ************* Only last 1 lines before error line shown.....\n   *************  15826   Sp-PatRoom3_Mult10_Flr_4 Sys-3 Flr-3 Sch-H HPlcmt-east ZN NECB System 3 PSZ Occ Sch Summer Design Day, !- Name\n   ** Warning ** IP: IDF line~15826 Alpha Argument length exceeds maximum, will be truncated=  Sp-PatRoom3_Mult10_Flr_4 Sys-3 Flr-3 Sch-H HPlcmt-east ZN NECB System 3 PSZ Occ Sch Summer Design Da\n   **   ~~~   ** Will be processed as Alpha=SP-PATROOM3_MULT10_FLR_4 SYS-3 FLR-3 SCH-H HPLCMT-EAST ZN NECB SYSTEM 3 PSZ OCC SCH SUMMER DESIGN DAY\n   ************* IDF Context for following error/warning message:\n   ************* Note -- lines truncated at 300 characters, if necessary...\n   *************  15832 Schedule:Day:Interval,\n   ************* indicated Name=Sp-PatRoom3_Mult10_Flr_4 Sys-3 Flr-3 Sch-H HPlcmt-east ZN NECB System 3 PSZ Occ Sch Winter Design Day\n   ************* Only last 1 lines before error line shown.....\n   *************  15833   Sp-PatRoom3_Mult10_Flr_4 Sys-3 Flr-3 Sch-H HPlcmt-east ZN NECB System 3 PSZ Occ Sch Winter Design Day, !- Name\n   ** Warning ** IP: IDF line~15833 Alpha Argument length exceeds maximum, will be truncated=  Sp-PatRoom3_Mult10_Flr_4 Sys-3 Flr-3 Sch-H HPlcmt-east ZN NECB System 3 PSZ Occ Sch Winter Design Da\n   **   ~~~   ** Will be processed as Alpha=SP-PATROOM3_MULT10_FLR_4 SYS-3 FLR-3 SCH-H HPLCMT-EAST ZN NECB SYSTEM 3 PSZ OCC SCH WINTER DESIGN DAY\n   ************* IDF Context for following error/warning message:\n   ************* Note -- lines truncated at 300 characters, if necessary...\n   *************  16699 Schedule:Week:Daily,\n   ************* indicated Name=Schedule:Week:Daily {5fb31094-a7d4-4fae-bdb0-a785edaf5d43}\n   ************* Only last 10 lines before error line shown.....\n   *************  16700   Schedule:Week:Daily {5fb31094-a7d4-4fae-bdb0-a785edaf5d43}, !- Name\n   *************  16701   Sp-PatRoom5_Mult10_Flr_3 Sys-3 Flr-2 Sch-H HPlcmt-north ZN NECB System 3 PSZ Occ Sch Sunday, !- Sunday Schedule:Day Name\n   *************  16702   Sp-PatRoom5_Mult10_Flr_3 Sys-3 Flr-2 Sch-H HPlcmt-north ZN NECB System 3 PSZ Occ Sch Monday, !- Monday Schedule:Day Name\n   *************  16703   Sp-PatRoom5_Mult10_Flr_3 Sys-3 Flr-2 Sch-H HPlcmt-north ZN NECB System 3 PSZ Occ Sch Tuesday, !- Tuesday Schedule:Day Name\n   *************  16704   Sp-PatRoom5_Mult10_Flr_3 Sys-3 Flr-2 Sch-H HPlcmt-north ZN NECB System 3 PSZ Occ Sch Wednesday, !- Wednesday Schedule:Day Name\n   *************  16705   Sp-PatRoom5_Mult10_Flr_3 Sys-3 Flr-2 Sch-H HPlcmt-north ZN NECB System 3 PSZ Occ Sch Thursday, !- Thursday Schedule:Day Name\n   *************  16706   Sp-PatRoom5_Mult10_Flr_3 Sys-3 Flr-2 Sch-H HPlcmt-north ZN NECB System 3 PSZ Occ Sch Friday, !- Friday Schedule:Day Name\n   *************  16707   Sp-PatRoom5_Mult10_Flr_3 Sys-3 Flr-2 Sch-H HPlcmt-north ZN NECB System 3 PSZ Occ Sch Saturday, !- Saturday Schedule:Day Name\n   *************  16708   Sp-PatRoom5_Mult10_Flr_3 Sys-3 Flr-2 Sch-H HPlcmt-north ZN NECB System 3 PSZ Occ Sch Default, !- Holiday Schedule:Day Name\n   *************  16709   Sp-PatRoom5_Mult10_Flr_3 Sys-3 Flr-2 Sch-H HPlcmt-north ZN NECB System 3 PSZ Occ Sch Summer Design Day, !- SummerDesignDay Schedule:Day Name\n   ** Warning ** IP: IDF line~16709 Alpha Argument length exceeds maximum, will be truncated=  Sp-PatRoom5_Mult10_Flr_3 Sys-3 Flr-2 Sch-H HPlcmt-north ZN NECB System 3 PSZ Occ Sch Summer Design Da\n   **   ~~~   ** Will be processed as Alpha=SP-PATROOM5_MULT10_FLR_3 SYS-3 FLR-2 SCH-H HPLCMT-NORTH ZN NECB SYSTEM 3 PSZ OCC SCH SUMMER DESIGN DAY\n   ************* IDF Context for following error/warning message:\n   ************* Note -- lines truncated at 300 characters, if necessary...\n   *************  16699 Schedule:Week:Daily,\n   ************* indicated Name=Schedule:Week:Daily {5fb31094-a7d4-4fae-bdb0-a785edaf5d43}\n   ************* Only last 10 lines before error line shown.....\n   *************  16701   Sp-PatRoom5_Mult10_Flr_3 Sys-3 Flr-2 Sch-H HPlcmt-north ZN NECB System 3 PSZ Occ Sch Sunday, !- Sunday Schedule:Day Name\n   *************  16702   Sp-PatRoom5_Mult10_Flr_3 Sys-3 Flr-2 Sch-H HPlcmt-north ZN NECB System 3 PSZ Occ Sch Monday, !- Monday Schedule:Day Name\n   *************  16703   Sp-PatRoom5_Mult10_Flr_3 Sys-3 Flr-2 Sch-H HPlcmt-north ZN NECB System 3 PSZ Occ Sch Tuesday, !- Tuesday Schedule:Day Name\n   *************  16704   Sp-PatRoom5_Mult10_Flr_3 Sys-3 Flr-2 Sch-H HPlcmt-north ZN NECB System 3 PSZ Occ Sch Wednesday, !- Wednesday Schedule:Day Name\n   *************  16705   Sp-PatRoom5_Mult10_Flr_3 Sys-3 Flr-2 Sch-H HPlcmt-north ZN NECB System 3 PSZ Occ Sch Thursday, !- Thursday Schedule:Day Name\n   *************  16706   Sp-PatRoom5_Mult10_Flr_3 Sys-3 Flr-2 Sch-H HPlcmt-north ZN NECB System 3 PSZ Occ Sch Friday, !- Friday Schedule:Day Name\n   *************  16707   Sp-PatRoom5_Mult10_Flr_3 Sys-3 Flr-2 Sch-H HPlcmt-north ZN NECB System 3 PSZ Occ Sch Saturday, !- Saturday Schedule:Day Name\n   *************  16708   Sp-PatRoom5_Mult10_Flr_3 Sys-3 Flr-2 Sch-H HPlcmt-north ZN NECB System 3 PSZ Occ Sch Default, !- Holiday Schedule:Day Name\n   *************  16709   Sp-PatRoom5_Mult10_Flr_3 Sys-3 Flr-2 Sch-H HPlcmt-north ZN NECB System 3 PSZ Occ Sch Summer Design Day, !- SummerDesignDay Schedule:Day Name\n   *************  16710   Sp-PatRoom5_Mult10_Flr_3 Sys-3 Flr-2 Sch-H HPlcmt-north ZN NECB System 3 PSZ Occ Sch Winter Design Day, !- WinterDesignDay Schedule:Day Name\n   ** Warning ** IP: IDF line~16710 Alpha Argument length exceeds maximum, will be truncated=  Sp-PatRoom5_Mult10_Flr_3 Sys-3 Flr-2 Sch-H HPlcmt-north ZN NECB System 3 PSZ Occ Sch Winter Design Da\n   **   ~~~   ** Will be processed as Alpha=SP-PATROOM5_MULT10_FLR_3 SYS-3 FLR-2 SCH-H HPLCMT-NORTH ZN NECB SYSTEM 3 PSZ OCC SCH WINTER DESIGN DAY\n   ************* IDF Context for following error/warning message:\n   ************* Note -- lines truncated at 300 characters, if necessary...\n   *************  16730 Schedule:Day:Interval,\n   ************* indicated Name=Sp-PatRoom5_Mult10_Flr_3 Sys-3 Flr-2 Sch-H HPlcmt-north ZN NECB System 3 PSZ Occ Sch Summer Design Day\n   ************* Only last 1 lines before error line shown.....\n   *************  16731   Sp-PatRoom5_Mult10_Flr_3 Sys-3 Flr-2 Sch-H HPlcmt-north ZN NECB System 3 PSZ Occ Sch Summer Design Day, !- Name\n   ** Warning ** IP: IDF line~16731 Alpha Argument length exceeds maximum, will be truncated=  Sp-PatRoom5_Mult10_Flr_3 Sys-3 Flr-2 Sch-H HPlcmt-north ZN NECB System 3 PSZ Occ Sch Summer Design Da\n   **   ~~~   ** Will be processed as Alpha=SP-PATROOM5_MULT10_FLR_3 SYS-3 FLR-2 SCH-H HPLCMT-NORTH ZN NECB SYSTEM 3 PSZ OCC SCH SUMMER DESIGN DAY\n   ************* IDF Context for following error/warning message:\n   ************* Note -- lines truncated at 300 characters, if necessary...\n   *************  16737 Schedule:Day:Interval,\n   ************* indicated Name=Sp-PatRoom5_Mult10_Flr_3 Sys-3 Flr-2 Sch-H HPlcmt-north ZN NECB System 3 PSZ Occ Sch Winter Design Day\n   ************* Only last 1 lines before error line shown.....\n   *************  16738   Sp-PatRoom5_Mult10_Flr_3 Sys-3 Flr-2 Sch-H HPlcmt-north ZN NECB System 3 PSZ Occ Sch Winter Design Day, !- Name\n   ** Warning ** IP: IDF line~16738 Alpha Argument length exceeds maximum, will be truncated=  Sp-PatRoom5_Mult10_Flr_3 Sys-3 Flr-2 Sch-H HPlcmt-north ZN NECB System 3 PSZ Occ Sch Winter Design Da\n   **   ~~~   ** Will be processed as Alpha=SP-PATROOM5_MULT10_FLR_3 SYS-3 FLR-2 SCH-H HPLCMT-NORTH ZN NECB SYSTEM 3 PSZ OCC SCH WINTER DESIGN DAY\n   ************* IDF Context for following error/warning message:\n   ************* Note -- lines truncated at 300 characters, if necessary...\n   *************  17042 Schedule:Week:Daily,\n   ************* indicated Name=Schedule:Week:Daily {a96a93b4-6fe5-4e57-b6e5-00f447d9dbd4}\n   ************* Only last 10 lines before error line shown.....\n   *************  17043   Schedule:Week:Daily {a96a93b4-6fe5-4e57-b6e5-00f447d9dbd4}, !- Name\n   *************  17044   Sp-PatRoom5_Mult10_Flr_4 Sys-3 Flr-3 Sch-H HPlcmt-north ZN NECB System 3 PSZ Occ Sch Sunday, !- Sunday Schedule:Day Name\n   *************  17045   Sp-PatRoom5_Mult10_Flr_4 Sys-3 Flr-3 Sch-H HPlcmt-north ZN NECB System 3 PSZ Occ Sch Monday, !- Monday Schedule:Day Name\n   *************  17046   Sp-PatRoom5_Mult10_Flr_4 Sys-3 Flr-3 Sch-H HPlcmt-north ZN NECB System 3 PSZ Occ Sch Tuesday, !- Tuesday Schedule:Day Name\n   *************  17047   Sp-PatRoom5_Mult10_Flr_4 Sys-3 Flr-3 Sch-H HPlcmt-north ZN NECB System 3 PSZ Occ Sch Wednesday, !- Wednesday Schedule:Day Name\n   *************  17048   Sp-PatRoom5_Mult10_Flr_4 Sys-3 Flr-3 Sch-H HPlcmt-north ZN NECB System 3 PSZ Occ Sch Thursday, !- Thursday Schedule:Day Name\n   *************  17049   Sp-PatRoom5_Mult10_Flr_4 Sys-3 Flr-3 Sch-H HPlcmt-north ZN NECB System 3 PSZ Occ Sch Friday, !- Friday Schedule:Day Name\n   *************  17050   Sp-PatRoom5_Mult10_Flr_4 Sys-3 Flr-3 Sch-H HPlcmt-north ZN NECB System 3 PSZ Occ Sch Saturday, !- Saturday Schedule:Day Name\n   *************  17051   Sp-PatRoom5_Mult10_Flr_4 Sys-3 Flr-3 Sch-H HPlcmt-north ZN NECB System 3 PSZ Occ Sch Default, !- Holiday Schedule:Day Name\n   *************  17052   Sp-PatRoom5_Mult10_Flr_4 Sys-3 Flr-3 Sch-H HPlcmt-north ZN NECB System 3 PSZ Occ Sch Summer Design Day, !- SummerDesignDay Schedule:Day Name\n   ** Warning ** IP: IDF line~17052 Alpha Argument length exceeds maximum, will be truncated=  Sp-PatRoom5_Mult10_Flr_4 Sys-3 Flr-3 Sch-H HPlcmt-north ZN NECB System 3 PSZ Occ Sch Summer Design Da\n   **   ~~~   ** Will be processed as Alpha=SP-PATROOM5_MULT10_FLR_4 SYS-3 FLR-3 SCH-H HPLCMT-NORTH ZN NECB SYSTEM 3 PSZ OCC SCH SUMMER DESIGN DAY\n   ************* IDF Context for following error/warning message:\n   ************* Note -- lines truncated at 300 characters, if necessary...\n   *************  17042 Schedule:Week:Daily,\n   ************* indicated Name=Schedule:Week:Daily {a96a93b4-6fe5-4e57-b6e5-00f447d9dbd4}\n   ************* Only last 10 lines before error line shown.....\n   *************  17044   Sp-PatRoom5_Mult10_Flr_4 Sys-3 Flr-3 Sch-H HPlcmt-north ZN NECB System 3 PSZ Occ Sch Sunday, !- Sunday Schedule:Day Name\n   *************  17045   Sp-PatRoom5_Mult10_Flr_4 Sys-3 Flr-3 Sch-H HPlcmt-north ZN NECB System 3 PSZ Occ Sch Monday, !- Monday Schedule:Day Name\n   *************  17046   Sp-PatRoom5_Mult10_Flr_4 Sys-3 Flr-3 Sch-H HPlcmt-north ZN NECB System 3 PSZ Occ Sch Tuesday, !- Tuesday Schedule:Day Name\n   *************  17047   Sp-PatRoom5_Mult10_Flr_4 Sys-3 Flr-3 Sch-H HPlcmt-north ZN NECB System 3 PSZ Occ Sch Wednesday, !- Wednesday Schedule:Day Name\n   *************  17048   Sp-PatRoom5_Mult10_Flr_4 Sys-3 Flr-3 Sch-H HPlcmt-north ZN NECB System 3 PSZ Occ Sch Thursday, !- Thursday Schedule:Day Name\n   *************  17049   Sp-PatRoom5_Mult10_Flr_4 Sys-3 Flr-3 Sch-H HPlcmt-north ZN NECB System 3 PSZ Occ Sch Friday, !- Friday Schedule:Day Name\n   *************  17050   Sp-PatRoom5_Mult10_Flr_4 Sys-3 Flr-3 Sch-H HPlcmt-north ZN NECB System 3 PSZ Occ Sch Saturday, !- Saturday Schedule:Day Name\n   *************  17051   Sp-PatRoom5_Mult10_Flr_4 Sys-3 Flr-3 Sch-H HPlcmt-north ZN NECB System 3 PSZ Occ Sch Default, !- Holiday Schedule:Day Name\n   *************  17052   Sp-PatRoom5_Mult10_Flr_4 Sys-3 Flr-3 Sch-H HPlcmt-north ZN NECB System 3 PSZ Occ Sch Summer Design Day, !- SummerDesignDay Schedule:Day Name\n   *************  17053   Sp-PatRoom5_Mult10_Flr_4 Sys-3 Flr-3 Sch-H HPlcmt-north ZN NECB System 3 PSZ Occ Sch Winter Design Day, !- WinterDesignDay Schedule:Day Name\n   ** Warning ** IP: IDF line~17053 Alpha Argument length exceeds maximum, will be truncated=  Sp-PatRoom5_Mult10_Flr_4 Sys-3 Flr-3 Sch-H HPlcmt-north ZN NECB System 3 PSZ Occ Sch Winter Design Da\n   **   ~~~   ** Will be processed as Alpha=SP-PATROOM5_MULT10_FLR_4 SYS-3 FLR-3 SCH-H HPLCMT-NORTH ZN NECB SYSTEM 3 PSZ OCC SCH WINTER DESIGN DAY\n   ************* IDF Context for following error/warning message:\n   ************* Note -- lines truncated at 300 characters, if necessary...\n   *************  17073 Schedule:Day:Interval,\n   ************* indicated Name=Sp-PatRoom5_Mult10_Flr_4 Sys-3 Flr-3 Sch-H HPlcmt-north ZN NECB System 3 PSZ Occ Sch Summer Design Day\n   ************* Only last 1 lines before error line shown.....\n   *************  17074   Sp-PatRoom5_Mult10_Flr_4 Sys-3 Flr-3 Sch-H HPlcmt-north ZN NECB System 3 PSZ Occ Sch Summer Design Day, !- Name\n   ** Warning ** IP: IDF line~17074 Alpha Argument length exceeds maximum, will be truncated=  Sp-PatRoom5_Mult10_Flr_4 Sys-3 Flr-3 Sch-H HPlcmt-north ZN NECB System 3 PSZ Occ Sch Summer Design Da\n   **   ~~~   ** Will be processed as Alpha=SP-PATROOM5_MULT10_FLR_4 SYS-3 FLR-3 SCH-H HPLCMT-NORTH ZN NECB SYSTEM 3 PSZ OCC SCH SUMMER DESIGN DAY\n   ************* IDF Context for following error/warning message:\n   ************* Note -- lines truncated at 300 characters, if necessary...\n   *************  17080 Schedule:Day:Interval,\n   ************* indicated Name=Sp-PatRoom5_Mult10_Flr_4 Sys-3 Flr-3 Sch-H HPlcmt-north ZN NECB System 3 PSZ Occ Sch Winter Design Day\n   ************* Only last 1 lines before error line shown.....\n   *************  17081   Sp-PatRoom5_Mult10_Flr_4 Sys-3 Flr-3 Sch-H HPlcmt-north ZN NECB System 3 PSZ Occ Sch Winter Design Day, !- Name\n   ** Warning ** IP: IDF line~17081 Alpha Argument length exceeds maximum, will be truncated=  Sp-PatRoom5_Mult10_Flr_4 Sys-3 Flr-3 Sch-H HPlcmt-north ZN NECB System 3 PSZ Occ Sch Winter Design Da\n   **   ~~~   ** Will be processed as Alpha=SP-PATROOM5_MULT10_FLR_4 SYS-3 FLR-3 SCH-H HPLCMT-NORTH ZN NECB SYSTEM 3 PSZ OCC SCH WINTER DESIGN DAY\n   ************* IDF Context for following error/warning message:\n   ************* Note -- lines truncated at 300 characters, if necessary...\n   *************  17947 Schedule:Week:Daily,\n   ************* indicated Name=Schedule:Week:Daily {e599c8ee-7111-4c03-9154-5a8cc99c9f33}\n   ************* Only last 10 lines before error line shown.....\n   *************  17948   Schedule:Week:Daily {e599c8ee-7111-4c03-9154-5a8cc99c9f33}, !- Name\n   *************  17949   Sp-PatRoom7_Mult10_Flr_3 Sys-3 Flr-2 Sch-H HPlcmt-west ZN NECB System 3 PSZ Occ Sch Sunday, !- Sunday Schedule:Day Name\n   *************  17950   Sp-PatRoom7_Mult10_Flr_3 Sys-3 Flr-2 Sch-H HPlcmt-west ZN NECB System 3 PSZ Occ Sch Monday, !- Monday Schedule:Day Name\n   *************  17951   Sp-PatRoom7_Mult10_Flr_3 Sys-3 Flr-2 Sch-H HPlcmt-west ZN NECB System 3 PSZ Occ Sch Tuesday, !- Tuesday Schedule:Day Name\n   *************  17952   Sp-PatRoom7_Mult10_Flr_3 Sys-3 Flr-2 Sch-H HPlcmt-west ZN NECB System 3 PSZ Occ Sch Wednesday, !- Wednesday Schedule:Day Name\n   *************  17953   Sp-PatRoom7_Mult10_Flr_3 Sys-3 Flr-2 Sch-H HPlcmt-west ZN NECB System 3 PSZ Occ Sch Thursday, !- Thursday Schedule:Day Name\n   *************  17954   Sp-PatRoom7_Mult10_Flr_3 Sys-3 Flr-2 Sch-H HPlcmt-west ZN NECB System 3 PSZ Occ Sch Friday, !- Friday Schedule:Day Name\n   *************  17955   Sp-PatRoom7_Mult10_Flr_3 Sys-3 Flr-2 Sch-H HPlcmt-west ZN NECB System 3 PSZ Occ Sch Saturday, !- Saturday Schedule:Day Name\n   *************  17956   Sp-PatRoom7_Mult10_Flr_3 Sys-3 Flr-2 Sch-H HPlcmt-west ZN NECB System 3 PSZ Occ Sch Default, !- Holiday Schedule:Day Name\n   *************  17957   Sp-PatRoom7_Mult10_Flr_3 Sys-3 Flr-2 Sch-H HPlcmt-west ZN NECB System 3 PSZ Occ Sch Summer Design Day, !- SummerDesignDay Schedule:Day Name\n   ** Warning ** IP: IDF line~17957 Alpha Argument length exceeds maximum, will be truncated=  Sp-PatRoom7_Mult10_Flr_3 Sys-3 Flr-2 Sch-H HPlcmt-west ZN NECB System 3 PSZ Occ Sch Summer Design Da\n   **   ~~~   ** Will be processed as Alpha=SP-PATROOM7_MULT10_FLR_3 SYS-3 FLR-2 SCH-H HPLCMT-WEST ZN NECB SYSTEM 3 PSZ OCC SCH SUMMER DESIGN DAY\n   ************* IDF Context for following error/warning message:\n   ************* Note -- lines truncated at 300 characters, if necessary...\n   *************  17947 Schedule:Week:Daily,\n   ************* indicated Name=Schedule:Week:Daily {e599c8ee-7111-4c03-9154-5a8cc99c9f33}\n   ************* Only last 10 lines before error line shown.....\n   *************  17949   Sp-PatRoom7_Mult10_Flr_3 Sys-3 Flr-2 Sch-H HPlcmt-west ZN NECB System 3 PSZ Occ Sch Sunday, !- Sunday Schedule:Day Name\n   *************  17950   Sp-PatRoom7_Mult10_Flr_3 Sys-3 Flr-2 Sch-H HPlcmt-west ZN NECB System 3 PSZ Occ Sch Monday, !- Monday Schedule:Day Name\n   *************  17951   Sp-PatRoom7_Mult10_Flr_3 Sys-3 Flr-2 Sch-H HPlcmt-west ZN NECB System 3 PSZ Occ Sch Tuesday, !- Tuesday Schedule:Day Name\n   *************  17952   Sp-PatRoom7_Mult10_Flr_3 Sys-3 Flr-2 Sch-H HPlcmt-west ZN NECB System 3 PSZ Occ Sch Wednesday, !- Wednesday Schedule:Day Name\n   *************  17953   Sp-PatRoom7_Mult10_Flr_3 Sys-3 Flr-2 Sch-H HPlcmt-west ZN NECB System 3 PSZ Occ Sch Thursday, !- Thursday Schedule:Day Name\n   *************  17954   Sp-PatRoom7_Mult10_Flr_3 Sys-3 Flr-2 Sch-H HPlcmt-west ZN NECB System 3 PSZ Occ Sch Friday, !- Friday Schedule:Day Name\n   *************  17955   Sp-PatRoom7_Mult10_Flr_3 Sys-3 Flr-2 Sch-H HPlcmt-west ZN NECB System 3 PSZ Occ Sch Saturday, !- Saturday Schedule:Day Name\n   *************  17956   Sp-PatRoom7_Mult10_Flr_3 Sys-3 Flr-2 Sch-H HPlcmt-west ZN NECB System 3 PSZ Occ Sch Default, !- Holiday Schedule:Day Name\n   *************  17957   Sp-PatRoom7_Mult10_Flr_3 Sys-3 Flr-2 Sch-H HPlcmt-west ZN NECB System 3 PSZ Occ Sch Summer Design Day, !- SummerDesignDay Schedule:Day Name\n   *************  17958   Sp-PatRoom7_Mult10_Flr_3 Sys-3 Flr-2 Sch-H HPlcmt-west ZN NECB System 3 PSZ Occ Sch Winter Design Day, !- WinterDesignDay Schedule:Day Name\n   ** Warning ** IP: IDF line~17958 Alpha Argument length exceeds maximum, will be truncated=  Sp-PatRoom7_Mult10_Flr_3 Sys-3 Flr-2 Sch-H HPlcmt-west ZN NECB System 3 PSZ Occ Sch Winter Design Da\n   **   ~~~   ** Will be processed as Alpha=SP-PATROOM7_MULT10_FLR_3 SYS-3 FLR-2 SCH-H HPLCMT-WEST ZN NECB SYSTEM 3 PSZ OCC SCH WINTER DESIGN DAY\n   ************* IDF Context for following error/warning message:\n   ************* Note -- lines truncated at 300 characters, if necessary...\n   *************  17978 Schedule:Day:Interval,\n   ************* indicated Name=Sp-PatRoom7_Mult10_Flr_3 Sys-3 Flr-2 Sch-H HPlcmt-west ZN NECB System 3 PSZ Occ Sch Summer Design Day\n   ************* Only last 1 lines before error line shown.....\n   *************  17979   Sp-PatRoom7_Mult10_Flr_3 Sys-3 Flr-2 Sch-H HPlcmt-west ZN NECB System 3 PSZ Occ Sch Summer Design Day, !- Name\n   ** Warning ** IP: IDF line~17979 Alpha Argument length exceeds maximum, will be truncated=  Sp-PatRoom7_Mult10_Flr_3 Sys-3 Flr-2 Sch-H HPlcmt-west ZN NECB System 3 PSZ Occ Sch Summer Design Da\n   **   ~~~   ** Will be processed as Alpha=SP-PATROOM7_MULT10_FLR_3 SYS-3 FLR-2 SCH-H HPLCMT-WEST ZN NECB SYSTEM 3 PSZ OCC SCH SUMMER DESIGN DAY\n   ************* IDF Context for following error/warning message:\n   ************* Note -- lines truncated at 300 characters, if necessary...\n   *************  17985 Schedule:Day:Interval,\n   ************* indicated Name=Sp-PatRoom7_Mult10_Flr_3 Sys-3 Flr-2 Sch-H HPlcmt-west ZN NECB System 3 PSZ Occ Sch Winter Design Day\n   ************* Only last 1 lines before error line shown.....\n   *************  17986   Sp-PatRoom7_Mult10_Flr_3 Sys-3 Flr-2 Sch-H HPlcmt-west ZN NECB System 3 PSZ Occ Sch Winter Design Day, !- Name\n   ** Warning ** IP: IDF line~17986 Alpha Argument length exceeds maximum, will be truncated=  Sp-PatRoom7_Mult10_Flr_3 Sys-3 Flr-2 Sch-H HPlcmt-west ZN NECB System 3 PSZ Occ Sch Winter Design Da\n   **   ~~~   ** Will be processed as Alpha=SP-PATROOM7_MULT10_FLR_3 SYS-3 FLR-2 SCH-H HPLCMT-WEST ZN NECB SYSTEM 3 PSZ OCC SCH WINTER DESIGN DAY\n   ************* IDF Context for following error/warning message:\n   ************* Note -- lines truncated at 300 characters, if necessary...\n   *************  18290 Schedule:Week:Daily,\n   ************* indicated Name=Schedule:Week:Daily {b016bc6b-277d-4b9a-9a80-e7ac2e02c8e8}\n   ************* Only last 10 lines before error line shown.....\n   *************  18291   Schedule:Week:Daily {b016bc6b-277d-4b9a-9a80-e7ac2e02c8e8}, !- Name\n   *************  18292   Sp-PatRoom7_Mult10_Flr_4 Sys-3 Flr-3 Sch-H HPlcmt-west ZN NECB System 3 PSZ Occ Sch Sunday, !- Sunday Schedule:Day Name\n   *************  18293   Sp-PatRoom7_Mult10_Flr_4 Sys-3 Flr-3 Sch-H HPlcmt-west ZN NECB System 3 PSZ Occ Sch Monday, !- Monday Schedule:Day Name\n   *************  18294   Sp-PatRoom7_Mult10_Flr_4 Sys-3 Flr-3 Sch-H HPlcmt-west ZN NECB System 3 PSZ Occ Sch Tuesday, !- Tuesday Schedule:Day Name\n   *************  18295   Sp-PatRoom7_Mult10_Flr_4 Sys-3 Flr-3 Sch-H HPlcmt-west ZN NECB System 3 PSZ Occ Sch Wednesday, !- Wednesday Schedule:Day Name\n   *************  18296   Sp-PatRoom7_Mult10_Flr_4 Sys-3 Flr-3 Sch-H HPlcmt-west ZN NECB System 3 PSZ Occ Sch Thursday, !- Thursday Schedule:Day Name\n   *************  18297   Sp-PatRoom7_Mult10_Flr_4 Sys-3 Flr-3 Sch-H HPlcmt-west ZN NECB System 3 PSZ Occ Sch Friday, !- Friday Schedule:Day Name\n   *************  18298   Sp-PatRoom7_Mult10_Flr_4 Sys-3 Flr-3 Sch-H HPlcmt-west ZN NECB System 3 PSZ Occ Sch Saturday, !- Saturday Schedule:Day Name\n   *************  18299   Sp-PatRoom7_Mult10_Flr_4 Sys-3 Flr-3 Sch-H HPlcmt-west ZN NECB System 3 PSZ Occ Sch Default, !- Holiday Schedule:Day Name\n   *************  18300   Sp-PatRoom7_Mult10_Flr_4 Sys-3 Flr-3 Sch-H HPlcmt-west ZN NECB System 3 PSZ Occ Sch Summer Design Day, !- SummerDesignDay Schedule:Day Name\n   ** Warning ** IP: IDF line~18300 Alpha Argument length exceeds maximum, will be truncated=  Sp-PatRoom7_Mult10_Flr_4 Sys-3 Flr-3 Sch-H HPlcmt-west ZN NECB System 3 PSZ Occ Sch Summer Design Da\n   **   ~~~   ** Will be processed as Alpha=SP-PATROOM7_MULT10_FLR_4 SYS-3 FLR-3 SCH-H HPLCMT-WEST ZN NECB SYSTEM 3 PSZ OCC SCH SUMMER DESIGN DAY\n   ************* IDF Context for following error/warning message:\n   ************* Note -- lines truncated at 300 characters, if necessary...\n   *************  18290 Schedule:Week:Daily,\n   ************* indicated Name=Schedule:Week:Daily {b016bc6b-277d-4b9a-9a80-e7ac2e02c8e8}\n   ************* Only last 10 lines before error line shown.....\n   *************  18292   Sp-PatRoom7_Mult10_Flr_4 Sys-3 Flr-3 Sch-H HPlcmt-west ZN NECB System 3 PSZ Occ Sch Sunday, !- Sunday Schedule:Day Name\n   *************  18293   Sp-PatRoom7_Mult10_Flr_4 Sys-3 Flr-3 Sch-H HPlcmt-west ZN NECB System 3 PSZ Occ Sch Monday, !- Monday Schedule:Day Name\n   *************  18294   Sp-PatRoom7_Mult10_Flr_4 Sys-3 Flr-3 Sch-H HPlcmt-west ZN NECB System 3 PSZ Occ Sch Tuesday, !- Tuesday Schedule:Day Name\n   *************  18295   Sp-PatRoom7_Mult10_Flr_4 Sys-3 Flr-3 Sch-H HPlcmt-west ZN NECB System 3 PSZ Occ Sch Wednesday, !- Wednesday Schedule:Day Name\n   *************  18296   Sp-PatRoom7_Mult10_Flr_4 Sys-3 Flr-3 Sch-H HPlcmt-west ZN NECB System 3 PSZ Occ Sch Thursday, !- Thursday Schedule:Day Name\n   *************  18297   Sp-PatRoom7_Mult10_Flr_4 Sys-3 Flr-3 Sch-H HPlcmt-west ZN NECB System 3 PSZ Occ Sch Friday, !- Friday Schedule:Day Name\n   *************  18298   Sp-PatRoom7_Mult10_Flr_4 Sys-3 Flr-3 Sch-H HPlcmt-west ZN NECB System 3 PSZ Occ Sch Saturday, !- Saturday Schedule:Day Name\n   *************  18299   Sp-PatRoom7_Mult10_Flr_4 Sys-3 Flr-3 Sch-H HPlcmt-west ZN NECB System 3 PSZ Occ Sch Default, !- Holiday Schedule:Day Name\n   *************  18300   Sp-PatRoom7_Mult10_Flr_4 Sys-3 Flr-3 Sch-H HPlcmt-west ZN NECB System 3 PSZ Occ Sch Summer Design Day, !- SummerDesignDay Schedule:Day Name\n   *************  18301   Sp-PatRoom7_Mult10_Flr_4 Sys-3 Flr-3 Sch-H HPlcmt-west ZN NECB System 3 PSZ Occ Sch Winter Design Day, !- WinterDesignDay Schedule:Day Name\n   ** Warning ** IP: IDF line~18301 Alpha Argument length exceeds maximum, will be truncated=  Sp-PatRoom7_Mult10_Flr_4 Sys-3 Flr-3 Sch-H HPlcmt-west ZN NECB System 3 PSZ Occ Sch Winter Design Da\n   **   ~~~   ** Will be processed as Alpha=SP-PATROOM7_MULT10_FLR_4 SYS-3 FLR-3 SCH-H HPLCMT-WEST ZN NECB SYSTEM 3 PSZ OCC SCH WINTER DESIGN DAY\n   ************* IDF Context for following error/warning message:\n   ************* Note -- lines truncated at 300 characters, if necessary...\n   *************  18321 Schedule:Day:Interval,\n   ************* indicated Name=Sp-PatRoom7_Mult10_Flr_4 Sys-3 Flr-3 Sch-H HPlcmt-west ZN NECB System 3 PSZ Occ Sch Summer Design Day\n   ************* Only last 1 lines before error line shown.....\n   *************  18322   Sp-PatRoom7_Mult10_Flr_4 Sys-3 Flr-3 Sch-H HPlcmt-west ZN NECB System 3 PSZ Occ Sch Summer Design Day, !- Name\n   ** Warning ** IP: IDF line~18322 Alpha Argument length exceeds maximum, will be truncated=  Sp-PatRoom7_Mult10_Flr_4 Sys-3 
[...]
pLOZ+msn3UeLnLV+l/O1iKh99dlV+1mgw60u0R7KrS6hzfP+ynV4e6s8y3Mtgb20FcuwvolzM06TIYXKrLbZ+ODgYDk9Pt1648QxwgAMc4AAHOMABDnCAAxzg/D1xRLaYFb8Ci0CqD0XgLxVRKgPQgAY0oAENaEADGtCABjSgAY2e5rb8r1n/Q3MVLSRwgAMc4AAHOMABDnCAAxzgAGcTnIf3BnrqvYHnC+q9gX2v/Avbycnu7uEhSEEKUpCCFKQgBSlIQQpSkIIUpCB9HaS9ktTPKdJuSdrv93oHeyAFKUhBClKQghSkIAUpSEEKUpCC9HWQ9hXp+zQkSHuHJann7e/3+yAFKUhBClKQghSkIAUpSEEKUpCC9HWQ7irSr9MFRXpQkh4Wx+AtSEEKUpCCFKQgBSlIQQpSkIIUpCB9HaQDRfpvGVCk+yXpu3fD4f4+SEEKUpCCFKQgBSlIQQpSkIIUpCB9HaR75Z2JhaRI90rS4XBvD6QgBSlIQQpSkIIUpCAFKUhBClKQvhbSfUX6MaE6C/YGJenBQa83GIAUpCAFKUhBClKQghSkIAUpSEEKUmuka5Qg9W9btc7u3DzMI3k+9efSzeVd3tr6kCzSrB5j+ecz34UzGWdhEkcyKz3UuNjZESdBIHxRehK3YT4VWTKTIujXnJndTFx/Ppdx0HKUtrNdc8L6cP08T1vOndMWe13Dk5bFSb3mJ2X5MpIVXsePR9MkLc53Ijk2oF35GCdx3rmV4WSaKx9XSRQ091HNzfm889nPvyTJbP/y4yLKve7l+yi93BXny6zTF8XPxb/no2nng/jwORrNlF6Wi98/iU+nw7fqW7mcib74fP67OBuN1Fe3tnUT/GYnG6XhPP8X+Z03O0F487yZPId2VvgSYXDsjNTqHxYD5oexTC973sAR5TAeO0GYzSN/eRTGUWHrXEXJ6PtPDg1YeK2uQeTLeXG+Gsmda//Grz7VnqmOGz9VK1UciyCczSPpxvL2/GbScn54BrItdrvd8p/a0FN+Az/3C8cXfziRfyUj58gJ5NgvJlbM02QcRtJpV5bLO+fIc7tt58aPFnL180hlqOKcIukMh6enzn27kZ8ek58+k59dJj8DJj97TH72mfwcMPk5ZPLjdbkcca1oj2tJe1xr2uNa1B7Xqva4lrXHta49roXtca3sHtfK7rHlaq6V3eNa2T2jlS2yxWz25JXVjXa0VAYGbsgxMnNDjpCZG3J8zNyQcW/mhox6MzdkzJu5ISPezA0Z72Zu6I3M0A/TOqa3MUM/TCuZ3sQM/TCtZXoLM/TDtJrpDczQD9N6prcvQz9ceZlpPdN7l6Gf5uv5Noxz823rSn3U3A85PIZ+yOEx9EMOj6EfMtwN/ZDhbuiHDHdDP2S4G/ohw93QD71/mTriWtH0DmbqiGtN03uYqSOuVU3vYqaOuNY1vY+ZOuJa2fROZuqILVdzrWx6MzN11HxlP/wNo/Ydw9Q2133yi171EmIGid7LS/RfXmL35SUGLy+x9/IS+y8vcfDyEocvL/FkZ38pDQvxrbkxy6dB39ni06BvevFp0Hd6+TTom8B8GvT9YT4N+tYxnwZ9V5lv/7MQ5z0b+7iFjbxnYSfvbbaV177KsVlZVb3rkUGCng02CXoy2CTouWCToMsqNgm6rGKToMsqNgm6rGKToMsqNgnNX675NOg//fFp0GUVnwZdVvFp0GUVnwZdVvFp0GUVnwZdVvFp0GUVnwZdVvHtfxbiXPMnfj4NCxu5pqzi09hsK699Y1azsqp6pRaDBD0bbBL0ZLBJ0HPBJkGXVWwSdFnFJkGXVWwSdFnFJkGXVWwSmrKKT4NOt3wadFnFp0GXVXwadFnFp0GXVXwadFnFp0GXVXwadFnFp0GXVXz7n4U415RVfBoWNnJNWcWnsdlWXvtikmZlVfXmEgYJejbYJOjJYJOg54JNgi6r2CTosopNgi6r2CTosopNgi6r2CQ0ZRWfBp1u+TTosopPgy6r+DTosopPgy6r+DTosopPgy6r+DTosopPgy6r+PY/C3GuKav4NCxs5Jqyik9js628tv97s7KqahDPIEHPBpsEPRlsEvRcsEnQZRWbBF1WsUnQZRWbBF1WsUnQZRWbhKas4tOg0y2fBl1W8WnQZRWfBl1W8WnQZRWfBl1W8WnQZRWfBl1W8WnQZRXf/mchzjVlFZ+GhY1cU1bxaWy2lde22W1WVlV9eBkk6Nlgk6Ang02Cngs2CbqsYpOgyyo2CbqsYpOgyyo2CbqsYpPQlFV8GnS65dOgyyo+Dbqs4tOgyyo+Dbqs4tOgyyo+Dbqs4tOgyyo+Dbqs4tv/LMS5pqzi07CwkWvKKj6Nzbby2m6Gzcqqqt0hgwQ9G2wS9GSwSdBzwSZBl1VsEnRZxSZBl1VsEnRZxSZBl1VsEtpma1wadLrl09A1suLS0PW44tLQtb/i0tD1fOPS0LWD49LQdYrj0tA1kePS0PWX49r/LMS5tisdl4aFjVxTVvFp1G/l35p0eF01chbHIpa36w6yZePYVnYzaZcdYGtbxa67QWcyf5ss4iBrDbpt4XmDtuirn3qDZu1m7wqMhybXQTD0czlJ0uXJXZhV3ZQfrr9By+nCwVkayPTLQjU3bnyi4lg+5fgo/WyRygpD9WdejfsLt/uGGWaYYYYZZphhhhlmmGGGGWaYYYYZZphhhhlmmGGGGWaYYYYZZphhhhlmmGGGGWaYYYYZZphhhhlmmGGGGWaYYYYZZphhhvlvZV66yY1M0zCQH331YK3ndv/i86rq0djs6aOx5zINZbZ6vNZprx8gnkdJ7kZhLGsfkc2ee063/snazC1fPT9PIj8Pk7iAcrJczjtXcpyk0mn25POvciLj4OkFVZ+19rpt0VdPLnfVg8zqHyeS41yB1bheu3UvJzI/jXM1PoXEeBGPStLWtvijxsWaUD6cfVH7LLc6wrFo5dMwc7NyVpoJqePRSW4xfqf+aNr6L7CptzW+enS8YF/5vZwnWagcvis+bnI160O5eYYqTW7NkNZYYRxIFQ8dr2149vq43vTEcSgjtd5aqzGt4mSSJou5DMSPP4p/rD6/cy+nfrZ6/l0F2PZj6/JZazEgrj+ZvFcabiTjST4Vb0RP/J9wTqLIEUdPv5FF4Ui2Ot72Rffbdm28/elKklS0rotL6f4krguZ1VJd6arP/llkHPMJUodaxit/F9ff3O9yKY6Pj6vB28xj6XU17deml7o+rlLpf9/k5HvDc0y/r8ZrdXXHalmrxbBaKWUjB/fSz7JwEstgqFpEZBflSH7bbCjXEz1fZNPWpnNRTOlRNZ+bR1IUHTW5Sld9c1OVLE+T77KZTvXdTZWSuT8K82UzqdWXN76qUmIttamXdSJ5mlY2CQ/j5KOOdTg/TTyiIzxTbybh1pz1vl3uqo2+f19XU6hjZ0d8/u2r+M/Zb1/E+dmXr798+ln8evbzL0Px4fTLaTMH74usLe98VaKJPBFZkuYiXsyKdTASZUuTTPjZqChewnjSwON67JWfRzuz3xZXzZNLKvNFGou5n2byfZT4ectXKX+7mMpHn12VnzUazPoS7ZHs6hLqHN+/bKeXh/qzDPcy2FtbgRz7iygX8zQpcpjcaoutHw4OhsPT060XbjwDHOAABzjAAQ5wgAMc4AAHOH9PHJEtZsWvwCKQ6kMR+EtFlMoANKABDWhAAxrQgAY0oAENaECjp7kt/2vW/9BcRQsJHOAABzjAAQ5wgAMc4AAHOMDZBOfhvYGeem/g+YJ6b2DfK//CdnKyu3t4CFKQghSkIAUpSEEKUpCCFKQgBSlIXwdpryT1c4q0W5L2+73ewR5IQQpSkIIUpCAFKUhBClKQghSkIH0dpH1F+j4NCdLeYUnqefv7/T5IQQpSkIIUpCAFKUhBClKQghSkIH0dpLuK9Ot0QZEelKSHxTF4C1KQghSkIAUpSEEKUpCCFKQgBSlIXwfpQJH+WwYU6X5J+u7dcLi/D1KQghSkIAUpSEEKUpCCFKQgBSlIXwfpXnlnYiEp0r2SdDjc2wMpSEEKUpCCFKQgBSlIQQpSkIIUpK+FdF+RfkyozoK9QUl6cNDrDQYgBSlIQQpSkIIUpCAFKUhBClKQgtQa6RolSP3bVq2zOzcP80ieT/25dHN5l7e2PiSLNKvHWP75zHfhTMZZmMSRzEoPNS52dsRJEAhflJ7EbZhPRZbMpAj6NWdmNxPXn89lHLQcpe1s15ywPlw/z9OWc+e0xV7X8KRlcVKv+UlZvoxkhdfx49E0SYvznUiODWhXPsZJnHduZTiZ5srHVRIFzX1Uc3M+73yeLrOvU5n68+Xl+yi97IvzZdbpi+LnTk+cj6adofjwORrN8s4oSaX4/ZP4dDp8q76Vy5noi8/nv4uz0Uh9dWtbN7lvdrJRGs7zf5HfebMThDfPm8lzaGeFLxEGx85IrfxhMVh+GMv0suftOaIcwmMnCLN55C+PwjgqbJ2rKBl9/8mhAQuv1TWIfDkvzlejuHPt3/jVp9oz1XHjp2qVimMRhLN5JN1Y3p7fTFrOD89AtsVut1v+Uxt2ym/g537h+OIPJ/KvZOQcOYEc+4soF/M0GYeRdNqV5fLOOfLcbtu58aOFXP08UtmpOKdIOMPh6alz327kp8fkp8/kZ5fJz4DJzx6Tn30mPwdMfg6Z/HhdLkdcK9rjWtIe15r2uBa1x7WqPa5l7XGta49rYXtcK7vHtbJ7bLmaa2X3uFZ2z2hli2wxmz15XXWjHS2VgYEbcozM3JAjZOaGHB8zN2Tcm7kho97MDRnzZm7IiDdzQ8a7mRt6IzP0w7SO6W3M0A/TSqY3MUM/TGuZ3sIM/TCtZnoDM/TDtJ7p7cvQD1deZlrP9N5l6Kf5er4N49x827pSHzX3Qw6PoR9yeAz9kMNj6IcMd0M/ZLgb+iHD3dAPGe6GfshwN/RD71+mjrhWNL2DmTriWtP0HmbqiGtV07uYqSOudU3vY6aOuFY2vZOZOmLL1Vwrm97MTB01X9kPf7+ofb9ws/uN1QuIGSTo327ZJOjfe9kk6N+I2STou0BsEvT9ITYJ+s4RmwR9T4lNgr7bxCahucXKp2EhvjU3Zvk0LES45nYun4aFGNfcBObTsBDlmlvHfBoW4lxzw5lPw8Y+biHONXew+TQ2i/Pa1zg2K6uq9zwySNCzwSZBTwabBD0XbBJ0ymWToDMumwSdcNkk6HzLJkGnWzYJTVnFp2EhvjVlFZ+GhQjXlFV8GhZiXFNW8WlYiHJNWcWnYSHONWUVn4aNfdxCnGvKKj6NzeK89m1Zzcqq6nVaDBL0bLBJ0JPBJkHPBZsEnXLZJOiMyyZBJ1w2CTrfsknQ6ZZNQlNW8WlYiG9NWcWnYSHCNWUVn4aFGNeUVXwaFqJcU1bxaViIc01ZxadhYx+3EOeasopPY7M4r30pSbOyqnprCYMEPRtsEvRksEnQc8EmQadcNgk647JJ0AmXTYLOt2wSdLplk9CUVXwaFuJbU1bxaViIcE1ZxadhIcY1ZRWfhoUo15RVfBoW4lxTVvFp2NjHLcS5pqzi09gszmt7vzcrq6rm8AwS9GywSdCTwSZBzwWbBJ1y2STojMsmQSdcNgk637JJ0OmWTUJTVvFpWIhvTVnFp2EhwjVlFZ+GhRjXlFV8GhaiXFNW8WlYiHNNWcWnYWMftxDnmrKKT2OzOK9tsdusrKp68DJI0LPBJkFPBpsEPRdsEnTKZZOgMy6bBJ1w2STofMsmQadbNglNWcWnYSG+NWUVn4aFCNeUVXwaFmJcU1bxaViIck1ZxadhIc41ZRWfho193EKca8oqPo3N4ry2k2GzsqpqdcggoetzwySh64DDJKHrjcMkoesHxSSh6xTFJKHrIcUkoesuxSSh6zvFJKFttsalYSG+tS3auDQsRLi2sRuXhoUY17aD49KwEOXaJnJcGhbiXNt6jkvDxj5uIc61vey4NOrj/FuTDq+rJs7iWMTydt1Btmwc28puJu2yA2xtq9h1J+hM5m+TRRxkrUG3LTxv0BZ99VNv0Kzd7F2B8dDgOgiGfi4nSbo8uQuzqpPyw/U3aDddODhLA5l+WajGxo1PVBzLpxwfpZ8tUllhqN7Mq3F/4VbfMMMMM8wwwwwzzDDDDDPMMMMMM8wwwwwzzDDDDDPMMMMMM8wwwwwzzDDDDDPMMMMMM8wwwwwzzDDDDDPMMMMMM8wwwwwzzDD/rcxLN7mRaRoG8qOvHqz13O5ffF5VPRqbPX009lymocxWj9c67fUDxPMoyd0ojGXtI7LZc8/p1j9Zm7nlq+fnSeTnYRIXUE6Wy3nnSo6TVDrNnnz+VU5kHDy9oOqz1l63LfrqyeWuepBZ/eNEcpwrsBrXa7fu5UTmp3GuxqeQGC/iUUna2hZ/1LhYE8qHsy9qn+VWRzgWrXwaZm5WzkozIXU8Osktxu/UH01b/wU29bbGV4+OF+wrv5fzJAuVw3fFx02uZn0oN89QpcmtGdIaK4wDqeKh47UNz14f15ueOA5lpNZbazWmVZxM0mQxl4H48Ufxj9Xnd+7l1M9Wz7+rANt+bF0+ay0GxPUnk/dKw41kPMmn4o3oif8TzkkUOeLo6TeyKBzJVsfbvuh+266Ntz9dSZKK1nVxKd2fxHUhs1qqK1312T+LjGM+QepQy3jl7+L6m/tdLsXx8XE1eJt5LL2upv3a9FLXx1Uq/e+bnHxveI7p99V4ra7uWC1rtRhWK6Vs5OBe+lkWTmIZDFWLiOyiHMlvmw3leqLni2za2nQuiik9quZz80iKoqMmV+mqb26qkuVp8l0206m+u6lSMvdHYb5sJrX68sZXVUqspTb1sk4kT9PKJuFhnHzUsQ7np4lHdIRn6s0k3Jqz3rfLXbXR9+/ragp17OyIz799Ff85++2LOD/78vWXTz+LX89+/mUoPpx+OW3m4H2RteWdr0o0kSciS9JcxItZsQ5Gomxpkgk/GxXFSxhPGnhcj73y82hn9tviqnlySWW+SGMx99NMvo8SP2/5KuVvF1P56LOr8rNGg1lfoj2SXV1CneP7l+308lB/luFeBntrK5BjfxHlYp4mRQ6TW22x9cPBwXB4err1wo1ngAMc4AAHOMABDnCAAxzgAOfviSOyxaz4FVgEUn0oAn+piFIZgAY0oAENaEADGtCABjSgAQ1o9DS35X/N+h+aq2ghgQMc4AAHOMABDnCAAxzgAAc4m+A8vDfQU+8NPF9Q7w3se+Vf2E5OdncPD0EKUpCCFKQgBSlIQQpSkIIUpCAF6esg7ZWkfk6RdkvSfr/XO9gDKUhBClKQghSkIAUpSEEKUpCCFKSvg7SvSN+nIUHaOyxJPW9/v98HKUhBClKQghSkIAUpSEEKUpCCFKSvg3RXkX6dLijSg5L0sDgGb0EKUpCCFKQgBSlIQQpSkIIUpCAF6esgHSjSf8uAIt0vSd+9Gw7390EKUpCCFKQgBSlIQQpSkIIUpCAF6esg3SvvTCwkRbpXkg6He3sgBSlIQQpSkIIUpCAFKUhBClKQgvS1kO4r0o8J1VmwNyhJDw56vcEApCAFKUhBClKQghSkIAUpSEEKUpBaI12jBKl/26p1dufmYR7J86k/l24u7/LW1odkkWb1GMs/n/kunMk4C5M4klnpocbFzo44CQLhi9KTuA3zqciSmRRBv+bM7Gbi+vO5jIOWo7Sd7ZoT1ofr53nacu6cttjrGp60LE7qNT8py5eRrPA6fjyaJmlxvhPJsQHtysc4ifPOrQwn01z5uEqioLmPam7O550vfhAWK3OyvHwfpZe74nyZdfqi+Ln493w07XwQHz5Ho1neGSWpFL9/Ep9Oh2/Vt3I5E33x+fx3cTYaqa9ubeum9s1ONkrDef4v8jtvdoLw5nkzeQ7trPAlwuDYGal1PyyGyg9jmV72vH1HlAN47ARhNo/85VEYR4WtcxUlo+8/OTRg4bW6BpEv58X5agx3rv0bv/pUe6Y6bvxUrVFxLIJwNo+kG8vb85tJy/nhGci22O12y39qg075DfzcLxxf/OFE/pWMnCMnkGN/EeVinibjMJJOu7Jc3jlHntttOzd+tJDO0WDg9g8fHf1B2xmpVFW4KLLPcHh66ty3G7ntvYzb/su43X0Zt4OXcbv3Mm73X8btwcu4PXwZt173hfy+UJx5LxRo3gtFmvdCoea9UKx5LxRs3gtFm/dC4ea9ULz1Xijeei+1r71QvPVeKN56fyXeRLaYzZ68FHyTyiGVgYHXpuNr5rXp6Jp5bTq2Zl6bZjIzr03zmJnXplnMzGvTHGbmtWkGM/PauGAwdPsy0dW4XDB0+zLx1bhYMHT7MhHWuFQwdPsyMda4UDB0+zJR1rhMMHT7QnvYy0RZ4xrB0O3GUXYbxvlfLg+u1Deau206tIZumw6todumQ2votmkCM3TbNIEZum2awAzdNk1ghm6bJjBDt43rBFO/LxRnjSsFU78vFGmNawVTvy8Ua42rBVO/LxRtjesFU78vFG+NKwZTvy+1r71QvDUuGkz9msXbtyZ/uFj9ZVIci1jerv8wUv49pJXdTNrlHzZq/wKy/vNmJvO3ySIOstag2xaeN2iLvvqpN2j2V5S7AuPhr7ZBMPRzOUnS5cldmFV/HnwYiwZ/Qy0cnKWBTL8s1F/rGp+oOJZPOT5KP1ukssJQf3BczcFf/atw+Qepp1LnMg1ltsItlFYTMo+S3FV/JauVzJ677nrSzC0X3jyJ/DxM4gLKyXI5///2zra3bWNpw9+fX7FVgURGZVmkLL81PoWr2GkOkrqwkxaFERi0uJZo06RAUraFwv/94VKkazUeiksO2brn5oc01YhzX9yd2Z2W5Gj9Ql76gWwVi6QPciw9e/mCFp+1t+Io6KtIUDfVDPVHetN15f3ozG33fCyjQy9S4xNLXM68UULaXhN/FLjrqgjl49lnK3NDHc6laEcTJ4zjWp1XTEgdT07qxuN3aI0m7T+Bdb1l+Ok9xtTv+dQPHeXwbfxxkavJDuXmGarAv9NDyrAcz5YqcdeNjubZ2XFV9sRLR7oq3trpmC7yZBz4s6m0xatX4pv08/vu+cQK0/VEJdjaU+v8WWs8IF1rPD5SGl1XeuNoIt4IU/wgWgeu2xJ7y98IXWck2+vG2lnvy9rKfPvqSvxAtK/iS+l9L65imTRUU1312Xf7wtCfIHWoME79nV196V7LeHnb318MXjmPidd02q90LzU7LgJpXZc5+UHzHN3vq/FKr25fhbUKhjRSko2xe754okjayTNF4Vkykl/KDWU20dNZOGmXnYt4SvcW81k+k1x3r8hVdtU3y6qEUeBfy2I6i++WVfKn1siJ5sWk0i+XvqpEIpMq6yVbSJaXlTLpob34qCNL5+WFR6wLQ9ebTroVZ33oJLtqoe8/rKop1LGxIX75/En8fvz5RJwen3x6//M78eH43fuh+Onw5LCYg6N41Zb3lirRROSL0I8LaW92E8fBSCQlYiiscBQXL443LuAxG3vl58nObHXERfHFJZDRLPDE1ApCeeT6VtS21JK/Fk/lk88uks8KDebqEu2JbHoJqxw//A1Pfv7ljm36eKe6Afu3PIgKHOAABzjAAQ5wgAMc4AAHOC8e5+snXxRRIG3QgAY0oAENaEADGtCABjSgAU0+zVfPBCoa9YgfcIADHOAABzjAAQ5wgAMc4ADnb+y3+EneTGVgRbNAivbRGjou/rM6Ls6mU3cuDpxAqIl6IT0Td15Cz8Qd9EzUbm2Anon6btEzET0T9VsboGdiOb/omYieieiZiJ6J6JmInonPuUXPRPRMRM9E7TIBPRP13aJnInomomeibpmAnonl/KJnInomomcieiY+c+MCPROf4UDPRPRMFOiZWAwLPRPRM7HMgZ6J6kDPRPRMTA70TMz/JnomrnagDvRMfBmtRYADHOAABzjAAQ5wgAMc4ADnxeP8wzqOgAY0oAENaEADGtCABjSgAc3Lofmf6XQCHOAABzjAAQ5wgAMc4AAHOOX10DPx+QM9Exc9E4XxQrom7r6Erom7jXVNTP5etj0Tk58+k59NJj8DJj9bTH62mfzsMPnZZfKz1FWgkiOuiDa4QtrgimmDK6gNrqg2uMLa4IprgyuwDa7INrki22Rbq7ki2+SKbFMrsot381tyVb59XwU35AiVb9BXwQ2Z9+Vb8FVwQ+Z8+SZ7FdyQ+V6hjV4VP0xxTG9jFTrjVfHDFMr0Hlah2V0VP0zRTG9gFfrXVVkHmeKZ3r0qtKSr4ocpnumtq3yXuSU3FdrKVfFDDk+FxnFV/JDpXqE1XBU/ZLpXaP5WxQ+Z7lXau1VyxBXR9A5WpWNbJUdcQU1vYlWasFVyxBXX9D5Wpa9apZWRK7LpraxKq7RKjrgim97NvnL0S+D4gRPNhSHWRft05q2pPlRb6/+1vPWesZ78/a0crfcNapvrLf2H3sHB5ubuLoOEWb9Ev36JzfolBvVLbNUvsV2/xE79Erv1Syzt7HVpNJDfRgMJbjSQ4UYDKW40kONGA0luNJDlRgNpbjSQ52YDeW42sY83kOdmA3lulstzM9GwIkqjV6ys6vdNc2eLQYKeDTYJejLYJOi5YJOgl1w2CXrFZZOgF1w2CXq9ZZOgl1s2iZyyik+jgfzOKav4NBrI8Jyyik+jgRzPKav4NBrI8pyyik+jgTzPKav4NJrYxxvI85yyik+jXJ73lcZR4BAa5m6xssowtrf7fQYJejbYJOjJYJOg54JNgl5y2SToFZdNgl5w2STo9ZZNgn42ik0i54FAPg36iSo+DfphKz4N+jksPg36ES0+Dfq5RD4N+pFFPg36aUY+DfpBRz6NBvI8p6zi02hiH29gI88pq/g0ym3lm0rj02RGaewUK6vUby4NfmSQoGeDTYKeDDYJei7YJOiyik2CLqvYJOiyik2CLqvYJOjllk0ip6zi06DLKj4Nuqzi06DLKj4Nuqzi06DLKj4Nuqzi06DLKj4Nuqzi02ggz3PKKj6NJvbxBjbynLKKT6PcVj5QGr9Jm9LYLlZWvX07HG5vM0jQs8EmQU8GmwQ9F2wSdFnFJkGXVWwSdFnFJkGXVWwS9HLLJpFTVvFp0GUVnwZdVvFp0GUVnwZdVvFp0GUVnwZdVvFp0GUVnwZdVvFpNJDnOWUVn0YT+3gDG3lOWcWnUW4r30pKt5mkNLaKlVXD4dYWiwQ9G2wS9GSwSdBzwSZBl1VsEnRZxSZBl1VsEnRZxSZBL7dsEjllFZ8GXVbxadBlFZ8GXVbxadBlFZ8GXVbxadBlFZ8GXVbxadBlFZ9GA3meU1bxaTSxjzewkeeUVXwa5bbybaXx0aceizcHxcqqnR3THAwYJOjZYJOgJ4NNgp4LNgm6rGKToMsqNgm6rGKToMsqNom8vlNMErnN1rg08rpVcWnkNbLi0sjrccWlkdf+iksjr+cbl0ZeOzgujbxOcVwaeU3kuDQayPOcsopPo4l9vIGNPKes4tNYvZV/KdLhNW3ELPaFJ++yDrJJ49h2eDvuJB1gV7aKzbo5hzL60Z95dtge9DrCMAYd0Vd/MwfF2s3exxiPnahte2hFcuwH84N7J1z0Qn68/gIto2MHx4Etg5OZak1c+ETFMV/m+CitcBbIBYbqrpyOe809uWGGGWaYYYYZZphhhhlmmGGGGWaYYYYZZphhhhlmmGGGGWaYYYYZZphhhhlmmGGGGWaYYYYZZphhhhlmmGGGGWaYYYYZZphh/leZ513/VgaBY8uPlnqx1uj2Kr6vql6NDZdfjT2VgSPD9PXaVid7gXjq+lHXdTy58hXZ8Ln3dFe/WRt2k5+en/quFTm+F0O1wkhO1y/kpR/IVrE3nz/IsfTs5QtafNbe6nVEX7253FMvMqs/Wq68jBTYCteZ2+75WEaHXqTGJ5a4nHmjhLS9Jv5Y4SIjlI9nn618l1sdzqVoRxMn7IbJrBQTUseTk7rx+B1ao0n7T2Bdbxm+enU8Zk/9nk/90FEO38YfF7ma7FBunqEK/Ds9pAzL8Wyp8mHd6GienR1XZU+8dKSr4q2djukiT8aBP5tKW7x6Jb5JP7/vnk+sMH3/XSXY2lPr/FlrPCBdazw+UhpdV3rjaCLeCFP8IFoHrtsSe8vfCF1nJNvrxtpZ78vaynz76kr8QLSv4kvpfS+uYpk0VFNd9dl38YqjP0HqUGGc+ju7+tK9lnOxv7+/GLxyHhOv6bRf6V5qdlwE0rouc/KD5jm631fjlV7dvgprFQxppCSNHLrnVhg6Y0/aQ9UiIjxLRvJLuaHMJno6CyftsnMRT+neYj7LZ5Lr7hW5yq76ZlmVMAr8a1lMZ/Hdskr+1Bo50byYVPrl0leVSGRSZb1kC8nyslImPbQXH3Vk6by88Ih1Yeh600m34qwPnWRXLfT9h1U1hTo2NsQvnz+J348/n4jT45NP739+Jz4cv3s/FD8dnhwWc3AUr9ry3lIlmoh8EfpBJLzZTRwHI5G0NAmFFY7i4sXxxgU8ZmOv/DzZma2OuCi+uAQymgWemFpBKI9c34rallry1+KpfPLZRfJZocFcXaI9kU0vYZXjh3o7vTzWn0m6J8nefm3LS2vmRmIa+PEaJl93xOtvd3aGw8PD1zU3ngEOcIADHOAABzjAAQ5wgAOcfyeOCGc38X8CC1uqD4VtzRVRIG3QgAY0oAENaEADGtCABjSgAU0+zV3yaNZfaC7cmQQOcIADHOAABzjAAQ5wgAMc4JTBefzdQEP9buDpjPrdwL6R3GE7ONjc3N0FKUhBClKQghSkIAUpSEEKUpCCFKQvg9RMSK2IIu0lpP2+ae5sgRSkIAUpSEEKUpCCFKQgBSlIQQrSl0HaV6RHgUOQmrsJqWFsb/f7IAUpSEEKUpCCFKQgBSlIQQpSkIL0ZZBuKtJPkxlFupOQ7sbH4EeQghSkIAUpSEEKUpCCFKQgBSlIQfoySAeK9DdpU6TbCenbt8Ph9jZIQQpSkIIUpCAFKUhBClKQghSkIH0ZpFvJ/5mYSYp0KyEdDre2QApSkIIUpCAFKUhBClKQghSkIAXpSyHdVqQffaqzoDlISHd2THMwAClIQQpSkIIUpCAFKUhBClKQghSkjZFmKHZg3bVXOrvvRk7kytOJNZXdSN5H7dc/+bMgXI0x//rMt86N9ELH91wZJh5WuNjYEAe2LSyReBJ3TjQRoX8jhd1fcWZ4O+5a06n07HZLabfWVpyQHV0rioJ2677VEVs9zZPm8Ulm8ZPCaO7KBd665Y0mfhCf33LlpQZt6uPS96L1O+mMJ5HyceG7dnEfi7n59eDXxQCfyIm0ImGI49FInI4mr9fypunNRjgKnGn0H/I7bzZs5/Z5M3kO7Sz2JRx7vzVSMTyML9tyPBmcm2avJZLB2G/ZTjh1rfme47mxbf3C9UfX37dowNjr4hpENJ/G56vx2Liybq3Fp7lnquPWClS8iX1hOzdTV3Y9eXd6O263vn0GsiM2e73kj5UJpPzaVmTFjs/+aLnWhXRbey1bXlozNxLTwL90XNnqLCzn9609o9vrtG4tdybTv4/UOhOfEy8dw+HhYeuhU8iPyeSnz+Rnk8nPgMnPFpOfbSY/O0x+dpn8GD0uR1wRbXCFtMEV0wZXUBtcUW1whbXBFdcGV2AbXJFtckW2ybZWc0W2yRXZplZki3B2c7P0w9OFdrRA2hpuyDHSc0OOkJ4bcnz03JB5r+eGzHo9N2TO67khM17PDZnvem7ojUzTD1Mc09uYph+mSKY3MU0/TLFMb2Gafpiimd7ANP0wxTO9fWn64VqXmeKZ3rs0/RSP5zvHi/S3rQv1UXE/5PBo+iGHR9MPOTyafsh01/RDprumHzLdNf2Q6a7ph0x3TT/0/qXriCui6R1M1xFXTNN7mK4jrqimdzFdR1xxTe9juo64IpveyXQdsa3VXJFNb2a6jopH9uOdiJW/FExtc72l/9Bb/JQwg4RZv0S/fonN+iUG9Uts1S+xXb/ETv0Su/VLLO3sdWk0kN9GAwluNJDhRgMpbjSQ40YDSW40kOVGA2luNJDnZgN5bjaxjzeQ52YDeW6Wy/OVP8hYrKxa/GIjgwQ9G2wS9GSwSdBzwSZBL7lsEvSKyyZBL7hsEvR6yyZBL7dsEjllFZ9GA/mdU1bxaTSQ4TllFZ9GAzmeU1bxaTSQ5TllFZ9GA3meU1bxaTSxjzeQ5zllFZ9GuTxf+btXxcqqxQ9jMUjQs8EmQU8GmwQ9F2wS9JLLJkGvuGwS9ILLJkGvt2wS9LNRbBI5DwTyadBPVPFp0A9b8WnQz2HxadCPaPFp0M8l8mnQjyzyadBPM/Jp0A868mk0kOc5j0fyaTSQ5zkPVfJpNLCT55RVeRorf16kWFm1+P0RBgm6rGKToCeDTYKeCzYJuqxik6DLKjYJuqxik6DLKjYJerllk8gpq/g06OWWT4Nebvk06LKKT4Muq/g06LKKT4Muq/g06LKKT4Muq/g0GsjznLKKT6OBPM8pq/g0GtjJc8qqPI2VXdyLlVWLNu8MEnRZxSZBTwabBD0XbBJ0WcUmQZdVbBJ0WcUmQZdVbBL0cssmkVNW8WnQyy2fBr3c8mnQZRWfBl1W8WnQZRWfBl1W8WnQZRWfBl1W8Wk0kOc5ZRWfRgN5nlNW8Wk0sJPnlFV5Giub5RYrqxbddBkk6LKKTYKeDDYJei7YJOiyik2CLqvYJOiyik2CLqvYJOjllk0ip6zi06CXWz4Nernl06DLKj4Nuqzi06DLKj4Nuqzi06DLKj4Nuqzi02ggz3PKKj6NBvI8p6zi02hgJ88pq/I0VvYkLFZWLZoWMkjQZRWbBD0ZbBL0XLBJ0GUVmwRdVrFJ0GUVmwRdVrFJ5PWdYpLIbbbGpUEvt3waeY2suDTyelxxaeS1v+LSyOv5xqWR1w6OSyOvUxyXRl4TOS6NBvI8t/Ucl0YDeZ7bsI5Lo4GdPKesyjS+FOnwmrZjFvvCk3dZB9mkcWw7vB13kg6wK1vFZj2dQxn96M88O2wPeh1hGIOO6Ku/mYNi7WbvY4zHVtW2PbQiOfaD+cG9Ey56Ij9ef4HG0bGD48CWwclMtSgufKLimC9zfJRWOAvkAkN1WU7Hveam3TDDDDPMMMMMM8wwwwwzzDDDDDPMMMMMM8wwwwwzzDDDDDPMMMMMM8wwwwwzzDDDDDPMMMMMM8wwwwwzzDDDDDPMMMMMM8ww/6vM865/K4PAseVHS71Ya3R7Fd9XVa/Ghsuvxp7KwJFh+nptq5O9QDx1/ajrOp5c+Yps+Nx7uqvfrA27yU/PT33Xihzfi6FaYSSn6xfy0g9kq9ibzx/kWHr28gUtPmtv9Tqir95c7qkXmdUfLVdeRgpshevMbfd8LKNDL1LjE0tczrxRQtpeE3+scJERysezz1a+y60O51K0o4kTdsNkVooJqePJSd14/A6t0aT9J7CutwxfvToes6d+z6d+6CiHb+OPi1xNdig3z1AF/p0eUobleLZU+bBudDTPzo6rsideOtJV8dZOx3SRJ+PAn02lLV69Et+kn993zydWmL7/rhJs7al1/qw1HpCuNR4fKY2uK71xNBFvhCl+EK0D122JveVvhK4zku11Y+2s92VtZb59dSV+INpX8aX0vhdXsUwaqqmu+uy7eMXRnyB1qDBO/Z1dfeley7nY399fDF45j4nXdNqvdC81Oy4CaV2XOflB8xzd76vxSq9uX4W1CoY0UpJGDt1zKwydsSftoWoREZ4lI/ml3FBmEz2dhZN22bmIp3RvMZ/lM8l194pcZVd9s6xKGAX+tSyms/huWSV/ao2caF5MKv1y6atKJDKpsl6yhWR5WSmTHtqLjzqydF5eeMS6MHS96aRbcdaHTrKrFvr+w6qaQh0bG+KXz5/E78efT8Tp8cmn9z+/Ex+O370fip8OTw6LOTiKV215b6kSTUS+CP0gEt7sJo6DkUhamoTCCkdx8eJ44wIes7FXfp7szFZHXBRfXAIZzQJPTK0glEeub0VtSy35a/FUPvnsIvms0GCuLtGeyKaXsMrxQ72dXh7rzyTdk2Rvv7blpTVzIzEN/HgNk6874vW3OzvD4eHh65obzwAHOMABDnCAAxzgAAc4wAHOvxNHhLOb+D+BhS3Vh8K25oookDZoQAMa0IAGNKABDWhAAxrQgCaf5i55NOsvNBfuTAIHOMABDnCAAxzgAAc4wAEOcMrgPP5uoKF+N/B0Rv1uYN9I7rAdHGxu7u6CFKQgBSlIQQpSkIIUpCAFKUhBCtKXQWompFZEkfYS0n7fNHe2QApSkIIUpCAFKUhBClKQghSkIAXpyyDtK9KjwCFIzd2E1DC2t/t9kIIUpCAFKUhBClKQghSkIAUpSEH6Mkg3FemnyYwi3UlId+Nj8CNIQQpSkIIUpCAFKUhBClKQghSkIH0ZpANF+pu0KdLthPTt2+FwexukIAUpSEEKUpCCFKQgBSlIQQpSkL4M0q3k/0zMJEW6lZAOh1tbIAUpSEEKUpCCFKQgBSlIQQpSkIL0pZBuK9KPPtVZ0BwkpDs7pjkYgBSkIAUpSEEKUpCCFKQgBSlIQQrSxkgzFDuw7tornd13Iydy5enEmspuJO+j9uuf/FkQrsaYf33mW+dGeqHje64MEw8rXGxsiAPbFpZIPIk7J5qI0L+Rwu6vODO8HXet6VR6drultFtrK07Ijq4VRUG7dd/qiK2e5knz+CSz+ElhNHflAm/d8kYTP4jPb7nyUoM29XHpe9H6nXTGk0j5uPBdu7iPxdz8evDrYoBP5ERakTgejcTpaPJ6LW+S3myEo8CZRv8hv/Nmw3ZunzeT59DOYl/CsfdbIxXBw/iiLceTwblpGi2RDMV+y3bCqWvN9xzPjW3rF64/uv6+RQPGXhfXIKL5ND5fjcbGlXVrLT7NPVMdt1agok3sC9u5mbqy68m709txu/XtM5AdsdnrJX+sTB/l17YiK3Z89kfLtS6k29pr2fLSmrmRmAb+pePKVmdhOb9v7RndXqd1a7kz2drb2u3uPjl2djutkVpzYg/xMjIcHh62HjqFvJq1eO3X4nWzFq+DWrxu1eJ1uxavO7V43a3Fq9Grx2092WXUk15GPfll1JNgRj0ZZtSTYkY9OWbUk2RGPVlm1pNlZk17WD1ZZtaTZWaFLBPh7OZm6We8S1QIgbQ1nBYcWz2nBUdWz2nBcdVzWnDt0nNacOXSc1pw3dJzWnDV0nNacM3Sc1q0MND0WktOFS0LNL3WklVFiwJNr7XkVdGSQNNrLZlVtCDQ9FpLbhUtBzS91rNf1ZJbRWsBTa9lc+vO8aKqZcCF+kJxrwWHVdNrwWHV9FpwWDW9FlyyNL0WXLI0vRZcsjS9FlyyNL0WXLI0vRatB3Td1pNdRSsCXbf15FfRmkDXbT0ZVrQq0HVbT44VrQt03daTZUUrA123Ne1h9WRZ0eJA161Wln0pcsMhvTco9oUn77IbGsl9jHZ4O+4kNyRW3rnIbjCGMvrRn3l22B70OsIwBh3RV38zB8XuftzHGI/3TW17aEVy7Afzg3snXNygexyKAncxYwfHgS2Dk5m6X1b4RMUxX+b4KK1wFsgFhrrll05B1fuyyY2kZalTGTgyTHFjpXRCpq4fddXdrZWS4XPXvZo07CZxN/VdK3J8L4ZqhZGcrl/ISz+QrWKR9EGOpWcvX9Dis/ZWHAV9FQnqZpih/khve668I5y57Z6PZXToRWp8YonLmTdKSNtr4o8C9z0VoXw8+2xlbqjDuRTtaOKEcVyr84oJqePJSd14/A6t0aT9J7Cutww/vTeY+j2f+qGjHL6NPy5yNdmh3DxDFfh3ekgZluPZUiXuutHRPDs7rsqeeOlIV8VbOx3TRZ6MA382lbZ49Up8k35+3z2fWGG6nqgEW3tqnT9rjQeka43HR0qj60pvHE3EG2GKH0TrwHVbYm/5G6HrjGR73Vg7631ZW5lvX12JH4j2VXwpve/FVSyThmqqqz77bl8Y+hOkDhXGqb+zqy/daxkvb/v7i8Er5zHxmk77le6lZsdFIK3rMic/aJ6j+301XunV7auwVsGQRkqyMXbPF8/0SDt5qic8S0byS7mhzCZ6Ogsn7bJzEU/p3mI+y2eS6+4Vucqu+mZZlTAK/GtZTGfx3bJK/tQaOdG8mFT65dJXlUhkUmW9ZAvJ8rJSJj20Fx91ZOm8vPCIdWHoetNJt+KsD51kVy30/YdVNYU6NjbEL58/id+PP5+I0+OTT+9/fic+HL97PxQ/HZ4cFnNwFK/a8t5SJZqIfBH6cSHtzW7iOBiJpEQMhRWO4uLF8cYFPGZjr/w82ZmtjrgovrgEMpoFnphaQSiPXN+K2pZa8tfiqXzy2UXyWaHBXF2iPZFNL2GV44e/4dnLv9yATR+wVDdU/5ZHQYEDHOAABzjAAQ5wgAMc4ADnxeN8/YCLIgqkDRrQgAY0oAENaEADGtCABjSgyaf56pFARaMe8QMOcIADHOAABzjAAQ5wgAMc4PyNHQ8/yZupDKxoFkjRPlpDz8N/VM/D3ywVcT/J5B8HNxeO9CKhpkx1PpT2LB7/dbHdO3ohTRDNl9AE0WysCWLy6mnZJkxMfvpMfjaZ/AyY/Gwx+dlm8rPD5GeXyc9Sd4FKjrgi2uAKaYMrpg2uoDa4otrgCmuDK64NrsA2uCLb5Ipsk22t5opskyuyTa3ILt60b8lV+TZ9FdyQI1S+FV8FN2Tel2+3V8ENmfPlW+pVcEPme4W2eVX8MMUxvY1VaIZXxQ9TKNN7WIUWd1X8MEUzvYFVaFxXZR1kimd696rQjq6KH6Z4preu8k3mltxUaCtXxQ85PBVax1XxQ6Z7hfZwVfyQ6V6hBVwVP2S6V2nzVskRV0TTO1iV5m2VHHEFNb2JVWnJVskRV1zT+1iVRmuVVkauyKa3sirt0yo54opsejdDU7QX0RQNZphhhhlmmGGGGWaYYYYZZphhhhnmf5J53vVvZRA4tvxoqf9RZXR7aIr/5ErQFP/xQFN8rQNN8dEUX+NAU/y/HmiK/9cDTfE1DzTFR1P8Zw80xQcOcIADHOAABzjAAQ5wgAMc4LyElpKgAQ1oQAMa0IAGNKABDWhA83Jo/mdaWQIHOMABDnCAAxzgAAc4wAFOeb2/oSn+W+dGeqHje64MQ7TE/2e1xPeDa3F4eemMHOmN5o+N8JttgZ9++y+Wp/+e/X3xz0fv6V8e/3Hh23P1z0l04/7n//4fUkIdcg=="
               },
               {
                  "name" : "annual_peak_electric_demand",
                  "units" : "kW",
                  "value" : 505.52825000000001
               },
               {
                  "name" : "first_year_capital_cost",
                  "units" : "$",
                  "value" : 0
               },
               {
                  "name" : "annual_utility_cost",
                  "units" : "$",
                  "value" : 0
               },
               {
                  "name" : "total_lifecycle_cost",
                  "units" : "$",
                  "value" : 0
               }
            ],
            "step_warnings" : []
         }
      }
   ],
   "updated_at" : "20170710T191811Z",
   "weather_file" : "USA_CO_Denver.Intl.AP.725650_TMY3.epw"
}
