{
   "completed_at" : "20170710T194706Z",
   "completed_status" : "Success",
   "created_at" : "2017-07-10 19:24:31 +0000",
   "current_step" : 5,
   "description" : "",
   "eplusout_err" : "Program Version,EnergyPlus, Version 8.7.0-78a111df4a, YMD=2017.07.10 19:35,IDD_Version 8.7.0\n   ************* IDF Context for following error/warning message:\n   ************* Note -- lines truncated at 300 characters, if necessary...\n   *************      5 Building,\n   ************* indicated Name=NECB 2011-Outpatient-NECB HDD Method-CAN_PQ_Schefferville.718280_CWEC.epw created: 2017-07-10 19:24:46 +0000\n   ************* Only last 1 lines before error line shown.....\n   *************      6   NECB 2011-Outpatient-NECB HDD Method-CAN_PQ_Schefferville.718280_CWEC.epw created: 2017-07-10 19:24:46 +0000, !- Name\n   ** Warning ** IP: IDF line~6 Alpha Argument length exceeds maximum, will be truncated=  NECB 2011-Outpatient-NECB HDD Method-CAN_PQ_Schefferville.718280_CWEC.epw created: 2017-07-10 19:24:46 +000\n   **   ~~~   ** Will be processed as Alpha=NECB 2011-OUTPATIENT-NECB HDD METHOD-CAN_PQ_SCHEFFERVILLE.718280_CWEC.EPW CREATED: 2017-07-10 19:24:46 +0000\n   ************* IDF Context for following error/warning message:\n   ************* Note -- lines truncated at 300 characters, if necessary...\n   *************  33194 Schedule:Week:Daily,\n   ************* indicated Name=Schedule:Week:Daily {c8628b8b-eac7-4d4a-9174-e17c9539817d}\n   ************* Only last 10 lines before error line shown.....\n   *************  33195   Schedule:Week:Daily {c8628b8b-eac7-4d4a-9174-e17c9539817d}, !- Name\n   *************  33196   Sp-Floor 3 Physical Therapy 1 Sys-3 Flr-2 Sch-C HPlcmt-south ZN NECB System 3 PSZ Occ Sch Sunday, !- Sunday Schedule:Day Name\n   *************  33197   Sp-Floor 3 Physical Therapy 1 Sys-3 Flr-2 Sch-C HPlcmt-south ZN NECB System 3 PSZ Occ Sch Monday, !- Monday Schedule:Day Name\n   *************  33198   Sp-Floor 3 Physical Therapy 1 Sys-3 Flr-2 Sch-C HPlcmt-south ZN NECB System 3 PSZ Occ Sch Tuesday, !- Tuesday Schedule:Day Name\n   *************  33199   Sp-Floor 3 Physical Therapy 1 Sys-3 Flr-2 Sch-C HPlcmt-south ZN NECB System 3 PSZ Occ Sch Wednesday, !- Wednesday Schedule:Day Name\n   *************  33200   Sp-Floor 3 Physical Therapy 1 Sys-3 Flr-2 Sch-C HPlcmt-south ZN NECB System 3 PSZ Occ Sch Thursday, !- Thursday Schedule:Day Name\n   *************  33201   Sp-Floor 3 Physical Therapy 1 Sys-3 Flr-2 Sch-C HPlcmt-south ZN NECB System 3 PSZ Occ Sch Friday, !- Friday Schedule:Day Name\n   *************  33202   Sp-Floor 3 Physical Therapy 1 Sys-3 Flr-2 Sch-C HPlcmt-south ZN NECB System 3 PSZ Occ Sch Saturday, !- Saturday Schedule:Day Name\n   *************  33203   Sp-Floor 3 Physical Therapy 1 Sys-3 Flr-2 Sch-C HPlcmt-south ZN NECB System 3 PSZ Occ Sch Default, !- Holiday Schedule:Day Name\n   *************  33204   Sp-Floor 3 Physical Therapy 1 Sys-3 Flr-2 Sch-C HPlcmt-south ZN NECB System 3 PSZ Occ Sch Summer Design Day, !- SummerDesignDay Schedule:Day Name\n   ** Warning ** IP: IDF line~33204 Alpha Argument length exceeds maximum, will be truncated=  Sp-Floor 3 Physical Therapy 1 Sys-3 Flr-2 Sch-C HPlcmt-south ZN NECB System 3 PSZ Occ Sch Summer Design Da\n   **   ~~~   ** Will be processed as Alpha=SP-FLOOR 3 PHYSICAL THERAPY 1 SYS-3 FLR-2 SCH-C HPLCMT-SOUTH ZN NECB SYSTEM 3 PSZ OCC SCH SUMMER DESIGN DAY\n   ************* IDF Context for following error/warning message:\n   ************* Note -- lines truncated at 300 characters, if necessary...\n   *************  33194 Schedule:Week:Daily,\n   ************* indicated Name=Schedule:Week:Daily {c8628b8b-eac7-4d4a-9174-e17c9539817d}\n   ************* Only last 10 lines before error line shown.....\n   *************  33196   Sp-Floor 3 Physical Therapy 1 Sys-3 Flr-2 Sch-C HPlcmt-south ZN NECB System 3 PSZ Occ Sch Sunday, !- Sunday Schedule:Day Name\n   *************  33197   Sp-Floor 3 Physical Therapy 1 Sys-3 Flr-2 Sch-C HPlcmt-south ZN NECB System 3 PSZ Occ Sch Monday, !- Monday Schedule:Day Name\n   *************  33198   Sp-Floor 3 Physical Therapy 1 Sys-3 Flr-2 Sch-C HPlcmt-south ZN NECB System 3 PSZ Occ Sch Tuesday, !- Tuesday Schedule:Day Name\n   *************  33199   Sp-Floor 3 Physical Therapy 1 Sys-3 Flr-2 Sch-C HPlcmt-south ZN NECB System 3 PSZ Occ Sch Wednesday, !- Wednesday Schedule:Day Name\n   *************  33200   Sp-Floor 3 Physical Therapy 1 Sys-3 Flr-2 Sch-C HPlcmt-south ZN NECB System 3 PSZ Occ Sch Thursday, !- Thursday Schedule:Day Name\n   *************  33201   Sp-Floor 3 Physical Therapy 1 Sys-3 Flr-2 Sch-C HPlcmt-south ZN NECB System 3 PSZ Occ Sch Friday, !- Friday Schedule:Day Name\n   *************  33202   Sp-Floor 3 Physical Therapy 1 Sys-3 Flr-2 Sch-C HPlcmt-south ZN NECB System 3 PSZ Occ Sch Saturday, !- Saturday Schedule:Day Name\n   *************  33203   Sp-Floor 3 Physical Therapy 1 Sys-3 Flr-2 Sch-C HPlcmt-south ZN NECB System 3 PSZ Occ Sch Default, !- Holiday Schedule:Day Name\n   *************  33204   Sp-Floor 3 Physical Therapy 1 Sys-3 Flr-2 Sch-C HPlcmt-south ZN NECB System 3 PSZ Occ Sch Summer Design Day, !- SummerDesignDay Schedule:Day Name\n   *************  33205   Sp-Floor 3 Physical Therapy 1 Sys-3 Flr-2 Sch-C HPlcmt-south ZN NECB System 3 PSZ Occ Sch Winter Design Day, !- WinterDesignDay Schedule:Day Name\n   ** Warning ** IP: IDF line~33205 Alpha Argument length exceeds maximum, will be truncated=  Sp-Floor 3 Physical Therapy 1 Sys-3 Flr-2 Sch-C HPlcmt-south ZN NECB System 3 PSZ Occ Sch Winter Design Da\n   **   ~~~   ** Will be processed as Alpha=SP-FLOOR 3 PHYSICAL THERAPY 1 SYS-3 FLR-2 SCH-C HPLCMT-SOUTH ZN NECB SYSTEM 3 PSZ OCC SCH WINTER DESIGN DAY\n   ************* IDF Context for following error/warning message:\n   ************* Note -- lines truncated at 300 characters, if necessary...\n   *************  33225 Schedule:Day:Interval,\n   ************* indicated Name=Sp-Floor 3 Physical Therapy 1 Sys-3 Flr-2 Sch-C HPlcmt-south ZN NECB System 3 PSZ Occ Sch Summer Design Day\n   ************* Only last 1 lines before error line shown.....\n   *************  33226   Sp-Floor 3 Physical Therapy 1 Sys-3 Flr-2 Sch-C HPlcmt-south ZN NECB System 3 PSZ Occ Sch Summer Design Day, !- Name\n   ** Warning ** IP: IDF line~33226 Alpha Argument length exceeds maximum, will be truncated=  Sp-Floor 3 Physical Therapy 1 Sys-3 Flr-2 Sch-C HPlcmt-south ZN NECB System 3 PSZ Occ Sch Summer Design Da\n   **   ~~~   ** Will be processed as Alpha=SP-FLOOR 3 PHYSICAL THERAPY 1 SYS-3 FLR-2 SCH-C HPLCMT-SOUTH ZN NECB SYSTEM 3 PSZ OCC SCH SUMMER DESIGN DAY\n   ************* IDF Context for following error/warning message:\n   ************* Note -- lines truncated at 300 characters, if necessary...\n   *************  33232 Schedule:Day:Interval,\n   ************* indicated Name=Sp-Floor 3 Physical Therapy 1 Sys-3 Flr-2 Sch-C HPlcmt-south ZN NECB System 3 PSZ Occ Sch Winter Design Day\n   ************* Only last 1 lines before error line shown.....\n   *************  33233   Sp-Floor 3 Physical Therapy 1 Sys-3 Flr-2 Sch-C HPlcmt-south ZN NECB System 3 PSZ Occ Sch Winter Design Day, !- Name\n   ** Warning ** IP: IDF line~33233 Alpha Argument length exceeds maximum, will be truncated=  Sp-Floor 3 Physical Therapy 1 Sys-3 Flr-2 Sch-C HPlcmt-south ZN NECB System 3 PSZ Occ Sch Winter Design Da\n   **   ~~~   ** Will be processed as Alpha=SP-FLOOR 3 PHYSICAL THERAPY 1 SYS-3 FLR-2 SCH-C HPLCMT-SOUTH ZN NECB SYSTEM 3 PSZ OCC SCH WINTER DESIGN DAY\n   ************* IDF Context for following error/warning message:\n   ************* Note -- lines truncated at 300 characters, if necessary...\n   *************  35100 Schedule:Week:Daily,\n   ************* indicated Name=Schedule:Week:Daily {0c5fa308-af4c-4ec0-8130-5b12195ace46}\n   ************* Only last 10 lines before error line shown.....\n   *************  35101   Schedule:Week:Daily {0c5fa308-af4c-4ec0-8130-5b12195ace46}, !- Name\n   *************  35102   Sp-Floor 3 Undeveloped 1 Sys-4 Flr-2 Sch-E HPlcmt-south ZN NECB System 4 PSZ Occ Sch Sunday, !- Sunday Schedule:Day Name\n   *************  35103   Sp-Floor 3 Undeveloped 1 Sys-4 Flr-2 Sch-E HPlcmt-south ZN NECB System 4 PSZ Occ Sch Monday, !- Monday Schedule:Day Name\n   *************  35104   Sp-Floor 3 Undeveloped 1 Sys-4 Flr-2 Sch-E HPlcmt-south ZN NECB System 4 PSZ Occ Sch Tuesday, !- Tuesday Schedule:Day Name\n   *************  35105   Sp-Floor 3 Undeveloped 1 Sys-4 Flr-2 Sch-E HPlcmt-south ZN NECB System 4 PSZ Occ Sch Wednesday, !- Wednesday Schedule:Day Name\n   *************  35106   Sp-Floor 3 Undeveloped 1 Sys-4 Flr-2 Sch-E HPlcmt-south ZN NECB System 4 PSZ Occ Sch Thursday, !- Thursday Schedule:Day Name\n   *************  35107   Sp-Floor 3 Undeveloped 1 Sys-4 Flr-2 Sch-E HPlcmt-south ZN NECB System 4 PSZ Occ Sch Friday, !- Friday Schedule:Day Name\n   *************  35108   Sp-Floor 3 Undeveloped 1 Sys-4 Flr-2 Sch-E HPlcmt-south ZN NECB System 4 PSZ Occ Sch Saturday, !- Saturday Schedule:Day Name\n   *************  35109   Sp-Floor 3 Undeveloped 1 Sys-4 Flr-2 Sch-E HPlcmt-south ZN NECB System 4 PSZ Occ Sch Default, !- Holiday Schedule:Day Name\n   *************  35110   Sp-Floor 3 Undeveloped 1 Sys-4 Flr-2 Sch-E HPlcmt-south ZN NECB System 4 PSZ Occ Sch Summer Design Day, !- SummerDesignDay Schedule:Day Name\n   ** Warning ** IP: IDF line~35110 Alpha Argument length exceeds maximum, will be truncated=  Sp-Floor 3 Undeveloped 1 Sys-4 Flr-2 Sch-E HPlcmt-south ZN NECB System 4 PSZ Occ Sch Summer Design Da\n   **   ~~~   ** Will be processed as Alpha=SP-FLOOR 3 UNDEVELOPED 1 SYS-4 FLR-2 SCH-E HPLCMT-SOUTH ZN NECB SYSTEM 4 PSZ OCC SCH SUMMER DESIGN DAY\n   ************* IDF Context for following error/warning message:\n   ************* Note -- lines truncated at 300 characters, if necessary...\n   *************  35100 Schedule:Week:Daily,\n   ************* indicated Name=Schedule:Week:Daily {0c5fa308-af4c-4ec0-8130-5b12195ace46}\n   ************* Only last 10 lines before error line shown.....\n   *************  35102   Sp-Floor 3 Undeveloped 1 Sys-4 Flr-2 Sch-E HPlcmt-south ZN NECB System 4 PSZ Occ Sch Sunday, !- Sunday Schedule:Day Name\n   *************  35103   Sp-Floor 3 Undeveloped 1 Sys-4 Flr-2 Sch-E HPlcmt-south ZN NECB System 4 PSZ Occ Sch Monday, !- Monday Schedule:Day Name\n   *************  35104   Sp-Floor 3 Undeveloped 1 Sys-4 Flr-2 Sch-E HPlcmt-south ZN NECB System 4 PSZ Occ Sch Tuesday, !- Tuesday Schedule:Day Name\n   *************  35105   Sp-Floor 3 Undeveloped 1 Sys-4 Flr-2 Sch-E HPlcmt-south ZN NECB System 4 PSZ Occ Sch Wednesday, !- Wednesday Schedule:Day Name\n   *************  35106   Sp-Floor 3 Undeveloped 1 Sys-4 Flr-2 Sch-E HPlcmt-south ZN NECB System 4 PSZ Occ Sch Thursday, !- Thursday Schedule:Day Name\n   *************  35107   Sp-Floor 3 Undeveloped 1 Sys-4 Flr-2 Sch-E HPlcmt-south ZN NECB System 4 PSZ Occ Sch Friday, !- Friday Schedule:Day Name\n   *************  35108   Sp-Floor 3 Undeveloped 1 Sys-4 Flr-2 Sch-E HPlcmt-south ZN NECB System 4 PSZ Occ Sch Saturday, !- Saturday Schedule:Day Name\n   *************  35109   Sp-Floor 3 Undeveloped 1 Sys-4 Flr-2 Sch-E HPlcmt-south ZN NECB System 4 PSZ Occ Sch Default, !- Holiday Schedule:Day Name\n   *************  35110   Sp-Floor 3 Undeveloped 1 Sys-4 Flr-2 Sch-E HPlcmt-south ZN NECB System 4 PSZ Occ Sch Summer Design Day, !- SummerDesignDay Schedule:Day Name\n   *************  35111   Sp-Floor 3 Undeveloped 1 Sys-4 Flr-2 Sch-E HPlcmt-south ZN NECB System 4 PSZ Occ Sch Winter Design Day, !- WinterDesignDay Schedule:Day Name\n   ** Warning ** IP: IDF line~35111 Alpha Argument length exceeds maximum, will be truncated=  Sp-Floor 3 Undeveloped 1 Sys-4 Flr-2 Sch-E HPlcmt-south ZN NECB System 4 PSZ Occ Sch Winter Design Da\n   **   ~~~   ** Will be processed as Alpha=SP-FLOOR 3 UNDEVELOPED 1 SYS-4 FLR-2 SCH-E HPLCMT-SOUTH ZN NECB SYSTEM 4 PSZ OCC SCH WINTER DESIGN DAY\n   ************* IDF Context for following error/warning message:\n   ************* Note -- lines truncated at 300 characters, if necessary...\n   *************  35131 Schedule:Day:Interval,\n   ************* indicated Name=Sp-Floor 3 Undeveloped 1 Sys-4 Flr-2 Sch-E HPlcmt-south ZN NECB System 4 PSZ Occ Sch Summer Design Day\n   ************* Only last 1 lines before error line shown.....\n   *************  35132   Sp-Floor 3 Undeveloped 1 Sys-4 Flr-2 Sch-E HPlcmt-south ZN NECB System 4 PSZ Occ Sch Summer Design Day, !- Name\n   ** Warning ** IP: IDF line~35132 Alpha Argument length exceeds maximum, will be truncated=  Sp-Floor 3 Undeveloped 1 Sys-4 Flr-2 Sch-E HPlcmt-south ZN NECB System 4 PSZ Occ Sch Summer Design Da\n   **   ~~~   ** Will be processed as Alpha=SP-FLOOR 3 UNDEVELOPED 1 SYS-4 FLR-2 SCH-E HPLCMT-SOUTH ZN NECB SYSTEM 4 PSZ OCC SCH SUMMER DESIGN DAY\n   ************* IDF Context for following error/warning message:\n   ************* Note -- lines truncated at 300 characters, if necessary...\n   *************  35138 Schedule:Day:Interval,\n   ************* indicated Name=Sp-Floor 3 Undeveloped 1 Sys-4 Flr-2 Sch-E HPlcmt-south ZN NECB System 4 PSZ Occ Sch Winter Design Day\n   ************* Only last 1 lines before error line shown.....\n   *************  35139   Sp-Floor 3 Undeveloped 1 Sys-4 Flr-2 Sch-E HPlcmt-south ZN NECB System 4 PSZ Occ Sch Winter Design Day, !- Name\n   ** Warning ** IP: IDF line~35139 Alpha Argument length exceeds maximum, will be truncated=  Sp-Floor 3 Undeveloped 1 Sys-4 Flr-2 Sch-E HPlcmt-south ZN NECB System 4 PSZ Occ Sch Winter Design Da\n   **   ~~~   ** Will be processed as Alpha=SP-FLOOR 3 UNDEVELOPED 1 SYS-4 FLR-2 SCH-E HPLCMT-SOUTH ZN NECB SYSTEM 4 PSZ OCC SCH WINTER DESIGN DAY\n   ************* IDF Context for following error/warning message:\n   ************* Note -- lines truncated at 300 characters, if necessary...\n   *************  49790 AirLoopHVAC,\n   ************* indicated Name=Sp-Floor 1 Electrical Room Sys-3 Flr-3 Sch-H HPlcmt-east ZN NECB System 3 PSZ\n   ************* Only last 3 lines before error line shown.....\n   *************  49791   Sp-Floor 1 Electrical Room Sys-3 Flr-3 Sch-H HPlcmt-east ZN NECB System 3 PSZ, !- Name\n   *************  49792   ,                                       !- Controller List Name\n   *************  49793   Sp-Floor 1 Electrical Room Sys-3 Flr-3 Sch-H HPlcmt-east ZN NECB System 3 PSZAvailability Manager List, !- Availability Manager List Name\n   ** Warning ** IP: IDF line~49793 Alpha Argument length exceeds maximum, will be truncated=  Sp-Floor 1 Electrical Room Sys-3 Flr-3 Sch-H HPlcmt-east ZN NECB System 3 PSZAvailability Manager Lis\n   **   ~~~   ** Will be processed as Alpha=SP-FLOOR 1 ELECTRICAL ROOM SYS-3 FLR-3 SCH-H HPLCMT-EAST ZN NECB SYSTEM 3 PSZAVAILABILITY MANAGER LIST\n   ************* IDF Context for following error/warning message:\n   ************* Note -- lines truncated at 300 characters, if necessary...\n   *************  49849 AvailabilityManagerAssignmentList,\n   ************* indicated Name=Sp-Floor 1 Electrical Room Sys-3 Flr-3 Sch-H HPlcmt-east ZN NECB System 3 PSZAvailability Manager List\n   ************* Only last 1 lines before error line shown.....\n   *************  49850   Sp-Floor 1 Electrical Room Sys-3 Flr-3 Sch-H HPlcmt-east ZN NECB System 3 PSZAvailability Manager List, !- Name\n   ** Warning ** IP: IDF line~49850 Alpha Argument length exceeds maximum, will be truncated=  Sp-Floor 1 Electrical Room Sys-3 Flr-3 Sch-H HPlcmt-east ZN NECB System 3 PSZAvailability Manager Lis\n   **   ~~~   ** Will be processed as Alpha=SP-FLOOR 1 ELECTRICAL ROOM SYS-3 FLR-3 SCH-H HPLCMT-EAST ZN NECB SYSTEM 3 PSZAVAILABILITY MANAGER LIST\n   ************* IDF Context for following error/warning message:\n   ************* Note -- lines truncated at 300 characters, if necessary...\n   *************  50112 AirLoopHVAC,\n   ************* indicated Name=Sp-Floor 1 Elevator Pump Room Sys-3 Flr-3 Sch-H HPlcmt-north ZN NECB System 3 PSZ\n   ************* Only last 3 lines before error line shown.....\n   *************  50113   Sp-Floor 1 Elevator Pump Room Sys-3 Flr-3 Sch-H HPlcmt-north ZN NECB System 3 PSZ, !- Name\n   *************  50114   ,                                       !- Controller List Name\n   *************  50115   Sp-Floor 1 Elevator Pump Room Sys-3 Flr-3 Sch-H HPlcmt-north ZN NECB System 3 PSZAvailability Manager List, !- Availability Manager List Name\n   ** Warning ** IP: IDF line~50115 Alpha Argument length exceeds maximum, will be truncated=  Sp-Floor 1 Elevator Pump Room Sys-3 Flr-3 Sch-H HPlcmt-north ZN NECB System 3 PSZAvailability Manager Lis\n   **   ~~~   ** Will be processed as Alpha=SP-FLOOR 1 ELEVATOR PUMP ROOM SYS-3 FLR-3 SCH-H HPLCMT-NORTH ZN NECB SYSTEM 3 PSZAVAILABILITY MANAGER LIST\n   ************* IDF Context for following error/warning message:\n   ************* Note -- lines truncated at 300 characters, if necessary...\n   *************  50112 AirLoopHVAC,\n   ************* indicated Name=Sp-Floor 1 Elevator Pump Room Sys-3 Flr-3 Sch-H HPlcmt-north ZN NECB System 3 PSZ\n   ************* Only last 10 lines before error line shown.....\n   *************  50113   Sp-Floor 1 Elevator Pump Room Sys-3 Flr-3 Sch-H HPlcmt-north ZN NECB System 3 PSZ, !- Name\n   *************  50114   ,                                       !- Controller List Name\n   *************  50115   Sp-Floor 1 Elevator Pump Room Sys-3 Flr-3 Sch-H HPlcmt-north ZN NECB System 3 PSZAvailability Manager List, !- Availability Manager List Name\n   *************  50116   AutoSize,                               !- Design Supply Air Flow Rate {m3/s}\n   *************  50117   Sp-Floor 1 Elevator Pump Room Sys-3 Flr-3 Sch-H HPlcmt-north ZN NECB System 3 PSZ Supply Branches, !- Branch List Name\n   *************  50118   ,                                       !- Connector List Name\n   *************  50119   Node 592,                               !- Supply Side Inlet Node Name\n   *************  50120   Node 595,                               !- Demand Side Outlet Node Name\n   *************  50121   Sp-Floor 1 Elevator Pump Room Sys-3 Flr-3 Sch-H HPlcmt-north ZN NECB System 3 PSZ Demand Inlet Nodes, !- Demand Side Inlet Node Names\n   *************  50122   Sp-Floor 1 Elevator Pump Room Sys-3 Flr-3 Sch-H HPlcmt-north ZN NECB System 3 PSZ Supply Outlet Nodes; !- Supply Side Outlet Node Names\n   ** Warning ** IP: IDF line~50122 Alpha Argument length exceeds maximum, will be truncated=  Sp-Floor 1 Elevator Pump Room Sys-3 Flr-3 Sch-H HPlcmt-north ZN NECB System 3 PSZ Supply Outlet Node\n   **   ~~~   ** Will be processed as Alpha=SP-FLOOR 1 ELEVATOR PUMP ROOM SYS-3 FLR-3 SCH-H HPLCMT-NORTH ZN NECB SYSTEM 3 PSZ SUPPLY OUTLET NODES\n   ************* IDF Context for following error/warning message:\n   ************* Note -- lines truncated at 300 characters, if necessary...\n   *************  50124 NodeList,\n   ************* indicated Name=Sp-Floor 1 Elevator Pump Room Sys-3 Flr-3 Sch-H HPlcmt-north ZN NECB System 3 PSZ Supply Outlet Nodes\n   ************* Only last 1 lines before error line shown.....\n   *************  50125   Sp-Floor 1 Elevator Pump Room Sys-3 Flr-3 Sch-H HPlcmt-north ZN NECB System 3 PSZ Supply Outlet Nodes, !- Name\n   ** Warning ** IP: IDF line~50125 Alpha Argument length exceeds maximum, will be truncated=  Sp-Floor 1 Elevator Pump Room Sys-3 Flr-3 Sch-H HPlcmt-north ZN NECB System 3 PSZ Supply Outlet Node\n   **   ~~~   ** Will be processed as Alpha=SP-FLOOR 1 ELEVATOR PUMP ROOM SYS-3 FLR-3 SCH-H HPLCMT-NORTH ZN NECB SYSTEM 3 PSZ SUPPLY OUTLET NODES\n   ************* IDF Context for following error/warning message:\n   ************* Note -- lines truncated at 300 characters, if necessary...\n   *************  50171 AvailabilityManagerAssignmentList,\n   ************* indicated Name=Sp-Floor 1 Elevator Pump Room Sys-3 Flr-3 Sch-H HPlcmt-north ZN NECB System 3 PSZAvailability Manager List\n   ************* Only last 1 lines before error line shown.....\n   *************  50172   Sp-Floor 1 Elevator Pump Room Sys-3 Flr-3 Sch-H HPlcmt-north ZN NECB System 3 PSZAvailability Manager List, !- Name\n   ** Warning ** IP: IDF line~50172 Alpha Argument length exceeds maximum, will be truncated=  Sp-Floor 1 Elevator Pump Room Sys-3 Flr-3 Sch-H HPlcmt-north ZN NECB System 3 PSZAvailability Manager Lis\n   **   ~~~   ** Will be processed as Alpha=SP-FLOOR 1 ELEVATOR PUMP ROOM SYS-3 FLR-3 SCH-H HPLCMT-NORTH ZN NECB SYSTEM 3 PSZAVAILABILITY MANAGER LIST\n   ************* IDF Context for following error/warning message:\n   ************* Note -- lines truncated at 300 characters, if necessary...\n   *************  50171 AvailabilityManagerAssignmentList,\n   ************* indicated Name=Sp-Floor 1 Elevator Pump Room Sys-3 Flr-3 Sch-H HPlcmt-north ZN NECB System 3 PSZAvailability Manager List\n   ************* Only last 3 lines before error line shown.....\n   *************  50172   Sp-Floor 1 Elevator Pump Room Sys-3 Flr-3 Sch-H HPlcmt-north ZN NECB System 3 PSZAvailability Manager List, !- Name\n   *************  50173   AvailabilityManager:Scheduled,          !- Availability Manager Object Type 1\n   *************  50174   Sp-Floor 1 Elevator Pump Room Sys-3 Flr-3 Sch-H HPlcmt-north ZN NECB System 3 PSZ Availability Manager; !- Availability Manager Name 1\n   ** Warning ** IP: IDF line~50174 Alpha Argument length exceeds maximum, will be truncated=  Sp-Floor 1 Elevator Pump Room Sys-3 Flr-3 Sch-H HPlcmt-north ZN NECB System 3 PSZ Availability Manage\n   **   ~~~   ** Will be processed as Alpha=SP-FLOOR 1 ELEVATOR PUMP ROOM SYS-3 FLR-3 SCH-H HPLCMT-NORTH ZN NECB SYSTEM 3 PSZ AVAILABILITY MANAGER\n   ************* IDF Context for following error/warning message:\n   ************* Note -- lines truncated at 300 characters, if necessary...\n   *************  50176 AvailabilityManager:Scheduled,\n   ************* indicated Name=Sp-Floor 1 Elevator Pump Room Sys-3 Flr-3 Sch-H HPlcmt-north ZN NECB System 3 PSZ Availability Manager\n   ************* Only last 1 lines before error line shown.....\n   *************  50177   Sp-Floor 1 Elevator Pump Room Sys-3 Flr-3 Sch-H HPlcmt-north ZN NECB System 3 PSZ Availability Manager, !- Name\n   ** Warning ** IP: IDF line~50177 Alpha Argument length exceeds maximum, will be truncated=  Sp-Floor 1 Elevator Pump Room Sys-3 Flr-3 Sch-H HPlcmt-north ZN NECB System 3 PSZ Availability Manage\n   **   ~~~   ** Will be processed as Alpha=SP-FLOOR 1 ELEVATOR PUMP ROOM SYS-3 FLR-3 SCH-H HPLCMT-NORTH ZN NECB SYSTEM 3 PSZ AVAILABILITY MANAGER\n   ************* IDF Context for following error/warning message:\n   ************* Note -- lines truncated at 300 characters, if necessary...\n   *************  50412 AirLoopHVAC:SupplyPath,\n   ************* indicated Name=Sp-Floor 1 Elevator Pump Room Sys-3 Flr-3 Sch-H HPlcmt-north ZN NECB System 3 PSZ Node 594 Supply Path\n   ************* Only last 1 lines before error line shown.....\n   *************  50413   Sp-Floor 1 Elevator Pump Room Sys-3 Flr-3 Sch-H HPlcmt-north ZN NECB System 3 PSZ Node 594 Supply Path, !- Name\n   ** Warning ** IP: IDF line~50413 Alpha Argument length exceeds maximum, will be truncated=  Sp-Floor 1 Elevator Pump Room Sys-3 Flr-3 Sch-H HPlcmt-north ZN NECB System 3 PSZ Node 594 Supply Pat\n   **   ~~~   ** Will be processed as Alpha=SP-FLOOR 1 ELEVATOR PUMP ROOM SYS-3 FLR-3 SCH-H HPLCMT-NORTH ZN NECB SYSTEM 3 PSZ NODE 594 SUPPLY PATH\n   ************* IDF Context for following error/warning message:\n   ************* Note -- lines truncated at 300 characters, if necessary...\n   *************  51722 AirLoopHVAC,\n   ************* indicated Name=Sp-Floor 1 Locker Room Hall Sys-4 Flr-3 Sch-H HPlcmt-core ZN NECB System 4 PSZ\n   ************* Only last 3 lines before error line shown.....\n   *************  51723   Sp-Floor 1 Locker Room Hall Sys-4 Flr-3 Sch-H HPlcmt-core ZN NECB System 4 PSZ, !- Name\n   *************  51724   ,                                       !- Controller List Name\n   *************  51725   Sp-Floor 1 Locker Room Hall Sys-4 Flr-3 Sch-H HPlcmt-core ZN NECB System 4 PSZAvailability Manager List, !- Availability Manager List Name\n   ** Warning ** IP: IDF line~51725 Alpha Argument length exceeds maximum, will be truncated=  Sp-Floor 1 Locker Room Hall Sys-4 Flr-3 Sch-H HPlcmt-core ZN NECB System 4 PSZAvailability Manager Lis\n   **   ~~~   ** Will be processed as Alpha=SP-FLOOR 1 LOCKER ROOM HALL SYS-4 FLR-3 SCH-H HPLCMT-CORE ZN NECB SYSTEM 4 PSZAVAILABILITY MANAGER LIST\n   ************* IDF Context for following error/warning message:\n   ************* Note -- lines truncated at 300 characters, if necessary...\n   *************  51781 AvailabilityManagerAssignmentList,\n   ************* indicated Name=Sp-Floor 1 Locker Room Hall Sys-4 Flr-3 Sch-H HPlcmt-core ZN NECB System 4 PSZAvailability Manager List\n   ************* Only last 1 lines before error line shown.....\n   *************  51782   Sp-Floor 1 Locker Room Hall Sys-4 Flr-3 Sch-H HPlcmt-core ZN NECB System 4 PSZAvailability Manager List, !- Name\n   ** Warning ** IP: IDF line~51782 Alpha Argument length exceeds maximum, will be truncated=  Sp-Floor 1 Locker Room Hall Sys-4 Flr-3 Sch-H HPlcmt-core ZN NECB System 4 PSZAvailability Manager Lis\n   **   ~~~   ** Will be processed as Alpha=SP-FLOOR 1 LOCKER ROOM HALL SYS-4 FLR-3 SCH-H HPLCMT-CORE ZN NECB SYSTEM 4 PSZAVAILABILITY MANAGER LIST\n   ************* IDF Context for following error/warning message:\n   ************* Note -- lines truncated at 300 characters, if necessary...\n   *************  52688 AirLoopHVAC,\n   ************* indicated Name=Sp-Floor 1 MRI Control Room Sys-3 Flr-3 Sch-H HPlcmt-north ZN NECB System 3 PSZ\n   ************* Only last 3 lines before error line shown.....\n   *************  52689   Sp-Floor 1 MRI Control Room Sys-3 Flr-3 Sch-H HPlcmt-north ZN NECB System 3 PSZ, !- Name\n   *************  52690   ,                                       !- Controller List Name\n   *************  52691   Sp-Floor 1 MRI Control Room Sys-3 Flr-3 Sch-H HPlcmt-north ZN NECB System 3 PSZAvailability Manager List, !- Availability Manager List Name\n   ** Warning ** IP: IDF line~52691 Alpha Argument length exceeds maximum, will be truncated=  Sp-Floor 1 MRI Control Room Sys-3 Flr-3 Sch-H HPlcmt-north ZN NECB System 3 PSZAvailability Manager Lis\n   **   ~~~   ** Will be processed as Alpha=SP-FLOOR 1 MRI CONTROL ROOM SYS-3 FLR-3 SCH-H HPLCMT-NORTH ZN NECB SYSTEM 3 PSZAVAILABILITY MANAGER LIST\n   ************* IDF Context for following error/warning message:\n   ************* Note -- lines truncated at 300 characters, if necessary...\n   *************  52747 AvailabilityManagerAssignmentList,\n   ************* indicated Name=Sp-Floor 1 MRI Control Room Sys-3 Flr-3 Sch-H HPlcmt-north ZN NECB System 3 PSZAvailability Manager List\n   ************* Only last 1 lines before error line shown.....\n   *************  52748   Sp-Floor 1 MRI Control Room Sys-3 Flr-3 Sch-H HPlcmt-north ZN NECB System 3 PSZAvailability Manager List, !- Name\n   ** Warning ** IP: IDF line~52748 Alpha Argument length exceeds maximum, will be truncated=  Sp-Floor 1 MRI Control Room Sys-3 Flr-3 Sch-H HPlcmt-north ZN NECB System 3 PSZAvailability Manager Lis\n   **   ~~~   ** Will be processed as Alpha=SP-FLOOR 1 MRI CONTROL ROOM SYS-3 FLR-3 SCH-H HPLCMT-NORTH ZN NECB SYSTEM 3 PSZAVAILABILITY MANAGER LIST\n   ************* IDF Context for following error/warning message:\n   ************* Note -- lines truncated at 300 characters, if necessary...\n   *************  54942 AirLoopHVAC,\n   ************* indicated Name=Sp-Floor 1 Operating Room 1 Sys-3 Flr-3 Sch-H HPlcmt-east ZN NECB System 3 PSZ\n   ************* Only last 3 lines before error line shown.....\n   *************  54943   Sp-Floor 1 Operating Room 1 Sys-3 Flr-3 Sch-H HPlcmt-east ZN NECB System 3 PSZ, !- Name\n   *************  54944   ,                                       !- Controller List Name\n   *************  54945   Sp-Floor 1 Operating Room 1 Sys-3 Flr-3 Sch-H HPlcmt-east ZN NECB System 3 PSZAvailability Manager List, !- Availability Manager List Name\n   ** Warning ** IP: IDF line~54945 Alpha Argument length exceeds maximum, will be truncated=  Sp-Floor 1 Operating Room 1 Sys-3 Flr-3 Sch-H HPlcmt-east ZN NECB System 3 PSZAvailability Manager Lis\n   **   ~~~   ** Will be processed as Alpha=SP-FLOOR 1 OPERATING ROOM 1 SYS-3 FLR-3 SCH-H HPLCMT-EAST ZN NECB SYSTEM 3 PSZAVAILABILITY MANAGER LIST\n   ************* IDF Context for following error/warning message:\n   ************* Note -- lines truncated at 300 characters, if necessary...\n   *************  55001 AvailabilityManagerAssignmentList,\n   ************* indicated Name=Sp-Floor 1 Operating Room 1 Sys-3 Flr-3 Sch-H HPlcmt-east ZN NECB System 3 PSZAvailability Manager List\n   ************* Only last 1 lines before error line shown.....\n   *************  55002   Sp-Floor 1 Operating Room 1 Sys-3 Flr-3 Sch-H HPlcmt-east ZN NECB System 3 PSZAvailability Manager List, !- Name\n   ** Warning ** IP: IDF line~55002 Alpha Argument length exceeds maximum, will be truncated=  Sp-Floor 1 Operating Room 1 Sys-3 Flr-3 Sch-H HPlcmt-east ZN NECB System 3 PSZAvailability Manager Lis\n   **   ~~~   ** Will be processed as Alpha=SP-FLOOR 1 OPERATING ROOM 1 SYS-3 FLR-3 SCH-H HPLCMT-EAST ZN NECB SYSTEM 3 PSZAVAILABILITY MANAGER LIST\n   ************* IDF Context for following error/warning message:\n   ************* Note -- lines truncated at 300 characters, if necessary...\n   *************  55264 AirLoopHVAC,\n   ************* indicated Name=Sp-Floor 1 Operating Room 2 Sys-3 Flr-3 Sch-H HPlcmt-east ZN NECB System 3 PSZ\n   ************* Only last 3 lines before error line shown.....\n   *************  55265   Sp-Floor 1 Operating Room 2 Sys-3 Flr-3 Sch-H HPlcmt-east ZN NECB System 3 PSZ, !- Name\n   *************  55266   ,                                       !- Controller List Name\n   *************  55267   Sp-Floor 1 Operating Room 2 Sys-3 Flr-3 Sch-H HPlcmt-east ZN NECB System 3 PSZAvailability Manager List, !- Availability Manager List Name\n   ** Warning ** IP: IDF line~55267 Alpha Argument length exceeds maximum, will be truncated=  Sp-Floor 1 Operating Room 2 Sys-3 Flr-3 Sch-H HPlcmt-east ZN NECB System 3 PSZAvailability Manager Lis\n   **   ~~~   ** Will be processed as Alpha=SP-FLOOR 1 OPERATING ROOM 2 SYS-3 FLR-3 SCH-H HPLCMT-EAST ZN NECB SYSTEM 3 PSZAVAILABILITY MANAGER LIST\n   ************* IDF Context for following error/warning message:\n   ************* Note -- lines truncated at 300 characters, if necessary...\n   *************  55323 AvailabilityManagerAssignmentList,\n   ************* indicated Name=Sp-Floor 1 Operating Room 2 Sys-3 Flr-3 Sch-H HPlcmt-east ZN NECB System 3 PSZAvailability Manager List\n   ************* Only last 1 lines before error line shown.....\n   *************  55324   Sp-Floor 1 Operating Room 2 Sys-3 Flr-3 Sch-H HPlcmt-east ZN NECB System 3 PSZAvailability Manager List, !- Name\n   ** Warning ** IP: IDF line~55324 Alpha Argument length exceeds maximum, will be truncated=  Sp-Floor 1 Operating Room 2 Sys-3 Flr-3 Sch-H HPlcmt-east ZN NECB System 3 PSZAvailability Manager Lis\n   **   ~~~   ** Will be processed as Alpha=SP-FLOOR 1 OPERATING ROOM 2 SYS-3 FLR-3 SCH-H HPLCMT-EAST ZN NECB SYSTEM 3 PSZAVAILABILITY MANAGER LIST\n   ************* IDF Context for following error/warning message:\n   ************* Note -- lines truncated at 300 characters, if necessary...\n   *************  55586 AirLoopHVAC,\n   ************* indicated Name=Sp-Floor 1 Operating Room 3 Sys-3 Flr-3 Sch-H HPlcmt-core ZN NECB System 3 PSZ\n   ************* Only last 3 lines before error line shown.....\n   *************  55587   Sp-Floor 1 Operating Room 3 Sys-3 Flr-3 Sch-H HPlcmt-core ZN NECB System 3 PSZ, !- Name\n   *************  55588   ,                                       !- Controller List Name\n   *************  55589   Sp-Floor 1 Operating Room 3 Sys-3 Flr-3 Sch-H HPlcmt-core ZN NECB System 3 PSZAvailability Manager List, !- Availability Manager List Name\n   ** Warning ** IP: IDF line~55589 Alpha Argument length exceeds maximum, will be truncated=  Sp-Floor 1 Operating Room 3 Sys-3 Flr-3 Sch-H HPlcmt-core ZN NECB System 3 PSZAvailability Manager Lis\n   **   ~~~   ** Will be processed as Alpha=SP-FLOOR 1 OPERATING ROOM 3 SYS-3 FLR-3 SCH-H HPLCMT-CORE ZN NECB SYSTEM 3 PSZAVAILABILITY MANAGER LIST\n   ************* IDF Context for following error/warning message:\n   ************* Note -- lines truncated at 300 characters, if necessary...\n   *************  55645 AvailabilityManagerAssignmentList,\n   ************* indicated Name=Sp-Floor 1 Operating Room 3 Sys-3 Flr-3 Sch-H HPlcmt-core ZN NECB System 3 PSZAvailability Manager List\n   ************* Only last 1 lines before error line shown.....\n   *************  55646   Sp-Floor 1 Operating Room 3 Sys-3 Flr-3 Sch-H HPlcmt-core ZN NECB System 3 PSZAvailability Manager List, !- Name\n   ** Warning ** IP: IDF line~55646 Alpha Argument length exceeds maximum, will be truncated=  Sp-Floor 1 Operating Room 3 Sys-3 Flr-3 Sch-H HPlcmt-core ZN NECB System 3 PSZAvailability Manager Lis\n   **   ~~~   ** Will be processed as Alpha=SP-FLOOR 1 OPERATING ROOM 3 SYS-3 FLR-3 SCH-H HPLCMT-CORE ZN NECB SYSTEM 3 PSZAVAILABILITY MANAGER LIST\n   ************* IDF Context for following error/warning message:\n   ************* Note -- lines truncated at 300 characters, if necessary...\n   *************  57196 AirLoopHVAC,\n   ************* indicated Name=Sp-Floor 1 Procedure Room Sys-3 Flr-3 Sch-H HPlcmt-north ZN NECB System 3 PSZ\n   ************* Only last 3 lines before error line shown.....\n   *************  57197   Sp-Floor 1 Procedure Room Sys-3 Flr-3 Sch-H HPlcmt-north ZN NECB System 3 PSZ, !- Name\n   *************  57198   ,                                       !- Controller List Name\n   *************  57199   Sp-Floor 1 Procedure Room Sys-3 Flr-3 Sch-H HPlcmt-north ZN NECB System 3 PSZAvailability Manager List, !- Availability Manager List Name\n   ** Warning ** IP: IDF line~57199 Alpha Argument length exceeds maximum, will be truncated=  Sp-Floor 1 Procedure Room Sys-3 Flr-3 Sch-H HPlcmt-north ZN NECB System 3 PSZAvailability Manager Lis\n   **   ~~~   ** Will be processed as Alpha=SP-FLOOR 1 PROCEDURE ROOM SYS-3 FLR-3 SCH-H HPLCMT-NORTH ZN NECB SYSTEM 3 PSZAVAILABILITY MANAGER LIST\n   ************* IDF Context for following error/warning message:\n   ************* Note -- lines truncated at 300 characters, if necessary...\n   *************  57255 AvailabilityManagerAssignmentList,\n   ************* indicated Name=Sp-Floor 1 Procedure Room Sys-3 Flr-3 Sch-H HPlcmt-north ZN NECB System 3 PSZAvailability Manager List\n   ************* Only last 1 lines before error line shown.....\n   *************  57256   Sp-Floor 1 Procedure Room Sys-3 Flr-3 Sch-H HPlcmt-north ZN NECB System 3 PSZAvailability Manager List, !- Name\n   ** Warning ** IP: IDF line~57256 Alpha Argument length exceeds maximum, will be truncated=  Sp-Floor 1 Procedure Room Sys-3 Flr-3 Sch-H HPlcmt-north ZN NECB System 3 PSZAvailability Manager Lis\n   **   ~~~   ** Will be processed as Alpha=SP-FLOOR 1 PROCEDURE ROOM SYS-3 FLR-3 SCH-H HPLCMT-NORTH ZN NECB SYSTEM 3 PSZAVAILABILITY MANAGER LIST\n   ************* IDF Context for following error/warning message:\n   ************* Note -- lines truncated at 300 characters, if necessary...\n   *************  57840 AirLoopHVAC,\n   ************* indicated Name=Sp-Floor 1 Recovery Room Sys-3 Flr-3 Sch-H HPlcmt-south ZN NECB System 3 PSZ\n   ************* Only last 3 lines before error line shown.....\n   *************  57841   Sp-Floor 1 Recovery Room Sys-3 Flr-3 Sch-H HPlcmt-south ZN NECB System 3 PSZ, !- Name\n   *************  57842   ,                                       !- Controller List Name\n   *************  57843   Sp-Floor 1 Recovery Room Sys-3 Flr-3 Sch-H HPlcmt-south ZN NECB System 3 PSZAvailability Manager List, !- Availability Manager List Name\n   ** Warning ** IP: IDF line~57843 Alpha Argument length exceeds maximum, will be truncated=  Sp-Floor 1 Recovery Room Sys-3 Flr-3 Sch-H HPlcmt-south ZN NECB System 3 PSZAvailability Manager Lis\n   **   ~~~   ** Will be processed as Alpha=SP-FLOOR 1 RECOVERY ROOM SYS-3 FLR-3 SCH-H HPLCMT-SOUTH ZN NECB SYSTEM 3 PSZAVAILABILITY MANAGER LIST\n   ************* IDF Context for following error/warning message:\n   ************* Note -- lines truncated at 300 characters, if necessary...\n   *************  57899 AvailabilityManagerAssignmentList,\n   ************* indicated Name=Sp-Floor 1 Recovery Room Sys-3 Flr-3 Sch-H HPlcmt-south ZN NECB System 3 PSZAvailability Manager List\n   ************* Only last 1 lines before error line shown.....\n   *************  57900   Sp-Floor 1 Recovery Room Sys-3 Flr-3 Sch-H HPlcmt-south ZN NECB System 3 PSZAvailability Manager List, !- Name\n   ** Warning ** IP: IDF line~57900 Alpha Argument length exceeds maximum, will be truncated=  Sp-Floor 1 Recovery Room Sys-3 Flr-3 Sch-H HPlcmt-south ZN NECB System 3 PSZAvailability Manager Lis\n   **   ~~~   ** Will be processed as Alpha=SP-FLOOR 1 RECOVERY ROOM SYS-3 FLR-3 SCH-H HPLCMT-SOUTH ZN NECB SYSTEM 3 PSZAVAILABILITY MANAGER LIST\n   ************* IDF Context for following error/warning message:\n   ************* Note -- lines truncated at 300 characters, if necessary...\n   *************  60094 AirLoopHVAC,\n   ************* indicated Name=Sp-Floor 1 Sterile Storage Sys-4 Flr-3 Sch-E HPlcmt-core ZN NECB System 4 PSZ\n   ************* Only last 3 lines before error line shown.....\n   *************  60095   Sp-Floor 1 Sterile Storage Sys-4 Flr-3 Sch-E HPlcmt-core ZN NECB System 4 PSZ, !- Name\n   *************  60096   ,                                       !- Controller List Name\n   *************  60097   Sp-Floor 1 Sterile Storage Sys-4 Flr-3 Sch-E HPlcmt-core ZN NECB System 4 PSZAvailability Manager List, !- Availability Manager List Name\n   ** Warning ** IP: IDF line~60097 Alpha Argument length exceeds maximum, will be truncated=  Sp-Floor 1 Sterile Storage Sys-4 Flr-3 Sch-E HPlcmt-core ZN NECB System 4 PSZAvailability Manager Lis\n   **   ~~~   ** Will be processed as Alpha=SP-FLOOR 1 STERILE STORAGE SYS-4 FLR-3 SCH-E HPLCMT-CORE ZN NECB SYSTEM 4 PSZAVAILABILITY MANAGER LIST\n   ************* IDF Context for following error/warning message:\n   ************* Note -- lines truncated at 300 characters, if necessary...\n   *************  60153 AvailabilityManagerAssignmentList,\n   ************* indicated Name=Sp-Floor 1 Sterile Storage Sys-4 Flr-3 Sch-E HPlcmt-core ZN NECB System 4 PSZAvailability Manager List\n   ************* Only last 1 lines before error line shown.....\n   *************  60154   Sp-Floor 1 Sterile Storage Sys-4 Flr-3 Sch-E HPlcmt-core ZN NECB System 4 PSZAvailability Manager List, !- Name\n   ** Warning ** IP: IDF line~60154 Alpha Argument length exceeds maximum, will be truncated=  Sp-Floor 1 Sterile Storage Sys-4 Flr-3 Sch-E HPlcmt-core ZN NECB System 4 PSZAvailability Manager Lis\n   **   ~~~   ** Will be processed as Alpha=SP-FLOOR 1 STERILE STORAGE SYS-4 FLR-3 SCH-E HPLCMT-CORE ZN NECB SYSTEM 4 PSZAVAILABILITY MANAGER LIST\n   ************* IDF Context for following error/warning message:\n   ************* Note -- lines truncated at 300 characters, if necessary...\n   *************  61382 AirLoopHVAC,\n   ************* indicated Name=Sp-Floor 1 Utility Janitor Sys-4 Flr-3 Sch-E HPlcmt-core ZN NECB System 4 PSZ\n   ************* Only last 3 lines before error line shown.....\n   *************  61383   Sp-Floor 1 Utility Janitor Sys-4 Flr-3 Sch-E HPlcmt-core ZN NECB System 4 PSZ, !- Name\n   *************  61384   ,                                       !- Controller List Name\n   *************  61385   Sp-Floor 1 Utility Janitor Sys-4 Flr-3 Sch-E HPlcmt-core ZN NECB System 4 PSZAvailability Manager List, !- Availability Manager List Name\n   ** Warning ** IP: IDF line~61385 Alpha Argument length exceeds maximum, will be truncated=  Sp-Floor 1 Utility Janitor Sys-4 Flr-3 Sch-E HPlcmt-core ZN NECB System 4 PSZAvailability Manager Lis\n   **   ~~~   ** Will be processed as Alpha=SP-FLOOR 1 UTILITY JANITOR SYS-4 FLR-3 SCH-E HPLCMT-CORE ZN NECB SYSTEM 4 PSZAVAILABILITY MANAGER LIST\n   ************* IDF Context for following error/warning message:\n   ************* Note -- lines truncated at 300 characters, if necessary...\n   *************  61441 AvailabilityManagerAssignmentList,\n   ************* indicated Name=Sp-Floor 1 Utility Janitor Sys-4 Flr-3 Sch-E HPlcmt-core ZN NECB System 4 PSZAvailability Manager List\n   ************* Only last 1 lines before error line shown.....\n   *************  61442   Sp-Floor 1 Utility Janitor Sys-4 Flr-3 Sch-E HPlcmt-core ZN NECB System 4 PSZAvailability Manager List, !- Name\n   ** Warning ** IP: IDF line~61442 Alpha Argument length exceeds maximum, will be truncated=  Sp-Floor 1 Utility Janitor Sys-4 Flr-3 Sch-E HPlcmt-core ZN NECB System 4 PSZAvailability Manager Lis\n   **   ~~~   ** Will be processed as Alpha=SP-FLOOR 1 UTILITY JANITOR SYS-4 FLR-3 SCH-E HPLCMT-CORE ZN NECB SYSTEM 4 PSZAVAILABILITY MANAGER LIST\n   ************* IDF Context for following error/warning message:\n   ************* Note -- lines truncated at 300 characters, if necessary...\n   *************  62670 AirLoopHVAC,\n   ************* indicated Name=Sp-Floor 2 Conference Toilet Sys-3 Flr-1 Sch-H HPlcmt-core ZN NECB System 3 PSZ\n   ************* Only last 3 lines before error line shown.....\n   *************  62671   Sp-Floor 2 Conference Toilet Sys-3 Flr-1 Sch-H HPlcmt-core ZN NECB System 3 PSZ, !- Name\n   *************  62672   ,                                       !- Controller List Name\n   *************  62673   Sp-Floor 2 Conference Toilet Sys-3 Flr-1 Sch-H HPlcmt-core ZN NECB System 3 PSZAvailability Manager List, !- Availability Manager List Name\n   ** Warning ** IP: IDF line~62673 Alpha Argument length exceeds maximum, will be truncated=  Sp-Floor 2 Conference Toilet Sys-3 Flr-1 Sch-H HPlcmt-core ZN NECB System 3 PSZAvailability Manager Lis\n   **   ~~~   ** Will be processed as Alpha=SP-FLOOR 2 CONFERENCE TOILET SYS-3 FLR-1 SCH-H HPLCMT-CORE ZN NECB SYSTEM 3 PSZAVAILABILITY MANAGER LIST\n   ************* IDF Context for following error/warning message:\n   ************* Note -- lines truncated at 300 characters, if necessary...\n   *************  62729 AvailabilityManagerAssignmentList,\n   ************* indicated Name=Sp-Floor 2 Conference Toilet Sys-3 Flr-1 Sch-H HPlcmt-core ZN NECB System 3 PSZAvailability Manager List\n   ************* Only last 1 lines before error line shown.....\n   *************  62730   Sp-Floor 2 Conference Toilet Sys-3 Flr-1 Sch-H HPlcmt-core ZN NECB System 3 PSZAvailability Manager List, !- Name\n   ** Warning ** IP: IDF line~62730 Alpha Argument length exceeds maximum, will be truncated=  Sp-Floor 2 Conference Toilet Sys-3 Flr-1 Sch-H HPlcmt-core ZN NECB System 3 PSZAvailability Manager Lis\n   **   ~~~   ** Will be processed as Alpha=SP-FLOOR 2 CONFERENCE TOILET SYS-3 FLR-1 SCH-H HPLCMT-CORE ZN NECB SYSTEM 3 PSZAVAILABILITY MANAGER LIST\n   ************* IDF Context for following error/warning message:\n   ************* Note -- lines truncated at 300 characters, if necessary...\n   *************  68466 AirLoopHVAC,\n   ************* indicated Name=Sp-Floor 2 Nurse Station 1 Sys-3 Flr-1 Sch-H HPlcmt-core ZN NECB System 3 PSZ\n   ************* Only last 3 lines before error line shown.....\n   *************  68467   Sp-Floor 2 Nurse Station 1 Sys-3 Flr-1 Sch-H HPlcmt-core ZN NECB System 3 PSZ, !- Name\n   *************  68468   ,                                       !- Controller List Name\n   *************  68469   Sp-Floor 2 Nurse Station 1 Sys-3 Flr-1 Sch-H HPlcmt-core ZN NECB System 3 PSZAvailability Manager List, !- Availability Manager List Name\n   ** Warning ** IP: IDF line~68469 Alpha Argument length exceeds maximum, will be truncated=  Sp-Floor 2 Nurse Station 1 Sys-3 Flr-1 Sch-H HPlcmt-core ZN NECB System 3 PSZAvailability Manager Lis\n   **   ~~~   ** Will be processed as Alpha=SP-FLOOR 2 NURSE STATION 1 SYS-3 FLR-1 SCH-H HPLCMT-CORE ZN NECB SYSTEM 3 PSZAVAILABILITY MANAGER LIST\n   ************* IDF Context for following error/warning message:\n   ************* Note -- lines truncated at 300 characters, if necessary...\n   *************  68525 AvailabilityManagerAssignmentList,\n   ************* indicated Name=Sp-Floor 2 Nurse Station 1 Sys-3 Flr-1 Sch-H HPlcmt-core ZN NECB System 3 PSZAvailability Manager List\n   ************* Only last 1 lines before error line shown.....\n   *************  68526   Sp-Floor 2 Nurse Station 1 Sys-3 Flr-1 Sch-H HPlcmt-core ZN NECB System 3 PSZAvailability Manager List, !- Name\n   ** Warning ** IP: IDF line~68526 Alpha Argument length exceeds maximum, will be truncated=  Sp-Floor 2 Nurse Station 1 Sys-3 Flr-1 Sch-H HPlcmt-core ZN NECB System 3 PSZAvailability Manager Lis\n   **   ~~~   ** Will be processed as Alpha=SP-FLOOR 2 NURSE STATION 1 SYS-3 FLR-1 SCH-H HPLCMT-CORE ZN NECB SYSTEM 3 PSZAVAILABILITY MANAGER LIST\n   ************* IDF Context for following error/warning message:\n   ************* Note -- lines truncated at 300 characters, if necessary...\n   *************  68788 AirLoopHVAC,\n   ************* indicated Name=Sp-Floor 2 Nurse Station 2 Sys-3 Flr-1 Sch-H HPlcmt-core ZN NECB System 3 PSZ\n   ************* Only last 3 lines before error line shown.....\n   *************  68789   Sp-Floor 2 Nurse Station 2 Sys-3 Flr-1 Sch-H HPlcmt-core ZN NECB System 3 PSZ, !- Name\n   *************  68790   ,                                       !- Controller List Name\n   *************  68791   Sp-Floor 2 Nurse Station 2 Sys-3 Flr-1 Sch-H HPlcmt-core ZN NECB System 3 PSZAvailability Manager List, !- Availability Manager List Name\n   ** Warning ** IP: IDF line~68791 Alpha Argument length exceeds maximum, will be truncated=  Sp-Floor 2 Nurse Station 2 Sys-3 Flr-1 Sch-H HPlcmt-core ZN NECB System 3 PSZAvailability Manager Lis\n   **   ~~~   ** Will be processed as Alpha=SP-FLOOR 2 NURSE STATION 2 SYS-3 FLR-1 SCH-H HPLCMT-CORE ZN NECB SYSTEM 3 PSZAVAILABILITY MANAGER LIST\n   ************* IDF Context for following error/warning message:\n   ************* Note -- lines truncated at 300 characters, if necessary...\n   *************  68847 AvailabilityManagerAssignmentList,\n   ************* indicated Name=Sp-Floor 2 Nurse Station 2 Sys-3 Flr-1 Sch-H HPlcmt-core ZN NECB System 3 PSZAvailability Manager List\n   ************* Only last 1 lines before error line shown.....\n   *************  68848   Sp-Floor 2 Nurse Station 2 Sys-3 Flr-1 Sch-H HPlcmt-core ZN NECB System 3 PSZAvailability Manager List, !- Name\n   ** Warning ** IP: IDF line~68848 Alpha Argument length exceeds maximum, will be truncated=  Sp-Floor 2 Nurse Station 2 Sys-3 Flr-1 Sch-H HPlcmt-core ZN NECB System 3 PSZAvailability Manager Lis\n   **   ~~~   ** Will be processed as Alpha=SP-FLOOR 2 NURSE STATION 2 SYS-3 FLR-1 SCH-H HPLCMT-CORE ZN NECB SYSTEM 3 PSZAVAILABILITY MANAGER LIST\n   ************* IDF Context for following error/warning message:\n   ************* Note -- lines truncated at 300 characters, if necessary...\n   *************  69110 AirLoopHVAC,\n   ************* indicated Name=Sp-Floor 2 Reception Hall Sys-3 Flr-1 Sch-H HPlcmt-south ZN NECB System 3 PSZ\n   ************* Only last 3 lines before error line shown.....\n   *************  69111   Sp-Floor 2 Reception Hall Sys-3 Flr-1 Sch-H HPlcmt-south ZN NECB System 3 PSZ, !- Name\n   *************  69112   ,                                       !- Controller List Name\n   *************  69113   Sp-Floor 2 Reception Hall Sys-3 Flr-1 Sch-H HPlcmt-south ZN NECB System 3 PSZAvailability Manager List, !- Availability Manager List Name\n   ** Warning ** IP: IDF line~69113 Alpha Argument length exceeds maximum, will be truncated=  Sp-Floor 2 Reception Hall Sys-3 Flr-1 Sch-H HPlcmt-south ZN NECB System 3 PSZAvailability Manager Lis\n   **   ~~~   ** Will be processed as Alpha=SP-FLOOR 2 RECEPTION HALL SYS-3 FLR-1 SCH-H HPLCMT-SOUTH ZN NECB SYSTEM 3 PSZAVAILABILITY MANAGER LIST\n   ************* IDF Context for following error/warning message:\n   ************* Note -- lines truncated at 300 characters, if necessary...\n   *************  69169 AvailabilityManagerAssignmentList,\n   ************* indicated Name=Sp-Floor 2 Reception Hall Sys-3 Flr-1 Sch-H HPlcmt-south ZN NECB System 3 PSZAvailability Manager List\n   ************* Only last 1 lines before error line shown.....\n   *************  69170   Sp-Floor 2 Reception Hall Sys-3 Flr-1 Sch-H HPlcmt-south ZN NECB System 3 PSZAvailability Manager List, !- Name\n   ** Warning ** IP: IDF line~69170 Alpha Argument length exceeds maximum, will be truncated=  Sp-Floor 2 Reception Hall Sys-3 Flr-1 Sch-H HPlcmt-south ZN NECB System 3 PSZAvailability Manager Lis\n   **   ~~~   ** Will be processed as Alpha=SP-FLOOR 2 RECEPTION HALL SYS-3 FLR-1 SCH-H HPLCMT-SOUTH ZN NECB SYSTEM 3 PSZAVAILABILITY MANAGER LIST\n   ************* IDF Context for following error/warning message:\n   ************* Note -- lines truncated at 300 characters, if necessary...\n   *************  69754 AirLoopHVAC,\n   ************* indicated Name=Sp-Floor 2 Reception Toilet Sys-3 Flr-1 Sch-H HPlcmt-core ZN NECB System 3 PSZ\n   ************* Only last 3 lines before error line shown.....\n   *************  69755   Sp-Floor 2 Reception Toilet Sys-3 Flr-1 Sch-H HPlcmt-core ZN NECB System 3 PSZ, !- Name\n   *************  69756   ,                                       !- Controller List Name\n   *************  69757   Sp-Floor 2 Reception Toilet Sys-3 Flr-1 Sch-H HPlcmt-core ZN NECB System 3 PSZAvailability Manager List, !- Availability Manager List Name\n   ** Warning ** IP: IDF line~69757 Alpha Argument length exceeds maximum, will be truncated=  Sp-Floor 2 Reception Toilet Sys-3 Flr-1 Sch-H HPlcmt-core ZN NECB System 3 PSZAvailability Manager Lis\n   **   ~~~   ** Will be processed as Alpha=SP-FLOOR 2 RECEPTION TOILET SYS-3 FLR-1 SCH-H HPLCMT-CORE ZN NECB SYSTEM 3 PSZAVAILABILITY MANAGER LIST\n   ************* IDF Context for following error/warning message:\n   ************* Note -- lines truncated at 300 characters, if necessary...\n   *************  69813 AvailabilityManagerAssignmentList,\n   ************* indicated Name=Sp-Floor 2 Reception Toilet Sys-3 Flr-1 Sch-H HPlcmt-core ZN NECB System 3 PSZAvailability Manager List\n   ************* Only last 1 lines before error line shown.....\n   *************  69814   Sp-Floor 2 Reception Toilet Sys-3 Flr-1 Sch-H HPlcmt-core ZN NECB System 3 PSZAvailability Manager List, !- Name\n   ** Warning ** IP: IDF line~69814 Alpha Argument length exceeds maximum, will be truncated=  Sp-Floor 2 Reception Toilet Sys-3 Flr-1 Sch-H HPlcmt-core ZN NECB System 3 PSZAvailability Manager Lis\n   **   ~~~   ** Will be processed as Alpha=SP-FLOOR 2 RECEPTION TOILET SYS-3 FLR-1 SCH-H HPLCMT-CORE ZN NECB SYSTEM 3 PSZAVAILABILITY MANAGER LIST\n   ************* IDF Context for following error/warning message:\n   ************* Note -- lines truncated at 300 characters, if necessary...\n   *************  72652 AirLoopHVAC,\n   ************* indicated Name=Sp-Floor 3 Lounge Toilet Sys-3 Flr-2 Sch-H HPlcmt-north ZN NECB System 3 PSZ\n   ************* Only last 3 lines before error line shown.....\n   *************  72653   Sp-Floor 3 Lounge Toilet Sys-3 Flr-2 Sch-H HPlcmt-north ZN NECB System 3 PSZ, !- Name\n   *************  72654   ,                                       !- Controller List Name\n   *************  72655   Sp-Floor 3 Lounge Toilet Sys-3 Flr-2 Sch-H HPlcmt-north ZN NECB System 3 PSZAvailability Manager List, !- Availability Manager List Name\n   ** Warning ** IP: IDF line~72655 Alpha Argument length exceeds maximum, will be truncated=  Sp-Floor 3 Lounge Toilet Sys-3 Flr-2 Sch-H HPlcmt-north ZN NECB System 3 PSZAvailability Manager Lis\n   **   ~~~   ** Will be processed as Alpha=SP-FLOOR 3 LOUNGE TOILET SYS-3 FLR-2 SCH-H HPLCMT-NORTH ZN NECB SYSTEM 3 PSZAVAILABILITY MANAGER LIST\n   ************* IDF Context for following error/warning message:\n   ************* Note -- lines truncated at 300 characters, if necessary...\n   *************  72711 AvailabilityManagerAssignmentList,\n   ************* indicated Name=Sp-Floor 3 Lounge Toilet Sys-3 Flr-2 Sch-H HPlcmt-north ZN NECB System 3 PSZAvailability Manager List\n   ************* Only last 1 lines before error line shown.....\n   *************  72712   Sp-Floor 3 Lounge Toilet Sys-3 Flr-2 Sch-H HPlcmt-north ZN NECB System 3 PSZAvailability Manager List, !- Name\n   ** Warning ** IP: IDF line~72712 Alpha Argument length exceeds maximum, will be truncated=  Sp-Floor 3 Lounge Toilet Sys-3 Flr-2 Sch-H HPlcmt-north ZN NECB System 3 PSZAvailability Manager Lis\n   **   ~~~   ** Will be processed as Alpha=SP-FLOOR 3 LOUNGE TOILET SYS-3 FLR-2 SCH-H HPLCMT-NORTH ZN NECB SYSTEM 3 PSZAVAILABILITY MANAGER LIST\n   ************* IDF Context for following error/warning message:\n   ************* Note -- lines truncated at 300 characters, if necessary...\n   *************  72974 AirLoopHVAC,\n   ************* indicated Name=Sp-Floor 3 Mechanical Hall Sys-3 Flr-2 Sch-H HPlcmt-core ZN NECB System 3 PSZ\n   ************* Only last 3 lines before error line shown.....\n   *************  72975   Sp-Floor 3 Mechanical Hall Sys-3 Flr-2 Sch-H HPlcmt-core ZN NECB System 3 PSZ, !- Name\n   *************  72976   ,                                       !- Controller List Name\n   *************  72977   Sp-Floor 3 Mechanical Hall Sys-3 Flr-2 Sch-H HPlcmt-core ZN NECB System 3 PSZAvailability Manager List, !- Availability Manager List Name\n   ** Warning ** IP: IDF line~72977 Alpha Argument length exceeds maximum, will be truncated=  Sp-Floor 3 Mechanical Hall Sys-3 Flr-2 Sch-H HPlcmt-core ZN NECB System 3 PSZAvailability Manager Lis\n   **   ~~~   ** Will be processed as Alpha=SP-FLOOR 3 MECHANICAL HALL SYS-3 FLR-2 SCH-H HPLCMT-CORE ZN NECB SYSTEM 3 PSZAVAILABILITY MANAGER LIST\n   ************* IDF Context for following error/warning message:\n   ************* Note -- lines truncated at 300 characters, if necessary...\n   *************  73033 AvailabilityManagerAssignmentList,\n   ************* indicated Name=Sp-Floor 3 Mechanical Hall Sys-3 Flr-2 Sch-H HPlcmt-core ZN NECB System 3 PSZAvailability Manager List\n   ************* Only last 1 lines before error line shown.....\n   *************  73034   Sp-Floor 3 Mechanical Hall Sys-3 Flr-2 Sch-H HPlcmt-core ZN NECB System 3 PSZAvailability Manager List, !- Name\n   ** Warning ** IP: IDF line~73034 Alpha Argument length exceeds maximum, will be truncated=  Sp-Floor 3 Mechanical Hall Sys-3 Flr-2 Sch-H HPlcmt-core ZN NECB System 3 PSZAvailability Manager Lis\n   **   ~~~   ** Will be processed as Alpha=SP-FLOOR 3 MECHANICAL HALL SYS-3 FLR-2 SCH-H HPLCMT-CORE ZN NECB SYSTEM 3 PSZAVAILABILITY MANAGER LIST\n   ************* IDF Context for following error/warning message:\n   ************* Note -- lines truncated at 300 characters, if necessary...\n   *************  73940 AirLoopHVAC,\n   ************* indicated Name=Sp-Floor 3 Physical Therapy 1 Sys-3 Flr-2 Sch-C HPlcmt-south ZN NECB System 3 PSZ\n   ************* Only last 3 lines before error line shown.....\n   *************  73941   Sp-Floor 3 Physical Therapy 1 Sys-3 Flr-2 Sch-C HPlcmt-south ZN NECB System 3 PSZ, !- Name\n   *************  73942   ,                                       !- Controller List Name\n   *************  73943   Sp-Floor 3 Physical Therapy 1 Sys-3 Flr-2 Sch-C HPlcmt-south ZN NECB System 3 PSZAvailability Manager List, !- Availability Manager List Name\n   ** Warning ** IP: IDF line~73943 Alpha Argument length exceeds maximum, will be truncated=  Sp-Floor 3 Physical Therapy 1 Sys-3 Flr-2 Sch-C HPlcmt-south ZN NECB System 3 PSZAvailability Manager Lis\n   **   ~~~   ** Will be processed as Alpha=SP-FLOOR 3 PHYSICAL THERAPY 1 SYS-3 FLR-2 SCH-C HPLCMT-SOUTH ZN NECB SYSTEM 3 PSZAVAILABILITY MANAGER LIST\n   ************* IDF Context for following error/warning message:\n   ************* Note -- lines truncated at 300 characters, if necessary...\n   *************  73940 AirLoopHVAC,\n   ************* indicated Name=Sp-Floor 3 Physical Therapy 1 Sys-3 Flr-2 Sch-C HPlcmt-south ZN NECB System 3 PSZ\n   ************* Only last 10 lines before error line shown.....\n   *************  73941   Sp-Floor 3 Physical Therapy 1 Sys-3 Flr-2 Sch-C HPlcmt-south ZN NECB System 3 PSZ, !- Name\n   *************  73942   ,                                       !- Controller List Name\n   *************  73943   Sp-Floor 3 Physical Therapy 1 Sys-3 Flr-2 Sch-C HPlcmt-south ZN NECB System 3 PSZAvailability Manager List, !- Availability Manager List Name\n   *************  73944   AutoSize,                               !- Design Supply Air Flow Rate {m3/s}\n   *************  73945   Sp-Floor 3 Physical Therapy 1 Sys-3 Flr-2 Sch-C HPlcmt-south ZN NECB System 3 PSZ Supply Branches, !- Branch List Name\n   *************  73946   ,                                       !- Connector List Name\n   *************  73947   Node 383,                               !- Supply Side Inlet Node Name\n   *************  73948   Node 386,                               !- Demand Side Outlet Node Name\n   *************  73949   Sp-Floor 3 Physical Therapy 1 Sys-3 Flr-2 Sch-C HPlcmt-south ZN NECB System 3 PSZ Demand Inlet Nodes, !- Demand Side Inlet Node Names\n   *************  73950   Sp-Floor 3 Physical Therapy 1 Sys-3 Flr-2 Sch-C HPlcmt-south ZN NECB System 3 PSZ Supply Outlet Nodes; !- Supply Side Outlet Node Names\n   ** Warning ** IP: IDF line~73950 Alpha Argument length exceeds maximum, will be truncated=  Sp-Floor 3 Physical Therapy 1 Sys-3 Flr-2 Sch-C HPlcmt-south ZN NECB System 3 PSZ Supply Outlet Node\n   **   ~~~   ** Will be processed as Alpha=SP-FLOOR 3 PHYSICAL THERAPY 1 SYS-3 FLR-2 SCH-C HPLCMT-SOUTH ZN NECB SYSTEM 3 PSZ SUPPLY OUTLET NODES\n   ************* IDF Context for following error/warning message:\n   ************* Note -- lines truncated at 300 characters, if necessary...\n   *************  73952 NodeList,\n   ************* indicated Name=Sp-Floor 3 Physical Therapy 1 Sys-3 Flr-2 Sch-C HPlcmt-south ZN NECB System 3 PSZ Supply Outlet Nodes\n   ************* Only last 1 lines before error line shown.....\n   *************  73953   Sp-Floor 3 Physical Therapy 1 Sys-3 Flr-2 Sch-C HPlcmt-south ZN NECB System 3 PSZ Supply Outlet Nodes, !- Name\n   ** Warning ** IP: IDF line~73953 Alpha Argument length exceeds maximum, will be truncated=  Sp-Floor 3 Physical Therapy 1 Sys-3 Flr-2 Sch-C HPlcmt-south ZN NECB System 3 PSZ Supply Outlet Node\n   **   ~~~   ** Will be processed as Alpha=SP-FLOOR 3 PHYSICAL THERAPY 1 SYS-3 FLR-2 SCH-C HPLCMT-SOUTH ZN NECB SYSTEM 3 PSZ SUPPLY OUTLET NODES\n   ************* IDF Context for following error/warning message:\n   ************* Note -- lines truncated at 300 characters, if necessary...\n   *************  73999 AvailabilityManagerAssignmentList,\n   ************* indicated Name=Sp-Floor 3 Physical Therapy 1 Sys-3 Flr-2 Sch-C HPlcmt-south ZN NECB System 3 PSZAvailability Manager List\n   ************* Only last 1 lines before error line shown.....\n   *************  74000   Sp-Floor 3 Physical Therapy 1 Sys-3 Flr-2 Sch-C HPlcmt-south ZN NECB System 3 PSZAvailability Manager List, !- Name\n   ** Warning ** IP: IDF line~74000 Alpha Argument length exceeds maximum, will be truncated=  Sp-Floor 3 Physical Therapy 1 Sys-3 Flr-2 Sch-C HPlcmt-south ZN NECB System 3 PSZAvailability Manager Lis\n   **   ~~~   ** Will be processed as Alpha=SP-FLOOR 3 PHYSICAL THERAPY 1 SYS-3 FLR-2 SCH-C HPLCMT-SOUTH ZN NECB SYSTEM 3 PSZAVAILABILITY MANAGER LIST\n   ************* IDF Context for following error/warning message:\n   ************* Note -- lines truncated at 300 characters, if necessary...\n   *************  74244 AirLoopHVAC:SupplyPath,\n   ************* indicated Name=Sp-Floor 3 Physical Therapy 1 Sys-3 Flr-2 Sch-C HPlcmt-south ZN NECB System 3 PSZ Node 385 Supply Path\n   ************* Only last 1 lines before error line shown.....\n   *************  74245   Sp-Floor 3 Physical Therapy 1 Sys-3 Flr-2 Sch-C HPlcmt-south ZN NECB System 3 PSZ Node 385 Supply Path, !- Name\n   ** Warning ** IP: IDF line~74245 Alpha Argument length exceeds maximum, will be truncated=  Sp-Floor 3 Physical Therapy 1 Sys-3 Flr-2 Sch-C HPlcmt-south ZN NECB System 3 PSZ Node 385 Supply Pat\n   **   ~~~   ** Will be processed as Alpha=SP-FLOOR 3 PHYSICAL THERAPY 1 SYS-3 FLR-2 SCH-C HPLCMT-SOUTH ZN NECB SYSTEM 3 PSZ NODE 385 SUPPLY PATH\n   ************* IDF Context for following error/warning message:\n   ************* Note -- lines truncated at 300 characters, if necessary...\n   *************  74266 AirLoopHVAC,\n   ************* indicated Name=Sp-Floor 3 Physical Therapy 2 Sys-3 Flr-2 Sch-C HPlcmt-core ZN NECB System 3 PSZ\n   ************* Only last 3 lines before error line shown.....\n   *************  74267   Sp-Floor 3 Physical Therapy 2 Sys-3 Flr-2 Sch-C HPlcmt-core ZN NECB System 3 PSZ, !- Name\n   *************  74268   ,                                       !- Controller List Name\n   *************  74269   Sp-Floor 3 Physical Therapy 2 Sys-3 Flr-2 Sch-C HPlcmt-core ZN NECB System 3 PSZAvailability Manager List, !- Availability Manager List Name\n   ** Warning ** IP: IDF line~74269 Alpha Argument length exceeds maximum, will be truncated=  Sp-Floor 3 Physical Therapy 2 Sys-3 Flr-2 Sch-C HPlcmt-core ZN NECB System 3 PSZAvailability Manager Lis\n   **   ~~~   ** Will be processed as Alpha=SP-FLOOR 3 PHYSICAL THERAPY 2 SYS-3 FLR-2 SCH-C HPLCMT-CORE ZN NECB SYSTEM 3 PSZAVAILABILITY MANAGER LIST\n   ************* IDF Context for following error/warning message:\n   ************* Note -- lines truncated at 300 characters, if necessary...\n   *************  74325 AvailabilityManagerAssignmentList,\n   ************* indicated Name=Sp-Floor 3 Physical Therapy 2 Sys-3 Flr-2 Sch-C HPlcmt-core ZN NECB System 3 PSZAvailability Manager List\n   ************* Only last 1 lines before error line shown.....\n   *************  74326   Sp-Floor 3 Physical Therapy 2 Sys-3 Flr-2 Sch-C HPlcmt-core ZN NECB System 3 PSZAvailability Manager List, !- Name\n   ** Warning ** IP: IDF line~74326 Alpha Argument length exceeds maximum, will be truncated=  Sp-Floor 3 Physical Therapy 2 Sys-3 Flr-2 Sch-C HPlcmt-core ZN NECB System 3 PSZAvailability Manager Lis\n   **   ~~~   ** Will be processed as Alpha=SP-FLOOR 3 PHYSICAL THERAPY 2 SYS-3 FLR-2 SCH-C HPLCMT-CORE ZN NECB SYSTEM 3 PSZAVAILABILITY MANAGER LIST\n   ************* IDF Context for following error/warning message:\n   ************* Note -- lines truncated at 300 characters, if necessary...\n   *************  74325 AvailabilityManagerAssignmentList,\n   ************* indicated Name=Sp-Floor 3 Physical Therapy 2 Sys-3 Flr-2 Sch-C HPlcmt-core ZN NECB System 3 PSZAvailability Manager List\n   ************* Only last 3 lines before error line shown.....\n   *************  74326   Sp-Floor 3 Physical Therapy 2 Sys-3 Flr-2 Sch-C HPlcmt-core ZN NECB System 3 PSZAvailability Manager List, !- Name\n   *************  74327   AvailabilityManager:Scheduled,          !- Availability Manager Object Type 1\n   *************  74328   Sp-Floor 3 Physical Therapy 2 Sys-3 Flr-2 Sch-C HPlcmt-core ZN NECB System 3 PSZ Availability Manager; !- Availability Manager Name 1\n   ** Warning ** IP: IDF line~74328 Alpha Argument length exceeds maximum, will be truncated=  Sp-Floor 3 Physical Therapy 2 Sys-3 Flr-2 Sch-C HPlcmt-core ZN NECB System 3 PSZ Availability Manage\n   **   ~~~   ** Will be processed as Alpha=SP-FLOOR 3 PHYSICAL THERAPY 2 SYS-3 FLR-2 SCH-C HPLCMT-CORE ZN NECB SYSTEM 3 PSZ AVAILABILITY MANAGER\n   ************* IDF Context for following error/warning message:\n   ************* Note -- lines truncated at 300 characters, if necessary...\n   *************  74330 AvailabilityManager:Scheduled,\n   ************* indicated Name=Sp-Floor 3 Physical Therapy 2 Sys-3 Flr-2 Sch-C HPlcmt-core ZN NECB System 3 PSZ Availability Manager\n   ************* Only last 1 lines before error line shown.....\n   *************  74331   Sp-Floor 3 Physical Therapy 2 Sys-3 Flr-2 Sch-C HPlcmt-core ZN NECB System 3 PSZ Availability Manager, !- Name\n   ** Warning ** IP: IDF line~74331 Alpha Argument length exceeds maximum, will be truncated=  Sp-Floor 3 Physical Therapy 2 Sys-3 Flr-2 Sch-C HPlcmt-core ZN NECB System 3 PSZ Availability Manage\n   **   ~~~   ** Will be processed as Alpha=SP-FLOOR 3 PHYSICAL THERAPY 2 SYS-3 FLR-2 SCH-C HPLCMT-CORE ZN NECB SYSTEM 3 PSZ AVAILABILITY MANAGER\n   ************* IDF Context for following error/warning message:\n   ************* Note -- lines truncated at 300 characters, if necessary...\n   *************  74566 AirLoopHVAC:SupplyPath,\n   ************* indicated Name=Sp-Floor 3 Physical Therapy 2 Sys-3 Flr-2 Sch-C HPlcmt-core ZN NECB System 3 PSZ Node 396 Supply Path\n   ************* Only last 1 lines before error line shown.....\n   *************  74567   Sp-Floor 3 Physical Therapy 2 Sys-3 Flr-2 Sch-C HPlcmt-core ZN NECB System 3 PSZ Node 396 Supply Path, !- Name\n   ** Warning ** IP: IDF line~74567 Alpha Argument length exceeds maximum, will be truncated=  Sp-Floor 3 Physical Therapy 2 Sys-3 Flr-2 Sch-C HPlcmt-core ZN NECB System 3 PSZ Node 396 Supply Pat\n   **   ~~~   ** Will be processed as Alpha=SP-FLOOR 3 PHYSICAL THERAPY 2 SYS-3 FLR-2 SCH-C HPLCMT-CORE ZN NECB SYSTEM 3 PSZ NODE 396 SUPPLY PATH\n   ************* IDF Context for following error/warning message:\n   ************* Note -- lines truncated at 300 characters, if necessary...\n   *************  74588 AirLoopHVAC,\n   ************* indicated Name=Sp-Floor 3 Physical Therapy Toilet Sys-4 Flr-2 Sch-H HPlcmt-core ZN NECB System 4 PSZ\n   ************* Only last 3 lines before error line shown.....\n   *************  74589   Sp-Floor 3 Physical Therapy Toilet Sys-4 Flr-2 Sch-H HPlcmt-core ZN NECB System 4 PSZ, !- Name\n   *************  74590   ,                                       !- Controller List Name\n   *************  74591   Sp-Floor 3 Physical Therapy Toilet Sys-4 Flr-2 Sch-H HPlcmt-core ZN NECB System 4 PSZAvailability Manager List, !- Availability Manager List Name\n   ** Warning ** IP: IDF line~74591 Alpha Argument length exceeds maximum, will be truncated=  Sp-Floor 3 Physical Therapy Toilet Sys-4 Flr-2 Sch-H HPlcmt-core ZN NECB System 4 PSZAvailability Manager Lis\n   **   ~~~   ** Will be processed as Alpha=SP-FLOOR 3 PHYSICAL THERAPY TOILET SYS-4 FLR-2 SCH-H HPLCMT-CORE ZN NECB SYSTEM 4 PSZAVAILABILITY MANAGER LIST\n   ************* IDF Context for following error/warning message:\n   ************* Note -- lines truncated at 300 characters, if necessary...\n   *************  74588 AirLoopHVAC,\n   ************* indicated Name=Sp-Floor 3 Physical Therapy Toilet Sys-4 Flr-2 Sch-H HPlcmt-core ZN NECB System 4 PSZ\n   ************* Only last 5 lines before error line shown.....\n   *************  74589   Sp-Floor 3 Physical Therapy Toilet Sys-4 Flr-2 Sch-H HPlcmt-core ZN NECB System 4 PSZ, !- Name\n   *************  74590   ,                                       !- Controller List Name\n   *************  74591   Sp-Floor 3 Physical Therapy Toilet Sys-4 Flr-2 Sch-H HPlcmt-core ZN NECB System 4 PSZAvailability Manager List, !- Availability Manager List Name\n   *************  74592   AutoSize,                               !- Design Supply Air Flow Rate {m3/s}\n   *************  74593   Sp-Floor 3 Physical Therapy Toilet Sys-4 Flr-2 Sch-H HPlcmt-core ZN NECB System 4 PSZ Supply Branches, !- Branch List Name\n   ** Warning ** IP: IDF line~74593 Alpha Argument length exceeds maximum, will be truncated=  Sp-Floor 3 Physical Therapy Toilet Sys-4 Flr-2 Sch-H HPlcmt-core ZN NECB System 4 PSZ Supply Branche\n   **   ~~~   ** Will be processed as Alpha=SP-FLOOR 3 PHYSICAL THERAPY TOILET SYS-4 FLR-2 SCH-H HPLCMT-CORE ZN NECB SYSTEM 4 PSZ SUPPLY BRANCHES\n   ************* IDF Context for following error/warning message:\n   ************* Note -- lines truncated at 300 characters, if necessary...\n   *************  74588 AirLoopHVAC,\n   ************* indicated Name=Sp-Floor 3 Physical Therapy Toilet Sys-4 Flr-2 Sch-H HPlcmt-core ZN NECB System 4 PSZ\n   ************* Only last 9 lines before error line shown.....\n   *************  74589   Sp-Floor 3 Physical Therapy Toilet Sys-4 Flr-2 Sch-H HPlcmt-core ZN NECB System 4 PSZ, !- Name\n   *************  74590   ,                                       !- Controller List Name\n   *************  74591   Sp-Floor 3 Physical Therapy Toilet Sys-4 Flr-2 Sch-H HPlcmt-core ZN NECB System 4 PSZAvailability Manager List, !- Availability Manager List Name\n   *************  74592   AutoSize,                               !- Design Supply Air Flow Rate {m3/s}\n   *************  74593   Sp-Floor 3 Physical Therapy Toilet Sys-4 Flr-2 Sch-H HPlcmt-core ZN NECB System 4 PSZ Supply Branches, !- Branch List Name\n   *************  74594   ,                                       !- Connector List Name\n   *************  74595   Node 933,                               !- Supply Side Inlet Node Name\n   *************  74596   Node 936,                               !- Demand Side Outlet Node Name\n   *************  74597   Sp-Floor 3 Physical Therapy Toilet Sys-4 Flr-2 Sch-H HPlcmt-core ZN NECB System 4 PSZ Demand Inlet Nodes, !- Demand Side Inlet Node Names\n   ** Warning ** IP: IDF line~74597 Alpha Argument length exceeds maximum, will be truncated=  Sp-Floor 3 Physical Therapy Toilet Sys-4 Flr-2 Sch-H HPlcmt-core ZN NECB System 4 PSZ Demand Inlet Node\n   **   ~~~   ** Will be processed as Alpha=SP-FLOOR 3 PHYSICAL THERAPY TOILET SYS-4 FLR-2 SCH-H HPLCMT-CORE ZN NECB SYSTEM 4 PSZ DEMAND INLET NODES\n   ************* IDF Context for following error/warning message:\n   ************* Note -- lines truncated at 300 characters, if necessary...\n   *************  74588 AirLoopHVAC,\n   ************* indicated Name=Sp-Floor 3 Physical Therapy Toilet Sys-4 Flr-2 Sch-H HPlcmt-core ZN NECB System 4 PSZ\n   ************* Only last 10 lines before error line shown.....\n   *************  74589   Sp-Floor 3 Physical Therapy Toilet Sys-4 Flr-2 Sch-H HPlcmt-core ZN NECB System 4 PSZ, !- Name\n   *************  74590   ,                                       !- Controller List Name\n   *************  74591   Sp-Floor 3 Physical Therapy Toilet Sys-4 Flr-2 Sch-H HPlcmt-core ZN NECB System 4 PSZAvailability Manager List, !- Availability Manager List Name\n   *************  74592   AutoSize,                               !- Design Supply Air Flow Rate {m3/s}\n   *************  74593   Sp-Floor 3 Physical Therapy Toilet Sys-4 Flr-2 Sch-H HPlcmt-core ZN NECB System 4 PSZ Supply Branches, !- Branch List Name\n   *************  74594   ,                                       !- Connector List Name\n   *************  74595   Node 933,                               !- Supply Side Inlet Node Name\n   *************  74596   Node 936,                               !- Demand Side Outlet Node Name\n   *************  74597   Sp-Floor 3 Physical Therapy Toilet Sys-4 Flr-2 Sch-H HPlcmt-core ZN NECB System 4 PSZ Demand Inlet Nodes, !- Demand Side Inlet Node Names\n   *************  74598   Sp-Floor 3 Physical Therapy Toilet Sys-4 Flr-2 Sch-H HPlcmt-core ZN NECB System 4 PSZ Supply Outlet Nodes; !- Supply Side Outlet Node Names\n   ** Warning ** IP: IDF line~74598 Alpha Argument length exceeds maximum, will be truncated=  Sp-Floor 3 Physical Therapy Toilet Sys-4 Flr-2 Sch-H HPlcmt-core ZN NECB System 4 PSZ Supply Outlet Node\n   **   ~~~   ** Will be processed as Alpha=SP-FLOOR 3 PHYSICAL THERAPY TOILET SYS-4 FLR-2 SCH-H HPLCMT-CORE ZN NECB SYSTEM 4 PSZ SUPPLY OUTLET NODES\n   ************* IDF Context for following error/warning message:\n   ************* Note -- lines truncated at 300 characters, if necessary...\n   *************  74600 NodeList,\n   ************* indicated Name=Sp-Floor 3 Physical Therapy Toilet Sys-4 Flr-2 Sch-H HPlcmt-core ZN NECB System 4 PSZ Supply Outlet Nodes\n   ************* Only last 1 lines before error line shown.....\n   *************  74601   Sp-Floor 3 Physical Therapy Toilet Sys-4 Flr-2 Sch-H HPlcmt-core ZN NECB System 4 PSZ Supply Outlet Nodes, !- Name\n   ** Warning ** IP: IDF line~74601 Alpha Argument length exceeds maximum, will be truncated=  Sp-Floor 3 Physical Therapy Toilet Sys-4 Flr-2 Sch-H HPlcmt-core ZN NECB System 4 PSZ Supply Outlet Node\n   **   ~~~   ** Will be processed as Alpha=SP-FLOOR 3 PHYSICAL THERAPY TOILET SYS-4 FLR-2 SCH-H HPLCMT-CORE ZN NECB SYSTEM 4 PSZ SUPPLY OUTLET NODES\n   ************* IDF Context for following error/warning message:\n   ************* Note -- lines truncated at 300 characters, if necessary...\n   *************  74604 NodeList,\n   ************* indicated Name=Sp-Floor 3 Physical Therapy Toilet Sys-4 Flr-2 Sch-H HPlcmt-core ZN NECB System 4 PSZ Demand Inlet Nodes\n   ************* Only last 1 lines before error line shown.....\n   *************  74605   Sp-Floor 3 Physical Therapy Toilet Sys-4 Flr-2 Sch-H HPlcmt-core ZN NECB System 4 PSZ Demand Inlet Nodes, !- Name\n   ** Warning ** IP: IDF line~74605 Alpha Argument length exceeds maximum, will be truncated=  Sp-Floor 3 Physical Therapy Toilet Sys-4 Flr-2 Sch-H HPlcmt-core ZN NECB System 4 PSZ Demand Inlet Node\n   **   ~~~   ** Will be processed as Alpha=SP-FLOOR 3 PHYSICAL THERAPY TOILET SYS-4 FLR-2 SCH-H HPLCMT-CORE ZN NECB SYSTEM 4 PSZ DEMAND INLET NODES\n   ************* IDF Context for following error/warning message:\n   ************* Note -- lines truncated at 300 characters, if necessary...\n   *************  74647 AvailabilityManagerAssignmentList,\n   ************* indicated Name=Sp-Floor 3 Physical Therapy Toilet Sys-4 Flr-2 Sch-H HPlcmt-core ZN NECB System 4 PSZAvailability Manager List\n   ************* Only last 1 lines before error line shown.....\n   *************  74648   Sp-Floor 3 Physical Therapy Toilet Sys-4 Flr-2 Sch-H HPlcmt-core ZN NECB System 4 PSZAvailability Manager List, !- Name\n   ** Warning ** IP: IDF line~74648 Alpha Argument length exceeds maximum, will be truncated=  Sp-Floor 3 Physical Therapy Toilet Sys-4 Flr-2 Sch-H HPlcmt-core ZN NECB System 4 PSZAvailability Manager Lis\n   **   ~~~   ** Will be processed as Alpha=SP-FLOOR 3 PHYSICAL THERAPY TOILET SYS-4 FLR-2 SCH-H HPLCMT-CORE ZN NECB SYSTEM 4 PSZAVAILABILITY MANAGER LIST\n   ************* IDF Context for following error/warning message:\n   ************* Note -- lines truncated at 300 characters, if necessary...\n   *************  74647 AvailabilityManagerAssignmentList,\n   ************* indicated Name=Sp-Floor 3 Physical Therapy Toilet Sys-4 Flr-2 Sch-H HPlcmt-core ZN NECB System 4 PSZAvailability Manager List\n   ************* Only last 3 lines before error line shown.....\n   *************  74648   Sp-Floor 3 Physical Therapy Toilet Sys-4 Flr-2 Sch-H HPlcmt-core ZN NECB System 4 PSZAvailability Manager List, !- Name\n   *************  74649   AvailabilityManager:Scheduled,          !- Availability Manager Object Type 1\n   *************  74650   Sp-Floor 3 Physical Therapy Toilet Sys-4 Flr-2 Sch-H HPlcmt-core ZN NECB System 4 PSZ Availability Manager; !- Availability Manager Name 1\n   ** Warning ** IP: IDF line~74650 Alpha Argument length exceeds maximum, will be truncated=  Sp-Floor 3 Physical Therapy Toilet Sys-4 Flr-2 Sch-H HPlcmt-core ZN NECB System 4 PSZ Availability Manage\n   **   ~~~   ** Will be processed as Alpha=SP-FLOOR 3 PHYSICAL THERAPY TOILET SYS-4 FLR-2 SCH-H HPLCMT-CORE ZN NECB SYSTEM 4 PSZ AVAILABILITY MANAGER\n   ************* IDF Context for following error/warning message:\n   ************* Note -- lines truncated at 300 characters, if necessary...\n   *************  74652 AvailabilityManager:Scheduled,\n   ************* indicated Name=Sp-Floor 3 Physical Therapy Toilet Sys-4 Flr-2 Sch-H HPlcmt-core ZN NECB System 4 PSZ Availability Manager\n   ************* Only last 1 lines before error line shown.....\n   *************  74653   Sp-Floor 3 Physical Therapy Toilet Sys-4 Flr-2 Sch-H HPlcmt-core ZN NECB System 4 PSZ Availability Manager, !- Name\n   ** Warning ** IP: IDF line~74653 Alpha Argument length exceeds maximum, will be truncated=  Sp-Floor 3 Physical Therapy Toilet Sys-4 Flr-2 Sch-H HPlcmt-core ZN NECB System 4 PSZ Availability Manage\n   **   ~~~   ** Will be processed as Alpha=SP-FLOOR 3 PHYSICAL THERAPY TOILET SYS-4 FLR-2 SCH-H HPLCMT-CORE ZN NECB SYSTEM 4 PSZ AVAILABILITY MANAGER\n   ************* IDF Context for following error/warning message:\n   ************* Note -- lines truncated at 300 characters, if necessary...\n   *************  74656 BranchList,\n   ************* indicated Name=Sp-Floor 3 Physical Therapy Toilet Sys-4 Flr-2 Sch-H HPlcmt-core ZN NECB System 4 PSZ Supply Branches\n   ************* Only last 1 lines before error line shown.....\n   *************  74657   Sp-Floor 3 Physical Therapy Toilet Sys-4 Flr-2 Sch-H HPlcmt-core ZN NECB System 4 PSZ Supply Branches, !- Name\n   ** Warning ** IP: IDF line~74657 Alpha Argument length exceeds maximum, will be truncated=  Sp-Floor 3 Physical Therapy Toilet Sys-4 Flr-2 Sch-H HPlcmt-core ZN NECB System 4 PSZ Supply Branche\n   **   ~~~   ** Will be processed as Alpha=SP-FLOOR 3 PHYSICAL THERAPY TOILET SYS-4 FLR-2 SCH-H HPLCMT-CORE ZN NECB SYSTEM 4 PSZ SUPPLY BRANCHES\n   ************* IDF Context for following error/warning message:\n   ************* Note -- lines truncated at 300 characters, if necessary...\n   *************  74888 AirLoopHVAC:SupplyPath,\n   ************* indicated Name=Sp-Floor 3 Physical Therapy Toilet Sys-4 Flr-2 Sch-H HPlcmt-core ZN NECB System 4 PSZ Node 935 Supply Path\n   ************* Only last 1 lines before error line shown.....\n   *************  74889   Sp-Floor 3 Physical Therapy Toilet Sys-4 Flr-2 Sch-H HPlcmt-core ZN NECB System 4 PSZ Node 935 Supply Path, !- Name\n   ** Warning ** IP: IDF line~74889 Alpha Argument length exceeds maximum, will be truncated=  Sp-Floor 3 Physical Therapy Toilet Sys-4 Flr-2 Sch-H HPlcmt-core ZN NECB System 4 PSZ Node 935 Supply Pat\n   **   ~~~   ** Will be processed as Alpha=SP-FLOOR 3 PHYSICAL THERAPY TOILET SYS-4 FLR-2 SCH-H HPLCMT-CORE ZN NECB SYSTEM 4 PSZ NODE 935 SUPPLY PATH\n   ************* IDF Context for following error/warning message:\n   ************* Note -- lines truncated at 300 characters, if necessary...\n   *************  75876 AirLoopHVAC,\n   ************* indicated Name=Sp-Floor 3 Undeveloped 1 Sys-4 Flr-2 Sch-E HPlcmt-south ZN NECB System 4 PSZ\n   ************* Only last 3 lines before error line shown.....\n   *************  75877   Sp-Floor 3 Undeveloped 1 Sys-4 Flr-2 Sch-E HPlcmt-south ZN NECB System 4 PSZ, !- Name\n   *************  75878   ,                                       !- Controller List Name\n   *************  75879   Sp-Floor 3 Undeveloped 1 Sys-4 Flr-2 Sch-E HPlcmt-south ZN NECB System 4 PSZAvailability Manager List, !- Availability Manager List Name\n   ** Warning ** IP: IDF line~75879 Alpha Argument length exceeds maximum, will be truncated=  Sp-Floor 3 Undeveloped 1 Sys-4 Flr-2 Sch-E HPlcmt-south ZN NECB System 4 PSZAvailability Manager Lis\n   **   ~~~   ** Will be processed as Alpha=SP-FLOOR 3 UNDEVELOPED 1 SYS-4 FLR-2 SCH-E HPLCMT-SOUTH ZN NECB SYSTEM 4 PSZAVAILABILITY MANAGER LIST\n   ************* IDF Context for following error/warning message:\n   ************* Note -- lines truncated at 300 characters, if necessary...\n   *************  75935 AvailabilityManagerAssignmentList,\n   ************* indicated Name=Sp-Floor 3 Undeveloped 1 Sys-4 Flr-2 Sch-E HPlcmt-south ZN NECB System 4 PSZAvailability Manager List\n   ************* Only last 1 lines before error line shown.....\n   *************  75936   Sp-Floor 3 Undeveloped 1 Sys-4 Flr-2 Sch-E HPlcmt-south ZN NECB System 4 PSZAvailability Manager List, !- Name\n   ** Warning ** IP: IDF line~75936 Alpha Argument length exceeds maximum, will be truncated=  Sp-Floor 3 Undeveloped 1 Sys-4 Flr-2 Sch-E HPlcmt-south ZN NECB System 4 PSZAvailability Manager Lis\n   **   ~~~   ** Wi
[...]
zeP/LZ6GM4iUfTyTiMM4UtEo8fe0+HQy/wMiXv0yi58uLpx9AbdrYcGV9ftoLZLJwMmw0bu7G35YDVaAVJEjUbN419r9cueNBtepCf/6A4uR2HC7yDYHJ+NY3S4xvj8KIA7VLjYjpJDj6Fo8urxGqcTcfD/BqLe/NqdvB8PJ1GXsf7/eo2Hp0HY+/1VRgFM/v7Ea9u44OO93wcHfjeq/OrgxPvp9/H5x+Tg3g6T2/K//7m/XZ68oN9WxJ+tBKv/td7cX5u3/toz3Wbv38cn0ejWfI/4nu+fzwcXX95WjxGFku1vNHwuHFua+AkvWzBaBJG7/x+u+FlF/O4MRzFs3Fw+2Q0GadzB2fj6fmH7xoyYKq6OAcvuZ2lx9vr+fh9cB0sXnUeacd1ENl89Y694ejjbBy2JuGnV9eXzcY3X4Dc9w7b7ew/WwvQ6g6DJEiF3/zZGAdn4bjxpDEML4L5OPFm0fRiNA4b+4uZdzeNJ6bV3m9cB+N5uPz3uV2n0mPSpefk5PS08Xk/l44P0umAdA5BOl2QTg+k0wfpDEA6RyAd00YJoTLaoFLaoHLaoJLaoLLaoNLaoPLaoBLboDLbR2W2D1urUZntozLbL5TZXjz/+HHjh6tzdbQoHBaQEa9RMRnxChWTEa9PMRmx7ovJiFVfTEas+WIyYsUXkxHrvZiM3MgK6oDyWG5jBXVAmSw3sYI6oFyWW1hBHVA2yw2soA4on+X2VVAHtS6D8lnuXQV18ufzp9EkKd62zuxL+XXEy1NQR7w8BXXEy1NQRyz3gjpiuRfUEcu9oI5Y7gV1xHIvqCP3r6JCqIyWO1hRIVROyz2sqBAqq+UuVlQIlddyHysqhMpsuZMVFYKt1ajMlptZUaH8mb3+JGPrLw1Lba698T96i58iBoTwqw/RqT7EYfUhutWH6FUfol99iEH1IY6qD7HR2auKUUN9mxoK3NRQ4aaGEjc11LipochNDVVuaihzU0Od+zXUuV9HH6+hzv0a6twvV+dbf9Ax37Zq8YuPgBDy3YCFkG8GLIR8L2Ah5CUXFkJecWEh5AUXFkJeb2Eh5OUWFsLxyTUuhvzRHy6G/KkgLob8gSEuRg0l7thW4WLUUOSObRUuRg1l7thW4fqfvK3Cxaijj9fQyB3bKlyMcnW+9Xez8m2rFj+sBQgh3w1YCPlmwELI9wIWQl5yYSHkFRcWQl5wYSHk9RYWQv5uFCyEY1uFiyFvq3Ax5G0VLoa8rcLFkL+ihYshfy8RF0P+yiIuhvxtRlwM+YuOuBg11LljW4WLUUcfr6GRO7ZVuBjlWvnWnyfJt61a/H4JIIR8N2Ah5JsBCyHfC1gIeVsFCyFvq2Ah5G0VLIS8rYKFkJdbWAjHtgoXQ95W4WLI2ypcDHlbhYshb6twMeRtFS6GvK3CxZC3VbgY8rYKF6OGOndsq3Ax6ujjNTRyx7YKF6NcK9/qAp9vW7WwiQeEkO8GLIR8M2Ah5HsBCyFvq2Ah5G0VLIS8rYKFkLdVsBDycgsL4dhW4WLI2ypcDHlbhYshb6twMeRtFS6GvK3CxZC3VbgY8rYKF0PeVuFi1FDnjm0VLkYdfbyGRu7YVuFilGvlW812822rFm68gBDy3YCFkG8GLIR8L2Ah5G0VLIS8rYKFkLdVsBDytgoWQl5uYSEc2ypcDHlbhYshb6twMeRtFS6GvK3CxZC3VbgY8rYKF0PeVuFiyNsqXIwa6tyxrcLFqKOP19DIHdsqXIxyrXyrp2G+bdXC9BAQQr4bsBDyzYCFkO8FLIS8rYKFkLdVsBDytgoWQt5WwUK4fKdAIZxma6gYLrcqVAyXkRUqhsvjChXDZX+FiuHyfEPFcNnBoWK4nOJQMVwmcqgYNdS5Y1uFi1FHH6+hkTu2VbgY21v52zwOr0s7Z+/Ym4SfVg6ymXFsM76+3M8cYLdaxa48oeMw+WE6nwzjZre97xnT3fc69l9+N5/d7E2Ksba6Hg5PgiS8nEa3T29G8cJTeX3+OYynU4EX0TCMXs6txXHuAy3H7SbHr2EQz6NwgWFdmpfXvWLTb05zmtOc5jSnOc1pTnOa05zmNKc5zWlOc5rTnOY0pznNaU5zmtOc5jSnOc1pTnOa05zmNKc5zWlOc5rTnOY0pznNaU5zmtOc5jSnOc1pTv9XTd+2ptdhFI2G4a+BfbDWtNrK51Xto7Hx5qOxr8JoFMbLx2sb+6sHiGfjadIajybh1kdk4y89p7v9ydq4lf30/Gw6DpLRdJJCNeIknB2chRfTKGzke/L5l/AynAw3T2jxWrPX3vc69snltn2Q2f6nMQ4vEgu2RXol23p3GSank8RenzTExXxynpE297w/t0isCMP10W+2Psttx+jCayZXo7gVZ3clXyA77hzUSq/faXB+1fwPcFG1Fb59dDxlX+q+m03jkRV8lr6c52xWw8p8gSqafiqGtMIaTYahrYcDs1/w6NV4X/bAi1E4tvnWXF7TRZ1cRtP5LBx6337r/W35+k3r3VUQL59/twW2d3f29ouz6QVpBZeXz22M1jicXCZX3vee7/3Dazwdjxvek813xOPRedg8MHtv2m/3ttbbvTOZRl7zfXoq7e+892mYZaou49rX/p6uOMVvkB02jZd6b96/bX0Ib73j4+PFxSunmKkub/v7oqe6GmdRGHwoc/DngscUfb+9XsuzO7ZpbZNhmSmZkUPrXRDHo8tJODyxFhHxm+xKvi13KVc3ejaPr5pl70V6S58s7mf5ShqPn+Q5y5Z9Z9kocRJNP4T54izeWzbSdBacj5LbfKGWby59VlmIVaiyKquFZHNZKVMehRcfO1blvLnweAeeKapWpNzys37ez7pqrvd/3ransOPxY+/3P157/37xx0vv1YuXr3/+7Ufvlxc//nzi/XT68jSfwPN01Q5vArtF85KpF0+jxJvMP6Z5cO5lliaxF8Tn6eZlNLnMobi69lbnTmcO9r2z/ItLFCbzaOLNgigOn4+nQdIM7JK/l97KO6+dZa/lupjbt2h3wi5PYZvw52qdXtb7z6zcs2JvPhqGF8F8nHizaJquYeGjfe/RN4PBycnp6aOKjWeIQxziEIc4xCEOcYhDHOIQ578Tx4vnH9P/BfaGoX3RGwa3ligKh6QhDWlIQxrSkIY0pCENaUhDGjfNp+yrWX+hORvPQ+IQhzjEIQ5xiEMc4hCHOMQhThmc9e8GGvu7ga/m0u8Gdkz2CdvTp4eHR0ckJSlJSUpSkpKUpCQlKUlJSlKSknQ3SP2MNEgk0nZG2un4/qBHUpKSlKQkJSlJSUpSkpKUpCQlKUl3g7RjSZ9HI4HUP8pIjen3Ox2SkpSkJCUpSUlKUpKSlKQkJSlJSbobpIeW9PXVXCIdZKRH6ej+QFKSkpSkJCUpSUlKUpKSlKQkJSlJd4O0a0n/FQ4l0n5G+uzZyUm/T1KSkpSkJCUpSUlKUpKSlKQkJSlJd4O0l/1lYh5KpL2M9OSk1yMpSUlKUpKSlKQkJSlJSUpSkpKUpLtC2rekv04lZ0G/m5EOBr7f7ZKUpCQlKUlJSlKSkpSkJCUpSUlK0tpIVyjDKPjU3Cp200pGyTh8dRXMwlYS3iTNRz9N51G8HeP2/pHPRh/DSTyaTsZhnClskXj82Hs6HHqBlyl5n0bJlRdPP4besLPlyPj6shXMZuFk2GzY2I29LQesRitIkqjZuGnse712wYNu04P8/AfFye04XOAdBJPzq2mUHt8YhxcFaJcaF9NJcvApHF1eJVbjbDoe5tdY3JtXs4Pn4+k08jreH5NheB2Op7Nw6Bnv1W18cOg9H0cHvvfq/Org1Pvp9/H5x+Qgns7T+/G/v3m/nZ78YN+WhB+9Q+/3V//rvTg/t+99tOe6w98/js+j0Sz5H/E93z8ejq6/PC0eI4ulWt5oeNw4t+l/kl6xYDQJo3d+3zS87DoeN4ajeDYObp+MJuN07uBsPD3/8F1DBkxVF+fgJbez9Hh7KR+/D66DxavOI+24DiKbqt6xNxx9nI3D1iT89Or6stn45guQ+95hu539Z2vtWd1hkASp8Js/G+PgLBw3njSG4UUwHyfeLJpejMZhY38x8+6m8cS02vuN62A8DxtPut1W5+jO6HT3G+d2xUol0kXo5OT0tPF5P5esX41spxrZw2pku9XI9qqR7VcjO6hG9qgaWdOuSLeiOjMVFZqpqNJMRaVmKqo1U1GxmYqqzVRUbqaievMrqje/qr5WUb35FdWbr6k3L55//Ljx2+Bldg5ROCygmvf6FlPNe3WLqea9tsVU865kxVTzrmPFVPOuYsVU865hxVTzrmDFVHNvGArKVlNdubcLBWWrqa/cm4WCstVUWO6tQkHZamos90ahoGw1VZZ7m1BQtqIeVk2V5d4jFJQtXWWfRpNEvT04s+/IL5v30haUzXtpC8rmvbQFZfMuYAVl8y5gBWXzLmAFZfMuYAVl8y5gBWVz7xOK6lZUZ7l3CkV1K6q03HuForoV1Vru3UJR3YqqLfd+oahuRfWWe8dQVLeqvlZRveXeNBTVLVZvb/N8cLH8gNI79ibhp9UHI9nnIc34+nI/+2Bj6ycgq0854zD5YTqfDONmt73vGdPd9zr2X34336coNynG+sPb4fAkSMLLaXT79GYULz4lXF+LHB+lpgIvomEYvZzbD+1yH2g5bjc5fg2DeB6FCwz7uePyHmg/HM4+kNoM9SqMRmG8xE0jLW/IbDxNWvZTsq0h4y+d93bSuJUl3mw6DpLRdJJCNeIknB2chRfTKGzky6RfwstwMtw8ocVrzV6aBR2bCfZDNWP/s/zsdevH0ivZ1rvLMDmdJPb6pCEu5pPzjLS55/2Z48NXSxiuj36ztTbsGF14zeRqFKd5bY/LF8iOOwe10ut3GpxfNf8DXFRthb/8jHGp+242jUdW8Fn6cp6zWQ0r8wWqaPqpGNIKazQZhrZwD8x+waNX433ZAy9G4djmW3N5TRd1chlN5/bT9G+/9f62fP2m9e4qiJfriS2wvbuzt1+cTS9IK7i8fG5jtMbh5DK58r73fO8fXuPpeNzwnmy+Ix6PzsPmgdl70367t7Xe7p3JNPKa79NTaX/nvU/DLFN1Gde+9vdjzxS/QXbYNF7qvXn/tvUhTJe34+PFxSunmKkub/v7oqe6GmdRGHwoc/DngscUfb+9XsuzO7ZpbZNhmSlZY2y9W3yxKBxmXy2K32RX8m25S7m60bN5fNUsey/SW/pkcT/LV9J4/CTPWbbsO8tGiZNo+iHMF2fx3rKRprPgfJTc5gu1fHPps8pCrEKVVVktJJvLSpnyKLz42LEq582FxzvwTFG1IuWWn/XzftZVc73/87Y9hR2PH3u///Ha+/eLP156r168fP3zbz96v7z48ecT76fTl6f5BJ6nq3Z4E9gtmpdMvXiabqQn849pHpx72RYx9oL4PN28jCaXORRX197q3OnMwb53ln9xicJkHk28WRDF4fPxNEiagV3y99Jbeee1s+y1XBdz+xbtTtjlKWwT/vx/8AXQv3xiu/yWp/0A9v/k+6jEIQ5xiEMc4hCHOMQhDnGIs/M497/5YomicEga0pCGNKQhDWlIQxrSkIY0pHHT3PtOoKWxX/EjDnGIQxziEIc4xCEOcYhDHOL8H9ouvg4/zsIoSOZR6DWf79F48WEZL85ns/Gt93QUefZG7Yhnor8Lnok+PRMLWxvQM7G4LD0T6ZlY3NqAnonldOmZSM9EeibSM5GeifRM/JIsPRPpmUjPxMLbBHomFpelZyI9E+mZWHSbQM/Ecrr0TKRnIj0T6Zn4hQ8u6Jn4BQ56JtIz0aNnYj4seibSM7HMoGeiHfRMpGdiNuiZ6H4nPRO3C9hBz8TdsBYhDnGIQxziEIc4xCEOcYhDnJ3HeWCOI6QhDWlIQxrSkIY0pCENaUizOzRfjdMJcYhDHOIQhzjEIQ5xiEMc4pSPR8/ELw96Ji48Ez2zI66JnV1wTezQNbGwuQFdE4vL0jWRronFzQ3omlhOl66JdE2kayJdE+maSNfEL8nSNZGuiXRNLLxNoGticVm6JtI1ka6JRbcJdE0sp0vXRLom0jWRrolf+OCCrolf4KBrIl0TPbom5sOiayJdE8sMuibaQddEuiZmg66J7nfSNXG7gB10TdwNcxHiEIc4xCEOcYhDHOIQhzjE2XmcB+Y5QhrSkIY0pCENaUhDGtKQhjS7Q/PVeJ0QhzjEIQ5xiEMc4hCHOMQhTvl4dE388qBr4tI10d8R18TDXXBNPKzNNTH7d1l7JpBOB6RzCNLpgnR6IJ0+SGcA0jkC6Wy4CqiEUBltUCltUDltUEltUFltUGltUHltUIltUJntozLbh63VqMz2UZntF8rs/G5+G1Ll7fsUMuIVKm/Qp5AR6768BZ9CRqz58iZ7Chmx3hU2ehodUB7LbUzhjKfRAaWy3MMUZncaHVA2yw1M4V+nWQdB+Sx3L4UlnUYHlM9y6yrvMrcho7CV0+iIl0dhHKfREctdYQ2n0RHLXWH+ptERy11j76YSQmW03ME0jm0qIVRSy01MY8KmEkLltdzHNL5qqpURldlyK9NYpamEUJktd7N7Qr9Ho2k0Sm494x14zVfzyZ71oeod/L9gctA2B9m/n4XnBx0jtbn2xv/oPX16eHh0BAjhVx+iU32Iw+pDdKsP0as+RL/6EIPqQxxVH2Kjs1cVo4b6NjUUuKmhwk0NJW5qqHFTQ5GbGqrc1FDmpoY692uoc7+OPl5Dnfs11Llfrs79LEaQSDHa+bZVnY7vD3qAEPLdgIWQbwYshHwvYCHkJRcWQl5xYSHkBRcWQl5vYSHk5RYWwrGtwsWoob4d2ypcjBoq3LGtwsWoocYd2ypcjBqq3LGtwsWooc4d2ypcjDr6eA117thW4WKUq/OOjfE8Ggkx/KN82ypj+v1OBxBCvhuwEPLNgIWQ7wUshLzkwkLIKy4shLzgwkLI34CChZC/GwUL4fhCIC6G/I0qXAz5y1a4GPL3sHAx5K9o4WLI30vExZC/soiLIX+bERejhjJ3fAcS1/9qqHPHNydxMWqoc8f3LXExyrXyQxvj9dVcijHIt62yv7nU/QEQQt5WwULI2ypYCPlewELI2ypYCHlbBQshb6tgIeT1FhZCXm5hIRzbKlwMebnFxZCXW1wMebnFxZC3VbgY8rYKF0PeVuFiyNsqXIwaytyxrcL1vxrq3LGtwsWooc4d2ypcjHKtvGtj/CscSjH6+bZVz56dnPT7gBDytgoWQt5WwULI9wIWQt5WwULI2ypYCHlbBQshr7ewEPJyCwvh2FbhYsjLLS6GvNziYsjLLS6GvK3CxZC3VbgY8rYKF0PeVuFi1FDmjm0Vrv/VUOeObRUuRg117thW4WKUa+W9bOs2D6UYvXzbqpOTXg8SQt5WwULI2ypYCPlewELI2ypYCHlbBQshb6tgIeT1FhZCXm5hIRzbKlwMebnFxZCXW1wMebnFxZC3VbgY8rYKF0PeVuFiyNsqXIwaytyxrcL1vxrq3LGtwsWooc4d2ypcjHKtvG9j/DqVvhbvd/NtqwYD3+92ASHkbRUshLytgoWQ7wUshLytgoWQt1WwEPK2ChbC5S4FCuHynQKFcJqtoWLIyy0uhsvIChXD5XGFiuGyv0LFcHm+oWK47OBQMVxOcagYNZS5018O1f9qqHOnKx0qRg117vSyQ8XY3srf5nF4XRoxe8feJPy0cpDNjGOb8fXlfuYAu9UqduXmHIfJD9P5ZBg3u+19z5juvtex//K7+exmb1KMtRP1cHgSJOHlNLp9ejOKF17I6/PPYRmdCryIhmH0cm6tiXMfaDluNzl+DYN4HoULDOuuvLzuFXtyc5rTnOY0pznNaU5zmtOc5jSnOc1pTnOa05zmNKc5zWlOc5rTnOY0pznNaU5zmtOc5jSnOc1pTnOa05zmNKc5zWlOc5rTnOY0pznNaU5z+r9q+rY1vQ6jaDQMfw3sg7Wm1VY+r2ofjY03H419FUajMF4+XtvYXz1APBtPk9Z4NAm3PiIbf+k53e1P1sat7KfnZ9NxkIymkxSqESfh7OAsvJhGYSPfk8+/hJfhZLh5QovXmr32vtexTy637YPM9j+NcXiRWLAt0ivZ1rvLMDmdJPb6pCEu5pPzjLS55/25RWJFGK6PfrP1WW47RhdeM7kaxa04uyv5Atlx56BWev1Og/Or5n+Ai6qt8O2j4yn7UvfdbBqPrOCz9OU8Z7MaVuYLVNH0UzGkFdZoMgxtPRyY/YJHr8b7sgdejMKxzbfm8pou6uQyms5n4dD79lvvb8vXb1rvroJ4+fy7LbC9u7O3X5xNL0gruLx8bmO0xuHkMrnyvvd87x9e4+l43PCebL4jHo/Ow+aB2XvTfru3td7unck08prv01Npf+e9T8MsU3UZ177293TFKX6D7LBpvNR78/5t60N46x0fHy8uXjnFTHV5298XPdXVOIvC4EOZgz8XPKbo++31Wp7dsU1rmwzLTMmMHFrvgjgeXU7C4Ym1iIjfZFfybblLubrRs3l81Sx7L9Jb+mRxP8tX0nj8JM9Ztuw7y0aJk2j6IcwXZ/HespGms+B8lNzmC7V8c+mzykKsQpVVWS0km8tKmfIovPjYsSrnzYXHO/BMUbUi5Zaf9fN+1lVzvf/ztj2FHY8fe7//8dr794s/XnqvXrx8/fNvP3q/vPjx5xPvp9OXp/kEnqerdngT2C2al0y9eBol3mT+Mc2Dcy+zNIm9ID5PNy+jyWUOxdW1tzp3OnOw753lX1yiMJlHE28WRHH4fDwNkmZgl/y99Fbeee0sey3Xxdy+RbsTdnkK24Q/V+v0st5/ZuWeFXvz0TC8CObjxJtF03QNCx/te4++GQxOTk5PH1VsPEMc4hCHOMQhDnGIQxziEIc4/504Xjz/mP4vsDcM7YveMLi1RFE4JA1pSEMa0pCGNKQhDWlIQxrSuGk+ZV/N+gvN2XgeEoc4xCEOcYhDHOIQhzjEIQ5xyuCsfzfQ2N8NfDWXfjewY7JP2J4+PTw8OiIpSUlKUpKSlKQkJSlJSUpSkpKUpLtB6mekQSKRtjPSTsf3Bz2SkpSkJCUpSUlKUpKSlKQkJSlJSbobpB1L+jwaCaT+UUZqTL/f6ZCUpCQlKUlJSlKSkpSkJCUpSUlK0t0gPbSkr6/mEukgIz1KR/cHkpKUpCQlKUlJSlKSkpSkJCUpSUm6G6RdS/qvcCiR9jPSZ89OTvp9kpKUpCQlKUlJSlKSkpSkJCUpSUm6G6S97C8T81Ai7WWkJye9HklJSlKSkpSkJCUpSUlKUpKSlKQk3RXSviX9dSo5C/rdjHQw8P1ul6QkJSlJSUpSkpKUpCQlKUlJSlKS1ka6QhlGwafmVrGbVjJKxuGrq2AWtpLwJmk++mk6j+LtGLf3j3w2+hhO4tF0Mg7jTGGLxOPH3tPh0Au8TMn7NEquvHj6MfSGnS1HxteXrWA2CyfDZsPGbuxtOWA1WkGSRM3GTWPf67ULHnSbHuTnPyhObsfhAu8gmJxfTaP0+MY4vChAu9S4mE6Sg0/h6PIqsRpn0/Ewv8bi3vzz6T8XF/hleBUGiWe8F+fn3qvzq0d7rtv0/eP4PBrNkv8R3/P94+Ho+svT4jGyWKrljYbHjXObwyfpaQejSRi98/vdhpddjOPGcBTPxsHtk9FknM4dnI2n5x++a8iAqeriHLzkdpYeb6/H4/fBdbB41XmkHddBZPPNO/aGo4+zcdiahJ9eXV82G998AXLfO2y3s/9sLSCrOwySIBV+82djHJyF48aTxjC8CObjxJtF04vROGzsL2be3TSemFZ7v3EdjOfh8t/ndp1Jj0mXjpOT09PG5/1cOj5IpwPSOQTpdEE6PZBOH6QzAOkcgXRMGyWEymiDSmmDymmDSmqDymqDSmuDymuDSmyDymwfldk+bK1GZbaPymy/UGZ78fzjx40fns7V0aJwWEBGvEbFZMQrVExGvD7FZMS6LyYjVn0xGbHmi8mIFV9MRqz3YjJyIyuoA8pjuY0V1AFlstzECuqAclluYQV1QNksN7CCOqB8lttXQR3UugzKZ7l3FdTJn8+fRpOkeNs6sy/l1xEvT0Ed8fIU1BEvT0EdsdwL6ojlXlBHLPeCOmK5F9QRy72gjty/igqhMlruYEWFUDkt97CiQqislrtYUSFUXst9rKgQKrPlTlZUCLZWozJbbmZFhfJn9vqTiK2/FCy1ufbG/+gtfkoYEMKvPkSn+hCH1YfoVh+iV32IfvUhBtWHOKo+xEZnrypGDfVtaihwU0OFmxpK3NRQ46aGIjc1VLmpocxNDXXu11Dnfh19vIY692uoc79cnW/9QcZ826rFLzYCQsh3AxZCvhmwEPK9gIWQl1xYCHnFhYWQF1xYCHm9hYWQl1tYCMe2Chejhvp2bKtwMWqocMe2Chejhhp3bKtwMWqocse2Chejhjp3bKtwMero4zXUuWNbhYtRrs63/u5Vvm3V4oexACHkuwELId8MWAj5XsBCyEsuLIS84sJCyAsuLIT8DShYCPm7UbAQji8E4mLI36jCxZC/bIWLIX8PCxdD/ooWLob8vURcDPkri7gY8rcZcTFqKHPHdyBx/a+GOnd8cxIXo4Y6d3zfEhejXCvf+vMi+bZVi98fAYSQt1WwEPK2ChZCvhewEPK2ChZC3lbBQsjbKlgIeb2FhZCXW1gIx7YKF0NebnEx5OUWF0NebnEx5G0VLoa8rcLFkLdVuBjytgoXo4Yyd2yrcP2vhjp3bKtwMWqoc8e2ChejXCvf6uKeb1u1sHkHhJC3VbAQ8rYKFkK+F7AQ8rYKFkLeVsFCyNsqWAh5vYWFkJdbWAjHtgoXQ15ucTHk5RYXQ15ucTHkbRUuhrytwsWQt1W4GPK2ChejhjJ3bKtw/a+GOndsq3Axaqhzx7YKF6NcK99qlptvW7Vw0wWEkLdVsBDytgoWQr4XsBDytgoWQt5WwULI2ypYCHm9hYWQl1tYCMe2ChdDXm5xMeTlFhdDXm5xMeRtFS6GvK3CxZC3VbgY8rYKF6OGMndsq3D9r4Y6d2yrcDFqqHPHtgoXo1wr3+pJmG9btTAtBISQt1WwEPK2ChZCvhewEPK2ChZC3lbBQsjbKlgIl7sUKITLdwoUwmm2hoohL7e4GC4jK1QMl8cVKobL/goVw+X5horhsoNDxXA5xaFi1FDmTn85VP+roc6drnSoGDXUudPLDhVjeyt/m8fhdWnH7B17k/DTykE2M45txteX+5kD7Far2JWncxwmP0znk2Hc7Lb3PWO6+17H/svv5rObvUkx1lbVw+FJkISX0+j26c0oXngir88/h3F0KvAiGobRy7m1KM59oOW43eT4NQzieRQuMKzL8vK6V2zazWlOc5rTnOY0pznNaU5zmtOc5jSnOc1pTnOa05zmNKc5zWlOc5rTnOY0pznNaU5zmtOc5jSnOc1pTnOa05zmNKc5zWlOc5rTnOY0pznN6f+q6dvW9DqMotEw/DWwD9aaVlv5vKp9NDbefDT2VRiNwnj5eG1jf/UA8Ww8TVrj0STc+ohs/KXndLc/WRu3sp+en03HQTKaTlKoRpyEs4Oz8GIahY18Tz7/El6Gk+HmCS1ea/ba+17HPrnctg8y2/80xuFFYsG2SK9kW+8uw+R0ktjrk4a4mE/OM9LmnvfnFokVYbg++s3WZ7ntGF14zeRqFLfi7K7kC2THnYNa6fU7Dc6vmv8BLqq2wrePjqfsS913s2k8soLP0pfznM1qWJkvUEXTT8WQVlijyTC09XBg9gsevRrvyx54MQrHNt+ay2u6qJPLaDqfhUPv22+9vy1fv2m9uwri5fPvtsD27s7efnE2vSCt4PLyuY3RGoeTy+TK+97zvX94jafjccN7svmOeDw6D5sHZu9N++3e1nq7dybTyGu+T0+l/Z33Pg2zTNVlXPva39MVp/gNssOm8VLvzfu3rQ/hrXd8fLy4eOUUM9XlbX9f9FRX4ywKgw9lDv5c8Jii77fXa3l2xzatbTIsMyUzcmi9C+J4dDkJhyfWIiJ+k13Jt+Uu5epGz+bxVbPsvUhv6ZPF/SxfSePxkzxn2bLvLBslTqLphzBfnMV7y0aazoLzUXKbL9TyzaXPKguxClVWZbWQbC4rZcqj8OJjx6qcNxce78AzRdWKlFt+1s/7WVfN9f7P2/YUdjx+7P3+x2vv3y/+eOm9evHy9c+//ej98uLHn0+8n05fnuYTeJ6u2uFNYLdoXjL14mmUeJP5xzQPzr3M0iT2gvg83byMJpc5FFfX3urc6czBvneWf3GJwmQeTbxZEMXh8/E0SJqBXfL30lt557Wz7LVcF3P7Fu1O2OUpbBP+XK3Ty3r/mZV7VuzNR8PwIpiPE28WTdM1LHy07z36ZjA4OTk9fVSx8QxxiEMc4hCHOMQhDnGIQxzi/HfiePH8Y/q/wN4wtC96w+DWEkXhkDSkIQ1pSEMa0pCGNKQhDWlI46b5lH016y80Z+N5SBziEIc4xCEOcYhDHOIQhzjEKYOz/t1AY3838NVc+t3Ajsk+YXv69PDw6IikJCUpSUlKUpKSlKQkJSlJSUpSku4GqZ+RBolE2s5IOx3fH/RISlKSkpSkJCUpSUlKUpKSlKQkJelukHYs6fNoJJD6RxmpMf1+p0NSkpKUpCQlKUlJSlKSkpSkJCUpSXeD9NCSvr6aS6SDjPQoHd0fSEpSkpKUpCQlKUlJSlKSkpSkJCXpbpB2Lem/wqFE2s9Inz07Oen3SUpSkpKUpCQlKUlJSlKSkpSkJCXpbpD2sr9MzEOJtJeRnpz0eiQlKUlJSlKSkpSkJCUpSUlKUpKSdFdI+5b016nkLOh3M9LBwPe7XZKSlKQkJSlJSUpSkpKUpCQlKUlJWhvpCmUYBZ+aW8VuWskoGYevroJZ2ErCm6T56KfpPIq3Y9zeP/LZ6GM4iUfTyTiMM4UtEo8fe0+HQy/wMiXv0yi58uLpx9AbdrYcGV9ftoLZLJwMmw0bu7G35YDVaAVJEjUbN419r9cueNBtepCf/6A4uR2HC7yDYHJ+NY3S4xvj8KIA7VLjYjpJDj6Fo8urxGqcTcfD/BqLe/PPp/9cXOCX4VUYJJ7vvTg/916dXz3ac92m7x/H59FolvyP+J7vHw9H11+eFo+RxVItbzQ8bpzbHD5JTzsYTcLond/vNbzsYhw3hqN4Ng5un4wm43Tu4Gw8Pf/wXUMGTFUX5+Alt7P0eHs9Hr8ProPFq84j7bgOIptv3rE3HH2cjcPWJPz06vqy2fjmC5D73mG7nf1nawFZ3WGQBKnwmz8b4+AsHDeeNIbhRTAfJ94sml6MxmFjfzHz7qbxxLTa+43rYDwPl/8+t+tMeky6dJycnJ42Pu/n0vFBOh2QziFIpwvS6YF0+iCdAUjnCKRj2ighVEYbVEobVE4bVFIbVFYbVFobVF4bVGIbVGb7qMz2YWs1KrN9VGb7hTLbi+cfP2788HSujhaFwwIy4jUqJiNeoWIy4vUpJiPWfTEZseqLyYg1X0xGrPhiMmK9F5ORG1lBHVAey22soA4ok+UmVlAHlMtyCyuoA8pmuYEV1AHls9y+Cuqg1mVQPsu9q6BO/nz+NJokxdvWmX0pv454eQrqiJenoI54eQrqiOVeUEcs94I6YrkX1BHLvaCOWO4FdeT+VVQIldFyBysqhMppuYcVFUJltdzFigqh8lruY0WFUJktd7KiQrC1GpXZcjMrKpQ/s9efRGz9peB8f29c/JQwIIT8f7ewEPL/98JCyP9HDAsh/xUIFkL++xAshPyXI1gI+W9KsBDyX5tgIRx/YsXFqKG+HX+YxcWoocIdf87Fxaihxh1/BMbFqKHKHX86xsWooc4df3DGxaijj9dQ546/YONilKvzrT/ImG9btfjFRkAI+W7AQsg3AxZCvhewEPKSCwshr7iwEPKCCwshr7ewEPJyCwvh2FbhYtRQ345tFS5GDRXu2FbhYtRQ445tFS5GDVXu2FbhYtRQ545tFS5GHX28hjp3bKtwMcrV+dbfvcq3rVr8MBYghHw3YCHkmwELId8LWAh5yYWFkFdcWAh5wYWFkNdbWAh5uYWFcGyrcDFqqG/HtgoXo4YKd2yrcDFqqHHHtgoXo4Yqd2yrcDFqqHPHtgoXo44+XkOdO7ZVuBjl6nzrz4vk21Ytfn8EEEK+G7AQ8s2AhZDvBSyEvOTCQsgrLiyEvODCQsjrLSyEvNzCQji2VbgYNdS3Y1uFi1FDhTu2VbgYNdS4Y1uFi1FDlTu2VbgYNdS5Y1uFi1FHH6+hzh3bKlyMcnW+1cU937ZqYfMOCCHfDVgI+WbAQsj3AhZCXnJhIeQVFxZCXnBhIeT1FhZCXm5hIRzbKlyMGurbsa3Cxaihwh3bKlyMGmrcsa3Cxaihyh3bKlyMGurcsa3Cxaijj9dQ545tFS5GuTrfapabb1u1cNMFhJDvBiyEfDNgIeR7AQshL7mwEPKKCwshL7iwEPJ6CwshL7ewEI5tFS5GDfXt2FbhYtRQ4Y5tFS5GDTXu2FbhYtRQ5Y5tFS5GDXXu2FbhYtTRx2uoc8e2ChejXJ1v9STMt61amBYCQrh8bkAhXA44oBAubxxQCJcfFCiEyykKFMLlIQUK4XKXAoVw+U6BQjjN1lAxaqhvp0UbKkYNFe40dkPFqKHGnXZwqBg1VLnTRA4Vo4Y6d1rPoWLU0cdrqHOnlx0qxvY6f5vH4XVpx+wde5Pw08pBNjOObcbXl/uZA+xWq9iVp3McJj9M55Nh3Oy29z1juvtex/7L7+azm71JMdZW1cPhSZCEl9Po9unNKF54Iq/PP4dxdCrwIhqG0cu5tSjOfaDluN3k+DUM4nkULjCsy/Lyulds2s1pTnOa05zmNKc5zWlOc5rTnOY0pznNaU5zmtOc5jSnOc1pTnOa05zmNKc5zWlOc5rTnOY0pznNaU5zmtOc5jSnOc1pTnOa05zmNKc5zen/qunb1vQ6jKLRMPw1sA/WmlZb+byqfTQ23nw09lUYjcJ4+XhtY3/1APFsPE1a49Ek3PqIbPyl53S3P1kbt7Kfnp9Nx0Eymk5SqEachLODs/BiGoWNfE8+/xJehpPh5gktXmv22vtexz653LYPMtv/NMbhRWLBtkivZFvvLsPkdJLY65OGuJhPzjPS5p735xaJFWG4PvrN1me57RhdeM3kahS34uyu5Atkx52DWun1Ow3Or5r/AS6qtsK3j46n7Evdd7NpPLKCz9KX85zNaliZL1BF00/FkFZYo8kwtPVwYPYLHr0a78seeDEKxzbfmstruqiTy2g6n4VD79tvvb8tX79pvbsK4uXz77bA9u7O3n5xNr0greDy8rmN0RqHk8vkyvve871/eI2n43HDe7L5jng8Og+bB2bvTfvt3tZ6u3cm08hrvk9Ppf2d9z4Ns0zVZVz72t/TFaf4DbLDpvFS7837t60P4a13fHy8uHjlFDPV5W1/X/RUV+MsCoMPZQ7+XPCYou+312t5dsc2rW0yLDMlM3JovQvieHQ5CYcn1iIifpNdybflLuXqRs/m8VWz7L1Ib+mTxf0sX0nj8ZM8Z9my7ywbJU6i6YcwX5zFe8tGms6C81Fymy/U8s2lzyoLsQpVVmW1kGwuK2XKo/DiY8eqnDcXHu/AM0XVipRbftbP+1lXzfX+z9v2FHY8fuz9/sdr798v/njpvXrx8vXPv/3o/fLix59PvJ9OX57mE3iertrhTWC3aF4y9eJplHiT+cc0D869zNIk9oL4PN28jCaXORRX197q3OnMwb53ln9xicJkHk28WRDF4fPxNEiagV3y99Jbeee1s+y1XBdz+xbtTtjlKWwT/lyt08t6/5mVe1bszUfD8CKYjxNvFk3TNSx8tO89+mYwODk5PX1UsfEMcYhDHOIQhzjEIQ5xiEMc4vx34njx/GP6v8DeMLQvesPg1hJF4ZA0pCENaUhDGtKQhjSkIQ1pSOOm+ZR9NesvNGfjeUgc4hCHOMQhDnGIQxziEIc4xCmDs/7dQGN/N/DVXPrdwI7JPmF7+vTw8OiIpCQlKUlJSlKSkpSkJCUpSUlKUpLuBqmfkQaJRNrOSDsd3x/0SEpSkpKUpCQlKUlJSlKSkpSkJCXpbpB2LOnzaCSQ+kcZqTH9fqdDUpKSlKQkJSlJSUpSkpKUpCQlKUl3g/TQkr6+mkukg4z0KB3dH0hKUpKSlKQkJSlJSUpSkpKUpCQl6W6Qdi3pv8KhRNrPSJ89Oznp90lKUpKSlKQkJSlJSUpSkpKUpCQl6W6Q9rK/TMxDibSXkZ6c9HokJSlJSUpSkpKUpCQlKUlJSlKSknRXSPuW9Nep5CzodzPSwcD3u12SkpSkJCUpSUlKUpKSlKQkJSlJSVob6QplGAWfmlvFblrJKBmHr66CWdhKwpuk+ein6TyKt2Pc3j/y2ehjOIlH08k4jDOFLRKPH3tPh0Mv8DIl79MoufLi6cfQG3a2HBlfX7aC2SycDJsNG7uxt+WA1WgFSRI1GzeNfa/XLnjQbXqQn/+gOLkdhwu8g2ByfjWN0uMb4/CiAO1S42I6SQ4+haPLq8RqnE3Hw/wai3vzz6f/XFzgl+FVGCTei/Nz79X51aM91036/nF8Ho1myf+I7/n+8XB0/eVp8RhZLNXyRsPjxrnN4JP0pIPRJIze+f1+w8suxXFjOIpn4+D2yWgyTucOzsbT8w/fNWTAVHVxDl5yO0uPt1fj8fvgOli86jzSjusgstnmHXvD0cfZOGxNwk+vri+bjW++ALnvHbbb2X+2lo/VHQZJkAq/+bMxDs7CceNJYxheBPNx4s2i6cVoHDb2FzPvbhpPTKu937gOxvOw8aR31Dq6MwZH+41zu+akCukycnJyetr4vJ9L1a9EtVOJ6mElqt1KVHuVqPYrUR1UonpUiappVyNbTXWZasrLVFNfppoCM9VUmKmmxEw1NWaqKTJTTZX51VSZX1EPq6bK/GqqzFdUmRfPP37c+BnvEjuEKBwWEM15bYuJ5ryyxURzXtdiojnXrmKiOVeuYqI5161iojlXrWKiOdesYqJ5NwYFVSupqbzbgoKqlVRV3k1BQdVK6irvlqCgaiWVlXdDUFC1ktrKux0oqFpNv6qktvLuBQqqlq2tT6NJot0GnNk35FfNeVkLqua8rAVVc17Wgqo5l6yCqjmXrIKqOZesgqo5l6yCqjmXrIKqefcDRWWrqa68O4KistXUV949QVHZaios766gqGw1NZZ3X1BUtpoqy7szKCpbUQ+rpsrybg6Kyhaqsrd5PnBYfjboHXuT8NPqA43sc4xmfH25n30gsfWTi9UHjHGY/DCdT4Zxs9ve94zp7nsd+y+/m+/Tj5sUY/256XB4EiTh5TS6fXozihcf0K0vRY5PMVOBF9EwjF7O7edluQ+0HLebHL+GQTyPwgWG/chveQu0n8tmHyRthnoVRqMwXuKmkZY3ZDaeJi376dbWkPGXzns7adzK8m42HQfJaDpJoRpxEs4OzsKLaRQ28mXSL+FlOBluntDitWYvzYKOzQT7YZix/1l+7Ln1E+GVbOvdZZicThJ7fdIQF/PJeUba3PP+zPG5pyUM10e/2VobdowuvGZyNYrTvLbH5Qtkx52DWun1Ow3Or5r/AS6qtsJffja41H03m8YjK/gsfTnP2ayGlfkCVTT9VAxphTWaDENbuAdmv+DRq/G+7IEXo3Bs8625vKaLOrmMpvNZOPS+/db72/L1m9a7qyBerie2wPbuzt5+cTa9IK3g8vK5jdEah5PL5Mr73vO9f3iNp+Nxw3uy+Y54PDoPmwdm70377d7Wert3JtPIa75PT6X9nfc+DbNM1WVc+9rfjz1T/AbZYdN4qffm/dvWhzBd3o6PFxevnGKmurzt74ue6mqcRWHwoczBnwseU/T99notz+7YprVNhmWmZI2x9W7xnZ5wmH2rJ36TXcm35S7l6kbP5vFVs+y9SG/pk8X9LF9J4/GTPGfZsu8sGyVOoumHMF+cxXvLRprOgvNRcpsv1PLNpc8qC7EKVVZltZBsLitlyqPw4mPHqpw3Fx7vwDNF1YqUW37Wz/tZV831/s/b9hR2PH7s/f7Ha+/fL/546b168fL1z7/96P3y4sefT7yfTl+e5hN4nq7a4U1gt2heMvXiabqRnsw/pnlw7mVbxNgL4vN08zKaXOZQXF17q3OnMwf73ln+xeX/t3M2u2kDURjd9ym8TBaNMvQndFOpUou66a5S1yZMFKtgR4OpxKLv3gylCEhvE/xdBaye2Zhw0cfB3PGgMJwU20Wqi7syzeNo2pTtWZkv+ef3b+XWfePVfU86mY9/RNt62vVLeCz45xH2Xu59AbveYJm/UD3KVlBwwAEHHHDAAQcccMABB5ze4zzc4JKJUpxAAw000EADDTTQQAMNNNBA82+aB1sCM03e4gcOOOCAAw444IADDjjggAPOEY2HX+PsLqayXaRYnI3OcR6elPPwW5k77nNcHT7MxlWs2yK/Zdl8GCeL+/P/sri6HPVEgjjsgwRx+GwSxNVPT7tKmJxyXjnlvHbKeeOU89Yp58opZ+iU884pZ8cuIAV5dXTwaung1dPBq6mDV1cHr7YOXn0dvBo7eHX2wKuzB27Xaq/OHnh19uCgzn66tG8nqrumT4gxz1B3FZ8QY8777ro9Icac892VekKMOd8FbZ6S49TH9jImyPCUHKdWttcwQXGn5Dh1s72ACeI65Tro1M/26iXo6JQcp362l67ukrmdGEErp+SYp0dQxyk55nQX9HBKjjndBQWckmNOd0XzJgV5dbS9ginyNinIq6ntRUxRsklBXn1tr2OKaE26Mnp1tr2UKfo0Kcirs+3VDClaL6RolClTpkyZMmXKlClTpkyZMmXKlE+pvLxofsSUqkn8UuZ/VIWLS6T4W68EKf5mIMU/aCDFR4p/wECKvz+Q4u8PpPgHDqT4SPH/OpDigwMOOOCAAw444IADDjjggNMHpSQ00EADDTTQQAMNNNBAA01/aP4blSU44IADDjjggAMOOOCAA0735zuCFP9jNYv1vGrqaZzPUeKflhK/Sd+LTzc31XUV6+vlRoT/vAr89aP3Ktt//7n9+7hJX9/YHMbNZJmPt+1s+v7FLzQFcmw="
               },
               {
                  "name" : "annual_peak_electric_demand",
                  "units" : "kW",
                  "value" : 426.37014000000005
               },
               {
                  "name" : "first_year_capital_cost",
                  "units" : "$",
                  "value" : 0
               },
               {
                  "name" : "annual_utility_cost",
                  "units" : "$",
                  "value" : 138572.56
               },
               {
                  "name" : "total_lifecycle_cost",
                  "units" : "$",
                  "value" : 2320038.9700000002
               }
            ],
            "step_warnings" : [ "A table in Annual Overview section returned false and was skipped." ]
         }
      }
   ],
   "updated_at" : "20170710T194706Z",
   "weather_file" : "USA_CO_Denver.Intl.AP.725650_TMY3.epw"
}
