{
   "completed_at" : "20170710T190505Z",
   "completed_status" : "Success",
   "created_at" : "2017-07-10 19:02:10 +0000",
   "current_step" : 5,
   "description" : "",
   "eplusout_err" : "Program Version,EnergyPlus, Version 8.7.0-78a111df4a, YMD=2017.07.10 19:03,IDD_Version 8.7.0\n   ************* IDF Context for following error/warning message:\n   ************* Note -- lines truncated at 300 characters, if necessary...\n   *************      5 Building,\n   ************* indicated Name=NECB 2011-RetailStripmall-NECB HDD Method-CAN_PQ_Ste.Agathe.des.Monts.717200_CWEC.epw created: 2017-07-10 19:02:16 +0000\n   ************* Only last 1 lines before error line shown.....\n   *************      6   NECB 2011-RetailStripmall-NECB HDD Method-CAN_PQ_Ste.Agathe.des.Monts.717200_CWEC.epw created: 2017-07-10 19:02:16 +0000, !- Name\n   ** Warning ** IP: IDF line~6 Alpha Argument length exceeds maximum, will be truncated=  NECB 2011-RetailStripmall-NECB HDD Method-CAN_PQ_Ste.Agathe.des.Monts.717200_CWEC.epw created: 2017-07-10 19:02:16 +000\n   **   ~~~   ** Will be processed as Alpha=NECB 2011-RETAILSTRIPMALL-NECB HDD METHOD-CAN_PQ_STE.AGATHE.DES.MONTS.717200_CWEC.EPW CREATED: 2017-07-10 19:02:16 +0000\n   ************* Beginning Zone Sizing Calculations\n   ** Warning ** ProcessScheduleInput: Schedule:Day:Interval=\"ECONOMIZER MAX OA FRACTION 100 PCT DEFAULT\", Blank Schedule Type Limits Name input -- will not be validated.\n   ** Warning ** ProcessScheduleInput: Schedule:Day:Interval=\"SCHEDULE DAY 1\", Blank Schedule Type Limits Name input -- will not be validated.\n   ** Warning ** ProcessScheduleInput: Schedule:Day:Interval=\"SCHEDULE DAY 10\", Blank Schedule Type Limits Name input -- will not be validated.\n   ** Warning ** ProcessScheduleInput: Schedule:Day:Interval=\"SCHEDULE DAY 11\", Blank Schedule Type Limits Name input -- will not be validated.\n   ** Warning ** ProcessScheduleInput: Schedule:Day:Interval=\"SCHEDULE DAY 12\", Blank Schedule Type Limits Name input -- will not be validated.\n   ** Warning ** ProcessScheduleInput: Schedule:Day:Interval=\"SCHEDULE DAY 13\", Blank Schedule Type Limits Name input -- will not be validated.\n   ** Warning ** ProcessScheduleInput: Schedule:Day:Interval=\"SCHEDULE DAY 14\", Blank Schedule Type Limits Name input -- will not be validated.\n   ** Warning ** ProcessScheduleInput: Schedule:Day:Interval=\"SCHEDULE DAY 15\", Blank Schedule Type Limits Name input -- will not be validated.\n   ** Warning ** ProcessScheduleInput: Schedule:Day:Interval=\"SCHEDULE DAY 16\", Blank Schedule Type Limits Name input -- will not be validated.\n   ** Warning ** ProcessScheduleInput: Schedule:Day:Interval=\"SCHEDULE DAY 17\", Blank Schedule Type Limits Name input -- will not be validated.\n   ** Warning ** ProcessScheduleInput: Schedule:Day:Interval=\"SCHEDULE DAY 18\", Blank Schedule Type Limits Name input -- will not be validated.\n   ** Warning ** ProcessScheduleInput: Schedule:Day:Interval=\"SCHEDULE DAY 19\", Blank Schedule Type Limits Name input -- will not be validated.\n   ** Warning ** ProcessScheduleInput: Schedule:Day:Interval=\"SCHEDULE DAY 2\", Blank Schedule Type Limits Name input -- will not be validated.\n   ** Warning ** ProcessScheduleInput: Schedule:Day:Interval=\"SCHEDULE DAY 20\", Blank Schedule Type Limits Name input -- will not be validated.\n   ** Warning ** ProcessScheduleInput: Schedule:Day:Interval=\"SCHEDULE DAY 21\", Blank Schedule Type Limits Name input -- will not be validated.\n   ** Warning ** ProcessScheduleInput: Schedule:Day:Interval=\"SCHEDULE DAY 22\", Blank Schedule Type Limits Name input -- will not be validated.\n   ** Warning ** ProcessScheduleInput: Schedule:Day:Interval=\"SCHEDULE DAY 23\", Blank Schedule Type Limits Name input -- will not be validated.\n   ** Warning ** ProcessScheduleInput: Schedule:Day:Interval=\"SCHEDULE DAY 24\", Blank Schedule Type Limits Name input -- will not be validated.\n   ** Warning ** ProcessScheduleInput: Schedule:Day:Interval=\"SCHEDULE DAY 25\", Blank Schedule Type Limits Name input -- will not be validated.\n   ** Warning ** ProcessScheduleInput: Schedule:Day:Interval=\"SCHEDULE DAY 26\", Blank Schedule Type Limits Name input -- will not be validated.\n   ** Warning ** ProcessScheduleInput: Schedule:Day:Interval=\"SCHEDULE DAY 27\", Blank Schedule Type Limits Name input -- will not be validated.\n   ** Warning ** ProcessScheduleInput: Schedule:Day:Interval=\"SCHEDULE DAY 28\", Blank Schedule Type Limits Name input -- will not be validated.\n   ** Warning ** ProcessScheduleInput: Schedule:Day:Interval=\"SCHEDULE DAY 29\", Blank Schedule Type Limits Name input -- will not be validated.\n   ** Warning ** ProcessScheduleInput: Schedule:Day:Interval=\"SCHEDULE DAY 30\", Blank Schedule Type Limits Name input -- will not be validated.\n   ** Warning ** ProcessScheduleInput: Schedule:Day:Interval=\"SCHEDULE DAY 31\", Blank Schedule Type Limits Name input -- will not be validated.\n   ** Warning ** ProcessScheduleInput: Schedule:Day:Interval=\"SCHEDULE DAY 32\", Blank Schedule Type Limits Name input -- will not be validated.\n   ** Warning ** ProcessScheduleInput: Schedule:Day:Interval=\"SCHEDULE DAY 33\", Blank Schedule Type Limits Name input -- will not be validated.\n   ** Warning ** ProcessScheduleInput: Schedule:Day:Interval=\"SCHEDULE DAY 34\", Blank Schedule Type Limits Name input -- will not be validated.\n   ** Warning ** ProcessScheduleInput: Schedule:Day:Interval=\"SCHEDULE DAY 35\", Blank Schedule Type Limits Name input -- will not be validated.\n   ** Warning ** ProcessScheduleInput: Schedule:Day:Interval=\"SCHEDULE DAY 36\", Blank Schedule Type Limits Name input -- will not be validated.\n   ** Warning ** ProcessScheduleInput: Schedule:Day:Interval=\"SCHEDULE DAY 37\", Blank Schedule Type Limits Name input -- will not be validated.\n   ** Warning ** ProcessScheduleInput: Schedule:Day:Interval=\"SCHEDULE DAY 38\", Blank Schedule Type Limits Name input -- will not be validated.\n   ** Warning ** ProcessScheduleInput: Schedule:Day:Interval=\"SCHEDULE DAY 39\", Blank Schedule Type Limits Name input -- will not be validated.\n   ** Warning ** ProcessScheduleInput: Schedule:Day:Interval=\"SCHEDULE DAY 40\", Blank Schedule Type Limits Name input -- will not be validated.\n   ** Warning ** ProcessScheduleInput: Schedule:Day:Interval=\"SCHEDULE DAY 41\", Blank Schedule Type Limits Name input -- will not be validated.\n   ** Warning ** ProcessScheduleInput: Schedule:Day:Interval=\"SCHEDULE DAY 42\", Blank Schedule Type Limits Name input -- will not be validated.\n   ** Warning ** ProcessScheduleInput: Schedule:Day:Interval=\"SCHEDULE DAY 43\", Blank Schedule Type Limits Name input -- will not be validated.\n   ** Warning ** ProcessScheduleInput: Schedule:Day:Interval=\"SCHEDULE DAY 44\", Blank Schedule Type Limits Name input -- will not be validated.\n   ** Warning ** ProcessScheduleInput: Schedule:Day:Interval=\"SCHEDULE DAY 45\", Blank Schedule Type Limits Name input -- will not be validated.\n   ** Warning ** ProcessScheduleInput: Schedule:Day:Interval=\"SCHEDULE DAY 46\", Blank Schedule Type Limits Name input -- will not be validated.\n   ** Warning ** ProcessScheduleInput: Schedule:Day:Interval=\"SCHEDULE DAY 47\", Blank Schedule Type Limits Name input -- will not be validated.\n   ** Warning ** ProcessScheduleInput: Schedule:Day:Interval=\"SCHEDULE DAY 48\", Blank Schedule Type Limits Name input -- will not be validated.\n   ** Warning ** ProcessScheduleInput: Schedule:Day:Interval=\"SCHEDULE DAY 49\", Blank Schedule Type Limits Name input -- will not be validated.\n   ** Warning ** ProcessScheduleInput: Schedule:Day:Interval=\"SCHEDULE DAY 5\", Blank Schedule Type Limits Name input -- will not be validated.\n   ** Warning ** ProcessScheduleInput: Schedule:Day:Interval=\"SCHEDULE DAY 50\", Blank Schedule Type Limits Name input -- will not be validated.\n   ** Warning ** ProcessScheduleInput: Schedule:Day:Interval=\"SCHEDULE DAY 51\", Blank Schedule Type Limits Name input -- will not be validated.\n   ** Warning ** ProcessScheduleInput: Schedule:Day:Interval=\"SCHEDULE DAY 52\", Blank Schedule Type Limits Name input -- will not be validated.\n   ** Warning ** ProcessScheduleInput: Schedule:Day:Interval=\"SCHEDULE DAY 53\", Blank Schedule Type Limits Name input -- will not be validated.\n   ** Warning ** ProcessScheduleInput: Schedule:Day:Interval=\"SCHEDULE DAY 54\", Blank Schedule Type Limits Name input -- will not be validated.\n   ** Warning ** ProcessScheduleInput: Schedule:Day:Interval=\"SCHEDULE DAY 6\", Blank Schedule Type Limits Name input -- will not be validated.\n   ** Warning ** ProcessScheduleInput: Schedule:Day:Interval=\"SCHEDULE DAY 7\", Blank Schedule Type Limits Name input -- will not be validated.\n   ** Warning ** ProcessScheduleInput: Schedule:Day:Interval=\"SCHEDULE DAY 8\", Blank Schedule Type Limits Name input -- will not be validated.\n   ** Warning ** ProcessScheduleInput: Schedule:Day:Interval=\"SCHEDULE DAY 9\", Blank Schedule Type Limits Name input -- will not be validated.\n   ** Warning ** ProcessScheduleInput: Schedule:Year=\"ECONOMIZER MAX OA FRACTION 100 PCT\", Blank Schedule Type Limits Name input -- will not be validated.\n   ** Warning ** ProcessScheduleInput: Schedule:Year=\"SCHEDULE RULESET 10\", Blank Schedule Type Limits Name input -- will not be validated.\n   ** Warning ** ProcessScheduleInput: Schedule:Year=\"SCHEDULE RULESET 11\", Blank Schedule Type Limits Name input -- will not be validated.\n   ** Warning ** ProcessScheduleInput: Schedule:Year=\"SCHEDULE RULESET 12\", Blank Schedule Type Limits Name input -- will not be validated.\n   ** Warning ** ProcessScheduleInput: Schedule:Year=\"SCHEDULE RULESET 13\", Blank Schedule Type Limits Name input -- will not be validated.\n   ** Warning ** ProcessScheduleInput: Schedule:Year=\"SCHEDULE RULESET 14\", Blank Schedule Type Limits Name input -- will not be validated.\n   ** Warning ** ProcessScheduleInput: Schedule:Year=\"SCHEDULE RULESET 15\", Blank Schedule Type Limits Name input -- will not be validated.\n   ** Warning ** ProcessScheduleInput: Schedule:Year=\"SCHEDULE RULESET 16\", Blank Schedule Type Limits Name input -- will not be validated.\n   ** Warning ** ProcessScheduleInput: Schedule:Year=\"SCHEDULE RULESET 17\", Blank Schedule Type Limits Name input -- will not be validated.\n   ** Warning ** ProcessScheduleInput: Schedule:Year=\"SCHEDULE RULESET 18\", Blank Schedule Type Limits Name input -- will not be validated.\n   ** Warning ** ProcessScheduleInput: Schedule:Year=\"SCHEDULE RULESET 19\", Blank Schedule Type Limits Name input -- will not be validated.\n   ** Warning ** ProcessScheduleInput: Schedule:Year=\"SCHEDULE RULESET 20\", Blank Schedule Type Limits Name input -- will not be validated.\n   ** Warning ** ProcessScheduleInput: Schedule:Year=\"SCHEDULE RULESET 21\", Blank Schedule Type Limits Name input -- will not be validated.\n   ** Warning ** ProcessScheduleInput: Schedule:Year=\"SCHEDULE RULESET 22\", Blank Schedule Type Limits Name input -- will not be validated.\n   ** Warning ** ProcessScheduleInput: Schedule:Year=\"SCHEDULE RULESET 23\", Blank Schedule Type Limits Name input -- will not be validated.\n   ** Warning ** ProcessScheduleInput: Schedule:Year=\"SCHEDULE RULESET 24\", Blank Schedule Type Limits Name input -- will not be validated.\n   ** Warning ** ProcessScheduleInput: Schedule:Year=\"SCHEDULE RULESET 25\", Blank Schedule Type Limits Name input -- will not be validated.\n   ** Warning ** ProcessScheduleInput: Schedule:Year=\"SCHEDULE RULESET 26\", Blank Schedule Type Limits Name input -- will not be validated.\n   ** Warning ** ProcessScheduleInput: Schedule:Year=\"SCHEDULE RULESET 27\", Blank Schedule Type Limits Name input -- will not be validated.\n   ** Warning ** ProcessScheduleInput: Schedule:Year=\"SCHEDULE RULESET 28\", Blank Schedule Type Limits Name input -- will not be validated.\n   ** Warning ** ProcessScheduleInput: Schedule:Year=\"SCHEDULE RULESET 29\", Blank Schedule Type Limits Name input -- will not be validated.\n   ** Warning ** ProcessScheduleInput: Schedule:Year=\"SCHEDULE RULESET 3\", Blank Schedule Type Limits Name input -- will not be validated.\n   ** Warning ** ProcessScheduleInput: Schedule:Year=\"SCHEDULE RULESET 30\", Blank Schedule Type Limits Name input -- will not be validated.\n   ** Warning ** ProcessScheduleInput: Schedule:Year=\"SCHEDULE RULESET 31\", Blank Schedule Type Limits Name input -- will not be validated.\n   ** Warning ** ProcessScheduleInput: Schedule:Year=\"SCHEDULE RULESET 32\", Blank Schedule Type Limits Name input -- will not be validated.\n   ** Warning ** ProcessScheduleInput: Schedule:Year=\"SCHEDULE RULESET 4\", Blank Schedule Type Limits Name input -- will not be validated.\n   ** Warning ** ProcessScheduleInput: Schedule:Year=\"SCHEDULE RULESET 5\", Blank Schedule Type Limits Name input -- will not be validated.\n   ** Warning ** ProcessScheduleInput: Schedule:Year=\"SCHEDULE RULESET 6\", Blank Schedule Type Limits Name input -- will not be validated.\n   ** Warning ** ProcessScheduleInput: Schedule:Year=\"SCHEDULE RULESET 7\", Blank Schedule Type Limits Name input -- will not be validated.\n   ** Warning ** ProcessScheduleInput: Schedule:Year=\"SCHEDULE RULESET 8\", Blank Schedule Type Limits Name input -- will not be validated.\n   ** Warning ** ProcessScheduleInput: Schedule:Year=\"SCHEDULE RULESET 9\", Blank Schedule Type Limits Name input -- will not be validated.\n   ** Warning ** ProcessScheduleInput: Schedule:Constant=\"ALWAYS OFF DISCRETE\", Blank Schedule Type Limits Name input -- will not be validated.\n   ** Warning ** ProcessScheduleInput: Schedule:Constant=\"ALWAYS ON CONTINUOUS\", Blank Schedule Type Limits Name input -- will not be validated.\n   ** Warning ** CheckUsedConstructions: There are 24 nominally unused constructions in input.\n   **   ~~~   ** For explicit details on each unused construction, use Output:Diagnostics,DisplayExtraWarnings;\n   ************* Beginning System Sizing Calculations\n   ************* Beginning Plant Sizing Calculations\n   ** Warning ** GetDXCoils: Coil:Cooling:DX:SingleSpeed=\"COIL COOLING DX SINGLE SPEED 10 65KBTU/HR 9.7EER\", invalid\n   **   ~~~   ** ...Part Load Fraction Correlation Curve Name = DXCOOL-NECB2011-REF-COOLPLFFPLR 1 has out of range value.\n   **   ~~~   ** ...Curve maximum must be <= 1.0, curve max at PLR = 0.99 is 1.015\n   **   ~~~   ** ...Setting curve maximum to 1.0 and simulation continues.\n   ** Warning ** GetDXCoils: Coil:Cooling:DX:SingleSpeed=\"COIL COOLING DX SINGLE SPEED 1 64KBTU/HR 14.0SEER\", invalid\n   **   ~~~   ** ...Part Load Fraction Correlation Curve Name = DXCOOL-NECB2011-REF-COOLPLFFPLR has out of range value.\n   **   ~~~   ** ...Curve maximum must be <= 1.0, curve max at PLR = 0.99 is 1.015\n   **   ~~~   ** ...Setting curve maximum to 1.0 and simulation continues.\n   ** Warning ** GetDXCoils: Coil:Cooling:DX:SingleSpeed=\"COIL COOLING DX SINGLE SPEED 3 34KBTU/HR 14.0SEER\", invalid\n   **   ~~~   ** ...Part Load Fraction Correlation Curve Name = DXCOOL-NECB2011-REF-COOLPLFFPLR 3 has out of range value.\n   **   ~~~   ** ...Curve maximum must be <= 1.0, curve max at PLR = 0.99 is 1.015\n   **   ~~~   ** ...Setting curve maximum to 1.0 and simulation continues.\n   ** Warning ** GetDXCoils: Coil:Cooling:DX:SingleSpeed=\"COIL COOLING DX SINGLE SPEED 2 33KBTU/HR 14.0SEER\", invalid\n   **   ~~~   ** ...Part Load Fraction Correlation Curve Name = DXCOOL-NECB2011-REF-COOLPLFFPLR 2 has out of range value.\n   **   ~~~   ** ...Curve maximum must be <= 1.0, curve max at PLR = 0.99 is 1.015\n   **   ~~~   ** ...Setting curve maximum to 1.0 and simulation continues.\n   ** Warning ** GetDXCoils: Coil:Cooling:DX:SingleSpeed=\"COIL COOLING DX SINGLE SPEED 6 33KBTU/HR 14.0SEER\", invalid\n   **   ~~~   ** ...Part Load Fraction Correlation Curve Name = DXCOOL-NECB2011-REF-COOLPLFFPLR 6 has out of range value.\n   **   ~~~   ** ...Curve maximum must be <= 1.0, curve max at PLR = 0.99 is 1.015\n   **   ~~~   ** ...Setting curve maximum to 1.0 and simulation continues.\n   ** Warning ** GetDXCoils: Coil:Cooling:DX:SingleSpeed=\"COIL COOLING DX SINGLE SPEED 8 33KBTU/HR 14.0SEER\", invalid\n   **   ~~~   ** ...Part Load Fraction Correlation Curve Name = DXCOOL-NECB2011-REF-COOLPLFFPLR 8 has out of range value.\n   **   ~~~   ** ...Curve maximum must be <= 1.0, curve max at PLR = 0.99 is 1.015\n   **   ~~~   ** ...Setting curve maximum to 1.0 and simulation continues.\n   ** Warning ** GetDXCoils: Coil:Cooling:DX:SingleSpeed=\"COIL COOLING DX SINGLE SPEED 7 33KBTU/HR 14.0SEER\", invalid\n   **   ~~~   ** ...Part Load Fraction Correlation Curve Name = DXCOOL-NECB2011-REF-COOLPLFFPLR 7 has out of range value.\n   **   ~~~   ** ...Curve maximum must be <= 1.0, curve max at PLR = 0.99 is 1.015\n   **   ~~~   ** ...Setting curve maximum to 1.0 and simulation continues.\n   ** Warning ** GetDXCoils: Coil:Cooling:DX:SingleSpeed=\"COIL COOLING DX SINGLE SPEED 5 33KBTU/HR 14.0SEER\", invalid\n   **   ~~~   ** ...Part Load Fraction Correlation Curve Name = DXCOOL-NECB2011-REF-COOLPLFFPLR 5 has out of range value.\n   **   ~~~   ** ...Curve maximum must be <= 1.0, curve max at PLR = 0.99 is 1.015\n   **   ~~~   ** ...Setting curve maximum to 1.0 and simulation continues.\n   ** Warning ** GetDXCoils: Coil:Cooling:DX:SingleSpeed=\"COIL COOLING DX SINGLE SPEED 4 33KBTU/HR 14.0SEER\", invalid\n   **   ~~~   ** ...Part Load Fraction Correlation Curve Name = DXCOOL-NECB2011-REF-COOLPLFFPLR 4 has out of range value.\n   **   ~~~   ** ...Curve maximum must be <= 1.0, curve max at PLR = 0.99 is 1.015\n   **   ~~~   ** ...Setting curve maximum to 1.0 and simulation continues.\n   ** Warning ** GetDXCoils: Coil:Cooling:DX:SingleSpeed=\"COIL COOLING DX SINGLE SPEED 9 34KBTU/HR 14.0SEER\", invalid\n   **   ~~~   ** ...Part Load Fraction Correlation Curve Name = DXCOOL-NECB2011-REF-COOLPLFFPLR 9 has out of range value.\n   **   ~~~   ** ...Curve maximum must be <= 1.0, curve max at PLR = 0.99 is 1.015\n   **   ~~~   ** ...Setting curve maximum to 1.0 and simulation continues.\n   ** Warning ** The Standard Ratings is calculated for Coil:Cooling:DX:SingleSpeed = COIL COOLING DX SINGLE SPEED 10 65KBTU/HR 9.7EER but not at the AHRI test condition due to curve out of bound.\n   **   ~~~   **  Review the Standard Ratings calculations in the Engineering Reference for this coil type. Also, use Output:Diagnostics, DisplayExtraWarnings for further guidance.\n   ** Warning ** The Standard Ratings is calculated for Coil:Cooling:DX:SingleSpeed = COIL COOLING DX SINGLE SPEED 1 64KBTU/HR 14.0SEER but not at the AHRI test condition due to curve out of bound.\n   **   ~~~   **  Review the Standard Ratings calculations in the Engineering Reference for this coil type. Also, use Output:Diagnostics, DisplayExtraWarnings for further guidance.\n   ** Warning ** The Standard Ratings is calculated for Coil:Cooling:DX:SingleSpeed = COIL COOLING DX SINGLE SPEED 3 34KBTU/HR 14.0SEER but not at the AHRI test condition due to curve out of bound.\n   **   ~~~   **  Review the Standard Ratings calculations in the Engineering Reference for this coil type. Also, use Output:Diagnostics, DisplayExtraWarnings for further guidance.\n   ** Warning ** The Standard Ratings is calculated for Coil:Cooling:DX:SingleSpeed = COIL COOLING DX SINGLE SPEED 2 33KBTU/HR 14.0SEER but not at the AHRI test condition due to curve out of bound.\n   **   ~~~   **  Review the Standard Ratings calculations in the Engineering Reference for this coil type. Also, use Output:Diagnostics, DisplayExtraWarnings for further guidance.\n   ** Warning ** The Standard Ratings is calculated for Coil:Cooling:DX:SingleSpeed = COIL COOLING DX SINGLE SPEED 6 33KBTU/HR 14.0SEER but not at the AHRI test condition due to curve out of bound.\n   **   ~~~   **  Review the Standard Ratings calculations in the Engineering Reference for this coil type. Also, use Output:Diagnostics, DisplayExtraWarnings for further guidance.\n   ** Warning ** The Standard Ratings is calculated for Coil:Cooling:DX:SingleSpeed = COIL COOLING DX SINGLE SPEED 8 33KBTU/HR 14.0SEER but not at the AHRI test condition due to curve out of bound.\n   **   ~~~   **  Review the Standard Ratings calculations in the Engineering Reference for this coil type. Also, use Output:Diagnostics, DisplayExtraWarnings for further guidance.\n   ** Warning ** The Standard Ratings is calculated for Coil:Cooling:DX:SingleSpeed = COIL COOLING DX SINGLE SPEED 7 33KBTU/HR 14.0SEER but not at the AHRI test condition due to curve out of bound.\n   **   ~~~   **  Review the Standard Ratings calculations in the Engineering Reference for this coil type. Also, use Output:Diagnostics, DisplayExtraWarnings for further guidance.\n   ** Warning ** The Standard Ratings is calculated for Coil:Cooling:DX:SingleSpeed = COIL COOLING DX SINGLE SPEED 5 33KBTU/HR 14.0SEER but not at the AHRI test condition due to curve out of bound.\n   **   ~~~   **  Review the Standard Ratings calculations in the Engineering Reference for this coil type. Also, use Output:Diagnostics, DisplayExtraWarnings for further guidance.\n   ** Warning ** The Standard Ratings is calculated for Coil:Cooling:DX:SingleSpeed = COIL COOLING DX SINGLE SPEED 4 33KBTU/HR 14.0SEER but not at the AHRI test condition due to curve out of bound.\n   **   ~~~   **  Review the Standard Ratings calculations in the Engineering Reference for this coil type. Also, use Output:Diagnostics, DisplayExtraWarnings for further guidance.\n   ** Warning ** The Standard Ratings is calculated for Coil:Cooling:DX:SingleSpeed = COIL COOLING DX SINGLE SPEED 9 34KBTU/HR 14.0SEER but not at the AHRI test condition due to curve out of bound.\n   **   ~~~   **  Review the Standard Ratings calculations in the Engineering Reference for this coil type. Also, use Output:Diagnostics, DisplayExtraWarnings for further guidance.\n   ** Warning ** Check input. Pump nominal power or motor efficiency is set to 0, for pump=SERVICE WATER LOOP PUMP\n   ** Warning ** Output:Meter: invalid Name=\"GAS:FACILITY\" - not found.\n   ** Warning ** Output:Meter: invalid Name=\"DISTRICTCOOLING:FACILITY\" - not found.\n   ** Warning ** Output:Meter: invalid Name=\"DISTRICTHEATING:FACILITY\" - not found.\n   ** Warning ** Output:Meter:MeterFileOnly: invalid Name=\"GAS:FACILITY\" - not found.\n   ** Warning ** Output:Meter:MeterFileOnly requested for \"Electricity:Facility\" (TimeStep), already on \"Output:Meter\". Will report to both eplusout.eso and eplusout.mtr\n   ************* Testing Individual Branch Integrity\n   ************* All Branches passed integrity testing\n   ************* Testing Individual Supply Air Path Integrity\n   ************* All Supply Air Paths passed integrity testing\n   ************* Testing Individual Return Air Path Integrity\n   ************* All Return Air Paths passed integrity testing\n   ************* No node connection errors were found.\n   ************* Beginning Simulation\n   ** Warning ** CalcDoe2DXCoil: Coil:Cooling:DX:SingleSpeed \"COIL COOLING DX SINGLE SPEED 10 65KBTU/HR 9.7EER\" - Air-cooled condenser inlet dry-bulb temperature below 0 C. Outdoor dry-bulb temperature = -13.00\n   **   ~~~   **  ... Occurrence info = RUN PERIOD 1, 01/01 09:02 - 09:05\n   **   ~~~   ** ... Operation at low ambient temperatures may require special performance curves.\n   ** Warning ** CalcDoe2DXCoil: Coil:Cooling:DX:SingleSpeed \"COIL COOLING DX SINGLE SPEED 1 64KBTU/HR 14.0SEER\" - Air-cooled condenser inlet dry-bulb temperature below 0 C. Outdoor dry-bulb temperature = -13.00\n   **   ~~~   **  ... Occurrence info = RUN PERIOD 1, 01/01 09:02 - 09:05\n   **   ~~~   ** ... Operation at low ambient temperatures may require special performance curves.\n   ** Warning ** CalcDoe2DXCoil: Coil:Cooling:DX:SingleSpeed \"COIL COOLING DX SINGLE SPEED 3 34KBTU/HR 14.0SEER\" - Air-cooled condenser inlet dry-bulb temperature below 0 C. Outdoor dry-bulb temperature = -13.00\n   **   ~~~   **  ... Occurrence info = RUN PERIOD 1, 01/01 09:02 - 09:05\n   **   ~~~   ** ... Operation at low ambient temperatures may require special performance curves.\n   ** Warning ** CalcDoe2DXCoil: Coil:Cooling:DX:SingleSpeed \"COIL COOLING DX SINGLE SPEED 2 33KBTU/HR 14.0SEER\" - Air-cooled condenser inlet dry-bulb temperature below 0 C. Outdoor dry-bulb temperature = -13.00\n   **   ~~~   **  ... Occurrence info = RUN PERIOD 1, 01/01 09:02 - 09:05\n   **   ~~~   ** ... Operation at low ambient temperatures may require special performance curves.\n   ** Warning ** CalcDoe2DXCoil: Coil:Cooling:DX:SingleSpeed \"COIL COOLING DX SINGLE SPEED 6 33KBTU/HR 14.0SEER\" - Air-cooled condenser inlet dry-bulb temperature below 0 C. Outdoor dry-bulb temperature = -13.00\n   **   ~~~   **  ... Occurrence info = RUN PERIOD 1, 01/01 09:02 - 09:05\n   **   ~~~   ** ... Operation at low ambient temperatures may require special performance curves.\n   ** Warning ** CalcDoe2DXCoil: Coil:Cooling:DX:SingleSpeed \"COIL COOLING DX SINGLE SPEED 8 33KBTU/HR 14.0SEER\" - Air-cooled condenser inlet dry-bulb temperature below 0 C. Outdoor dry-bulb temperature = -13.00\n   **   ~~~   **  ... Occurrence info = RUN PERIOD 1, 01/01 09:02 - 09:05\n   **   ~~~   ** ... Operation at low ambient temperatures may require special performance curves.\n   ** Warning ** CalcDoe2DXCoil: Coil:Cooling:DX:SingleSpeed \"COIL COOLING DX SINGLE SPEED 7 33KBTU/HR 14.0SEER\" - Air-cooled condenser inlet dry-bulb temperature below 0 C. Outdoor dry-bulb temperature = -13.00\n   **   ~~~   **  ... Occurrence info = RUN PERIOD 1, 01/01 09:02 - 09:05\n   **   ~~~   ** ... Operation at low ambient temperatures may require special performance curves.\n   ** Warning ** CalcDoe2DXCoil: Coil:Cooling:DX:SingleSpeed \"COIL COOLING DX SINGLE SPEED 5 33KBTU/HR 14.0SEER\" - Air-cooled condenser inlet dry-bulb temperature below 0 C. Outdoor dry-bulb temperature = -13.00\n   **   ~~~   **  ... Occurrence info = RUN PERIOD 1, 01/01 09:02 - 09:05\n   **   ~~~   ** ... Operation at low ambient temperatures may require special performance curves.\n   ** Warning ** CalcDoe2DXCoil: Coil:Cooling:DX:SingleSpeed \"COIL COOLING DX SINGLE SPEED 4 33KBTU/HR 14.0SEER\" - Air-cooled condenser inlet dry-bulb temperature below 0 C. Outdoor dry-bulb temperature = -13.00\n   **   ~~~   **  ... Occurrence info = RUN PERIOD 1, 01/01 09:02 - 09:05\n   **   ~~~   ** ... Operation at low ambient temperatures may require special performance curves.\n   ** Warning ** CalcDoe2DXCoil: Coil:Cooling:DX:SingleSpeed \"COIL COOLING DX SINGLE SPEED 9 34KBTU/HR 14.0SEER\" - Air-cooled condenser inlet dry-bulb temperature below 0 C. Outdoor dry-bulb temperature = -13.00\n   **   ~~~   **  ... Occurrence info = RUN PERIOD 1, 01/01 09:02 - 09:05\n   **   ~~~   ** ... Operation at low ambient temperatures may require special performance curves.\n   ** Warning ** CalcDoe2DXCoil: Coil:Cooling:DX:SingleSpeed \"COIL COOLING DX SINGLE SPEED 10 65KBTU/HR 9.7EER\" - Full load outlet air dry-bulb temperature < 2C. This indicates the possibility of coil frost/freeze. Outlet temperature = -2.42 C.\n   **   ~~~   **  ...Occurrence info = RUN PERIOD 1, 01/15 11:15 - 11:22\n   **   ~~~   ** ... Possible reasons for low outlet air dry-bulb temperatures are: This DX coil\n   **   ~~~   **    1) may have a low inlet air dry-bulb temperature. Inlet air temperature = 13.106 C.\n   **   ~~~   **    2) may have a low air flow rate per watt of cooling capacity. Check inputs.\n   **   ~~~   **    3) is used as part of a HX assisted cooling coil which uses a high sensible effectiveness. Check inputs.\n   ** Warning ** CalcDoe2DXCoil: Coil:Cooling:DX:SingleSpeed \"COIL COOLING DX SINGLE SPEED 3 34KBTU/HR 14.0SEER\" - Full load outlet air dry-bulb temperature < 2C. This indicates the possibility of coil frost/freeze. Outlet temperature = -2.01 C.\n   **   ~~~   **  ...Occurrence info = RUN PERIOD 1, 01/15 11:15 - 11:22\n   **   ~~~   ** ... Possible reasons for low outlet air dry-bulb temperatures are: This DX coil\n   **   ~~~   **    1) may have a low inlet air dry-bulb temperature. Inlet air temperature = 13.402 C.\n   **   ~~~   **    2) may have a low air flow rate per watt of cooling capacity. Check inputs.\n   **   ~~~   **    3) is used as part of a HX assisted cooling coil which uses a high sensible effectiveness. Check inputs.\n   ** Warning ** CalcDoe2DXCoil: Coil:Cooling:DX:SingleSpeed \"COIL COOLING DX SINGLE SPEED 2 33KBTU/HR 14.0SEER\" - Full load outlet air dry-bulb temperature < 2C. This indicates the possibility of coil frost/freeze. Outlet temperature = -2.25 C.\n   **   ~~~   **  ...Occurrence info = RUN PERIOD 1, 01/15 11:15 - 11:22\n   **   ~~~   ** ... Possible reasons for low outlet air dry-bulb temperatures are: This DX coil\n   **   ~~~   **    1) may have a low inlet air dry-bulb temperature. Inlet air temperature = 13.158 C.\n   **   ~~~   **    2) may have a low air flow rate per watt of cooling capacity. Check inputs.\n   **   ~~~   **    3) is used as part of a HX assisted cooling coil which uses a high sensible effectiveness. Check inputs.\n   ** Warning ** CalcDoe2DXCoil: Coil:Cooling:DX:SingleSpeed \"COIL COOLING DX SINGLE SPEED 6 33KBTU/HR 14.0SEER\" - Full load outlet air dry-bulb temperature < 2C. This indicates the possibility of coil frost/freeze. Outlet temperature = -2.25 C.\n   **   ~~~   **  ...Occurrence info = RUN PERIOD 1, 01/15 11:15 - 11:22\n   **   ~~~   ** ... Possible reasons for low outlet air dry-bulb temperatures are: This DX coil\n   **   ~~~   **    1) may have a low inlet air dry-bulb temperature. Inlet air temperature = 13.155 C.\n   **   ~~~   **    2) may have a low air flow rate per watt of cooling capacity. Check inputs.\n   **   ~~~   **    3) is used as part of a HX assisted cooling coil which uses a high sensible effectiveness. Check inputs.\n   ** Warning ** CalcDoe2DXCoil: Coil:Cooling:DX:SingleSpeed \"COIL COOLING DX SINGLE SPEED 8 33KBTU/HR 14.0SEER\" - Full load outlet air dry-bulb temperature < 2C. This indicates the possibility of coil frost/freeze. Outlet temperature = -2.04 C.\n   **   ~~~   **  ...Occurrence info = RUN PERIOD 1, 01/15 11:15 - 11:22\n   **   ~~~   ** ... Possible reasons for low outlet air dry-bulb temperatures are: This DX coil\n   **   ~~~   **    1) may have a low inlet air dry-bulb temperature. Inlet air temperature = 13.374 C.\n   **   ~~~   **    2) may have a low air flow rate per watt of cooling capacity. Check inputs.\n   **   ~~~   **    3) is used as part of a HX assisted cooling coil which uses a high sensible effectiveness. Check inputs.\n   ** Warning ** CalcDoe2DXCoil: Coil:Cooling:DX:SingleSpeed \"COIL COOLING DX SINGLE SPEED 7 33KBTU/HR 14.0SEER\" - Full load outlet air dry-bulb temperature < 2C. This indicates the possibility of coil frost/freeze. Outlet temperature = -2.04 C.\n   **   ~~~   **  ...Occurrence info = RUN PERIOD 1, 01/15 11:15 - 11:22\n   **   ~~~   ** ... Possible reasons for low outlet air dry-bulb temperatures are: This DX coil\n   **   ~~~   **    1) may have a low inlet air dry-bulb temperature. Inlet air temperature = 13.374 C.\n   **   ~~~   **    2) may have a low air flow rate per watt of cooling capacity. Check inputs.\n   **   ~~~   **    3) is used as part of a HX assisted cooling coil which uses a high sensible effectiveness. Check inputs.\n   ** Warning ** CalcDoe2DXCoil: Coil:Cooling:DX:SingleSpeed \"COIL COOLING DX SINGLE SPEED 5 33KBTU/HR 14.0SEER\" - Full load outlet air dry-bulb temperature < 2C. This indicates the possibility of coil frost/freeze. Outlet temperature = -2.25 C.\n   **   ~~~   **  ...Occurrence info = RUN PERIOD 1, 01/15 11:15 - 11:22\n   **   ~~~   ** ... Possible reasons for low outlet air dry-bulb temperatures are: This DX coil\n   **   ~~~   **    1) may have a low inlet air dry-bulb temperature. Inlet air temperature = 13.154 C.\n   **   ~~~   **    2) may have a low air flow rate per watt of cooling capacity. Check inputs.\n   **   ~~~   **    3) is used as part of a HX assisted cooling coil which uses a high sensible effectiveness. Check inputs.\n   ** Warning ** CalcDoe2DXCoil: Coil:Cooling:DX:SingleSpeed \"COIL COOLING DX SINGLE SPEED 4 33KBTU/HR 14.0SEER\" - Full load outlet air dry-bulb temperature < 2C. This indicates the possibility of coil frost/freeze. Outlet temperature = -2.25 C.\n   **   ~~~   **  ...Occurrence info = RUN PERIOD 1, 01/15 11:15 - 11:22\n   **   ~~~   ** ... Possible reasons for low outlet air dry-bulb temperatures are: This DX coil\n   **   ~~~   **    1) may have a low inlet air dry-bulb temperature. Inlet air temperature = 13.150 C.\n   **   ~~~   **    2) may have a low air flow rate per watt of cooling capacity. Check inputs.\n   **   ~~~   **    3) is used as part of a HX assisted cooling coil which uses a high sensible effectiveness. Check inputs.\n   ** Warning ** CalcDoe2DXCoil: Coil:Cooling:DX:SingleSpeed \"COIL COOLING DX SINGLE SPEED 9 34KBTU/HR 14.0SEER\" - Full load outlet air dry-bulb temperature < 2C. This indicates the possibility of coil frost/freeze. Outlet temperature = -2.11 C.\n   **   ~~~   **  ...Occurrence info = RUN PERIOD 1, 01/15 11:15 - 11:22\n   **   ~~~   ** ... Possible reasons for low outlet air dry-bulb temperatures are: This DX coil\n   **   ~~~   **    1) may have a low inlet air dry-bulb temperature. Inlet air temperature = 13.487 C.\n   **   ~~~   **    2) may have a low air flow rate per watt of cooling capacity. Check inputs.\n   **   ~~~   **    3) is used as part of a HX assisted cooling coil which uses a high sensible effectiveness. Check inputs.\n   ** Warning ** CalcDoe2DXCoil: Coil:Cooling:DX:SingleSpeed \"COIL COOLING DX SINGLE SPEED 1 64KBTU/HR 14.0SEER\" - Full load outlet air dry-bulb temperature < 2C. This indicates the possibility of coil frost/freeze. Outlet temperature = -2.81 C.\n   **   ~~~   **  ...Occurrence info = RUN PERIOD 1, 01/15 12:00 - 12:15\n   **   ~~~   ** ... Possible reasons for low outlet air dry-bulb temperatures are: This DX coil\n   **   ~~~   **    1) may have a low inlet air dry-bulb temperature. Inlet air temperature = 13.195 C.\n   **   ~~~   **    2) may have a low air flow rate per watt of cooling capacity. Check inputs.\n   **   ~~~   **    3) is used as part of a HX assisted cooling coil which uses a high sensible effectiveness. Check inputs.\n   ************* Simulation Error Summary *************\n   ************* There are 9 unused schedules in input.\n   ************* There are 9 unused week schedules in input.\n   ************* There are 32 unused day schedules in input.\n   ************* Use Output:Diagnostics,DisplayUnusedSchedules; to see them.\n   *************\n   ************* ===== Recurring Error Summary =====\n   ************* The following recurring error messages occurred.\n   *************\n   *************  ** Warning ** CalcDoe2DXCoil: Coil:Cooling:DX:SingleSpeed=\"COIL COOLING DX SINGLE SPEED 10 65KBTU/HR 9.7EER\" - Low condenser dry-bulb temperature error continues...\n   *************  **   ~~~   **   This error occurred 262 total times;\n   *************  **   ~~~   **   during Warmup 0 times;\n   *************  **   ~~~   **   during Sizing 0 times.\n   *************  **   ~~~   **   Max=-0.15 [C]  Min=-27.1 [C]\n   *************\n   *************  ** Warning ** CalcDoe2DXCoil: Coil:Cooling:DX:SingleSpeed=\"COIL COOLING DX SINGLE SPEED 1 64KBTU/HR 14.0SEER\" - Low condenser dry-bulb temperature error continues...\n   *************  **   ~~~   **   This error occurred 300 total times;\n   *************  **   ~~~   **   during Warmup 0 times;\n   *************  **   ~~~   **   during Sizing 0 times.\n   *************  **   ~~~   **   Max=-0.15 [C]  Min=-27.1 [C]\n   *************\n   *************  ** Warning ** CalcDoe2DXCoil: Coil:Cooling:DX:SingleSpeed=\"COIL COOLING DX SINGLE SPEED 3 34KBTU/HR 14.0SEER\" - Low condenser dry-bulb temperature error continues...\n   *************  **   ~~~   **   This error occurred 292 total times;\n   *************  **   ~~~   **   during Warmup 0 times;\n   *************  **   ~~~   **   during Sizing 0 times.\n   *************  **   ~~~   **   Max=-0.15 [C]  Min=-27.1 [C]\n   *************\n   *************  ** Warning ** CalcDoe2DXCoil: Coil:Cooling:DX:SingleSpeed=\"COIL COOLING DX SINGLE SPEED 2 33KBTU/HR 14.0SEER\" - Low condenser dry-bulb temperature error continues...\n   *************  **   ~~~   **   This error occurred 278 total times;\n   *************  **   ~~~   **   during Warmup 0 times;\n   *************  **   ~~~   **   during Sizing 0 times.\n   *************  **   ~~~   **   Max=-0.15 [C]  Min=-27.1 [C]\n   *************\n   *************  ** Warning ** CalcDoe2DXCoil: Coil:Cooling:DX:SingleSpeed=\"COIL COOLING DX SINGLE SPEED 6 33KBTU/HR 14.0SEER\" - Low condenser dry-bulb temperature error continues...\n   *************  **   ~~~   **   This error occurred 277 total times;\n   *************  **   ~~~   **   during Warmup 0 times;\n   *************  **   ~~~   **   during Sizing 0 times.\n   *************  **   ~~~   **   Max=-0.15 [C]  Min=-27.1 [C]\n   *************\n   *************  ** Warning ** CalcDoe2DXCoil: Coil:Cooling:DX:SingleSpeed=\"COIL COOLING DX SINGLE SPEED 8 33KBTU/HR 14.0SEER\" - Low condenser dry-bulb temperature error continues...\n   *************  **   ~~~   **   This error occurred 298 total times;\n   *************  **   ~~~   **   during Warmup 0 times;\n   *************  **   ~~~   **   during Sizing 0 times.\n   *************  **   ~~~   **   Max=-0.15 [C]  Min=-27.1 [C]\n   *************\n   *************  ** Warning ** CalcDoe2DXCoil: Coil:Cooling:DX:SingleSpeed=\"COIL COOLING DX SINGLE SPEED 7 33KBTU/HR 14.0SEER\" - Low condenser dry-bulb temperature error continues...\n   *************  **   ~~~   **   This error occurred 297 total times;\n   *************  **   ~~~   **   during Warmup 0 times;\n   *************  **   ~~~   **   during Sizing 0 times.\n   *************  **   ~~~   **   Max=-0.15 [C]  Min=-27.1 [C]\n   *************\n   *************  ** Warning ** CalcDoe2DXCoil: Coil:Cooling:DX:SingleSpeed=\"COIL COOLING DX SINGLE SPEED 5 33KBTU/HR 14.0SEER\" - Low condenser dry-bulb temperature error continues...\n   *************  **   ~~~   **   This error occurred 277 total times;\n   *************  **   ~~~   **   during Warmup 0 times;\n   *************  **   ~~~   **   during Sizing 0 times.\n   *************  **   ~~~   **   Max=-0.15 [C]  Min=-27.1 [C]\n   *************\n   *************  ** Warning ** CalcDoe2DXCoil: Coil:Cooling:DX:SingleSpeed=\"COIL COOLING DX SINGLE SPEED 4 33KBTU/HR 14.0SEER\" - Low condenser dry-bulb temperature error continues...\n   *************  **   ~~~   **   This error occurred 264 total times;\n   *************  **   ~~~   **   during Warmup 0 times;\n   *************  **   ~~~   **   during Sizing 0 times.\n   *************  **   ~~~   **   Max=-0.15 [C]  Min=-27.1 [C]\n   *************\n   *************  ** Warning ** CalcDoe2DXCoil: Coil:Cooling:DX:SingleSpeed=\"COIL COOLING DX SINGLE SPEED 9 34KBTU/HR 14.0SEER\" - Low condenser dry-bulb temperature error continues...\n   *************  **   ~~~   **   This error occurred 237 total times;\n   *************  **   ~~~   **   during Warmup 0 times;\n   *************  **   ~~~   **   during Sizing 0 times.\n   *************  **   ~~~   **   Max=-0.2 [C]  Min=-25.5 [C]\n   *************\n   *************  ** Warning ** CalcDoe2DXCoil: Coil:Cooling:DX:SingleSpeed=\"COIL COOLING DX SINGLE SPEED 10 65KBTU/HR 9.7EER\" - Full load outlet temperature indicates a possibility of frost/freeze error continues. Outlet air temperature statistics follow:\n   *************  **   ~~~   **   This error occurred 413 total times;\n   *************  **   ~~~   **   during Warmup 0 times;\n   *************  **   ~~~   **   during Sizing 0 times.\n   *************  **   ~~~   **   Max=1.998307  Min=-4.358015\n   *************\n   *************  ** Warning ** CalcDoe2DXCoil: Coil:Cooling:DX:SingleSpeed=\"COIL COOLING DX SINGLE SPEED 3 34KBTU/HR 14.0SEER\" - Full load outlet temperature indicates a possibility of frost/freeze error continues. Outlet air temperature statistics follow:\n   *************  **   ~~~   **   This error occurred 473 total times;\n   *************  **   ~~~   **   during Warmup 0 times;\n   *************  **   ~~~   **   during Sizing 0 times.\n   *************  **   ~~~   **   Max=1.990351  Min=-4.062105\n   *************\n   *************  ** Warning ** CalcDoe2DXCoil: Coil:Cooling:DX:SingleSpeed=\"COIL COOLING DX SINGLE SPEED 2 33KBTU/HR 14.0SEER\" - Full load outlet temperature indicates a possibility of frost/freeze error continues. Outlet air temperature statistics follow:\n   *************  **   ~~~   **   This error occurred 464 total times;\n   *************  **   ~~~   **   during Warmup 0 times;\n   *************  **   ~~~   **   during Sizing 0 times.\n   *************  **   ~~~   **   Max=1.993598  Min=-4.262438\n   *************\n   *************  ** Warning ** CalcDoe2DXCoil: Coil:Cooling:DX:SingleSpeed=\"COIL COOLING DX SINGLE SPEED 6 33KBTU/HR 14.0SEER\" - Full load outlet temperature indicates a possibility of frost/freeze error continues. Outlet air temperature statistics follow:\n   *************  **   ~~~   **   This error occurred 464 total times;\n   *************  **   ~~~   **   during Warmup 0 times;\n   *************  **   ~~~   **   during Sizing 0 times.\n   *************  **   ~~~   **   Max=1.990011  Min=-4.266536\n   *************\n   *************  ** Warning ** CalcDoe2DXCoil: Coil:Cooling:DX:SingleSpeed=\"COIL COOLING DX SINGLE SPEED 8 33KBTU/HR 14.0SEER\" - Full load outlet temperature indicates a possibility of frost/freeze error continues. Outlet air temperature statistics follow:\n   *************  **   ~~~   **   This error occurred 481 total times;\n   *************  **   ~~~   **   during Warmup 0 times;\n   *************  **   ~~~   **   during Sizing 0 times.\n   *************  **   ~~~   **   Max=1.983256  Min=-4.097228\n   *************\n   *************  ** Warning ** CalcDoe2DXCoil: Coil:Cooling:DX:SingleSpeed=\"COIL COOLING DX SINGLE SPEED 7 33KBTU/HR 14.0SEER\" - Full load outlet temperature indicates a possibility of frost/freeze error continues. Outlet air temperature statistics follow:\n   *************  **   ~~~   **   This error occurred 481 total times;\n   *************  **   ~~~   **   during Warmup 0 times;\n   *************  **   ~~~   **   during Sizing 0 times.\n   *************  **   ~~~   **   Max=1.983674  Min=-4.09668\n   *************\n   *************  ** Warning ** CalcDoe2DXCoil: Coil:Cooling:DX:SingleSpeed=\"COIL COOLING DX SINGLE SPEED 5 33KBTU/HR 14.0SEER\" - Full load outlet temperature indicates a possibility of frost/freeze error continues. Outlet air temperature statistics follow:\n   *************  **   ~~~   **   This error occurred 462 total times;\n   *************  **   ~~~   **   during Warmup 0 times;\n   *************  **   ~~~   **   during Sizing 0 times.\n   *************  **   ~~~   **   Max=1.992566  Min=-4.265601\n   *************\n   *************  ** Warning ** CalcDoe2DXCoil: Coil:Cooling:DX:SingleSpeed=\"COIL COOLING DX SINGLE SPEED 4 33KBTU/HR 14.0SEER\" - Full load outlet temperature indicates a possibility of frost/freeze error continues. Outlet air temperature statistics follow:\n   *************  **   ~~~   **   This error occurred 443 total times;\n   *************  **   ~~~   **   during Warmup 0 times;\n   *************  **   ~~~   **   during Sizing 0 times.\n   *************  **   ~~~   **   Max=1.979969  Min=-4.266501\n   *************\n   *************  ** Warning ** CalcDoe2DXCoil: Coil:Cooling:DX:SingleSpeed=\"COIL COOLING DX SINGLE SPEED 9 34KBTU/HR 14.0SEER\" - Full load outlet temperature indicates a possibility of frost/freeze error continues. Outlet air temperature statistics follow:\n   *************  **   ~~~   **   This error occurred 317 total times;\n   *************  **   ~~~   **   during Warmup 0 times;\n   *************  **   ~~~   **   during Sizing 0 times.\n   *************  **   ~~~   **   Max=1.960941  Min=-3.780899\n   *************\n   *************  ** Warning ** CalcDoe2DXCoil: Coil:Cooling:DX:SingleSpeed=\"COIL COOLING DX SINGLE SPEED 1 64KBTU/HR 14.0SEER\" - Full load outlet temperature indicates a possibility of frost/freeze error continues. Outlet air temperature statistics follow:\n   *************  **   ~~~   **   This error occurred 503 total times;\n   *************  **   ~~~   **   during Warmup 0 times;\n   *************  **   ~~~   **   during Sizing 0 times.\n   *************  **   ~~~   **   Max=1.993752  Min=-4.380561\n   *************\n   *************\n   ************* ===== Final Error Summary =====\n   ************* The following error categories occurred.  Consider correcting or noting.\n   ************* Nominally Unused Constructions\n   ************* ..The nominally unused constructions warning is provided to alert you to potential conditions that can cause\n   ************* ..extra time during simulation. Each construction is calculated by the algorithm indicated in the HeatBalanceAlgorithm\n   ************* ..object. You may remove the constructions indicated (when you use the DisplayExtraWarnings option).\n   *************\n   ************* EnergyPlus Warmup Error Summary. During Warmup: 0 Warning; 0 Severe Errors.\n   ************* EnergyPlus Sizing Error Summary. During Sizing: 87 Warning; 0 Severe Errors.\n   ************* EnergyPlus Completed Successfully-- 7397 Warning; 0 Severe Errors; Elapsed Time=00hr 01min  4.02sec\n",
   "file_format_version" : "0.0.1",
   "file_paths" : [ "../weather", "../seeds", "../seed" ],
   "hash" : "898977C5",
   "measure_paths" : [ "../measures" ],
   "name" : "LHS Autogenerated 620",
   "osa_id" : "4fef0e0f-5396-4c55-a6e1-2cd6803db3ab",
   "osd_id" : "4ac5fa9b-0eda-42f1-8c3c-bb1bd6acb324",
   "run_directory" : "./run",
   "seed_file" : "seed.osm",
   "started_at" : "20170710T190213Z",
   "steps" : [
      {
         "arguments" : {
            "__SKIP__" : false,
            "building_type" : "RetailStripmall",
            "climate_zone" : "NECB HDD Method",
            "epw_file" : "CAN_PQ_Ste.Agathe.des.Monts.717200_CWEC.epw",
            "template" : "NECB 2011"
         },
         "measure_dir_name" : "create_prototype_building",
         "name" : "create_prototype_building",
         "result" : {
            "completed_at" : "20170710T190325Z",
            "measure_class_name" : "CreatePrototypeBuilding",
            "measure_display_name" : "Create Prototype Building",
            "measure_name" : "create_prototype_building",
            "measure_taxonomy" : "Whole Building.Space Types",
            "measure_type" : "ModelMeasure",
            "measure_uid" : "ae90fsd7-a651-467a-bc8d-29d310b0f937",
            "measure_version_id" : "c6ec5c18-5595-459f-a082-09a19c8c869c",
            "measure_version_modified" : "20170519T182315Z",
            "measure_xml_checksum" : "057E8D9D",
            "started_at" : "20170710T190215Z",
            "stderr" : "",
            "stdout" : "[OpenStudio.Measure] <0> OSArgumentVector is deprecated, use OpenStudio::Measure::OSArgumentVector instead.\n[openstudio.EpwFile] <0> Successive data points (1980-Jan-31 to 1988-Feb-01, ending on line 753) are greater than 1 day apart in EPW file '/usr/local/bundle/bundler/gems/openstudio-standards-f448df66933d/openstudio-standards/data/weather/CAN_PQ_Ste.Agathe.des.Monts.717200_CWEC.epw'. Data will be treated as typical (TMY)\n[openstudio.setFileExtension] <0> Path p, '/usr/local/bundle/bundler/gems/openstudio-standards-f448df66933d/openstudio-standards/data/weather/CAN_PQ_Ste.Agathe.des.Monts.717200_CWEC.ddy', has an unexpected file extension. Was expecting 'idf'.\n[openstudio.model.YearDescription] <1> 'UseWeatherFile' is not yet a supported option for YearDescription\n[openstudio.model.YearDescription] <1> 'UseWeatherFile' is not yet a supported option for YearDescription\n[openstudio.setFileExtension] <0> Path p, '/usr/local/bundle/bundler/gems/openstudio-standards-f448df66933d/openstudio-standards/data/weather/CAN_PQ_Ste.Agathe.des.Monts.717200_CWEC.ddy', has an unexpected file extension. Was expecting 'idf'.\n[openstudio.model.YearDescription] <1> 'UseWeatherFile' is not yet a supported option for YearDescription\n[openstudio.model.YearDescription] <1> 'UseWeatherFile' is not yet a supported option for YearDescription\n[openstudio.EpwFile] <0> Successive data points (1980-Jan-31 to 1988-Feb-01, ending on line 753) are greater than 1 day apart in EPW file '/usr/local/bundle/bundler/gems/openstudio-standards-f448df66933d/openstudio-standards/data/weather/CAN_PQ_Ste.Agathe.des.Monts.717200_CWEC.epw'. Data will be treated as typical (TMY)\n[openstudio.weather.Model] <0> Could not find ground temperatures; will use generic temperatures, which will skew results.\n[openstudio.setFileExtension] <0> Path p, '/usr/local/bundle/bundler/gems/openstudio-standards-f448df66933d/openstudio-standards/data/weather/CAN_PQ_Ste.Agathe.des.Monts.717200_CWEC.ddy', has an unexpected file extension. Was expecting 'idf'.\n[openstudio.model.YearDescription] <1> 'UseWeatherFile' is not yet a supported option for YearDescription\n[openstudio.model.YearDescription] <1> 'UseWeatherFile' is not yet a supported option for YearDescription\n[openstudio.EpwFile] <0> Successive data points (1980-Jan-31 to 1988-Feb-01, ending on line 753) are greater than 1 day apart in EPW file '/usr/local/bundle/bundler/gems/openstudio-standards-f448df66933d/openstudio-standards/data/weather/CAN_PQ_Ste.Agathe.des.Monts.717200_CWEC.epw'. Data will be treated as typical (TMY)\n[openstudio.setFileExtension] <0> Path p, '/usr/local/bundle/bundler/gems/openstudio-standards-f448df66933d/openstudio-standards/data/weather/CAN_PQ_Ste.Agathe.des.Monts.717200_CWEC.ddy', has an unexpected file extension. Was expecting 'idf'.\n[openstudio.model.YearDescription] <1> 'UseWeatherFile' is not yet a supported option for YearDescription\n[openstudio.model.YearDescription] <1> 'UseWeatherFile' is not yet a supported option for YearDescription\n[openstudio.setFileExtension] <0> Path p, '/usr/local/bundle/bundler/gems/openstudio-standards-f448df66933d/openstudio-standards/data/weather/CAN_PQ_Ste.Agathe.des.Monts.717200_CWEC.ddy', has an unexpected file extension. Was expecting 'idf'.\n[openstudio.model.YearDescription] <1> 'UseWeatherFile' is not yet a supported option for YearDescription\n[openstudio.model.YearDescription] <1> 'UseWeatherFile' is not yet a supported option for YearDescription\n[openstudio.EpwFile] <0> Successive data points (1980-Jan-31 to 1988-Feb-01, ending on line 753) are greater than 1 day apart in EPW file '/usr/local/bundle/bundler/gems/openstudio-standards-f448df66933d/openstudio-standards/data/weather/CAN_PQ_Ste.Agathe.des.Monts.717200_CWEC.epw'. Data will be treated as typical (TMY)\n[openstudio.setFileExtension] <0> Path p, '/usr/local/bundle/bundler/gems/openstudio-standards-f448df66933d/openstudio-standards/data/weather/CAN_PQ_Ste.Agathe.des.Monts.717200_CWEC.ddy', has an unexpected file extension. Was expecting 'idf'.\n[openstudio.model.YearDescription] <1> 'UseWeatherFile' is not yet a supported option for YearDescription\n[openstudio.model.YearDescription] <1> 'UseWeatherFile' is not yet a supported option for YearDescription\n[openstudio.setFileExtension] <0> Path p, '/usr/local/bundle/bundler/gems/openstudio-standards-f448df66933d/openstudio-standards/data/weather/CAN_PQ_Ste.Agathe.des.Monts.717200_CWEC.ddy', has an unexpected file extension. Was expecting 'idf'.\n[openstudio.model.YearDescription] <1> 'UseWeatherFile' is not yet a supported option for YearDescription\n[openstudio.model.YearDescription] <1> 'UseWeatherFile' is not yet a supported option for YearDescription\n[utilities.idf.WorkspaceObject] <0> Object of type 'Schedule:Constant' and named 'Always Off Discrete', points to an object named OnOff 1 from field 1, but that object cannot be located.\n[utilities.idf.WorkspaceObject] <0> Object of type 'Schedule:Constant' and named 'Always On Continuous', points to an object named Fractional 1 from field 1, but that object cannot be located.\n[utilities.idf.WorkspaceObject] <0> Object of type 'Schedule:Constant' and named 'Always Off Discrete', points to an object named OnOff 1 from field 1, but that object cannot be located.\n[utilities.idf.WorkspaceObject] <0> Object of type 'Schedule:Constant' and named 'Always On Continuous', points to an object named Fractional 1 from field 1, but that object cannot be located.\n[openstudio.standards.Fan] <0> For Fan Constant Volume 1, there is no greater nominal HP.  Use the efficiency of the largest motor category.\n[openstudio.standards.Fan] <0> For Fan Constant Volume 10, there is no greater nominal HP.  Use the efficiency of the largest motor category.\n[openstudio.standards.Fan] <0> For Fan Constant Volume 2, there is no greater nominal HP.  Use the efficiency of the largest motor category.\n[openstudio.standards.Fan] <0> For Fan Constant Volume 3, there is no greater nominal HP.  Use the efficiency of the largest motor category.\n[openstudio.standards.Fan] <0> For Fan Constant Volume 4, there is no greater nominal HP.  Use the efficiency of the largest motor category.\n[openstudio.standards.Fan] <0> For Fan Constant Volume 5, there is no greater nominal HP.  Use the efficiency of the largest motor category.\n[openstudio.standards.Fan] <0> For Fan Constant Volume 6, there is no greater nominal HP.  Use the efficiency of the largest motor category.\n[openstudio.standards.Fan] <0> For Fan Constant Volume 7, there is no greater nominal HP.  Use the efficiency of the largest motor category.\n[openstudio.standards.Fan] <0> For Fan Constant Volume 8, there is no greater nominal HP.  Use the efficiency of the largest motor category.\n[openstudio.standards.Fan] <0> For Fan Constant Volume 9, there is no greater nominal HP.  Use the efficiency of the largest motor category.\n[openstudio.EpwFile] <0> Successive data points (1980-Jan-31 to 1988-Feb-01, ending on line 753) are greater than 1 day apart in EPW file '/usr/local/bundle/bundler/gems/openstudio-standards-f448df66933d/openstudio-standards/data/weather/CAN_PQ_Ste.Agathe.des.Monts.717200_CWEC.epw'. Data will be treated as typical (TMY)\n[openstudio.setFileExtension] <0> Path p, '/usr/local/bundle/bundler/gems/openstudio-standards-f448df66933d/openstudio-standards/data/weather/CAN_PQ_Ste.Agathe.des.Monts.717200_CWEC.ddy', has an unexpected file extension. Was expecting 'idf'.\n[openstudio.model.YearDescription] <1> 'UseWeatherFile' is not yet a supported option for YearDescription\n[openstudio.model.YearDescription] <1> 'UseWeatherFile' is not yet a supported option for YearDescription\n[openstudio.setFileExtension] <0> Path p, '/usr/local/bundle/bundler/gems/openstudio-standards-f448df66933d/openstudio-standards/data/weather/CAN_PQ_Ste.Agathe.des.Monts.717200_CWEC.ddy', has an unexpected file extension. Was expecting 'idf'.\n[openstudio.model.YearDescription] <1> 'UseWeatherFile' is not yet a supported option for YearDescription\n[openstudio.model.YearDescription] <1> 'UseWeatherFile' is not yet a supported option for YearDescription\n[openstudio.EpwFile] <0> Successive data points (1980-Jan-31 to 1988-Feb-01, ending on line 753) are greater than 1 day apart in EPW file '/usr/local/bundle/bundler/gems/openstudio-standards-f448df66933d/openstudio-standards/data/weather/CAN_PQ_Ste.Agathe.des.Monts.717200_CWEC.epw'. Data will be treated as typical (TMY)\n[openstudio.setFileExtension] <0> Path p, '/usr/local/bundle/bundler/gems/openstudio-standards-f448df66933d/openstudio-standards/data/weather/CAN_PQ_Ste.Agathe.des.Monts.717200_CWEC.ddy', has an unexpected file extension. Was expecting 'idf'.\n[openstudio.model.YearDescription] <1> 'UseWeatherFile' is not yet a supported option for YearDescription\n[openstudio.model.YearDescription] <1> 'UseWeatherFile' is not yet a supported option for YearDescription\n[openstudio.setFileExtension] <0> Path p, '/usr/local/bundle/bundler/gems/openstudio-standards-f448df66933d/openstudio-standards/data/weather/CAN_PQ_Ste.Agathe.des.Monts.717200_CWEC.ddy', has an unexpected file extension. Was expecting 'idf'.\n[openstudio.model.YearDescription] <1> 'UseWeatherFile' is not yet a supported option for YearDescription\n[openstudio.model.YearDescription] <1> 'UseWeatherFile' is not yet a supported option for YearDescription\n[openstudio.EpwFile] <0> Successive data points (1980-Jan-31 to 1988-Feb-01, ending on line 753) are greater than 1 day apart in EPW file '/usr/local/bundle/bundler/gems/openstudio-standards-f448df66933d/openstudio-standards/data/weather/CAN_PQ_Ste.Agathe.des.Monts.717200_CWEC.epw'. Data will be treated as typical (TMY)\n[openstudio.setFileExtension] <0> Path p, '/usr/local/bundle/bundler/gems/openstudio-standards-f448df66933d/openstudio-standards/data/weather/CAN_PQ_Ste.Agathe.des.Monts.717200_CWEC.ddy', has an unexpected file extension. Was expecting 'idf'.\n[openstudio.model.YearDescription] <1> 'UseWeatherFile' is not yet a supported option for YearDescription\n[openstudio.model.YearDescription] <1> 'UseWeatherFile' is not yet a supported option for YearDescription\n[openstudio.setFileExtension] <0> Path p, '/usr/local/bundle/bundler/gems/openstudio-standards-f448df66933d/openstudio-standards/data/weather/CAN_PQ_Ste.Agathe.des.Monts.717200_CWEC.ddy', has an unexpected file extension. Was expecting 'idf'.\n[openstudio.model.YearDescription] <1> 'UseWeatherFile' is not yet a supported option for YearDescription\n[openstudio.model.YearDescription] <1> 'UseWeatherFile' is not yet a supported option for YearDescription\n[openstudio.EpwFile] <0> Successive data points (1980-Jan-31 to 1988-Feb-01, ending on line 753) are greater than 1 day apart in EPW file '/usr/local/bundle/bundler/gems/openstudio-standards-f448df66933d/openstudio-standards/data/weather/CAN_PQ_Ste.Agathe.des.Monts.717200_CWEC.epw'. Data will be treated as typical (TMY)\n[openstudio.setFileExtension] <0> Path p, '/usr/local/bundle/bundler/gems/openstudio-standards-f448df66933d/openstudio-standards/data/weather/CAN_PQ_Ste.Agathe.des.Monts.717200_CWEC.ddy', has an unexpected file extension. Was expecting 'idf'.\n[openstudio.model.YearDescription] <1> 'UseWeatherFile' is not yet a supported option for YearDescription\n[openstudio.model.YearDescription] <1> 'UseWeatherFile' is not yet a supported option for YearDescription\n[openstudio.setFileExtension] <0> Path p, '/usr/local/bundle/bundler/gems/openstudio-standards-f448df66933d/openstudio-standards/data/weather/CAN_PQ_Ste.Agathe.des.Monts.717200_CWEC.ddy', has an unexpected file extension. Was expecting 'idf'.\n[openstudio.model.YearDescription] <1> 'UseWeatherFile' is not yet a supported option for YearDescription\n[openstudio.model.YearDescription] <1> 'UseWeatherFile' is not yet a supported option for YearDescription\n[openstudio.EpwFile] <0> Successive data points (1980-Jan-31 to 1988-Feb-01, ending on line 753) are greater than 1 day apart in EPW file '/usr/local/bundle/bundler/gems/openstudio-standards-f448df66933d/openstudio-standards/data/weather/CAN_PQ_Ste.Agathe.des.Monts.717200_CWEC.epw'. Data will be treated as typical (TMY)\n[openstudio.setFileExtension] <0> Path p, '/usr/local/bundle/bundler/gems/openstudio-standards-f448df66933d/openstudio-standards/data/weather/CAN_PQ_Ste.Agathe.des.Monts.717200_CWEC.ddy', has an unexpected file extension. Was expecting 'idf'.\n[openstudio.model.YearDescription] <1> 'UseWeatherFile' is not yet a supported option for YearDescription\n[openstudio.model.YearDescription] <1> 'UseWeatherFile' is not yet a supported option for YearDescription\n[openstudio.setFileExtension] <0> Path p, '/usr/local/bundle/bundler/gems/openstudio-standards-f448df66933d/openstudio-standards/data/weather/CAN_PQ_Ste.Agathe.des.Monts.717200_CWEC.ddy', has an unexpected file extension. Was expecting 'idf'.\n[openstudio.model.YearDescription] <1> 'UseWeatherFile' is not yet a supported option for YearDescription\n[openstudio.model.YearDescription] <1> 'UseWeatherFile' is not yet a supported option for YearDescription\n[openstudio.EpwFile] <0> Successive data points (1980-Jan-31 to 1988-Feb-01, ending on line 753) are greater than 1 day apart in EPW file '/usr/local/bundle/bundler/gems/openstudio-standards-f448df66933d/openstudio-standards/data/weather/CAN_PQ_Ste.Agathe.des.Monts.717200_CWEC.epw'. Data will be treated as typical (TMY)\n[openstudio.setFileExtension] <0> Path p, '/usr/local/bundle/bundler/gems/openstudio-standards-f448df66933d/openstudio-standards/data/weather/CAN_PQ_Ste.Agathe.des.Monts.717200_CWEC.ddy', has an unexpected file extension. Was expecting 'idf'.\n[openstudio.model.YearDescription] <1> 'UseWeatherFile' is not yet a supported option for YearDescription\n[openstudio.model.YearDescription] <1> 'UseWeatherFile' is not yet a supported option for YearDescription\n[openstudio.setFileExtension] <0> Path p, '/usr/local/bundle/bundler/gems/openstudio-standards-f448df66933d/openstudio-standards/data/weather/CAN_PQ_Ste.Agathe.des.Monts.717200_CWEC.ddy', has an unexpected file extension. Was expecting 'idf'.\n[openstudio.model.YearDescription] <1> 'UseWeatherFile' is not yet a supported option for YearDescription\n[openstudio.model.YearDescription] <1> 'UseWeatherFile' is not yet a supported option for YearDescription\n[openstudio.EpwFile] <0> Successive data points (1980-Jan-31 to 1988-Feb-01, ending on line 753) are greater than 1 day apart in EPW file '/usr/local/bundle/bundler/gems/openstudio-standards-f448df66933d/openstudio-standards/data/weather/CAN_PQ_Ste.Agathe.des.Monts.717200_CWEC.epw'. Data will be treated as typical (TMY)\n[openstudio.setFileExtension] <0> Path p, '/usr/local/bundle/bundler/gems/openstudio-standards-f448df66933d/openstudio-standards/data/weather/CAN_PQ_Ste.Agathe.des.Monts.717200_CWEC.ddy', has an unexpected file extension. Was expecting 'idf'.\n[openstudio.model.YearDescription] <1> 'UseWeatherFile' is not yet a supported option for YearDescription\n[openstudio.model.YearDescription] <1> 'UseWeatherFile' is not yet a supported option for YearDescription\n[openstudio.setFileExtension] <0> Path p, '/usr/local/bundle/bundler/gems/openstudio-standards-f448df66933d/openstudio-standards/data/weather/CAN_PQ_Ste.Agathe.des.Monts.717200_CWEC.ddy', has an unexpected file extension. Was expecting 'idf'.\n[openstudio.model.YearDescription] <1> 'UseWeatherFile' is not yet a supported option for YearDescription\n[openstudio.model.YearDescription] <1> 'UseWeatherFile' is not yet a supported option for YearDescription\n[openstudio.EpwFile] <0> Successive data points (1980-Jan-31 to 1988-Feb-01, ending on line 753) are greater than 1 day apart in EPW file '/usr/local/bundle/bundler/gems/openstudio-standards-f448df66933d/openstudio-standards/data/weather/CAN_PQ_Ste.Agathe.des.Monts.717200_CWEC.epw'. Data will be treated as typical (TMY)\n[openstudio.setFileExtension] <0> Path p, '/usr/local/bundle/bundler/gems/openstudio-standards-f448df66933d/openstudio-standards/data/weather/CAN_PQ_Ste.Agathe.des.Monts.717200_CWEC.ddy', has an unexpected file extension. Was expecting 'idf'.\n[openstudio.model.YearDescription] <1> 'UseWeatherFile' is not yet a supported option for YearDescription\n[openstudio.model.YearDescription] <1> 'UseWeatherFile' is not yet a supported option for YearDescription\n[openstudio.setFileExtension] <0> Path p, '/usr/local/bundle/bundler/gems/openstudio-standards-f448df66933d/openstudio-standards/data/weather/CAN_PQ_Ste.Agathe.des.Monts.717200_CWEC.ddy', has an unexpected file extension. Was expecting 'idf'.\n[openstudio.model.YearDescription] <1> 'UseWeatherFile' is not yet a supported option for YearDescription\n[openstudio.model.YearDescription] <1> 'UseWeatherFile' is not yet a supported option for YearDescription\n[openstudio.EpwFile] <0> Successive data points (1980-Jan-31 to 1988-Feb-01, ending on line 753) are greater than 1 day apart in EPW file '/usr/local/bundle/bundler/gems/openstudio-standards-f448df66933d/openstudio-standards/data/weather/CAN_PQ_Ste.Agathe.des.Monts.717200_CWEC.epw'. Data will be treated as typical (TMY)\n[openstudio.setFileExtension] <0> Path p, '/usr/local/bundle/bundler/gems/openstudio-standards-f448df66933d/openstudio-standards/data/weather/CAN_PQ_Ste.Agathe.des.Monts.717200_CWEC.ddy', has an unexpected file extension. Was expecting 'idf'.\n[openstudio.model.YearDescription] <1> 'UseWeatherFile' is not yet a supported option for YearDescription\n[openstudio.model.YearDescription] <1> 'UseWeatherFile' is not yet a supported option for YearDescription\n[openstudio.setFileExtension] <0> Path p, '/usr/local/bundle/bundler/gems/openstudio-standards-f448df66933d/openstudio-standards/data/weather/CAN_PQ_Ste.Agathe.des.Monts.717200_CWEC.ddy', has an unexpected file extension. Was expecting 'idf'.\n[openstudio.model.YearDescription] <1> 'UseWeatherFile' is not yet a supported option for YearDescription\n[openstudio.model.YearDescription] <1> 'UseWeatherFile' is not yet a supported option for YearDescription\n[openstudio.EpwFile] <0> Successive data points (1980-Jan-31 to 1988-Feb-01, ending on line 753) are greater than 1 day apart in EPW file '/usr/local/bundle/bundler/gems/openstudio-standards-f448df66933d/openstudio-standards/data/weather/CAN_PQ_Ste.Agathe.des.Monts.717200_CWEC.epw'. Data will be treated as typical (TMY)\n[openstudio.setFileExtension] <0> Path p, '/usr/local/bundle/bundler/gems/openstudio-standards-f448df66933d/openstudio-standards/data/weather/CAN_PQ_Ste.Agathe.des.Monts.717200_CWEC.ddy', has an unexpected file extension. Was expecting 'idf'.\n[openstudio.model.YearDescription] <1> 'UseWeatherFile' is not yet a supported option for YearDescription\n[openstudio.model.YearDescription] <1> 'UseWeatherFile' is not yet a supported option for YearDescription\n[openstudio.setFileExtension] <0> Path p, '/usr/local/bundle/bundler/gems/openstudio-standards-f448df66933d/openstudio-standards/data/weather/CAN_PQ_Ste.Agathe.des.Monts.717200_CWEC.ddy', has an unexpected file extension. Was expecting 'idf'.\n[openstudio.model.YearDescription] <1> 'UseWeatherFile' is not yet a supported option for YearDescription\n[openstudio.model.YearDescription] <1> 'UseWeatherFile' is not yet a supported option for YearDescription\n[openstudio.standards.Fan] <0> For Fan Constant Volume 1, there is no greater nominal HP.  Use the efficiency of the largest motor category.\n[openstudio.standards.Fan] <0> For Fan Constant Volume 10, there is no greater nominal HP.  Use the efficiency of the largest motor category.\n[openstudio.standards.Fan] <0> For Fan Constant Volume 2, there is no greater nominal HP.  Use the efficiency of the largest motor category.\n[openstudio.standards.Fan] <0> For Fan Constant Volume 3, there is no greater nominal HP.  Use the efficiency of the largest motor category.\n[openstudio.standards.Fan] <0> For Fan Constant Volume 4, there is no greater nominal HP.  Use the efficiency of the largest motor category.\n[openstudio.standards.Fan] <0> For Fan Constant Volume 5, there is no greater nominal HP.  Use the efficiency of the largest motor category.\n[openstudio.standards.Fan] <0> For Fan Constant Volume 6, there is no greater nominal HP.  Use the efficiency of the largest motor category.\n[openstudio.standards.Fan] <0> For Fan Constant Volume 7, there is no greater nominal HP.  Use the efficiency of the largest motor category.\n[openstudio.standards.Fan] <0> For Fan Constant Volume 8, there is no greater nominal HP.  Use the efficiency of the largest motor category.\n[openstudio.standards.Fan] <0> For Fan Constant Volume 9, there is no greater nominal HP.  Use the efficiency of the largest motor category.\n",
            "step_errors" : [],
            "step_files" : [],
            "step_info" : [
               "Started adding geometry",
               "Finished adding geometry",
               "Started adding weather file for climate zone: NECB HDD Method.",
               "Template =",
               "Setting LGstore1 to Space Function.Retail - sales",
               "Setting LGstore2 to Space Function.Retail - sales",
               "Setting SMstore1 to Space Function.Retail - sales",
               "Setting SMstore2 to Space Function.Retail - sales",
               "Setting SMstore3 to Space Function.Retail - sales",
               "Setting SMstore4 to Space Function.Retail - sales",
               "Setting SMstore5 to Space Function.Retail - sales",
               "Setting SMstore6 to Space Function.Retail - sales",
               "Setting SMstore7 to Space Function.Retail - sales",
               "Setting SMstore8 to Space Function.Retail - sales",
               "Started applying space types (loads)",
               "Space Function Retail - sales had no people, one has been created.",
               "Space Function Retail - sales set occupancy to 3.1 people/1000 ft^2.",
               "Space Function Retail - sales had no lights, one has been created.",
               "Space Function Retail - sales set LPD to 1.681531029 W/ft^2.",
               "Space Function Retail - sales had no electric equipment, one has been created.",
               "Space Function Retail - sales set electric EPD to 0.232255667 W/ft^2.",
               "Space Function Retail - sales had no ventilation specification, one has been created.",
               "Space Function Retail - sales set ventilation per area to 0.233 cfm/ft^2.",
               "Space Function Retail - sales had no infiltration objects, one has been created.",
               "Space Function Retail - sales set infiltration to 0.0 per ft^2 exterior surface area.",
               "Space Function Retail - sales set occupancy schedule to NECB-C-Occupancy.",
               "Space Function Retail - sales set occupant activity schedule to NECB-Activity.",
               "Space Function Retail - sales set lighting schedule to NECB-C-Lighting.",
               "Space Function Retail - sales set electric equipment schedule to NECB-C-Electric-Equipment.",
               "Space Function Retail - sales set infiltration schedule to Always On.",
               "Space Function Retail - sales set heating setpoint schedule to NECB-C-Thermostat Setpoint-Heating.",
               "Space Function Retail - sales set cooling setpoint schedule to NECB-C-Thermostat Setpoint-Cooling.",
               "Finished applying space types (loads)",
               "Started applying constructions",
               "Adding construction set: NECB 2011-NECB HDD Method-StripMall--is_residentialNo",
               "Adding construction Typical Insulated Exterior Mass Floor R-15.63.",
               "Adding construction Typical Insulated Exterior Mass Wall R-12.5.",
               "Adding construction Typical Insulated Metal Building Roof R-20.41.",
               "Adding construction Typical Interior Floor.",
               "Adding construction Typical Interior Wall.",
               "Adding construction Typical Interior Ceiling.",
               "Adding construction Typical Insulated Carpeted 6in Slab Floor.",
               "Adding construction U 0.55 SHGC 0.31 Dbl Ref-D Tint 6mm/6mm Air.",
               "Adding construction Typical Insulated Metal Door R-1.43.",
               "Adding construction U 0.35 SHGC 0.35 Dbl LoE (e2-.1) Tint 6mm/13mm Air.",
               "Adding construction Typical Overhead Door R-2.0.",
               "Adding construction U 0.48 SHGC 0.40 Dbl Ref-D Clr 6mm/13mm.",
               "Adding construction Typical Interior Window.",
               "Adding construction Typical Interior Door.",
               "Adding construction Typical Interior Partition.",
               "Finished applying constructions",
               "WWR NonRes = 0%; window = 0 ft2, wall = 0 ft2.",
               "WWR Res = 0%; window = 0 ft2, wall = 0 ft2.",
               "WWR Semiheated = 0%; window = 0 ft2, wall = 0 ft2.",
               "The skylight to roof ratios (SRRs) are: NonRes: 0%, Res: 0%.",
               "Started creating thermal zones",
               "Finished creating thermal zones",
               "Running simulation /mnt/openstudio/analysis_4fef0e0f-5396-4c55-a6e1-2cd6803db3ab/data_point_4ac5fa9b-0eda-42f1-8c3c-bb1bd6acb324/run/000_create_prototype_building/output/RetailStripmall-NECB 2011-NECB HDD Method-CAN_PQ_Ste.Agathe.des.Monts.717200_CWEC.epw/SR0.",
               "Finished run.",
               "Started Adding HVAC",
               "Finished adding HVAC",
               "Started Adding Service Water Heating",
               "Adding service water loop.",
               "Adding water heater.",
               "Template =",
               "Finished adding Service Water Heating",
               "Set sizing factors to 1.3 for heating and 1.3 for cooling.",
               "Running simulation /mnt/openstudio/analysis_4fef0e0f-5396-4c55-a6e1-2cd6803db3ab/data_point_4ac5fa9b-0eda-42f1-8c3c-bb1bd6acb324/run/000_create_prototype_building/output/RetailStripmall-NECB 2011-NECB HDD Method-CAN_PQ_Ste.Agathe.des.Monts.717200_CWEC.epw/SR1.",
               "Finished run.",
               "Started applying multizone vav OA sizing.",
               "Finished applying multizone vav OA sizing.",
               "Started applying prototype HVAC assumptions.",
               "For Fan Constant Volume 1: allowed_hp = 1.45HP; motor eff = 61.5%; total fan eff = 40% based on 2119 cfm.",
               "For Fan Constant Volume 10: allowed_hp = 1.47HP; motor eff = 61.5%; total fan eff = 40% based on 2151 cfm.",
               "For Fan Constant Volume 2: allowed_hp = 1.01HP; motor eff = 61.5%; total fan eff = 40% based on 1093 cfm.",
               "For Fan Constant Volume 3: allowed_hp = 1.01HP; motor eff = 61.5%; total fan eff = 40% based on 1115 cfm.",
               "For Fan Constant Volume 4: allowed_hp = 1.01HP; motor eff = 61.5%; total fan eff = 40% based on 1094 cfm.",
               "For Fan Constant Volume 5: allowed_hp = 1.01HP; motor eff = 61.5%; total fan eff = 40% based on 1093 cfm.",
               "For Fan Constant Volume 6: allowed_hp = 1.01HP; motor eff = 61.5%; total fan eff = 40% based on 1092 cfm.",
               "For Fan Constant Volume 7: allowed_hp = 1.01HP; motor eff = 61.5%; total fan eff = 40% based on 1112 cfm.",
               "For Fan Constant Volume 8: allowed_hp = 1.01HP; motor eff = 61.5%; total fan eff = 40% based on 1112 cfm.",
               "For Fan Constant Volume 9: allowed_hp = 1.01HP; motor eff = 61.5%; total fan eff = 40% based on 1122 cfm.",
               "Sp-SMstore5 Sys-3 Flr-1 Sch-C HPlcmt-north ZN NECB System 3 PSZ does not require an economizer because the total cooling capacity of 33476 Btu/hr is less than the minimum capacity of 68243 Btu/hr.",
               "Sp-SMstore1 Sys-3 Flr-1 Sch-C HPlcmt-north ZN NECB System 3 PSZ does not require an economizer because the total cooling capacity of 33548 Btu/hr is less than the minimum capacity of 68243 Btu/hr.",
               "Sp-SMstore4 Sys-3 Flr-1 Sch-C HPlcmt-north ZN NECB System 3 PSZ does not require an economizer because the total cooling capacity of 33474 Btu/hr is less than the minimum capacity of 68243 Btu/hr.",
               "Sp-LGstore2 Sys-3 Flr-1 Sch-C HPlcmt-north ZN NECB System 3 PSZ does not require an economizer because the total cooling capacity of 64380 Btu/hr is less than the minimum capacity of 68243 Btu/hr.",
               "Sp-SMstore6 Sys-3 Flr-1 Sch-C HPlcmt-north ZN NECB System 3 PSZ does not require an economizer because the total cooling capacity of 33036 Btu/hr is less than the minimum capacity of 68243 Btu/hr.",
               "Sp-SMstore2 Sys-3 Flr-1 Sch-C HPlcmt-north ZN NECB System 3 PSZ does not require an economizer because the total cooling capacity of 33039 Btu/hr is less than the minimum capacity of 68243 Btu/hr.",
               "Sp-SMstore3 Sys-3 Flr-1 Sch-C HPlcmt-north ZN NECB System 3 PSZ does not require an economizer because the total cooling capacity of 33031 Btu/hr is less than the minimum capacity of 68243 Btu/hr.",
               "Sp-SMstore7 Sys-3 Flr-1 Sch-C HPlcmt-north ZN NECB System 3 PSZ does not require an economizer because the total cooling capacity of 33069 Btu/hr is less than the minimum capacity of 68243 Btu/hr.",
               "Sp-SMstore8 Sys-3 Flr-1 Sch-C HPlcmt-east ZN NECB System 3 PSZ does not require an economizer because the total cooling capacity of 33917 Btu/hr is less than the minimum capacity of 68243 Btu/hr.",
               "Sp-LGstore1 Sys-3 Flr-1 Sch-C HPlcmt-west ZN NECB System 3 PSZ does not require an economizer because the total cooling capacity of 65337 Btu/hr is less than the minimum capacity of 68243 Btu/hr.",
               "Finished applying prototype HVAC assumptions.",
               "Started applying HVAC efficiency standards.",
               "For Sp-LGstore1 Sys-3 Flr-1 Sch-C HPlcmt-west ZN NECB System 3 PSZ, ERV not required based on 0% OA flow, design supply air flow of 2151cfm, and climate zone NECB HDD Method.",
               "For Sp-LGstore1 Sys-3 Flr-1 Sch-C HPlcmt-west ZN NECB System 3 PSZ, ERV not required based on exhaust heat content.",
               "For NECB 2011 NECB HDD Method:  Sp-LGstore1 Sys-3 Flr-1 Sch-C HPlcmt-west ZN NECB System 3 PSZ: DCV is not required for any system.",
               "For Sp-LGstore1 Sys-3 Flr-1 Sch-C HPlcmt-west ZN NECB System 3 PSZ: Annual occupied hours = 4168 hr/yr, assuming a 0.15 occupancy threshold.  This schedule will be used as the HVAC operation schedule.",
               "For Sp-LGstore1 Sys-3 Flr-1 Sch-C HPlcmt-west ZN NECB System 3 PSZ: Setting motorized OA damper schedule to Sp-LGstore1 Sys-3 Flr-1 Sch-C HPlcmt-west ZN NECB System 3 PSZ Occ Sch.",
               "For Sp-LGstore2 Sys-3 Flr-1 Sch-C HPlcmt-north ZN NECB System 3 PSZ, ERV not required based on 0% OA flow, design supply air flow of 2119cfm, and climate zone NECB HDD Method.",
               "For Sp-LGstore2 Sys-3 Flr-1 Sch-C HPlcmt-north ZN NECB System 3 PSZ, ERV not required based on exhaust heat content.",
               "For NECB 2011 NECB HDD Method:  Sp-LGstore2 Sys-3 Flr-1 Sch-C HPlcmt-north ZN NECB System 3 PSZ: DCV is not required for any system.",
               "For Sp-LGstore2 Sys-3 Flr-1 Sch-C HPlcmt-north ZN NECB System 3 PSZ: Annual occupied hours = 4168 hr/yr, assuming a 0.15 occupancy threshold.  This schedule will be used as the HVAC operation schedule.",
               "For Sp-LGstore2 Sys-3 Flr-1 Sch-C HPlcmt-north ZN NECB System 3 PSZ: Setting motorized OA damper schedule to Sp-LGstore2 Sys-3 Flr-1 Sch-C HPlcmt-north ZN NECB System 3 PSZ Occ Sch.",
               "For Sp-SMstore1 Sys-3 Flr-1 Sch-C HPlcmt-north ZN NECB System 3 PSZ, ERV not required based on 0% OA flow, design supply air flow of 1115cfm, and climate zone NECB HDD Method.",
               "For Sp-SMstore1 Sys-3 Flr-1 Sch-C HPlcmt-north ZN NECB System 3 PSZ, ERV not required based on exhaust heat content.",
               "For NECB 2011 NECB HDD Method:  Sp-SMstore1 Sys-3 Flr-1 Sch-C HPlcmt-north ZN NECB System 3 PSZ: DCV is not required for any system.",
               "For Sp-SMstore1 Sys-3 Flr-1 Sch-C HPlcmt-north ZN NECB System 3 PSZ: Annual occupied hours = 4168 hr/yr, assuming a 0.15 occupancy threshold.  This schedule will be used as the HVAC operation schedule.",
               "For Sp-SMstore1 Sys-3 Flr-1 Sch-C HPlcmt-north ZN NECB System 3 PSZ: Setting motorized OA damper schedule to Sp-SMstore1 Sys-3 Flr-1 Sch-C HPlcmt-north ZN NECB System 3 PSZ Occ Sch.",
               "For Sp-SMstore2 Sys-3 Flr-1 Sch-C HPlcmt-north ZN NECB System 3 PSZ, ERV not required based on 0% OA flow, design supply air flow of 1093cfm, and climate zone NECB HDD Method.",
[...]
8iqZ6sWL9ECSMi9AZOQOwMmIfcFTEK2VTAJ2VbBJGRbBZOQbRVMQrZVMIkSW4XTkJdbnIZsq3Aasq3Caci2Cqch2yqchmyrcBqyrcJpyLYKpyHbKlz928I8L7FVOI0tFPISW4XTWK+UV76KpJ6tWryrBCAh9wZMQu4MmITcFzAJ2VbBJGRbBZOQbRVMQrZVMAnZVsEkSmwVTkNebnEasq3Caci2Cqch2yqchmyrcBqyrcJpyLYKpyHbKpyGbKtw9W8L87zEVuE0tlDIS2wVTmO9Ul6543s9W7XYEh4gIfcGTELuDJiE3BcwCdlWwSRkWwWTkG0VTEK2VTAJ2VbBJEpsFU5DXm5xGrKtwmnItgqnIdsqnIZsq3Aasq3Caci2Cqch2yqchmyrcPVvC/O8xFbhNLZQyEtsFU5jvVJeubFuPVu12HkXICH3BkxC7gyYhNwXMAnZVsEkZFsFk5BtFUxCtlUwCdlWwSRKbBVOQ15ucRqyrcJpyLYKpyHbKpyGbKtwGrKtwmnItgqnIdsqnIZsq3D1bwvzvMRW4TS2UMhLbBVOY71SXrl/YT1btdjgECAh9wZMQu4MmITcFzAJ2VbBJGRbBZOQbRVMQrZVMAnZVsEkSjdbQ2nIyy1Oo2wjK5RG2R5XKI2y7a9QGmV7vqE0yraDQ2mU7RSH0ijbRA6lUba/HKr+bWGel+5Kh9LYQiEvsVU4jepS/qXODq/LrZvVqYr07WoD2WLf2EZ6M24WO8BWbhW72v851dmLeBb5aaPfaSrX7TdVz/yt26+33exdjnG/rbXvD7xMj+Nk/vwuSBf7J9/ff41NpvME7xNfJx9nZjvj2hcajvljjrfaS2eJXmCYHZmX7b7hDb4ZZphhhhlmmGGGGWaYYYYZZphhhhlmmGGGGWaYYYYZZphhhhlmmGGGGWaYYYYZZphhhhlmmGGGGWaYYYYZZphhhhlmmGGGGf5Lheft+EYnSeDrt555sNZtd/7P51XNo7Hp40djz3US6HT5eK3TXD1APA3jrB0Gka58RDb90XO61U/Wpu3i1fPTOPSyII5yKCfN9LR1qUdxop16Tz6/0WMd+Y9vaHGucdBpqp55crljHmQ2fzihHmUGrCL1Km37Yqyzsygz7ZNLjGbRsCBt7Ko/K1KsCPX91Z8rn+U2RzBSjWwSpO206JV6QuZ4cFE7b78zbzhp/BfYNtsK3zw6nrMv815M4zQwCV/mp+vczeowaX5AlcS3dkgrrCDytZkPLbdpefXquFr3wlGgQzPeGss2XcyTcRLPptpXP/+s/rY8f9e+mHjp8vl3M8F2H0bnP4zmDdL2xuNXRqMd6micTdQz1VX/VM7zMHTUyeNPpGEw1I2Wu/u582W3cr59dydxohpX+a10flFXucxyqC51zbm/5yuOfQeZwwzjZb7PV1/aX/VcnZ6eLhpvvYxF1mW3X9ne6uq4TLT3dZ2Lv1leY/t5017Luzs1w9oMhuVIKTZyaF94aRqMI+0PzBYR6eeiJb+s15Srjp7O0klj3b7Iu/Rk0Z/rz6QwPKlzl23zyXVV0iyJv+p6OovPrqsUT71hkM3rSS0/vPZdFRIrqXWzrBaSx8vKOtPDevExx2o6P154VEu5ttlsplt91m/NoqrW+vy3Kk9hjr099eH3T+rf73//qM7ff/z027tf1Zv3v/42UK/PPp7VS/AqX7X1nWcsmspilcZJpqLZdT4OhqrY0iRVXjrMzUsQjWtkXLW9yfOgMntNdVl/cUl0NksiNfWSVL8KYy9reGbJ38278sG5y+JcrcastmgPZJe3UJX422Z3ern3n8V0LyZ7Y8fXI28WZmqaxPkapneaaueno6PB4OxsZ8MbzxCHOMQhDnGIQxziEIc4xCHOXxNHpbPr/J/AytfmpPK9uSFKtE8a0pCGNKQhDWlIQxrSkIY0pCmnuS3+a9b/0FyGM00c4hCHOMQhDnGIQxziEIc4xFkH5/69ga55b+D5THpvYM8tfmF7/nx///iYpCQlKUlJSlKSkpSkJCUpSUlKUpI+DdJuQeplEmmnIO31ut2jA5KSlKQkJSlJSUpSkpKUpCQlKUlJ+jRIe4b0VRIIpN3jgtR1Dw97PZKSlKQkJSlJSUpSkpKUpCQlKUlJ+jRI9w3pp8lMIj0qSI/zo/+CpCQlKUlJSlKSkpSkJCUpSUlKUpI+DdK+If2X9iXSw4L05cvB4PCQpCQlKUlJSlKSkpSkJCUpSUlKUpI+DdKD4puJmZZIDwrSweDggKQkJSlJSUpSkpKUpCQlKUlJSlKSPhXSQ0P6NpZ2Fuz2C9Kjo2633ycpSUlKUpKSlKQkJSlJSUpSkpKUpFsjXaH4iXfbqEx2186CLNTnE2+q25m+yxo7r+NZklZjzL+/8mVwraM0iKNQp0WGihR7e+q57ytPFZnUbZBNVBpfa+X3Kq5Mb8ZtbzrVkd9wjLazW3HB6mh7WZY0nDunqQ46lhfN84u69S9Ks3moF3gtLxpO4iS/3gn1yIJ2mWMUR1nrVgfjSWZyXMahXz/Hom/Op63zt2kWJ3pfnc/TVk+9CpOWq86Hk9ZAvf4QDq+zVhQneRf88U69Oxu8MB/L9LXqqQ/nf6j3w6H57M5uWac+20uHSTDN/iF+5tmeH9z8OCxeIyfLc6nAP3WGZsQP8kbygkgnF/2+o4qWO3X8IJ2G3vwkiMI81LoM4+HXXxyZL0+6uAWVzaf59abx9q68G29xtvRKc9x4iRmc6lT5wfU01O1I357fjBvOT98zNtV+p1P8UTnZTFrfy7w87+c/ndC71KFz4vh65M3CTE2TeBSE2mkuIhd3zonb7jSdGy+c6eXfh2ZNyq/Jl5nB4OzM+daslacLytMD5dkH5emD8hyA8hyC8hyB8hyD8rgdVCLUiHZRQ9pFjWkXNahd1Kh2UcPaRY1rFzWwXdTI7qJGdhe2VqNGdhc1srtWI1uls+vrRy+prlXREu1bpBHbyC6N2EJ2acT2sUsjznu7NOKst0sjznm7NOKMt0sjzne7NHIhs8wDGsdyGbPMAxrJchGzzAMay3IJs8wDGs1yAbPMAxrPcvmyzINal0HjWa5dlnnqj+fbIMrsy9alOVU/j9g8lnnE5rHMIzaPZR5xulvmEae7ZR5xulvmEae7ZR5xulvmkeuXbSLUiJYrmG0i1JiWa5htItSolquYbSLUuJbrmG0i1MiWK5ltIthajRrZcjGzTVR/ZN//alH5VmGpzHUe/UNv8dphgER38xK9zUvsb16iv3mJg81LHG5e4mjzEsebl3hU2TelsYX5XfLFLE5D/mYLpyF/6YXTkL/pxWnIXwLjNOTvh3Ea8lfHOA35W2Vc/dvCPO9uo45voZB3t1DJu+uV8sqXN9azVYu3OwIk5N6AScidAZOQ+wImIdsqmIRsq2ASsq2CSci2CiYh2yqYRMkv1zgN+ac/nIZsq3Aasq3Caci2Cqch2yqchmyrcBqyrcJpyLYKpyHbKlz928I8L/mJH6exhUJeYqtwGuuV8sp3ZNWzVYuXaAEk5N6AScidAZOQ+wImIdsqmIRsq2ASsq2CSci2CiYh2yqYRImtwmnIyy1OQ7ZVOA3ZVuE0ZFuF05BtFU5DtlU4DdlW4TRkW4XTkG0Vrv5tYZ6X2CqcxhYKeYmtwmmsV8orX0VSz1Yt3lUCkJB7AyYhdwZMQu4LmIRsq2ASsq2CSci2CiYh2yqYhGyrYBIltgqnIS+3OA3ZVuE0ZFuF05BtFU5DtlU4DdlW4TRkW4XTkG0VTkO2Vbj6t4V5XmKrcBpbKOQltgqnsV4pr9zxvZ6tWmwJD5CQewMmIXcGTELuC5iEbKtgErKtgknItgomIdsqmIRsq2ASJbYKpyEvtzgN2VbhNGRbhdOQbRVOQ7ZVOA3ZVuE0ZFuF05BtFU5DtlW4+reFeV5iq3AaWyjkJbYKp7FeKa/cWLeerVrsvAuQkHsDJiF3BkxC7guYhGyrYBKyrYJJyLYKJiHbKpiEbKtgEiW2CqchL7c4DdlW4TRkW4XTkG0VTkO2VTgN2VbhNGRbhdOQbRVOQ7ZVuPq3hXleYqtwGlso5CW2CqexXimv3L+wnq1abHAIkJB7AyYhdwZMQu4LmIRsq2ASsq2CSci2CiYh2yqYhGyrYBKlm62hNOTlFqdRtpEVSqNsjyuURtn2VyiNsj3fUBpl28GhNMp2ikNplG0ih9Io218OVf+2MM9Ld6VDaWyhkJfYKpxGdSn/UmeH1+XWzepURfp2tYFssW9sI70ZN4sdYCu3il3t/5zq7EU8i/y00e80lev2m6pn/tbt19tu9i7HuN/W2vcHXqbHcTJ/fheki/2T7++/xibTeYL3ia+TjzOznXHtCw3H/DHHW+2ls0QvMMyOzMt23/AG3wwzzDDDDDPMMMMMM8wwwwwzzDDDDDPMMMMMM8wwwwwzzDDDDDPMMMMMM8wwwwwzzDDDDDPMMMMMM8wwwwwzzDDDDDPMMMMM/6XC83Z8o5Mk8PVbzzxY67Y7/+fzqubR2PTxo7HnOgl0uny81mmuHiCehnHWDoNIVz4im/7oOd3qJ2vTdvHq+WkcelkQRzmUk2Z62rrUozjRTr0nn9/osY78xze0ONc46DRVzzy53DEPMps/nFCPMgNWkXqVtn0x1tlZlJn2ySVGs2hYkDZ21Z8VKVaE+v7qz5XPcpsjGKlGNgnSdlr0Sj0hczy4qJ2335k3nDT+C2ybbYVvHh3P2Zd5L6ZxGpiEL/PTde5mdZg0P6BK4ls7pBVWEPnazIeW27S8enVcrXvhKNChGW+NZZsu5sk4iWdT7auff1Z/W56/a19MvHT5/LuZYLsPo/MfRvMGaXvj8Suj0Q51NM4m6pnqqn8q53kYOurk8SfSMBjqRsvd/dz5sls53767kzhRjav8Vjq/qKtcZjlUl7rm3N/zFce+g8xhhvEy3+erL+2veq5OT08XjbdexiLrstuvbG91dVwm2vu6zsXfLK+x/bxpr+XdnZphbQbDcqQUGzm0L7w0DcaR9gdmi4j0c9GSX9ZrylVHT2fppLFuX+RderLoz/VnUhie1LnLtvnkuipplsRfdT2dxWfXVYqn3jDI5vWklh9e+64KiZXUullWC8njZWWd6WG9+JhjNZ0fLzyqpVzbbDbTrT7rt2ZRVWt9/luVpzDH3p768Psn9e/3v39U5+8/fvrt3a/qzftffxuo12cfz+oleJWv2vrOMxZNZbFK4yRT0ew6HwdDVWxpkiovHebmJYjGNTKu2t7keVCZvaa6rL+4JDqbJZGaekmqX4WxlzU8s+Tv5l354Nxlca5WY1ZbtAeyy1uoSvxtszu93PvPYroXk72x4+uRNwszNU3ifA3TO02189PR0WBwdraz4Y1niEMc4hCHOMQhDnGIQxziEOeviaPS2XX+T2Dla3NS+d7cECXaJw1pSEMa0pCGNKQhDWlIQxrSlNPcFv81639oLsOZJg5xiEMc4hCHOMQhDnGIQxzirINz/95A17w38HwmvTew5xa/sD1/vr9/fExSkpKUpCQlKUlJSlKSkpSkJCUpSZ8Gabcg9TKJtFOQ9nrd7tEBSUlKUpKSlKQkJSlJSUpSkpKUpCR9GqQ9Q/oqCQTS7nFB6rqHh70eSUlKUpKSlKQkJSlJSUpSkpKUpCR9GqT7hvTTZCaRHhWkx/nRf0FSkpKUpCQlKUlJSlKSkpSkJCUpSZ8Gad+Q/kv7EulhQfry5WBweEhSkpKUpCQlKUlJSlKSkpSkJCUpSZ8G6UHxzcRMS6QHBelgcHBAUpKSlKQkJSlJSUpSkpKUpCQlKUmfCumhIX0bSzsLdvsF6dFRt9vvk5SkJCUpSUlKUpKSlKQkJSlJSUrSrZGuUPzEu21UJrtrZ0EW6vOJN9XtTN9ljZ3X8SxJqzHm31/5MrjWURrEUajTIkNFir099dz3laeKTOo2yCYqja+18nsVV6Y347Y3nerIbzhG29mtuGB1tL0sSxrOndNUBx3Li+b5Rd36F6XZPNQLvJYXDSdxkl/vhHpkQbvMMYqjrHWrg/EkMzku49Cvn2PRN+fT1vnbNIsT3Vfn87TVU6/CpOWq8+GkNVCvP4TD66wVxUneBX+8U+/OBi/MxzJ9rXrqw/kf6v1waD67s1vWqc/20mESTLN/iJ95tucHNz8Oi9fIyfJcKvBPnaEZ8YO8kbwg0slF/8BRRcudOn6QTkNvfhJEYR5qXYbx8OsvjsyXJ13cgsrm0/x603h7V96NtzhbeqU5brzEDE51qvzgehrqdqRvz2/GDeen7xmbar/TKf6onGwmre9lXp73859O6F3q0DlxfD3yZmGmpkk8CkLtNBeRizvnxG13ms6NF8708u9Dsybl1+TLzGBwduZ8a9bK0wXl6YHy7IPy9EF5DkB5DkF5jkB5jkF53A4qEWpEu6gh7aLGtIsa1C5qVLuoYe2ixrWLGtguamR3USO7C1urUSO7ixrZXauRrdLZ9fWjl1TXqmiJ9i3SiG1kl0ZsIbs0YvvYpRHnvV0acdbbpRHnvF0accbbpRHnu10auZBZ5gGNY7mMWeYBjWS5iFnmAY1luYRZ5gGNZrmAWeYBjWe5fFnmQa3LoPEs1y7LPPXH820QZfZl69Kcqp9HbB7LPGLzWOYRm8cyjzjdLfOI090yjzjdLfOI090yjzjdLfPI9cs2EWpEyxXMNhFqTMs1zDYRalTLVcw2EWpcy3XMNhFqZMuVzDYRbK1GjWy5mNkmqj+y73+1qHyrsFTmOo/+obd47TBAort5id7mJfY3L9HfvMTB5iUONy9xtHmJ481LPKrsm9LYwvwu+WIWpyF/s4XTkL/0wmnI3/TiNOQvgXEa8vfDOA35q2OchvytMq7+bWGed7dRx7dQyLtbqOTd9Up55csb69mqxdsdARJyb8Ak5M6ASch9AZOQbRVMQrZVMAnZVsEkZFsFk5BtFUyi5JdrnIb80x9OQ7ZVOA3ZVuE0ZFuF05BtFU5DtlU4DdlW4TRkW4XTkG0Vrv5tYZ6X/MSP09hCIS+xVTiN9Up55Tuy6tmqxUu0ABJyb8Ak5M6ASch9AZOQbRVMQrZVMAnZVsEkZFsFk5BtFUyixFbhNOTlFqch2yqchmyrcBqyrcJpyLYKpyHbKpyGbKtwGrKtwmnItgpX/7Ywz0tsFU5jC4W8xFbhNNYr5ZWvIqlnqxbvKgFIyL0Bk5A7AyYh9wVMQrZVMAnZVsEkZFsFk5BtFUxCtlUwiRJbhdOQl1uchmyrcBqyrcJpyLYKpyHbKpyGbKtwGrKtwmnItgqnIdsqXP3bwjwvsVU4jS0U8hJbhdNYr5RX7vhez1YttoQHSMi9AZOQOwMmIfcFTEK2VTAJ2VbBJGRbBZOQbRVMQrZVMIkSW4XTkJdbnIZsq3Aasq3Caci2Cqch2yqchmyrcBqyrcJpyLYKpyHbKlz928I8L7FVOI0tFPISW4XTWK+UV26sW89WLXbeBUjIvQGTkDsDJiH3BUxCtlUwCdlWwSRkWwWTkG0VTEK2VTCJEluF05CXW5yGbKtwGrKtwmnItgqnIdsqnIZsq3Aasq3Caci2Cqch2ypc/dvCPC+xVTiNLRTyEluF01ivlFfuX1jPVi02OARIyL0Bk5A7AyYh9wVMQrZVMAnZVsEkZFsFk5BtFUxCtlUwidLN1lAa8nKL0yjbyAqlUbbHFUqjbPsrlEbZnm8ojbLt4FAaZTvFoTTKNpFDaZTtL4eqf1uY56W70qE0tlDIS2wVTqO6lH+ps8PrcutmdaoifbvaQLbYN7aR3oybxQ6wlVvFrvZ/TnX2Ip5Fftrod5rKdftN1TN/6/brbTd7l2Pcb2vt+wMv0+M4mT+/C9LF/sn3919jk+k8wfvE18nHmdnOuPaFhmP+mOOt9tJZohcYZkfmZbtveINvhhlmmGGGGWaYYYYZZphhhhlmmGGGGWaYYYYZZphhhhlmmGGGGWaYYYYZZphhhhlmmGGGGWaYYYYZZphhhhlmmGGGGWaYYYb/UuF5O77RSRL4+q1nHqx1253/83lV82hs+vjR2HOdBDpdPl7rNFcPEE/DOGuHQaQrH5FNf/ScbvWTtWm7ePX8NA69LIijHMpJMz1tXepRnGin3pPPb/RYR/7jG1qcaxx0mqpnnlzumAeZzR9OqEeZAatIvUrbvhjr7CzKTPvkEqNZNCxIG7vqz4oUK0J9f/Xnyme5zRGMVCObBGk7LXqlnpA5HlzUztvvzBtOGv8Fts22wjePjufsy7wX0zgNTMKX+ek6d7M6TJofUCXxrR3SCiuIfG3mQ8ttWl69Oq7WvXAU6NCMt8ayTRfzZJzEs6n21c8/q78tz9+1LyZeunz+3Uyw3YfR+Q+jeYO0vfH4ldFohzoaZxP1THXVP5XzPAwddfL4E2kYDHWj5e5+7nzZrZxv391JnKjGVX4rnV/UVS6zHKpLXXPu7/mKY99B5jDDeJnv89WX9lc9V6enp4vGWy9jkXXZ7Ve2t7o6LhPtfV3n4m+W19h+3rTX8u5OzbA2g2E5UoqNHNoXXpoG40j7A7NFRPq5aMkv6zXlqqOns3TSWLcv8i49WfTn+jMpDE/q3GXbfHJdlTRL4q+6ns7is+sqxVNvGGTzelLLD699V4XESmrdLKuF5PGyss70sF58zLGazo8XHtVSrm02m+lWn/Vbs6iqtT7/rcpTmGNvT334/ZP69/vfP6rz9x8//fbuV/Xm/a+/DdTrs49n9RK8yldtfecZi6ayWKVxkqlodp2Pg6EqtjRJlZcOc/MSROMaGVdtb/I8qMxeU13WX1wSnc2SSE29JNWvwtjLGp5Z8nfzrnxw7rI4V6sxqy3aA9nlLVQl/rbZnV7u/Wcx3YvJ3tjx9cibhZmaJnG+humdptr56ehoMDg729nwxjPEIQ5xiEMc4hCHOMQhDnGI89fEUensOv8nsPK1Oal8b26IEu2ThjSkIQ1pSEMa0pCGNKQhDWnKaW6L/5r1PzSX4UwThzjEIQ5xiEMc4hCHOMQhDnHWwbl/b6Br3ht4PpPeG9hzi1/Ynj/f3z8+JilJSUpSkpKUpCQlKUlJSlKSkpSkT4O0W5B6mUTaKUh7vW736ICkJCUpSUlKUpKSlKQkJSlJSUpSkj4N0p4hfZUEAmn3uCB13cPDXo+kJCUpSUlKUpKSlKQkJSlJSUpSkj4N0n1D+mkyk0iPCtLj/Oi/IClJSUpSkpKUpCQlKUlJSlKSkpSkT4O0b0j/pX2J9LAgfflyMDg8JClJSUpSkpKUpCQlKUlJSlKSkpSkT4P0oPhmYqYl0oOCdDA4OCApSUlKUpKSlKQkJSlJSUpSkpKUpE+F9NCQvo2lnQW7/YL06Kjb7fdJSlKSkpSkJCUpSUlKUpKSlKQkJenWSFcofuLdNiqT3bWzIAv1+cSb6nam77LGzut4lqTVGPPvr3wZXOsoDeIo1GmRoSLF3p567vvKU0UmdRtkE5XG11r5vYor05tx25tOdeQ3HKPt7FZcsDraXpYlDefOaaqDjuVF8/yibv2L0mwe6gVey4uGkzjJr3dCPbKgXeYYxVHWutXBeJKZHJdx6NfPseib82nr/G2axYk+UOfztNVTr8Kk5arz4aQ1UK8/hMPrrBXFSd4Ff7xT784GL8zHMn2teurD+R/q/XBoPruzW9apz/bSYRJMs3+In3m25wc3Pw6L18jJ8lwq8E+doRnxg7yRvCDSyUX/0FFFy506fpBOQ29+EkRhHmpdhvHw6y+OzJcnXdyCyubT/HrTeHtX3o23OFt6pTluvMQMTnWq/OB6Gup2pG/Pb8YN56fvGZtqv9Mp/qicbCat72Venvfzn07oXerQOXF8PfJmYaamSTwKQu00F5GLO+fEbXeazo0XzvTy70OzJuXX5MvMYHB25nxr1srTBeXpgfLsg/L0QXkOQHkOQXmOQHmOQXncDioRakS7qCHtosa0ixrULmpUu6hh7aLGtYsa2C5qZHdRI7sLW6tRI7uLGtldq5Gt0tn19aOXVNeqaIn2LdKIbWSXRmwhuzRi+9ilEee9XRpx1tulEee8XRpxxtulEee7XRq5kFnmAY1juYxZ5gGNZLmIWeYBjWW5hFnmAY1muYBZ5gGNZ7l8WeZBrcug8SzXLss89cfzbRBl9mXr0pyqn0dsHss8YvNY5hGbxzKPON0t84jT3TKPON0t84jT3TKPON0t88j1yzYRakTLFcw2EWpMyzXMNhFqVMtVzDYRalzLdcw2EWpky5XMNhFsrUaNbLmY2SaqP7Lvf7WofKuwVOY6j/6ht3jtMECiu3mJ3uYl9jcv0d+8xMHmJQ43L3G0eYnjzUs8quyb0tjC/C75YhanIX+zhdOQv/TCacjf9OI05C+BcRry98M4DfmrY5yG/K0yrv5tYZ53t1HHt1DIu1uo5N31Snnlyxvr2arF2x0BEnJvwCTkzoBJyH0Bk5BtFUxCtlUwCdlWwSRkWwWTkG0VTKLkl2uchvzTH05DtlU4DdlW4TRkW4XTkG0VTkO2VTgN2VbhNGRbhdOQbRWu/m1hnpf8xI/T2EIhL7FVOI31SnnlO7Lq2arFS7QAEnJvwCTkzoBJyH0Bk5BtFUxCtlUwCdlWwSRkWwWTkG0VTKLEVuE05OUWpyHbKpyGbKtwGrKtwmnItgqnIdsqnIZsq3Aasq3Caci2Clf/tjDPS2wVTmMLhbzEVuE01ivlla8iqWerFu8qAUjIvQGTkDsDJiH3BUxCtlUwCdlWwSRkWwWTkG0VTEK2VTCJEluF05CXW5yGbKtwGrKtwmnItgqnIdsqnIZsq3Aasq3Caci2Cqch2ypc/dvCPC+xVTiNLRTyEluF01ivlFfu+F7PVi22hAdIyL0Bk5A7AyYh9wVMQrZVMAnZVsEkZFsFk5BtFUxCtlUwiRJbhdOQl1uchmyrcBqyrcJpyLYKpyHbKpyGbKtwGrKtwmnItgqnIdsqXP3bwjwvsVU4jS0U8hJbhdNYr5RXbqxbz1Ytdt4FSMi9AZOQOwMmIfcFTEK2VTAJ2VbBJGRbBZOQbRVMQrZVMIkSW4XTkJdbnIZsq3Aasq3Caci2Cqch2yqchmyrcBqyrcJpyLYKpyHbKlz928I8L7FVOI0tFPISW4XTWK+UV+5fWM9WLTY4BEjIvQGTkDsDJiH3BUxCtlUwCdlWwSRkWwWTkG0VTEK2VTCJ0s3WUBrycovTKNvICqVRtscVSqNs+yuURtmebyiNsu3gUBplO8WhNMo2kUNplO0vh6p/W5jnpbvSoTS2UMhLbBVOo7qUf6mzw+ty62Z1qiJ9u9pAttg3tpHejJvFDrCVW8Wu9n9OdfYinkV+2uh3msp1+03VM3/r9uttN3uXY9xva+37Ay/T4ziZP78L0sX+yff3X2OT6TzB+8TXyceZ2c649oWGY/6Y46320lmiFxhmR+Zlu294g2+GGWaYYYYZZphhhhlmmGGGGWaYYYYZZphhhhlmmGGGGWaYYYYZZphhhhlmmGGGGWaYYYYZZphhhhlmmGGGGWaYYYYZZphhhv9S4Xk7vtFJEvj6rWcerHXbnf/zeVXzaGz6+NHYc50EOl0+Xus0Vw8QT8M4a4dBpCsfkU1/9Jxu9ZO1abt49fw0Dr0siKMcykkzPW1d6lGcaKfek89v9FhH/uMbWpxrHHSaqmeeXO6YB5nNH06oR5kBq0i9Stu+GOvsLMpM++QSo1k0LEgbu+rPihQrQn1/9efKZ7nNEYxUI5sEaTsteqWekDkeXNTO2+/MG04a/wW2zbbCN4+O5+zLvBfTOA1Mwpf56Tp3szpMmh9QJfGtHdIKK4h8beZDy21aXr06rta9cBTo0Iy3xrJNF/NknMSzqfbVzz+rvy3P37UvJl66fP7dTLDdh9H5D6N5g7S98fiV0WiHOhpnE/VMddU/lfM8DB118vgTaRgMdaPl7n7ufNmtnG/f3UmcqMZVfiudX9RVLrMcqktdc+7v+Ypj30HmMMN4me/z1Zf2Vz1Xp6eni8ZbL2ORddntV7a3ujouE+19Xefib5bX2H7etNfy7k7NsDaDYTlSio0c2hdemgbjSPsDs0VE+rloyS/rNeWqo6ezdNJYty/yLj1Z9Of6MykMT+rcZdt8cl2VNEvir7qezuKz6yrFU28YZPN6UssPr31XhcRKat0sq4Xk8bKyzvSwXnzMsZrOjxce1VKubTab6Vaf9VuzqKq1Pv+tylOYY29Pffj9k/r3+98/qvP3Hz/99u5X9eb9r78N1Ouzj2f1ErzKV2195xmLprJYpXGSqWh2nY+DoSq2NEmVlw5z8xJE4xoZV21v8jyozF5TXdZfXBKdzZJITb0k1a/C2Msanlnyd/OufHDusjhXqzGrLdoD2eUtVCX+ttmdXu79ZzHdi8ne2PH1yJuFmZomcb6G6Z2m2vnp6GgwODvb2fDGM8QhDnGIQxziEIc4xCEOcYjz18RR6ew6/yew8rU5qXxvbogS7ZOGNKQhDWlIQxrSkIY0pCENacppbov/mvU/NJfhTBOHOMQhDnGIQxziEIc4xCEOcdbBuX9voGveG3g+k94b2HOLX9ieP9/fPz4mKUlJSlKSkpSkJCUpSUlKUpKSlKRPg7RbkHqZRNopSHu9bvfogKQkJSlJSUpSkpKUpCQlKUlJSlKSPg3SniF9lQQCafe4IHXdw8Nej6QkJSlJSUpSkpKUpCQlKUlJSlKSPg3SfUP6aTKTSI8K0uP86L8gKUlJSlKSkpSkJCUpSUlKUpKSlKRPg7RvSP+lfYn0sCB9+XIwODwkKUlJSlKSkpSkJCUpSUlKUpKSlKRPg/Sg+GZipiXSg4J0MDg4IClJSUpSkpKUpCQlKUlJSlKSkpSkT4X00JC+jaWdBbv9gvToqNvt90lKUpKSlKQkJSlJSUpSkpKUpCQl6dZIVyh+4t02KpPdtbMgC/X5xJvqdqbvssbO63iWpNUY8++vfBlc6ygN4ijUaZGhIsXennru+8pTRSZ1G2QTlcbXWvm9iivTm3Hbm0515Dcco+3sVlywOtpeliUN585pqoOO5UXz/KJu/YvSbB7qBV7Li4aTOMmvd0I9sqBd5hjFUda61cF4kpkcl3Ho18+x6Jvzaev8bZrFiT5U5/O01VOvwqTlqvPhpDVQrz+Ew+usFcVJ3gV/vFPvzgYvzMcyfa166sP5H+r9cGg+u7Nb1qnP9tJhEkyzf4ifebbnBzc/DovXyMnyXCrwT52hGfGDvJG8INLJRf/IUUXLnTp+kE5Db34SRGEeal2G8fDrL47Mlydd3ILK5tP8etN4e1fejbc4W3qlOW68xAxOdar84Hoa6nakb89vxg3np+8Zm2q/0yn+qJxsJq3vZV6e9/OfTuhd6tA5cXw98mZhpqZJPApC7TQXkYs758Rtd5rOjRfO9PLvQ7Mm5dfky8xgcHbmfGvWytMF5emB8uyD8vRBeQ5AeQ5BeY5AeY5BedwOKhFqRLuoIe2ixrSLGtQualS7qGHtosa1ixrYLmpkd1Ejuwtbq1Eju4sa2V2rka3S2fX1o5dU16poifYt0ohtZJdGbCG7NGL72KUR571dGnHW26UR57xdGnHG26UR57tdGrmQWeYBjWO5jFnmAY1kuYhZ5gGNZbmEWeYBjWa5gFnmAY1nuXxZ5kGty6DxLNcuyzz1x/NtEGX2ZevSnKqfR2weyzxi81jmEZvHMo843S3ziNPdMo843S3ziNPdMo843S3zyPXLNhFqRMsVzDYRakzLNcw2EWpUy1XMNhFqXMt1zDYRamTLlcw2EWytRo1suZjZJqo/su9/tah8q7BU5jqP/qG3eO0wQKK7eYne5iX2Ny/R37zEweYlDjcvcbR5iePNSzyq7JvS2ML8LvliFqchf7OF05C/9MJpyN/04jTkL4FxGvL3wzgN+atjnIb8rTKu/m1hnne3Uce3UMi7W6jk3fVKeeXLG+vZqsXbHQEScm/AJOTOgEnIfQGTkG0VTEK2VTAJ2VbBJGRbBZOQbRVMouSXa5yG/NMfTkO2VTgN2VbhNGRbhdOQbRVOQ7ZVOA3ZVuE0ZFuF05BtFa7+bWGel/zEj9PYQiEvsVU4jfVKeeU7surZqsVLtAAScm/AJOTOgEnIfQGTkG0VTEK2VTAJ2VbBJGRbBZOQbRVMosRW4TTk5RanIdsqnIZsq3Aasq3Caci2Cqch2yqchmyrcBqyrcJpyLYKV/+2MM9LbBVOYwuFvMRW4TTWK+WVryKpZ6sW7yoBSMi9AZOQOwMmIfcFTEK2VTAJ2VbBJGRbBZOQbRVMQrZVMIkSW4XTkJdbnIZsq3Aasq3Caci2Cqch2yqchmyrcBqyrcJpyLYKpyHbKlz928I8L7FVOI0tFPISW4XTWK+UV+74Xs9WLbaEB0jIvQGTkDsDJiH3BUxCtlUwCdlWwSRkWwWTkG0VTEK2VTCJEluF05CXW5yGbKtwGrKtwmnItgqnIdsqnIZsq3Aasq3Caci2Cqch2ypc/dvCPC+xVTiNLRTyEluF01ivlFdurFvPVi123gVIyL0Bk5A7AyYh9wVMQrZVMAnZVsEkZFsFk5BtFUxCtlUwiRJbhdOQl1uchmyrcBqyrcJpyLYKpyHbKpyGbKtwGrKtwmnItgqnIdsqXP3bwjwvsVU4jS0U8hJbhdNYr5RX7l9Yz1YtNjgESMi9AZOQOwMmIfcFTEK2VTAJ2VbBJGRbBZOQbRVMQrZVMInSzdZQGvJyi9Mo28gKpVG2xxVKo2z7K5RG2Z5vKI2y7eBQGmU7xaE0yjaRQ2mU7S+Hqn9bmOelu9KhNLZQyEtsFU6jupR/qbPD63LrZnWqIn272kC22De2kd6Mm8UOsJVbxa72f0519iKeRX7a6HeaynX7TdUzf+v26203e5dj3G9r7fsDL9PjOJk/vwvSxf7J9/dfY5PpPMH7xNfJx5nZzrj2hYZj/pjjrfbSWaIXGGZH5mW7b3iDb4YZZphhhhlmmGGGGWaYYYYZZphhhhlmmGGGGWaYYYYZZphhhhlmmGGGGWaYYYYZZphhhhlmmGGGGWaYYYYZZphhhhlmmGGG/1LheTu+0UkS+PqtZx6sddud//N5VfNobPr40dhznQQ6XT5e6zRXDxBPwzhrh0GkKx+RTX/0nG71k7Vpu3j1/DQOvSyIoxzKSTM9bV3qUZxop96Tz2/0WEf+4xtanGscdJqqZ55c7pgHmc0fTqhHmQGrSL1K274Y6+wsykz75BKjWTQsSBu76s+KFCtCfX/158pnuc0RjFQjmwRpOy16pZ6QOR5c1M7b78wbThr/BbbNtsI3j47n7Mu8F9M4DUzCl/npOnezOkyaH1Al8a0d0goriHxt5kPLbVpevTqu1r1wFOjQjLfGsk0X82ScxLOp9tXPP6u/Lc/ftS8mXrp8/t1MsN2H0fkPo3mDtL3x+JXRaIc6GmcT9Uz9p71z7W0bx8Lw9/0VXA0wkTG2Y9mxc2k9g9R12gJtUyQpBjNBENAWbSuRJUGUkhiD/PcVZSlrN1VN6tLWuy8/xKlIvnxInkOypXrcJn8Q7di2NXK0XoLb1pjpDaN22bqqbfS3Zz1xfaLfRF1pvSA3UTOJqSbtime/RSuO+gSJJMw40bu8uWresgXp9/vLwcunGKsm036j2tU0jXxGb/NUflSso1pejFfSu74wa2EMiaXEgRya15Rza+owcyBCRPDLeCSv8g1lOtFeyGd63rmIpvRoOZ/5Pcm2j2R62RQl87bCA9+9ZXLtLMvmbcn16NgKFnJNJYVz9ypuIm0qr0q6kKwvK3ncQ3nxESl15/WFhzSIoaqm4m7yrI/1eFeVKv+46Uwh0u4u+fT5gvx1+vmMnJ+eXbz7+Ia8P33zbkDeDs+GcgIn0arNHqg4opHAJdz1A+KE88gOxiQOacIJ5ePo8GI5UwnFdOyFzsrOTOtkJL+4+CwIfYd41OfsxHZpoFOx5NeiqVx5NoqfSQ3m5iPaSrNJFzYJP1Yb6eXp/Bm7e+zs+o7JJjS0A+L5brSGsZ062fnl4GAwGA53Kg48AxzgAAc4wAEOcIADHOAABzj/mziEh/Por8DEZOIhMelCEPnMBA1oQAMa0IAGNKABDWhAAxrQfJvmPn416wuakR0y4AAHOMABDnCAAxzgAAc4wAFOHpyn7w00xPcGnodZ3xvYMeIbtuPjvb3DQ5CCFKQgBSlIQQpSkIIUpCAFKUhBuh2k7ZiUBlmkrZi002m3D3ogBSlIQQpSkIIUpCAFKUhBClKQgnQ7SDuC9MS3MkjbhzGpYezvdzogBSlIQQpSkIIUpCAFKUhBClKQgnQ7SPcE6cUszCI9iEkPo9R9BVKQghSkIAUpSEEKUpCCFKQgBSlIt4O0K0j/ZGYW6X5M+vr1YLC/D1KQghSkIAUpSEEKUpCCFKQgBSlIt4O0F//LRMiySHsx6WDQ64EUpCAFKUhBClKQghSkIAUpSEEK0m0h3RekH9ysyILtbkx6cNBud7sgBSlIQQpSkIIUpCAFKUhBClKQgvS7kaYopk/v9Y1iD83ACmx2PqMeawbsIdB33rqhzzdjLJ7XfG3NmcMt17EZjxU2SOzukmPTJJTESuTeCmaEu3NGzM6Gmvxu2qSexxxT10TbWm1DhTQ1aRD4uvag1UmvpVhpEVVqy1fiwcJmS7wGdcYz14/qazabKNAmGhPXCRr3zJrOAqExcm1TXmM5N+de4/wDD1yfHZDzBW90yIntNwxyPp41BuTtJ3s8DxqM8oD8/ZF8HA5eiVIBm5MO+XT+Nzkdj0XRndq35vTlLh/7lhf8nlnm5a5p3X09O7NOtlikRSyzr42FwQ+iMaKWw/zr7qFG4oHra6bFPZsujizHjrIaI9sd377Qsvki0WUXSLDwovpi7HZv6B1dPv1mTZHuqC9sk/SJac09mzUddn9+N9W1X54z1sleqxX/2OhrQtakAY10L//RbDpitnakmWxCQzsgnu9OLJtp9WXO9YN2ZDRbde2O2iHTjnqHzcOVdHBY18ZigYoUojVnMBgOtce6lGq7EtVOJap7lah2K1HtVaK6X4nqQSWqh5WoGq1qZKvxLqMa9zKq8S+jGgczqvEwoxoXM6rxMaMaJzOq8bJ2NV7WrmgPq8bL2tV4WbuAlxEezudr3/md44TgM1NBVHJs1UQlR1ZNVHJc1UQl1y41UcmVS01Uct1SE5VctdREJdcsNVHZg4GiaiU+JXssUFStxKtkDwWKqpX4leyRQFG1Es+SPRAoqlbiW7LHAUXVavarSnxL9iygqJrXt+4tJyh6DBiJAvKqksOqqCo5rIqqksOqqCq5ZCmqSi5ZiqqSS5aiquSSpagquWQpqsqeB1Rlq/Eu2ROBqmw1/iV7JlCVrcbDZE8FqrLV+JjsuUBVthovkz0ZqMpWtIdV42WyhwNVWSUvu5K5cEguEkmfOOw+vc+IrzF0fjetxxcSG28u0ttIzoJXbuiYXO+26sQwunXSEb+1u3K3Hw8RxtMlq2kOaMCmrr84frD48jbvaSgkrjwjgVPfZP5ZKC7XpCsKjsU6xwdGeeizJYa4H0ymoOglbnyPtN7UOfMtxhPcqKVkQjzbDZricmtjk/xr/d5Mypux3XmuTQPLdSIojQfMa4zYxPWZJmdJ79mUOeZ6h5bP9F5kBR1hCeIyzBA/kjvSjdfHqWzzesqCoROI8YmamITOOCbVa+QfiUtSQcieal9u9A2RrAnRg5nFI7sW9eQaEmmlUjMavyEdz/T/AquqpfjJ3WCie+253BKCr6PHMr1Jk5D5CpXv3qshpViWYzLhuA2jrlg7TTd5K04sZgt705MxXfrJ1HdDj5nk11/Jv5PnD83rGeXJeiIcrLaau/hqbjQgTTqdnog2mjZzpsGMvCRt8gfRjm1bI0frJbhtjZneMGqXravaRn971hPXJ/pN1JXWC3ITNZOYatKuePZbnxjqEySSMONE7/LmqnnLouWt318OXj7FWDWZ9hvVrqZp5DN6m6fyo2Id1fJivJLe9YVZC2NILCXeGJvXyxeAmBm/AsQv45G8yjeU6UR7IZ/peecimtKj5Xzm9yTbPpLpZVOUzNsKD3z3lsm1syybtyXXo2MrWMg1lRTO3au4ibSpvCrpQrK+rORxD+XFR6TUndcXHtIghqqairvJsz7W411VqvzjpjOFSLu75NPnC/LX6eczcn56dvHu4xvy/vTNuwF5OzwbygmcRKs2e6DiiEYCl3A3Okg74TyygzGJj4icUD6ODi+WM5VQTMde6KzszLRORvKLi8+C0HeIR33OTmyXBjoVS34tmsqVZ6P4mdRgbj6irTSbdGGT8OMPeFHziwvY5G1McaH6Q94bBQ5wgAMc4AAHOMABDnCAA5ytx3n+gosg8pkJGtCABjSgAQ1oQAMa0IAGNKD5Ns2zVwIFjXjFDzjAAQ5wgAMc4AAHOMABDnCA8wPDI16wucd8GoQ+I/pJDQESf6oAiX9SYXFvWfxxPB9ZzAmImDIR95CZYTT+DbLfOtmKEIi91s8fAjFi/F4hEOP/eJo3BFNJOp2SdPZK0umWpNMrSWe/JJ2DknQOS9JZiy1QSKgsizbKMmmjLJs2yjJqoyyrNsoya6MsuzbKMmyjLMtul2XZ7dLW6rIsu12WZbeVLFs+ZN+aVP4gfQVkMkcofyC+AjKZfp8/2F4BmUyfzx9Qr4BMpr8XCJpXRKckO87exgqEwiuiU5IpZ+9hBQLcFdEpyZqzN7ACYeuKrIMl2XP27lUgGF0RnZLsOXvryh9ibk2mQFC5IjqZw1MgcFwRnUx3LxAcrohOprsXCABXRCfT3YsEeSskVJZFZ+9gRUK3FRIqy6izN7EiAdkKCZVl19n7WJEwa4VWxrIsO3srKxI8rZBQWZadvZshJNpWhERDNrKRjWxkIxvZyEY2spGNbGQjG9nIRvbPlL1ounfM9y2TfaDiH6qMZgsh8Vd6gpD4Twkh8ZUSQuIjJL5CQkj8LxNC4n+ZEBJfMSEkPkLifzUhJD5wgAMc4AAHOMABDnCAAxzgAGcbAkqCBjSgAQ1oQAMa0IAGNKABzfbQ/N8EsgQOcIADHOAABzjAAQ5wgAOc/O39gJD4r605c7jlOjbjHAHxf66A+K5/S4aTiTW2mDNePIXB/74B8JPSX+Ss/jn9ffn5pJ788vQxcs2F+JwFc/v3f/0H+yXNGA=="
               },
               {
                  "name" : "annual_peak_electric_demand",
                  "units" : "kW",
                  "value" : 229.78454000000002
               },
               {
                  "name" : "first_year_capital_cost",
                  "units" : "$",
                  "value" : 0
               },
               {
                  "name" : "annual_utility_cost",
                  "units" : "$",
                  "value" : 0
               },
               {
                  "name" : "total_lifecycle_cost",
                  "units" : "$",
                  "value" : 0
               }
            ],
            "step_warnings" : [ "A table in Annual Overview section returned false and was skipped." ]
         }
      }
   ],
   "updated_at" : "20170710T190505Z",
   "weather_file" : "USA_CO_Denver.Intl.AP.725650_TMY3.epw"
}
