{
   "completed_at" : "20170710T184650Z",
   "completed_status" : "Success",
   "created_at" : "2017-07-10 18:24:38 +0000",
   "current_step" : 5,
   "description" : "",
   "eplusout_err" : "Program Version,EnergyPlus, Version 8.7.0-78a111df4a, YMD=2017.07.10 18:33,IDD_Version 8.7.0\n   ************* IDF Context for following error/warning message:\n   ************* Note -- lines truncated at 300 characters, if necessary...\n   *************      5 Building,\n   ************* indicated Name=NECB 2011-Hospital-NECB HDD Method-CAN_BC_Vancouver.718920_CWEC.epw created: 2017-07-10 18:24:50 +0000\n   ************* Only last 1 lines before error line shown.....\n   *************      6   NECB 2011-Hospital-NECB HDD Method-CAN_BC_Vancouver.718920_CWEC.epw created: 2017-07-10 18:24:50 +0000, !- Name\n   ** Warning ** IP: IDF line~6 Alpha Argument length exceeds maximum, will be truncated=  NECB 2011-Hospital-NECB HDD Method-CAN_BC_Vancouver.718920_CWEC.epw created: 2017-07-10 18:24:50 +000\n   **   ~~~   ** Will be processed as Alpha=NECB 2011-HOSPITAL-NECB HDD METHOD-CAN_BC_VANCOUVER.718920_CWEC.EPW CREATED: 2017-07-10 18:24:50 +0000\n   ************* IDF Context for following error/warning message:\n   ************* Note -- lines truncated at 300 characters, if necessary...\n   *************   5704 Schedule:Week:Daily,\n   ************* indicated Name=Schedule:Week:Daily {2a49e6c8-7a62-46fb-9d1b-dcfaadc1adb5}\n   ************* Only last 10 lines before error line shown.....\n   *************   5705   Schedule:Week:Daily {2a49e6c8-7a62-46fb-9d1b-dcfaadc1adb5}, !- Name\n   *************   5706   Sp-ER_NurseStn_Lobby_Flr_1 Sys-3 Flr-1 Sch-H HPlcmt-east ZN NECB System 3 PSZ Occ Sch Sunday, !- Sunday Schedule:Day Name\n   *************   5707   Sp-ER_NurseStn_Lobby_Flr_1 Sys-3 Flr-1 Sch-H HPlcmt-east ZN NECB System 3 PSZ Occ Sch Monday, !- Monday Schedule:Day Name\n   *************   5708   Sp-ER_NurseStn_Lobby_Flr_1 Sys-3 Flr-1 Sch-H HPlcmt-east ZN NECB System 3 PSZ Occ Sch Tuesday, !- Tuesday Schedule:Day Name\n   *************   5709   Sp-ER_NurseStn_Lobby_Flr_1 Sys-3 Flr-1 Sch-H HPlcmt-east ZN NECB System 3 PSZ Occ Sch Wednesday, !- Wednesday Schedule:Day Name\n   *************   5710   Sp-ER_NurseStn_Lobby_Flr_1 Sys-3 Flr-1 Sch-H HPlcmt-east ZN NECB System 3 PSZ Occ Sch Thursday, !- Thursday Schedule:Day Name\n   *************   5711   Sp-ER_NurseStn_Lobby_Flr_1 Sys-3 Flr-1 Sch-H HPlcmt-east ZN NECB System 3 PSZ Occ Sch Friday, !- Friday Schedule:Day Name\n   *************   5712   Sp-ER_NurseStn_Lobby_Flr_1 Sys-3 Flr-1 Sch-H HPlcmt-east ZN NECB System 3 PSZ Occ Sch Saturday, !- Saturday Schedule:Day Name\n   *************   5713   Sp-ER_NurseStn_Lobby_Flr_1 Sys-3 Flr-1 Sch-H HPlcmt-east ZN NECB System 3 PSZ Occ Sch Default, !- Holiday Schedule:Day Name\n   *************   5714   Sp-ER_NurseStn_Lobby_Flr_1 Sys-3 Flr-1 Sch-H HPlcmt-east ZN NECB System 3 PSZ Occ Sch Summer Design Day, !- SummerDesignDay Schedule:Day Name\n   ** Warning ** IP: IDF line~5714 Alpha Argument length exceeds maximum, will be truncated=  Sp-ER_NurseStn_Lobby_Flr_1 Sys-3 Flr-1 Sch-H HPlcmt-east ZN NECB System 3 PSZ Occ Sch Summer Design Da\n   **   ~~~   ** Will be processed as Alpha=SP-ER_NURSESTN_LOBBY_FLR_1 SYS-3 FLR-1 SCH-H HPLCMT-EAST ZN NECB SYSTEM 3 PSZ OCC SCH SUMMER DESIGN DAY\n   ************* IDF Context for following error/warning message:\n   ************* Note -- lines truncated at 300 characters, if necessary...\n   *************   5704 Schedule:Week:Daily,\n   ************* indicated Name=Schedule:Week:Daily {2a49e6c8-7a62-46fb-9d1b-dcfaadc1adb5}\n   ************* Only last 10 lines before error line shown.....\n   *************   5706   Sp-ER_NurseStn_Lobby_Flr_1 Sys-3 Flr-1 Sch-H HPlcmt-east ZN NECB System 3 PSZ Occ Sch Sunday, !- Sunday Schedule:Day Name\n   *************   5707   Sp-ER_NurseStn_Lobby_Flr_1 Sys-3 Flr-1 Sch-H HPlcmt-east ZN NECB System 3 PSZ Occ Sch Monday, !- Monday Schedule:Day Name\n   *************   5708   Sp-ER_NurseStn_Lobby_Flr_1 Sys-3 Flr-1 Sch-H HPlcmt-east ZN NECB System 3 PSZ Occ Sch Tuesday, !- Tuesday Schedule:Day Name\n   *************   5709   Sp-ER_NurseStn_Lobby_Flr_1 Sys-3 Flr-1 Sch-H HPlcmt-east ZN NECB System 3 PSZ Occ Sch Wednesday, !- Wednesday Schedule:Day Name\n   *************   5710   Sp-ER_NurseStn_Lobby_Flr_1 Sys-3 Flr-1 Sch-H HPlcmt-east ZN NECB System 3 PSZ Occ Sch Thursday, !- Thursday Schedule:Day Name\n   *************   5711   Sp-ER_NurseStn_Lobby_Flr_1 Sys-3 Flr-1 Sch-H HPlcmt-east ZN NECB System 3 PSZ Occ Sch Friday, !- Friday Schedule:Day Name\n   *************   5712   Sp-ER_NurseStn_Lobby_Flr_1 Sys-3 Flr-1 Sch-H HPlcmt-east ZN NECB System 3 PSZ Occ Sch Saturday, !- Saturday Schedule:Day Name\n   *************   5713   Sp-ER_NurseStn_Lobby_Flr_1 Sys-3 Flr-1 Sch-H HPlcmt-east ZN NECB System 3 PSZ Occ Sch Default, !- Holiday Schedule:Day Name\n   *************   5714   Sp-ER_NurseStn_Lobby_Flr_1 Sys-3 Flr-1 Sch-H HPlcmt-east ZN NECB System 3 PSZ Occ Sch Summer Design Day, !- SummerDesignDay Schedule:Day Name\n   *************   5715   Sp-ER_NurseStn_Lobby_Flr_1 Sys-3 Flr-1 Sch-H HPlcmt-east ZN NECB System 3 PSZ Occ Sch Winter Design Day, !- WinterDesignDay Schedule:Day Name\n   ** Warning ** IP: IDF line~5715 Alpha Argument length exceeds maximum, will be truncated=  Sp-ER_NurseStn_Lobby_Flr_1 Sys-3 Flr-1 Sch-H HPlcmt-east ZN NECB System 3 PSZ Occ Sch Winter Design Da\n   **   ~~~   ** Will be processed as Alpha=SP-ER_NURSESTN_LOBBY_FLR_1 SYS-3 FLR-1 SCH-H HPLCMT-EAST ZN NECB SYSTEM 3 PSZ OCC SCH WINTER DESIGN DAY\n   ************* IDF Context for following error/warning message:\n   ************* Note -- lines truncated at 300 characters, if necessary...\n   *************   5735 Schedule:Day:Interval,\n   ************* indicated Name=Sp-ER_NurseStn_Lobby_Flr_1 Sys-3 Flr-1 Sch-H HPlcmt-east ZN NECB System 3 PSZ Occ Sch Summer Design Day\n   ************* Only last 1 lines before error line shown.....\n   *************   5736   Sp-ER_NurseStn_Lobby_Flr_1 Sys-3 Flr-1 Sch-H HPlcmt-east ZN NECB System 3 PSZ Occ Sch Summer Design Day, !- Name\n   ** Warning ** IP: IDF line~5736 Alpha Argument length exceeds maximum, will be truncated=  Sp-ER_NurseStn_Lobby_Flr_1 Sys-3 Flr-1 Sch-H HPlcmt-east ZN NECB System 3 PSZ Occ Sch Summer Design Da\n   **   ~~~   ** Will be processed as Alpha=SP-ER_NURSESTN_LOBBY_FLR_1 SYS-3 FLR-1 SCH-H HPLCMT-EAST ZN NECB SYSTEM 3 PSZ OCC SCH SUMMER DESIGN DAY\n   ************* IDF Context for following error/warning message:\n   ************* Note -- lines truncated at 300 characters, if necessary...\n   *************   5742 Schedule:Day:Interval,\n   ************* indicated Name=Sp-ER_NurseStn_Lobby_Flr_1 Sys-3 Flr-1 Sch-H HPlcmt-east ZN NECB System 3 PSZ Occ Sch Winter Design Day\n   ************* Only last 1 lines before error line shown.....\n   *************   5743   Sp-ER_NurseStn_Lobby_Flr_1 Sys-3 Flr-1 Sch-H HPlcmt-east ZN NECB System 3 PSZ Occ Sch Winter Design Day, !- Name\n   ** Warning ** IP: IDF line~5743 Alpha Argument length exceeds maximum, will be truncated=  Sp-ER_NurseStn_Lobby_Flr_1 Sys-3 Flr-1 Sch-H HPlcmt-east ZN NECB System 3 PSZ Occ Sch Winter Design Da\n   **   ~~~   ** Will be processed as Alpha=SP-ER_NURSESTN_LOBBY_FLR_1 SYS-3 FLR-1 SCH-H HPLCMT-EAST ZN NECB SYSTEM 3 PSZ OCC SCH WINTER DESIGN DAY\n   ************* IDF Context for following error/warning message:\n   ************* Note -- lines truncated at 300 characters, if necessary...\n   *************   7141 Schedule:Week:Daily,\n   ************* indicated Name=Schedule:Week:Daily {6d71728f-0f60-4759-8426-de00152863eb}\n   ************* Only last 10 lines before error line shown.....\n   *************   7142   Schedule:Week:Daily {6d71728f-0f60-4759-8426-de00152863eb}, !- Name\n   *************   7143   Sp-ICU_NurseStn_Lobby_Flr_2 Sys-3 Flr-4 Sch-H HPlcmt-core ZN NECB System 3 PSZ Occ Sch Sunday, !- Sunday Schedule:Day Name\n   *************   7144   Sp-ICU_NurseStn_Lobby_Flr_2 Sys-3 Flr-4 Sch-H HPlcmt-core ZN NECB System 3 PSZ Occ Sch Monday, !- Monday Schedule:Day Name\n   *************   7145   Sp-ICU_NurseStn_Lobby_Flr_2 Sys-3 Flr-4 Sch-H HPlcmt-core ZN NECB System 3 PSZ Occ Sch Tuesday, !- Tuesday Schedule:Day Name\n   *************   7146   Sp-ICU_NurseStn_Lobby_Flr_2 Sys-3 Flr-4 Sch-H HPlcmt-core ZN NECB System 3 PSZ Occ Sch Wednesday, !- Wednesday Schedule:Day Name\n   *************   7147   Sp-ICU_NurseStn_Lobby_Flr_2 Sys-3 Flr-4 Sch-H HPlcmt-core ZN NECB System 3 PSZ Occ Sch Thursday, !- Thursday Schedule:Day Name\n   *************   7148   Sp-ICU_NurseStn_Lobby_Flr_2 Sys-3 Flr-4 Sch-H HPlcmt-core ZN NECB System 3 PSZ Occ Sch Friday, !- Friday Schedule:Day Name\n   *************   7149   Sp-ICU_NurseStn_Lobby_Flr_2 Sys-3 Flr-4 Sch-H HPlcmt-core ZN NECB System 3 PSZ Occ Sch Saturday, !- Saturday Schedule:Day Name\n   *************   7150   Sp-ICU_NurseStn_Lobby_Flr_2 Sys-3 Flr-4 Sch-H HPlcmt-core ZN NECB System 3 PSZ Occ Sch Default, !- Holiday Schedule:Day Name\n   *************   7151   Sp-ICU_NurseStn_Lobby_Flr_2 Sys-3 Flr-4 Sch-H HPlcmt-core ZN NECB System 3 PSZ Occ Sch Summer Design Day, !- SummerDesignDay Schedule:Day Name\n   ** Warning ** IP: IDF line~7151 Alpha Argument length exceeds maximum, will be truncated=  Sp-ICU_NurseStn_Lobby_Flr_2 Sys-3 Flr-4 Sch-H HPlcmt-core ZN NECB System 3 PSZ Occ Sch Summer Design Da\n   **   ~~~   ** Will be processed as Alpha=SP-ICU_NURSESTN_LOBBY_FLR_2 SYS-3 FLR-4 SCH-H HPLCMT-CORE ZN NECB SYSTEM 3 PSZ OCC SCH SUMMER DESIGN DAY\n   ************* IDF Context for following error/warning message:\n   ************* Note -- lines truncated at 300 characters, if necessary...\n   *************   7141 Schedule:Week:Daily,\n   ************* indicated Name=Schedule:Week:Daily {6d71728f-0f60-4759-8426-de00152863eb}\n   ************* Only last 10 lines before error line shown.....\n   *************   7143   Sp-ICU_NurseStn_Lobby_Flr_2 Sys-3 Flr-4 Sch-H HPlcmt-core ZN NECB System 3 PSZ Occ Sch Sunday, !- Sunday Schedule:Day Name\n   *************   7144   Sp-ICU_NurseStn_Lobby_Flr_2 Sys-3 Flr-4 Sch-H HPlcmt-core ZN NECB System 3 PSZ Occ Sch Monday, !- Monday Schedule:Day Name\n   *************   7145   Sp-ICU_NurseStn_Lobby_Flr_2 Sys-3 Flr-4 Sch-H HPlcmt-core ZN NECB System 3 PSZ Occ Sch Tuesday, !- Tuesday Schedule:Day Name\n   *************   7146   Sp-ICU_NurseStn_Lobby_Flr_2 Sys-3 Flr-4 Sch-H HPlcmt-core ZN NECB System 3 PSZ Occ Sch Wednesday, !- Wednesday Schedule:Day Name\n   *************   7147   Sp-ICU_NurseStn_Lobby_Flr_2 Sys-3 Flr-4 Sch-H HPlcmt-core ZN NECB System 3 PSZ Occ Sch Thursday, !- Thursday Schedule:Day Name\n   *************   7148   Sp-ICU_NurseStn_Lobby_Flr_2 Sys-3 Flr-4 Sch-H HPlcmt-core ZN NECB System 3 PSZ Occ Sch Friday, !- Friday Schedule:Day Name\n   *************   7149   Sp-ICU_NurseStn_Lobby_Flr_2 Sys-3 Flr-4 Sch-H HPlcmt-core ZN NECB System 3 PSZ Occ Sch Saturday, !- Saturday Schedule:Day Name\n   *************   7150   Sp-ICU_NurseStn_Lobby_Flr_2 Sys-3 Flr-4 Sch-H HPlcmt-core ZN NECB System 3 PSZ Occ Sch Default, !- Holiday Schedule:Day Name\n   *************   7151   Sp-ICU_NurseStn_Lobby_Flr_2 Sys-3 Flr-4 Sch-H HPlcmt-core ZN NECB System 3 PSZ Occ Sch Summer Design Day, !- SummerDesignDay Schedule:Day Name\n   *************   7152   Sp-ICU_NurseStn_Lobby_Flr_2 Sys-3 Flr-4 Sch-H HPlcmt-core ZN NECB System 3 PSZ Occ Sch Winter Design Day, !- WinterDesignDay Schedule:Day Name\n   ** Warning ** IP: IDF line~7152 Alpha Argument length exceeds maximum, will be truncated=  Sp-ICU_NurseStn_Lobby_Flr_2 Sys-3 Flr-4 Sch-H HPlcmt-core ZN NECB System 3 PSZ Occ Sch Winter Design Da\n   **   ~~~   ** Will be processed as Alpha=SP-ICU_NURSESTN_LOBBY_FLR_2 SYS-3 FLR-4 SCH-H HPLCMT-CORE ZN NECB SYSTEM 3 PSZ OCC SCH WINTER DESIGN DAY\n   ************* IDF Context for following error/warning message:\n   ************* Note -- lines truncated at 300 characters, if necessary...\n   *************   7172 Schedule:Day:Interval,\n   ************* indicated Name=Sp-ICU_NurseStn_Lobby_Flr_2 Sys-3 Flr-4 Sch-H HPlcmt-core ZN NECB System 3 PSZ Occ Sch Summer Design Day\n   ************* Only last 1 lines before error line shown.....\n   *************   7173   Sp-ICU_NurseStn_Lobby_Flr_2 Sys-3 Flr-4 Sch-H HPlcmt-core ZN NECB System 3 PSZ Occ Sch Summer Design Day, !- Name\n   ** Warning ** IP: IDF line~7173 Alpha Argument length exceeds maximum, will be truncated=  Sp-ICU_NurseStn_Lobby_Flr_2 Sys-3 Flr-4 Sch-H HPlcmt-core ZN NECB System 3 PSZ Occ Sch Summer Design Da\n   **   ~~~   ** Will be processed as Alpha=SP-ICU_NURSESTN_LOBBY_FLR_2 SYS-3 FLR-4 SCH-H HPLCMT-CORE ZN NECB SYSTEM 3 PSZ OCC SCH SUMMER DESIGN DAY\n   ************* IDF Context for following error/warning message:\n   ************* Note -- lines truncated at 300 characters, if necessary...\n   *************   7179 Schedule:Day:Interval,\n   ************* indicated Name=Sp-ICU_NurseStn_Lobby_Flr_2 Sys-3 Flr-4 Sch-H HPlcmt-core ZN NECB System 3 PSZ Occ Sch Winter Design Day\n   ************* Only last 1 lines before error line shown.....\n   *************   7180   Sp-ICU_NurseStn_Lobby_Flr_2 Sys-3 Flr-4 Sch-H HPlcmt-core ZN NECB System 3 PSZ Occ Sch Winter Design Day, !- Name\n   ** Warning ** IP: IDF line~7180 Alpha Argument length exceeds maximum, will be truncated=  Sp-ICU_NurseStn_Lobby_Flr_2 Sys-3 Flr-4 Sch-H HPlcmt-core ZN NECB System 3 PSZ Occ Sch Winter Design Da\n   **   ~~~   ** Will be processed as Alpha=SP-ICU_NURSESTN_LOBBY_FLR_2 SYS-3 FLR-4 SCH-H HPLCMT-CORE ZN NECB SYSTEM 3 PSZ OCC SCH WINTER DESIGN DAY\n   ************* IDF Context for following error/warning message:\n   ************* Note -- lines truncated at 300 characters, if necessary...\n   *************   7990 Schedule:Week:Daily,\n   ************* indicated Name=Schedule:Week:Daily {e65e6cde-2dda-4500-9929-cf163d8575dc}\n   ************* Only last 10 lines before error line shown.....\n   *************   7991   Schedule:Week:Daily {e65e6cde-2dda-4500-9929-cf163d8575dc}, !- Name\n   *************   7992   Sp-IC_PatRoom3_Mult6_Flr_2 Sys-3 Flr-4 Sch-H HPlcmt-west ZN NECB System 3 PSZ Occ Sch Sunday, !- Sunday Schedule:Day Name\n   *************   7993   Sp-IC_PatRoom3_Mult6_Flr_2 Sys-3 Flr-4 Sch-H HPlcmt-west ZN NECB System 3 PSZ Occ Sch Monday, !- Monday Schedule:Day Name\n   *************   7994   Sp-IC_PatRoom3_Mult6_Flr_2 Sys-3 Flr-4 Sch-H HPlcmt-west ZN NECB System 3 PSZ Occ Sch Tuesday, !- Tuesday Schedule:Day Name\n   *************   7995   Sp-IC_PatRoom3_Mult6_Flr_2 Sys-3 Flr-4 Sch-H HPlcmt-west ZN NECB System 3 PSZ Occ Sch Wednesday, !- Wednesday Schedule:Day Name\n   *************   7996   Sp-IC_PatRoom3_Mult6_Flr_2 Sys-3 Flr-4 Sch-H HPlcmt-west ZN NECB System 3 PSZ Occ Sch Thursday, !- Thursday Schedule:Day Name\n   *************   7997   Sp-IC_PatRoom3_Mult6_Flr_2 Sys-3 Flr-4 Sch-H HPlcmt-west ZN NECB System 3 PSZ Occ Sch Friday, !- Friday Schedule:Day Name\n   *************   7998   Sp-IC_PatRoom3_Mult6_Flr_2 Sys-3 Flr-4 Sch-H HPlcmt-west ZN NECB System 3 PSZ Occ Sch Saturday, !- Saturday Schedule:Day Name\n   *************   7999   Sp-IC_PatRoom3_Mult6_Flr_2 Sys-3 Flr-4 Sch-H HPlcmt-west ZN NECB System 3 PSZ Occ Sch Default, !- Holiday Schedule:Day Name\n   *************   8000   Sp-IC_PatRoom3_Mult6_Flr_2 Sys-3 Flr-4 Sch-H HPlcmt-west ZN NECB System 3 PSZ Occ Sch Summer Design Day, !- SummerDesignDay Schedule:Day Name\n   ** Warning ** IP: IDF line~8000 Alpha Argument length exceeds maximum, will be truncated=  Sp-IC_PatRoom3_Mult6_Flr_2 Sys-3 Flr-4 Sch-H HPlcmt-west ZN NECB System 3 PSZ Occ Sch Summer Design Da\n   **   ~~~   ** Will be processed as Alpha=SP-IC_PATROOM3_MULT6_FLR_2 SYS-3 FLR-4 SCH-H HPLCMT-WEST ZN NECB SYSTEM 3 PSZ OCC SCH SUMMER DESIGN DAY\n   ************* IDF Context for following error/warning message:\n   ************* Note -- lines truncated at 300 characters, if necessary...\n   *************   7990 Schedule:Week:Daily,\n   ************* indicated Name=Schedule:Week:Daily {e65e6cde-2dda-4500-9929-cf163d8575dc}\n   ************* Only last 10 lines before error line shown.....\n   *************   7992   Sp-IC_PatRoom3_Mult6_Flr_2 Sys-3 Flr-4 Sch-H HPlcmt-west ZN NECB System 3 PSZ Occ Sch Sunday, !- Sunday Schedule:Day Name\n   *************   7993   Sp-IC_PatRoom3_Mult6_Flr_2 Sys-3 Flr-4 Sch-H HPlcmt-west ZN NECB System 3 PSZ Occ Sch Monday, !- Monday Schedule:Day Name\n   *************   7994   Sp-IC_PatRoom3_Mult6_Flr_2 Sys-3 Flr-4 Sch-H HPlcmt-west ZN NECB System 3 PSZ Occ Sch Tuesday, !- Tuesday Schedule:Day Name\n   *************   7995   Sp-IC_PatRoom3_Mult6_Flr_2 Sys-3 Flr-4 Sch-H HPlcmt-west ZN NECB System 3 PSZ Occ Sch Wednesday, !- Wednesday Schedule:Day Name\n   *************   7996   Sp-IC_PatRoom3_Mult6_Flr_2 Sys-3 Flr-4 Sch-H HPlcmt-west ZN NECB System 3 PSZ Occ Sch Thursday, !- Thursday Schedule:Day Name\n   *************   7997   Sp-IC_PatRoom3_Mult6_Flr_2 Sys-3 Flr-4 Sch-H HPlcmt-west ZN NECB System 3 PSZ Occ Sch Friday, !- Friday Schedule:Day Name\n   *************   7998   Sp-IC_PatRoom3_Mult6_Flr_2 Sys-3 Flr-4 Sch-H HPlcmt-west ZN NECB System 3 PSZ Occ Sch Saturday, !- Saturday Schedule:Day Name\n   *************   7999   Sp-IC_PatRoom3_Mult6_Flr_2 Sys-3 Flr-4 Sch-H HPlcmt-west ZN NECB System 3 PSZ Occ Sch Default, !- Holiday Schedule:Day Name\n   *************   8000   Sp-IC_PatRoom3_Mult6_Flr_2 Sys-3 Flr-4 Sch-H HPlcmt-west ZN NECB System 3 PSZ Occ Sch Summer Design Day, !- SummerDesignDay Schedule:Day Name\n   *************   8001   Sp-IC_PatRoom3_Mult6_Flr_2 Sys-3 Flr-4 Sch-H HPlcmt-west ZN NECB System 3 PSZ Occ Sch Winter Design Day, !- WinterDesignDay Schedule:Day Name\n   ** Warning ** IP: IDF line~8001 Alpha Argument length exceeds maximum, will be truncated=  Sp-IC_PatRoom3_Mult6_Flr_2 Sys-3 Flr-4 Sch-H HPlcmt-west ZN NECB System 3 PSZ Occ Sch Winter Design Da\n   **   ~~~   ** Will be processed as Alpha=SP-IC_PATROOM3_MULT6_FLR_2 SYS-3 FLR-4 SCH-H HPLCMT-WEST ZN NECB SYSTEM 3 PSZ OCC SCH WINTER DESIGN DAY\n   ************* IDF Context for following error/warning message:\n   ************* Note -- lines truncated at 300 characters, if necessary...\n   *************   8021 Schedule:Day:Interval,\n   ************* indicated Name=Sp-IC_PatRoom3_Mult6_Flr_2 Sys-3 Flr-4 Sch-H HPlcmt-west ZN NECB System 3 PSZ Occ Sch Summer Design Day\n   ************* Only last 1 lines before error line shown.....\n   *************   8022   Sp-IC_PatRoom3_Mult6_Flr_2 Sys-3 Flr-4 Sch-H HPlcmt-west ZN NECB System 3 PSZ Occ Sch Summer Design Day, !- Name\n   ** Warning ** IP: IDF line~8022 Alpha Argument length exceeds maximum, will be truncated=  Sp-IC_PatRoom3_Mult6_Flr_2 Sys-3 Flr-4 Sch-H HPlcmt-west ZN NECB System 3 PSZ Occ Sch Summer Design Da\n   **   ~~~   ** Will be processed as Alpha=SP-IC_PATROOM3_MULT6_FLR_2 SYS-3 FLR-4 SCH-H HPLCMT-WEST ZN NECB SYSTEM 3 PSZ OCC SCH SUMMER DESIGN DAY\n   ************* IDF Context for following error/warning message:\n   ************* Note -- lines truncated at 300 characters, if necessary...\n   *************   8028 Schedule:Day:Interval,\n   ************* indicated Name=Sp-IC_PatRoom3_Mult6_Flr_2 Sys-3 Flr-4 Sch-H HPlcmt-west ZN NECB System 3 PSZ Occ Sch Winter Design Day\n   ************* Only last 1 lines before error line shown.....\n   *************   8029   Sp-IC_PatRoom3_Mult6_Flr_2 Sys-3 Flr-4 Sch-H HPlcmt-west ZN NECB System 3 PSZ Occ Sch Winter Design Day, !- Name\n   ** Warning ** IP: IDF line~8029 Alpha Argument length exceeds maximum, will be truncated=  Sp-IC_PatRoom3_Mult6_Flr_2 Sys-3 Flr-4 Sch-H HPlcmt-west ZN NECB System 3 PSZ Occ Sch Winter Design Da\n   **   ~~~   ** Will be processed as Alpha=SP-IC_PATROOM3_MULT6_FLR_2 SYS-3 FLR-4 SCH-H HPLCMT-WEST ZN NECB SYSTEM 3 PSZ OCC SCH WINTER DESIGN DAY\n   ************* IDF Context for following error/warning message:\n   ************* Note -- lines truncated at 300 characters, if necessary...\n   *************  10685 Schedule:Week:Daily,\n   ************* indicated Name=Schedule:Week:Daily {a6acd150-c273-46d4-acee-81ef5703db1c}\n   ************* Only last 10 lines before error line shown.....\n   *************  10686   Schedule:Week:Daily {a6acd150-c273-46d4-acee-81ef5703db1c}, !- Name\n   *************  10687   Sp-NurseStn_Lobby_Flr_5 Sys-3 Flr-6 Sch-H HPlcmt-south ZN NECB System 3 PSZ Occ Sch Sunday, !- Sunday Schedule:Day Name\n   *************  10688   Sp-NurseStn_Lobby_Flr_5 Sys-3 Flr-6 Sch-H HPlcmt-south ZN NECB System 3 PSZ Occ Sch Monday, !- Monday Schedule:Day Name\n   *************  10689   Sp-NurseStn_Lobby_Flr_5 Sys-3 Flr-6 Sch-H HPlcmt-south ZN NECB System 3 PSZ Occ Sch Tuesday, !- Tuesday Schedule:Day Name\n   *************  10690   Sp-NurseStn_Lobby_Flr_5 Sys-3 Flr-6 Sch-H HPlcmt-south ZN NECB System 3 PSZ Occ Sch Wednesday, !- Wednesday Schedule:Day Name\n   *************  10691   Sp-NurseStn_Lobby_Flr_5 Sys-3 Flr-6 Sch-H HPlcmt-south ZN NECB System 3 PSZ Occ Sch Thursday, !- Thursday Schedule:Day Name\n   *************  10692   Sp-NurseStn_Lobby_Flr_5 Sys-3 Flr-6 Sch-H HPlcmt-south ZN NECB System 3 PSZ Occ Sch Friday, !- Friday Schedule:Day Name\n   *************  10693   Sp-NurseStn_Lobby_Flr_5 Sys-3 Flr-6 Sch-H HPlcmt-south ZN NECB System 3 PSZ Occ Sch Saturday, !- Saturday Schedule:Day Name\n   *************  10694   Sp-NurseStn_Lobby_Flr_5 Sys-3 Flr-6 Sch-H HPlcmt-south ZN NECB System 3 PSZ Occ Sch Default, !- Holiday Schedule:Day Name\n   *************  10695   Sp-NurseStn_Lobby_Flr_5 Sys-3 Flr-6 Sch-H HPlcmt-south ZN NECB System 3 PSZ Occ Sch Summer Design Day, !- SummerDesignDay Schedule:Day Name\n   ** Warning ** IP: IDF line~10695 Alpha Argument length exceeds maximum, will be truncated=  Sp-NurseStn_Lobby_Flr_5 Sys-3 Flr-6 Sch-H HPlcmt-south ZN NECB System 3 PSZ Occ Sch Summer Design Da\n   **   ~~~   ** Will be processed as Alpha=SP-NURSESTN_LOBBY_FLR_5 SYS-3 FLR-6 SCH-H HPLCMT-SOUTH ZN NECB SYSTEM 3 PSZ OCC SCH SUMMER DESIGN DAY\n   ************* IDF Context for following error/warning message:\n   ************* Note -- lines truncated at 300 characters, if necessary...\n   *************  10685 Schedule:Week:Daily,\n   ************* indicated Name=Schedule:Week:Daily {a6acd150-c273-46d4-acee-81ef5703db1c}\n   ************* Only last 10 lines before error line shown.....\n   *************  10687   Sp-NurseStn_Lobby_Flr_5 Sys-3 Flr-6 Sch-H HPlcmt-south ZN NECB System 3 PSZ Occ Sch Sunday, !- Sunday Schedule:Day Name\n   *************  10688   Sp-NurseStn_Lobby_Flr_5 Sys-3 Flr-6 Sch-H HPlcmt-south ZN NECB System 3 PSZ Occ Sch Monday, !- Monday Schedule:Day Name\n   *************  10689   Sp-NurseStn_Lobby_Flr_5 Sys-3 Flr-6 Sch-H HPlcmt-south ZN NECB System 3 PSZ Occ Sch Tuesday, !- Tuesday Schedule:Day Name\n   *************  10690   Sp-NurseStn_Lobby_Flr_5 Sys-3 Flr-6 Sch-H HPlcmt-south ZN NECB System 3 PSZ Occ Sch Wednesday, !- Wednesday Schedule:Day Name\n   *************  10691   Sp-NurseStn_Lobby_Flr_5 Sys-3 Flr-6 Sch-H HPlcmt-south ZN NECB System 3 PSZ Occ Sch Thursday, !- Thursday Schedule:Day Name\n   *************  10692   Sp-NurseStn_Lobby_Flr_5 Sys-3 Flr-6 Sch-H HPlcmt-south ZN NECB System 3 PSZ Occ Sch Friday, !- Friday Schedule:Day Name\n   *************  10693   Sp-NurseStn_Lobby_Flr_5 Sys-3 Flr-6 Sch-H HPlcmt-south ZN NECB System 3 PSZ Occ Sch Saturday, !- Saturday Schedule:Day Name\n   *************  10694   Sp-NurseStn_Lobby_Flr_5 Sys-3 Flr-6 Sch-H HPlcmt-south ZN NECB System 3 PSZ Occ Sch Default, !- Holiday Schedule:Day Name\n   *************  10695   Sp-NurseStn_Lobby_Flr_5 Sys-3 Flr-6 Sch-H HPlcmt-south ZN NECB System 3 PSZ Occ Sch Summer Design Day, !- SummerDesignDay Schedule:Day Name\n   *************  10696   Sp-NurseStn_Lobby_Flr_5 Sys-3 Flr-6 Sch-H HPlcmt-south ZN NECB System 3 PSZ Occ Sch Winter Design Day, !- WinterDesignDay Schedule:Day Name\n   ** Warning ** IP: IDF line~10696 Alpha Argument length exceeds maximum, will be truncated=  Sp-NurseStn_Lobby_Flr_5 Sys-3 Flr-6 Sch-H HPlcmt-south ZN NECB System 3 PSZ Occ Sch Winter Design Da\n   **   ~~~   ** Will be processed as Alpha=SP-NURSESTN_LOBBY_FLR_5 SYS-3 FLR-6 SCH-H HPLCMT-SOUTH ZN NECB SYSTEM 3 PSZ OCC SCH WINTER DESIGN DAY\n   ************* IDF Context for following error/warning message:\n   ************* Note -- lines truncated at 300 characters, if necessary...\n   *************  10716 Schedule:Day:Interval,\n   ************* indicated Name=Sp-NurseStn_Lobby_Flr_5 Sys-3 Flr-6 Sch-H HPlcmt-south ZN NECB System 3 PSZ Occ Sch Summer Design Day\n   ************* Only last 1 lines before error line shown.....\n   *************  10717   Sp-NurseStn_Lobby_Flr_5 Sys-3 Flr-6 Sch-H HPlcmt-south ZN NECB System 3 PSZ Occ Sch Summer Design Day, !- Name\n   ** Warning ** IP: IDF line~10717 Alpha Argument length exceeds maximum, will be truncated=  Sp-NurseStn_Lobby_Flr_5 Sys-3 Flr-6 Sch-H HPlcmt-south ZN NECB System 3 PSZ Occ Sch Summer Design Da\n   **   ~~~   ** Will be processed as Alpha=SP-NURSESTN_LOBBY_FLR_5 SYS-3 FLR-6 SCH-H HPLCMT-SOUTH ZN NECB SYSTEM 3 PSZ OCC SCH SUMMER DESIGN DAY\n   ************* IDF Context for following error/warning message:\n   ************* Note -- lines truncated at 300 characters, if necessary...\n   *************  10723 Schedule:Day:Interval,\n   ************* indicated Name=Sp-NurseStn_Lobby_Flr_5 Sys-3 Flr-6 Sch-H HPlcmt-south ZN NECB System 3 PSZ Occ Sch Winter Design Day\n   ************* Only last 1 lines before error line shown.....\n   *************  10724   Sp-NurseStn_Lobby_Flr_5 Sys-3 Flr-6 Sch-H HPlcmt-south ZN NECB System 3 PSZ Occ Sch Winter Design Day, !- Name\n   ** Warning ** IP: IDF line~10724 Alpha Argument length exceeds maximum, will be truncated=  Sp-NurseStn_Lobby_Flr_5 Sys-3 Flr-6 Sch-H HPlcmt-south ZN NECB System 3 PSZ Occ Sch Winter Design Da\n   **   ~~~   ** Will be processed as Alpha=SP-NURSESTN_LOBBY_FLR_5 SYS-3 FLR-6 SCH-H HPLCMT-SOUTH ZN NECB SYSTEM 3 PSZ OCC SCH WINTER DESIGN DAY\n   ************* IDF Context for following error/warning message:\n   ************* Note -- lines truncated at 300 characters, if necessary...\n   *************  13860 Schedule:Week:Daily,\n   ************* indicated Name=Schedule:Week:Daily {14f75fdf-66b5-48b6-a3c1-4a758aab40f2}\n   ************* Only last 10 lines before error line shown.....\n   *************  13861   Schedule:Week:Daily {14f75fdf-66b5-48b6-a3c1-4a758aab40f2}, !- Name\n   *************  13862   Sp-OR_NurseStn_Lobby_Flr_2 Sys-3 Flr-4 Sch-H HPlcmt-south ZN NECB System 3 PSZ Occ Sch Sunday, !- Sunday Schedule:Day Name\n   *************  13863   Sp-OR_NurseStn_Lobby_Flr_2 Sys-3 Flr-4 Sch-H HPlcmt-south ZN NECB System 3 PSZ Occ Sch Monday, !- Monday Schedule:Day Name\n   *************  13864   Sp-OR_NurseStn_Lobby_Flr_2 Sys-3 Flr-4 Sch-H HPlcmt-south ZN NECB System 3 PSZ Occ Sch Tuesday, !- Tuesday Schedule:Day Name\n   *************  13865   Sp-OR_NurseStn_Lobby_Flr_2 Sys-3 Flr-4 Sch-H HPlcmt-south ZN NECB System 3 PSZ Occ Sch Wednesday, !- Wednesday Schedule:Day Name\n   *************  13866   Sp-OR_NurseStn_Lobby_Flr_2 Sys-3 Flr-4 Sch-H HPlcmt-south ZN NECB System 3 PSZ Occ Sch Thursday, !- Thursday Schedule:Day Name\n   *************  13867   Sp-OR_NurseStn_Lobby_Flr_2 Sys-3 Flr-4 Sch-H HPlcmt-south ZN NECB System 3 PSZ Occ Sch Friday, !- Friday Schedule:Day Name\n   *************  13868   Sp-OR_NurseStn_Lobby_Flr_2 Sys-3 Flr-4 Sch-H HPlcmt-south ZN NECB System 3 PSZ Occ Sch Saturday, !- Saturday Schedule:Day Name\n   *************  13869   Sp-OR_NurseStn_Lobby_Flr_2 Sys-3 Flr-4 Sch-H HPlcmt-south ZN NECB System 3 PSZ Occ Sch Default, !- Holiday Schedule:Day Name\n   *************  13870   Sp-OR_NurseStn_Lobby_Flr_2 Sys-3 Flr-4 Sch-H HPlcmt-south ZN NECB System 3 PSZ Occ Sch Summer Design Day, !- SummerDesignDay Schedule:Day Name\n   ** Warning ** IP: IDF line~13870 Alpha Argument length exceeds maximum, will be truncated=  Sp-OR_NurseStn_Lobby_Flr_2 Sys-3 Flr-4 Sch-H HPlcmt-south ZN NECB System 3 PSZ Occ Sch Summer Design Da\n   **   ~~~   ** Will be processed as Alpha=SP-OR_NURSESTN_LOBBY_FLR_2 SYS-3 FLR-4 SCH-H HPLCMT-SOUTH ZN NECB SYSTEM 3 PSZ OCC SCH SUMMER DESIGN DAY\n   ************* IDF Context for following error/warning message:\n   ************* Note -- lines truncated at 300 characters, if necessary...\n   *************  13860 Schedule:Week:Daily,\n   ************* indicated Name=Schedule:Week:Daily {14f75fdf-66b5-48b6-a3c1-4a758aab40f2}\n   ************* Only last 10 lines before error line shown.....\n   *************  13862   Sp-OR_NurseStn_Lobby_Flr_2 Sys-3 Flr-4 Sch-H HPlcmt-south ZN NECB System 3 PSZ Occ Sch Sunday, !- Sunday Schedule:Day Name\n   *************  13863   Sp-OR_NurseStn_Lobby_Flr_2 Sys-3 Flr-4 Sch-H HPlcmt-south ZN NECB System 3 PSZ Occ Sch Monday, !- Monday Schedule:Day Name\n   *************  13864   Sp-OR_NurseStn_Lobby_Flr_2 Sys-3 Flr-4 Sch-H HPlcmt-south ZN NECB System 3 PSZ Occ Sch Tuesday, !- Tuesday Schedule:Day Name\n   *************  13865   Sp-OR_NurseStn_Lobby_Flr_2 Sys-3 Flr-4 Sch-H HPlcmt-south ZN NECB System 3 PSZ Occ Sch Wednesday, !- Wednesday Schedule:Day Name\n   *************  13866   Sp-OR_NurseStn_Lobby_Flr_2 Sys-3 Flr-4 Sch-H HPlcmt-south ZN NECB System 3 PSZ Occ Sch Thursday, !- Thursday Schedule:Day Name\n   *************  13867   Sp-OR_NurseStn_Lobby_Flr_2 Sys-3 Flr-4 Sch-H HPlcmt-south ZN NECB System 3 PSZ Occ Sch Friday, !- Friday Schedule:Day Name\n   *************  13868   Sp-OR_NurseStn_Lobby_Flr_2 Sys-3 Flr-4 Sch-H HPlcmt-south ZN NECB System 3 PSZ Occ Sch Saturday, !- Saturday Schedule:Day Name\n   *************  13869   Sp-OR_NurseStn_Lobby_Flr_2 Sys-3 Flr-4 Sch-H HPlcmt-south ZN NECB System 3 PSZ Occ Sch Default, !- Holiday Schedule:Day Name\n   *************  13870   Sp-OR_NurseStn_Lobby_Flr_2 Sys-3 Flr-4 Sch-H HPlcmt-south ZN NECB System 3 PSZ Occ Sch Summer Design Day, !- SummerDesignDay Schedule:Day Name\n   *************  13871   Sp-OR_NurseStn_Lobby_Flr_2 Sys-3 Flr-4 Sch-H HPlcmt-south ZN NECB System 3 PSZ Occ Sch Winter Design Day, !- WinterDesignDay Schedule:Day Name\n   ** Warning ** IP: IDF line~13871 Alpha Argument length exceeds maximum, will be truncated=  Sp-OR_NurseStn_Lobby_Flr_2 Sys-3 Flr-4 Sch-H HPlcmt-south ZN NECB System 3 PSZ Occ Sch Winter Design Da\n   **   ~~~   ** Will be processed as Alpha=SP-OR_NURSESTN_LOBBY_FLR_2 SYS-3 FLR-4 SCH-H HPLCMT-SOUTH ZN NECB SYSTEM 3 PSZ OCC SCH WINTER DESIGN DAY\n   ************* IDF Context for following error/warning message:\n   ************* Note -- lines truncated at 300 characters, if necessary...\n   *************  13891 Schedule:Day:Interval,\n   ************* indicated Name=Sp-OR_NurseStn_Lobby_Flr_2 Sys-3 Flr-4 Sch-H HPlcmt-south ZN NECB System 3 PSZ Occ Sch Summer Design Day\n   ************* Only last 1 lines before error line shown.....\n   *************  13892   Sp-OR_NurseStn_Lobby_Flr_2 Sys-3 Flr-4 Sch-H HPlcmt-south ZN NECB System 3 PSZ Occ Sch Summer Design Day, !- Name\n   ** Warning ** IP: IDF line~13892 Alpha Argument length exceeds maximum, will be truncated=  Sp-OR_NurseStn_Lobby_Flr_2 Sys-3 Flr-4 Sch-H HPlcmt-south ZN NECB System 3 PSZ Occ Sch Summer Design Da\n   **   ~~~   ** Will be processed as Alpha=SP-OR_NURSESTN_LOBBY_FLR_2 SYS-3 FLR-4 SCH-H HPLCMT-SOUTH ZN NECB SYSTEM 3 PSZ OCC SCH SUMMER DESIGN DAY\n   ************* IDF Context for following error/warning message:\n   ************* Note -- lines truncated at 300 characters, if necessary...\n   *************  13898 Schedule:Day:Interval,\n   ************* indicated Name=Sp-OR_NurseStn_Lobby_Flr_2 Sys-3 Flr-4 Sch-H HPlcmt-south ZN NECB System 3 PSZ Occ Sch Winter Design Day\n   ************* Only last 1 lines before error line shown.....\n   *************  13899   Sp-OR_NurseStn_Lobby_Flr_2 Sys-3 Flr-4 Sch-H HPlcmt-south ZN NECB System 3 PSZ Occ Sch Winter Design Day, !- Name\n   ** Warning ** IP: IDF line~13899 Alpha Argument length exceeds maximum, will be truncated=  Sp-OR_NurseStn_Lobby_Flr_2 Sys-3 Flr-4 Sch-H HPlcmt-south ZN NECB System 3 PSZ Occ Sch Winter Design Da\n   **   ~~~   ** Will be processed as Alpha=SP-OR_NURSESTN_LOBBY_FLR_2 SYS-3 FLR-4 SCH-H HPLCMT-SOUTH ZN NECB SYSTEM 3 PSZ OCC SCH WINTER DESIGN DAY\n   ************* IDF Context for following error/warning message:\n   ************* Note -- lines truncated at 300 characters, if necessary...\n   *************  14203 Schedule:Week:Daily,\n   ************* indicated Name=Schedule:Week:Daily {ba114d79-d6e4-4e79-b181-67f54be06d06}\n   ************* Only last 10 lines before error line shown.....\n   *************  14204   Schedule:Week:Daily {ba114d79-d6e4-4e79-b181-67f54be06d06}, !- Name\n   *************  14205   Sp-PatRoom1_Mult10_Flr_3 Sys-3 Flr-2 Sch-H HPlcmt-south ZN NECB System 3 PSZ Occ Sch Sunday, !- Sunday Schedule:Day Name\n   *************  14206   Sp-PatRoom1_Mult10_Flr_3 Sys-3 Flr-2 Sch-H HPlcmt-south ZN NECB System 3 PSZ Occ Sch Monday, !- Monday Schedule:Day Name\n   *************  14207   Sp-PatRoom1_Mult10_Flr_3 Sys-3 Flr-2 Sch-H HPlcmt-south ZN NECB System 3 PSZ Occ Sch Tuesday, !- Tuesday Schedule:Day Name\n   *************  14208   Sp-PatRoom1_Mult10_Flr_3 Sys-3 Flr-2 Sch-H HPlcmt-south ZN NECB System 3 PSZ Occ Sch Wednesday, !- Wednesday Schedule:Day Name\n   *************  14209   Sp-PatRoom1_Mult10_Flr_3 Sys-3 Flr-2 Sch-H HPlcmt-south ZN NECB System 3 PSZ Occ Sch Thursday, !- Thursday Schedule:Day Name\n   *************  14210   Sp-PatRoom1_Mult10_Flr_3 Sys-3 Flr-2 Sch-H HPlcmt-south ZN NECB System 3 PSZ Occ Sch Friday, !- Friday Schedule:Day Name\n   *************  14211   Sp-PatRoom1_Mult10_Flr_3 Sys-3 Flr-2 Sch-H HPlcmt-south ZN NECB System 3 PSZ Occ Sch Saturday, !- Saturday Schedule:Day Name\n   *************  14212   Sp-PatRoom1_Mult10_Flr_3 Sys-3 Flr-2 Sch-H HPlcmt-south ZN NECB System 3 PSZ Occ Sch Default, !- Holiday Schedule:Day Name\n   *************  14213   Sp-PatRoom1_Mult10_Flr_3 Sys-3 Flr-2 Sch-H HPlcmt-south ZN NECB System 3 PSZ Occ Sch Summer Design Day, !- SummerDesignDay Schedule:Day Name\n   ** Warning ** IP: IDF line~14213 Alpha Argument length exceeds maximum, will be truncated=  Sp-PatRoom1_Mult10_Flr_3 Sys-3 Flr-2 Sch-H HPlcmt-south ZN NECB System 3 PSZ Occ Sch Summer Design Da\n   **   ~~~   ** Will be processed as Alpha=SP-PATROOM1_MULT10_FLR_3 SYS-3 FLR-2 SCH-H HPLCMT-SOUTH ZN NECB SYSTEM 3 PSZ OCC SCH SUMMER DESIGN DAY\n   ************* IDF Context for following error/warning message:\n   ************* Note -- lines truncated at 300 characters, if necessary...\n   *************  14203 Schedule:Week:Daily,\n   ************* indicated Name=Schedule:Week:Daily {ba114d79-d6e4-4e79-b181-67f54be06d06}\n   ************* Only last 10 lines before error line shown.....\n   *************  14205   Sp-PatRoom1_Mult10_Flr_3 Sys-3 Flr-2 Sch-H HPlcmt-south ZN NECB System 3 PSZ Occ Sch Sunday, !- Sunday Schedule:Day Name\n   *************  14206   Sp-PatRoom1_Mult10_Flr_3 Sys-3 Flr-2 Sch-H HPlcmt-south ZN NECB System 3 PSZ Occ Sch Monday, !- Monday Schedule:Day Name\n   *************  14207   Sp-PatRoom1_Mult10_Flr_3 Sys-3 Flr-2 Sch-H HPlcmt-south ZN NECB System 3 PSZ Occ Sch Tuesday, !- Tuesday Schedule:Day Name\n   *************  14208   Sp-PatRoom1_Mult10_Flr_3 Sys-3 Flr-2 Sch-H HPlcmt-south ZN NECB System 3 PSZ Occ Sch Wednesday, !- Wednesday Schedule:Day Name\n   *************  14209   Sp-PatRoom1_Mult10_Flr_3 Sys-3 Flr-2 Sch-H HPlcmt-south ZN NECB System 3 PSZ Occ Sch Thursday, !- Thursday Schedule:Day Name\n   *************  14210   Sp-PatRoom1_Mult10_Flr_3 Sys-3 Flr-2 Sch-H HPlcmt-south ZN NECB System 3 PSZ Occ Sch Friday, !- Friday Schedule:Day Name\n   *************  14211   Sp-PatRoom1_Mult10_Flr_3 Sys-3 Flr-2 Sch-H HPlcmt-south ZN NECB System 3 PSZ Occ Sch Saturday, !- Saturday Schedule:Day Name\n   *************  14212   Sp-PatRoom1_Mult10_Flr_3 Sys-3 Flr-2 Sch-H HPlcmt-south ZN NECB System 3 PSZ Occ Sch Default, !- Holiday Schedule:Day Name\n   *************  14213   Sp-PatRoom1_Mult10_Flr_3 Sys-3 Flr-2 Sch-H HPlcmt-south ZN NECB System 3 PSZ Occ Sch Summer Design Day, !- SummerDesignDay Schedule:Day Name\n   *************  14214   Sp-PatRoom1_Mult10_Flr_3 Sys-3 Flr-2 Sch-H HPlcmt-south ZN NECB System 3 PSZ Occ Sch Winter Design Day, !- WinterDesignDay Schedule:Day Name\n   ** Warning ** IP: IDF line~14214 Alpha Argument length exceeds maximum, will be truncated=  Sp-PatRoom1_Mult10_Flr_3 Sys-3 Flr-2 Sch-H HPlcmt-south ZN NECB System 3 PSZ Occ Sch Winter Design Da\n   **   ~~~   ** Will be processed as Alpha=SP-PATROOM1_MULT10_FLR_3 SYS-3 FLR-2 SCH-H HPLCMT-SOUTH ZN NECB SYSTEM 3 PSZ OCC SCH WINTER DESIGN DAY\n   ************* IDF Context for following error/warning message:\n   ************* Note -- lines truncated at 300 characters, if necessary...\n   *************  14234 Schedule:Day:Interval,\n   ************* indicated Name=Sp-PatRoom1_Mult10_Flr_3 Sys-3 Flr-2 Sch-H HPlcmt-south ZN NECB System 3 PSZ Occ Sch Summer Design Day\n   ************* Only last 1 lines before error line shown.....\n   *************  14235   Sp-PatRoom1_Mult10_Flr_3 Sys-3 Flr-2 Sch-H HPlcmt-south ZN NECB System 3 PSZ Occ Sch Summer Design Day, !- Name\n   ** Warning ** IP: IDF line~14235 Alpha Argument length exceeds maximum, will be truncated=  Sp-PatRoom1_Mult10_Flr_3 Sys-3 Flr-2 Sch-H HPlcmt-south ZN NECB System 3 PSZ Occ Sch Summer Design Da\n   **   ~~~   ** Will be processed as Alpha=SP-PATROOM1_MULT10_FLR_3 SYS-3 FLR-2 SCH-H HPLCMT-SOUTH ZN NECB SYSTEM 3 PSZ OCC SCH SUMMER DESIGN DAY\n   ************* IDF Context for following error/warning message:\n   ************* Note -- lines truncated at 300 characters, if necessary...\n   *************  14241 Schedule:Day:Interval,\n   ************* indicated Name=Sp-PatRoom1_Mult10_Flr_3 Sys-3 Flr-2 Sch-H HPlcmt-south ZN NECB System 3 PSZ Occ Sch Winter Design Day\n   ************* Only last 1 lines before error line shown.....\n   *************  14242   Sp-PatRoom1_Mult10_Flr_3 Sys-3 Flr-2 Sch-H HPlcmt-south ZN NECB System 3 PSZ Occ Sch Winter Design Day, !- Name\n   ** Warning ** IP: IDF line~14242 Alpha Argument length exceeds maximum, will be truncated=  Sp-PatRoom1_Mult10_Flr_3 Sys-3 Flr-2 Sch-H HPlcmt-south ZN NECB System 3 PSZ Occ Sch Winter Design Da\n   **   ~~~   ** Will be processed as Alpha=SP-PATROOM1_MULT10_FLR_3 SYS-3 FLR-2 SCH-H HPLCMT-SOUTH ZN NECB SYSTEM 3 PSZ OCC SCH WINTER DESIGN DAY\n   ************* IDF Context for following error/warning message:\n   ************* Note -- lines truncated at 300 characters, if necessary...\n   *************  14546 Schedule:Week:Daily,\n   ************* indicated Name=Schedule:Week:Daily {ed63ad78-d48d-4adf-9193-81201c17e0e0}\n   ************* Only last 10 lines before error line shown.....\n   *************  14547   Schedule:Week:Daily {ed63ad78-d48d-4adf-9193-81201c17e0e0}, !- Name\n   *************  14548   Sp-PatRoom1_Mult10_Flr_4 Sys-3 Flr-3 Sch-H HPlcmt-south ZN NECB System 3 PSZ Occ Sch Sunday, !- Sunday Schedule:Day Name\n   *************  14549   Sp-PatRoom1_Mult10_Flr_4 Sys-3 Flr-3 Sch-H HPlcmt-south ZN NECB System 3 PSZ Occ Sch Monday, !- Monday Schedule:Day Name\n   *************  14550   Sp-PatRoom1_Mult10_Flr_4 Sys-3 Flr-3 Sch-H HPlcmt-south ZN NECB System 3 PSZ Occ Sch Tuesday, !- Tuesday Schedule:Day Name\n   *************  14551   Sp-PatRoom1_Mult10_Flr_4 Sys-3 Flr-3 Sch-H HPlcmt-south ZN NECB System 3 PSZ Occ Sch Wednesday, !- Wednesday Schedule:Day Name\n   *************  14552   Sp-PatRoom1_Mult10_Flr_4 Sys-3 Flr-3 Sch-H HPlcmt-south ZN NECB System 3 PSZ Occ Sch Thursday, !- Thursday Schedule:Day Name\n   *************  14553   Sp-PatRoom1_Mult10_Flr_4 Sys-3 Flr-3 Sch-H HPlcmt-south ZN NECB System 3 PSZ Occ Sch Friday, !- Friday Schedule:Day Name\n   *************  14554   Sp-PatRoom1_Mult10_Flr_4 Sys-3 Flr-3 Sch-H HPlcmt-south ZN NECB System 3 PSZ Occ Sch Saturday, !- Saturday Schedule:Day Name\n   *************  14555   Sp-PatRoom1_Mult10_Flr_4 Sys-3 Flr-3 Sch-H HPlcmt-south ZN NECB System 3 PSZ Occ Sch Default, !- Holiday Schedule:Day Name\n   *************  14556   Sp-PatRoom1_Mult10_Flr_4 Sys-3 Flr-3 Sch-H HPlcmt-south ZN NECB System 3 PSZ Occ Sch Summer Design Day, !- SummerDesignDay Schedule:Day Name\n   ** Warning ** IP: IDF line~14556 Alpha Argument length exceeds maximum, will be truncated=  Sp-PatRoom1_Mult10_Flr_4 Sys-3 Flr-3 Sch-H HPlcmt-south ZN NECB System 3 PSZ Occ Sch Summer Design Da\n   **   ~~~   ** Will be processed as Alpha=SP-PATROOM1_MULT10_FLR_4 SYS-3 FLR-3 SCH-H HPLCMT-SOUTH ZN NECB SYSTEM 3 PSZ OCC SCH SUMMER DESIGN DAY\n   ************* IDF Context for following error/warning message:\n   ************* Note -- lines truncated at 300 characters, if necessary...\n   *************  14546 Schedule:Week:Daily,\n   ************* indicated Name=Schedule:Week:Daily {ed63ad78-d48d-4adf-9193-81201c17e0e0}\n   ************* Only last 10 lines before error line shown.....\n   *************  14548   Sp-PatRoom1_Mult10_Flr_4 Sys-3 Flr-3 Sch-H HPlcmt-south ZN NECB System 3 PSZ Occ Sch Sunday, !- Sunday Schedule:Day Name\n   *************  14549   Sp-PatRoom1_Mult10_Flr_4 Sys-3 Flr-3 Sch-H HPlcmt-south ZN NECB System 3 PSZ Occ Sch Monday, !- Monday Schedule:Day Name\n   *************  14550   Sp-PatRoom1_Mult10_Flr_4 Sys-3 Flr-3 Sch-H HPlcmt-south ZN NECB System 3 PSZ Occ Sch Tuesday, !- Tuesday Schedule:Day Name\n   *************  14551   Sp-PatRoom1_Mult10_Flr_4 Sys-3 Flr-3 Sch-H HPlcmt-south ZN NECB System 3 PSZ Occ Sch Wednesday, !- Wednesday Schedule:Day Name\n   *************  14552   Sp-PatRoom1_Mult10_Flr_4 Sys-3 Flr-3 Sch-H HPlcmt-south ZN NECB System 3 PSZ Occ Sch Thursday, !- Thursday Schedule:Day Name\n   *************  14553   Sp-PatRoom1_Mult10_Flr_4 Sys-3 Flr-3 Sch-H HPlcmt-south ZN NECB System 3 PSZ Occ Sch Friday, !- Friday Schedule:Day Name\n   *************  14554   Sp-PatRoom1_Mult10_Flr_4 Sys-3 Flr-3 Sch-H HPlcmt-south ZN NECB System 3 PSZ Occ Sch Saturday, !- Saturday Schedule:Day Name\n   *************  14555   Sp-PatRoom1_Mult10_Flr_4 Sys-3 Flr-3 Sch-H HPlcmt-south ZN NECB System 3 PSZ Occ Sch Default, !- Holiday Schedule:Day Name\n   *************  14556   Sp-PatRoom1_Mult10_Flr_4 Sys-3 Flr-3 Sch-H HPlcmt-south ZN NECB System 3 PSZ Occ Sch Summer Design Day, !- SummerDesignDay Schedule:Day Name\n   *************  14557   Sp-PatRoom1_Mult10_Flr_4 Sys-3 Flr-3 Sch-H HPlcmt-south ZN NECB System 3 PSZ Occ Sch Winter Design Day, !- WinterDesignDay Schedule:Day Name\n   ** Warning ** IP: IDF line~14557 Alpha Argument length exceeds maximum, will be truncated=  Sp-PatRoom1_Mult10_Flr_4 Sys-3 Flr-3 Sch-H HPlcmt-south ZN NECB System 3 PSZ Occ Sch Winter Design Da\n   **   ~~~   ** Will be processed as Alpha=SP-PATROOM1_MULT10_FLR_4 SYS-3 FLR-3 SCH-H HPLCMT-SOUTH ZN NECB SYSTEM 3 PSZ OCC SCH WINTER DESIGN DAY\n   ************* IDF Context for following error/warning message:\n   ************* Note -- lines truncated at 300 characters, if necessary...\n   *************  14577 Schedule:Day:Interval,\n   ************* indicated Name=Sp-PatRoom1_Mult10_Flr_4 Sys-3 Flr-3 Sch-H HPlcmt-south ZN NECB System 3 PSZ Occ Sch Summer Design Day\n   ************* Only last 1 lines before error line shown.....\n   *************  14578   Sp-PatRoom1_Mult10_Flr_4 Sys-3 Flr-3 Sch-H HPlcmt-south ZN NECB System 3 PSZ Occ Sch Summer Design Day, !- Name\n   ** Warning ** IP: IDF line~14578 Alpha Argument length exceeds maximum, will be truncated=  Sp-PatRoom1_Mult10_Flr_4 Sys-3 Flr-3 Sch-H HPlcmt-south ZN NECB System 3 PSZ Occ Sch Summer Design Da\n   **   ~~~   ** Will be processed as Alpha=SP-PATROOM1_MULT10_FLR_4 SYS-3 FLR-3 SCH-H HPLCMT-SOUTH ZN NECB SYSTEM 3 PSZ OCC SCH SUMMER DESIGN DAY\n   ************* IDF Context for following error/warning message:\n   ************* Note -- lines truncated at 300 characters, if necessary...\n   *************  14584 Schedule:Day:Interval,\n   ************* indicated Name=Sp-PatRoom1_Mult10_Flr_4 Sys-3 Flr-3 Sch-H HPlcmt-south ZN NECB System 3 PSZ Occ Sch Winter Design Day\n   ************* Only last 1 lines before error line shown.....\n   *************  14585   Sp-PatRoom1_Mult10_Flr_4 Sys-3 Flr-3 Sch-H HPlcmt-south ZN NECB System 3 PSZ Occ Sch Winter Design Day, !- Name\n   ** Warning ** IP: IDF line~14585 Alpha Argument length exceeds maximum, will be truncated=  Sp-PatRoom1_Mult10_Flr_4 Sys-3 Flr-3 Sch-H HPlcmt-south ZN NECB System 3 PSZ Occ Sch Winter Design Da\n   **   ~~~   ** Will be processed as Alpha=SP-PATROOM1_MULT10_FLR_4 SYS-3 FLR-3 SCH-H HPLCMT-SOUTH ZN NECB SYSTEM 3 PSZ OCC SCH WINTER DESIGN DAY\n   ************* IDF Context for following error/warning message:\n   ************* Note -- lines truncated at 300 characters, if necessary...\n   *************  15451 Schedule:Week:Daily,\n   ************* indicated Name=Schedule:Week:Daily {6cfcb565-fea8-4a87-80a0-63b944ddad42}\n   ************* Only last 10 lines before error line shown.....\n   *************  15452   Schedule:Week:Daily {6cfcb565-fea8-4a87-80a0-63b944ddad42}, !- Name\n   *************  15453   Sp-PatRoom3_Mult10_Flr_3 Sys-3 Flr-2 Sch-H HPlcmt-east ZN NECB System 3 PSZ Occ Sch Sunday, !- Sunday Schedule:Day Name\n   *************  15454   Sp-PatRoom3_Mult10_Flr_3 Sys-3 Flr-2 Sch-H HPlcmt-east ZN NECB System 3 PSZ Occ Sch Monday, !- Monday Schedule:Day Name\n   *************  15455   Sp-PatRoom3_Mult10_Flr_3 Sys-3 Flr-2 Sch-H HPlcmt-east ZN NECB System 3 PSZ Occ Sch Tuesday, !- Tuesday Schedule:Day Name\n   *************  15456   Sp-PatRoom3_Mult10_Flr_3 Sys-3 Flr-2 Sch-H HPlcmt-east ZN NECB System 3 PSZ Occ Sch Wednesday, !- Wednesday Schedule:Day Name\n   *************  15457   Sp-PatRoom3_Mult10_Flr_3 Sys-3 Flr-2 Sch-H HPlcmt-east ZN NECB System 3 PSZ Occ Sch Thursday, !- Thursday Schedule:Day Name\n   *************  15458   Sp-PatRoom3_Mult10_Flr_3 Sys-3 Flr-2 Sch-H HPlcmt-east ZN NECB System 3 PSZ Occ Sch Friday, !- Friday Schedule:Day Name\n   *************  15459   Sp-PatRoom3_Mult10_Flr_3 Sys-3 Flr-2 Sch-H HPlcmt-east ZN NECB System 3 PSZ Occ Sch Saturday, !- Saturday Schedule:Day Name\n   *************  15460   Sp-PatRoom3_Mult10_Flr_3 Sys-3 Flr-2 Sch-H HPlcmt-east ZN NECB System 3 PSZ Occ Sch Default, !- Holiday Schedule:Day Name\n   *************  15461   Sp-PatRoom3_Mult10_Flr_3 Sys-3 Flr-2 Sch-H HPlcmt-east ZN NECB System 3 PSZ Occ Sch Summer Design Day, !- SummerDesignDay Schedule:Day Name\n   ** Warning ** IP: IDF line~15461 Alpha Argument length exceeds maximum, will be truncated=  Sp-PatRoom3_Mult10_Flr_3 Sys-3 Flr-2 Sch-H HPlcmt-east ZN NECB System 3 PSZ Occ Sch Summer Design Da\n   **   ~~~   ** Will be processed as Alpha=SP-PATROOM3_MULT10_FLR_3 SYS-3 FLR-2 SCH-H HPLCMT-EAST ZN NECB SYSTEM 3 PSZ OCC SCH SUMMER DESIGN DAY\n   ************* IDF Context for following error/warning message:\n   ************* Note -- lines truncated at 300 characters, if necessary...\n   *************  15451 Schedule:Week:Daily,\n   ************* indicated Name=Schedule:Week:Daily {6cfcb565-fea8-4a87-80a0-63b944ddad42}\n   ************* Only last 10 lines before error line shown.....\n   *************  15453   Sp-PatRoom3_Mult10_Flr_3 Sys-3 Flr-2 Sch-H HPlcmt-east ZN NECB System 3 PSZ Occ Sch Sunday, !- Sunday Schedule:Day Name\n   *************  15454   Sp-PatRoom3_Mult10_Flr_3 Sys-3 Flr-2 Sch-H HPlcmt-east ZN NECB System 3 PSZ Occ Sch Monday, !- Monday Schedule:Day Name\n   *************  15455   Sp-PatRoom3_Mult10_Flr_3 Sys-3 Flr-2 Sch-H HPlcmt-east ZN NECB System 3 PSZ Occ Sch Tuesday, !- Tuesday Schedule:Day Name\n   *************  15456   Sp-PatRoom3_Mult10_Flr_3 Sys-3 Flr-2 Sch-H HPlcmt-east ZN NECB System 3 PSZ Occ Sch Wednesday, !- Wednesday Schedule:Day Name\n   *************  15457   Sp-PatRoom3_Mult10_Flr_3 Sys-3 Flr-2 Sch-H HPlcmt-east ZN NECB System 3 PSZ Occ Sch Thursday, !- Thursday Schedule:Day Name\n   *************  15458   Sp-PatRoom3_Mult10_Flr_3 Sys-3 Flr-2 Sch-H HPlcmt-east ZN NECB System 3 PSZ Occ Sch Friday, !- Friday Schedule:Day Name\n   *************  15459   Sp-PatRoom3_Mult10_Flr_3 Sys-3 Flr-2 Sch-H HPlcmt-east ZN NECB System 3 PSZ Occ Sch Saturday, !- Saturday Schedule:Day Name\n   *************  15460   Sp-PatRoom3_Mult10_Flr_3 Sys-3 Flr-2 Sch-H HPlcmt-east ZN NECB System 3 PSZ Occ Sch Default, !- Holiday Schedule:Day Name\n   *************  15461   Sp-PatRoom3_Mult10_Flr_3 Sys-3 Flr-2 Sch-H HPlcmt-east ZN NECB System 3 PSZ Occ Sch Summer Design Day, !- SummerDesignDay Schedule:Day Name\n   *************  15462   Sp-PatRoom3_Mult10_Flr_3 Sys-3 Flr-2 Sch-H HPlcmt-east ZN NECB System 3 PSZ Occ Sch Winter Design Day, !- WinterDesignDay Schedule:Day Name\n   ** Warning ** IP: IDF line~15462 Alpha Argument length exceeds maximum, will be truncated=  Sp-PatRoom3_Mult10_Flr_3 Sys-3 Flr-2 Sch-H HPlcmt-east ZN NECB System 3 PSZ Occ Sch Winter Design Da\n   **   ~~~   ** Will be processed as Alpha=SP-PATROOM3_MULT10_FLR_3 SYS-3 FLR-2 SCH-H HPLCMT-EAST ZN NECB SYSTEM 3 PSZ OCC SCH WINTER DESIGN DAY\n   ************* IDF Context for following error/warning message:\n   ************* Note -- lines truncated at 300 characters, if necessary...\n   *************  15482 Schedule:Day:Interval,\n   ************* indicated Name=Sp-PatRoom3_Mult10_Flr_3 Sys-3 Flr-2 Sch-H HPlcmt-east ZN NECB System 3 PSZ Occ Sch Summer Design Day\n   ************* Only last 1 lines before error line shown.....\n   *************  15483   Sp-PatRoom3_Mult10_Flr_3 Sys-3 Flr-2 Sch-H HPlcmt-east ZN NECB System 3 PSZ Occ Sch Summer Design Day, !- Name\n   ** Warning ** IP: IDF line~15483 Alpha Argument length exceeds maximum, will be truncated=  Sp-PatRoom3_Mult10_Flr_3 Sys-3 Flr-2 Sch-H HPlcmt-east ZN NECB System 3 PSZ Occ Sch Summer Design Da\n   **   ~~~   ** Will be processed as Alpha=SP-PATROOM3_MULT10_FLR_3 SYS-3 FLR-2 SCH-H HPLCMT-EAST ZN NECB SYSTEM 3 PSZ OCC SCH SUMMER DESIGN DAY\n   ************* IDF Context for following error/warning message:\n   ************* Note -- lines truncated at 300 characters, if necessary...\n   *************  15489 Schedule:Day:Interval,\n   ************* indicated Name=Sp-PatRoom3_Mult10_Flr_3 Sys-3 Flr-2 Sch-H HPlcmt-east ZN NECB System 3 PSZ Occ Sch Winter Design Day\n   ************* Only last 1 lines before error line shown.....\n   *************  15490   Sp-PatRoom3_Mult10_Flr_3 Sys-3 Flr-2 Sch-H HPlcmt-east ZN NECB System 3 PSZ Occ Sch Winter Design Day, !- Name\n   ** Warning ** IP: IDF line~15490 Alpha Argument length exceeds maximum, will be truncated=  Sp-PatRoom3_Mult10_Flr_3 Sys-3 Flr-2 Sch-H HPlcmt-east ZN NECB System 3 PSZ Occ Sch Winter Design Da\n   **   ~~~   ** Will be processed as Alpha=SP-PATROOM3_MULT10_FLR_3 SYS-3 FLR-2 SCH-H HPLCMT-EAST ZN NECB SYSTEM 3 PSZ OCC SCH WINTER DESIGN DAY\n   ************* IDF Context for following error/warning message:\n   ************* Note -- lines truncated at 300 characters, if necessary...\n   *************  15794 Schedule:Week:Daily,\n   ************* indicated Name=Schedule:Week:Daily {ac808ac5-ed32-493a-9537-d2c54c68ae93}\n   ************* Only last 10 lines before error line shown.....\n   *************  15795   Schedule:Week:Daily {ac808ac5-ed32-493a-9537-d2c54c68ae93}, !- Name\n   *************  15796   Sp-PatRoom3_Mult10_Flr_4 Sys-3 Flr-3 Sch-H HPlcmt-east ZN NECB System 3 PSZ Occ Sch Sunday, !- Sunday Schedule:Day Name\n   *************  15797   Sp-PatRoom3_Mult10_Flr_4 Sys-3 Flr-3 Sch-H HPlcmt-east ZN NECB System 3 PSZ Occ Sch Monday, !- Monday Schedule:Day Name\n   *************  15798   Sp-PatRoom3_Mult10_Flr_4 Sys-3 Flr-3 Sch-H HPlcmt-east ZN NECB System 3 PSZ Occ Sch Tuesday, !- Tuesday Schedule:Day Name\n   *************  15799   Sp-PatRoom3_Mult10_Flr_4 Sys-3 Flr-3 Sch-H HPlcmt-east ZN NECB System 3 PSZ Occ Sch Wednesday, !- Wednesday Schedule:Day Name\n   *************  15800   Sp-PatRoom3_Mult10_Flr_4 Sys-3 Flr-3 Sch-H HPlcmt-east ZN NECB System 3 PSZ Occ Sch Thursday, !- Thursday Schedule:Day Name\n   *************  15801   Sp-PatRoom3_Mult10_Flr_4 Sys-3 Flr-3 Sch-H HPlcmt-east ZN NECB System 3 PSZ Occ Sch Friday, !- Friday Schedule:Day Name\n   *************  15802   Sp-PatRoom3_Mult10_Flr_4 Sys-3 Flr-3 Sch-H HPlcmt-east ZN NECB System 3 PSZ Occ Sch Saturday, !- Saturday Schedule:Day Name\n   *************  15803   Sp-PatRoom3_Mult10_Flr_4 Sys-3 Flr-3 Sch-H HPlcmt-east ZN NECB System 3 PSZ Occ Sch Default, !- Holiday Schedule:Day Name\n   *************  15804   Sp-PatRoom3_Mult10_Flr_4 Sys-3 Flr-3 Sch-H HPlcmt-east ZN NECB System 3 PSZ Occ Sch Summer Design Day, !- SummerDesignDay Schedule:Day Name\n   ** Warning ** IP: IDF line~15804 Alpha Argument length exceeds maximum, will be truncated=  Sp-PatRoom3_Mult10_Flr_4 Sys-3 Flr-3 Sch-H HPlcmt-east ZN NECB System 3 PSZ Occ Sch Summer Design Da\n   **   ~~~   ** Will be processed as Alpha=SP-PATROOM3_MULT10_FLR_4 SYS-3 FLR-3 SCH-H HPLCMT-EAST ZN NECB SYSTEM 3 PSZ OCC SCH SUMMER DESIGN DAY\n   ************* IDF Context for following error/warning message:\n   ************* Note -- lines truncated at 300 characters, if necessary...\n   *************  15794 Schedule:Week:Daily,\n   ************* indicated Name=Schedule:Week:Daily {ac808ac5-ed32-493a-9537-d2c54c68ae93}\n   ************* Only last 10 lines before error line shown.....\n   *************  15796   Sp-PatRoom3_Mult10_Flr_4 Sys-3 Flr-3 Sch-H HPlcmt-east ZN NECB System 3 PSZ Occ Sch Sunday, !- Sunday Schedule:Day Name\n   *************  15797   Sp-PatRoom3_Mult10_Flr_4 Sys-3 Flr-3 Sch-H HPlcmt-east ZN NECB System 3 PSZ Occ Sch Monday, !- Monday Schedule:Day Name\n   *************  15798   Sp-PatRoom3_Mult10_Flr_4 Sys-3 Flr-3 Sch-H HPlcmt-east ZN NECB System 3 PSZ Occ Sch Tuesday, !- Tuesday Schedule:Day Name\n   *************  15799   Sp-PatRoom3_Mult10_Flr_4 Sys-3 Flr-3 Sch-H HPlcmt-east ZN NECB System 3 PSZ Occ Sch Wednesday, !- Wednesday Schedule:Day Name\n   *************  15800   Sp-PatRoom3_Mult10_Flr_4 Sys-3 Flr-3 Sch-H HPlcmt-east ZN NECB System 3 PSZ Occ Sch Thursday, !- Thursday Schedule:Day Name\n   *************  15801   Sp-PatRoom3_Mult10_Flr_4 Sys-3 Flr-3 Sch-H HPlcmt-east ZN NECB System 3 PSZ Occ Sch Friday, !- Friday Schedule:Day Name\n   *************  15802   Sp-PatRoom3_Mult10_Flr_4 Sys-3 Flr-3 Sch-H HPlcmt-east ZN NECB System 3 PSZ Occ Sch Saturday, !- Saturday Schedule:Day Name\n   *************  15803   Sp-PatRoom3_Mult10_Flr_4 Sys-3 Flr-3 Sch-H HPlcmt-east ZN NECB System 3 PSZ Occ Sch Default, !- Holiday Schedule:Day Name\n   *************  15804   Sp-PatRoom3_Mult10_Flr_4 Sys-3 Flr-3 Sch-H HPlcmt-east ZN NECB System 3 PSZ Occ Sch Summer Design Day, !- SummerDesignDay Schedule:Day Name\n   *************  15805   Sp-PatRoom3_Mult10_Flr_4 Sys-3 Flr-3 Sch-H HPlcmt-east ZN NECB System 3 PSZ Occ Sch Winter Design Day, !- WinterDesignDay Schedule:Day Name\n   ** Warning ** IP: IDF line~15805 Alpha Argument length exceeds maximum, will be truncated=  Sp-PatRoom3_Mult10_Flr_4 Sys-3 Flr-3 Sch-H HPlcmt-east ZN NECB System 3 PSZ Occ Sch Winter Design Da\n   **   ~~~   ** Will be processed as Alpha=SP-PATROOM3_MULT10_FLR_4 SYS-3 FLR-3 SCH-H HPLCMT-EAST ZN NECB SYSTEM 3 PSZ OCC SCH WINTER DESIGN DAY\n   ************* IDF Context for following error/warning message:\n   ************* Note -- lines truncated at 300 characters, if necessary...\n   *************  15825 Schedule:Day:Interval,\n   ************* indicated Name=Sp-PatRoom3_Mult10_Flr_4 Sys-3 Flr-3 Sch-H HPlcmt-east ZN NECB System 3 PSZ Occ Sch Summer Design Day\n   ************* Only last 1 lines before error line shown.....\n   *************  15826   Sp-PatRoom3_Mult10_Flr_4 Sys-3 Flr-3 Sch-H HPlcmt-east ZN NECB System 3 PSZ Occ Sch Summer Design Day, !- Name\n   ** Warning ** IP: IDF line~15826 Alpha Argument length exceeds maximum, will be truncated=  Sp-PatRoom3_Mult10_Flr_4 Sys-3 Flr-3 Sch-H HPlcmt-east ZN NECB System 3 PSZ Occ Sch Summer Design Da\n   **   ~~~   ** Will be processed as Alpha=SP-PATROOM3_MULT10_FLR_4 SYS-3 FLR-3 SCH-H HPLCMT-EAST ZN NECB SYSTEM 3 PSZ OCC SCH SUMMER DESIGN DAY\n   ************* IDF Context for following error/warning message:\n   ************* Note -- lines truncated at 300 characters, if necessary...\n   *************  15832 Schedule:Day:Interval,\n   ************* indicated Name=Sp-PatRoom3_Mult10_Flr_4 Sys-3 Flr-3 Sch-H HPlcmt-east ZN NECB System 3 PSZ Occ Sch Winter Design Day\n   ************* Only last 1 lines before error line shown.....\n   *************  15833   Sp-PatRoom3_Mult10_Flr_4 Sys-3 Flr-3 Sch-H HPlcmt-east ZN NECB System 3 PSZ Occ Sch Winter Design Day, !- Name\n   ** Warning ** IP: IDF line~15833 Alpha Argument length exceeds maximum, will be truncated=  Sp-PatRoom3_Mult10_Flr_4 Sys-3 Flr-3 Sch-H HPlcmt-east ZN NECB System 3 PSZ Occ Sch Winter Design Da\n   **   ~~~   ** Will be processed as Alpha=SP-PATROOM3_MULT10_FLR_4 SYS-3 FLR-3 SCH-H HPLCMT-EAST ZN NECB SYSTEM 3 PSZ OCC SCH WINTER DESIGN DAY\n   ************* IDF Context for following error/warning message:\n   ************* Note -- lines truncated at 300 characters, if necessary...\n   *************  16699 Schedule:Week:Daily,\n   ************* indicated Name=Schedule:Week:Daily {1a1929a6-4dc8-445d-9fb4-78e90c3de940}\n   ************* Only last 10 lines before error line shown.....\n   *************  16700   Schedule:Week:Daily {1a1929a6-4dc8-445d-9fb4-78e90c3de940}, !- Name\n   *************  16701   Sp-PatRoom5_Mult10_Flr_3 Sys-3 Flr-2 Sch-H HPlcmt-north ZN NECB System 3 PSZ Occ Sch Sunday, !- Sunday Schedule:Day Name\n   *************  16702   Sp-PatRoom5_Mult10_Flr_3 Sys-3 Flr-2 Sch-H HPlcmt-north ZN NECB System 3 PSZ Occ Sch Monday, !- Monday Schedule:Day Name\n   *************  16703   Sp-PatRoom5_Mult10_Flr_3 Sys-3 Flr-2 Sch-H HPlcmt-north ZN NECB System 3 PSZ Occ Sch Tuesday, !- Tuesday Schedule:Day Name\n   *************  16704   Sp-PatRoom5_Mult10_Flr_3 Sys-3 Flr-2 Sch-H HPlcmt-north ZN NECB System 3 PSZ Occ Sch Wednesday, !- Wednesday Schedule:Day Name\n   *************  16705   Sp-PatRoom5_Mult10_Flr_3 Sys-3 Flr-2 Sch-H HPlcmt-north ZN NECB System 3 PSZ Occ Sch Thursday, !- Thursday Schedule:Day Name\n   *************  16706   Sp-PatRoom5_Mult10_Flr_3 Sys-3 Flr-2 Sch-H HPlcmt-north ZN NECB System 3 PSZ Occ Sch Friday, !- Friday Schedule:Day Name\n   *************  16707   Sp-PatRoom5_Mult10_Flr_3 Sys-3 Flr-2 Sch-H HPlcmt-north ZN NECB System 3 PSZ Occ Sch Saturday, !- Saturday Schedule:Day Name\n   *************  16708   Sp-PatRoom5_Mult10_Flr_3 Sys-3 Flr-2 Sch-H HPlcmt-north ZN NECB System 3 PSZ Occ Sch Default, !- Holiday Schedule:Day Name\n   *************  16709   Sp-PatRoom5_Mult10_Flr_3 Sys-3 Flr-2 Sch-H HPlcmt-north ZN NECB System 3 PSZ Occ Sch Summer Design Day, !- SummerDesignDay Schedule:Day Name\n   ** Warning ** IP: IDF line~16709 Alpha Argument length exceeds maximum, will be truncated=  Sp-PatRoom5_Mult10_Flr_3 Sys-3 Flr-2 Sch-H HPlcmt-north ZN NECB System 3 PSZ Occ Sch Summer Design Da\n   **   ~~~   ** Will be processed as Alpha=SP-PATROOM5_MULT10_FLR_3 SYS-3 FLR-2 SCH-H HPLCMT-NORTH ZN NECB SYSTEM 3 PSZ OCC SCH SUMMER DESIGN DAY\n   ************* IDF Context for following error/warning message:\n   ************* Note -- lines truncated at 300 characters, if necessary...\n   *************  16699 Schedule:Week:Daily,\n   ************* indicated Name=Schedule:Week:Daily {1a1929a6-4dc8-445d-9fb4-78e90c3de940}\n   ************* Only last 10 lines before error line shown.....\n   *************  16701   Sp-PatRoom5_Mult10_Flr_3 Sys-3 Flr-2 Sch-H HPlcmt-north ZN NECB System 3 PSZ Occ Sch Sunday, !- Sunday Schedule:Day Name\n   *************  16702   Sp-PatRoom5_Mult10_Flr_3 Sys-3 Flr-2 Sch-H HPlcmt-north ZN NECB System 3 PSZ Occ Sch Monday, !- Monday Schedule:Day Name\n   *************  16703   Sp-PatRoom5_Mult10_Flr_3 Sys-3 Flr-2 Sch-H HPlcmt-north ZN NECB System 3 PSZ Occ Sch Tuesday, !- Tuesday Schedule:Day Name\n   *************  16704   Sp-PatRoom5_Mult10_Flr_3 Sys-3 Flr-2 Sch-H HPlcmt-north ZN NECB System 3 PSZ Occ Sch Wednesday, !- Wednesday Schedule:Day Name\n   *************  16705   Sp-PatRoom5_Mult10_Flr_3 Sys-3 Flr-2 Sch-H HPlcmt-north ZN NECB System 3 PSZ Occ Sch Thursday, !- Thursday Schedule:Day Name\n   *************  16706   Sp-PatRoom5_Mult10_Flr_3 Sys-3 Flr-2 Sch-H HPlcmt-north ZN NECB System 3 PSZ Occ Sch Friday, !- Friday Schedule:Day Name\n   *************  16707   Sp-PatRoom5_Mult10_Flr_3 Sys-3 Flr-2 Sch-H HPlcmt-north ZN NECB System 3 PSZ Occ Sch Saturday, !- Saturday Schedule:Day Name\n   *************  16708   Sp-PatRoom5_Mult10_Flr_3 Sys-3 Flr-2 Sch-H HPlcmt-north ZN NECB System 3 PSZ Occ Sch Default, !- Holiday Schedule:Day Name\n   *************  16709   Sp-PatRoom5_Mult10_Flr_3 Sys-3 Flr-2 Sch-H HPlcmt-north ZN NECB System 3 PSZ Occ Sch Summer Design Day, !- SummerDesignDay Schedule:Day Name\n   *************  16710   Sp-PatRoom5_Mult10_Flr_3 Sys-3 Flr-2 Sch-H HPlcmt-north ZN NECB System 3 PSZ Occ Sch Winter Design Day, !- WinterDesignDay Schedule:Day Name\n   ** Warning ** IP: IDF line~16710 Alpha Argument length exceeds maximum, will be truncated=  Sp-PatRoom5_Mult10_Flr_3 Sys-3 Flr-2 Sch-H HPlcmt-north ZN NECB System 3 PSZ Occ Sch Winter Design Da\n   **   ~~~   ** Will be processed as Alpha=SP-PATROOM5_MULT10_FLR_3 SYS-3 FLR-2 SCH-H HPLCMT-NORTH ZN NECB SYSTEM 3 PSZ OCC SCH WINTER DESIGN DAY\n   ************* IDF Context for following error/warning message:\n   ************* Note -- lines truncated at 300 characters, if necessary...\n   *************  16730 Schedule:Day:Interval,\n   ************* indicated Name=Sp-PatRoom5_Mult10_Flr_3 Sys-3 Flr-2 Sch-H HPlcmt-north ZN NECB System 3 PSZ Occ Sch Summer Design Day\n   ************* Only last 1 lines before error line shown.....\n   *************  16731   Sp-PatRoom5_Mult10_Flr_3 Sys-3 Flr-2 Sch-H HPlcmt-north ZN NECB System 3 PSZ Occ Sch Summer Design Day, !- Name\n   ** Warning ** IP: IDF line~16731 Alpha Argument length exceeds maximum, will be truncated=  Sp-PatRoom5_Mult10_Flr_3 Sys-3 Flr-2 Sch-H HPlcmt-north ZN NECB System 3 PSZ Occ Sch Summer Design Da\n   **   ~~~   ** Will be processed as Alpha=SP-PATROOM5_MULT10_FLR_3 SYS-3 FLR-2 SCH-H HPLCMT-NORTH ZN NECB SYSTEM 3 PSZ OCC SCH SUMMER DESIGN DAY\n   ************* IDF Context for following error/warning message:\n   ************* Note -- lines truncated at 300 characters, if necessary...\n   *************  16737 Schedule:Day:Interval,\n   ************* indicated Name=Sp-PatRoom5_Mult10_Flr_3 Sys-3 Flr-2 Sch-H HPlcmt-north ZN NECB System 3 PSZ Occ Sch Winter Design Day\n   ************* Only last 1 lines before error line shown.....\n   *************  16738   Sp-PatRoom5_Mult10_Flr_3 Sys-3 Flr-2 Sch-H HPlcmt-north ZN NECB System 3 PSZ Occ Sch Winter Design Day, !- Name\n   ** Warning ** IP: IDF line~16738 Alpha Argument length exceeds maximum, will be truncated=  Sp-PatRoom5_Mult10_Flr_3 Sys-3 Flr-2 Sch-H HPlcmt-north ZN NECB System 3 PSZ Occ Sch Winter Design Da\n   **   ~~~   ** Will be processed as Alpha=SP-PATROOM5_MULT10_FLR_3 SYS-3 FLR-2 SCH-H HPLCMT-NORTH ZN NECB SYSTEM 3 PSZ OCC SCH WINTER DESIGN DAY\n   ************* IDF Context for following error/warning message:\n   ************* Note -- lines truncated at 300 characters, if necessary...\n   *************  17042 Schedule:Week:Daily,\n   ************* indicated Name=Schedule:Week:Daily {716a9225-6930-4e3b-b72f-68ec221bad35}\n   ************* Only last 10 lines before error line shown.....\n   *************  17043   Schedule:Week:Daily {716a9225-6930-4e3b-b72f-68ec221bad35}, !- Name\n   *************  17044   Sp-PatRoom5_Mult10_Flr_4 Sys-3 Flr-3 Sch-H HPlcmt-north ZN NECB System 3 PSZ Occ Sch Sunday, !- Sunday Schedule:Day Name\n   *************  17045   Sp-PatRoom5_Mult10_Flr_4 Sys-3 Flr-3 Sch-H HPlcmt-north ZN NECB System 3 PSZ Occ Sch Monday, !- Monday Schedule:Day Name\n   *************  17046   Sp-PatRoom5_Mult10_Flr_4 Sys-3 Flr-3 Sch-H HPlcmt-north ZN NECB System 3 PSZ Occ Sch Tuesday, !- Tuesday Schedule:Day Name\n   *************  17047   Sp-PatRoom5_Mult10_Flr_4 Sys-3 Flr-3 Sch-H HPlcmt-north ZN NECB System 3 PSZ Occ Sch Wednesday, !- Wednesday Schedule:Day Name\n   *************  17048   Sp-PatRoom5_Mult10_Flr_4 Sys-3 Flr-3 Sch-H HPlcmt-north ZN NECB System 3 PSZ Occ Sch Thursday, !- Thursday Schedule:Day Name\n   *************  17049   Sp-PatRoom5_Mult10_Flr_4 Sys-3 Flr-3 Sch-H HPlcmt-north ZN NECB System 3 PSZ Occ Sch Friday, !- Friday Schedule:Day Name\n   *************  17050   Sp-PatRoom5_Mult10_Flr_4 Sys-3 Flr-3 Sch-H HPlcmt-north ZN NECB System 3 PSZ Occ Sch Saturday, !- Saturday Schedule:Day Name\n   *************  17051   Sp-PatRoom5_Mult10_Flr_4 Sys-3 Flr-3 Sch-H HPlcmt-north ZN NECB System 3 PSZ Occ Sch Default, !- Holiday Schedule:Day Name\n   *************  17052   Sp-PatRoom5_Mult10_Flr_4 Sys-3 Flr-3 Sch-H HPlcmt-north ZN NECB System 3 PSZ Occ Sch Summer Design Day, !- SummerDesignDay Schedule:Day Name\n   ** Warning ** IP: IDF line~17052 Alpha Argument length exceeds maximum, will be truncated=  Sp-PatRoom5_Mult10_Flr_4 Sys-3 Flr-3 Sch-H HPlcmt-north ZN NECB System 3 PSZ Occ Sch Summer Design Da\n   **   ~~~   ** Will be processed as Alpha=SP-PATROOM5_MULT10_FLR_4 SYS-3 FLR-3 SCH-H HPLCMT-NORTH ZN NECB SYSTEM 3 PSZ OCC SCH SUMMER DESIGN DAY\n   ************* IDF Context for following error/warning message:\n   ************* Note -- lines truncated at 300 characters, if necessary...\n   *************  17042 Schedule:Week:Daily,\n   ************* indicated Name=Schedule:Week:Daily {716a9225-6930-4e3b-b72f-68ec221bad35}\n   ************* Only last 10 lines before error line shown.....\n   *************  17044   Sp-PatRoom5_Mult10_Flr_4 Sys-3 Flr-3 Sch-H HPlcmt-north ZN NECB System 3 PSZ Occ Sch Sunday, !- Sunday Schedule:Day Name\n   *************  17045   Sp-PatRoom5_Mult10_Flr_4 Sys-3 Flr-3 Sch-H HPlcmt-north ZN NECB System 3 PSZ Occ Sch Monday, !- Monday Schedule:Day Name\n   *************  17046   Sp-PatRoom5_Mult10_Flr_4 Sys-3 Flr-3 Sch-H HPlcmt-north ZN NECB System 3 PSZ Occ Sch Tuesday, !- Tuesday Schedule:Day Name\n   *************  17047   Sp-PatRoom5_Mult10_Flr_4 Sys-3 Flr-3 Sch-H HPlcmt-north ZN NECB System 3 PSZ Occ Sch Wednesday, !- Wednesday Schedule:Day Name\n   *************  17048   Sp-PatRoom5_Mult10_Flr_4 Sys-3 Flr-3 Sch-H HPlcmt-north ZN NECB System 3 PSZ Occ Sch Thursday, !- Thursday Schedule:Day Name\n   *************  17049   Sp-PatRoom5_Mult10_Flr_4 Sys-3 Flr-3 Sch-H HPlcmt-north ZN NECB System 3 PSZ Occ Sch Friday, !- Friday Schedule:Day Name\n   *************  17050   Sp-PatRoom5_Mult10_Flr_4 Sys-3 Flr-3 Sch-H HPlcmt-north ZN NECB System 3 PSZ Occ Sch Saturday, !- Saturday Schedule:Day Name\n   *************  17051   Sp-PatRoom5_Mult10_Flr_4 Sys-3 Flr-3 Sch-H HPlcmt-north ZN NECB System 3 PSZ Occ Sch Default, !- Holiday Schedule:Day Name\n   *************  17052   Sp-PatRoom5_Mult10_Flr_4 Sys-3 Flr-3 Sch-H HPlcmt-north ZN NECB System 3 PSZ Occ Sch Summer Design Day, !- SummerDesignDay Schedule:Day Name\n   *************  17053   Sp-PatRoom5_Mult10_Flr_4 Sys-3 Flr-3 Sch-H HPlcmt-north ZN NECB System 3 PSZ Occ Sch Winter Design Day, !- WinterDesignDay Schedule:Day Name\n   ** Warning ** IP: IDF line~17053 Alpha Argument length exceeds maximum, will be truncated=  Sp-PatRoom5_Mult10_Flr_4 Sys-3 Flr-3 Sch-H HPlcmt-north ZN NECB System 3 PSZ Occ Sch Winter Design Da\n   **   ~~~   ** Will be processed as Alpha=SP-PATROOM5_MULT10_FLR_4 SYS-3 FLR-3 SCH-H HPLCMT-NORTH ZN NECB SYSTEM 3 PSZ OCC SCH WINTER DESIGN DAY\n   ************* IDF Context for following error/warning message:\n   ************* Note -- lines truncated at 300 characters, if necessary...\n   *************  17073 Schedule:Day:Interval,\n   ************* indicated Name=Sp-PatRoom5_Mult10_Flr_4 Sys-3 Flr-3 Sch-H HPlcmt-north ZN NECB System 3 PSZ Occ Sch Summer Design Day\n   ************* Only last 1 lines before error line shown.....\n   *************  17074   Sp-PatRoom5_Mult10_Flr_4 Sys-3 Flr-3 Sch-H HPlcmt-north ZN NECB System 3 PSZ Occ Sch Summer Design Day, !- Name\n   ** Warning ** IP: IDF line~17074 Alpha Argument length exceeds maximum, will be truncated=  Sp-PatRoom5_Mult10_Flr_4 Sys-3 Flr-3 Sch-H HPlcmt-north ZN NECB System 3 PSZ Occ Sch Summer Design Da\n   **   ~~~   ** Will be processed as Alpha=SP-PATROOM5_MULT10_FLR_4 SYS-3 FLR-3 SCH-H HPLCMT-NORTH ZN NECB SYSTEM 3 PSZ OCC SCH SUMMER DESIGN DAY\n   ************* IDF Context for following error/warning message:\n   ************* Note -- lines truncated at 300 characters, if necessary...\n   *************  17080 Schedule:Day:Interval,\n   ************* indicated Name=Sp-PatRoom5_Mult10_Flr_4 Sys-3 Flr-3 Sch-H HPlcmt-north ZN NECB System 3 PSZ Occ Sch Winter Design Day\n   ************* Only last 1 lines before error line shown.....\n   *************  17081   Sp-PatRoom5_Mult10_Flr_4 Sys-3 Flr-3 Sch-H HPlcmt-north ZN NECB System 3 PSZ Occ Sch Winter Design Day, !- Name\n   ** Warning ** IP: IDF line~17081 Alpha Argument length exceeds maximum, will be truncated=  Sp-PatRoom5_Mult10_Flr_4 Sys-3 Flr-3 Sch-H HPlcmt-north ZN NECB System 3 PSZ Occ Sch Winter Design Da\n   **   ~~~   ** Will be processed as Alpha=SP-PATROOM5_MULT10_FLR_4 SYS-3 FLR-3 SCH-H HPLCMT-NORTH ZN NECB SYSTEM 3 PSZ OCC SCH WINTER DESIGN DAY\n   ************* IDF Context for following error/warning message:\n   ************* Note -- lines truncated at 300 characters, if necessary...\n   *************  17947 Schedule:Week:Daily,\n   ************* indicated Name=Schedule:Week:Daily {95fdd48a-6ef7-442b-ac02-931bb48a7372}\n   ************* Only last 10 lines before error line shown.....\n   *************  17948   Schedule:Week:Daily {95fdd48a-6ef7-442b-ac02-931bb48a7372}, !- Name\n   *************  17949   Sp-PatRoom7_Mult10_Flr_3 Sys-3 Flr-2 Sch-H HPlcmt-west ZN NECB System 3 PSZ Occ Sch Sunday, !- Sunday Schedule:Day Name\n   *************  17950   Sp-PatRoom7_Mult10_Flr_3 Sys-3 Flr-2 Sch-H HPlcmt-west ZN NECB System 3 PSZ Occ Sch Monday, !- Monday Schedule:Day Name\n   *************  17951   Sp-PatRoom7_Mult10_Flr_3 Sys-3 Flr-2 Sch-H HPlcmt-west ZN NECB System 3 PSZ Occ Sch Tuesday, !- Tuesday Schedule:Day Name\n   *************  17952   Sp-PatRoom7_Mult10_Flr_3 Sys-3 Flr-2 Sch-H HPlcmt-west ZN NECB System 3 PSZ Occ Sch Wednesday, !- Wednesday Schedule:Day Name\n   *************  17953   Sp-PatRoom7_Mult10_Flr_3 Sys-3 Flr-2 Sch-H HPlcmt-west ZN NECB System 3 PSZ Occ Sch Thursday, !- Thursday Schedule:Day Name\n   *************  17954   Sp-PatRoom7_Mult10_Flr_3 Sys-3 Flr-2 Sch-H HPlcmt-west ZN NECB System 3 PSZ Occ Sch Friday, !- Friday Schedule:Day Name\n   *************  17955   Sp-PatRoom7_Mult10_Flr_3 Sys-3 Flr-2 Sch-H HPlcmt-west ZN NECB System 3 PSZ Occ Sch Saturday, !- Saturday Schedule:Day Name\n   *************  17956   Sp-PatRoom7_Mult10_Flr_3 Sys-3 Flr-2 Sch-H HPlcmt-west ZN NECB System 3 PSZ Occ Sch Default, !- Holiday Schedule:Day Name\n   *************  17957   Sp-PatRoom7_Mult10_Flr_3 Sys-3 Flr-2 Sch-H HPlcmt-west ZN NECB System 3 PSZ Occ Sch Summer Design Day, !- SummerDesignDay Schedule:Day Name\n   ** Warning ** IP: IDF line~17957 Alpha Argument length exceeds maximum, will be truncated=  Sp-PatRoom7_Mult10_Flr_3 Sys-3 Flr-2 Sch-H HPlcmt-west ZN NECB System 3 PSZ Occ Sch Summer Design Da\n   **   ~~~   ** Will be processed as Alpha=SP-PATROOM7_MULT10_FLR_3 SYS-3 FLR-2 SCH-H HPLCMT-WEST ZN NECB SYSTEM 3 PSZ OCC SCH SUMMER DESIGN DAY\n   ************* IDF Context for following error/warning message:\n   ************* Note -- lines truncated at 300 characters, if necessary...\n   *************  17947 Schedule:Week:Daily,\n   ************* indicated Name=Schedule:Week:Daily {95fdd48a-6ef7-442b-ac02-931bb48a7372}\n   ************* Only last 10 lines before error line shown.....\n   *************  17949   Sp-PatRoom7_Mult10_Flr_3 Sys-3 Flr-2 Sch-H HPlcmt-west ZN NECB System 3 PSZ Occ Sch Sunday, !- Sunday Schedule:Day Name\n   *************  17950   Sp-PatRoom7_Mult10_Flr_3 Sys-3 Flr-2 Sch-H HPlcmt-west ZN NECB System 3 PSZ Occ Sch Monday, !- Monday Schedule:Day Name\n   *************  17951   Sp-PatRoom7_Mult10_Flr_3 Sys-3 Flr-2 Sch-H HPlcmt-west ZN NECB System 3 PSZ Occ Sch Tuesday, !- Tuesday Schedule:Day Name\n   *************  17952   Sp-PatRoom7_Mult10_Flr_3 Sys-3 Flr-2 Sch-H HPlcmt-west ZN NECB System 3 PSZ Occ Sch Wednesday, !- Wednesday Schedule:Day Name\n   *************  17953   Sp-PatRoom7_Mult10_Flr_3 Sys-3 Flr-2 Sch-H HPlcmt-west ZN NECB System 3 PSZ Occ Sch Thursday, !- Thursday Schedule:Day Name\n   *************  17954   Sp-PatRoom7_Mult10_Flr_3 Sys-3 Flr-2 Sch-H HPlcmt-west ZN NECB System 3 PSZ Occ Sch Friday, !- Friday Schedule:Day Name\n   *************  17955   Sp-PatRoom7_Mult10_Flr_3 Sys-3 Flr-2 Sch-H HPlcmt-west ZN NECB System 3 PSZ Occ Sch Saturday, !- Saturday Schedule:Day Name\n   *************  17956   Sp-PatRoom7_Mult10_Flr_3 Sys-3 Flr-2 Sch-H HPlcmt-west ZN NECB System 3 PSZ Occ Sch Default, !- Holiday Schedule:Day Name\n   *************  17957   Sp-PatRoom7_Mult10_Flr_3 Sys-3 Flr-2 Sch-H HPlcmt-west ZN NECB System 3 PSZ Occ Sch Summer Design Day, !- SummerDesignDay Schedule:Day Name\n   *************  17958   Sp-PatRoom7_Mult10_Flr_3 Sys-3 Flr-2 Sch-H HPlcmt-west ZN NECB System 3 PSZ Occ Sch Winter Design Day, !- WinterDesignDay Schedule:Day Name\n   ** Warning ** IP: IDF line~17958 Alpha Argument length exceeds maximum, will be truncated=  Sp-PatRoom7_Mult10_Flr_3 Sys-3 Flr-2 Sch-H HPlcmt-west ZN NECB System 3 PSZ Occ Sch Winter Design Da\n   **   ~~~   ** Will be processed as Alpha=SP-PATROOM7_MULT10_FLR_3 SYS-3 FLR-2 SCH-H HPLCMT-WEST ZN NECB SYSTEM 3 PSZ OCC SCH WINTER DESIGN DAY\n   ************* IDF Context for following error/warning message:\n   ************* Note -- lines truncated at 300 characters, if necessary...\n   *************  17978 Schedule:Day:Interval,\n   ************* indicated Name=Sp-PatRoom7_Mult10_Flr_3 Sys-3 Flr-2 Sch-H HPlcmt-west ZN NECB System 3 PSZ Occ Sch Summer Design Day\n   ************* Only last 1 lines before error line shown.....\n   *************  17979   Sp-PatRoom7_Mult10_Flr_3 Sys-3 Flr-2 Sch-H HPlcmt-west ZN NECB System 3 PSZ Occ Sch Summer Design Day, !- Name\n   ** Warning ** IP: IDF line~17979 Alpha Argument length exceeds maximum, will be truncated=  Sp-PatRoom7_Mult10_Flr_3 Sys-3 Flr-2 Sch-H HPlcmt-west ZN NECB System 3 PSZ Occ Sch Summer Design Da\n   **   ~~~   ** Will be processed as Alpha=SP-PATROOM7_MULT10_FLR_3 SYS-3 FLR-2 SCH-H HPLCMT-WEST ZN NECB SYSTEM 3 PSZ OCC SCH SUMMER DESIGN DAY\n   ************* IDF Context for following error/warning message:\n   ************* Note -- lines truncated at 300 characters, if necessary...\n   *************  17985 Schedule:Day:Interval,\n   ************* indicated Name=Sp-PatRoom7_Mult10_Flr_3 Sys-3 Flr-2 Sch-H HPlcmt-west ZN NECB System 3 PSZ Occ Sch Winter Design Day\n   ************* Only last 1 lines before error line shown.....\n   *************  17986   Sp-PatRoom7_Mult10_Flr_3 Sys-3 Flr-2 Sch-H HPlcmt-west ZN NECB System 3 PSZ Occ Sch Winter Design Day, !- Name\n   ** Warning ** IP: IDF line~17986 Alpha Argument length exceeds maximum, will be truncated=  Sp-PatRoom7_Mult10_Flr_3 Sys-3 Flr-2 Sch-H HPlcmt-west ZN NECB System 3 PSZ Occ Sch Winter Design Da\n   **   ~~~   ** Will be processed as Alpha=SP-PATROOM7_MULT10_FLR_3 SYS-3 FLR-2 SCH-H HPLCMT-WEST ZN NECB SYSTEM 3 PSZ OCC SCH WINTER DESIGN DAY\n   ************* IDF Context for following error/warning message:\n   ************* Note -- lines truncated at 300 characters, if necessary...\n   *************  18290 Schedule:Week:Daily,\n   ************* indicated Name=Schedule:Week:Daily {d9c59500-c4d9-48ce-a57e-9348d12deb1a}\n   ************* Only last 10 lines before error line shown.....\n   *************  18291   Schedule:Week:Daily {d9c59500-c4d9-48ce-a57e-9348d12deb1a}, !- Name\n   *************  18292   Sp-PatRoom7_Mult10_Flr_4 Sys-3 Flr-3 Sch-H HPlcmt-west ZN NECB System 3 PSZ Occ Sch Sunday, !- Sunday Schedule:Day Name\n   *************  18293   Sp-PatRoom7_Mult10_Flr_4 Sys-3 Flr-3 Sch-H HPlcmt-west ZN NECB System 3 PSZ Occ Sch Monday, !- Monday Schedule:Day Name\n   *************  18294   Sp-PatRoom7_Mult10_Flr_4 Sys-3 Flr-3 Sch-H HPlcmt-west ZN NECB System 3 PSZ Occ Sch Tuesday, !- Tuesday Schedule:Day Name\n   *************  18295   Sp-PatRoom7_Mult10_Flr_4 Sys-3 Flr-3 Sch-H HPlcmt-west ZN NECB System 3 PSZ Occ Sch Wednesday, !- Wednesday Schedule:Day Name\n   *************  18296   Sp-PatRoom7_Mult10_Flr_4 Sys-3 Flr-3 Sch-H HPlcmt-west ZN NECB System 3 PSZ Occ Sch Thursday, !- Thursday Schedule:Day Name\n   *************  18297   Sp-PatRoom7_Mult10_Flr_4 Sys-3 Flr-3 Sch-H HPlcmt-west ZN NECB System 3 PSZ Occ Sch Friday, !- Friday Schedule:Day Name\n   *************  18298   Sp-PatRoom7_Mult10_Flr_4 Sys-3 Flr-3 Sch-H HPlcmt-west ZN NECB System 3 PSZ Occ Sch Saturday, !- Saturday Schedule:Day Name\n   *************  18299   Sp-PatRoom7_Mult10_Flr_4 Sys-3 Flr-3 Sch-H HPlcmt-west ZN NECB System 3 PSZ Occ Sch Default, !- Holiday Schedule:Day Name\n   *************  18300   Sp-PatRoom7_Mult10_Flr_4 Sys-3 Flr-3 Sch-H HPlcmt-west ZN NECB System 3 PSZ Occ Sch Summer Design Day, !- SummerDesignDay Schedule:Day Name\n   ** Warning ** IP: IDF line~18300 Alpha Argument length exceeds maximum, will be truncated=  Sp-PatRoom7_Mult10_Flr_4 Sys-3 Flr-3 Sch-H HPlcmt-west ZN NECB System 3 PSZ Occ Sch Summer Design Da\n   **   ~~~   ** Will be processed as Alpha=SP-PATROOM7_MULT10_FLR_4 SYS-3 FLR-3 SCH-H HPLCMT-WEST ZN NECB SYSTEM 3 PSZ OCC SCH SUMMER DESIGN DAY\n   ************* IDF Context for following error/warning message:\n   ************* Note -- lines truncated at 300 characters, if necessary...\n   *************  18290 Schedule:Week:Daily,\n   ************* indicated Name=Schedule:Week:Daily {d9c59500-c4d9-48ce-a57e-9348d12deb1a}\n   ************* Only last 10 lines before error line shown.....\n   *************  18292   Sp-PatRoom7_Mult10_Flr_4 Sys-3 Flr-3 Sch-H HPlcmt-west ZN NECB System 3 PSZ Occ Sch Sunday, !- Sunday Schedule:Day Name\n   *************  18293   Sp-PatRoom7_Mult10_Flr_4 Sys-3 Flr-3 Sch-H HPlcmt-west ZN NECB System 3 PSZ Occ Sch Monday, !- Monday Schedule:Day Name\n   *************  18294   Sp-PatRoom7_Mult10_Flr_4 Sys-3 Flr-3 Sch-H HPlcmt-west ZN NECB System 3 PSZ Occ Sch Tuesday, !- Tuesday Schedule:Day Name\n   *************  18295   Sp-PatRoom7_Mult10_Flr_4 Sys-3 Flr-3 Sch-H HPlcmt-west ZN NECB System 3 PSZ Occ Sch Wednesday, !- Wednesday Schedule:Day Name\n   *************  18296   Sp-PatRoom7_Mult10_Flr_4 Sys-3 Flr-3 Sch-H HPlcmt-west ZN NECB System 3 PSZ Occ Sch Thursday, !- Thursday Schedule:Day Name\n   *************  18297   Sp-PatRoom7_Mult10_Flr_4 Sys-3 Flr-3 Sch-H HPlcmt-west ZN NECB System 3 PSZ Occ Sch Friday, !- Friday Schedule:Day Name\n   *************  18298   Sp-PatRoom7_Mult10_Flr_4 Sys-3 Flr-3 Sch-H HPlcmt-west ZN NECB System 3 PSZ Occ Sch Saturday, !- Saturday Schedule:Day Name\n   *************  18299   Sp-PatRoom7_Mult10_Flr_4 Sys-3 Flr-3 Sch-H HPlcmt-west ZN NECB System 3 PSZ Occ Sch Default, !- Holiday Schedule:Day Name\n   *************  18300   Sp-PatRoom7_Mult10_Flr_4 Sys-3 Flr-3 Sch-H HPlcmt-west ZN NECB System 3 PSZ Occ Sch Summer Design Day, !- SummerDesignDay Schedule:Day Name\n   *************  18301   Sp-PatRoom7_Mult10_Flr_4 Sys-3 Flr-3 Sch-H HPlcmt-west ZN NECB System 3 PSZ Occ Sch Winter Design Day, !- WinterDesignDay Schedule:Day Name\n   ** Warning ** IP: IDF line~18301 Alpha Argument length exceeds maximum, will be truncated=  Sp-PatRoom7_Mult10_Flr_4 Sys-3 Flr-3 Sch-H HPlcmt-west ZN NECB System 3 PSZ Occ Sch Winter Design Da\n   **   ~~~   ** Will be processed as Alpha=SP-PATROOM7_MULT10_FLR_4 SYS-3 FLR-3 SCH-H HPLCMT-WEST ZN NECB SYSTEM 3 PSZ OCC SCH WINTER DESIGN DAY\n   ************* IDF Context for following error/warning message:\n   ************* Note -- lines truncated at 300 characters, if necessary...\n   *************  18321 Schedule:Day:Interval,\n   ************* indicated Name=Sp-PatRoom7_Mult10_Flr_4 Sys-3 Flr-3 Sch-H HPlcmt-west ZN NECB System 3 PSZ Occ Sch Summer Design Day\n   ************* Only last 1 lines before error line shown.....\n   *************  18322   Sp-PatRoom7_Mult10_Flr_4 Sys-3 Flr-3 Sch-H HPlcmt-west ZN NECB System 3 PSZ Occ Sch Summer Design Day, !- Name\n   ** Warning ** IP: IDF line~18322 Alpha Argument length exceeds maximum, will be truncated=  Sp-PatRoom7_Mult10_Flr_4 Sys-3 Flr-3 Sch-H HPlc
[...]
cUpnP01jM/DSTp1Hi5y1fpfzNYiqffHZdftZoMOtLtCeyy0uoc/zwup1eHuvPMtzLYG9tBHLkz6NczNKkyGFyoy02ftjfHwxOTjZeufEMcIADHOAABzjAAQ5wgAMc4Pw9cUQ2nxZ/AotAqg9F4C8UUSoD0IAGNKABDWhAAxrQgAY0oAGNnuau/K9Z/0NzHc0lcIADHOAABzjAAQ5wgAMc4ABnHZzH9wZ66r2BF3PqvYF9r/wXtuPj7e2DA5CCFKQgBSlIQQpSkIIUpCAFKUhB+jZIeyWpn1Ok3ZK03+/19ndBClKQghSkIAUpSEEKUpCCFKQgBenbIO0r0tM0JEh7ByWp5+3t9fsgBSlIQQpSkIIUpCAFKUhBClKQgvRtkG4r0q+TOUW6X5IeFMfOe5CCFKQgBSlIQQpSkIIUpCAFKUhB+jZIdxTpv2VAke6VpB8+DAZ7eyAFKUhBClKQghSkIAUpSEEKUpCC9G2Q7pZ3JuaSIt0tSQeD3V2QghSkIAUpSEEKUpCCFKQgBSlIQfpWSPcU6aeE6izY2ylJ9/d7vZ0dkIIUpCAFKUhBClKQghSkIAUpSEFqjXSFEqT+XavW2b2bh3kkLyb+TLq5vM9bGx+TeZrVYyz+fOaHcCrjLEziSGalhxoXW1viOAiEL0pP4i7MJyJLplIE/Zozs9ux689mMg5ajtJ2NmtOWB2un+dpy7l32mK3a3jSojip1/ykLF9EssLr+PFwkqTF+U4kRwa0Sx+jJM47dzIcT3Ll4zqJguY+qrm5mHW++Pl5kkz3rj7No9zrXp1G6dW2uFhknb4ofi9+XgwnnY/i45doOFV6WS5+/yw+nwzeq2/lcir64svF7+JsOFRf3djUTfC7rWyYhrP8X+R33m0F4e3LZvIc2lnhS4TBkTNUq39QDJgfxjK96nk7jiiH8cgJwmwW+YvDMI4KW+c6Sobff3JowMJrdQ0iX8yK89VIbt34t371qfZMddz6qVqp4kgE4XQWSTeWdxe345bzwwuQbbHd7ZY/akNP+Q383C8cX/7hRP61jJxDJ5Ajv5hYMUuTURhJp11Zru6dQ8/ttp1bP5rL5e9DlaGKc4qkMxicnDgP7UZ+ekx++kx+tpn87DD52WXys8fkZ5/JzwGTH6/L5YhrRXtcS9rjWtMe16L2uFa1x7WsPa517XEtbI9rZfe4VnaPLVdzrewe18ruGa1skc2n02evrG60o6UyMHBDjpGZG3KEzNyQ42Pmhox7Mzdk1Ju5IWPezA0Z8WZuyHg3c0NvZIZ+mNYxvY0Z+mFayfQmZuiHaS3TW5ihH6bVTG9ghn6Y1jO9fRn64crLTOuZ3rsM/TRfz3dhnJtvW9fqo+Z+yOEx9EMOj6EfcngM/ZDhbuiHDHdDP2S4G/ohw93QDxnuhn7o/cvUEdeKpncwU0dca5rew0wdca1qehczdcS1rul9zNQR18qmdzJTR2y5mmtl05uZqaPmK/vx3zBq3zFMbXPdZ3/oVS8hZpDovb5E//Ultl9fYuf1JXZfX2Lv9SX2X1/i4PUlnu3sr6VhIb41N2b5NOg7W3wa9E0vPg36Ti+fBn0TmE+Dvj/Mp0HfOubToO8q8+1/FuK8Z2Mft7CR9yzs5L31tvLaVzk2K6uqdz0ySNCzwSZBTwabBD0XbBJ0WcUmQZdVbBJ0WcUmQZdVbBJ0WcUmofmXaz4N+p/++DTosopPgy6r+DTosopPgy6r+DTosopPgy6r+DTosopPgy6r+PY/C3Gu+Sd+Pg0LG7mmrOLTWG8rr31jVrOyqnqlFoMEPRtsEvRksEnQc8EmQZdVbBJ0WcUmQZdVbBJ0WcUmQZdVbBKasopPg063fBp0WcWnQZdVfBp0WcWnQZdVfBp0WcWnQZdVfBp0WcWnQZdVfPufhTjXlFV8GhY2ck1Zxaex3lZe+2KSZmVV9eYSBgl6Ntgk6Mlgk6Dngk2CLqvYJOiyik2CLqvYJOiyik2CLqvYJDRlFZ8GnW75NOiyik+DLqv4NOiyik+DLqv4NOiyik+DLqv4NOiyik+DLqv49j8Lca4pq/g0LGzkmrKKT2O9rby2/3uzsqpqEM8gQc8GmwQ9GWwS9FywSdBlFZsEXVaxSdBlFZsEXVaxSdBlFZuEpqzi06DTLZ8GXVbxadBlFZ8GXVbxadBlFZ8GXVbxadBlFZ8GXVbxadBlFd/+ZyHONWUVn4aFjVxTVvFprLeV17bZbVZWVX14GSTo2WCToCeDTYKeCzYJuqxik6DLKjYJuqxik6DLKjYJuqxik9CUVXwadLrl06DLKj4Nuqzi06DLKj4Nuqzi06DLKj4Nuqzi06DLKj4Nuqzi2/8sxLmmrOLTsLCRa8oqPo31tvLabobNyqqq3SGDBD0bbBL0ZLBJ0HPBJkGXVWwSdFnFJkGXVWwSdFnFJkGXVWwS2mZrXBp0uuXT0DWy4tLQ9bji0tC1v+LS0PV849LQtYPj0tB1iuPS0DWR49LQ9Zfj2v8sxLm2Kx2XhoWNXFNW8WnUb+XfmnR4XTZyFkcilnerDrJl49hWdjtulx1ga1vFrrpBZzJ/n8zjIGvtdNvC83baoq9+6+00azd7X2A8NrkOgoGfy3GSLo7vw6zqpvx4/Q1aThcOztJApudz1dy48YmKY/Gc45P0s3kqKwzVn3k57q/c7htmmGGGGWaYYYYZZphhhhlmmGGGGWaYYYYZZphhhhlmmGGGGWaYYYYZZphhhhlmmGGGGWaYYYYZZphhhhlmmGGGGWaYYYYZ5r+VeeEmtzJNw0B+8tWDtZ7b/YvPq6pHY7Pnj8ZeyDSU2fLxWqe9eoB4FiW5G4WxrH1ENnvpOd36J2szt3z1/CyJ/DxM4gLKyXI561zLUZJKp9mTz7/KsYyD5xdUfdba7bZFXz253FUPMqsfTiRHuQKrcb1y616NZX4S52p8ConRPB6WpK1N8UeNixWhfDz7svZZbnWEI9HKJ2HmZuWsNBNSx5OT3GL8TvzhpPVfYFNvK3z16HjBvvR7NUuyUDn8UHzc5GpWh3LzAlWa3JkhrbDCOJAqHjpe2/Ds1XGz7omjUEZqvbWWY1rFyThN5jMZiB9/FP9Yfn7vXk38bPn8uwqwzafWxYvWYkBcfzw+VRpuJONxPhHvRE/8n3COo8gRh8+/kUXhULY63uZl99tmbbz96UqSVLRuikvp/iRuCpnlUl3qqs/+WWQc8wlSh1rGS3+XN9/c73Ihjo6OqsFbz2PpdTntN6aXujquU+l/X+fkB8NzTL+vxmt5dUdqWavFsFwpZSMH98rPsnAcy2CgWkRkl+VIfltvKFcTPZtnk9a6c1FM6WE1n+tHUhQdNrlKV31zXZUsT5PvsplO9d11lZKZPwzzRTOp5ZfXvqpSYiW1rpdVInmeVtYJD+Pko45VOD9PPKIjPFNvJuHWnPWhXe6qjb7/UFdTqGNrS3z57av4z9lv5+Li7PzrL59/Fr+e/fzLQHw8OT9p5uC0yNry3lclmsgTkSVpLuL5tFgHQ1G2NMmEnw2L4iWMxw08rsZe+XmyM/ttcd08uaQyn6exmPlpJk+jxM9bvkr5m8VUPvnsuvys0WDWl2hPZJeXUOf44XU7vTzWn2W4l8He2gjkyJ9HuZilSZHD5EZbbPywvz8YnJxsvHLjGeAABzjAAQ5wgAMc4AAHOMD5e+KIbD4t/gQWgVQfisBfKKJUBqABDWhAAxrQgAY0oAENaEADGj3NXflfs/6H5jqaS+AABzjAAQ5wgAMc4AAHOMABzjo4j+8N9NR7Ay/m1HsD+175L2zHx9vbBwcgBSlIQQpSkIIUpCAFKUhBClKQgvRtkPZKUj+nSLslab/f6+3vghSkIAUpSEEKUpCCFKQgBSlIQQrSt0HaV6SnaUiQ9g5KUs/b2+v3QQpSkIIUpCAFKUhBClKQghSkIAXp2yDdVqRfJ3OKdL8kPSiOnfcgBSlIQQpSkIIUpCAFKUhBClKQgvRtkO4o0n/LgCLdK0k/fBgM9vZAClKQghSkIAUpSEEKUpCCFKQgBenbIN0t70zMJUW6W5IOBru7IAUpSEEKUpCCFKQgBSlIQQpSkIL0rZDuKdJPCdVZsLdTku7v93o7OyAFKUhBClKQghSkIAUpSEEKUpCC1BrpCiVI/btWrbN7Nw/zSF5M/Jl0c3mftzY+JvM0q8dY/PnMD+FUxlmYxJHMSg81Lra2xHEQCF+UnsRdmE9ElkylCPo1Z2a3Y9efzWQctByl7WzWnLA6XD/P05Zz77TFbtfwpEVxUq/5SVm+iGSF1/Hj4SRJi/OdSI4MaJc+Rkmcd+5kOJ7kysd1EgXNfVRzczHrfJkssq8TmfqzxdVplF71xcUi6/RF8XunJy6Gk85AfPwSDad5Z5ikUvz+WXw+GbxX38rlVPTFl4vfxdlwqL66samb3Hdb2TANZ/m/yO+82wrC25fN5Dm0s8KXCIMjZ6hW/qAYLD+MZXrV83YdUQ7hkROE2SzyF4dhHBW2znWUDL//5NCAhdfqGkS+mBXnq1HcuvFv/epT7ZnquPVTtUrFkQjC6SySbizvLm7HLeeHFyDbYrvbLX/Uhp3yG/i5Xzi+/MOJ/GsZOYdOIEf+PMrFLE1GYSSddmW5uncOPbfbdm79aC6Xvw9VdirOKRLOYHBy4jy0G/npMfnpM/nZZvKzw+Rnl8nPHpOffSY/B0x+vC6XI64V7XEtaY9rTXtci9rjWtUe17L2uNa1x7WwPa6V3eNa2T22XM21sntcK7tntLJFNp9On72uutGOlsrAwA05RmZuyBEyc0OOj5kbMu7N3JBRb+aGjHkzN2TEm7kh493MDb2RGfphWsf0Nmboh2kl05uYoR+mtUxvYYZ+mFYzvYEZ+mFaz/T2ZeiHKy8zrWd67zL003w934Vxbr5tXauPmvshh8fQDzk8hn7I4TH0Q4a7oR8y3A39kOFu6IcMd0M/ZLgb+qH3L1NHXCua3sFMHXGtaXoPM3XEtarpXczUEde6pvcxU0dcK5veyUwdseVqrpVNb2amjpqv7Md/v6h9v3Cz+43VC4gZJOi/btkk6L972STov4jZJOi7QGwS9P0hNgn6zhGbBH1PiU2CvtvEJqG5xcqnYSG+NTdm+TQsRLjmdi6fhoUY19wE5tOwEOWaW8d8GhbiXHPDmU/Dxj5uIc41d7D5NNaL89rXODYrq6r3PDJI0LPBJkFPBpsEPRdsEnTKZZOgMy6bBJ1w2STofMsmQadbNglNWcWnYSG+NWUVn4aFCNeUVXwaFmJcU1bxaViIck1ZxadhIc41ZRWfho193EKca8oqPo314rz2bVnNyqrqdVoMEvRssEnQk8EmQc8FmwSdctkk6IzLJkEnXDYJOt+ySdDplk1CU1bxaViIb01ZxadhIcI1ZRWfhoUY15RVfBoWolxTVvFpWIhzTVnFp2FjH7cQ55qyik9jvTivfSlJs7KqemsJgwQ9G2wS9GSwSdBzwSZBp1w2CTrjsknQCZdNgs63bBJ0umWT0JRVfBoW4ltTVvFpWIhwTVnFp2EhxjVlFZ+GhSjXlFV8GhbiXFNW8WnY2MctxLmmrOLTWC/Oa3u/NyurqubwDBL0bLBJ0JPBJkHPBZsEnXLZJOiMyyZBJ1w2CTrfsknQ6ZZNQlNW8WlYiG9NWcWnYSHCNWUVn4aFGNeUVXwaFqJcU1bxaViIc01ZxadhYx+3EOeasopPY704r22x26ysqnrwMkjQs8EmQU8GmwQ9F2wSdMplk6AzLpsEnXDZJOh8yyZBp1s2CU1ZxadhIb41ZRWfhoUI15RVfBoWYlxTVvFpWIhyTVnFp2EhzjVlFZ+GjX3cQpxryio+jfXivLaTYbOyqmp1yCCh63PDJKHrgMMkoeuNwySh6wfFJKHrFMUkoeshxSSh6y7FJKHrO8UkoW22xqVhIb61Ldq4NCxEuLaxG5eGhRjXtoPj0rAQ5domclwaFuJc23qOS8PGPm4hzrW97Lg06uP8W5MOr8smzuJIxPJu1UG2bBzbym7H7bIDbG2r2FUn6Ezm75N5HGStnW5beN5OW/TVb72dZu1m7wuMxwbXQTDwczlO0sXxfZhVnZQfr79Bu+nCwVkayPR8rhobNz5RcSyec3ySfjZPZYWhejMvx/2VW33DDDPMMMMMM8wwwwwzzDDDDDPMMMMMM8wwwwwzzDDDDDPMMMMMM8wwwwwzzDDDDDPMMMMMM8wwwwwzzDDDDDPMMMMMM8www/y3Mi/c5FamaRjIT756sNZzu3/xeVX1aGz2/NHYC5mGMls+Xuu0Vw8Qz6Ikd6MwlrWPyGYvPadb/2Rt5pavnp8lkZ+HSVxAOVkuZ51rOUpS6TR78vlXOZZx8PyCqs9au9226Ksnl7vqQWb1w4nkKFdgNa5Xbt2rscxP4lyNTyExmsfDkrS1Kf6ocbEilI9nX9Y+y62OcCRa+STM3KyclWZC6nhykluM34k/nLT+C2zqbYWvHh0v2Jd+r2ZJFiqHH4qPm1zN6lBuXqBKkzszpBVWGAdSxUPHaxuevTpu1j1xFMpIrbfWckyrOBmnyXwmA/Hjj+Ify8/v3auJny2ff1cBtvnUunjRWgyI64/Hp0rDjWQ8zifineiJ/xPOcRQ54vD5N7IoHMpWx9u87H7brI23P11JkorWTXEp3Z/ETSGzXKpLXfXZP4uMYz5B6lDLeOnv8uab+10uxNHRUTV463ksvS6n/cb0UlfHdSr97+uc/GB4jun31Xgtr+5ILWu1GJYrpWzk4F75WRaOYxkMVIuI7LIcyW/rDeVqomfzbNJady6KKT2s5nP9SIqiwyZX6apvrquS5WnyXTbTqb67rlIy84dhvmgmtfzy2ldVSqyk1vWySiTP08o64WGcfNSxCufniUd0hGfqzSTcmrM+tMtdtdH3H+pqCnVsbYkvv30V/zn77VxcnJ1//eXzz+LXs59/GYiPJ+cnzRycFllb3vuqRBN5IrIkzUU8nxbrYCjKliaZ8LNhUbyE8biBx9XYKz9Pdma/La6bJ5dU5vM0FjM/zeRplPh5y1cpf7OYyiefXZefNRrM+hLtiezyEuocP7xup5fH+rMM9zLYWxuBHPnzKBezNClymNxoi40f9vcHg5OTjVduPAMc4AAHOMABDnCAAxzgAAc4f08ckc2nxZ/AIpDqQxH4C0WUygA0oAENaEADGtCABjSgAQ1oQKOnuSv/a9b/0FxHcwkc4AAHOMABDnCAAxzgAAc4wFkH5/G9gZ56b+DFnHpvYN8r/4Xt+Hh7++AApCAFKUhBClKQghSkIAUpSEEKUpC+DdJeSernFGm3JO33e739XZCCFKQgBSlIQQpSkIIUpCAFKUhB+jZI+4r0NA0J0t5BSep5e3v9PkhBClKQghSkIAUpSEEKUpCCFKQgfRuk24r062ROke6XpAfFsfMepCAFKUhBClKQghSkIAUpSEEKUpC+DdIdRfpvGVCkeyXphw+Dwd4eSEEKUpCCFKQgBSlIQQpSkIIUpCB9G6S75Z2JuaRId0vSwWB3F6QgBSlIQQpSkIIUpCAFKUhBClKQvhXSPUX6KaE6C/Z2StL9/V5vZwekIAUpSEEKUpCCFKQgBSlIQQpSkFojXaEEqX/XqnV27+ZhHsmLiT+Tbi7v89bGx2SeZvUYiz+f+SGcyjgLkziSWemhxsXWljgOAuGL0pO4C/OJyJKpFEG/5szsduz6s5mMg5ajtJ3NmhNWh+vnedpy7p222O0anrQoTuo1PynLF5Gs8Dp+PJwkaXG+E8mRAe3SxyiJ886dDMeTXPm4TqKguY9qbi5mnXM/CIuVOV5cnUbp1ba4WGSdvih+L35eDCedj+Ljl2g4zTvDJJXi98/i88ngvfpWLqeiL75c/C7OhkP11Y1N3dS+28qGaTjL/0V+591WEN6+bCbPoZ0VvkQYHDlDte4HxVD5YSzTq56354hyAI+cIMxmkb84DOOosHWuo2T4/SeHBiy8Vtcg8sWsOF+N4daNf+tXn2rPVMetn6o1Ko5EEE5nkXRjeXdxO245P7wA2Rbb3W75ozbolN/Az/3C8eUfTuRfy8g5dAI58udRLmZpMgoj6bQry9W9c+i53bZz60dz6Rzu7Lj9gydHf6ftDFWqKlwU2WcwODlxHtqN3PZex23/ddxuv47bnddxu/s6bvdex+3+67g9eB23XveV/L5SnHmvFGjeK0Wa90qh5r1SrHmvFGzeK0Wb90rh5r1SvPVeKd56r7WvvVK89V4p3np/Jd5ENp9On70UfJ3KIZWBgdem42vmtenomnltOrZmXptmMjOvTfOYmdemWczMa9McZua1aQYz89q4YDB0+zrR1bhcMHT7OvHVuFgwdPs6Eda4VDB0+zox1rhQMHT7OlHWuEwwdPtKe9jrRFnjGsHQ7dpRdhfG+V8uD67VN5q7bTq0hm6bDq2h26ZDa+i2aQIzdNs0gRm6bZrADN02TWCGbpsmMEO3jesEU7+vFGeNKwVTv68UaY1rBVO/rxRrjasFU7+vFG2N6wVTv68Ub40rBlO/r7WvvVK8NS4aTP2axdv/t3e2vW0bSxv+/vyKrQokMirTImX5rfEpXMVOc5DUhZ20KAzDoMW1RIcmBZKyLRT+7w+XIl2r8VBLcsTWPTc/pKlGnPvi7szutCRH5zo3LrI7k2Jf+PIuvzGS3g9pR7ejTnpjY+kdkPz2ZiTjH4Op70TtfrcjTLPfET31N6uvdxflPsF4vGvrOAM7lqMgnB3cu9H89uDjWGjcQ00cHIeODE+m6m6d9omKY7bI8VHa0TSUcwx1wzGbg7p3hdMbUotSpzJ0ZZThJkrZhEy8IDbUXbKlktFz172cNDLSwJsEnh27gZ9AtaJYTtYv5VUQypZeJH2QI+k7ixc0/6y9lURBT0WCuqlmqj+ym65L70fnbo2LkYwP/ViNTyJxNfWHKWl7TfyhcddVEcrHs8+W5oY63CvRjsdulMS1Ok9PSB1PTjKS8Tu0h+P2n8BlveX42T3GzO/FJIhc5fBt8rHO1eSHcvMMVRjclUPKsVzfkSpx181OybPz47rqiVeu9FS8tbMxnefJKAymE+mIV6/EN9nn98bF2I6y9UQl2NpT6+xZazIghj0aHSkNw5P+KB6LN8ISP4jWgee1xN7iNyLPHcr2url21j1fW5pvX11JEIr2dXIp3e/FdSKThWqmqz77bl+Y5SdIHSqMM39n1+fGF5ksb/v788Gr5jH1mk37ddlLzY/LUNpfqpz8UPKcst9X45Vd3b4KaxUMWaSkG6NxMX+iSDrpM0XRWTqS59WGMp/oyTQat6vORTKle/P5rJ5Jnrenc5WG+mZVlSgOgy9ST2f+3apKwcQeuvFMTyr7cuWrSiVyqape8oVkcVmpkh6lFx915Om8uPCIdWGW9VYm3fRZHzrprqr1/YdlNYU6NjbEL58/id+PP5+I0+OTT+9/fic+HL97PxA/HZ4c6jk4SlZteW+rEk3EgYiCpJD2pzdJHAxFWiJGwo6GSfHi+iMNj/nYKz9Pdma7Iy71F5dQxtPQFxM7jOSRF9hx21ZL/loylU8+u0w/0xrM5SXaE9nsEpY5fvgbnvz8yx3b7PFOdQP2b3kQFTjAAQ5wgAMc4AAHOMABDnBePM7XT74oolA6oAENaEADGtCABjSgAQ1oQAOaYpqvnglUNOoRP+AABzjAAQ5wgAMc4AAHOMABzt/Yb/GTvJnI0I6noRTtozV0XPxndVycTibeTBy4oVAT9UJ6Ju68hJ6JO+iZWLq1AXomlneLnonomVi+tQF6Jlbzi56J6JmInonomYieieiZ+Jxb9ExEz0T0TCxdJqBnYnm36JmInonomVi2TEDPxGp+0TMRPRPRMxE9E5+5cYGeic9woGcieiYK9EzUw0LPRPRMrHKgZ6I60DMRPRPTAz0Ti7+JnonLHagDPRNfRmsR4AAHOMABDnCAAxzgAAc4wHnxOP+wjiOgAQ1oQAMa0IAGNKABDWhA83Jo/mc6nQAHOMABDnCAAxzgAAc4wAFOdT30THz+QM/Eec9EYb6Qrom7L6Fr4m5jXRPTv1dtz8Tkp8fkZ5PJT5/JzxaTn20mPztMfnaZ/Cx0FajliCuiTa6QNrli2uQKapMrqk2usDa54trkCmyTK7Itrsi22NZqrsi2uCLbKhXZ+t38FlxVb99Xww05QtUb9NVwQ+Z99RZ8NdyQOV+9yV4NN2S+12ijV8cPUxzT21iNznh1/DCFMr2H1Wh2V8cPUzTTG1iN/nV11kGmeKZ3rxot6er4YYpneuuq3mVuwU2NtnJ1/JDDU6NxXB0/ZLrXaA1Xxw+Z7jWav9XxQ6Z7nfZutRxxRTS9g9Xp2FbLEVdQ05tYnSZstRxxxTW9j9Xpq1ZrZeSKbHorq9MqrZYjrsimd7OvHP0SukHoxjNhinXRPp36a6oP1db6f21/vWuup39/K4frPZPa5roL/6F3cLC5ubvLIGGtXqK3eonN1Uv0Vy+xtXqJ7dVL7KxeYnf1Egs7+6o0Gshvs4EENxvIcLOBFDcbyHGzgSQ3G8hys4E0NxvIc6uBPLea2McbyHOrgTy3quW5lWrYMaXR1Surej3L2tlikKBng02Cngw2CXou2CToJZdNgl5x2SToBZdNgl5v2STo5ZZNoqCs4tNoIL8Lyio+jQYyvKCs4tNoIMcLyio+jQayvKCs4tNoIM8Lyio+jSb28QbyvKCs4tOoluc9pXEUuoSGtatXVpnm9navxyBBzwabBD0ZbBL0XLBJ0EsumwS94rJJ0AsumwS93rJJ0M9GsUkUPBDIp0E/UcWnQT9sxadBP4fFp0E/osWnQT+XyKdBP7LIp0E/zcinQT/oyKfRQJ4XlFV8Gk3s4w1s5AVlFZ9Gta18U2l8Gk8pjR29skr95lL/RwYJejbYJOjJYJOg54JNgi6r2CTosopNgi6r2CTosopNgl5u2SQKyio+Dbqs4tOgyyo+Dbqs4tOgyyo+Dbqs4tOgyyo+Dbqs4tOgyyo+jQbyvKCs4tNoYh9vYCMvKKv4NKpt5X2l8Zt0KI1tvbLq7dvBYHubQYKeDTYJejLYJOi5YJOgyyo2CbqsYpOgyyo2CbqsYpOgl1s2iYKyik+DLqv4NOiyik+DLqv4NOiyik+DLqv4NOiyik+DLqv4NOiyik+jgTwvKKv4NJrYxxvYyAvKKj6Nalv5Vlq6TSWlsaVXVg0GW1ssEvRssEnQk8EmQc8FmwRdVrFJ0GUVmwRdVrFJ0GUVmwS93LJJFJRVfBp0WcWnQZdVfBp0WcWnQZdVfBp0WcWnQZdVfBp0WcWnQZdVfBoN5HlBWcWn0cQ+3sBGXlBW8WlU28q3lcbHgHos3urrlVU7O5bV7zNI0LPBJkFPBpsEPRdsEnRZxSZBl1VsEnRZxSZBl1VsEkV9p5gkCputcWkUdavi0ihqZMWlUdTjikujqP0Vl0ZRzzcujaJ2cFwaRZ3iuDSKmshxaTSQ5wVlFZ9GE/t4Axt5QVnFp7F8Kz/X6fCaNWIW+8KXd3kH2bRxbDu6HXXSDrBLW8Xm3ZwjGf8YTH0nave7HWGa/Y7oqb9Zfb12s/cJxmMnascZ2LEcBeHs4N6N5r2QH69fo2V04uA4dGR4MlWtibVPVByzRY6P0o6moZxjqO7K2bivuCc3zDDDDDPMMMMMM8wwwwwzzDDDDDPMMMMMM8wwwwwzzDDDDDPMMMMMM8wwwwwzzDDDDDPMMMMMM8wwwwwzzDDDDDPMMMMMM8z/KvPMCG5lGLqO/GirF2tNo1vzfVX1amy0+GrsqQxdGWWv17Y6+QvEEy+IDc/15dJXZKPn3tNd/mZtZKQ/PT8JPDt2Az+BakWxnKxfyqsglC29N58/yJH0ncULmn/W3up2RE+9udxVLzKrP1qevIoV2BLXuVvjYiTjQz9W45NIXE39YUraXhN/LHGRE8rHs8+WvsutDvdKtOOxGxlROit6Qup4cpKRjN+hPRy3/wQu6y3HV6+OJ+yZ34tJELnK4dvkY52ryQ/l5hmqMLgrh5Rjub4jVT6sm52SZ+fHddUTr1zpqXhrZ2M6z5NRGEwn0hGvXolvss/vjYuxHWXvv6sEW3tqnT1rTQbEsEejI6VheNIfxWPxRljiB9E68LyW2Fv8RuS5Q9leN9fOuudrS/PtqysJQtG+Ti6l+724TmSyUM101WffJStO+QlShwrjzN/Z9bnxRc7E/v7+fPCqeUy9ZtN+XfZS8+MylPaXKic/lDyn7PfVeGVXt6/CWgVDFilpIwfjwo4id+RLZ6BaRERn6UieVxvKfKIn02jcrjoXyZTuzeezeiZ53p7OVRrqm1VVojgMvkg9nfl3qyoFE3voxjM9qezLla8qlcilqnrJF5LFZaVKepRefNSRp/PiwiPWhVnWW5l002d96KS7qtb3H5bVFOrY2BC/fP4kfj/+fCJOj08+vf/5nfhw/O79QPx0eHKo5+AoWbXlva1KNBEHIgrCWPjTmyQOhiJtaRIJOxomxYvrjzQ85mOv/DzZme2OuNRfXEIZT0NfTOwwkkdeYMdtWy35a8lUPvnsMv1MazCXl2hPZLNLWOb4YbWdXh7rzzTd02Rvv3bklT31YjEJg2QNk6874vW3OzuDweHh6xU3ngEOcIADHOAABzjAAQ5wgAOcfyeOiKY3yX8CC0eqD4VjzxRRKB3QgAY0oAENaEADGtCABjSgAU0xzV36aNZfaC69qQQOcIADHOAABzjAAQ5wgAMc4FTBefzdQFP9buDplPrdwJ6Z3mE7ONjc3N0FKUhBClKQghSkIAUpSEEKUpCCFKQvg9RKSe2YIu2mpL2eZe1sgRSkIAUpSEEKUpCCFKQgBSlIQQrSl0HaU6RHoUuQWrspqWlub/d6IAUpSEEKUpCCFKQgBSlIQQpSkIL0ZZBuKtJP4ylFupOS7iZH/0eQghSkIAUpSEEKUpCCFKQgBSlIQfoySPuK9DfpUKTbKenbt4PB9jZIQQpSkIIUpCAFKUhBClKQghSkIH0ZpFvp/5mYSop0KyUdDLa2QApSkIIUpCAFKUhBClKQghSkIAXpSyHdVqQfA6qzoNVPSXd2LKvfBylIQQpSkIIUpCAFKUhBClKQghSkjZHmKE5o37WXOrs3Yjf25OnYnkgjlvdx+/VPwTSMlmPMvj7zrXsj/cgNfE9GqYclLjY2xIHjCFuknsSdG49FFNxI4fSWnBndjgx7MpG+024p7dbakhPyw7DjOGy37lsdsdUtedIsOcnSPymKZ56c463b/nAchMn5LU9elaDNfFwFfrx+J93ROFY+LgPP0fcxn5tfD36dD/CJHEs7FqY4Hg7F6XD8eq1omt5sRMPQncT/Ib/zZsNxb583k+fQzhJfwnX2W0MVw4Pksm3Xl+GFZXVbIh2M/ZbjRhPPnu25vpfY1i+9YPjl+xYNmHidX4OIZ5PkfDUeG9f2rT3/tPBMddzaoYo3sS8c92biScOXd6e3o3br22cgO2Kz203/WJpAyq9jx3bi+OyPlmdfSq+113LklT31YjEJgyvXk63O3HJx39ozjW6ndWt7U5n9fajWmeScZOkYDA4PWw8dLT8Wk58ek59NJj99Jj9bTH62mfzsMPnZZfJjdrkccUW0yRXSJldMm1xBbXJFtckV1iZXXJtcgW1yRbbFFdkW21rNFdkWV2RbpSJbRNObm4Ufntba0ULplHBDjlE5N+QIlXNDjk85N2Tel3NDZn05N2TOl3NDZnw5N2S+l3NDb2Ql/TDFMb2NlfTDFMn0JlbSD1Ms01tYST9M0UxvYCX9MMUzvX2V9MO1LjPFM713lfSjH893rh+X37Yu1Uf6fsjhKemHHJ6SfsjhKemHTPeSfsh0L+mHTPeSfsh0L+mHTPeSfuj9q6wjroimd7Cyjrhimt7Dyjriimp6FyvriCuu6X2srCOuyKZ3srKO2NZqrsimN7OyjvQj+/FOxNJfCqa2ue7Cf+jNf0qYQcJavURv9RKbq5for15ia/US26uX2Fm9xO7qJRZ29lVpNJDfZgMJbjaQ4WYDKW42kONmA0luNpDlZgNpbjaQ51YDeW41sY83kOdWA3luVcvzpT/IqFdWzX+xkUGCng02CXoy2CTouWCToJdcNgl6xWWToBdcNgl6vWWToJdbNomCsopPo4H8Liir+DQayPCCsopPo4EcLyir+DQayPKCsopPo4E8Lyir+DSa2McbyPOCsopPo1qeL/3dK72yav7DWAwS9GywSdCTwSZBzwWbBL3ksknQKy6bBL3gsknQ6y2bBP1sFJtEwQOBfBr0E1V8GvTDVnwa9HNYfBr0I1p8GvRziXwa9COLfBr004x8GvSDjnwaDeR5weORfBoN5HnBQ5V8Gg3s5AVlVZHG0p8X0Sur5r8/wiBBl1VsEvRksEnQc8EmQZdVbBJ0WcUmQZdVbBJ0WcUmQS+3bBIFZRWfBr3c8mnQyy2fBl1W8WnQZRWfBl1W8WnQZRWfBl1W8WnQZRWfRgN5XlBW8Wk0kOcFZRWfRgM7eUFZVaSxtIu7Xlk1b/POIEGXVWwS9GSwSdBzwSZBl1VsEnRZxSZBl1VsEnRZxSZBL7dsEgVlFZ8GvdzyadDLLZ8GXVbxadBlFZ8GXVbxadBlFZ8GXVbxadBlFZ9GA3leUFbxaTSQ5wVlFZ9GAzt5QVlVpLG0Wa5eWTXvpssgQZdVbBL0ZLBJ0HPBJkGXVWwSdFnFJkGXVWwSdFnFJkEvt2wSBWUVnwa93PJp0MstnwZdVvFp0GUVnwZdVvFp0GUVnwZdVvFp0GUVn0YDeV5QVvFpNJDnBWUVn0YDO3lBWVWksbQnoV5ZNW9ayCBBl1VsEvRksEnQc8EmQZdVbBJ0WcUmQZdVbBJ0WcUmUdR3ikmisNkalwa93PJpFDWy4tIo6nHFpVHU/opLo6jnG5dGUTs4Lo2iTnFcGkVN5Lg0GsjzwtZzXBoN5HlhwzoujQZ28oKyKtc41+nwmrVjFvvCl3d5B9m0cWw7uh110g6wS1vF5j2dIxn/GEx9J2r3ux1hmv2O6Km/WX29drP3CcZjq2rHGdixHAXh7ODejeY9kR+vX6NxdOLgOHRkeDJVLYq1T1Qcs0WOj9KOpqGcY6guy9m4r7hpN8wwwwwzzDDDDDPMMMMMM8wwwwwzzDDDDDPMMMMMM8wwwwwzzDDDDDPMMMMMM8wwwwwzzDDDDDPMMMMMM8wwwwwzzDDDDDPM/yrzzAhuZRi6jvxoqxdrTaNb831V9WpstPhq7KkMXRllr9e2OvkLxBMviA3P9eXSV2Sj597TXf5mbWSkPz0/CTw7dgM/gWpFsZysX8qrIJQtvTefP8iR9J3FC5p/1t7qdkRPvbncVS8yqz9anryKFdgS17lb42Ik40M/VuOTSFxN/WFK2l4TfyxxkRPKx7PPlr7LrQ73SrTjsRsZUTorekLqeHKSkYzfoT0ct/8ELustx1evjifsmd+LSRC5yuHb5GOdq8kP5eYZqjC4K4eUY7m+I1U+rJudkmfnx3XVE69c6al4a2djOs+TURhMJ9IRr16Jb7LP742LsR1l77+rBFt7ap09a00GxLBHoyOlYXjSH8Vj8UZY4gfROvC8lthb/EbkuUPZXjfXzrrna0vz7asrCULRvk4upfu9uE5kslDNdNVn3yUrTvkJUocK48zf2fW58UXOxP7+/nzwqnlMvWbTfl32UvPjMpT2lyonP5Q8p+z31XhlV7evwloFQxYpaSMH48KOInfkS2egWkREZ+lInlcbynyiJ9No3K46F8mU7s3ns3omed6ezlUa6ptVVaI4DL5IPZ35d6sqBRN76MYzPansy5WvKpXIpap6yReSxWWlSnqUXnzUkafz4sIj1oVZ1luZdNNnfeiku6rW9x+W1RTq2NgQv3z+JH4//nwiTo9PPr3/+Z34cPzu/UD8dHhyqOfgKFm15b2tSjQRByIKwlj405skDoYibWkSCTsaJsWL6480POZjr/w82ZntjrjUX1xCGU9DX0zsMJJHXmDHbVst+WvJVD757DL9TGswl5doT2SzS1jm+GG1nV4e68803dNkb7925JU99WIxCYNkDZOvO+L1tzs7g8Hh4esVN54BDnCAAxzgAAc4wAEOcIADnH8njoimN8l/AgtHqg+FY88UUSgd0IAGNKABDWhAAxrQgAY0oAFNMc1d+mjWX2guvakEDnCAAxzgAAc4wAEOcIADHOBUwXn83UBT/W7g6ZT63cCemd5hOzjY3NzdBSlIQQpSkIIUpCAFKUhBClKQghSkL4PUSkntmCLtpqS9nmXtbIEUpCAFKUhBClKQghSkIAUpSEEK0pdB2lOkR6FLkFq7Kalpbm/3eiAFKUhBClKQghSkIAUpSEEKUpCC9GWQbirST+MpRbqTku4mR/9HkIIUpCAFKUhBClKQghSkIAUpSEH6Mkj7ivQ36VCk2ynp27eDwfY2SEEKUpCCFKQgBSlIQQpSkIIUpCB9GaRb6f+ZmEqKdCslHQy2tkAKUpCCFKQgBSlIQQpSkIIUpCAF6Ush3VakHwOqs6DVT0l3diyr3wcpSEEKUpCCFKQgBSlIQQpSkIIUpI2R5ihOaN+1lzq7N2I39uTp2J5II5b3cfv1T8E0jJZjzL4+8617I/3IDXxPRqmHJS42NsSB4whbpJ7EnRuPRRTcSOH0lpwZ3Y4MezKRvtNuKe3W2pIT8sOw4zhst+5bHbHVLXnSLDnJ0j8pimeenOOt2/5wHITJ+S1PXpWgzXxcBX68fifd0ThWPi4Dz9H3MZ+bXw9+nQ/wiRxLOxbHw6E4HY5frxVN0puNaBi6k/g/5HfebDju7fNm8hzaWeJLuM5+a6gieJBctO36MrywLLMl0qHYbzluNPHs2Z7re4lt/dILhl++b9GAidf5NYh4NknOV6OxcW3f2vNPC89Ux60dqmgT+8JxbyaeNHx5d3o7are+fQayIza73fSPpemj/Dp2bCeOz/5oefal9Fp7LUde2VMvFpMwuHI92erMLRf3rT3T6HZat7Y3la29rV1j98mxs9tpDdWak3hIlpHB4PCw9dDR8mqtxGtvJV43V+K1vxKvWyvxur0Srzsr8bq7Eq9mdzVuV5Nd5mrSy1xNfpmrSTBzNRlmribFzNXkmLmaJDNXk2XWarLMWtEetposs1aTZVaNLBPR9OZm4We8K1QIoXRKONUc23JONUe2nFPNcS3nVHPtKudUc+Uq51Rz3SrnVHPVKudUc80q51S3MCjpdSU5pVsWlPS6kqzSLQpKel1JXumWBCW9riSzdAuCkl5Xklu65UBJr6vZr1aSW7q1QEmvVXPrzvXjumXApfqCvlfNYS3pVXNYS3rVHNaSXjWXrJJeNZeskl41l6ySXjWXrJJeNZeskl5164GybleTXboVQVm3q8kv3ZqgrNvVZJhuVVDW7WpyTLcuKOt2NVmmWxmUdbuiPWw1WaZbHJR1WyrLznVuOGT3BsW+8OVdfkMjvY/Rjm5HnfSGxNI7F/kNxkjGPwZT34na/W5HmGa/I3rqb1Zf7+7HfYLxeN/UcQZ2LEdBODu4d6P5DbrHodC4i5k4OA4dGZ5M1f0y7RMVx2yR46O0o2ko5xjqll82BXXvy6Y3khalTmXoyijDTZSyCZl4QWyou1tLJaPnrns5aWSkcTcJPDt2Az+BakWxnKxfyqsglC29SPogR9J3Fi9o/ll7K4mCnooEdTPMVH9ktz2X3hHO3RoXIxkf+rEan0TiauoPU9L2mvhD476nIpSPZ58tzQ11uFeiHY/dKIlrdZ6ekDqenGQk43doD8ftP4HLesvxs3uDmd+LSRC5yuHb5GOdq8kP5eYZqjC4K4eUY7m+I1Xirpudkmfnx3XVE69c6al4a2djOs+TURhMJ9IRr16Jb7LP742LsR1l64lKsLWn1tmz1mRADHs0OlIahif9UTwWb4QlfhCtA89rib3Fb0SeO5TtdXPtrHu+tjTfvrqSIBTt6+RSut+L60QmC9VMV3323b4wy0+QOlQYZ/7Ors+NLzJZ3vb354NXzWPqNZv267KXmh+XobS/VDn5oeQ5Zb+vxiu7un0V1ioYskhJN0bjYv5Mj3TSp3qis3Qkz6sNZT7Rk2k0bledi2RK9+bzWT2TPG9P5yoN9c2qKlEcBl+kns78u1WVgok9dOOZnlT25cpXlUrkUlW95AvJ4rJSJT1KLz7qyNN5ceER68Is661MuumzPnTSXVXr+w/Lagp1bGyIXz5/Er8ffz4Rp8cnn97//E58OH73fiB+Ojw51HNwlKza8t5WJZqIAxEFSSHtT2+SOBiKtESMhB0Nk+LF9UcaHvOxV36e7Mx2R1zqLy6hjKehLyZ2GMkjL7Djtq2W/LVkKp98dpl+pjWYy0u0J7LZJSxz/PA3PHv5lxuw2QOW6obq3/IoKHCAAxzgAAc4wAEOcIADHOC8eJyvH3BRRKF0QAMa0IAGNKABDWhAAxrQgAY0xTRfPRKoaNQjfsABDnCAAxzgAAc4wAEOcIADnL+x4+EneTORoR1PQynaR2voefiP6nn4m60i7ieZ/uPg5tKVfizUlKnOh9KZJuO/Lra7Ry+kCaL1EpogWo01QUxfPa3ahInJT4/JzyaTnz6Tny0mP9tMfnaY/Owy+VnoLlDLEVdEm1whbXLFtMkV1CZXVJtcYW1yxbXJFdgmV2RbXJFtsa3VXJFtcUW2VSqy9Zv2Lbiq3qavhhtyhKq34qvhhsz76u32arghc756S70absh8r9E2r44fpjimt7EazfDq+GEKZXoPq9Hiro4fpmimN7AajevqrINM8UzvXjXa0dXxwxTP9NZVvcncgpsabeXq+CGHp0bruDp+yHSv0R6ujh8y3Wu0gKvjh0z3Om3eajniimh6B6vTvK2WI66gpjexOi3Zajniimt6H6vTaK3WysgV2fRWVqd9Wi1HXJFN72ZoivYimqLBDDPMMMMMM8wwwwwzzDDDDDPMMMP8TzLPjOBWhqHryI+2+h9VptFFU/wnV4Km+I8HmuKXOtAUH03xSxxoiv/XA03x/3qgKX7JA03x0RT/2QNN8YEDHOAABzjAAQ5wgAMc4AAHOC+hpSRoQAMa0IAGNKABDWhAAxrQvBya/5lWlsABDnCAAxzgAAc4wAEOcIBTXe9vaIr/1r2RfuQGviejCC3x/1kt8YPwizi8unKHrvSHs8dG+M22wM++/RfL03/P/z7/56P37C+P/7gMnJn65zi+8f7zf/8P8SLBvA=="
               },
               {
                  "name" : "annual_peak_electric_demand",
                  "units" : "kW",
                  "value" : 565.69210999999996
               },
               {
                  "name" : "first_year_capital_cost",
                  "units" : "$",
                  "value" : 0
               },
               {
                  "name" : "annual_utility_cost",
                  "units" : "$",
                  "value" : 0
               },
               {
                  "name" : "total_lifecycle_cost",
                  "units" : "$",
                  "value" : 0
               }
            ],
            "step_warnings" : []
         }
      }
   ],
   "updated_at" : "20170710T184650Z",
   "weather_file" : "USA_CO_Denver.Intl.AP.725650_TMY3.epw"
}
