{
   "completed_at" : "20170710T190204Z",
   "completed_status" : "Success",
   "created_at" : "2017-07-10 19:00:10 +0000",
   "current_step" : 5,
   "description" : "",
   "eplusout_err" : "Program Version,EnergyPlus, Version 8.7.0-78a111df4a, YMD=2017.07.10 19:01,IDD_Version 8.7.0\n   ************* IDF Context for following error/warning message:\n   ************* Note -- lines truncated at 300 characters, if necessary...\n   *************      5 Building,\n   ************* indicated Name=NECB 2011-SmallOffice-NECB HDD Method-CAN_NS_Sable.Island.716000_CWEC.epw created: 2017-07-10 19:00:15 +0000\n   ************* Only last 1 lines before error line shown.....\n   *************      6   NECB 2011-SmallOffice-NECB HDD Method-CAN_NS_Sable.Island.716000_CWEC.epw created: 2017-07-10 19:00:15 +0000, !- Name\n   ** Warning ** IP: IDF line~6 Alpha Argument length exceeds maximum, will be truncated=  NECB 2011-SmallOffice-NECB HDD Method-CAN_NS_Sable.Island.716000_CWEC.epw created: 2017-07-10 19:00:15 +000\n   **   ~~~   ** Will be processed as Alpha=NECB 2011-SMALLOFFICE-NECB HDD METHOD-CAN_NS_SABLE.ISLAND.716000_CWEC.EPW CREATED: 2017-07-10 19:00:15 +0000\n   ************* Beginning Zone Sizing Calculations\n   ** Warning ** ProcessScheduleInput: Schedule:Day:Interval=\"ECONOMIZER MAX OA FRACTION 100 PCT DEFAULT\", Blank Schedule Type Limits Name input -- will not be validated.\n   ** Warning ** ProcessScheduleInput: Schedule:Day:Interval=\"SCHEDULE DAY 1\", Blank Schedule Type Limits Name input -- will not be validated.\n   ** Warning ** ProcessScheduleInput: Schedule:Day:Interval=\"SCHEDULE DAY 10\", Blank Schedule Type Limits Name input -- will not be validated.\n   ** Warning ** ProcessScheduleInput: Schedule:Day:Interval=\"SCHEDULE DAY 11\", Blank Schedule Type Limits Name input -- will not be validated.\n   ** Warning ** ProcessScheduleInput: Schedule:Day:Interval=\"SCHEDULE DAY 12\", Blank Schedule Type Limits Name input -- will not be validated.\n   ** Warning ** ProcessScheduleInput: Schedule:Day:Interval=\"SCHEDULE DAY 13\", Blank Schedule Type Limits Name input -- will not be validated.\n   ** Warning ** ProcessScheduleInput: Schedule:Day:Interval=\"SCHEDULE DAY 14\", Blank Schedule Type Limits Name input -- will not be validated.\n   ** Warning ** ProcessScheduleInput: Schedule:Day:Interval=\"SCHEDULE DAY 15\", Blank Schedule Type Limits Name input -- will not be validated.\n   ** Warning ** ProcessScheduleInput: Schedule:Day:Interval=\"SCHEDULE DAY 16\", Blank Schedule Type Limits Name input -- will not be validated.\n   ** Warning ** ProcessScheduleInput: Schedule:Day:Interval=\"SCHEDULE DAY 17\", Blank Schedule Type Limits Name input -- will not be validated.\n   ** Warning ** ProcessScheduleInput: Schedule:Day:Interval=\"SCHEDULE DAY 18\", Blank Schedule Type Limits Name input -- will not be validated.\n   ** Warning ** ProcessScheduleInput: Schedule:Day:Interval=\"SCHEDULE DAY 19\", Blank Schedule Type Limits Name input -- will not be validated.\n   ** Warning ** ProcessScheduleInput: Schedule:Day:Interval=\"SCHEDULE DAY 2\", Blank Schedule Type Limits Name input -- will not be validated.\n   ** Warning ** ProcessScheduleInput: Schedule:Day:Interval=\"SCHEDULE DAY 5\", Blank Schedule Type Limits Name input -- will not be validated.\n   ** Warning ** ProcessScheduleInput: Schedule:Day:Interval=\"SCHEDULE DAY 6\", Blank Schedule Type Limits Name input -- will not be validated.\n   ** Warning ** ProcessScheduleInput: Schedule:Day:Interval=\"SCHEDULE DAY 7\", Blank Schedule Type Limits Name input -- will not be validated.\n   ** Warning ** ProcessScheduleInput: Schedule:Day:Interval=\"SCHEDULE DAY 8\", Blank Schedule Type Limits Name input -- will not be validated.\n   ** Warning ** ProcessScheduleInput: Schedule:Day:Interval=\"SCHEDULE DAY 9\", Blank Schedule Type Limits Name input -- will not be validated.\n   ** Warning ** ProcessScheduleInput: Schedule:Year=\"ECONOMIZER MAX OA FRACTION 100 PCT\", Blank Schedule Type Limits Name input -- will not be validated.\n   ** Warning ** ProcessScheduleInput: Schedule:Year=\"SCHEDULE RULESET 10\", Blank Schedule Type Limits Name input -- will not be validated.\n   ** Warning ** ProcessScheduleInput: Schedule:Year=\"SCHEDULE RULESET 11\", Blank Schedule Type Limits Name input -- will not be validated.\n   ** Warning ** ProcessScheduleInput: Schedule:Year=\"SCHEDULE RULESET 12\", Blank Schedule Type Limits Name input -- will not be validated.\n   ** Warning ** ProcessScheduleInput: Schedule:Year=\"SCHEDULE RULESET 13\", Blank Schedule Type Limits Name input -- will not be validated.\n   ** Warning ** ProcessScheduleInput: Schedule:Year=\"SCHEDULE RULESET 14\", Blank Schedule Type Limits Name input -- will not be validated.\n   ** Warning ** ProcessScheduleInput: Schedule:Year=\"SCHEDULE RULESET 15\", Blank Schedule Type Limits Name input -- will not be validated.\n   ** Warning ** ProcessScheduleInput: Schedule:Year=\"SCHEDULE RULESET 16\", Blank Schedule Type Limits Name input -- will not be validated.\n   ** Warning ** ProcessScheduleInput: Schedule:Year=\"SCHEDULE RULESET 17\", Blank Schedule Type Limits Name input -- will not be validated.\n   ** Warning ** ProcessScheduleInput: Schedule:Year=\"SCHEDULE RULESET 3\", Blank Schedule Type Limits Name input -- will not be validated.\n   ** Warning ** ProcessScheduleInput: Schedule:Year=\"SCHEDULE RULESET 4\", Blank Schedule Type Limits Name input -- will not be validated.\n   ** Warning ** ProcessScheduleInput: Schedule:Year=\"SCHEDULE RULESET 5\", Blank Schedule Type Limits Name input -- will not be validated.\n   ** Warning ** ProcessScheduleInput: Schedule:Year=\"SCHEDULE RULESET 6\", Blank Schedule Type Limits Name input -- will not be validated.\n   ** Warning ** ProcessScheduleInput: Schedule:Year=\"SCHEDULE RULESET 7\", Blank Schedule Type Limits Name input -- will not be validated.\n   ** Warning ** ProcessScheduleInput: Schedule:Year=\"SCHEDULE RULESET 8\", Blank Schedule Type Limits Name input -- will not be validated.\n   ** Warning ** ProcessScheduleInput: Schedule:Year=\"SCHEDULE RULESET 9\", Blank Schedule Type Limits Name input -- will not be validated.\n   ** Warning ** ProcessScheduleInput: Schedule:Constant=\"ALWAYS OFF DISCRETE\", Blank Schedule Type Limits Name input -- will not be validated.\n   ** Warning ** ProcessScheduleInput: Schedule:Constant=\"ALWAYS ON CONTINUOUS\", Blank Schedule Type Limits Name input -- will not be validated.\n   ** Warning ** CheckUsedConstructions: There are 22 nominally unused constructions in input.\n   **   ~~~   ** For explicit details on each unused construction, use Output:Diagnostics,DisplayExtraWarnings;\n   ************* Beginning System Sizing Calculations\n   ************* Beginning Plant Sizing Calculations\n   ** Warning ** GetDXCoils: Coil:Cooling:DX:SingleSpeed=\"COIL COOLING DX SINGLE SPEED 5 14KBTU/HR 14.0SEER\", invalid\n   **   ~~~   ** ...Part Load Fraction Correlation Curve Name = DXCOOL-NECB2011-REF-COOLPLFFPLR 4 has out of range value.\n   **   ~~~   ** ...Curve maximum must be <= 1.0, curve max at PLR = 0.99 is 1.015\n   **   ~~~   ** ...Setting curve maximum to 1.0 and simulation continues.\n   ** Warning ** GetDXCoils: Coil:Cooling:DX:SingleSpeed=\"COIL COOLING DX SINGLE SPEED 4 17KBTU/HR 14.0SEER\", invalid\n   **   ~~~   ** ...Part Load Fraction Correlation Curve Name = DXCOOL-NECB2011-REF-COOLPLFFPLR 3 has out of range value.\n   **   ~~~   ** ...Curve maximum must be <= 1.0, curve max at PLR = 0.99 is 1.015\n   **   ~~~   ** ...Setting curve maximum to 1.0 and simulation continues.\n   ** Warning ** GetDXCoils: Coil:Cooling:DX:SingleSpeed=\"COIL COOLING DX SINGLE SPEED 2 14KBTU/HR 14.0SEER\", invalid\n   **   ~~~   ** ...Part Load Fraction Correlation Curve Name = DXCOOL-NECB2011-REF-COOLPLFFPLR 1 has out of range value.\n   **   ~~~   ** ...Curve maximum must be <= 1.0, curve max at PLR = 0.99 is 1.015\n   **   ~~~   ** ...Setting curve maximum to 1.0 and simulation continues.\n   ** Warning ** GetDXCoils: Coil:Cooling:DX:SingleSpeed=\"COIL COOLING DX SINGLE SPEED 1 12KBTU/HR 14.0SEER\", invalid\n   **   ~~~   ** ...Part Load Fraction Correlation Curve Name = DXCOOL-NECB2011-REF-COOLPLFFPLR has out of range value.\n   **   ~~~   ** ...Curve maximum must be <= 1.0, curve max at PLR = 0.99 is 1.015\n   **   ~~~   ** ...Setting curve maximum to 1.0 and simulation continues.\n   ** Warning ** GetDXCoils: Coil:Cooling:DX:SingleSpeed=\"COIL COOLING DX SINGLE SPEED 3 16KBTU/HR 14.0SEER\", invalid\n   **   ~~~   ** ...Part Load Fraction Correlation Curve Name = DXCOOL-NECB2011-REF-COOLPLFFPLR 2 has out of range value.\n   **   ~~~   ** ...Curve maximum must be <= 1.0, curve max at PLR = 0.99 is 1.015\n   **   ~~~   ** ...Setting curve maximum to 1.0 and simulation continues.\n   ** Warning ** The Standard Ratings is calculated for Coil:Cooling:DX:SingleSpeed = COIL COOLING DX SINGLE SPEED 5 14KBTU/HR 14.0SEER but not at the AHRI test condition due to curve out of bound.\n   **   ~~~   **  Review the Standard Ratings calculations in the Engineering Reference for this coil type. Also, use Output:Diagnostics, DisplayExtraWarnings for further guidance.\n   ** Warning ** The Standard Ratings is calculated for Coil:Cooling:DX:SingleSpeed = COIL COOLING DX SINGLE SPEED 4 17KBTU/HR 14.0SEER but not at the AHRI test condition due to curve out of bound.\n   **   ~~~   **  Review the Standard Ratings calculations in the Engineering Reference for this coil type. Also, use Output:Diagnostics, DisplayExtraWarnings for further guidance.\n   ** Warning ** The Standard Ratings is calculated for Coil:Cooling:DX:SingleSpeed = COIL COOLING DX SINGLE SPEED 2 14KBTU/HR 14.0SEER but not at the AHRI test condition due to curve out of bound.\n   **   ~~~   **  Review the Standard Ratings calculations in the Engineering Reference for this coil type. Also, use Output:Diagnostics, DisplayExtraWarnings for further guidance.\n   ** Warning ** The Standard Ratings is calculated for Coil:Cooling:DX:SingleSpeed = COIL COOLING DX SINGLE SPEED 1 12KBTU/HR 14.0SEER but not at the AHRI test condition due to curve out of bound.\n   **   ~~~   **  Review the Standard Ratings calculations in the Engineering Reference for this coil type. Also, use Output:Diagnostics, DisplayExtraWarnings for further guidance.\n   ** Warning ** The Standard Ratings is calculated for Coil:Cooling:DX:SingleSpeed = COIL COOLING DX SINGLE SPEED 3 16KBTU/HR 14.0SEER but not at the AHRI test condition due to curve out of bound.\n   **   ~~~   **  Review the Standard Ratings calculations in the Engineering Reference for this coil type. Also, use Output:Diagnostics, DisplayExtraWarnings for further guidance.\n   ** Warning ** Check input. Pump nominal power or motor efficiency is set to 0, for pump=SERVICE WATER LOOP PUMP\n   ** Warning ** Output:Meter: invalid Name=\"DISTRICTCOOLING:FACILITY\" - not found.\n   ** Warning ** Output:Meter: invalid Name=\"DISTRICTHEATING:FACILITY\" - not found.\n   ** Warning ** Output:Meter:MeterFileOnly requested for \"Electricity:Facility\" (TimeStep), already on \"Output:Meter\". Will report to both eplusout.eso and eplusout.mtr\n   ************* Testing Individual Branch Integrity\n   ************* All Branches passed integrity testing\n   ************* Testing Individual Supply Air Path Integrity\n   ************* All Supply Air Paths passed integrity testing\n   ************* Testing Individual Return Air Path Integrity\n   ************* All Return Air Paths passed integrity testing\n   ************* No node connection errors were found.\n   ************* Beginning Simulation\n   ** Warning ** CalcDoe2DXCoil: Coil:Cooling:DX:SingleSpeed \"COIL COOLING DX SINGLE SPEED 1 12KBTU/HR 14.0SEER\" - Full load outlet air dry-bulb temperature < 2C. This indicates the possibility of coil frost/freeze. Outlet temperature = 1.17 C.\n   **   ~~~   **  ...Occurrence info = RUN PERIOD 1, 01/02 06:03 - 06:05\n   **   ~~~   ** ... Possible reasons for low outlet air dry-bulb temperatures are: This DX coil\n   **   ~~~   **    1) may have a low inlet air dry-bulb temperature. Inlet air temperature = 15.179 C.\n   **   ~~~   **    2) may have a low air flow rate per watt of cooling capacity. Check inputs.\n   **   ~~~   **    3) is used as part of a HX assisted cooling coil which uses a high sensible effectiveness. Check inputs.\n   ** Warning ** CalcDoe2DXCoil: Coil:Cooling:DX:SingleSpeed \"COIL COOLING DX SINGLE SPEED 5 14KBTU/HR 14.0SEER\" - Full load outlet air dry-bulb temperature < 2C. This indicates the possibility of coil frost/freeze. Outlet temperature = 0.48 C.\n   **   ~~~   **  ...Occurrence info = RUN PERIOD 1, 01/03 06:03 - 06:05\n   **   ~~~   ** ... Possible reasons for low outlet air dry-bulb temperatures are: This DX coil\n   **   ~~~   **    1) may have a low inlet air dry-bulb temperature. Inlet air temperature = 14.441 C.\n   **   ~~~   **    2) may have a low air flow rate per watt of cooling capacity. Check inputs.\n   **   ~~~   **    3) is used as part of a HX assisted cooling coil which uses a high sensible effectiveness. Check inputs.\n   ** Warning ** CalcDoe2DXCoil: Coil:Cooling:DX:SingleSpeed \"COIL COOLING DX SINGLE SPEED 4 17KBTU/HR 14.0SEER\" - Air-cooled condenser inlet dry-bulb temperature below 0 C. Outdoor dry-bulb temperature = -1.93\n   **   ~~~   **  ... Occurrence info = RUN PERIOD 1, 01/04 06:03 - 06:05\n   **   ~~~   ** ... Operation at low ambient temperatures may require special performance curves.\n   ** Warning ** CalcDoe2DXCoil: Coil:Cooling:DX:SingleSpeed \"COIL COOLING DX SINGLE SPEED 2 14KBTU/HR 14.0SEER\" - Air-cooled condenser inlet dry-bulb temperature below 0 C. Outdoor dry-bulb temperature = -1.93\n   **   ~~~   **  ... Occurrence info = RUN PERIOD 1, 01/04 06:03 - 06:05\n   **   ~~~   ** ... Operation at low ambient temperatures may require special performance curves.\n   ** Warning ** CalcDoe2DXCoil: Coil:Cooling:DX:SingleSpeed \"COIL COOLING DX SINGLE SPEED 1 12KBTU/HR 14.0SEER\" - Air-cooled condenser inlet dry-bulb temperature below 0 C. Outdoor dry-bulb temperature = -1.93\n   **   ~~~   **  ... Occurrence info = RUN PERIOD 1, 01/04 06:03 - 06:05\n   **   ~~~   ** ... Operation at low ambient temperatures may require special performance curves.\n   ** Warning ** CalcDoe2DXCoil: Coil:Cooling:DX:SingleSpeed \"COIL COOLING DX SINGLE SPEED 3 16KBTU/HR 14.0SEER\" - Air-cooled condenser inlet dry-bulb temperature below 0 C. Outdoor dry-bulb temperature = -1.93\n   **   ~~~   **  ... Occurrence info = RUN PERIOD 1, 01/04 06:03 - 06:05\n   **   ~~~   ** ... Operation at low ambient temperatures may require special performance curves.\n   ** Warning ** CalcDoe2DXCoil: Coil:Cooling:DX:SingleSpeed \"COIL COOLING DX SINGLE SPEED 5 14KBTU/HR 14.0SEER\" - Air-cooled condenser inlet dry-bulb temperature below 0 C. Outdoor dry-bulb temperature = -4.10\n   **   ~~~   **  ... Occurrence info = RUN PERIOD 1, 01/04 21:15 - 21:18\n   **   ~~~   ** ... Operation at low ambient temperatures may require special performance curves.\n   ** Warning ** CalcDoe2DXCoil: Coil:Cooling:DX:SingleSpeed \"COIL COOLING DX SINGLE SPEED 4 17KBTU/HR 14.0SEER\" - Full load outlet air dry-bulb temperature < 2C. This indicates the possibility of coil frost/freeze. Outlet temperature = 1.77 C.\n   **   ~~~   **  ...Occurrence info = RUN PERIOD 1, 01/04 21:30 - 21:35\n   **   ~~~   ** ... Possible reasons for low outlet air dry-bulb temperatures are: This DX coil\n   **   ~~~   **    1) may have a low inlet air dry-bulb temperature. Inlet air temperature = 14.821 C.\n   **   ~~~   **    2) may have a low air flow rate per watt of cooling capacity. Check inputs.\n   **   ~~~   **    3) is used as part of a HX assisted cooling coil which uses a high sensible effectiveness. Check inputs.\n   ************* Simulation Error Summary *************\n   ************* There are 9 unused schedules in input.\n   ************* There are 9 unused week schedules in input.\n   ************* There are 12 unused day schedules in input.\n   ************* Use Output:Diagnostics,DisplayUnusedSchedules; to see them.\n   *************\n   ************* ===== Recurring Error Summary =====\n   ************* The following recurring error messages occurred.\n   *************\n   *************  ** Warning ** CalcDoe2DXCoil: Coil:Cooling:DX:SingleSpeed=\"COIL COOLING DX SINGLE SPEED 1 12KBTU/HR 14.0SEER\" - Full load outlet temperature indicates a possibility of frost/freeze error continues. Outlet air temperature statistics follow:\n   *************  **   ~~~   **   This error occurred 229 total times;\n   *************  **   ~~~   **   during Warmup 0 times;\n   *************  **   ~~~   **   during Sizing 0 times.\n   *************  **   ~~~   **   Max=1.995468  Min=-1.514245\n   *************\n   *************  ** Warning ** CalcDoe2DXCoil: Coil:Cooling:DX:SingleSpeed=\"COIL COOLING DX SINGLE SPEED 5 14KBTU/HR 14.0SEER\" - Full load outlet temperature indicates a possibility of frost/freeze error continues. Outlet air temperature statistics follow:\n   *************  **   ~~~   **   This error occurred 243 total times;\n   *************  **   ~~~   **   during Warmup 0 times;\n   *************  **   ~~~   **   during Sizing 0 times.\n   *************  **   ~~~   **   Max=1.982966  Min=-2.226515\n   *************\n   *************  ** Warning ** CalcDoe2DXCoil: Coil:Cooling:DX:SingleSpeed=\"COIL COOLING DX SINGLE SPEED 4 17KBTU/HR 14.0SEER\" - Low condenser dry-bulb temperature error continues...\n   *************  **   ~~~   **   This error occurred 367 total times;\n   *************  **   ~~~   **   during Warmup 0 times;\n   *************  **   ~~~   **   during Sizing 0 times.\n   *************  **   ~~~   **   Max=-2.500000E-002 [C]  Min=-8.85 [C]\n   *************\n   *************  ** Warning ** CalcDoe2DXCoil: Coil:Cooling:DX:SingleSpeed=\"COIL COOLING DX SINGLE SPEED 2 14KBTU/HR 14.0SEER\" - Low condenser dry-bulb temperature error continues...\n   *************  **   ~~~   **   This error occurred 234 total times;\n   *************  **   ~~~   **   during Warmup 0 times;\n   *************  **   ~~~   **   during Sizing 0 times.\n   *************  **   ~~~   **   Max=-2.500000E-002 [C]  Min=-8.85 [C]\n   *************\n   *************  ** Warning ** CalcDoe2DXCoil: Coil:Cooling:DX:SingleSpeed=\"COIL COOLING DX SINGLE SPEED 1 12KBTU/HR 14.0SEER\" - Low condenser dry-bulb temperature error continues...\n   *************  **   ~~~   **   This error occurred 151 total times;\n   *************  **   ~~~   **   during Warmup 0 times;\n   *************  **   ~~~   **   during Sizing 0 times.\n   *************  **   ~~~   **   Max=-2.500000E-002 [C]  Min=-8.85 [C]\n   *************\n   *************  ** Warning ** CalcDoe2DXCoil: Coil:Cooling:DX:SingleSpeed=\"COIL COOLING DX SINGLE SPEED 3 16KBTU/HR 14.0SEER\" - Low condenser dry-bulb temperature error continues...\n   *************  **   ~~~   **   This error occurred 286 total times;\n   *************  **   ~~~   **   during Warmup 0 times;\n   *************  **   ~~~   **   during Sizing 0 times.\n   *************  **   ~~~   **   Max=-2.500000E-002 [C]  Min=-8.85 [C]\n   *************\n   *************  ** Warning ** CalcDoe2DXCoil: Coil:Cooling:DX:SingleSpeed=\"COIL COOLING DX SINGLE SPEED 5 14KBTU/HR 14.0SEER\" - Low condenser dry-bulb temperature error continues...\n   *************  **   ~~~   **   This error occurred 161 total times;\n   *************  **   ~~~   **   during Warmup 0 times;\n   *************  **   ~~~   **   during Sizing 0 times.\n   *************  **   ~~~   **   Max=-2.500000E-002 [C]  Min=-7.225 [C]\n   *************\n   *************  ** Warning ** CalcDoe2DXCoil: Coil:Cooling:DX:SingleSpeed=\"COIL COOLING DX SINGLE SPEED 4 17KBTU/HR 14.0SEER\" - Full load outlet temperature indicates a possibility of frost/freeze error continues. Outlet air temperature statistics follow:\n   *************  **   ~~~   **   This error occurred 29 total times;\n   *************  **   ~~~   **   during Warmup 0 times;\n   *************  **   ~~~   **   during Sizing 0 times.\n   *************  **   ~~~   **   Max=1.994483  Min=1.111169\n   *************\n   *************\n   ************* ===== Final Error Summary =====\n   ************* The following error categories occurred.  Consider correcting or noting.\n   ************* Nominally Unused Constructions\n   ************* ..The nominally unused constructions warning is provided to alert you to potential conditions that can cause\n   ************* ..extra time during simulation. Each construction is calculated by the algorithm indicated in the HeatBalanceAlgorithm\n   ************* ..object. You may remove the constructions indicated (when you use the DisplayExtraWarnings option).\n   *************\n   ************* EnergyPlus Warmup Error Summary. During Warmup: 0 Warning; 0 Severe Errors.\n   ************* EnergyPlus Sizing Error Summary. During Sizing: 37 Warning; 0 Severe Errors.\n   ************* EnergyPlus Completed Successfully-- 1752 Warning; 0 Severe Errors; Elapsed Time=00hr 00min 30.53sec\n",
   "file_format_version" : "0.0.1",
   "file_paths" : [ "../weather", "../seeds", "../seed" ],
   "hash" : "1A6E4163",
   "measure_paths" : [ "../measures" ],
   "name" : "LHS Autogenerated 583",
   "osa_id" : "4fef0e0f-5396-4c55-a6e1-2cd6803db3ab",
   "osd_id" : "4ec2b51b-08dc-46a5-a04e-acd400253d1e",
   "run_directory" : "./run",
   "seed_file" : "seed.osm",
   "started_at" : "20170710T190013Z",
   "steps" : [
      {
         "arguments" : {
            "__SKIP__" : false,
            "building_type" : "SmallOffice",
            "climate_zone" : "NECB HDD Method",
            "epw_file" : "CAN_NS_Sable.Island.716000_CWEC.epw",
            "template" : "NECB 2011"
         },
         "measure_dir_name" : "create_prototype_building",
         "name" : "create_prototype_building",
         "result" : {
            "completed_at" : "20170710T190102Z",
            "measure_class_name" : "CreatePrototypeBuilding",
            "measure_display_name" : "Create Prototype Building",
            "measure_name" : "create_prototype_building",
            "measure_taxonomy" : "Whole Building.Space Types",
            "measure_type" : "ModelMeasure",
            "measure_uid" : "ae90fsd7-a651-467a-bc8d-29d310b0f937",
            "measure_version_id" : "c6ec5c18-5595-459f-a082-09a19c8c869c",
            "measure_version_modified" : "20170519T182315Z",
            "measure_xml_checksum" : "057E8D9D",
            "started_at" : "20170710T190015Z",
            "stderr" : "",
            "stdout" : "[OpenStudio.Measure] <0> OSArgumentVector is deprecated, use OpenStudio::Measure::OSArgumentVector instead.\n[openstudio.EpwFile] <0> Successive data points (1981-Jan-31 to 1977-Feb-01, ending on line 753) are greater than 1 day apart in EPW file '/usr/local/bundle/bundler/gems/openstudio-standards-f448df66933d/openstudio-standards/data/weather/CAN_NS_Sable.Island.716000_CWEC.epw'. Data will be treated as typical (TMY)\n[openstudio.setFileExtension] <0> Path p, '/usr/local/bundle/bundler/gems/openstudio-standards-f448df66933d/openstudio-standards/data/weather/CAN_NS_Sable.Island.716000_CWEC.ddy', has an unexpected file extension. Was expecting 'idf'.\n[openstudio.model.YearDescription] <1> 'UseWeatherFile' is not yet a supported option for YearDescription\n[openstudio.model.YearDescription] <1> 'UseWeatherFile' is not yet a supported option for YearDescription\n[openstudio.setFileExtension] <0> Path p, '/usr/local/bundle/bundler/gems/openstudio-standards-f448df66933d/openstudio-standards/data/weather/CAN_NS_Sable.Island.716000_CWEC.ddy', has an unexpected file extension. Was expecting 'idf'.\n[openstudio.model.YearDescription] <1> 'UseWeatherFile' is not yet a supported option for YearDescription\n[openstudio.model.YearDescription] <1> 'UseWeatherFile' is not yet a supported option for YearDescription\n[openstudio.EpwFile] <0> Successive data points (1981-Jan-31 to 1977-Feb-01, ending on line 753) are greater than 1 day apart in EPW file '/usr/local/bundle/bundler/gems/openstudio-standards-f448df66933d/openstudio-standards/data/weather/CAN_NS_Sable.Island.716000_CWEC.epw'. Data will be treated as typical (TMY)\n[openstudio.weather.Model] <0> Could not find ground temperatures; will use generic temperatures, which will skew results.\n[openstudio.setFileExtension] <0> Path p, '/usr/local/bundle/bundler/gems/openstudio-standards-f448df66933d/openstudio-standards/data/weather/CAN_NS_Sable.Island.716000_CWEC.ddy', has an unexpected file extension. Was expecting 'idf'.\n[openstudio.model.YearDescription] <1> 'UseWeatherFile' is not yet a supported option for YearDescription\n[openstudio.model.YearDescription] <1> 'UseWeatherFile' is not yet a supported option for YearDescription\n[openstudio.EpwFile] <0> Successive data points (1981-Jan-31 to 1977-Feb-01, ending on line 753) are greater than 1 day apart in EPW file '/usr/local/bundle/bundler/gems/openstudio-standards-f448df66933d/openstudio-standards/data/weather/CAN_NS_Sable.Island.716000_CWEC.epw'. Data will be treated as typical (TMY)\n[openstudio.setFileExtension] <0> Path p, '/usr/local/bundle/bundler/gems/openstudio-standards-f448df66933d/openstudio-standards/data/weather/CAN_NS_Sable.Island.716000_CWEC.ddy', has an unexpected file extension. Was expecting 'idf'.\n[openstudio.model.YearDescription] <1> 'UseWeatherFile' is not yet a supported option for YearDescription\n[openstudio.model.YearDescription] <1> 'UseWeatherFile' is not yet a supported option for YearDescription\n[openstudio.setFileExtension] <0> Path p, '/usr/local/bundle/bundler/gems/openstudio-standards-f448df66933d/openstudio-standards/data/weather/CAN_NS_Sable.Island.716000_CWEC.ddy', has an unexpected file extension. Was expecting 'idf'.\n[openstudio.model.YearDescription] <1> 'UseWeatherFile' is not yet a supported option for YearDescription\n[openstudio.model.YearDescription] <1> 'UseWeatherFile' is not yet a supported option for YearDescription\n[openstudio.EpwFile] <0> Successive data points (1981-Jan-31 to 1977-Feb-01, ending on line 753) are greater than 1 day apart in EPW file '/usr/local/bundle/bundler/gems/openstudio-standards-f448df66933d/openstudio-standards/data/weather/CAN_NS_Sable.Island.716000_CWEC.epw'. Data will be treated as typical (TMY)\n[openstudio.setFileExtension] <0> Path p, '/usr/local/bundle/bundler/gems/openstudio-standards-f448df66933d/openstudio-standards/data/weather/CAN_NS_Sable.Island.716000_CWEC.ddy', has an unexpected file extension. Was expecting 'idf'.\n[openstudio.model.YearDescription] <1> 'UseWeatherFile' is not yet a supported option for YearDescription\n[openstudio.model.YearDescription] <1> 'UseWeatherFile' is not yet a supported option for YearDescription\n[openstudio.setFileExtension] <0> Path p, '/usr/local/bundle/bundler/gems/openstudio-standards-f448df66933d/openstudio-standards/data/weather/CAN_NS_Sable.Island.716000_CWEC.ddy', has an unexpected file extension. Was expecting 'idf'.\n[openstudio.model.YearDescription] <1> 'UseWeatherFile' is not yet a supported option for YearDescription\n[openstudio.model.YearDescription] <1> 'UseWeatherFile' is not yet a supported option for YearDescription\n[utilities.idf.WorkspaceObject] <0> Object of type 'Schedule:Constant' and named 'Always Off Discrete', points to an object named OnOff 1 from field 1, but that object cannot be located.\n[utilities.idf.WorkspaceObject] <0> Object of type 'Schedule:Constant' and named 'Always On Continuous', points to an object named Fractional 1 from field 1, but that object cannot be located.\n[utilities.idf.WorkspaceObject] <0> Object of type 'Schedule:Constant' and named 'Always Off Discrete', points to an object named OnOff 1 from field 1, but that object cannot be located.\n[utilities.idf.WorkspaceObject] <0> Object of type 'Schedule:Constant' and named 'Always On Continuous', points to an object named Fractional 1 from field 1, but that object cannot be located.\n[openstudio.standards.Fan] <0> For Fan Constant Volume 1, there is no greater nominal HP.  Use the efficiency of the largest motor category.\n[openstudio.standards.Fan] <0> For Fan Constant Volume 2, there is no greater nominal HP.  Use the efficiency of the largest motor category.\n[openstudio.standards.Fan] <0> For Fan Constant Volume 3, there is no greater nominal HP.  Use the efficiency of the largest motor category.\n[openstudio.standards.Fan] <0> For Fan Constant Volume 4, there is no greater nominal HP.  Use the efficiency of the largest motor category.\n[openstudio.standards.Fan] <0> For Fan Constant Volume 5, there is no greater nominal HP.  Use the efficiency of the largest motor category.\n[openstudio.EpwFile] <0> Successive data points (1981-Jan-31 to 1977-Feb-01, ending on line 753) are greater than 1 day apart in EPW file '/usr/local/bundle/bundler/gems/openstudio-standards-f448df66933d/openstudio-standards/data/weather/CAN_NS_Sable.Island.716000_CWEC.epw'. Data will be treated as typical (TMY)\n[openstudio.setFileExtension] <0> Path p, '/usr/local/bundle/bundler/gems/openstudio-standards-f448df66933d/openstudio-standards/data/weather/CAN_NS_Sable.Island.716000_CWEC.ddy', has an unexpected file extension. Was expecting 'idf'.\n[openstudio.model.YearDescription] <1> 'UseWeatherFile' is not yet a supported option for YearDescription\n[openstudio.model.YearDescription] <1> 'UseWeatherFile' is not yet a supported option for YearDescription\n[openstudio.setFileExtension] <0> Path p, '/usr/local/bundle/bundler/gems/openstudio-standards-f448df66933d/openstudio-standards/data/weather/CAN_NS_Sable.Island.716000_CWEC.ddy', has an unexpected file extension. Was expecting 'idf'.\n[openstudio.model.YearDescription] <1> 'UseWeatherFile' is not yet a supported option for YearDescription\n[openstudio.model.YearDescription] <1> 'UseWeatherFile' is not yet a supported option for YearDescription\n[openstudio.EpwFile] <0> Successive data points (1981-Jan-31 to 1977-Feb-01, ending on line 753) are greater than 1 day apart in EPW file '/usr/local/bundle/bundler/gems/openstudio-standards-f448df66933d/openstudio-standards/data/weather/CAN_NS_Sable.Island.716000_CWEC.epw'. Data will be treated as typical (TMY)\n[openstudio.setFileExtension] <0> Path p, '/usr/local/bundle/bundler/gems/openstudio-standards-f448df66933d/openstudio-standards/data/weather/CAN_NS_Sable.Island.716000_CWEC.ddy', has an unexpected file extension. Was expecting 'idf'.\n[openstudio.model.YearDescription] <1> 'UseWeatherFile' is not yet a supported option for YearDescription\n[openstudio.model.YearDescription] <1> 'UseWeatherFile' is not yet a supported option for YearDescription\n[openstudio.setFileExtension] <0> Path p, '/usr/local/bundle/bundler/gems/openstudio-standards-f448df66933d/openstudio-standards/data/weather/CAN_NS_Sable.Island.716000_CWEC.ddy', has an unexpected file extension. Was expecting 'idf'.\n[openstudio.model.YearDescription] <1> 'UseWeatherFile' is not yet a supported option for YearDescription\n[openstudio.model.YearDescription] <1> 'UseWeatherFile' is not yet a supported option for YearDescription\n[openstudio.EpwFile] <0> Successive data points (1981-Jan-31 to 1977-Feb-01, ending on line 753) are greater than 1 day apart in EPW file '/usr/local/bundle/bundler/gems/openstudio-standards-f448df66933d/openstudio-standards/data/weather/CAN_NS_Sable.Island.716000_CWEC.epw'. Data will be treated as typical (TMY)\n[openstudio.setFileExtension] <0> Path p, '/usr/local/bundle/bundler/gems/openstudio-standards-f448df66933d/openstudio-standards/data/weather/CAN_NS_Sable.Island.716000_CWEC.ddy', has an unexpected file extension. Was expecting 'idf'.\n[openstudio.model.YearDescription] <1> 'UseWeatherFile' is not yet a supported option for YearDescription\n[openstudio.model.YearDescription] <1> 'UseWeatherFile' is not yet a supported option for YearDescription\n[openstudio.setFileExtension] <0> Path p, '/usr/local/bundle/bundler/gems/openstudio-standards-f448df66933d/openstudio-standards/data/weather/CAN_NS_Sable.Island.716000_CWEC.ddy', has an unexpected file extension. Was expecting 'idf'.\n[openstudio.model.YearDescription] <1> 'UseWeatherFile' is not yet a supported option for YearDescription\n[openstudio.model.YearDescription] <1> 'UseWeatherFile' is not yet a supported option for YearDescription\n[openstudio.EpwFile] <0> Successive data points (1981-Jan-31 to 1977-Feb-01, ending on line 753) are greater than 1 day apart in EPW file '/usr/local/bundle/bundler/gems/openstudio-standards-f448df66933d/openstudio-standards/data/weather/CAN_NS_Sable.Island.716000_CWEC.epw'. Data will be treated as typical (TMY)\n[openstudio.setFileExtension] <0> Path p, '/usr/local/bundle/bundler/gems/openstudio-standards-f448df66933d/openstudio-standards/data/weather/CAN_NS_Sable.Island.716000_CWEC.ddy', has an unexpected file extension. Was expecting 'idf'.\n[openstudio.model.YearDescription] <1> 'UseWeatherFile' is not yet a supported option for YearDescription\n[openstudio.model.YearDescription] <1> 'UseWeatherFile' is not yet a supported option for YearDescription\n[openstudio.setFileExtension] <0> Path p, '/usr/local/bundle/bundler/gems/openstudio-standards-f448df66933d/openstudio-standards/data/weather/CAN_NS_Sable.Island.716000_CWEC.ddy', has an unexpected file extension. Was expecting 'idf'.\n[openstudio.model.YearDescription] <1> 'UseWeatherFile' is not yet a supported option for YearDescription\n[openstudio.model.YearDescription] <1> 'UseWeatherFile' is not yet a supported option for YearDescription\n[openstudio.EpwFile] <0> Successive data points (1981-Jan-31 to 1977-Feb-01, ending on line 753) are greater than 1 day apart in EPW file '/usr/local/bundle/bundler/gems/openstudio-standards-f448df66933d/openstudio-standards/data/weather/CAN_NS_Sable.Island.716000_CWEC.epw'. Data will be treated as typical (TMY)\n[openstudio.setFileExtension] <0> Path p, '/usr/local/bundle/bundler/gems/openstudio-standards-f448df66933d/openstudio-standards/data/weather/CAN_NS_Sable.Island.716000_CWEC.ddy', has an unexpected file extension. Was expecting 'idf'.\n[openstudio.model.YearDescription] <1> 'UseWeatherFile' is not yet a supported option for YearDescription\n[openstudio.model.YearDescription] <1> 'UseWeatherFile' is not yet a supported option for YearDescription\n[openstudio.setFileExtension] <0> Path p, '/usr/local/bundle/bundler/gems/openstudio-standards-f448df66933d/openstudio-standards/data/weather/CAN_NS_Sable.Island.716000_CWEC.ddy', has an unexpected file extension. Was expecting 'idf'.\n[openstudio.model.YearDescription] <1> 'UseWeatherFile' is not yet a supported option for YearDescription\n[openstudio.model.YearDescription] <1> 'UseWeatherFile' is not yet a supported option for YearDescription\n[openstudio.standards.Fan] <0> For Fan Constant Volume 1, there is no greater nominal HP.  Use the efficiency of the largest motor category.\n[openstudio.standards.Fan] <0> For Fan Constant Volume 2, there is no greater nominal HP.  Use the efficiency of the largest motor category.\n[openstudio.standards.Fan] <0> For Fan Constant Volume 3, there is no greater nominal HP.  Use the efficiency of the largest motor category.\n[openstudio.standards.Fan] <0> For Fan Constant Volume 4, there is no greater nominal HP.  Use the efficiency of the largest motor category.\n[openstudio.standards.Fan] <0> For Fan Constant Volume 5, there is no greater nominal HP.  Use the efficiency of the largest motor category.\n",
            "step_errors" : [],
            "step_files" : [],
            "step_info" : [
               "Started adding geometry",
               "Finished adding geometry",
               "Started adding weather file for climate zone: NECB HDD Method.",
               "Template =",
               "Setting Attic to Space Function.- undefined -",
               "Setting Core_ZN to Space Function.Office - enclosed",
               "Setting Perimeter_ZN_1 to Space Function.Office - enclosed",
               "Setting Perimeter_ZN_2 to Space Function.Office - enclosed",
               "Setting Perimeter_ZN_3 to Space Function.Office - enclosed",
               "Setting Perimeter_ZN_4 to Space Function.Office - enclosed",
               "Started applying space types (loads)",
               "Space Function - undefined - had no ventilation specification, one has been created.",
               "Space Function - undefined - had no infiltration objects, one has been created.",
               "Space Function - undefined - set infiltration to 0.0 per ft^2 exterior surface area.",
               "Space Function - undefined - set infiltration schedule to Always On.",
               "Space Function Office - enclosed had no people, one has been created.",
               "Space Function Office - enclosed set occupancy to 4.65 people/1000 ft^2.",
               "Space Function Office - enclosed had no lights, one has been created.",
               "Space Function Office - enclosed set LPD to 1.105536975 W/ft^2.",
               "Space Function Office - enclosed had no electric equipment, one has been created.",
               "Space Function Office - enclosed set electric EPD to 0.696767001 W/ft^2.",
               "Space Function Office - enclosed had no ventilation specification, one has been created.",
               "Space Function Office - enclosed set ventilation per area to 0.085 cfm/ft^2.",
               "Space Function Office - enclosed had no infiltration objects, one has been created.",
               "Space Function Office - enclosed set infiltration to 0.0 per ft^2 exterior surface area.",
               "Space Function Office - enclosed set occupancy schedule to NECB-A-Occupancy.",
               "Space Function Office - enclosed set occupant activity schedule to NECB-Activity.",
               "Space Function Office - enclosed set lighting schedule to NECB-A-Lighting.",
               "Space Function Office - enclosed set electric equipment schedule to NECB-A-Electric-Equipment.",
               "Space Function Office - enclosed set infiltration schedule to Always On.",
               "Space Function Office - enclosed set heating setpoint schedule to NECB-A-Thermostat Setpoint-Heating.",
               "Space Function Office - enclosed set cooling setpoint schedule to NECB-A-Thermostat Setpoint-Cooling.",
               "Finished applying space types (loads)",
               "For NECB 2011, no exterior wall area was found, no infiltration will be added.",
               "Started applying constructions",
               "Adding construction set: NECB 2011-NECB HDD Method-Office--is_residentialNo",
               "Adding construction Typical Insulated Exterior Mass Floor R-15.63.",
               "Adding construction Typical Insulated Exterior Mass Wall R-12.5.",
               "Adding construction Typical Insulated Metal Building Roof R-20.41.",
               "Adding construction Typical Interior Floor.",
               "Adding construction Typical Interior Wall.",
               "Adding construction Typical Interior Ceiling.",
               "Adding construction Typical Insulated Carpeted 6in Slab Floor.",
               "Adding construction U 0.55 SHGC 0.31 Dbl Ref-D Tint 6mm/6mm Air.",
               "Adding construction Typical Insulated Metal Door R-1.43.",
               "Adding construction U 0.35 SHGC 0.35 Dbl LoE (e2-.1) Tint 6mm/13mm Air.",
               "Adding construction Typical Overhead Door R-2.0.",
               "Adding construction U 0.48 SHGC 0.40 Dbl Ref-D Clr 6mm/13mm.",
               "Adding construction Typical Interior Window.",
               "Adding construction Typical Interior Door.",
               "Adding construction Typical Interior Partition.",
               "Finished applying constructions",
               "WWR NonRes = 0%; window = 0 ft2, wall = 0 ft2.",
               "WWR Res = 0%; window = 0 ft2, wall = 0 ft2.",
               "WWR Semiheated = 0%; window = 0 ft2, wall = 0 ft2.",
               "The skylight to roof ratios (SRRs) are: NonRes: 0%, Res: 0%.",
               "Started creating thermal zones",
               "Finished creating thermal zones",
               "Running simulation /mnt/openstudio/analysis_4fef0e0f-5396-4c55-a6e1-2cd6803db3ab/data_point_4ec2b51b-08dc-46a5-a04e-acd400253d1e/run/000_create_prototype_building/output/SmallOffice-NECB 2011-NECB HDD Method-CAN_NS_Sable.Island.716000_CWEC.epw/SR0.",
               "Finished run.",
               "Started Adding HVAC",
               "Finished adding HVAC",
               "Started Adding Service Water Heating",
               "Adding service water loop.",
               "Adding water heater.",
               "Template =",
               "Finished adding Service Water Heating",
               "Set sizing factors to 1.3 for heating and 1.3 for cooling.",
               "Running simulation /mnt/openstudio/analysis_4fef0e0f-5396-4c55-a6e1-2cd6803db3ab/data_point_4ec2b51b-08dc-46a5-a04e-acd400253d1e/run/000_create_prototype_building/output/SmallOffice-NECB 2011-NECB HDD Method-CAN_NS_Sable.Island.716000_CWEC.epw/SR1.",
               "Finished run.",
               "Started applying multizone vav OA sizing.",
               "Finished applying multizone vav OA sizing.",
               "Started applying prototype HVAC assumptions.",
               "For Fan Constant Volume 1: allowed_hp = 1.01HP; motor eff = 61.5%; total fan eff = 40% based on 454 cfm.",
               "For Fan Constant Volume 2: allowed_hp = 1.01HP; motor eff = 61.5%; total fan eff = 40% based on 514 cfm.",
               "For Fan Constant Volume 3: allowed_hp = 1.01HP; motor eff = 61.5%; total fan eff = 40% based on 591 cfm.",
               "For Fan Constant Volume 4: allowed_hp = 1.01HP; motor eff = 61.5%; total fan eff = 40% based on 632 cfm.",
               "For Fan Constant Volume 5: allowed_hp = 1.01HP; motor eff = 61.5%; total fan eff = 40% based on 502 cfm.",
               "Sp-Perimeter_ZN_3 Sys-3 Flr-1 Sch-A HPlcmt-north ZN NECB System 3 PSZ does not require an economizer because the total cooling capacity of 12141 Btu/hr is less than the minimum capacity of 68243 Btu/hr.",
               "Sp-Perimeter_ZN_2 Sys-3 Flr-1 Sch-A HPlcmt-east ZN NECB System 3 PSZ does not require an economizer because the total cooling capacity of 13706 Btu/hr is less than the minimum capacity of 68243 Btu/hr.",
               "Sp-Perimeter_ZN_1 Sys-3 Flr-1 Sch-A HPlcmt-south ZN NECB System 3 PSZ does not require an economizer because the total cooling capacity of 16858 Btu/hr is less than the minimum capacity of 68243 Btu/hr.",
               "Sp-Core_ZN Sys-3 Flr-1 Sch-A HPlcmt-core ZN NECB System 3 PSZ does not require an economizer because the total cooling capacity of 13505 Btu/hr is less than the minimum capacity of 68243 Btu/hr.",
               "Sp-Perimeter_ZN_4 Sys-3 Flr-1 Sch-A HPlcmt-west ZN NECB System 3 PSZ does not require an economizer because the total cooling capacity of 15756 Btu/hr is less than the minimum capacity of 68243 Btu/hr.",
               "Finished applying prototype HVAC assumptions.",
               "Started applying HVAC efficiency standards.",
               "For Sp-Core_ZN Sys-3 Flr-1 Sch-A HPlcmt-core ZN NECB System 3 PSZ, ERV not required based on 0% OA flow, design supply air flow of 502cfm, and climate zone NECB HDD Method.",
               "For Sp-Core_ZN Sys-3 Flr-1 Sch-A HPlcmt-core ZN NECB System 3 PSZ, ERV not required based on exhaust heat content.",
               "For NECB 2011 NECB HDD Method:  Sp-Core_ZN Sys-3 Flr-1 Sch-A HPlcmt-core ZN NECB System 3 PSZ: DCV is not required for any system.",
               "For Sp-Core_ZN Sys-3 Flr-1 Sch-A HPlcmt-core ZN NECB System 3 PSZ: Unoccupied fan shutoff not required because system fan HP of 0.51 HP is less than the minimum threshold of 0.75 HP.",
               "For Sp-Core_ZN Sys-3 Flr-1 Sch-A HPlcmt-core ZN NECB System 3 PSZ: Setting motorized OA damper schedule to Always On Discrete.",
               "For Sp-Perimeter_ZN_1 Sys-3 Flr-1 Sch-A HPlcmt-south ZN NECB System 3 PSZ, ERV not required based on 0% OA flow, design supply air flow of 632cfm, and climate zone NECB HDD Method.",
               "For Sp-Perimeter_ZN_1 Sys-3 Flr-1 Sch-A HPlcmt-south ZN NECB System 3 PSZ, ERV not required based on exhaust heat content.",
               "For NECB 2011 NECB HDD Method:  Sp-Perimeter_ZN_1 Sys-3 Flr-1 Sch-A HPlcmt-south ZN NECB System 3 PSZ: DCV is not required for any system.",
               "For Sp-Perimeter_ZN_1 Sys-3 Flr-1 Sch-A HPlcmt-south ZN NECB System 3 PSZ: Unoccupied fan shutoff not required because system fan HP of 0.64 HP is less than the minimum threshold of 0.75 HP.",
               "For Sp-Perimeter_ZN_1 Sys-3 Flr-1 Sch-A HPlcmt-south ZN NECB System 3 PSZ: Setting motorized OA damper schedule to Always On Discrete.",
               "For Sp-Perimeter_ZN_2 Sys-3 Flr-1 Sch-A HPlcmt-east ZN NECB System 3 PSZ, ERV not required based on 0% OA flow, design supply air flow of 514cfm, and climate zone NECB HDD Method.",
               "For Sp-Perimeter_ZN_2 Sys-3 Flr-1 Sch-A HPlcmt-east ZN NECB System 3 PSZ, ERV not required based on exhaust heat content.",
               "For NECB 2011 NECB HDD Method:  Sp-Perimeter_ZN_2 Sys-3 Flr-1 Sch-A HPlcmt-east ZN NECB System 3 PSZ: DCV is not required for any system.",
               "For Sp-Perimeter_ZN_2 Sys-3 Flr-1 Sch-A HPlcmt-east ZN NECB System 3 PSZ: Unoccupied fan shutoff not required because system fan HP of 0.52 HP is less than the minimum threshold of 0.75 HP.",
               "For Sp-Perimeter_ZN_2 Sys-3 Flr-1 Sch-A HPlcmt-east ZN NECB System 3 PSZ: Setting motorized OA damper schedule to Always On Discrete.",
               "For Sp-Perimeter_ZN_3 Sys-3 Flr-1 Sch-A HPlcmt-north ZN NECB System 3 PSZ, ERV not required based on 0% OA flow, design supply air flow of 454cfm, and climate zone NECB HDD Method.",
               "For Sp-Perimeter_ZN_3 Sys-3 Flr-1 Sch-A HPlcmt-north ZN NECB System 3 PSZ, ERV not required based on exhaust heat content.",
               "For NECB 2011 NECB HDD Method:  Sp-Perimeter_ZN_3 Sys-3 Flr-1 Sch-A HPlcmt-north ZN NECB System 3 PSZ: DCV is not required for any system.",
               "For Sp-Perimeter_ZN_3 Sys-3 Flr-1 Sch-A HPlcmt-north ZN NECB System 3 PSZ: Unoccupied fan shutoff not required because system fan HP of 0.46 HP is less than the minimum threshold of 0.75 HP.",
               "For Sp-Perimeter_ZN_3 Sys-3 Flr-1 Sch-A HPlcmt-north ZN NECB System 3 PSZ: Setting motorized OA damper schedule to Always On Discrete.",
               "For Sp-Perimeter_ZN_4 Sys-3 Flr-1 Sch-A HPlcmt-west ZN NECB System 3 PSZ, ERV not required based on 0% OA flow, design supply air flow of 591cfm, and climate zone NECB HDD Method.",
               "For Sp-Perimeter_ZN_4 Sys-3 Flr-1 Sch-A HPlcmt-west ZN NECB System 3 PSZ, ERV not required based on exhaust heat content.",
               "For NECB 2011 NECB HDD Method:  Sp-Perimeter_ZN_4 Sys-3 Flr-1 Sch-A HPlcmt-west ZN NECB System 3 PSZ: DCV is not required for any system.",
               "For Sp-Perimeter_ZN_4 Sys-3 Flr-1 Sch-A HPlcmt-west ZN NECB System 3 PSZ: Unoccupied fan shutoff not required because system fan HP of 0.6 HP is less than the minimum threshold of 0.75 HP.",
               "For Sp-Perimeter_ZN_4 Sys-3 Flr-1 Sch-A HPlcmt-west ZN NECB System 3 PSZ: Setting motorized OA damper schedule to Always On Discrete.",
               "For Fan Constant Volume 1: motor nameplate = 0.28259748919957567HP, motor eff = 61.5%.",
               "For Fan Constant Volume 2: motor nameplate = 0.3202843114593834HP, motor eff = 61.5%.",
               "For Fan Constant Volume 3: motor nameplate = 0.36817758388017274HP, motor eff = 61.5%.",
               "For Fan Constant Volume 4: motor nameplate = 0.39392373809072123HP, motor eff = 61.5%.",
               "For Fan Constant Volume 5: motor nameplate = 0.31271045781698653HP, motor eff = 61.5%.",
               "For Service Water Loop Pump: brake hp = 0.0HP, motor nameplate = 0.1HP, motor eff = 70.0%.",
               "For Pump Variable Speed 1: brake hp = 0.1HP, motor nameplate = 1.0HP, motor eff = 85.5%.",
               "For NECB 2011: Coil Cooling DX Single Speed 1: AirCooled All Other Single Package Capacity = 12kBtu/hr; SEER = 14.0",
               "For NECB 2011: Coil Cooling DX Single Speed 2: AirCooled All Other Single Package Capacity = 14kBtu/hr; SEER = 14.0",
               "For NECB 2011: Coil Cooling DX Single Speed 3: AirCooled All Other Single Package Capacity = 16kBtu/hr; SEER = 14.0",
               "For NECB 2011: Coil Cooling DX Single Speed 4: AirCooled All Other Single Package Capacity = 17kBtu/hr; SEER = 14.0",
               "For NECB 2011: Coil Cooling DX Single Speed 5: AirCooled All Other Single Package Capacity = 14kBtu/hr; SEER = 14.0",
               "For NECB 2011: Primary Boiler: Gas Hot Water Capacity = 77kBtu/hr; AFUE = 0.85",
               "For NECB 2011: Secondary Boiler: Gas Hot Water Capacity = 0kBtu/hr; AFUE = 0.85",
               "For NECB 2011: 40.0gal NaturalGas Water Heater - 40kBtu/hr 0.82 Therm Eff; thermal efficiency = 0.82, skin-loss UA = 6Btu/hr",
               "Finished applying HVAC efficiency standards.",
               "Started adding daylighting controls.",
               "For Attic, daylighting control not applicable because no exterior fenestration is present.",
               "For Core_ZN, daylighting control not applicable because no exterior fenestration is present.",
               "Finished adding daylighting controls.",
               "Total Time = 46sec."
            ],
            "step_result" : "Success",
            "step_values" : [
               {
                  "name" : "building_type",
                  "value" : "SmallOffice"
               },
               {
                  "name" : "template",
                  "value" : "NECB 2011"
               },
               {
                  "name" : "climate_zone",
                  "value" : "NECB HDD Method"
               },
               {
                  "name" : "epw_file",
                  "value" : "CAN_NS_Sable.Island.716000_CWEC.epw"
               }
            ],
            "step_warnings" : [
               "[openstudio.EpwFile] Successive data points (1981-Jan-31 to 1977-Feb-01, ending on line 753) are greater than 1 day apart in EPW file '/usr/local/bundle/bundler/gems/openstudio-standards-f448df66933d/openstudio-standards/data/weather/CAN_NS_Sable.Island.716000_CWEC.epw'. Data will be treated as typical (TMY)",
               "[openstudio.EpwFile] Successive data points (1981-Jan-31 to 1977-Feb-01, ending on line 753) are greater than 1 day apart in EPW file '/usr/local/bundle/bundler/gems/openstudio-standards-f448df66933d/openstudio-standards/data/weather/CAN_NS_Sable.Island.716000_CWEC.epw'. Data will be treated as typical (TMY)",
               "[openstudio.weather.Model] Could not find ground temperatures; will use generic temperatures, which will skew results.",
               "[openstudio.EpwFile] Successive data points (1981-Jan-31 to 1977-Feb-01, ending on line 753) are greater than 1 day apart in EPW file '/usr/local/bundle/bundler/gems/openstudio-standards-f448df66933d/openstudio-standards/data/weather/CAN_NS_Sable.Island.716000_CWEC.epw'. Data will be treated as typical (TMY)",
               "[openstudio.EpwFile] Successive data points (1981-Jan-31 to 1977-Feb-01, ending on line 753) are greater than 1 day apart in EPW file '/usr/local/bundle/bundler/gems/openstudio-standards-f448df66933d/openstudio-standards/data/weather/CAN_NS_Sable.Island.716000_CWEC.epw'. Data will be treated as typical (TMY)",
               "[openstudio.standards.Fan] For Fan Constant Volume 1, there is no greater nominal HP.  Use the efficiency of the largest motor category.",
               "[openstudio.standards.Fan] For Fan Constant Volume 2, there is no greater nominal HP.  Use the efficiency of the largest motor category.",
               "[openstudio.standards.Fan] For Fan Constant Volume 3, there is no greater nominal HP.  Use the efficiency of the largest motor category.",
               "[openstudio.standards.Fan] For Fan Constant Volume 4, there is no greater nominal HP.  Use the efficiency of the largest motor category.",
               "[openstudio.standards.Fan] For Fan Constant Volume 5, there is no greater nominal HP.  Use the efficiency of the largest motor category.",
               "[openstudio.EpwFile] Successive data points (1981-Jan-31 to 1977-Feb-01, ending on line 753) are greater than 1 day apart in EPW file '/usr/local/bundle/bundler/gems/openstudio-standards-f448df66933d/openstudio-standards/data/weather/CAN_NS_Sable.Island.716000_CWEC.epw'. Data will be treated as typical (TMY)",
               "[openstudio.EpwFile] Successive data points (1981-Jan-31 to 1977-Feb-01, ending on line 753) are greater than 1 day apart in EPW file '/usr/local/bundle/bundler/gems/openstudio-standards-f448df66933d/openstudio-standards/data/weather/CAN_NS_Sable.Island.716000_CWEC.epw'. Data will be treated as typical (TMY)",
               "[openstudio.EpwFile] Successive data points (1981-Jan-31 to 1977-Feb-01, ending on line 753) are greater than 1 day apart in EPW file '/usr/local/bundle/bundler/gems/openstudio-standards-f448df66933d/openstudio-standards/data/weather/CAN_NS_Sable.Island.716000_CWEC.epw'. Data will be treated as typical (TMY)",
               "[openstudio.EpwFile] Successive data points (1981-Jan-31 to 1977-Feb-01, ending on line 753) are greater than 1 day apart in EPW file '/usr/local/bundle/bundler/gems/openstudio-standards-f448df66933d/openstudio-standards/data/weather/CAN_NS_Sable.Island.716000_CWEC.epw'. Data will be treated as typical (TMY)",
               "[openstudio.EpwFile] Successive data points (1981-Jan-31 to 1977-Feb-01, ending on line 753) are greater than 1 day apart in EPW file '/usr/local/bundle/bundler/gems/openstudio-standards-f448df66933d/openstudio-standards/data/weather/CAN_NS_Sable.Island.716000_CWEC.epw'. Data will be treated as typical (TMY)",
               "[openstudio.standards.Fan] For Fan Constant Volume 1, there is no greater nominal HP.  Use the efficiency of the largest motor category.",
               "[openstudio.standards.Fan] For Fan Constant Volume 2, there is no greater nominal HP.  Use the efficiency of the largest motor category.",
               "[openstudio.standards.Fan] For Fan Constant Volume 3, there is no greater nominal HP.  Use the efficiency of the largest motor category.",
               "[openstudio.standards.Fan] For Fan Constant Volume 4, there is no greater nominal HP.  Use the efficiency of the largest motor category.",
               "[openstudio.standards.Fan] For Fan Constant Volume 5, there is no greater nominal HP.  Use the efficiency of the largest motor category."
            ]
         }
      },
      {
         "arguments" : {
            "__SKIP__" : false
         },
         "measure_dir_name" : "view_model",
         "name" : "view_model",
         "result" : {
            "completed_at" : "20170710T190102Z",
            "measure_class_name" : "ViewModel",
            "measure_display_name" : "ViewModel",
            "measure_name" : "view_model",
            "measure_taxonomy" : "Reporting.QAQC",
            "measure_type" : "ModelMeasure",
            "measure_uid" : "f4669f10-fda5-489d-8e1c-7ca3c2d40378",
            "measure_version_id" : "f4975c5f-7c25-42a2-927b-02d99b4427ef",
            "measure_version_modified" : "20170526T150340Z",
            "measure_xml_checksum" : "1E1F8B97",
            "started_at" : "20170710T190102Z",
            "stderr" : "",
            "stdout" : "[OpenStudio.Measure] <0> OSArgumentVector is deprecated, use OpenStudio::Measure::OSArgumentVector instead.\n",
            "step_errors" : [],
            "step_files" : [
               "/mnt/openstudio/analysis_4fef0e0f-5396-4c55-a6e1-2cd6803db3ab/data_point_4ec2b51b-08dc-46a5-a04e-acd400253d1e/run/001_view_model/report.html",
               "/mnt/openstudio/analysis_4fef0e0f-5396-4c55-a6e1-2cd6803db3ab/data_point_4ec2b51b-08dc-46a5-a04e-acd400253d1e/run/001_view_model/report.json"
            ],
            "step_final_condition" : "Report written to <a href='file:////mnt/openstudio/analysis_4fef0e0f-5396-4c55-a6e1-2cd6803db3ab/data_point_4ec2b51b-08dc-46a5-a04e-acd400253d1e/run/001_view_model/report.html'>report.html</a>.",
            "step_info" : [ "No changes made to the model." ],
            "step_result" : "NA",
            "step_values" : [
               {
                  "name" : "view_model_html_zip",
[...]
2aLP4FqycDP3bi7KnoGZJl7iYn7b8Trzuo/03YFG1GfypgPMU9G4WxLwF/TT/Wac2sSJgHWEXhjRmlGS0/6AkZDzt82/DuWbkse+OFL4bS3+rTPp3EST8KxyPRYz/+yP4x/fzWORt48XT9ngywrfnauwdr0w5xvH7/tbThDEXQTwbsJXPZv1jt1XBYY4eLV8RDvyvqO3zrc+PLVmG8LbUkjFj9Mm1K4yd2mZqZuurUrvzsn+mIY/6AZJFuPMX7fPnF+Sru2NHR0aTzyiFmqNPHfmna1Fk5j4T3tczN3wzvMb1e9te0dUfSraUzTD0lW4jqnE2OHhC9Y7nENf6c9eSXcl05e9CjcTyol30W6SM9nDzP8pE0HB7qtNKRV5a1EidR+FXo2ZlcW9ZSOPK6fnKnZ2p6celWZSZmpsqizAaSxWGlTHgYDz6yzMJ5ceBhO4ybopmEmz7Xb9tZVtW6/lvRnEKW3V32x5+f2H8+/PmRnX74+On397+xtx9++/2YvTn5eKIH8DodtcWtJ6doLAlZHEYJC8ZXqR90WbYkO2Ze3E0nL37Q10Cc9b3EmcvM3jY71x9cIpGMo4CNvCgWr4ehl9Q9OeRvpY9y7rPz7DOtziyeos2ZnTahCPjbIxwR853Odnb2y0RF+1FOrAEd0AEd0AEd0AEd0AEd0AEd0Fl7OsvnQkhGkeiBDdiADdiADdiADdiADdiADdiATT6bpZOJJBt57hDogA7ogA7ogA7ogA7ogA7ogA7olKGjf4pZ9gvb5IwyMAVTMAVTMAVTMAVTMAVTMAVTMAVTMF0PpoXHa2ZMJ4dngimYgimYgimYgimYgimYgimYgimYgul6MDU64zhjPTnBGKzBGqzBGqzBGqzBGqzBGqzBGqzBGqzB+hFZz2j1Iu+mXgh26yR+MhSnA28knETcJvUXb8JxFBfTuFu+81f/SgSxHwZDEWcIBRC7u+xVr8c8liGxGz8ZsDi8EqzXLLgzvu473mgkjxOpSdu1rYIbZsXxkiSq125r26zTMLzpriYPLdG+KU7u5Kkrkt6OF3QHYVS7P+rEEOMiDJKdG+H3B4nEOA+HPX2MybN5f3L8y86rnQ/d7niUsrl7sZX3dF7uxt3IHyU/K695udvzrx+uVt6jBkuxmN87qnWl6x6nrfX8QERn/KDGsi44qvX8eDT07g79QJ59s3M+DLtff6qp+aWgkyaw5G6U3i97YffSu/Ymn+beKUt2IM91nx3Nzt0JxM3pdb9e+2GZ4zZryWNs0j8Ko2bu8JbPf01P5DmsfSfbV9ue1Jzd1g6509iuZQLytcOG02hv17pypElvmgr71b5tawG5VEBNKqAWFVCbCqhDBbRHBbS/AMRL4xws4JTnwxtUQIuOfVAeyKUCalIBtaiA2lRAHSqgRcfeKw+0T+VHi57dLD8+Lnq2Wx6IUwG5VEBkQ7ZrNmYvqyfppbZI9Axw1JnNDEfdS2Y46j4yw1GnNTMcdVYzw1EnNTMcZU4zg1GmNDMYdUYzxFEmNEMcZT4zxFGmM0McZTYzxFEmM0McZS4zxFGmMkMcZSYzxFEmMsPRUJnHDHGUacwQR5nFDHGohuecHLYEtCRLoZe/pHCFAZA6gRkCqbvIEEjdRYZA6hxmCKROYoZA6ixmCKRMY4Y4yjxmiKNOZKZAykxmCqRMZaZAylxmCqRMZqZAymxmCqRMZ6ZAynxmCqRMaKZAyoxmOj4qU5opkDKnmQIpk5opENmQnZPWlpD0d2Zqvoqc7N0ksJHzlpLMRs63YTIbOd+TyWzkvPYks5HzRpTMRs7LUjIb+yuwcbACG98l+YqMrCLS+SpCna8i1vkqgp2vItr5KsKdryLe+SoCnq8i4t1VRLy7kty+iojPe9dNZ6RkxBdujNGcbk22zhDYyHkiZDZyHgiZjZznQWYjZwAms5Ez/pLZyBl+yWzkjL5kNnIGXzIbedMtOiOriPS86RadkVXEet50i87IKqI9b7pFZ2QV8Z433aIzsoqIz5tu0RlZSW5fRcTnTbfojJSMeKM1uJpTr8kqXWJ7OU+qEns5D60SeznPrxJ7OYN3JfZyxvFK7OUM6ZXYU69CrMScerFiJeZy1jRWY0+99LEae+oVktXYUy+krMaeer1lNfbUyzKrsadevVmNPfUiz2rsqdeCVmNPvWS0muyuXllajT31AtRq7KnXqVZjb9XTl7z558zgF52dH9O9WeyIBeJmtrEk209Sj6/729nOkMItJLMNXrFIfgnHQS+utxvbjPP2NmvKv7ltvW0otymN+z1svd6xl4h+GN29uvXjyQap+w7Q2EWWAnyIeiL6OJb7lbRvlDzuFnm8E148jsSEhtxyNe34infzoRrVqEY1qlGNalSjGtWoRjWqUY1qVKMa1ahGNapRjWpUoxrVqEY1qlGNalSjGtVrXH3nhNciivyeeOfJhUHcaViut8kEdBeX9pyKyBfxdHlQbXu2AGo0DBNHqvoWLvGJH1pnVLwyKHYy4YxROPQSPwxSUrU4EaOdc3ERRqKmt3LrreiLoLfYoMln9U5jmzXlyiupAszlH1OZ50IF7Bmsc9YXyUmQyP5JTVyMg27GtL7F/iqAmDEU93d/LlyLJot/werJwI+dOHsqeoZkmbvJSfvvxOsO6n8TNkWb0Z+KIk9xz0Zh7EvAX9OPdVozKxLmAVZReGNGaUbLD3pCxsMO3za8e1Yuy9544Yuh9Lf6tE8ncdKPwvFI9NiPP7J/TD+/dc4GXjxdvycDbGu+9u7B2rRDHK/ffy1tOEMR9JMBe8lc9i9WezUc1tjh4hXx0O+K+g7f+tz4slUYb0stCSNWv0yb0viJXaZmpq46tSs/+2c64pg/IFmkG0/xPl9+cb6KO3Z0dDTpvHKIGer0sV+aNnVWziPhfS1z8zfDe0yvl/01bd2RdGvpDFNPyRaiOmeT8wxE71gucY0/Zz35pVxXzh70aBwP6mWfRfpIDyfPs3wkDYeHOq105JVlrcRJFH4VenYm15a1FI68rp/c6ZmaXly6VZmJmamyKLOBZHFYKRMexoOPLLNwXhx42A7jpmgm4abP9dt2llW1rv9WNKeQZXeX/fHnJ/afD39+ZKcfPn76/f1v7O2H334/Zm9OPp7oAbxOR21x68kpGktCFodRwoLxVeoHXZYtyY6ZF3fTyYsf9DUQZ30vceYys7fNzvUHl0gk4yhgIy+Kxeth6CV1Tw75W+mjnPvsPPtMqzOLp2hzZqdNKAL+9gjnznyn2Z0dKDMR5H6UY3BAB3RAB3RAB3RAB3RAB3RAB3TWns7y0RKSUSR6YAM2YAM2YAM2YAM2YAM2YAM2YJPPZulMI8lGHlgEOqADOqADOqADOqADOqADOqADOmXo6J9zlv3CNjnEDEzBFEzBFEzBFEzBFEzBFEzBFEzBFEzXg2nhQZsZ08kpmmAKpmAKpmAKpmAKpmAKpmAKpmAKpmC6HkyNDjnOWE9OMAZrsAZrsAZrsAZrsAZrsAZrsAZrsAZrsH5E1jNavci7qReC3TqJnwzF6cAbCScRt0n9xZtwHMXFNO6W7/zVvxJB7IfBUMQZQgHE7i571esxj2VI7MZPBiwOrwTrNQvujK/7jjcayeNEatJ2bavghllxvCSJ6rXb2jbrNAxvuqvJQ0u0b4qTO3nqiqS34wXdQRjV7o86McS4CINk50b4/UEiMc7DYU8fY/Js3p8c/7LzaudURNd+V7B/e3K7zRvhJX7Qf7GV96Re7sbdyB8lPyuvebnb868frlbeowZLsZjfO6p1pRsfpy33/EBEZ26jxrLuOKr1/Hg09O4O/UCeg7NzPgy7X3+qqfmloJMmsORulN4ve2T30rv2Jp/m3ilLdjjPdZ8dzc7gCcTN6XW/XvthmeM2a8kjbdI/CiNo7iCXz39NT+c5rH0n4VfbntSc3dYOudPYrmVi8rXDg5ZzMF+a27WuHIJShKniX+3bthaqWwlqsxLUViWo7UpQO5Wg7s2h7rUdToO6XwnqQSWovFENLK8G1q0GtlkNbKsa2HY1sJ1qYKuJMV5NkPFqosytJsrcaqLMrSaJudVkMdcijS0LUpWYIUSiZwCq2bdmoJo9awaq2a9moJqzAzNQzcmBGajmuGUGqjlqmYFqjllmoLoTA0NUzRHLEFVzWmCIqjkrMETVnBQYomrOCQxRNacEhqiVRJbuhMAQtZLY0p0OGKJWElu6kwFD1Eoylu5UYAl1STClxDRA6qsYoGp2qyGqZrcaomp2qyGq5lTAEFVzLmCIqjlkGaJqDlmGqJpDliGq7nzAFFZz0DKF1ZwRmMJqTglMYTXnBKawmpMCU1jNWYEpbDUxpjsvMIWtJsp0ZwamsNVEme7cwBS2miymOztYgtXfel3m94XJTm0Cg7pvbcgM6r7PITOo+6aHzKDubxlkBnV/5iAzuLdqg/urNniwaoMLM6XVWFz5WMNXPtjwlY82fOXDDV/5eMNXPuDwlY84fOVDDl/5mOOufMxxVz+/WfmYo/2LFZ1FijGncMdgmWnqZIMhgUHdp0hmUPchkhnUfYZkBnXTBplB3axBZlA3aZAZ1M0ZZAZ1UwaZQe1pKp3FlY812tNUOosrH220p6l0Flc+3mhPU+ksrnzE0Z6m0llc+ZijPU2ls7j6+c3KxxztaSqdRYoxx2hTR5kp62QPCLFx3adbiXHdB12Jcd1nXolx3ZRTiXHd7FOJcd31s5UY111lW4lx3bW4lRjXXhhfjXXdlb3VWNddZl+Ndd3V+NVY1120X4113bX91VjX3QJQjfVHHem0NxRUY/1Rxzrt7QnVWH/UsU57ul6N9Ued0WlP42fWv+jswpzumWZHLBA3s02e2d7Oenzd3852aRZu55xtvI5F8ks4Dnpxvd3YZpy3t1lT/s1t620JvU1p3O8t7/WOvUT0w+ju1a0fTzYu3/eGxu7uFOBD1BPRx7HcR6x9o+Rxt8jjnfDicSQmNORW6OlTsN2vnm2uXTR1KiJfxFO6qaXpAxkNw8SRO34LTcYPtbuYaexki3FG4dBL/DBISdXiRIx2zsVFGImanie9FX0R9BYbNPms3km9oCk9Qe4Q5vKP6Xbwwp3yM1jnrC+SkyCR/ZOauBgH3YxpfYv9pbEfXDIU93d/LowNWfwLVk8Gfpz6tbxPz5Asczc5af+deN1B/W/Cpmgz+tMN01Pcs1EY+xLw1/RjndbMioR5gFUU3phRmtHyg56QgbvDtw3vnpXLsjde+GIo/a0+7dNJnPSjcDwSPfbjj+wf089vnbOBF0/HExlgW/O1dw/Wph3ieP3+a2nDGYqgnwzYS+ayf7Haq+Gwxg4Xr4iHflfUd/jW58aXrcJ4W2pJGLH6ZdqUxk/sMjUzddWpXfnZP48YN39Askg3nuJ9vvzifBXp8HZ0NOm8cogZ6vSxX5o2dVbOI+F9LXPzN8N7TK+X/TVt3ZF0a+kMU0/JEqNzNtE9Eb1jmXLjz1lPfinXlbMHPRrHg3rZZ5E+0sPJ8ywfScPhoU4rHXllWStxEoVfhZ6dybVlLYUjr5vOtvRMTS8u3arMxMxUWZTZQLI4rJQJD+PBR5ZZOC8OPOlclZuimYSbPtdv21lW1br+W9GcQpbdXfbHn5/Yfz78+ZGdfvj46ff3v7G3H377/Zi9Ofl4ogfwOh21xa0np2gsCVkcphPpYHyV+kGXZVPEmHlxN528+EFfA3HW9xJnLjN72+xcf3CJRDKOAjbyoli8HoZeUvfkkL+VPsq5z86zz7Q6s3iKNmd22oQi4G+PoE/13a70THhqssv8UeSyQAd0QAd0QAd0QAd0QAd0QAd01p7OsuqHZBSJHtiADdiADdiADdiADdiADdiADdjks1nSSZJspO4R6IAO6IAO6IAO6IAO6IAO6IAO6JSho68Blv3CNtH0AlMwBVMwBVMwBVMwBVMwBVMwBVMwBdP1YFooppgxnYgjgimYgimYgimYgimYgimYgimYgimYgul6MDVSYM1YTxRVwRqswRqswRqswRqswRqswRqswRqswRqsH5H1jFYv8m7qhWC3TuInQ3E68EbCScRtUn/xJhxHcTGNu+U7P4mrkYi8ZBwJVn+9JTEKQHZ32atej3ksw2I3fjJgcXglWK9ZcGd83Xe80UgeKFKT1mtbBTfMiuMlSTQ5QqbTMLxJHvji6t8UJ3fy3BVJb8cLuoMwqt0fdmKIcREGyc6N8PuDRGKch8OePsbk6bw/Of5l59XOp4GIrsI48RJ2KpJR6KfAx2E49IP+i6285/VyN+5G/ij5WXnNy92ef/1wtfIeNViKxfzeUa0r3fk4bb/nByI6c3mNZZ1yVOv58Wjo3R36gTwPZ+d8GHa//lRT80tBJ01gyd0ovV/2y+6ld+1NPs29U5bskJ7rPjuancUTiJvT63699sMyx23WkkfbpH8URtLcgS6f/z4l6jspP9U5qp2W01Sd/jRR/ls4eyoH1a0EtVkJaqsS1HYlqJ1KUOfP3OvsqU8AM0NdOEuPO+151FZp1INKUBcP+qSD5dXAutXANquBbVUD264GtlMN7F41sNUEGa8mytxqosytJsrcapKYW00Wcy3S2LIwVYkZQiR6BqCafWsGqtmzZqCa/WoGqjk7MAPVnByYgWrODcxANUctM1DNMcsMVHdiYIiqOWIZompOCwxRNWcFhqiakwJDVM05gSGq5pTAEFVzRmCIWklo6c4HDHNAJbGlOxswRK0kYenOBQxRy6asJeGUEtMAqbNigKrZrYaomt1qiKrZrYaomlMBQ1TNuYAhquZkwBBVc8gyRNUcsgxRdecDprCag5YprOaMwBRWc0pgCqs5JzCF1ZwUmMJqzgpMYTWnBaaw1QSZ7sTANCtUE2W6UwNT2GqSmO7kwBS2bBrT34Jd5veFyY5tAoO6b23IDOq+zyEzqPumh8yg7m8ZZAZ1f+YgM7i3aoP7qzZ4sGqDCzOl1Vhc+VjDVz7Y8JWPNnzlww1f+XjDVz7g8JWPOHzlQw5f+ZjjrnzMcVc/v1n5mKP9ixWdRYoxp3DnYJlp6mSjIYFB3adIZlD3IZIZ1H2GZAZ10waZQd2sQWZQN2mQGdTNGWQGdVMGmUHtaSqdxZWPNdrTVDqLKx9ttKepdBZXPt5oT1PpLK58xNGeptJZXPmYoz1NpbO4+vnNyscc7WkqnUWKMcdoc0eZKetkLwixcd2nW4lx3QddiXHdZ16Jcd2UU4lx3exTiXHdNeqVGNddZVuJcd21uJUY114YX4113ZW91VjXXWZfjXXd1fjVWNddtF+Ndd21/dVY190CUI113Z0C1Vh/1KFOe99BNXOaRx3rtHcxVGP9USd02lP3aqybTum+6OzCnO6dZkcsEDezTZ7Z3s56fN3fznZpFm7nnG3AjkXySzgOenG93dhmnLe3WVP+zW3rbQm9TWnc7zHv9Y69RPTD6O7VrR9Pti/f94bGLu8U4EPUE9HHsdxNrH2j5HG3yOOd8OJxJCY05Ibo6VOw3beeba5dNHUqIl/EU7qppekDGQ3DxJE7fgtNxg+1u5hp7GSLcUbh0Ev8MEhJ1eJEjHbOxUUYiZqeJ70VfRH0Fhs0+azeSb2gKT1B7hDm8o/ppvDC/fIzWOesL5KTIJH9k5q4GAfdjGl9i/2lsStcMhT3d38ujA1Z/AtWTwZ+nPq1vE/PkCxzNzlp/5143UH9b8KmaDP60w3TU9yzURj7EvDX9GOd1syKhHmAVRTemFGa0fKDnpCBu8O3De+elcuyN174Yij9rT7t00mc9KNwPBI99uOP7B/Tz2+ds4EXT8cTGWBb87V3D9amHeJ4/f5racMZiqCfDNhL5rJ/sdqr4bDGDheviId+V9R3+NbnxpetwnhbakkYsfpl2pTGT+wyNTN11ald+dk/jxg3f0CySDee4n2+/OJ8FenwdnQ06bxyiBnq9LFfmjZ1Vs4j4X0tc/M3w3tMr5f9NW3dkXRr6QxTT8kSo3M20T8RvWOZcuPPWU9+KdeVswc9GseDetlnkT7Sw8nzLB9Jw+GhTisdeWVZK3EShV+Fnp3JtWUthSOvm8629ExNLy7dqszEzFRZlNlAsjislAkP48FHllk4Lw486VyVm6KZhJs+12/bWVbVuv5b0ZxClt1d9sefn9h/Pvz5kZ1++Pjp9/e/sbcffvv9mL05+XiiB/A6HbXFrSenaCwJWRymE+lgfJX6QZdlU8SYeXE3nbz4QV8Dcdb3EmcuM3vb7Fx/cIlEMo4CNvKiWLwehl5S9+SQv5U+yrnPzrPPtDqzeIo2Z3bahCLgb4+gU/XdrvRMgGqyy/xRZLNAB3RAB3RAB3RAB3RAB3RAB3TWns6y6odkFIke2IAN2IAN2IAN2IAN2IAN2IAN2OSzWdJJkmyk7hHogA7ogA7ogA7ogA7ogA7ogA7olKGjrwGW/cI20fQCUzAFUzAFUzAFUzAFUzAFUzAFUzAF0/VgWiimmDGdiCOCKZiCKZiCKZiCKZiCKZiCKZiCKZiC6XowNVJgzVhPFFXBGqzBGqzBGqzBGqzBGqzBGqzBGqzBGqwfkfWMVi/ybuqFYLdO4idDcTrwRsJJxG1Sf/EmHEdxMY275Ts/iauRiLxkHAlWf70lMQpAdnfZq16PeSzDYjd+MmBxeCVYr1lwZ3zdd7zRSB4oUpPWa1sFN8yK4yVJNDlCptMwvEke+OLq3xQnd/LcFUlvxwu6gzCq3R92YohxEQbJzo3w+4NEYpyHw54+xuTpvD85/mXn1c6ngYiuwjjxEnYqklHop8BvhJf4Qf/FVt7zerkbdyN/lPysvOblbs+/frhaeY8aLMVifu+o1pXufJy23/MDEZ25bo1lnXJU6/nxaOjdHfqBPA9n53wYdr/+VFPzS0EnTWDJ3Si9X/bL7qV37U0+zb1TluyQnus+O5qdxROIm9Prfr32wzLHbdaSR9ukfxRG0tyBLp//PiXqOyk/1TmqvJmdAdaVw4888Wmi9rdw3lQOkkuG1CRDapEhtcmQOmRIe2RI+2RIB2RIC4dvWkLReTmnc3NO5+ecztE5nadzOlfndL7O6Zyd03m7S+ftLuGYTuftLp23u4beviy8pJkBI9EzAMrpKzOgnJ4yA8rpJzOgnDHBDChnRDADyhkPzIByRgMzoJyxwAwoL/EZIpH5dl7aM0Qi8+68pGeIRObfeSnPEInMw/MSniESmY/npTtDJLrxm8zH83KdIZKJjy8JX2imOamNYYCU002GSDndZIiU002GSDlDgSFSzlBgiJQzFBgi5QwFhkg5Q4EhUl6+M4Wi8/K8jGcKRefneTnPFIrO0/OynikUna/n5T1TKDpvz8t8plCEYzqdt+clP1OoQm/HYfQ4jH4KpHEbDqNfKjiMXocWDqPHYfRlCg6jlwWH0eMw+qzgMPr8K3EYfTGALDiMfj3ObAQd0AEd0AEd0AEd0AEd0AEd0Fl7Ok/sKEewARuwARuwARuwARuwARuwAZv1YfO0zmwEHdABHdABHdABHdABHdABHdB5UnQeUZztVTfxr/3k7q24FkNW/zfk2Z6iPNv0Ia2HEltzDZTYmitTYms4jTaJEJsVUJMKqEUF1KYC6lAB7VEB7VMBHVABLezLt0Mi821O5tyczLs5mXtzMv/mZA7OyTyck7k4J/Nxl8zHXbrxm8zHXTIfd818XF9xbRGrvOCaDY66l8rLrdngqEeB8mJrNjjqEaC81JoNjjr6LYTWrICoPDonvVmorFkBUTl1Tm6zkFizAqLy65zEZqGvZjUyUnl2TlazEFezAqLy7JyUVl5ZbRHHQljNCkjdRRayalZA6uC3EFWzAlIHv4WkmhWQOvhtBNXskMh8Oyez2aip2SGRuXdOcrORUrNDIvPwnPxmo6NmN1aS+XhOirMRUbNDIvPxnCwHBTUoqEFBbYkhFNRkgYIaFNSgoJZToKAGBTWjVkFBbcG+wfVQUJsvUFC7LxUs2HpiQgOgAzqgAzqgAzqgAzqgAzqgAzprT+eJ6Q+ADdiADdiADdiADdiADdiADdisD5tno3sAOqADOqADOqADOqADOqADOqBT3t4jKKhBMO1JCaaddgeiN057WW6HikXCeGM9ZNNaayCb1lqZbFon2xRaVuKGCqhJBdSiAmpTAXWogPaogPapgA6ogBZ239shkfk2J3NuTubdnMy9OZl/czIH52QezslcnJP5uEvm4y7d+E3m4y6Zj7tmPq4vm7aIVV42zQZH3UvlZdNscNSjQHnZNBsc9QhQXjbNBkcd/RayaVZAVB6dk94sZNOsgKicOie3WcimWQFR+XVOYrOQTbMaGak8OyerWcimWQFReXZOSisvm7aIYyGbZgWk7iIL2TQrIHXwW8imWQGpg99CNs0KSB38NrJpdkhkvp2T2Wxk0+yQyNw7J7nZyKbZIZF5eE5+s5FNsxsryXw8J8XZyKbZIZH5eE6Wg2waZNMgm7bEELJpskA2DbJpkE3LKZBNg2yaUasgm7Zg3+B6yKbNF8im3ZcKVmk9MXUB0AEd0AEd0AEd0AEd0AEd0AGdtafzxEQHwAZswAZswAZswAZswAZswAZs1ofNsxE7AB3QAR3QAR3QAR3QAR3QAR3QKW8PsmnTAtm0e9k0vh6yae01kE1rr0w2reG4JKppNjhNIpwWEU6bCKdDhLNHhLNPhHNAhLOw6d4KiMqjOZVLcyqf5lROzam8mlO5Nafya07l2JzKs10qz3bJxmoqz3apPNs18mx9ebQFqPLqaBYwyh4qr41mAaOM+/LKaBYwypgvr4tmAaOMdwtVNBscIj9WpzELSTQbHCJXVucwCz00Gxwib1YnMAsxNJtxkMif1dnLQgnNBofIn9Wpq7wM2gKMhQqaDY6yeyw00GxwlOFuoYBmg6MMdwv9MxscZbjbqJ9ZAVF5tDqD2UifWQFRObU6idnonlkBUfm1Oo/ZiJ5ZjYxUnq1OZTaKZ1ZAVJ6tzmaQO4PcGeTOlhhC7kwWyJ1B7gxyZzkFcmeQOzNqFeTOFuwbXA+5s/kCubP7UsHqqiemCgA6oAM6oAM6oAM6oAM6oAM6oLP2dJ6YWADYgA3YgA3YgA3YgA3YgA3YgM36sHk2IgWgAzqgAzqgAzqgAzqgAzqgAzrl7UHubFogd3Yvd+auh9xZZw3kzjorlDtrtIn0ziyAmlRALSqgNhVQhwpojwponwrogArou+32Nkhkvs3JnJuTeTcnc29O5t+czME5mYdzMhfnZD7ukvm4Szd+k/m4S+bjrpmPm8igzWPZ6KCVx1H3ko0SWnkc9Shgo4VWHkc9AtiooZXHUUe/lR6aBRCVR+ekNytJNAsgKqfOyW1WqmgWQFR+nZPYrITRLEZGKs/OyWpW2mgWQFSenZPSbOTR5nGs9NEsgNRdZKWQZgGkDn4rjTQLIHXwW6mkWQCpg99OJ80Gicy3czKbnVSaDRKZe+ckNzu1NBskMg/PyW92gmk2YyWZj+ekODvNNBskMh/PyXKQTYNsGmTTlhhCNk0WyKZBNg2yaTkFsmmQTTNqFWTTFuwbXA/ZtPkC2bT7UsEqrSemLgA6oAM6oAM6oAM6oAM6oAM6oLP2dJ6Y6ADYgA3YgA3YgA3YgA3YgA3YgM36sHk2YgegAzqgAzqgAzqgAzqgAzqgAzrl7UE2bVogm3Yvm9ZcD9m0vTWQTdtbmWxaJ9sUWlbihgqoSQXUogJqUwF1qID2qID2qYAOqIAWdt/bIZH5Nidzbk7m3ZzMvTmZf3MyB+dkHs7JXJyT+bhL5uMu3fhN5uMumY+7Zj6uL5u2iFVeNs0GR91L5WXTbHDUo0B52TQbHPUIUF42zQZHHf0WsmlWQFQenZPeLGTTrIConDont1nIplkBUfl1TmKzkE2zGhmpPDsnq1nIplkBUXl2TkorL5u2iGMhm2YFpO4iC9k0KyB18FvIplkBqYPfQjbNCkgd/DayaXZIZL6dk9lsZNPskMjcOye52cim2SGReXhOfrORTbMbK8l8PCfF2cim2SGR+XhOloNsGmTTIJu2xBCyabJANg2yaZBNyymQTYNsmlGrIJu2YN/gesimzRfIpt2XClZpPTF1AdABHdABHdABHdABHdABHdABnbWn88REB8AGbMAGbMAGbMAGbMAGbMAGbNaHzbMROwAd0AEd0AEd0AEd0AEd0AEd0ClvD7Jp0wLZtHvZtNZ6yKbtr4Fs2v7KZNMajkuimmaD0yTCaRHhtIlwOkQ4e0Q4+0Q4B0Q4C5vurYCoPJpTuTSn8mlO5dScyqs5lVtzKr/mVI7NqTzbpfJsl2yspvJsl8qzXSPP1pdHW4Aqr45mAaPsofLaaBYwyrgvr4xmAaOM+fK6aBYwyni3UEWzwSHyY3Uas5BEs8EhcmV1DrPQQ7PBIfJmdQKzEEOzGQeJ/FmdvSyU0GxwiPxZnbrKy6AtwFiooNngKLvHQgPNBkcZ7hYKaDY4ynC30D+zwVGGu436mRUQlUerM5iN9JkVEJVTq5OYje6ZFRCVX6vzmI3omdXISOXZ6lRmo3hmBUTl2epsBrkzyJ1B7myJIeTOZIHcGeTOIHeWUyB3Brkzo1ZB7mzBvsH1kDubL5A7uy8VrK56YqoAoAM6oAM6oAM6oAM6oAM6oAM6a0/niYkFgA3YgA3YgA3YgA3YgA3YgA3YrA+bZyNSADqgAzqgAzqgAzqgAzqgAzqgU94e5M6mBXJn93Jn7fWQOztYA7mzgxXKnTXaRHpnFkBNKqAWFVCbCqhDBbRHBbRPBXRABfTddnsbJDLf5mTOzcm8m5O5Nyfzb07m4JzMwzmZi3MyH3fJfNylG7/JfNwl83HXzMdNZNDmsWx00MrjqHvJRgmtPI56FLDRQiuPox4BbNTQyuOoo99KD80CiMqjc9KblSSaBRCVU+fkNitVNAsgKr/OSWxWwmgWIyOVZ+dkNSttNAsgKs/OSWk28mjzOFb6aBZA6i6yUkizAFIHv5VGmgWQOvitVNIsgNTBb6eTZoNE5ts5mc1OKs0Gicy9c5KbnVqaDRKZh+fkNzvBNJuxkszHc1KcnWaaDRKZj+dkOcimQTYNsmlLDCGbJgtk0yCbBtm0nALZNMimGbUKsmkL9g2uh2zafIFs2n2pYJXWE1MXAB3QAR3QAR3QAR3QAR3QAR3QWXs6T0x0AGzABmzABmzABmzABmzABmzAZn3YPBuxA9ABHdABHdABHdABHdABHdABnfL2IJs2LZBNu5dN66yFbFqz8fRl01KOq5JN62SbQstK3FABNamAWlRAbSqgDhXQHhXQPhXQARXQwu57OyQy3+Zkzs3JvJuTuTcn829O5uCczMM5mYtzMh93yXzcpRu/yXzcJfNx18zH9WXTFrHKy6bZ4Kh7qbxsmg2OehQoL5tmg6MeAcrLptngqKPfQjbNCojKo3PSm4VsmhUQlVPn5DYL2TQrICq/zklsFrJpViMjlWfnZDUL2TQrICrPzklp5WXTFnEsZNOsgNRdZCGbZgWkDn4L2TQrIHXwW8imWQGpg99GNs0Oicy3czKbjWyaHRKZe+ckNxvZNDskMg/PyW82sml2YyWZj+ekOBvZNDskMh/PyXKQTYNsGmTTlhhCNk0WyKZBNg2yaTkFsmmQTTNqFWTTFuwbXA/ZtPkC2bT7UsEqrSemLgA6oAM6oAM6oAM6oAM6oAM6oLP2dJ6Y6ADYgA3YgA3YgA3YgA3YgA3YgM36sHk2YgegAzqgAzqgAzqgAzqgAzqgAzrl7UE2bVogm3Yvm7a3HrJpfA1k0/jKZNMajkuimmaD0yTCaRHhtIlwOkQ4e0Q4+0Q4B0Q4C5vurYCoPJpTuTSn8mlO5dScyqs5lVtzKr/mVI7NqTzbpfJsl2yspvJsl8qzXSPP1pdHW4Aqr45mAaPsofLaaBYwyrgvr4xmAaOM+fK6aBYwyni3UEWzwSHyY3Uas5BEs8EhcmV1DrPQQ7PBIfJmdQKzEEOzGQeJ/FmdvSyU0GxwiPxZnbrKy6AtwFiooNngKLvHQgPNBkcZ7hYKaDY4ynC30D+zwVGGu436mRUQlUerM5iN9JkVEJVTq5OYje6ZFRCVX6vzmI3omdXISOXZ6lRmo3hmBUTl2epsBrkzyJ1B7myJIeTOZIHcGeTOIHeWUyB3Brkzo1ZB7mzBvsH1kDubL5A7uy8VrK56YqoAoAM6oAM6oAM6oAM6oAM6oAM6a0/niYkFgA3YgA3YgA3YgA3YgA3YgA3YrA+bZyNSADqgAzqgAzqgAzqgAzqgAzqgU94e5M6mBXJnM7mz5nqonblroHbmrlDtrNEmkjuzAGpSAbWogNpUQB0qoD0qoH0qoAMqoO9229sgkfk2J3NuTubdnMy9OZl/czIH52QezslcnJP5uEvm4y7d+E3m4y6Zj7tmPm6igjaPZSODVh5H3Us2QmjlcdSjgI0UWnkc9QhgI4ZWHkcd/VZyaBZAVB6dk96sFNEsgKicOie3WYmiWQBR+XVOYrPSRbMYGak8OyerWUmjWQBReXZOSrNRR5vHsZJHswBSd5GVQJoFkDr4rSTSLIDUwW8lkmYBpA5+O5k0GyQy387JbHZKaTZIZO6dk9zsxNJskMg8PCe/2eml2YyVZD6ek+LsJNNskMh8PCfLQTUNqmlQTVtiCNU0WaCaBtU0qKblFKimQTXNqFVQTVuwb3A9VNPmC1TT7ksFi7SemLgA6IAO6IAO6IAO6IAO6IAO6IDO2tN5YpoDYAM2YAM2YAM2YAM2YAM2YAM268Pm2WgdgA7ogA7ogA7ogA7ogA7ogA7olLcH1bRpgWraTDWttR6qac01UE1rrkw1rZPtCS2rcEMF1KQCalEBtamAOlRAe1RA+1RAB1RAC5vv7ZDIfJuTOTcn825O5t6czL85mYNzMg/nZC7OyXzcJfNxl278JvNxl8zHXTMf11dNW8Qqr5pmg6PupfKqaTY46lGgvGqaDY56BCivmmaDo45+C9U0KyAqj85JbxaqaVZAVE6dk9ssVNOsgKj8OiexWaimWY2MVJ6dk9UsVNOsgKg8OyellVdNW8SxUE2zAlJ3kYVqmhWQOvgtVNOsgNTBb6GaZgWkDn4b1TQ7JDLfzslsNqppdkhk7p2T3GxU0+yQyDw8J7/ZqKbZjZVkPp6T4mxU0+yQyHw8J8tBNQ2qaVBNW2II1TRZoJoG1TSopuUUqKZBNc2oVVBNW7BvcD1U0+YLVNPuSwWLtJ6YuADogA7ogA7ogA7ogA7ogA7ogM7a03limgNgAzZgAzZgAzZgAzZgAzZgAzbrw+bZaB2ADuiADuiADuiADuiADuiADuiUtwfVtGmBatpMNa29HqpprTVQTWutTDWt4bgkomk2OE0inBYRTpsIp0OEs0eEs0+Ec0CEs7Dn3gqIyqM5lUtzKp/mVE7NqbyaU7k1p/JrTuXYnMqzXSrPdsnGairPdqk82zXybH11tAWo8uJoFjDKHiovjWYBo4z78sJoFjDKmC8vi2YBo4x3C1E0GxwiP1anMQtFNBscIldW5zALOTQbHCJvVicwCy00m3GQyJ/V2ctCCM0Gh8if1amrvAraAoyFCJoNjrJ7LCTQbHCU4W4hgGaDowx3C/kzGxxluNuIn1kBUXm0OoPZKJ9ZAVE5tTqJ2cieWQFR+bU6j9lonlmNjFSerU5lNoJnVkBUnq3OZlA7g9oZ1M6WGELtTBaonUHtDGpnOQVqZ1A7M2oV1M4W7BtcD7Wz+QK1s/tSweKqJyYKADqgAzqgAzqgAzqgAzqgAzqgs/Z0nphWANiADdiADdiADdiADdiADdiAzfqweTYaBaADOqADOqADOqADOqADOqADOuXtQe1sWqB2NlM766yH2ll7DdTO2itUO2u0ieTOLICaVEAtKqA2FVCHCmiPCmifCuiACui73fY2SGS+zcmcm5N5Nydzb07m35zMwTmZh3MyF+dkPu6S+bhLN36T+bhL5uOumY+bqKDNY9nIoJXHUfeSjRBaeRz1KGAjhVYeRz0C2IihlcdRR7+VHJoFEJVH56Q3K0U0CyAqp87JbVaiaBZAVH6dk9isdNEsRkYqz87JalbSaBZAVJ6dk9Js1NHmcazk0SyA1F1kJZBmAaQOfiuJNAsgdfBbiaRZAKmD304mzQaJzLdzMpudUpoNEpl75yQ3O7E0GyQyD8/Jb3Z6aTZjJZmP56Q4O8k0GyQyH8/JclBNg2oaVNOWGEI1TRaopkE1DappOQWqaVBNM2oVVNMW7BtcD9W0+QLVtPtSwSKtJyYuADqgAzqgAzqgAzqgAzqgAzqgs/Z0npjmANiADdiADdiADdiADdiADdiAzfqweTZaB6ADOqADOqADOqADOqADOqADOuXtQTVtWqCaNlNN21sP1bTOGqimdVammtbJ9oSWVbihAmpSAbWogNpUQB0qoD0qoH0qoAMqoIXN93ZIZL7NyZybk3k3J3NvTubfnMzBOZmHczIX52Q+7pL5uEs3fpP5uEvm466Zj+urpi1ilVdNs8FR91J51TQbHPUoUF41zQZHPQKUV02zwVFHv4VqmhUQlUfnpDcL1TQrICqnzsltFqppVkBUfp2T2CxU06xGRirPzslqFqppVkBUnp2T0sqrpi3iWKimWQGpu8hCNc0KSB38FqppVkDq4LdQTbMCUge/jWqaHRKZb+dkNhvVNDskMvfOSW42qml2SGQenpPfbFTT7MZKMh/PSXE2qml2SGQ+npPloJoG1TSopi0xhGqaLFBNg2oaVNNyClTToJpm1Cqopi3YN7geqmnzBapp96WCRVpPTFwAdEAHdEAHdEAHdEAHdEAHdEBn7ek8Mc0BsAEbsAEbsAEbsAEbsAEbsAGb9WHzbLQOQAd0QAd0QAd0QAd0QAd0QAd0ytuDatq0QDVtppq2vx6qaXtroJq2tzLVtIbjkoim2eA0iXBaRDhtIpwOEc4eEc4+Ec4BEc7CnnsrICqP5lQuzal8mlM5Nafyak7l1pzKrzmVY3Mqz3apPNslG6upPNul8mzXyLP11dEWoMqLo1nAKHuovDSaBYwy7ssLo1nAKGO+vCyaBYwy3i1E0WxwiPxYncYsFNFscIhcWZ3DLOTQbHCIvFmdwCy00GzGQSJ/VmcvCyE0Gxwif1anrvIqaAswFiJoNjjK7rGQQLPBUYa7hQCaDY4y3C3kz2xwlOFuI35mBUTl0eoMZqN8ZgVE5dTqJGYje2YFROXX6jxmo3lmNTJSebY6ldkInlkBUXm2OptB7QxqZ1A7W2IItTNZoHYGtTOoneUUqJ1B7cyoVVA7W7BvcD3UzuYL1M7uSwWLq56YKADogA7ogA7ogA7ogA7ogA7ogM7a03liWgFgAzZgAzZgAzZgAzZgAzZgAzbrw+bZaBSADuiADuiADuiADuiADuiADuiUtwe1s2mB2tlM7exgPdTO9tdA7Wx/ZWpnvNVwGnOFt0jEzwhhm9XAtqqBbVcD26kGdq8a2P1qYA+qgV3Y60+JW1Gc8YoCjVcUabyiUOMVxRqvKNh4RdHGKwo3XlG8uRXFm1tVXqso3tyK4s21iTd9Vbk85PIic3Sour1bXoKODlV3JCsvUEeHqjuKlZevo0PVHcEsxO0IYauJLu3pgoUSHiFsNQGmPVewkM0jhK0mxrQnChYae4RZoZoo054lWAjyEcJWE2XaU4Ty6n15qBZifoSwul1rIfVHCKs7gFkIARLC6g5gFjKBhLC6A5iNiCAlbkVxpj1TsFEcpMStKNS0Jws28oSUuBVFm/Z8wUbLkDJPVBRv2lMGG+FDStyK4k171gCVRKgkQiVxiSFUEmWBSiJUEqGSmFOgkgiVRKNWQSVxwb7B9VBJnC9QSbwvFSzKfGJiIqADOqADOqADOqADOqADOqADOmtP54lpjIAN2IAN2IAN2IAN2IAN2IAN2KwPm2ejbQI6oAM6oAM6oAM6oAM6oAM6oFPe3iOoJH4SVyMReck4Eqz+eguiiU9LNFFE135XsH970vPehuGIyQcm1zm3Gq/XQ0DxYA0EFA9WJqDYOXAO5sr+AYl+Ih1qsxLUViWo7UpQO5Wg7lWCul8J6kElqAvyBoSw1UQXrya8eDXxxasJMF5NhPFqQoxXE2O8miDj1USZW02UuRXlsGqizK0mylyLKNMXSswBLq+TSAaq2bPlVRLJQDXHrvIaiWSgmuNWeYVEMlDNMctCH5EOtZKY0p0WWIgj0qFWEla6cwILZUQ61EoiS3dCYCGLSJcDKokt3dmAhSYiHWolsaU7FSgviJgDaqGHSIeq2a0Waoh0qJpDloUWIh2q5pBloYRIh6o5ZNnoIBLCVhNdujMCGxFEQthqAkx3UmCjgEgIW02M6c4LbOQPCbNCNVGmOzWw0T4khK0mynRnBxA+hPAhhA+XGEL4UBYIH0L4EMKHOQXChxA+NGoVhA8X7BtcD+HD+QLhw/tSwTrLJ6YPAjqgAzqgAzqgAzqgAzqgAzqgs/Z0nphsCNiADdiADdiADdiADdiADdiAzfqweTZyJaADOqADOqADOqADOqADOqADOuXtQfjw4fJshQ8ngodvRPa/V1fnvgiSifThaXcgeuO0/3fY3ppIILYaT18CMeW4KgnEbONpWQkmIpwmEU6LCKdNhNMhwtkjwtknwjkgwlnQFrACovJoTuXSnMqnOZVTcyqv5lRuzan8mlM5NqfybJfKs12ysZrKs10qz3aNPFtfsm8BqrxInwWMsofKC/FZwCjjvrzYngWMMubLC+pZwCjj3UI0zwaHyI/VacxCCs8Gh8iV1TnMQuDOBofIm9UJzEK2zmYcJPJndfayEKOzwSHyZ3XqKi8xtwBjISpng6PsHgvhOBscZbhbiMPZ4CjD3UIAzgZHGe42Im9WQFQerc5gNtJtVkBUTq1OYjaCbFZAVH6tzmM2MmtWIyOVZ6tTmY14mhUQlWersxkk0dZCEg3VqEY1qlGNalSjGtWoRjWqUY1qVKMa1U+p+s4Jr0UU+T3xzpMvqrjTgCT+XEsgiX9fIIlvVCCJD0l8gwJJ/O8LJPG/L5DENyyQxIck/oMFkvigAzqgAzqgAzqgAzqgAzqgAzqgsw6CkmADNmADNmADNmADNmADNmADNuvD5tkIWYIO6IAO6IAO6IAO6IAO6IAO6JS39wiS+L/6VyKI/TAYijiGIP7TEsQPo6/s5OLC7/oi6N7dy+CvVgB/evV3NfP/nv198v979Olf7v93Hvbu5P8HydXw5//6/x7R4bg="
               },
               {
                  "name" : "annual_peak_electric_demand",
                  "units" : "kW",
                  "value" : 15.62912
               },
               {
                  "name" : "first_year_capital_cost",
                  "units" : "$",
                  "value" : 0
               },
               {
                  "name" : "annual_utility_cost",
                  "units" : "$",
                  "value" : 6125.8500000000004
               },
               {
                  "name" : "total_lifecycle_cost",
                  "units" : "$",
                  "value" : 102561.55
               }
            ],
            "step_warnings" : []
         }
      }
   ],
   "updated_at" : "20170710T190204Z",
   "weather_file" : "USA_CO_Denver.Intl.AP.725650_TMY3.epw"
}
