{
   "completed_at" : "20170710T194656Z",
   "completed_status" : "Success",
   "created_at" : "2017-07-10 19:21:27 +0000",
   "current_step" : 5,
   "description" : "",
   "eplusout_err" : "Program Version,EnergyPlus, Version 8.7.0-78a111df4a, YMD=2017.07.10 19:33,IDD_Version 8.7.0\n   ************* IDF Context for following error/warning message:\n   ************* Note -- lines truncated at 300 characters, if necessary...\n   *************      5 Building,\n   ************* indicated Name=NECB 2011-Outpatient-NECB HDD Method-CAN_NB_Miramichi.717440_CWEC.epw created: 2017-07-10 19:21:43 +0000\n   ************* Only last 1 lines before error line shown.....\n   *************      6   NECB 2011-Outpatient-NECB HDD Method-CAN_NB_Miramichi.717440_CWEC.epw created: 2017-07-10 19:21:43 +0000, !- Name\n   ** Warning ** IP: IDF line~6 Alpha Argument length exceeds maximum, will be truncated=  NECB 2011-Outpatient-NECB HDD Method-CAN_NB_Miramichi.717440_CWEC.epw created: 2017-07-10 19:21:43 +000\n   **   ~~~   ** Will be processed as Alpha=NECB 2011-OUTPATIENT-NECB HDD METHOD-CAN_NB_MIRAMICHI.717440_CWEC.EPW CREATED: 2017-07-10 19:21:43 +0000\n   ************* IDF Context for following error/warning message:\n   ************* Note -- lines truncated at 300 characters, if necessary...\n   *************  33864 Schedule:Week:Daily,\n   ************* indicated Name=Schedule:Week:Daily {54a0cc6f-6b07-4602-b1ed-b0cf6e1981be}\n   ************* Only last 10 lines before error line shown.....\n   *************  33865   Schedule:Week:Daily {54a0cc6f-6b07-4602-b1ed-b0cf6e1981be}, !- Name\n   *************  33866   Sp-Floor 3 Physical Therapy 1 Sys-3 Flr-2 Sch-C HPlcmt-south ZN NECB System 3 PSZ Occ Sch Sunday, !- Sunday Schedule:Day Name\n   *************  33867   Sp-Floor 3 Physical Therapy 1 Sys-3 Flr-2 Sch-C HPlcmt-south ZN NECB System 3 PSZ Occ Sch Monday, !- Monday Schedule:Day Name\n   *************  33868   Sp-Floor 3 Physical Therapy 1 Sys-3 Flr-2 Sch-C HPlcmt-south ZN NECB System 3 PSZ Occ Sch Tuesday, !- Tuesday Schedule:Day Name\n   *************  33869   Sp-Floor 3 Physical Therapy 1 Sys-3 Flr-2 Sch-C HPlcmt-south ZN NECB System 3 PSZ Occ Sch Wednesday, !- Wednesday Schedule:Day Name\n   *************  33870   Sp-Floor 3 Physical Therapy 1 Sys-3 Flr-2 Sch-C HPlcmt-south ZN NECB System 3 PSZ Occ Sch Thursday, !- Thursday Schedule:Day Name\n   *************  33871   Sp-Floor 3 Physical Therapy 1 Sys-3 Flr-2 Sch-C HPlcmt-south ZN NECB System 3 PSZ Occ Sch Friday, !- Friday Schedule:Day Name\n   *************  33872   Sp-Floor 3 Physical Therapy 1 Sys-3 Flr-2 Sch-C HPlcmt-south ZN NECB System 3 PSZ Occ Sch Saturday, !- Saturday Schedule:Day Name\n   *************  33873   Sp-Floor 3 Physical Therapy 1 Sys-3 Flr-2 Sch-C HPlcmt-south ZN NECB System 3 PSZ Occ Sch Default, !- Holiday Schedule:Day Name\n   *************  33874   Sp-Floor 3 Physical Therapy 1 Sys-3 Flr-2 Sch-C HPlcmt-south ZN NECB System 3 PSZ Occ Sch Summer Design Day, !- SummerDesignDay Schedule:Day Name\n   ** Warning ** IP: IDF line~33874 Alpha Argument length exceeds maximum, will be truncated=  Sp-Floor 3 Physical Therapy 1 Sys-3 Flr-2 Sch-C HPlcmt-south ZN NECB System 3 PSZ Occ Sch Summer Design Da\n   **   ~~~   ** Will be processed as Alpha=SP-FLOOR 3 PHYSICAL THERAPY 1 SYS-3 FLR-2 SCH-C HPLCMT-SOUTH ZN NECB SYSTEM 3 PSZ OCC SCH SUMMER DESIGN DAY\n   ************* IDF Context for following error/warning message:\n   ************* Note -- lines truncated at 300 characters, if necessary...\n   *************  33864 Schedule:Week:Daily,\n   ************* indicated Name=Schedule:Week:Daily {54a0cc6f-6b07-4602-b1ed-b0cf6e1981be}\n   ************* Only last 10 lines before error line shown.....\n   *************  33866   Sp-Floor 3 Physical Therapy 1 Sys-3 Flr-2 Sch-C HPlcmt-south ZN NECB System 3 PSZ Occ Sch Sunday, !- Sunday Schedule:Day Name\n   *************  33867   Sp-Floor 3 Physical Therapy 1 Sys-3 Flr-2 Sch-C HPlcmt-south ZN NECB System 3 PSZ Occ Sch Monday, !- Monday Schedule:Day Name\n   *************  33868   Sp-Floor 3 Physical Therapy 1 Sys-3 Flr-2 Sch-C HPlcmt-south ZN NECB System 3 PSZ Occ Sch Tuesday, !- Tuesday Schedule:Day Name\n   *************  33869   Sp-Floor 3 Physical Therapy 1 Sys-3 Flr-2 Sch-C HPlcmt-south ZN NECB System 3 PSZ Occ Sch Wednesday, !- Wednesday Schedule:Day Name\n   *************  33870   Sp-Floor 3 Physical Therapy 1 Sys-3 Flr-2 Sch-C HPlcmt-south ZN NECB System 3 PSZ Occ Sch Thursday, !- Thursday Schedule:Day Name\n   *************  33871   Sp-Floor 3 Physical Therapy 1 Sys-3 Flr-2 Sch-C HPlcmt-south ZN NECB System 3 PSZ Occ Sch Friday, !- Friday Schedule:Day Name\n   *************  33872   Sp-Floor 3 Physical Therapy 1 Sys-3 Flr-2 Sch-C HPlcmt-south ZN NECB System 3 PSZ Occ Sch Saturday, !- Saturday Schedule:Day Name\n   *************  33873   Sp-Floor 3 Physical Therapy 1 Sys-3 Flr-2 Sch-C HPlcmt-south ZN NECB System 3 PSZ Occ Sch Default, !- Holiday Schedule:Day Name\n   *************  33874   Sp-Floor 3 Physical Therapy 1 Sys-3 Flr-2 Sch-C HPlcmt-south ZN NECB System 3 PSZ Occ Sch Summer Design Day, !- SummerDesignDay Schedule:Day Name\n   *************  33875   Sp-Floor 3 Physical Therapy 1 Sys-3 Flr-2 Sch-C HPlcmt-south ZN NECB System 3 PSZ Occ Sch Winter Design Day, !- WinterDesignDay Schedule:Day Name\n   ** Warning ** IP: IDF line~33875 Alpha Argument length exceeds maximum, will be truncated=  Sp-Floor 3 Physical Therapy 1 Sys-3 Flr-2 Sch-C HPlcmt-south ZN NECB System 3 PSZ Occ Sch Winter Design Da\n   **   ~~~   ** Will be processed as Alpha=SP-FLOOR 3 PHYSICAL THERAPY 1 SYS-3 FLR-2 SCH-C HPLCMT-SOUTH ZN NECB SYSTEM 3 PSZ OCC SCH WINTER DESIGN DAY\n   ************* IDF Context for following error/warning message:\n   ************* Note -- lines truncated at 300 characters, if necessary...\n   *************  33895 Schedule:Day:Interval,\n   ************* indicated Name=Sp-Floor 3 Physical Therapy 1 Sys-3 Flr-2 Sch-C HPlcmt-south ZN NECB System 3 PSZ Occ Sch Summer Design Day\n   ************* Only last 1 lines before error line shown.....\n   *************  33896   Sp-Floor 3 Physical Therapy 1 Sys-3 Flr-2 Sch-C HPlcmt-south ZN NECB System 3 PSZ Occ Sch Summer Design Day, !- Name\n   ** Warning ** IP: IDF line~33896 Alpha Argument length exceeds maximum, will be truncated=  Sp-Floor 3 Physical Therapy 1 Sys-3 Flr-2 Sch-C HPlcmt-south ZN NECB System 3 PSZ Occ Sch Summer Design Da\n   **   ~~~   ** Will be processed as Alpha=SP-FLOOR 3 PHYSICAL THERAPY 1 SYS-3 FLR-2 SCH-C HPLCMT-SOUTH ZN NECB SYSTEM 3 PSZ OCC SCH SUMMER DESIGN DAY\n   ************* IDF Context for following error/warning message:\n   ************* Note -- lines truncated at 300 characters, if necessary...\n   *************  33902 Schedule:Day:Interval,\n   ************* indicated Name=Sp-Floor 3 Physical Therapy 1 Sys-3 Flr-2 Sch-C HPlcmt-south ZN NECB System 3 PSZ Occ Sch Winter Design Day\n   ************* Only last 1 lines before error line shown.....\n   *************  33903   Sp-Floor 3 Physical Therapy 1 Sys-3 Flr-2 Sch-C HPlcmt-south ZN NECB System 3 PSZ Occ Sch Winter Design Day, !- Name\n   ** Warning ** IP: IDF line~33903 Alpha Argument length exceeds maximum, will be truncated=  Sp-Floor 3 Physical Therapy 1 Sys-3 Flr-2 Sch-C HPlcmt-south ZN NECB System 3 PSZ Occ Sch Winter Design Da\n   **   ~~~   ** Will be processed as Alpha=SP-FLOOR 3 PHYSICAL THERAPY 1 SYS-3 FLR-2 SCH-C HPLCMT-SOUTH ZN NECB SYSTEM 3 PSZ OCC SCH WINTER DESIGN DAY\n   ************* IDF Context for following error/warning message:\n   ************* Note -- lines truncated at 300 characters, if necessary...\n   *************  35822 Schedule:Week:Daily,\n   ************* indicated Name=Schedule:Week:Daily {87c8eb8c-1c70-44b4-a47d-ec212039a9f4}\n   ************* Only last 10 lines before error line shown.....\n   *************  35823   Schedule:Week:Daily {87c8eb8c-1c70-44b4-a47d-ec212039a9f4}, !- Name\n   *************  35824   Sp-Floor 3 Undeveloped 1 Sys-4 Flr-2 Sch-E HPlcmt-south ZN NECB System 4 PSZ Occ Sch Sunday, !- Sunday Schedule:Day Name\n   *************  35825   Sp-Floor 3 Undeveloped 1 Sys-4 Flr-2 Sch-E HPlcmt-south ZN NECB System 4 PSZ Occ Sch Monday, !- Monday Schedule:Day Name\n   *************  35826   Sp-Floor 3 Undeveloped 1 Sys-4 Flr-2 Sch-E HPlcmt-south ZN NECB System 4 PSZ Occ Sch Tuesday, !- Tuesday Schedule:Day Name\n   *************  35827   Sp-Floor 3 Undeveloped 1 Sys-4 Flr-2 Sch-E HPlcmt-south ZN NECB System 4 PSZ Occ Sch Wednesday, !- Wednesday Schedule:Day Name\n   *************  35828   Sp-Floor 3 Undeveloped 1 Sys-4 Flr-2 Sch-E HPlcmt-south ZN NECB System 4 PSZ Occ Sch Thursday, !- Thursday Schedule:Day Name\n   *************  35829   Sp-Floor 3 Undeveloped 1 Sys-4 Flr-2 Sch-E HPlcmt-south ZN NECB System 4 PSZ Occ Sch Friday, !- Friday Schedule:Day Name\n   *************  35830   Sp-Floor 3 Undeveloped 1 Sys-4 Flr-2 Sch-E HPlcmt-south ZN NECB System 4 PSZ Occ Sch Saturday, !- Saturday Schedule:Day Name\n   *************  35831   Sp-Floor 3 Undeveloped 1 Sys-4 Flr-2 Sch-E HPlcmt-south ZN NECB System 4 PSZ Occ Sch Default, !- Holiday Schedule:Day Name\n   *************  35832   Sp-Floor 3 Undeveloped 1 Sys-4 Flr-2 Sch-E HPlcmt-south ZN NECB System 4 PSZ Occ Sch Summer Design Day, !- SummerDesignDay Schedule:Day Name\n   ** Warning ** IP: IDF line~35832 Alpha Argument length exceeds maximum, will be truncated=  Sp-Floor 3 Undeveloped 1 Sys-4 Flr-2 Sch-E HPlcmt-south ZN NECB System 4 PSZ Occ Sch Summer Design Da\n   **   ~~~   ** Will be processed as Alpha=SP-FLOOR 3 UNDEVELOPED 1 SYS-4 FLR-2 SCH-E HPLCMT-SOUTH ZN NECB SYSTEM 4 PSZ OCC SCH SUMMER DESIGN DAY\n   ************* IDF Context for following error/warning message:\n   ************* Note -- lines truncated at 300 characters, if necessary...\n   *************  35822 Schedule:Week:Daily,\n   ************* indicated Name=Schedule:Week:Daily {87c8eb8c-1c70-44b4-a47d-ec212039a9f4}\n   ************* Only last 10 lines before error line shown.....\n   *************  35824   Sp-Floor 3 Undeveloped 1 Sys-4 Flr-2 Sch-E HPlcmt-south ZN NECB System 4 PSZ Occ Sch Sunday, !- Sunday Schedule:Day Name\n   *************  35825   Sp-Floor 3 Undeveloped 1 Sys-4 Flr-2 Sch-E HPlcmt-south ZN NECB System 4 PSZ Occ Sch Monday, !- Monday Schedule:Day Name\n   *************  35826   Sp-Floor 3 Undeveloped 1 Sys-4 Flr-2 Sch-E HPlcmt-south ZN NECB System 4 PSZ Occ Sch Tuesday, !- Tuesday Schedule:Day Name\n   *************  35827   Sp-Floor 3 Undeveloped 1 Sys-4 Flr-2 Sch-E HPlcmt-south ZN NECB System 4 PSZ Occ Sch Wednesday, !- Wednesday Schedule:Day Name\n   *************  35828   Sp-Floor 3 Undeveloped 1 Sys-4 Flr-2 Sch-E HPlcmt-south ZN NECB System 4 PSZ Occ Sch Thursday, !- Thursday Schedule:Day Name\n   *************  35829   Sp-Floor 3 Undeveloped 1 Sys-4 Flr-2 Sch-E HPlcmt-south ZN NECB System 4 PSZ Occ Sch Friday, !- Friday Schedule:Day Name\n   *************  35830   Sp-Floor 3 Undeveloped 1 Sys-4 Flr-2 Sch-E HPlcmt-south ZN NECB System 4 PSZ Occ Sch Saturday, !- Saturday Schedule:Day Name\n   *************  35831   Sp-Floor 3 Undeveloped 1 Sys-4 Flr-2 Sch-E HPlcmt-south ZN NECB System 4 PSZ Occ Sch Default, !- Holiday Schedule:Day Name\n   *************  35832   Sp-Floor 3 Undeveloped 1 Sys-4 Flr-2 Sch-E HPlcmt-south ZN NECB System 4 PSZ Occ Sch Summer Design Day, !- SummerDesignDay Schedule:Day Name\n   *************  35833   Sp-Floor 3 Undeveloped 1 Sys-4 Flr-2 Sch-E HPlcmt-south ZN NECB System 4 PSZ Occ Sch Winter Design Day, !- WinterDesignDay Schedule:Day Name\n   ** Warning ** IP: IDF line~35833 Alpha Argument length exceeds maximum, will be truncated=  Sp-Floor 3 Undeveloped 1 Sys-4 Flr-2 Sch-E HPlcmt-south ZN NECB System 4 PSZ Occ Sch Winter Design Da\n   **   ~~~   ** Will be processed as Alpha=SP-FLOOR 3 UNDEVELOPED 1 SYS-4 FLR-2 SCH-E HPLCMT-SOUTH ZN NECB SYSTEM 4 PSZ OCC SCH WINTER DESIGN DAY\n   ************* IDF Context for following error/warning message:\n   ************* Note -- lines truncated at 300 characters, if necessary...\n   *************  35853 Schedule:Day:Interval,\n   ************* indicated Name=Sp-Floor 3 Undeveloped 1 Sys-4 Flr-2 Sch-E HPlcmt-south ZN NECB System 4 PSZ Occ Sch Summer Design Day\n   ************* Only last 1 lines before error line shown.....\n   *************  35854   Sp-Floor 3 Undeveloped 1 Sys-4 Flr-2 Sch-E HPlcmt-south ZN NECB System 4 PSZ Occ Sch Summer Design Day, !- Name\n   ** Warning ** IP: IDF line~35854 Alpha Argument length exceeds maximum, will be truncated=  Sp-Floor 3 Undeveloped 1 Sys-4 Flr-2 Sch-E HPlcmt-south ZN NECB System 4 PSZ Occ Sch Summer Design Da\n   **   ~~~   ** Will be processed as Alpha=SP-FLOOR 3 UNDEVELOPED 1 SYS-4 FLR-2 SCH-E HPLCMT-SOUTH ZN NECB SYSTEM 4 PSZ OCC SCH SUMMER DESIGN DAY\n   ************* IDF Context for following error/warning message:\n   ************* Note -- lines truncated at 300 characters, if necessary...\n   *************  35860 Schedule:Day:Interval,\n   ************* indicated Name=Sp-Floor 3 Undeveloped 1 Sys-4 Flr-2 Sch-E HPlcmt-south ZN NECB System 4 PSZ Occ Sch Winter Design Day\n   ************* Only last 1 lines before error line shown.....\n   *************  35861   Sp-Floor 3 Undeveloped 1 Sys-4 Flr-2 Sch-E HPlcmt-south ZN NECB System 4 PSZ Occ Sch Winter Design Day, !- Name\n   ** Warning ** IP: IDF line~35861 Alpha Argument length exceeds maximum, will be truncated=  Sp-Floor 3 Undeveloped 1 Sys-4 Flr-2 Sch-E HPlcmt-south ZN NECB System 4 PSZ Occ Sch Winter Design Da\n   **   ~~~   ** Will be processed as Alpha=SP-FLOOR 3 UNDEVELOPED 1 SYS-4 FLR-2 SCH-E HPLCMT-SOUTH ZN NECB SYSTEM 4 PSZ OCC SCH WINTER DESIGN DAY\n   ************* IDF Context for following error/warning message:\n   ************* Note -- lines truncated at 300 characters, if necessary...\n   *************  50569 AirLoopHVAC,\n   ************* indicated Name=Sp-Floor 1 Electrical Room Sys-4 Flr-3 Sch-H HPlcmt-east ZN NECB System 4 PSZ\n   ************* Only last 3 lines before error line shown.....\n   *************  50570   Sp-Floor 1 Electrical Room Sys-4 Flr-3 Sch-H HPlcmt-east ZN NECB System 4 PSZ, !- Name\n   *************  50571   ,                                       !- Controller List Name\n   *************  50572   Sp-Floor 1 Electrical Room Sys-4 Flr-3 Sch-H HPlcmt-east ZN NECB System 4 PSZAvailability Manager List, !- Availability Manager List Name\n   ** Warning ** IP: IDF line~50572 Alpha Argument length exceeds maximum, will be truncated=  Sp-Floor 1 Electrical Room Sys-4 Flr-3 Sch-H HPlcmt-east ZN NECB System 4 PSZAvailability Manager Lis\n   **   ~~~   ** Will be processed as Alpha=SP-FLOOR 1 ELECTRICAL ROOM SYS-4 FLR-3 SCH-H HPLCMT-EAST ZN NECB SYSTEM 4 PSZAVAILABILITY MANAGER LIST\n   ************* IDF Context for following error/warning message:\n   ************* Note -- lines truncated at 300 characters, if necessary...\n   *************  50628 AvailabilityManagerAssignmentList,\n   ************* indicated Name=Sp-Floor 1 Electrical Room Sys-4 Flr-3 Sch-H HPlcmt-east ZN NECB System 4 PSZAvailability Manager List\n   ************* Only last 1 lines before error line shown.....\n   *************  50629   Sp-Floor 1 Electrical Room Sys-4 Flr-3 Sch-H HPlcmt-east ZN NECB System 4 PSZAvailability Manager List, !- Name\n   ** Warning ** IP: IDF line~50629 Alpha Argument length exceeds maximum, will be truncated=  Sp-Floor 1 Electrical Room Sys-4 Flr-3 Sch-H HPlcmt-east ZN NECB System 4 PSZAvailability Manager Lis\n   **   ~~~   ** Will be processed as Alpha=SP-FLOOR 1 ELECTRICAL ROOM SYS-4 FLR-3 SCH-H HPLCMT-EAST ZN NECB SYSTEM 4 PSZAVAILABILITY MANAGER LIST\n   ************* IDF Context for following error/warning message:\n   ************* Note -- lines truncated at 300 characters, if necessary...\n   *************  50895 AirLoopHVAC,\n   ************* indicated Name=Sp-Floor 1 Elevator Pump Room Sys-3 Flr-3 Sch-H HPlcmt-north ZN NECB System 3 PSZ\n   ************* Only last 3 lines before error line shown.....\n   *************  50896   Sp-Floor 1 Elevator Pump Room Sys-3 Flr-3 Sch-H HPlcmt-north ZN NECB System 3 PSZ, !- Name\n   *************  50897   ,                                       !- Controller List Name\n   *************  50898   Sp-Floor 1 Elevator Pump Room Sys-3 Flr-3 Sch-H HPlcmt-north ZN NECB System 3 PSZAvailability Manager List, !- Availability Manager List Name\n   ** Warning ** IP: IDF line~50898 Alpha Argument length exceeds maximum, will be truncated=  Sp-Floor 1 Elevator Pump Room Sys-3 Flr-3 Sch-H HPlcmt-north ZN NECB System 3 PSZAvailability Manager Lis\n   **   ~~~   ** Will be processed as Alpha=SP-FLOOR 1 ELEVATOR PUMP ROOM SYS-3 FLR-3 SCH-H HPLCMT-NORTH ZN NECB SYSTEM 3 PSZAVAILABILITY MANAGER LIST\n   ************* IDF Context for following error/warning message:\n   ************* Note -- lines truncated at 300 characters, if necessary...\n   *************  50895 AirLoopHVAC,\n   ************* indicated Name=Sp-Floor 1 Elevator Pump Room Sys-3 Flr-3 Sch-H HPlcmt-north ZN NECB System 3 PSZ\n   ************* Only last 10 lines before error line shown.....\n   *************  50896   Sp-Floor 1 Elevator Pump Room Sys-3 Flr-3 Sch-H HPlcmt-north ZN NECB System 3 PSZ, !- Name\n   *************  50897   ,                                       !- Controller List Name\n   *************  50898   Sp-Floor 1 Elevator Pump Room Sys-3 Flr-3 Sch-H HPlcmt-north ZN NECB System 3 PSZAvailability Manager List, !- Availability Manager List Name\n   *************  50899   AutoSize,                               !- Design Supply Air Flow Rate {m3/s}\n   *************  50900   Sp-Floor 1 Elevator Pump Room Sys-3 Flr-3 Sch-H HPlcmt-north ZN NECB System 3 PSZ Supply Branches, !- Branch List Name\n   *************  50901   ,                                       !- Connector List Name\n   *************  50902   Node 651,                               !- Supply Side Inlet Node Name\n   *************  50903   Node 654,                               !- Demand Side Outlet Node Name\n   *************  50904   Sp-Floor 1 Elevator Pump Room Sys-3 Flr-3 Sch-H HPlcmt-north ZN NECB System 3 PSZ Demand Inlet Nodes, !- Demand Side Inlet Node Names\n   *************  50905   Sp-Floor 1 Elevator Pump Room Sys-3 Flr-3 Sch-H HPlcmt-north ZN NECB System 3 PSZ Supply Outlet Nodes; !- Supply Side Outlet Node Names\n   ** Warning ** IP: IDF line~50905 Alpha Argument length exceeds maximum, will be truncated=  Sp-Floor 1 Elevator Pump Room Sys-3 Flr-3 Sch-H HPlcmt-north ZN NECB System 3 PSZ Supply Outlet Node\n   **   ~~~   ** Will be processed as Alpha=SP-FLOOR 1 ELEVATOR PUMP ROOM SYS-3 FLR-3 SCH-H HPLCMT-NORTH ZN NECB SYSTEM 3 PSZ SUPPLY OUTLET NODES\n   ************* IDF Context for following error/warning message:\n   ************* Note -- lines truncated at 300 characters, if necessary...\n   *************  50907 NodeList,\n   ************* indicated Name=Sp-Floor 1 Elevator Pump Room Sys-3 Flr-3 Sch-H HPlcmt-north ZN NECB System 3 PSZ Supply Outlet Nodes\n   ************* Only last 1 lines before error line shown.....\n   *************  50908   Sp-Floor 1 Elevator Pump Room Sys-3 Flr-3 Sch-H HPlcmt-north ZN NECB System 3 PSZ Supply Outlet Nodes, !- Name\n   ** Warning ** IP: IDF line~50908 Alpha Argument length exceeds maximum, will be truncated=  Sp-Floor 1 Elevator Pump Room Sys-3 Flr-3 Sch-H HPlcmt-north ZN NECB System 3 PSZ Supply Outlet Node\n   **   ~~~   ** Will be processed as Alpha=SP-FLOOR 1 ELEVATOR PUMP ROOM SYS-3 FLR-3 SCH-H HPLCMT-NORTH ZN NECB SYSTEM 3 PSZ SUPPLY OUTLET NODES\n   ************* IDF Context for following error/warning message:\n   ************* Note -- lines truncated at 300 characters, if necessary...\n   *************  50954 AvailabilityManagerAssignmentList,\n   ************* indicated Name=Sp-Floor 1 Elevator Pump Room Sys-3 Flr-3 Sch-H HPlcmt-north ZN NECB System 3 PSZAvailability Manager List\n   ************* Only last 1 lines before error line shown.....\n   *************  50955   Sp-Floor 1 Elevator Pump Room Sys-3 Flr-3 Sch-H HPlcmt-north ZN NECB System 3 PSZAvailability Manager List, !- Name\n   ** Warning ** IP: IDF line~50955 Alpha Argument length exceeds maximum, will be truncated=  Sp-Floor 1 Elevator Pump Room Sys-3 Flr-3 Sch-H HPlcmt-north ZN NECB System 3 PSZAvailability Manager Lis\n   **   ~~~   ** Will be processed as Alpha=SP-FLOOR 1 ELEVATOR PUMP ROOM SYS-3 FLR-3 SCH-H HPLCMT-NORTH ZN NECB SYSTEM 3 PSZAVAILABILITY MANAGER LIST\n   ************* IDF Context for following error/warning message:\n   ************* Note -- lines truncated at 300 characters, if necessary...\n   *************  50954 AvailabilityManagerAssignmentList,\n   ************* indicated Name=Sp-Floor 1 Elevator Pump Room Sys-3 Flr-3 Sch-H HPlcmt-north ZN NECB System 3 PSZAvailability Manager List\n   ************* Only last 3 lines before error line shown.....\n   *************  50955   Sp-Floor 1 Elevator Pump Room Sys-3 Flr-3 Sch-H HPlcmt-north ZN NECB System 3 PSZAvailability Manager List, !- Name\n   *************  50956   AvailabilityManager:Scheduled,          !- Availability Manager Object Type 1\n   *************  50957   Sp-Floor 1 Elevator Pump Room Sys-3 Flr-3 Sch-H HPlcmt-north ZN NECB System 3 PSZ Availability Manager; !- Availability Manager Name 1\n   ** Warning ** IP: IDF line~50957 Alpha Argument length exceeds maximum, will be truncated=  Sp-Floor 1 Elevator Pump Room Sys-3 Flr-3 Sch-H HPlcmt-north ZN NECB System 3 PSZ Availability Manage\n   **   ~~~   ** Will be processed as Alpha=SP-FLOOR 1 ELEVATOR PUMP ROOM SYS-3 FLR-3 SCH-H HPLCMT-NORTH ZN NECB SYSTEM 3 PSZ AVAILABILITY MANAGER\n   ************* IDF Context for following error/warning message:\n   ************* Note -- lines truncated at 300 characters, if necessary...\n   *************  50959 AvailabilityManager:Scheduled,\n   ************* indicated Name=Sp-Floor 1 Elevator Pump Room Sys-3 Flr-3 Sch-H HPlcmt-north ZN NECB System 3 PSZ Availability Manager\n   ************* Only last 1 lines before error line shown.....\n   *************  50960   Sp-Floor 1 Elevator Pump Room Sys-3 Flr-3 Sch-H HPlcmt-north ZN NECB System 3 PSZ Availability Manager, !- Name\n   ** Warning ** IP: IDF line~50960 Alpha Argument length exceeds maximum, will be truncated=  Sp-Floor 1 Elevator Pump Room Sys-3 Flr-3 Sch-H HPlcmt-north ZN NECB System 3 PSZ Availability Manage\n   **   ~~~   ** Will be processed as Alpha=SP-FLOOR 1 ELEVATOR PUMP ROOM SYS-3 FLR-3 SCH-H HPLCMT-NORTH ZN NECB SYSTEM 3 PSZ AVAILABILITY MANAGER\n   ************* IDF Context for following error/warning message:\n   ************* Note -- lines truncated at 300 characters, if necessary...\n   *************  51199 AirLoopHVAC:SupplyPath,\n   ************* indicated Name=Sp-Floor 1 Elevator Pump Room Sys-3 Flr-3 Sch-H HPlcmt-north ZN NECB System 3 PSZ Node 653 Supply Path\n   ************* Only last 1 lines before error line shown.....\n   *************  51200   Sp-Floor 1 Elevator Pump Room Sys-3 Flr-3 Sch-H HPlcmt-north ZN NECB System 3 PSZ Node 653 Supply Path, !- Name\n   ** Warning ** IP: IDF line~51200 Alpha Argument length exceeds maximum, will be truncated=  Sp-Floor 1 Elevator Pump Room Sys-3 Flr-3 Sch-H HPlcmt-north ZN NECB System 3 PSZ Node 653 Supply Pat\n   **   ~~~   ** Will be processed as Alpha=SP-FLOOR 1 ELEVATOR PUMP ROOM SYS-3 FLR-3 SCH-H HPLCMT-NORTH ZN NECB SYSTEM 3 PSZ NODE 653 SUPPLY PATH\n   ************* IDF Context for following error/warning message:\n   ************* Note -- lines truncated at 300 characters, if necessary...\n   *************  52525 AirLoopHVAC,\n   ************* indicated Name=Sp-Floor 1 Locker Room Hall Sys-4 Flr-3 Sch-H HPlcmt-core ZN NECB System 4 PSZ\n   ************* Only last 3 lines before error line shown.....\n   *************  52526   Sp-Floor 1 Locker Room Hall Sys-4 Flr-3 Sch-H HPlcmt-core ZN NECB System 4 PSZ, !- Name\n   *************  52527   ,                                       !- Controller List Name\n   *************  52528   Sp-Floor 1 Locker Room Hall Sys-4 Flr-3 Sch-H HPlcmt-core ZN NECB System 4 PSZAvailability Manager List, !- Availability Manager List Name\n   ** Warning ** IP: IDF line~52528 Alpha Argument length exceeds maximum, will be truncated=  Sp-Floor 1 Locker Room Hall Sys-4 Flr-3 Sch-H HPlcmt-core ZN NECB System 4 PSZAvailability Manager Lis\n   **   ~~~   ** Will be processed as Alpha=SP-FLOOR 1 LOCKER ROOM HALL SYS-4 FLR-3 SCH-H HPLCMT-CORE ZN NECB SYSTEM 4 PSZAVAILABILITY MANAGER LIST\n   ************* IDF Context for following error/warning message:\n   ************* Note -- lines truncated at 300 characters, if necessary...\n   *************  52584 AvailabilityManagerAssignmentList,\n   ************* indicated Name=Sp-Floor 1 Locker Room Hall Sys-4 Flr-3 Sch-H HPlcmt-core ZN NECB System 4 PSZAvailability Manager List\n   ************* Only last 1 lines before error line shown.....\n   *************  52585   Sp-Floor 1 Locker Room Hall Sys-4 Flr-3 Sch-H HPlcmt-core ZN NECB System 4 PSZAvailability Manager List, !- Name\n   ** Warning ** IP: IDF line~52585 Alpha Argument length exceeds maximum, will be truncated=  Sp-Floor 1 Locker Room Hall Sys-4 Flr-3 Sch-H HPlcmt-core ZN NECB System 4 PSZAvailability Manager Lis\n   **   ~~~   ** Will be processed as Alpha=SP-FLOOR 1 LOCKER ROOM HALL SYS-4 FLR-3 SCH-H HPLCMT-CORE ZN NECB SYSTEM 4 PSZAVAILABILITY MANAGER LIST\n   ************* IDF Context for following error/warning message:\n   ************* Note -- lines truncated at 300 characters, if necessary...\n   *************  53503 AirLoopHVAC,\n   ************* indicated Name=Sp-Floor 1 MRI Control Room Sys-3 Flr-3 Sch-H HPlcmt-north ZN NECB System 3 PSZ\n   ************* Only last 3 lines before error line shown.....\n   *************  53504   Sp-Floor 1 MRI Control Room Sys-3 Flr-3 Sch-H HPlcmt-north ZN NECB System 3 PSZ, !- Name\n   *************  53505   ,                                       !- Controller List Name\n   *************  53506   Sp-Floor 1 MRI Control Room Sys-3 Flr-3 Sch-H HPlcmt-north ZN NECB System 3 PSZAvailability Manager List, !- Availability Manager List Name\n   ** Warning ** IP: IDF line~53506 Alpha Argument length exceeds maximum, will be truncated=  Sp-Floor 1 MRI Control Room Sys-3 Flr-3 Sch-H HPlcmt-north ZN NECB System 3 PSZAvailability Manager Lis\n   **   ~~~   ** Will be processed as Alpha=SP-FLOOR 1 MRI CONTROL ROOM SYS-3 FLR-3 SCH-H HPLCMT-NORTH ZN NECB SYSTEM 3 PSZAVAILABILITY MANAGER LIST\n   ************* IDF Context for following error/warning message:\n   ************* Note -- lines truncated at 300 characters, if necessary...\n   *************  53562 AvailabilityManagerAssignmentList,\n   ************* indicated Name=Sp-Floor 1 MRI Control Room Sys-3 Flr-3 Sch-H HPlcmt-north ZN NECB System 3 PSZAvailability Manager List\n   ************* Only last 1 lines before error line shown.....\n   *************  53563   Sp-Floor 1 MRI Control Room Sys-3 Flr-3 Sch-H HPlcmt-north ZN NECB System 3 PSZAvailability Manager List, !- Name\n   ** Warning ** IP: IDF line~53563 Alpha Argument length exceeds maximum, will be truncated=  Sp-Floor 1 MRI Control Room Sys-3 Flr-3 Sch-H HPlcmt-north ZN NECB System 3 PSZAvailability Manager Lis\n   **   ~~~   ** Will be processed as Alpha=SP-FLOOR 1 MRI CONTROL ROOM SYS-3 FLR-3 SCH-H HPLCMT-NORTH ZN NECB SYSTEM 3 PSZAVAILABILITY MANAGER LIST\n   ************* IDF Context for following error/warning message:\n   ************* Note -- lines truncated at 300 characters, if necessary...\n   *************  56111 AirLoopHVAC,\n   ************* indicated Name=Sp-Floor 1 Operating Room 1 Sys-3 Flr-3 Sch-H HPlcmt-east ZN NECB System 3 PSZ\n   ************* Only last 3 lines before error line shown.....\n   *************  56112   Sp-Floor 1 Operating Room 1 Sys-3 Flr-3 Sch-H HPlcmt-east ZN NECB System 3 PSZ, !- Name\n   *************  56113   ,                                       !- Controller List Name\n   *************  56114   Sp-Floor 1 Operating Room 1 Sys-3 Flr-3 Sch-H HPlcmt-east ZN NECB System 3 PSZAvailability Manager List, !- Availability Manager List Name\n   ** Warning ** IP: IDF line~56114 Alpha Argument length exceeds maximum, will be truncated=  Sp-Floor 1 Operating Room 1 Sys-3 Flr-3 Sch-H HPlcmt-east ZN NECB System 3 PSZAvailability Manager Lis\n   **   ~~~   ** Will be processed as Alpha=SP-FLOOR 1 OPERATING ROOM 1 SYS-3 FLR-3 SCH-H HPLCMT-EAST ZN NECB SYSTEM 3 PSZAVAILABILITY MANAGER LIST\n   ************* IDF Context for following error/warning message:\n   ************* Note -- lines truncated at 300 characters, if necessary...\n   *************  56170 AvailabilityManagerAssignmentList,\n   ************* indicated Name=Sp-Floor 1 Operating Room 1 Sys-3 Flr-3 Sch-H HPlcmt-east ZN NECB System 3 PSZAvailability Manager List\n   ************* Only last 1 lines before error line shown.....\n   *************  56171   Sp-Floor 1 Operating Room 1 Sys-3 Flr-3 Sch-H HPlcmt-east ZN NECB System 3 PSZAvailability Manager List, !- Name\n   ** Warning ** IP: IDF line~56171 Alpha Argument length exceeds maximum, will be truncated=  Sp-Floor 1 Operating Room 1 Sys-3 Flr-3 Sch-H HPlcmt-east ZN NECB System 3 PSZAvailability Manager Lis\n   **   ~~~   ** Will be processed as Alpha=SP-FLOOR 1 OPERATING ROOM 1 SYS-3 FLR-3 SCH-H HPLCMT-EAST ZN NECB SYSTEM 3 PSZAVAILABILITY MANAGER LIST\n   ************* IDF Context for following error/warning message:\n   ************* Note -- lines truncated at 300 characters, if necessary...\n   *************  56437 AirLoopHVAC,\n   ************* indicated Name=Sp-Floor 1 Operating Room 2 Sys-3 Flr-3 Sch-H HPlcmt-east ZN NECB System 3 PSZ\n   ************* Only last 3 lines before error line shown.....\n   *************  56438   Sp-Floor 1 Operating Room 2 Sys-3 Flr-3 Sch-H HPlcmt-east ZN NECB System 3 PSZ, !- Name\n   *************  56439   ,                                       !- Controller List Name\n   *************  56440   Sp-Floor 1 Operating Room 2 Sys-3 Flr-3 Sch-H HPlcmt-east ZN NECB System 3 PSZAvailability Manager List, !- Availability Manager List Name\n   ** Warning ** IP: IDF line~56440 Alpha Argument length exceeds maximum, will be truncated=  Sp-Floor 1 Operating Room 2 Sys-3 Flr-3 Sch-H HPlcmt-east ZN NECB System 3 PSZAvailability Manager Lis\n   **   ~~~   ** Will be processed as Alpha=SP-FLOOR 1 OPERATING ROOM 2 SYS-3 FLR-3 SCH-H HPLCMT-EAST ZN NECB SYSTEM 3 PSZAVAILABILITY MANAGER LIST\n   ************* IDF Context for following error/warning message:\n   ************* Note -- lines truncated at 300 characters, if necessary...\n   *************  56496 AvailabilityManagerAssignmentList,\n   ************* indicated Name=Sp-Floor 1 Operating Room 2 Sys-3 Flr-3 Sch-H HPlcmt-east ZN NECB System 3 PSZAvailability Manager List\n   ************* Only last 1 lines before error line shown.....\n   *************  56497   Sp-Floor 1 Operating Room 2 Sys-3 Flr-3 Sch-H HPlcmt-east ZN NECB System 3 PSZAvailability Manager List, !- Name\n   ** Warning ** IP: IDF line~56497 Alpha Argument length exceeds maximum, will be truncated=  Sp-Floor 1 Operating Room 2 Sys-3 Flr-3 Sch-H HPlcmt-east ZN NECB System 3 PSZAvailability Manager Lis\n   **   ~~~   ** Will be processed as Alpha=SP-FLOOR 1 OPERATING ROOM 2 SYS-3 FLR-3 SCH-H HPLCMT-EAST ZN NECB SYSTEM 3 PSZAVAILABILITY MANAGER LIST\n   ************* IDF Context for following error/warning message:\n   ************* Note -- lines truncated at 300 characters, if necessary...\n   *************  56763 AirLoopHVAC,\n   ************* indicated Name=Sp-Floor 1 Operating Room 3 Sys-3 Flr-3 Sch-H HPlcmt-core ZN NECB System 3 PSZ\n   ************* Only last 3 lines before error line shown.....\n   *************  56764   Sp-Floor 1 Operating Room 3 Sys-3 Flr-3 Sch-H HPlcmt-core ZN NECB System 3 PSZ, !- Name\n   *************  56765   ,                                       !- Controller List Name\n   *************  56766   Sp-Floor 1 Operating Room 3 Sys-3 Flr-3 Sch-H HPlcmt-core ZN NECB System 3 PSZAvailability Manager List, !- Availability Manager List Name\n   ** Warning ** IP: IDF line~56766 Alpha Argument length exceeds maximum, will be truncated=  Sp-Floor 1 Operating Room 3 Sys-3 Flr-3 Sch-H HPlcmt-core ZN NECB System 3 PSZAvailability Manager Lis\n   **   ~~~   ** Will be processed as Alpha=SP-FLOOR 1 OPERATING ROOM 3 SYS-3 FLR-3 SCH-H HPLCMT-CORE ZN NECB SYSTEM 3 PSZAVAILABILITY MANAGER LIST\n   ************* IDF Context for following error/warning message:\n   ************* Note -- lines truncated at 300 characters, if necessary...\n   *************  56822 AvailabilityManagerAssignmentList,\n   ************* indicated Name=Sp-Floor 1 Operating Room 3 Sys-3 Flr-3 Sch-H HPlcmt-core ZN NECB System 3 PSZAvailability Manager List\n   ************* Only last 1 lines before error line shown.....\n   *************  56823   Sp-Floor 1 Operating Room 3 Sys-3 Flr-3 Sch-H HPlcmt-core ZN NECB System 3 PSZAvailability Manager List, !- Name\n   ** Warning ** IP: IDF line~56823 Alpha Argument length exceeds maximum, will be truncated=  Sp-Floor 1 Operating Room 3 Sys-3 Flr-3 Sch-H HPlcmt-core ZN NECB System 3 PSZAvailability Manager Lis\n   **   ~~~   ** Will be processed as Alpha=SP-FLOOR 1 OPERATING ROOM 3 SYS-3 FLR-3 SCH-H HPLCMT-CORE ZN NECB SYSTEM 3 PSZAVAILABILITY MANAGER LIST\n   ************* IDF Context for following error/warning message:\n   ************* Note -- lines truncated at 300 characters, if necessary...\n   *************  58393 AirLoopHVAC,\n   ************* indicated Name=Sp-Floor 1 Procedure Room Sys-3 Flr-3 Sch-H HPlcmt-north ZN NECB System 3 PSZ\n   ************* Only last 3 lines before error line shown.....\n   *************  58394   Sp-Floor 1 Procedure Room Sys-3 Flr-3 Sch-H HPlcmt-north ZN NECB System 3 PSZ, !- Name\n   *************  58395   ,                                       !- Controller List Name\n   *************  58396   Sp-Floor 1 Procedure Room Sys-3 Flr-3 Sch-H HPlcmt-north ZN NECB System 3 PSZAvailability Manager List, !- Availability Manager List Name\n   ** Warning ** IP: IDF line~58396 Alpha Argument length exceeds maximum, will be truncated=  Sp-Floor 1 Procedure Room Sys-3 Flr-3 Sch-H HPlcmt-north ZN NECB System 3 PSZAvailability Manager Lis\n   **   ~~~   ** Will be processed as Alpha=SP-FLOOR 1 PROCEDURE ROOM SYS-3 FLR-3 SCH-H HPLCMT-NORTH ZN NECB SYSTEM 3 PSZAVAILABILITY MANAGER LIST\n   ************* IDF Context for following error/warning message:\n   ************* Note -- lines truncated at 300 characters, if necessary...\n   *************  58452 AvailabilityManagerAssignmentList,\n   ************* indicated Name=Sp-Floor 1 Procedure Room Sys-3 Flr-3 Sch-H HPlcmt-north ZN NECB System 3 PSZAvailability Manager List\n   ************* Only last 1 lines before error line shown.....\n   *************  58453   Sp-Floor 1 Procedure Room Sys-3 Flr-3 Sch-H HPlcmt-north ZN NECB System 3 PSZAvailability Manager List, !- Name\n   ** Warning ** IP: IDF line~58453 Alpha Argument length exceeds maximum, will be truncated=  Sp-Floor 1 Procedure Room Sys-3 Flr-3 Sch-H HPlcmt-north ZN NECB System 3 PSZAvailability Manager Lis\n   **   ~~~   ** Will be processed as Alpha=SP-FLOOR 1 PROCEDURE ROOM SYS-3 FLR-3 SCH-H HPLCMT-NORTH ZN NECB SYSTEM 3 PSZAVAILABILITY MANAGER LIST\n   ************* IDF Context for following error/warning message:\n   ************* Note -- lines truncated at 300 characters, if necessary...\n   *************  59045 AirLoopHVAC,\n   ************* indicated Name=Sp-Floor 1 Recovery Room Sys-3 Flr-3 Sch-H HPlcmt-south ZN NECB System 3 PSZ\n   ************* Only last 3 lines before error line shown.....\n   *************  59046   Sp-Floor 1 Recovery Room Sys-3 Flr-3 Sch-H HPlcmt-south ZN NECB System 3 PSZ, !- Name\n   *************  59047   ,                                       !- Controller List Name\n   *************  59048   Sp-Floor 1 Recovery Room Sys-3 Flr-3 Sch-H HPlcmt-south ZN NECB System 3 PSZAvailability Manager List, !- Availability Manager List Name\n   ** Warning ** IP: IDF line~59048 Alpha Argument length exceeds maximum, will be truncated=  Sp-Floor 1 Recovery Room Sys-3 Flr-3 Sch-H HPlcmt-south ZN NECB System 3 PSZAvailability Manager Lis\n   **   ~~~   ** Will be processed as Alpha=SP-FLOOR 1 RECOVERY ROOM SYS-3 FLR-3 SCH-H HPLCMT-SOUTH ZN NECB SYSTEM 3 PSZAVAILABILITY MANAGER LIST\n   ************* IDF Context for following error/warning message:\n   ************* Note -- lines truncated at 300 characters, if necessary...\n   *************  59104 AvailabilityManagerAssignmentList,\n   ************* indicated Name=Sp-Floor 1 Recovery Room Sys-3 Flr-3 Sch-H HPlcmt-south ZN NECB System 3 PSZAvailability Manager List\n   ************* Only last 1 lines before error line shown.....\n   *************  59105   Sp-Floor 1 Recovery Room Sys-3 Flr-3 Sch-H HPlcmt-south ZN NECB System 3 PSZAvailability Manager List, !- Name\n   ** Warning ** IP: IDF line~59105 Alpha Argument length exceeds maximum, will be truncated=  Sp-Floor 1 Recovery Room Sys-3 Flr-3 Sch-H HPlcmt-south ZN NECB System 3 PSZAvailability Manager Lis\n   **   ~~~   ** Will be processed as Alpha=SP-FLOOR 1 RECOVERY ROOM SYS-3 FLR-3 SCH-H HPLCMT-SOUTH ZN NECB SYSTEM 3 PSZAVAILABILITY MANAGER LIST\n   ************* IDF Context for following error/warning message:\n   ************* Note -- lines truncated at 300 characters, if necessary...\n   *************  61327 AirLoopHVAC,\n   ************* indicated Name=Sp-Floor 1 Sterile Storage Sys-4 Flr-3 Sch-E HPlcmt-core ZN NECB System 4 PSZ\n   ************* Only last 3 lines before error line shown.....\n   *************  61328   Sp-Floor 1 Sterile Storage Sys-4 Flr-3 Sch-E HPlcmt-core ZN NECB System 4 PSZ, !- Name\n   *************  61329   ,                                       !- Controller List Name\n   *************  61330   Sp-Floor 1 Sterile Storage Sys-4 Flr-3 Sch-E HPlcmt-core ZN NECB System 4 PSZAvailability Manager List, !- Availability Manager List Name\n   ** Warning ** IP: IDF line~61330 Alpha Argument length exceeds maximum, will be truncated=  Sp-Floor 1 Sterile Storage Sys-4 Flr-3 Sch-E HPlcmt-core ZN NECB System 4 PSZAvailability Manager Lis\n   **   ~~~   ** Will be processed as Alpha=SP-FLOOR 1 STERILE STORAGE SYS-4 FLR-3 SCH-E HPLCMT-CORE ZN NECB SYSTEM 4 PSZAVAILABILITY MANAGER LIST\n   ************* IDF Context for following error/warning message:\n   ************* Note -- lines truncated at 300 characters, if necessary...\n   *************  61386 AvailabilityManagerAssignmentList,\n   ************* indicated Name=Sp-Floor 1 Sterile Storage Sys-4 Flr-3 Sch-E HPlcmt-core ZN NECB System 4 PSZAvailability Manager List\n   ************* Only last 1 lines before error line shown.....\n   *************  61387   Sp-Floor 1 Sterile Storage Sys-4 Flr-3 Sch-E HPlcmt-core ZN NECB System 4 PSZAvailability Manager List, !- Name\n   ** Warning ** IP: IDF line~61387 Alpha Argument length exceeds maximum, will be truncated=  Sp-Floor 1 Sterile Storage Sys-4 Flr-3 Sch-E HPlcmt-core ZN NECB System 4 PSZAvailability Manager Lis\n   **   ~~~   ** Will be processed as Alpha=SP-FLOOR 1 STERILE STORAGE SYS-4 FLR-3 SCH-E HPLCMT-CORE ZN NECB SYSTEM 4 PSZAVAILABILITY MANAGER LIST\n   ************* IDF Context for following error/warning message:\n   ************* Note -- lines truncated at 300 characters, if necessary...\n   *************  62631 AirLoopHVAC,\n   ************* indicated Name=Sp-Floor 1 Utility Janitor Sys-4 Flr-3 Sch-E HPlcmt-core ZN NECB System 4 PSZ\n   ************* Only last 3 lines before error line shown.....\n   *************  62632   Sp-Floor 1 Utility Janitor Sys-4 Flr-3 Sch-E HPlcmt-core ZN NECB System 4 PSZ, !- Name\n   *************  62633   ,                                       !- Controller List Name\n   *************  62634   Sp-Floor 1 Utility Janitor Sys-4 Flr-3 Sch-E HPlcmt-core ZN NECB System 4 PSZAvailability Manager List, !- Availability Manager List Name\n   ** Warning ** IP: IDF line~62634 Alpha Argument length exceeds maximum, will be truncated=  Sp-Floor 1 Utility Janitor Sys-4 Flr-3 Sch-E HPlcmt-core ZN NECB System 4 PSZAvailability Manager Lis\n   **   ~~~   ** Will be processed as Alpha=SP-FLOOR 1 UTILITY JANITOR SYS-4 FLR-3 SCH-E HPLCMT-CORE ZN NECB SYSTEM 4 PSZAVAILABILITY MANAGER LIST\n   ************* IDF Context for following error/warning message:\n   ************* Note -- lines truncated at 300 characters, if necessary...\n   *************  62690 AvailabilityManagerAssignmentList,\n   ************* indicated Name=Sp-Floor 1 Utility Janitor Sys-4 Flr-3 Sch-E HPlcmt-core ZN NECB System 4 PSZAvailability Manager List\n   ************* Only last 1 lines before error line shown.....\n   *************  62691   Sp-Floor 1 Utility Janitor Sys-4 Flr-3 Sch-E HPlcmt-core ZN NECB System 4 PSZAvailability Manager List, !- Name\n   ** Warning ** IP: IDF line~62691 Alpha Argument length exceeds maximum, will be truncated=  Sp-Floor 1 Utility Janitor Sys-4 Flr-3 Sch-E HPlcmt-core ZN NECB System 4 PSZAvailability Manager Lis\n   **   ~~~   ** Will be processed as Alpha=SP-FLOOR 1 UTILITY JANITOR SYS-4 FLR-3 SCH-E HPLCMT-CORE ZN NECB SYSTEM 4 PSZAVAILABILITY MANAGER LIST\n   ************* IDF Context for following error/warning message:\n   ************* Note -- lines truncated at 300 characters, if necessary...\n   *************  63935 AirLoopHVAC,\n   ************* indicated Name=Sp-Floor 2 Conference Toilet Sys-4 Flr-1 Sch-H HPlcmt-core ZN NECB System 4 PSZ\n   ************* Only last 3 lines before error line shown.....\n   *************  63936   Sp-Floor 2 Conference Toilet Sys-4 Flr-1 Sch-H HPlcmt-core ZN NECB System 4 PSZ, !- Name\n   *************  63937   ,                                       !- Controller List Name\n   *************  63938   Sp-Floor 2 Conference Toilet Sys-4 Flr-1 Sch-H HPlcmt-core ZN NECB System 4 PSZAvailability Manager List, !- Availability Manager List Name\n   ** Warning ** IP: IDF line~63938 Alpha Argument length exceeds maximum, will be truncated=  Sp-Floor 2 Conference Toilet Sys-4 Flr-1 Sch-H HPlcmt-core ZN NECB System 4 PSZAvailability Manager Lis\n   **   ~~~   ** Will be processed as Alpha=SP-FLOOR 2 CONFERENCE TOILET SYS-4 FLR-1 SCH-H HPLCMT-CORE ZN NECB SYSTEM 4 PSZAVAILABILITY MANAGER LIST\n   ************* IDF Context for following error/warning message:\n   ************* Note -- lines truncated at 300 characters, if necessary...\n   *************  63994 AvailabilityManagerAssignmentList,\n   ************* indicated Name=Sp-Floor 2 Conference Toilet Sys-4 Flr-1 Sch-H HPlcmt-core ZN NECB System 4 PSZAvailability Manager List\n   ************* Only last 1 lines before error line shown.....\n   *************  63995   Sp-Floor 2 Conference Toilet Sys-4 Flr-1 Sch-H HPlcmt-core ZN NECB System 4 PSZAvailability Manager List, !- Name\n   ** Warning ** IP: IDF line~63995 Alpha Argument length exceeds maximum, will be truncated=  Sp-Floor 2 Conference Toilet Sys-4 Flr-1 Sch-H HPlcmt-core ZN NECB System 4 PSZAvailability Manager Lis\n   **   ~~~   ** Will be processed as Alpha=SP-FLOOR 2 CONFERENCE TOILET SYS-4 FLR-1 SCH-H HPLCMT-CORE ZN NECB SYSTEM 4 PSZAVAILABILITY MANAGER LIST\n   ************* IDF Context for following error/warning message:\n   ************* Note -- lines truncated at 300 characters, if necessary...\n   *************  69803 AirLoopHVAC,\n   ************* indicated Name=Sp-Floor 2 Nurse Station 1 Sys-3 Flr-1 Sch-H HPlcmt-core ZN NECB System 3 PSZ\n   ************* Only last 3 lines before error line shown.....\n   *************  69804   Sp-Floor 2 Nurse Station 1 Sys-3 Flr-1 Sch-H HPlcmt-core ZN NECB System 3 PSZ, !- Name\n   *************  69805   ,                                       !- Controller List Name\n   *************  69806   Sp-Floor 2 Nurse Station 1 Sys-3 Flr-1 Sch-H HPlcmt-core ZN NECB System 3 PSZAvailability Manager List, !- Availability Manager List Name\n   ** Warning ** IP: IDF line~69806 Alpha Argument length exceeds maximum, will be truncated=  Sp-Floor 2 Nurse Station 1 Sys-3 Flr-1 Sch-H HPlcmt-core ZN NECB System 3 PSZAvailability Manager Lis\n   **   ~~~   ** Will be processed as Alpha=SP-FLOOR 2 NURSE STATION 1 SYS-3 FLR-1 SCH-H HPLCMT-CORE ZN NECB SYSTEM 3 PSZAVAILABILITY MANAGER LIST\n   ************* IDF Context for following error/warning message:\n   ************* Note -- lines truncated at 300 characters, if necessary...\n   *************  69862 AvailabilityManagerAssignmentList,\n   ************* indicated Name=Sp-Floor 2 Nurse Station 1 Sys-3 Flr-1 Sch-H HPlcmt-core ZN NECB System 3 PSZAvailability Manager List\n   ************* Only last 1 lines before error line shown.....\n   *************  69863   Sp-Floor 2 Nurse Station 1 Sys-3 Flr-1 Sch-H HPlcmt-core ZN NECB System 3 PSZAvailability Manager List, !- Name\n   ** Warning ** IP: IDF line~69863 Alpha Argument length exceeds maximum, will be truncated=  Sp-Floor 2 Nurse Station 1 Sys-3 Flr-1 Sch-H HPlcmt-core ZN NECB System 3 PSZAvailability Manager Lis\n   **   ~~~   ** Will be processed as Alpha=SP-FLOOR 2 NURSE STATION 1 SYS-3 FLR-1 SCH-H HPLCMT-CORE ZN NECB SYSTEM 3 PSZAVAILABILITY MANAGER LIST\n   ************* IDF Context for following error/warning message:\n   ************* Note -- lines truncated at 300 characters, if necessary...\n   *************  70129 AirLoopHVAC,\n   ************* indicated Name=Sp-Floor 2 Nurse Station 2 Sys-3 Flr-1 Sch-H HPlcmt-core ZN NECB System 3 PSZ\n   ************* Only last 3 lines before error line shown.....\n   *************  70130   Sp-Floor 2 Nurse Station 2 Sys-3 Flr-1 Sch-H HPlcmt-core ZN NECB System 3 PSZ, !- Name\n   *************  70131   ,                                       !- Controller List Name\n   *************  70132   Sp-Floor 2 Nurse Station 2 Sys-3 Flr-1 Sch-H HPlcmt-core ZN NECB System 3 PSZAvailability Manager List, !- Availability Manager List Name\n   ** Warning ** IP: IDF line~70132 Alpha Argument length exceeds maximum, will be truncated=  Sp-Floor 2 Nurse Station 2 Sys-3 Flr-1 Sch-H HPlcmt-core ZN NECB System 3 PSZAvailability Manager Lis\n   **   ~~~   ** Will be processed as Alpha=SP-FLOOR 2 NURSE STATION 2 SYS-3 FLR-1 SCH-H HPLCMT-CORE ZN NECB SYSTEM 3 PSZAVAILABILITY MANAGER LIST\n   ************* IDF Context for following error/warning message:\n   ************* Note -- lines truncated at 300 characters, if necessary...\n   *************  70188 AvailabilityManagerAssignmentList,\n   ************* indicated Name=Sp-Floor 2 Nurse Station 2 Sys-3 Flr-1 Sch-H HPlcmt-core ZN NECB System 3 PSZAvailability Manager List\n   ************* Only last 1 lines before error line shown.....\n   *************  70189   Sp-Floor 2 Nurse Station 2 Sys-3 Flr-1 Sch-H HPlcmt-core ZN NECB System 3 PSZAvailability Manager List, !- Name\n   ** Warning ** IP: IDF line~70189 Alpha Argument length exceeds maximum, will be truncated=  Sp-Floor 2 Nurse Station 2 Sys-3 Flr-1 Sch-H HPlcmt-core ZN NECB System 3 PSZAvailability Manager Lis\n   **   ~~~   ** Will be processed as Alpha=SP-FLOOR 2 NURSE STATION 2 SYS-3 FLR-1 SCH-H HPLCMT-CORE ZN NECB SYSTEM 3 PSZAVAILABILITY MANAGER LIST\n   ************* IDF Context for following error/warning message:\n   ************* Note -- lines truncated at 300 characters, if necessary...\n   *************  70455 AirLoopHVAC,\n   ************* indicated Name=Sp-Floor 2 Reception Hall Sys-3 Flr-1 Sch-H HPlcmt-south ZN NECB System 3 PSZ\n   ************* Only last 3 lines before error line shown.....\n   *************  70456   Sp-Floor 2 Reception Hall Sys-3 Flr-1 Sch-H HPlcmt-south ZN NECB System 3 PSZ, !- Name\n   *************  70457   ,                                       !- Controller List Name\n   *************  70458   Sp-Floor 2 Reception Hall Sys-3 Flr-1 Sch-H HPlcmt-south ZN NECB System 3 PSZAvailability Manager List, !- Availability Manager List Name\n   ** Warning ** IP: IDF line~70458 Alpha Argument length exceeds maximum, will be truncated=  Sp-Floor 2 Reception Hall Sys-3 Flr-1 Sch-H HPlcmt-south ZN NECB System 3 PSZAvailability Manager Lis\n   **   ~~~   ** Will be processed as Alpha=SP-FLOOR 2 RECEPTION HALL SYS-3 FLR-1 SCH-H HPLCMT-SOUTH ZN NECB SYSTEM 3 PSZAVAILABILITY MANAGER LIST\n   ************* IDF Context for following error/warning message:\n   ************* Note -- lines truncated at 300 characters, if necessary...\n   *************  70514 AvailabilityManagerAssignmentList,\n   ************* indicated Name=Sp-Floor 2 Reception Hall Sys-3 Flr-1 Sch-H HPlcmt-south ZN NECB System 3 PSZAvailability Manager List\n   ************* Only last 1 lines before error line shown.....\n   *************  70515   Sp-Floor 2 Reception Hall Sys-3 Flr-1 Sch-H HPlcmt-south ZN NECB System 3 PSZAvailability Manager List, !- Name\n   ** Warning ** IP: IDF line~70515 Alpha Argument length exceeds maximum, will be truncated=  Sp-Floor 2 Reception Hall Sys-3 Flr-1 Sch-H HPlcmt-south ZN NECB System 3 PSZAvailability Manager Lis\n   **   ~~~   ** Will be processed as Alpha=SP-FLOOR 2 RECEPTION HALL SYS-3 FLR-1 SCH-H HPLCMT-SOUTH ZN NECB SYSTEM 3 PSZAVAILABILITY MANAGER LIST\n   ************* IDF Context for following error/warning message:\n   ************* Note -- lines truncated at 300 characters, if necessary...\n   *************  73715 AirLoopHVAC,\n   ************* indicated Name=Sp-Floor 3 Mechanical Hall Sys-3 Flr-2 Sch-H HPlcmt-core ZN NECB System 3 PSZ\n   ************* Only last 3 lines before error line shown.....\n   *************  73716   Sp-Floor 3 Mechanical Hall Sys-3 Flr-2 Sch-H HPlcmt-core ZN NECB System 3 PSZ, !- Name\n   *************  73717   ,                                       !- Controller List Name\n   *************  73718   Sp-Floor 3 Mechanical Hall Sys-3 Flr-2 Sch-H HPlcmt-core ZN NECB System 3 PSZAvailability Manager List, !- Availability Manager List Name\n   ** Warning ** IP: IDF line~73718 Alpha Argument length exceeds maximum, will be truncated=  Sp-Floor 3 Mechanical Hall Sys-3 Flr-2 Sch-H HPlcmt-core ZN NECB System 3 PSZAvailability Manager Lis\n   **   ~~~   ** Will be processed as Alpha=SP-FLOOR 3 MECHANICAL HALL SYS-3 FLR-2 SCH-H HPLCMT-CORE ZN NECB SYSTEM 3 PSZAVAILABILITY MANAGER LIST\n   ************* IDF Context for following error/warning message:\n   ************* Note -- lines truncated at 300 characters, if necessary...\n   *************  73774 AvailabilityManagerAssignmentList,\n   ************* indicated Name=Sp-Floor 3 Mechanical Hall Sys-3 Flr-2 Sch-H HPlcmt-core ZN NECB System 3 PSZAvailability Manager List\n   ************* Only last 1 lines before error line shown.....\n   *************  73775   Sp-Floor 3 Mechanical Hall Sys-3 Flr-2 Sch-H HPlcmt-core ZN NECB System 3 PSZAvailability Manager List, !- Name\n   ** Warning ** IP: IDF line~73775 Alpha Argument length exceeds maximum, will be truncated=  Sp-Floor 3 Mechanical Hall Sys-3 Flr-2 Sch-H HPlcmt-core ZN NECB System 3 PSZAvailability Manager Lis\n   **   ~~~   ** Will be processed as Alpha=SP-FLOOR 3 MECHANICAL HALL SYS-3 FLR-2 SCH-H HPLCMT-CORE ZN NECB SYSTEM 3 PSZAVAILABILITY MANAGER LIST\n   ************* IDF Context for following error/warning message:\n   ************* Note -- lines truncated at 300 characters, if necessary...\n   *************  74693 AirLoopHVAC,\n   ************* indicated Name=Sp-Floor 3 Physical Therapy 1 Sys-3 Flr-2 Sch-C HPlcmt-south ZN NECB System 3 PSZ\n   ************* Only last 3 lines before error line shown.....\n   *************  74694   Sp-Floor 3 Physical Therapy 1 Sys-3 Flr-2 Sch-C HPlcmt-south ZN NECB System 3 PSZ, !- Name\n   *************  74695   ,                                       !- Controller List Name\n   *************  74696   Sp-Floor 3 Physical Therapy 1 Sys-3 Flr-2 Sch-C HPlcmt-south ZN NECB System 3 PSZAvailability Manager List, !- Availability Manager List Name\n   ** Warning ** IP: IDF line~74696 Alpha Argument length exceeds maximum, will be truncated=  Sp-Floor 3 Physical Therapy 1 Sys-3 Flr-2 Sch-C HPlcmt-south ZN NECB System 3 PSZAvailability Manager Lis\n   **   ~~~   ** Will be processed as Alpha=SP-FLOOR 3 PHYSICAL THERAPY 1 SYS-3 FLR-2 SCH-C HPLCMT-SOUTH ZN NECB SYSTEM 3 PSZAVAILABILITY MANAGER LIST\n   ************* IDF Context for following error/warning message:\n   ************* Note -- lines truncated at 300 characters, if necessary...\n   *************  74693 AirLoopHVAC,\n   ************* indicated Name=Sp-Floor 3 Physical Therapy 1 Sys-3 Flr-2 Sch-C HPlcmt-south ZN NECB System 3 PSZ\n   ************* Only last 10 lines before error line shown.....\n   *************  74694   Sp-Floor 3 Physical Therapy 1 Sys-3 Flr-2 Sch-C HPlcmt-south ZN NECB System 3 PSZ, !- Name\n   *************  74695   ,                                       !- Controller List Name\n   *************  74696   Sp-Floor 3 Physical Therapy 1 Sys-3 Flr-2 Sch-C HPlcmt-south ZN NECB System 3 PSZAvailability Manager List, !- Availability Manager List Name\n   *************  74697   AutoSize,                               !- Design Supply Air Flow Rate {m3/s}\n   *************  74698   Sp-Floor 3 Physical Therapy 1 Sys-3 Flr-2 Sch-C HPlcmt-south ZN NECB System 3 PSZ Supply Branches, !- Branch List Name\n   *************  74699   ,                                       !- Connector List Name\n   *************  74700   Node 417,                               !- Supply Side Inlet Node Name\n   *************  74701   Node 420,                               !- Demand Side Outlet Node Name\n   *************  74702   Sp-Floor 3 Physical Therapy 1 Sys-3 Flr-2 Sch-C HPlcmt-south ZN NECB System 3 PSZ Demand Inlet Nodes, !- Demand Side Inlet Node Names\n   *************  74703   Sp-Floor 3 Physical Therapy 1 Sys-3 Flr-2 Sch-C HPlcmt-south ZN NECB System 3 PSZ Supply Outlet Nodes; !- Supply Side Outlet Node Names\n   ** Warning ** IP: IDF line~74703 Alpha Argument length exceeds maximum, will be truncated=  Sp-Floor 3 Physical Therapy 1 Sys-3 Flr-2 Sch-C HPlcmt-south ZN NECB System 3 PSZ Supply Outlet Node\n   **   ~~~   ** Will be processed as Alpha=SP-FLOOR 3 PHYSICAL THERAPY 1 SYS-3 FLR-2 SCH-C HPLCMT-SOUTH ZN NECB SYSTEM 3 PSZ SUPPLY OUTLET NODES\n   ************* IDF Context for following error/warning message:\n   ************* Note -- lines truncated at 300 characters, if necessary...\n   *************  74705 NodeList,\n   ************* indicated Name=Sp-Floor 3 Physical Therapy 1 Sys-3 Flr-2 Sch-C HPlcmt-south ZN NECB System 3 PSZ Supply Outlet Nodes\n   ************* Only last 1 lines before error line shown.....\n   *************  74706   Sp-Floor 3 Physical Therapy 1 Sys-3 Flr-2 Sch-C HPlcmt-south ZN NECB System 3 PSZ Supply Outlet Nodes, !- Name\n   ** Warning ** IP: IDF line~74706 Alpha Argument length exceeds maximum, will be truncated=  Sp-Floor 3 Physical Therapy 1 Sys-3 Flr-2 Sch-C HPlcmt-south ZN NECB System 3 PSZ Supply Outlet Node\n   **   ~~~   ** Will be processed as Alpha=SP-FLOOR 3 PHYSICAL THERAPY 1 SYS-3 FLR-2 SCH-C HPLCMT-SOUTH ZN NECB SYSTEM 3 PSZ SUPPLY OUTLET NODES\n   ************* IDF Context for following error/warning message:\n   ************* Note -- lines truncated at 300 characters, if necessary...\n   *************  74752 AvailabilityManagerAssignmentList,\n   ************* indicated Name=Sp-Floor 3 Physical Therapy 1 Sys-3 Flr-2 Sch-C HPlcmt-south ZN NECB System 3 PSZAvailability Manager List\n   ************* Only last 1 lines before error line shown.....\n   *************  74753   Sp-Floor 3 Physical Therapy 1 Sys-3 Flr-2 Sch-C HPlcmt-south ZN NECB System 3 PSZAvailability Manager List, !- Name\n   ** Warning ** IP: IDF line~74753 Alpha Argument length exceeds maximum, will be truncated=  Sp-Floor 3 Physical Therapy 1 Sys-3 Flr-2 Sch-C HPlcmt-south ZN NECB System 3 PSZAvailability Manager Lis\n   **   ~~~   ** Will be processed as Alpha=SP-FLOOR 3 PHYSICAL THERAPY 1 SYS-3 FLR-2 SCH-C HPLCMT-SOUTH ZN NECB SYSTEM 3 PSZAVAILABILITY MANAGER LIST\n   ************* IDF Context for following error/warning message:\n   ************* Note -- lines truncated at 300 characters, if necessary...\n   *************  75001 AirLoopHVAC:SupplyPath,\n   ************* indicated Name=Sp-Floor 3 Physical Therapy 1 Sys-3 Flr-2 Sch-C HPlcmt-south ZN NECB System 3 PSZ Node 419 Supply Path\n   ************* Only last 1 lines before error line shown.....\n   *************  75002   Sp-Floor 3 Physical Therapy 1 Sys-3 Flr-2 Sch-C HPlcmt-south ZN NECB System 3 PSZ Node 419 Supply Path, !- Name\n   ** Warning ** IP: IDF line~75002 Alpha Argument length exceeds maximum, will be truncated=  Sp-Floor 3 Physical Therapy 1 Sys-3 Flr-2 Sch-C HPlcmt-south ZN NECB System 3 PSZ Node 419 Supply Pat\n   **   ~~~   ** Will be processed as Alpha=SP-FLOOR 3 PHYSICAL THERAPY 1 SYS-3 FLR-2 SCH-C HPLCMT-SOUTH ZN NECB SYSTEM 3 PSZ NODE 419 SUPPLY PATH\n   ************* IDF Context for following error/warning message:\n   ************* Note -- lines truncated at 300 characters, if necessary...\n   *************  75023 AirLoopHVAC,\n   ************* indicated Name=Sp-Floor 3 Physical Therapy 2 Sys-3 Flr-2 Sch-C HPlcmt-core ZN NECB System 3 PSZ\n   ************* Only last 3 lines before error line shown.....\n   *************  75024   Sp-Floor 3 Physical Therapy 2 Sys-3 Flr-2 Sch-C HPlcmt-core ZN NECB System 3 PSZ, !- Name\n   *************  75025   ,                                       !- Controller List Name\n   *************  75026   Sp-Floor 3 Physical Therapy 2 Sys-3 Flr-2 Sch-C HPlcmt-core ZN NECB System 3 PSZAvailability Manager List, !- Availability Manager List Name\n   ** Warning ** IP: IDF line~75026 Alpha Argument length exceeds maximum, will be truncated=  Sp-Floor 3 Physical Therapy 2 Sys-3 Flr-2 Sch-C HPlcmt-core ZN NECB System 3 PSZAvailability Manager Lis\n   **   ~~~   ** Will be processed as Alpha=SP-FLOOR 3 PHYSICAL THERAPY 2 SYS-3 FLR-2 SCH-C HPLCMT-CORE ZN NECB SYSTEM 3 PSZAVAILABILITY MANAGER LIST\n   ************* IDF Context for following error/warning message:\n   ************* Note -- lines truncated at 300 characters, if necessary...\n   *************  75082 AvailabilityManagerAssignmentList,\n   ************* indicated Name=Sp-Floor 3 Physical Therapy 2 Sys-3 Flr-2 Sch-C HPlcmt-core ZN NECB System 3 PSZAvailability Manager List\n   ************* Only last 1 lines before error line shown.....\n   *************  75083   Sp-Floor 3 Physical Therapy 2 Sys-3 Flr-2 Sch-C HPlcmt-core ZN NECB System 3 PSZAvailability Manager List, !- Name\n   ** Warning ** IP: IDF line~75083 Alpha Argument length exceeds maximum, will be truncated=  Sp-Floor 3 Physical Therapy 2 Sys-3 Flr-2 Sch-C HPlcmt-core ZN NECB System 3 PSZAvailability Manager Lis\n   **   ~~~   ** Will be processed as Alpha=SP-FLOOR 3 PHYSICAL THERAPY 2 SYS-3 FLR-2 SCH-C HPLCMT-CORE ZN NECB SYSTEM 3 PSZAVAILABILITY MANAGER LIST\n   ************* IDF Context for following error/warning message:\n   ************* Note -- lines truncated at 300 characters, if necessary...\n   *************  75082 AvailabilityManagerAssignmentList,\n   ************* indicated Name=Sp-Floor 3 Physical Therapy 2 Sys-3 Flr-2 Sch-C HPlcmt-core ZN NECB System 3 PSZAvailability Manager List\n   ************* Only last 3 lines before error line shown.....\n   *************  75083   Sp-Floor 3 Physical Therapy 2 Sys-3 Flr-2 Sch-C HPlcmt-core ZN NECB System 3 PSZAvailability Manager List, !- Name\n   *************  75084   AvailabilityManager:Scheduled,          !- Availability Manager Object Type 1\n   *************  75085   Sp-Floor 3 Physical Therapy 2 Sys-3 Flr-2 Sch-C HPlcmt-core ZN NECB System 3 PSZ Availability Manager; !- Availability Manager Name 1\n   ** Warning ** IP: IDF line~75085 Alpha Argument length exceeds maximum, will be truncated=  Sp-Floor 3 Physical Therapy 2 Sys-3 Flr-2 Sch-C HPlcmt-core ZN NECB System 3 PSZ Availability Manage\n   **   ~~~   ** Will be processed as Alpha=SP-FLOOR 3 PHYSICAL THERAPY 2 SYS-3 FLR-2 SCH-C HPLCMT-CORE ZN NECB SYSTEM 3 PSZ AVAILABILITY MANAGER\n   ************* IDF Context for following error/warning message:\n   ************* Note -- lines truncated at 300 characters, if necessary...\n   *************  75087 AvailabilityManager:Scheduled,\n   ************* indicated Name=Sp-Floor 3 Physical Therapy 2 Sys-3 Flr-2 Sch-C HPlcmt-core ZN NECB System 3 PSZ Availability Manager\n   ************* Only last 1 lines before error line shown.....\n   *************  75088   Sp-Floor 3 Physical Therapy 2 Sys-3 Flr-2 Sch-C HPlcmt-core ZN NECB System 3 PSZ Availability Manager, !- Name\n   ** Warning ** IP: IDF line~75088 Alpha Argument length exceeds maximum, will be truncated=  Sp-Floor 3 Physical Therapy 2 Sys-3 Flr-2 Sch-C HPlcmt-core ZN NECB System 3 PSZ Availability Manage\n   **   ~~~   ** Will be processed as Alpha=SP-FLOOR 3 PHYSICAL THERAPY 2 SYS-3 FLR-2 SCH-C HPLCMT-CORE ZN NECB SYSTEM 3 PSZ AVAILABILITY MANAGER\n   ************* IDF Context for following error/warning message:\n   ************* Note -- lines truncated at 300 characters, if necessary...\n   *************  75327 AirLoopHVAC:SupplyPath,\n   ************* indicated Name=Sp-Floor 3 Physical Therapy 2 Sys-3 Flr-2 Sch-C HPlcmt-core ZN NECB System 3 PSZ Node 432 Supply Path\n   ************* Only last 1 lines before error line shown.....\n   *************  75328   Sp-Floor 3 Physical Therapy 2 Sys-3 Flr-2 Sch-C HPlcmt-core ZN NECB System 3 PSZ Node 432 Supply Path, !- Name\n   ** Warning ** IP: IDF line~75328 Alpha Argument length exceeds maximum, will be truncated=  Sp-Floor 3 Physical Therapy 2 Sys-3 Flr-2 Sch-C HPlcmt-core ZN NECB System 3 PSZ Node 432 Supply Pat\n   **   ~~~   ** Will be processed as Alpha=SP-FLOOR 3 PHYSICAL THERAPY 2 SYS-3 FLR-2 SCH-C HPLCMT-CORE ZN NECB SYSTEM 3 PSZ NODE 432 SUPPLY PATH\n   ************* IDF Context for following error/warning message:\n   ************* Note -- lines truncated at 300 characters, if necessary...\n   *************  76327 AirLoopHVAC,\n   ************* indicated Name=Sp-Floor 3 Undeveloped 1 Sys-4 Flr-2 Sch-E HPlcmt-south ZN NECB System 4 PSZ\n   ************* Only last 3 lines before error line shown.....\n   *************  76328   Sp-Floor 3 Undeveloped 1 Sys-4 Flr-2 Sch-E HPlcmt-south ZN NECB System 4 PSZ, !- Name\n   *************  76329   ,                                       !- Controller List Name\n   *************  76330   Sp-Floor 3 Undeveloped 1 Sys-4 Flr-2 Sch-E HPlcmt-south ZN NECB System 4 PSZAvailability Manager List, !- Availability Manager List Name\n   ** Warning ** IP: IDF line~76330 Alpha Argument length exceeds maximum, will be truncated=  Sp-Floor 3 Undeveloped 1 Sys-4 Flr-2 Sch-E HPlcmt-south ZN NECB System 4 PSZAvailability Manager Lis\n   **   ~~~   ** Will be processed as Alpha=SP-FLOOR 3 UNDEVELOPED 1 SYS-4 FLR-2 SCH-E HPLCMT-SOUTH ZN NECB SYSTEM 4 PSZAVAILABILITY MANAGER LIST\n   ************* IDF Context for following error/warning message:\n   ************* Note -- lines truncated at 300 characters, if necessary...\n   *************  76386 AvailabilityManagerAssignmentList,\n   ************* indicated Name=Sp-Floor 3 Undeveloped 1 Sys-4 Flr-2 Sch-E HPlcmt-south ZN NECB System 4 PSZAvailability Manager List\n   ************* Only last 1 lines before error line shown.....\n   *************  76387   Sp-Floor 3 Undeveloped 1 Sys-4 Flr-2 Sch-E HPlcmt-south ZN NECB System 4 PSZAvailability Manager List, !- Name\n   ** Warning ** IP: IDF line~76387 Alpha Argument length exceeds maximum, will be truncated=  Sp-Floor 3 Undeveloped 1 Sys-4 Flr-2 Sch-E HPlcmt-south ZN NECB System 4 PSZAvailability Manager Lis\n   **   ~~~   ** Will be processed as Alpha=SP-FLOOR 3 UNDEVELOPED 1 SYS-4 FLR-2 SCH-E HPLCMT-SOUTH ZN NECB SYSTEM 4 PSZAVAILABILITY MANAGER LIST\n   ************* IDF Context for following error/warning message:\n   ************* Note -- lines truncated at 300 characters, if necessary...\n   *************  76657 AirLoopHVAC,\n   ************* indicated Name=Sp-Floor 3 Undeveloped 2 Sys-4 Flr-2 Sch-E HPlcmt-south ZN NECB System 4 PSZ\n   ************* Only last 3 lines before error line shown.....\n   *************  76658   Sp-Floor 3 Undeveloped 2 Sys-4 Flr-2 Sch-E HPlcmt-south ZN NECB System 4 PSZ, !- Name\n   *************  76659   ,                                       !- Controller List Name\n   *************  76660   Sp-Floor 3 Undeveloped 2 Sys-4 Flr-2 Sch-E HPlcmt-south ZN NECB System 4 PSZAvailability Manager List, !- Availability Manager List Name\n   ** Warning ** IP: IDF line~76660 Alpha Argument length exceeds maximum, will be truncated=  Sp-Floor 3 Undeveloped 2 Sys-4 Flr-2 Sch-E HPlcmt-south ZN NECB System 4 PSZAvailability Manager Lis\n   **   ~~~   ** Will be processed as Alpha=SP-FLOOR 3 UNDEVELOPED 2 SYS-4 FLR-2 SCH-E HPLCMT-SOUTH ZN NECB SYSTEM 4 PSZAVAILABILITY MANAGER LIST\n   ************* IDF Context for following error/warning message:\n   ************* Note -- lines truncated at 300 characters, if necessary...\n   *************  76716 AvailabilityManagerAssignmentList,\n   ************* indicated Name=Sp-Floor 3 Undeveloped 2 Sys-4 Flr-2 Sch-E HPlcmt-south ZN NECB System 4 PSZAvailability Manager List\n   ************* Only last 1 lines before error line shown.....\n   *************  76717   Sp-Floor 3 Undeveloped 2 Sys-4 Flr-2 Sch-E HPlcmt-south ZN NECB System 4 PSZAvailability Manager List, !- Name\n   ** Warning ** IP: IDF line~76717 Alpha Argument length exceeds maximum, will be truncated=  Sp-Floor 3 Undeveloped 2 Sys-4 Flr-2 Sch-E HPlcmt-south ZN NECB System 4 PSZAvailability Manager Lis\n   **   ~~~   ** Will be processed as Alpha=SP-FLOOR 3 UNDEVELOPED 2 SYS-4 FLR-2 SCH-E HPLCMT-SOUTH ZN NECB SYSTEM 4 PSZAVAILABILITY MANAGER LIST\n   ************* Beginning Zone Sizing Calculations\n   ** Warning ** ProcessScheduleInput: Schedule:Day:Interval=\"ECONOMIZER MAX OA FRACTION 100 PCT DEFAULT\", Blank Schedule Type Limits Name input -- will not be validated.\n   ** Warning ** ProcessScheduleInput: Schedule:Day:Interval=\"SCHEDULE DAY 1\", Blank Schedule Type Limits Name input -- will not be validated.\n   ** Warning ** ProcessScheduleInput: Schedule:Day:Interval=\"SCHEDULE DAY 10\", Blank Schedule Type Limits Name input -- will not be validated.\n   ** Warning ** ProcessScheduleInput: Schedule:Day:Interval=\"SCHEDULE DAY 100\", Blank Schedule Type Limits Name input -- will not be validated.\n   ** Warning ** ProcessScheduleInput: Schedule:Day:Interval=\"SCHEDULE DAY 101\", Blank Schedule Type Limits Name input -- will not be validated.\n   ** Warning ** ProcessScheduleInput: Schedule:Day:Interval=\"SCHEDULE DAY 102\", Blank Schedule Type Limits Name input -- will not be validated.\n   ** Warning ** ProcessScheduleInput: Schedule:Day:Interval=\"SCHEDULE DAY 103\", Blank Schedule Type Limits Name input -- will not be validated.\n   ** Warning ** ProcessScheduleInput: Schedule:Day:Interval=\"SCHEDULE DAY 104\", Blank Schedule Type Limits Name input -- will not be validated.\n   ** Warning ** ProcessScheduleInput: Schedule:Day:Interval=\"SCHEDULE DAY 105\", Blank Schedule Type Limits Name input -- will not be validated.\n   ** Warning ** ProcessScheduleInput: Schedule:Day:Interval=\"SCHEDULE DAY 106\", Blank Schedule Type Limits Name input -- will not be validated.\n   ** Warning ** ProcessScheduleInput: Schedule:Day:Interval=\"SCHEDULE DAY 107\", Blank Schedule Type Limits Name input -- will not be validated.\n   ** Warning ** ProcessScheduleInput: Schedule:Day:Interval=\"SCHEDULE DAY 108\", Blank Schedule Type Limits Name input -- will not be validated.\n   ** Warning ** ProcessScheduleInput: Schedule:Day:Interval=\"SCHEDULE DAY 109\", Blank Schedule Type Limits Name input -- will not be validated.\n   ** Warning ** ProcessScheduleInput: Schedule:Day:Interval=\"SCHEDULE DAY 11\", Blank Schedule Type Limits Name input -- will not be validated.\n   ** Warning ** ProcessScheduleInput: Schedule:Day:Interval=\"SCHEDULE DAY 110\", Blank Schedule Type Limits Name input -- will not be validated.\n   ** Warning ** ProcessScheduleInput: Schedule:Day:Interval=\"SCHEDULE DAY 111\", Blank Schedule Type Limits Name input -- will not be validated.\n   ** Warning ** ProcessScheduleInput: Schedule:Day:Interval=\"SCHEDULE DAY 112\", Blank Schedule Type Limits Name input -- will not be validated.\n   ** Warning ** ProcessScheduleInput: Schedule:Day:Interval=\"SCHEDULE DAY 113\", Blank Schedule Type Limits Name input -- will not be validated.\n   ** Warning ** ProcessScheduleInput: Schedule:Day:Interval=\"SCHEDULE DAY 114\", Blank Schedule Type Limits Name input -- will not be validated.\n   ** Warning ** ProcessScheduleInput: Schedule:Day:Interval=\"SCHEDULE DAY 115\", Blank Schedule Type Limits Name input -- will not be validated.\n   ** Warning ** ProcessScheduleInput: Schedule:Day:Interval=\"SCHEDULE DAY 116\", Blank Schedule Type Limits Name input -- will not be validated.\n   ** Warning ** ProcessScheduleInput: Schedule:Day:Interval=\"SCHEDULE DAY 117\", Blank Schedule Type Limits Name input -- will not be validated.\n   ** Warning ** ProcessScheduleInput: Schedule:Day:Interval=\"SCHEDULE DAY 118\", Blank Schedule Type Limits Name input -- will not be validated.\n   ** Warning ** ProcessScheduleInput: Schedule:Day:Interval=\"SCHEDULE DAY 119\", Blank Schedule Type Limits Name input -- will not be validated.\n   ** Warning ** ProcessScheduleInput: Schedule:Day:Interval=\"SCHEDULE DAY 12\", Blank Schedule Type Limits Name input -- will not be validated.\n   ** Warning ** ProcessScheduleInput: Schedule:Day:Interval=\"SCHEDULE DAY 120\", Blank Schedule Type Limits Name input -- will not be validated.\n   ** Warning ** ProcessScheduleInput: Schedule:Day:Interval=\"SCHEDULE DAY 121\", Blank Schedule Type Limits Name input -- will not be validated.\n   ** Warning ** ProcessScheduleInput: Schedule:Day:Interval=\"SCHEDULE DAY 122\", Blank Schedule Type Limits Name input -- will not be validated.\n   ** Warning ** ProcessScheduleInput: Schedule:Day:Interval=\"SCHEDULE DAY 123\", Blank Schedule Type Limits Name input -- will not be validated.\n   ** Warning ** ProcessScheduleInput: Schedule:Day:Interval=\"SCHEDULE DAY 124\", Blank Schedule Type Limits Name input -- will not be validated.\n   ** Warning ** ProcessScheduleInput: Schedule:Day:Interval=\"SCHEDULE DAY 125\", Blank Schedule Type Limits Name input -- will not be validated.\n   ** Warning ** ProcessScheduleInput: Schedule:Day:Interval=\"SCHEDULE DAY 126\", Blank Schedule Type Limits Name input -- will not be validated.\n   ** Warning ** ProcessScheduleInput: Schedule:Day:Interval=\"SCHEDULE DAY 127\", Blank Schedule Type Limits Name input -- will not be validated.\n   ** Warning ** ProcessScheduleInput: Schedule:Day:Interval=\"SCHEDULE DAY 128\", Blank Schedule Type Limits Name input -- will not be validated.\n   ** Warning ** ProcessScheduleInput: Schedule:Day:Interval=\"SCHEDULE DAY 129\", Blank Schedule Type Limits Name input -- will not be validated.\n   ** Warning ** ProcessScheduleInput: Schedule:Day:Interval=\"SCHEDULE DAY 13\", Blank Schedule Type Limits Name input -- will not be validated.\n   ** Warning ** ProcessScheduleInput: Schedule:Day:Interval=\"SCHEDULE DAY 130\", Blank Schedule Type Limits Name input -- will not be validated.\n   ** Warning ** ProcessScheduleInput: Schedule:Day:Interval=\"SCHEDULE DAY 131\", Blank Schedule Type Limits Name input -- will not be validated.\n   ** Warning ** ProcessScheduleInput: Schedule:Day:Interval=\"SCHEDULE DAY 132\", Blank Schedule Type Limits Name input -- will not be validated.\n   ** Warning ** ProcessScheduleInput: Schedule:Day:Interval=\"SCHEDULE DAY 133\", Blank Schedule Type Limits Name input -- will not be validated.\n   ** Warning ** ProcessScheduleInput: Schedule:Day:Interval=\"SCHEDULE DAY 134\", Blank Schedule Type Limits Name input -- will not be validated.\n   ** Warning ** ProcessScheduleInput: Schedule:Day:Interval=\"SCHEDULE DAY 135\", Blank Schedule Type Limits Name input -- will not be validated.\n   ** Warning ** ProcessScheduleInput: Schedule:Day:Interval=\"SCHEDULE DAY 136\", Blank Schedule Type Limits Name input -- will not be validated.\n   ** Warning ** ProcessScheduleInput: Schedule:Day:Interval=\"SCHEDULE DAY 137\", Blank Schedule Type Limits Name input -- will not be validated.\n   ** Warning ** ProcessScheduleInput: Schedule:Day:Interval=\"SCHEDULE DAY 138\", Blank Schedule Type Limits Name input -- will not be validated.\n   ** Warning ** ProcessScheduleInput: Schedule:Day:Interval=\"SCHEDULE DAY 139\", Blank Schedule Type Limits Name input -- will not be validated.\n   ** Warning ** ProcessScheduleInput: Schedule:Day:Interval=\"SCHEDULE DAY 14\", Blank Schedule Type Limits Name input -- will not be validated.\n   ** Warning ** ProcessScheduleInput: Schedule:Day:Interval=\"SCHEDULE DAY 140\", Blank Schedule Type Limits Name input -- will not be validated.\n   ** Warning ** ProcessScheduleInput: Schedule:Day:Interval=\"SCHEDULE DAY 141\", Blank Schedule Type Limits Name input -- will not be validated.\n   ** Warning ** ProcessScheduleInput: Schedule:Day:Interval=\"SCHEDULE DAY 142\", Blank Schedule Type Limits Name input -- will not be validated.\n   ** Warning ** ProcessScheduleInput: Schedule:Day:Interval=\"SCHEDULE DAY 143\", Blank Schedule Type Limits Name input -- will not be validated.\n   ** Warning ** ProcessScheduleInput: Schedule:Day:Interval=\"SCHEDULE DAY 144\", Blank Schedule Type Limits Name input -- will not be validated.\n   ** Warning ** ProcessScheduleInput: Schedule:Day:Interval=\"SCHEDULE DAY 145\", Blank Schedule Type Limits Name input -- will not be validated.\n   ** Warning ** ProcessScheduleInput: Schedule:Day:Interval=\"SCHEDULE DAY 146\", Blank Schedule Type Limits Name input -- will not be validated.\n   ** Warning ** ProcessScheduleInput: Schedule:Day:Interval=\"SCHEDULE DAY 147\", Blank Schedule Type Limits Name input -- will not be validated.\n   ** Warning ** ProcessScheduleInput: Schedule:Day:Interval=\"SCHEDULE DAY 148\", Blank Schedule Type Limits Name input -- will not be validated.\n   ** Warning ** ProcessScheduleInput: Schedule:Day:Interval=\"SCHEDULE DAY 149\", Blank Schedule Type Limits Name input -- will not be validated.\n   ** Warning ** ProcessScheduleInput: Schedule:Day:Interval=\"SCHEDULE DAY 15\", Blank Schedule Type Limits Name input -- will not be validated.\n   ** Warning ** ProcessScheduleInput: Schedule:Day:Interval=\"SCHEDULE DAY 150\", Blank Schedule Type Limits Name input -- will not be validated.\n   ** Warning ** ProcessScheduleInput: Schedule:Day:Interval=\"SCHEDULE DAY 151\", Blank Schedule Type Limits Name input -- will not be validated.\n   ** Warning ** ProcessScheduleInput: Schedule:Day:Interval=\"SCHEDULE DAY 152\", Blank Schedule Type Limits Name input -- will not be validated.\n   ** Warning ** ProcessScheduleInput: Schedule:Day:Interval=\"SCHEDULE DAY 153\", Blank Schedule Type Limits Name input -- will not be validated.\n   ** Warning ** ProcessScheduleInput: Schedule:Day:Interval=\"SCHEDULE DAY 154\", Blank Schedule Type Limits Name input -- will not be validated.\n   ** Warning ** ProcessScheduleInput: Schedule:Day:Interval=\"SCHEDULE DAY 155\", Blank Schedule Type Limits Name input -- will not be validated.\n   ** Warning ** ProcessScheduleInput: Schedule:Day:Interval=\"SCHEDULE DAY 156\", Blank Schedule Type Limits Name input -- will not be validated.\n   ** Warning ** ProcessScheduleInput: Schedule:Day:Interval=\"SCHEDULE DAY 157\", Blank Schedule Type Limits Name input -- will not be validated.\n   ** Warning ** ProcessScheduleInput: Schedule:Day:Interval=\"SCHEDULE DAY 158\", Blank Schedule Type Limits Name input -- will not be validated.\n   ** Warning ** ProcessScheduleInput: Schedule:Day:Interval=\"SCHEDULE DAY 159\", Blank Schedule Type Limits Name input -- will not be validated.\n   ** Warning ** ProcessScheduleInput: Schedule:Day:Interval=\"SCHEDULE DAY 16\", Blank Schedule Type Limits Name input -- will not be validated.\n   ** Warning ** ProcessScheduleInput: Schedule:Day:Interval=\"SCHEDULE DAY 160\", Blank Schedule Type Limits Name input -- will not be validated.\n   ** Warning ** ProcessScheduleInput: Schedule:Day:Interval=\"SCHEDULE DAY 161\", Blank Schedule Type Limits Name input -- will not be validated.\n   ** Warning ** ProcessScheduleInput: Schedule:Day:Interval=\"SCHEDULE DAY 162\", Blank Schedule Type Limits Name input -- will not be validated.\n   ** Warning ** ProcessScheduleInput: Schedule:Day:Interval=\"SCHEDULE DAY 163\", Blank Schedule Type Limits Name input -- will not be validated.\n   ** Warning ** ProcessScheduleInput: Schedule:Day:Interval=\"SCHEDULE DAY 164\", Blank Schedule Type Limits Name input -- will not be validated.\n   ** Warning ** ProcessScheduleInput: Schedule:Day:Interval=\"SCHEDULE DAY 165\", Blank Schedule Type Limits Name input -- will not be validated.\n   ** Warning ** ProcessScheduleInput: Schedule:Day:Interval=\"SCHEDULE DAY 166\", Blank Schedule Type Limits Name input -- will not be validated.\n   ** Warning ** ProcessScheduleInput: Schedule:Day:Interval=\"SCHEDULE DAY 167\", Blank Schedule Type Limits Name input -- will not be validated.\n   ** Warning ** ProcessScheduleInput: Schedule:Day:Interval=\"SCHEDULE DAY 168\", Blank Schedule Type Limits Name input -- will not be validated.\n   ** Warning ** ProcessScheduleInput: Schedule:Day:Interval=\"SCHEDULE DAY 169\", Blank Schedule Type Limits Name input -- will not be validated.\n   ** Warning ** ProcessScheduleInput: Schedule:Day:Interval=\"SCHEDULE DAY 17\", Blank Schedule Type Limits Name input -- will not be validated.\n   ** Warning ** ProcessScheduleInput: Schedule:Day:Interval=\"SCHEDULE DAY 170\", Blank Schedule Type Limits Name input -- will not be validated.\n   ** Warning ** ProcessScheduleInput: Schedule:Day:Interval=\"SCHEDULE DAY 171\", Blank Schedule Type Limits Name input -- will not be validated.\n   ** Warning ** ProcessScheduleInput: Schedule:Day:Interval=\"SCHEDULE DAY 172\", Blank Schedule Type Limits Name input -- will not be validated.\n   ** Warning ** ProcessScheduleInput: Schedule:Day:Interval=\"SCHEDULE DAY 173\", Blank Schedule Type Limits Name input -- will not be validated.\n   ** Warning ** ProcessScheduleInput: Schedule:Day:Interval=\"SCHEDULE DAY 174\", Blank Schedule Type Limits Name input -- will not be validated.\n   ** Warning ** ProcessScheduleInput: Schedule:Day:Interval=\"SCHEDULE DAY 175\", Blank Schedule Type Limits Name input -- will not be validated.\n   ** Warning ** ProcessScheduleInput: Schedule:Day:Interval=\"SCHEDULE DAY 176\", Blank Schedule Type Limits Name input -- will not be validated.\n   ** Warning ** ProcessScheduleInput: Schedule:Day:Interval=\"SCHEDULE DAY 177\", Blank Schedule Type Limits Name input -- will not be validated.\n   ** Warning ** ProcessScheduleInput: Schedule:Day:Interval=\"SCHEDULE DAY 178\", Blank Schedule Type Limits Name input -- will not be validated.\n   ** Warning ** ProcessScheduleInput: Schedule:Day:Interval=\"SCHEDULE DAY 179\", Blank Schedule Type Limits Name input -- will not be validated.\n   ** Warning ** ProcessScheduleInput: Schedule:Day:Interval=\"SCHEDULE DAY 18\", Blank Schedule Type Limits Name input -- will not be validated.\n   ** Warning ** ProcessScheduleInput: Schedule:Day:Interval=\"SCHEDULE DAY 180\", Blank Schedule Type Limits Name input -- will not be validated.\n   ** Warning ** ProcessScheduleInput: Schedule:Day:Interval=\"SCHEDULE DAY 181\", Blank Schedule Type Limits Name input -- will not be validated.\n   ** Warning ** ProcessScheduleInput: Schedule:Day:Interval=\"SCHEDULE DAY 182\", Blank Schedule Type Limits Name input -- will not be validated.\n   ** Warning ** ProcessScheduleInput: Schedule:Day:Interval=\"SCHEDULE DAY 183\", Blank Schedule Type Limits Name input -- will not be validated.\n   ** Warning ** ProcessScheduleInput: Schedule:Day:Interval=\"SCHEDULE DAY 184\", Blank Schedule Type Limits Name input -- will not be validated.\n   ** Warning ** ProcessScheduleInput: Schedule:Day:Interval=\"SCHEDULE DAY 185\", Blank Schedule Type Limits Name input -- will not be validated.\n   ** Warning ** ProcessScheduleInput: Schedule:Day:Interval=\"SCHEDULE DAY 186\", Blank Schedule Type Limits Name input -- will not be validated.\n   ** Warning ** ProcessScheduleInput: Schedule:Day:Interva
[...]
fz/iyzfz5/3e5+fXz6vely9fP3/R+8Nfz1/+ePN8fnl790v5z7/0/vLZi9/VT7uZ/VhHfPmfvS9evqyf+5sPcr/m3344f3l9dnXzf8Ln/PbD07Of3v9w+DNx2F1W7+z044OX9Rl4cfe2nZxdzK6/rcb9g97izfz44PRsfnV+8uajs4vzu8eef3d++fIf/3YQA96lvn0NvZs3V3c/X7+fH/5w8tPJ2z/N/mS9fjq5rvva+7h3evbj1fns6GL285c/vTo8+Of3QD7rDY6PF//n0QNY556e3JzcBX/9XwfnJ9/Nzg8+OjidfX9ye37Tu7q+/P7sfHbw7O0j3/5y8FE6On528NPJ+e1s+b9f1tepu5+5u/S8ePHZZwe/PtsopzLl9E05A1PO0JQzMuWMTTkTU87UlJOOXUGuRidXpZOr08lV6uRqdXLVOrl6nVzFTq5mV65mV7ZrtavZlavZVatm9+a3P/7Y+IerN5po17PTFjHhe9QuJnyH2sWE70+7mPDct4sJT327mPDMt4sJT3y7mPC8t4uJB1nLHFOP4zHWMsfU5HiItcwxdTkeYS1zTG2OB1jLHFOf4/HVMsd1XTb1OZ5dLXM27/PPZxc37cfWd/UfbZ4Tvj0tc8K3p2VO+Pa0zAmPe8uc8Li3zAmPe8uc8Li3zAmPe8uceH61DXI1Op5gbYNcnY5nWNsgV6vjKdY2yNXreI61DXI1O55kbYNs12pXs+Nh1jZo82av/ibj0X9pOBpzx43/R+/tP0Vs2KLa/hb97W8x2P4Ww+1vMdr+FuPtbzHZ/hbT7W/RmOzb2mMH5zvt4ICnHZzwtIMjnnZwxtMODnnawSlPOzjmaQfnvNrBOa92Mcd3cM6rHZzzquycP/oPOm52W/X2X3w0bBH/NmxbxL8M2xbx78K2RXzJtW0RX3FtW8QXXNsW8fXWtkV8ubVtkfmba98e8V/9+faI/1bQt0f8F4a+PXZwxDO3Vb49dnDIM7dVvj12cMwzt1W++RffVvn22MUc38Egz9xW+fYoO+eP/rtZm91Wvf2HtQxbxL8N2xbxL8O2Rfy7sG0RX3JtW8RXXNsW8QXXtkV8vbVtEX82yrZF5rbKt0d8W+XbI76t8u0R31b59og/ouXbI/5com+P+COLvj3iTzP69og/6OjbYwfnPHNb5dtjF3N8B4M8c1vl26NslD/6z5Nsdlv19t8vMWwR/zZsW8S/DNsW8e/CtkV8W2XbIr6tsm0R31bZtohvq2xbxJdb2xaZ2yrfHvFtlW+P+LbKt0d8W+XbI76t8u0R31b59ohvq3x7xLdVvj3i2yrfHjs455nbKt8eu5jjOxjkmdsq3x5lo/xRC/xmt1VvNfGGLeLfhm2L+Jdh2yL+Xdi2iG+rbFvEt1W2LeLbKtsW8W2VbYv4cmvbInNb5dsjvq3y7RHfVvn2iG+rfHvEt1W+PeLbKt8e8W2Vb4/4tsq3R3xb5dtjB+c8c1vl22MXc3wHgzxzW+Xbo2yUPyrb3ey26q2N17BF/NuwbRH/MmxbxL8L2xbxbZVti/i2yrZFfFtl2yK+rbJtEV9ubVtkbqt8e8S3Vb494tsq3x7xbZVvj/i2yrdHfFvl2yO+rfLtEd9W+faIb6t8e+zgnGduq3x77GKO72CQZ26rfHuUjfJHnYab3Va9lR4atoh/G7Yt4l+GbYv4d2HbIr6tsm0R31bZtohvq2xbxLdVti1y3inTFlnZmmuPnK3KtUdOZOXaI+e4cu2R01+59sg531x75HRwrj1ypjjXHjmJnGuPHZzzzG2Vb49dzPEdDPLMbZVvj8dH+TebGF6XOufex72L2c/3BtmFOPZw/tOrZwsD7KOq2Hsn9Hx287vL24vT+eHw+FkvpeGzXr/+X9VwM93sL3cYK9X16emLk5vZq8vrN5/8cjZ/61Revf4NxNN3AV9cn86u/3ZbK443/sGa402T48+zk/nt9ewtRm1pXr7vW5Z+8zAP8zAP8zAP8zAP8zAP8zAP8zAP8zAP8zAP8zAP8zAP8zAP8zAP8zAP8zAP8zAP8zAP8zAP8zAP8zAP8zAP8zAP8zAP8zAP8zAP8zAP8zAP8zAP8/D/qoffHF3+NLu+Pjud/fmk/mJtOjoWv69afzV23vxq7Jez67PZfPn12oNn918gvjq/vDk6P7uYPfoV2fn7vqf7+Ddr50eLf3r+6vL85Obs8uIO6mB+M7t6/t3s+8vr2cFm33z+0+zV7OK0+YLe/tnh6PhZr19/c/m4/iJz/X8Ozmff39Rgj0Tfxx59+2p289nFTf3+3G3x/e3FywXp4Qe9/3ok4p5wtvrprx/9Lne9zr7vHd68PpsfzRe/lc02qtfaDx3dvX+fnbx8ffjfwG3T7vHrr47fsS9zv726nJ/VgZ/e/fEmr+Z+1THvobq+/Lkd0j3W2cXprD4Pz9Ozlj99v34o/cHvz2bndd8Ol+/p23Py6vry9mp22vuXf+n90/LPfzn69vXJfPn99/qAfbD+6Jv3Pnr3hhydvHr1eb3H0fns4tXN695ve1Xv//YOPjk/P+h91HzG/Pzs5ezwefrg6+NvPnj0vD14JZfXvcMf7l7K8b/1frjbZlnV5b71n/3r3RWn/S+oXnWNl3lf//DN0T9mb3off/zx2zevLHGRuvy1/9D2pd6v765nJ/8o+eFfW/5M2+fX79fy1X1c17ouw7IpC5HD0bcn8/nZq4vZ6YtaETH/evFOflP2Vt7/oq9u568PS38Xd7/Sj97+PstP0vn5R5u8yqP6maW7zG+uL/8x22yft88t3eny6uTl2c2bzbZaPrn4VS22uN+qNOX+QtK8rJQcj9YXn3rdH+fmhaf3vJfaprU5bpuz/vpsMVU3ev6vj91T1OvDD3t//ftXvf/44u9/6335xd+++uNfft/70xe//+OL3h8++9tnmwV8fnfVnv1yUt+i9W4ue/PL65vexe2Pdz142VsoTea9k/nLu5uXs4tXGyTev/d1ztpkPnnW+27zi8v17Ob2+qJ3dXI9n31+fnlyc3hSX/I/uPtVrv3Zd4s/2+jNfPwWbW3b5Ut4LPjX7ZpeVvefi+O+OOyHvzmdfX9ye37Tu7q+vLuGzX7zrPebf55MXrz47LPfbFk8Aw444IADDjjggAMOOOCA878Tpze//fHu/wXunc7qP+ydnrypia5np9BAAw000EADDTTQQAMNNNDkaX5efDTrHZrvzm9n4IADDjjggAMOOOCAAw444JTgrP7dwFT/u4Ff3kb/bmA/Lf6G7ZNPBoPpFFJIIYUUUkghhRRSSCGFFFJIIe0GabUgPbmJSI8XpP1+VU1GkEIKKaSQQgoppJBCCimkkEIKaTdI+zXp59dnAWk1XZCmNB73+5BCCimkkEIKKaSQQgoppJBCCmk3SAc16VevbyPSyYJ0ereGv4MUUkghhRRSSCGFFFJIIYUUUki7QTqsSf99dhqRjhekn3764sV4DCmkkEIKKaSQQgoppJBCCimkkHaDdLT4LxO3s4h0tCB98WI0ghRSSCGFFFJIIYUUUkghhRRSSLtCOq5J/3wZmQWr4YJ0Mqmq4RBSSCGFFFJIIYUUUkghhRRSSCHdGek9yun1yc+Hj4b9cnRzdnM++/L1ydXs6Gb2y83hb/5weXs9fxzjzcOf/PTsx9nF/Ozy4nw2XyQ8EvHhh71PTk97J71FUu/ns5vXvfnlj7Peaf+Rn5z/9Oro5OpqdnF6eFDvffDBIz9wv45Obm6uDw9+OXjWGx23/KE3dz9Ubf5D85s357O3eM9PLl6+vry++/mD89n3LWiXGd9fXtw8/3l29ur1TZ3x3eX56eYZb383X149//z88vK61+/9/eJ09tPs/PJqdtpLvS/fzJ8Pep+fXz+vel++fP38s94f/nr+8seb5/PL27vfx3/+pfeXz178rn7azezH3qD31y//s/fFy5f1c3/zQe43/NsP5y+vz65u/k/4nN9+eHr20/sfDn8mDrvL6p2dfnzwsq7/i7t37OTsYnb9bTUeHPQW7+PHB6dn86vzkzcfnV2c3z32/Lvzy5f/+LeDGPAu9e1r6N28ubr7+fqt/PCHk59O3v5p9ifr9dPJdV3V3se907Mfr85nRxezn7/86dXhwT+/B/JZb3B8vPg/j569Ovf05ObkLvjr/zo4P/ludn7w0cHp7PuT2/Ob3tX15fdn57ODZ28f+faXg4/S0fGzg59Ozm9nBx8Nh0f96drqD58dvKyvWHcRdxehFy8+++zg12cbxVbbie1vJ3awndjhdmJH24kdbyd2sp3Y6XZi0/GWcrd0ztKWDlra0klLWzpqaUtnLW3psKUtnba0peOWtnTeqi2dt2pbc21L563a0nmrlPPWm9/++GPj3wYvuXO4np22SN30/W2Xuum72y510/e2XeqmV7J2qZtex9qlbnoVa5e66TWsXeqmV7B2qRvfMLSM3c7p2vh2oWXsds7XxjcLLWO3c8I2vlVoGbudM7bxjULL2O2cso1vE1rGbmmGbeeUbXyP0DK2+JT9fHZxI98efFc/Y/PYTd/alrGbvrUtYzd9a1vGbnoBaxm76QWsZeymF7CWsZtewFrGbnoBaxm78X1C29wtnbON7xTa5m7ppG18r9A2d0tnbeO7hba5WzptG98vtM3d0nnb+I6hbe625tqWztvGNw1tc9udt282+YuL5V9Q9j7uXcx+vv+LkcXfhxzOf3r1bPEXG4/+Dcj933LOZze/u7y9OJ0fDo+f9VIaPuv16/9VDTf7W5Rf7jBWf3l7evri5Gb26vL6zSe/nM3f/i3h6r3Y4K9S7wK+uD6dXf/ttv5Lu41/sOZ40+T48+xkfns9e4tR/73j8neg/uXw4i+kmlt9Obs+m82XuHc7LX8hV+eXN0f135I9uuX8fa/7cdL50aJ4V5fnJzdnlxd3UAfzm9nV8+9m319ezw42a9KfZq9mF6fNF/T2zw5Hdy3o102o/1It1f9n+Xevj/619H3s0bevZjefXdzU78/dFt/fXrxckB5+0PuvDf7ytSacrX7660fPRr3Ovu8d3rw+m9/1uv65zTaq19oPHd29f5+dvHx9+N/AbdPu8Zd/x7jM/fbqcn5WB35698ebvJr7Vce8h+r68ud2SPdYZxens/rgPk/PWv70/fqh9Ae/P5ud1307XL6nb8/Jq+vL2/pv0//lX3r/tPzzX46+fX0yX15P6gP2wfqjb9776N0bcnTy6tXn9R5H57OLVzeve7/tVb3/2zv45Pz8oPdR8xnz87OXs8Pn6YOvj7/54NHz9uCVXF73Dn+4eynH/9b74W6bZVWX+9Z/9q8f91L7X1C96hov877+4Zujf8zuLm8ff/z2zStLXKQuf+0/tH2p9+u769nJP0p++NeWP9P2+fX7tXx1H9e1rsuwbMpiMB59+/aDRbPTxUeL5l8v3slvyt7K+1/01e389WHp7+LuV/rR299n+Uk6P/9ok1d5VD+zdJf5zfXlP2ab7fP2uaU7XV6dvDy7ebPZVssnF7+qxRb3W5Wm3F9ImpeVkuPR+uJTr/vj3Lzw9J73Utu0Nsdtc9Zfny2m6kbP//Wxe4p6ffhh769//6r3H1/8/W+9L7/421d//Mvve3/64vd/fNH7w2d/+2yzgM/vrtqzX07qW7TezWVvfnl3I31x++NdD172FreI897J/OXdzcvZxasNEu/f+zpnbTKfPOt9t/nF5Xp2c3t90bs6uZ7PPj+/PLk5PKkv+R/c/SrX/uy7xZ9t9GY+fou2tu3yJTwW/Ov/wAdA3/kb2+WnPOu/gP0f+TwqOOCAAw444IADDjjggANO53EefvKlJrqenUIDDTTQQAMNNNBAAw000ECTp3nwmcCapv6IHzjggAMOOOCAAw444IADDjj/g9rFr2Y/Xs2uT25ur2e9w88/QLy4X+LF26ur8ze9T86ue/UvqiPOxGEXnIlDnImt1QY4E9vH4kzEmdhebYAzsSwXZyLORJyJOBNxJuJMfF8szkSciTgTW98m4ExsH4szEWcizsS2twk4E8tycSbiTMSZiDPxPX9xgTPxPRw4E3Em9nAmboaFMxFnYsnCmVgvnIk4ExcLZ2L+mTgTHw+oF87EbqhFwAEHHHDAAQcccMABBxxwOo+zZ8YRaKCBBhpooIEGGmiggQaa7tA8GdMJOOCAAw444IADDjjggANO+X44E9+/cCa+dSb2UkesiaMuWBNHWBNbyw2wJraPxZqINbG93ABrYlku1kSsiVgTsSZiTcSa+L5YrIlYE7Emtr5NwJrYPhZrItZErIltbxOwJpblYk3Emog1EWvie/7iAmvieziwJmJN7GFN3AwLayLWxJKFNbFeWBOxJi4W1sT8M7EmPh5QL6yJ3ZCLgAMOOOCAAw444IADDjjgdB5nz5wj0EADDTTQQAMNNNBAAw003aF5Mq4TcMABBxxwwAEHHHDAAQec8v2wJr5/YU1cWhOrjlgTx12wJo53Zk1c/O9SPZMpp2/KGZhyhqackSlnbMqZmHKmppyGVUAKcjU6uSqdXJ1OrlInV6uTq9bJ1evkKnZyNbtyNbuyXatdza5cza5aNXtzm18jqlzfJ8SE71C5oE+ICc99uYJPiAnPfLlkT4gJz7ug0VNyTD2Ox5hgxlNyTFWOZ5ggu1NyTG2OB5jgr1Oug6Y+x9NLUNIpOaY+x6Or3DLXiBG0ckpO+PYI4jglJzzughpOyQmPuyB/U3LC467o3aQgV6PjCaYY26QgV6njIaZI2KQgV6/jOaZ41aQro6vZ8ShTVGlSkKvZ8TR7EPTX67PL67ObN73Ue947/PL24oPaQzV6/v9OLp4fp+eL//3p7OXzforG3HHj/9H75JPBYDo1bFFtf4v+9rcYbH+L4fa3GG1/i/H2t5hsf4vp9rdoTPZt7bGD8512cMDTDk542sERTzs442kHhzzt4JSnHRzztINzXu3gnFe7mOM7OOfVDs55VXbOq8UeJzfRHseb3Vb1+1U1GRm2iH8bti3iX4Zti/h3YdsivuTatoivuLYt4guubYv4emvbIr7c2rbI3Fb59tjB+c7cVvn22MEJz9xW+fbYwRnP3Fb59tjBKc/cVvn22ME5z9xW+fbYxRzfwTnP3Fb59ig75/16j8+vz4I9qulmt1Upjcf9vmGL+Ldh2yL+Zdi2iH8Xti3iS65ti/iKa9sivuDatog/AWXbIv5slG2LzAcCfXvEn6jy7RF/2Mq3R/w5LN8e8Ue0fHvEn0v07RF/ZNG3R/xpRt8eOzjmmc9A+ubfDs555pOTvj12cM4zn7f07VE2ygf1Hl+9vo32mGx2W1X/m0vD3xm2iG+rbFvEt1W2LeLfhW2L+LbKtkV8W2XbIr6tsm0RX29tW8SXW9sWmdsq3x7x5da3R3y59e0RX259e8S3Vb494tsq3x7xbZVvj/i2yrfHDo555rbKN/92cM4zt1W+PXZwzjO3Vb49ykb5sN7j32en0R7jzW6rPv30xYvx2LBFfFtl2yK+rbJtEf8ubFvEt1W2LeLbKtsW8W2VbYv4emvbIr7c2rbI3Fb59ogvt7494sutb4/4cuvbI76t8u0R31b59ohvq3x7xLdVvj12cMwzt1W++beDc565rfLtsYNznrmt8u1RNspHi1u321m0x2iz26oXL0YjyxbxbZVti/i2yrZF/LuwbRHfVtm2iG+rbFvEt1W2LeLrrW2L+HJr2yJzW+XbI77c+vaIL7e+PeLLrW+P+LbKt0d8W+XbI76t8u0R31b59tjBMc/cVvnm3w7Oeea2yrfHDs555rbKt0fZKB/Xe/z5MvpYfDXc7LZqMqmq4dCwRXxbZdsivq2ybRH/LmxbxLdVti3i2yrbFvFtlW2LnF3KtEXOO2XaIitbc+0RX259e+REVq49co4r1x45/ZVrj5zzzbVHTgfn2iNninPtsYNjnvXLuebfDs551krn2mMH5zzrsnPt8fgo/2YTw+tSxNz7uHcx+/neILsQxx7Of3r1bGGAfVQVe29zns9ufnd5e3E6PxweP+ulNHzW69f/qxpuppv9/+2dfW/btvf2/79fBacBjYM5imXnec2GzE3aAu0yJO2GIQgC2aJtJYpk6CGJMeS9/0RZyuI1lEj5WPtm96U/uk7Huq6PSB6Sta3jhxTjqRK14/TtmI+DcHb04EbzWshP969QMjoVOA0dHp4lojSx8oWCY7bI8ZnbURLyOYaorpy3+4prciOMMMIII4wwwggjjDDCCCOMMMIII4wwwggjjDDCCCOMMMIII4wwwggjjDDCCCOMMMIII4wwwggjjDDCCCOMMMIII4wwwggj/J8Kz8zgjoeh6/DPtniw1jI7Sz6vKh6NjRYfjT3nocuj/PFao108QDz1gtj0XJ9XPiIbvfScbvWTtZGZ/fT8NPDs2A38FMqIYj7dGPBREHJD7cnnT3zMfWfxhubnWjudNuuJJ5c74kFm8Yfh8VEswCqkC1nzaszjYz8W7ZNajBJ/mJG21tlfFRIFIX+6+qLyWW5xuCPWiiduZEZZr6gZiePZRWbafsf2cNL6G1hXrcAXj46n7Lnu1TSIXCH4Lj2tcjfFIWReoAqDez2kAsv1HS7yYcNqa15dHNd1Lxy53BPjrZW36TxPxmGQTLnD3rxh3+XnH8yriR3lz7+LBFt/Hp29GE0bxLTH4xPhYXrcH8cT9pZ12c/MOPI8gx0sviLy3CFvbVjrF53L9cp8++ZOgpC1rtNb6fzIrlObfKjmvuLcD+mMo99B4hDDONe7uL40b/iMHR4ezhuvnmKmmnf7te6tFscg5PZNnYsfNa/Rfb1or/zuDsWwFoMhHylZIQfzyo4id+xzpy9KREQXWUte1mvKoqOnSTRp1e2LtEsP5v1ZP5M870DlLk3xyrouURwGN1zNZ/7auk7B1B668UzNKn9x7bvKLAqruirFRLI4rdRJD+3JRxxFOi9OPGyDWbpqOummzvrYzlZVpdc/Vu0pxLG5yX77+oX9efr1jJ2fnn35+Ot79un0/cc++3B8dqwmcJLO2vzBFls0FgcsCsKY+cltOg6GLCtpEjE7GqabF9cfKygWbS90nq3MdpsN1CeXkMdJ6LOpHUb8xAvsuGWLKX897cpn5wbZOaXGrN6iPbPNb6FK+HG1lV6e9p9ZumfJ3lpz+MhOvJhNwyCdw/ham619v7fX7x8fr6248AxwgAMc4AAHOMABDnCAAxzg/DdxWJTcpv8EZg4XJ5ljzwRRyB3QgAY0oAENaEADGtCABjSgAU05zX321ax/0Ay8hAMHOMABDnCAAxzgAAc4wAEOcOrgPP1uoCV+N/A8kf1uYM/KPmE7Otra2t8HKUhBClKQghSkIAUpSEEKUpCCFKSvg7SbkdqxjLSTkfZ63e7eDkhBClKQghSkIAUpSEEKUpCCFKQgfR2kPUF6EroS0u5+RmpZu7u9HkhBClKQghSkIAUpSEEKUpCCFKQgfR2kW4L0yySRke5lpPvpsf0LSEEKUpCCFKQgBSlIQQpSkIIUpCB9HaTbgvQP7shIdzPSd+/6/d1dkIIUpCAFKUhBClKQghSkIAUpSEH6Okh3sncmEi4j3clI+/2dHZCCFKQgBSlIQQpSkIIUpCAFKUhB+lpIdwXp50BWWbC7nZHu7XW729sgBSlIQQpSkIIUpCAFKUhBClKQgrQx0gLFCe37VqXYgxm7scfPJ/aUmzF/iFtrH4IkjKoxZt9e+c695X7kBr7Ho0yhQmJzkx05DrNZpsTu3XjCouCWM6dXcWV0Nzbt6ZT7TssQ3sZ6xQXFYdpxHLaMB6PNdjqaF83Si7rqF0XxzONzvA3bH06CML3e8PhIgzbXGAV+vHHP3fEkFhqDwHPUNeZ98/vR7/MGPuMTbsfMYqfDITsfTtbWy7rp7WY0DN1p/JP0NW83Hffu5bD0GrlYqsVc59AYijHcT2/bdn0eXnV39wyWNcah4bjR1LNnB67vpbGNgRcMb3405ICp6vweWDybpteL9ti8tu/s+dnSK8VxZ4divLFD5ri3U4+bPr8/vxu3jO9fgGyzrU4n+6MygYSuY8d2Knzxl+HZA+4ZB4bDR3bixWwaBiPX40Z7Hrl6MA4ss9M27mwv4fnfh2KeSa9Jp45+//jYeGwr6XSJdHpEOltEOttEOjtEOrtEOntEOvtEOlaHSohqRFtUQ9qiGtMW1aC2qEa1RTWsLapxbVENbItqZHepRnaXbK6mGtldqpHd1RrZLEpubxd+eFppRQu5oyEjbSM9GWkL6clI20dPRpr3ejLSrNeTkea8now04/VkpPmuJyNfyDR1iMaxfBnT1CEayfJFTFOHaCzLlzBNHaLRLF/ANHWIxrN8+dLUoZqXicazfO3S1FEfz/euH+svWwNxSl1H2jyaOtLm0dSRNo+mjjTdNXWk6a6pI013TR1pumvqSNNdU0e+fukKUY1o+QqmK0Q1puVrmK4Q1aiWr2K6QlTjWr6O6QpRjWz5SqYrRDZXU41s+WKmK6Q+sp8+iaj8pWDZMtdZ+Ife/KeECSy6q7ford5ia/UW26u32Fm9xe7qLfZWb7G/eouFlX1VHg3kt9VAglsNZLjVQIpbDeS41UCSWw1kudVAmlsN5Hm3gTzvNrGON5Dn3QbyvFsvzyt/kFFtWzX/xUYCC3lvkFnIO4PMQt4XZBbyKZfMQj7jklnIJ1wyC/l8S2Yhn27JLEq2VXQeDeR3ybaKzqOBDC/ZVtF5NJDjJdsqOo8GsrxkW0Xn0UCel2yr6DyaWMcbyPOSbRWdR708r/zdK7Vt1fyHsQgs5L1BZiHvDDILeV+QWcinXDIL+YxLZiGfcMks5N+AIrOQfzeKzKLkC4F0HvJvVNF5yL9sRech/x4WnYf8K1p0HvLvJdJ5yL+ySOch/zYjnUcDaV7yHUi69a+BPC/55iSdRwN5XvJ9SzqPekt55c+LqG2r5r8/QmAh31aRWci3VWQW8r4gs5Bvq8gs5NsqMgv5torMQj7fklnIp1syi5JtFZ2HfLql85BPt3Qe8umWzkO+raLzkG+r6Dzk2yo6D/m2is6jgTQv2VbRrX8N5HnJtorOo4E8L9lW0XnUW8orq7irbavmZd4JLOTbKjIL+baKzELeF2QW8m0VmYV8W0VmId9WkVnI51syC/l0S2ZRsq2i85BPt3Qe8umWzkM+3dJ5yLdVdB7ybRWdh3xbRech31bReTSQ5iXbKrr1r4E8L9lW0Xk0kOcl2yo6j3pLeWWxXLVt1byaLoGFfFtFZiHfVpFZyPuCzEK+rSKzkG+ryCzk2yoyC/l8S2Yhn27JLEq2VXQe8umWzkM+3dJ5yKdbOg/5torOQ76tovOQb6voPOTbKjqPBtK8ZFtFt/41kOcl2yo6jwbyvGRbRedRbymvrEmotq2aFy0ksJBvq8gs5NsqMgt5X5BZyLdVZBbybRWZhXxbRWZRVl2KyKKs7hSRRWmxNSoP+XRL51FWyIrKo6zGFZVHWfkrKo+ymm9UHmXl4Kg8yirFUXk0kOal9eWo1r8G8ry0Kh2VRwN5XlrLjsqjeim/VKnwmpdjZofM5/dFBdmscGwruhu3swqwlaVii5rOEY9/CRLfiVrbnTazrO0264m/dbfVys0+pBhPpaodp2/HfByEs6MHN5rXRH66f4XC0anAaejw8CwRJYqVLxQcs0WOz9yOkpDPMUSV5bzdV1y0G2GEEUYYYYQRRhhhhBFGGGGEEUYYYYQRRhhhhBFGGGGEEUYYYYQRRhhhhBFGGGGEEUYYYYQRRhhhhBFGGGGEEUYYYYQRRhjh/1R4ZgZ3PAxdh3+2xYO1ltlZ8nlV8WhstPho7DkPXR7lj9ca7eIB4qkXxKbn+rzyEdnoped0q5+sjczsp+engWfHbuCnUEYU8+nGgI+CkBtqTz5/4mPuO4s3ND/X2um0WU88udwRDzKLPwyPj2IBViFdyJpXYx4f+7Fon9RilPjDjLS1zv6qkCgI+dPVF5XPcovDHbFWPHEjM8p6Rc1IHM8uMtP2O7aHk9bfwLpqBb54dDxlz3WvpkHkCsF36WmVuykOIfMCVRjc6yEVWK7vcJEPG1Zb8+riuK574cjlnhhvrbxN53kyDoNkyh325g37Lj//YF5N7Ch//l0k2Prz6OzFaNogpj0enwgP0+P+OJ6wt6zLfmbGkecZ7GDxFZHnDnlrw1q/6FyuV+bbN3cShKx1nd5K50d2ndrkQzX3Fed+SGcc/Q4ShxjGud7F9aV5w2fs8PBw3nj1FDPVvNuvdW+1OAYht2/qXPyoeY3u60V75Xd3KIa1GAz5SMkKOZhXdhS5Y587fVEiIrrIWvKyXlMWHT1Nokmrbl+kXXow78/6meR5Byp3aYpX1nWJ4jC44Wo+89fWdQqm9tCNZ2pW+Ytr31VmUVjVVSkmksVppU56aE8+4ijSeXHiYRvM0lXTSTd11sd2tqoqvf6xak8hjs1N9tvXL+zP069n7Pz07MvHX9+zT6fvP/bZh+OzYzWBk3TW5g+22KKxOGBREMbMT27TcTBkWUmTiNnRMN28uP5YQbFoe6HzbGW222ygPrmEPE5Cn03tMOInXmDHLVtM+etpVz47N8jOKTVm9RbtmW1+C1XCj6ut9PK0/8zSPUv21prDR3bixWwaBukcxtfabO37vb1+//h4bcWFZ4ADHOAABzjAAQ5wgAMc4ADnv4nDouQ2/Scwc7g4yRx7JohC7oAGNKABDWhAAxrQgAY0oAENaMpp7rOvZv2DZuAlHDjAAQ5wgAMc4AAHOMABDnCAUwfn6XcDLfG7geeJ7HcDe1b2CdvR0dbW/j5IQQpSkIIUpCAFKUhBClKQghSkIH0dpN2M1I5lpJ2MtNfrdvd2QApSkIIUpCAFKUhBClKQghSkIAXp6yDtCdKT0JWQdvczUsva3e31QApSkIIUpCAFKUhBClKQghSkIAXp6yDdEqRfJomMdC8j3U+P7V9AClKQghSkIAUpSEEKUpCCFKQgBenrIN0WpH9wR0a6m5G+e9fv7+6CFKQgBSlIQQpSkIIUpCAFKUhBCtLXQbqTvTORcBnpTkba7+/sgBSkIAUpSEEKUpCCFKQgBSlIQQrS10K6K0g/B7LKgt3tjHRvr9vd3gYpSEEKUpCCFKQgBSlIQQpSkIIUpI2RFihOaN+3KsUezNiNPX4+safcjPlD3Fr7ECRhVI0x+/bKd+4t9yM38D0eZQoVEpub7MhxmM0yJXbvxhMWBbecOb2KK6O7sWlPp9x3WobwNtYrLigO047jsGU8GG2209G8aJZe1FW/KIpnHp/jbdj+cBKE6fWGx0catLnGKPDjjXvujiex0BgEnqOuMe+b349+nzfwGZ9wO2ZddjocsvPhZG29rJvebkbD0J3GP0lf83bTce9eDkuvkYulWsx1Do2hGMP99LZt1+fhVXd332BZYxwajhtNPXt24PpeGtsYeMHw5kdDDpiqzu+BxbNper1oj81r+86eny29Uhx3dijGGztkjns79bjp8/vzu3HL+P4FyDbb6nSyPyoTSOg6dmynwhd/GZ494J5xYDh8ZCdezKZhMHI9brTnkasH48AyO23jzvYSnv99KOaZ9Jp06uj3j4+Nx7aSTpdIp0eks0Wks02ks0Oks0uks0eks0+kY3WohKhGtEU1pC2qMW1RDWqLalRbVMPaohrXFtXAtqhGdpdqZHfJ5mqqkd2lGtldrZHNouT2duGHp5VWtJA7GjLSNtKTkbaQnoy0ffRkpHmvJyPNej0Zac7ryUgzXk9Gmu96MvKFTFOHaBzLlzFNHaKRLF/ENHWIxrJ8CdPUIRrN8gVMU4doPMuXL00dqnmZaDzL1y5NHfXxfO/6sf6yNRCn1HWkzaOpI20eTR1p82jqSNNdU0ea7po60nTX1JGmu6aONN01deTrl64Q1YiWr2C6QlRjWr6G6QpRjWr5KqYrRDWu5euYrhDVyJavZLpCZHM11ciWL2a6Quoj++mTiMpfClZ7v3H+U8IEFvJ/3ZJZyP/dS2Yh/xcxmYX8XSAyC/n7Q2QW8neOyCzk7ymRWcjfbSKzKHmLlc6jgfwueWOWzqOBDC95O5fOo4EcL3kTmM6jgSwveeuYzqOBPC95w5nOo4l1vIE8L3kHm86jXp5X/iCj2rZq/ouNBBby3iCzkHcGmYW8L8gs5FMumYV8xiWzkE+4ZBby+ZbMQj7dklmUbKvoPBrI75JtFZ1HAxlesq2i82ggx0u2VXQeDWR5ybaKzqOBPC/ZVtF5NLGON5DnJdsqOo96eV75u1dq26r5D2MRWMh7g8xC3hlkFvK+ILOQT7lkFvIZl8xCPuGSWcjnWzIL+XRLZlGyraLzaCC/S7ZVdB4NZHjJtorOo4EcL9lW0Xk0kOUl2yo6jwbyvGRbRefRxDreQJ6XbKvoPOrleeXPi6htq+a/P0JgIe8NMgt5Z5BZyPuCzEI+5ZJZyGdcMgv5hEtmIZ9vySzk0y2ZRcm2is6jgfwu2VbReTSQ4SXbKjqPBnK8ZFtF59FAlpdsq+g8Gsjzkm0VnUcT63gDeV6yraLzqJfnlVXc1bZV8zLvBBby3iCzkHcGmYW8L8gs5FMumYV8xiWzkE+4ZBby+ZbMQj7dklmUbKvoPBrI75JtFZ1HAxlesq2i82ggx0u2VXQeDWR5ybaKzqOBPC/ZVtF5NLGON5DnJdsqOo96eV5ZLFdtWzWvpktgIe8NMgt5Z5BZyPuCzEI+5ZJZyGdcMgv5hEtmIZ9vySzk0y2ZRcm2is6jgfwu2VbReTSQ4SXbKjqPBnK8ZFtF59FAlpdsq+g8Gsjzkm0VnUcT63gDeV6yraLzqJfnlTUJ1bZV86KFBBZldW6ILMoq4BBZlNXGIbIoqwdFZFFWKYrIoqyGFJFFWXUpIouyulNEFqXF1qg8Gsjv0hJtVB4NZHhpYTcqjwZyvLQcHJVHA1leWkSOyqOBPC8tPUfl0cQ63kCel9ayo/KozvNLlQqveTlmdsh8fl9UkM0Kx7aiu3E7qwBbWSq2qOkc8fiXIPGdqLXdaTPL2m6znvhbd1ut3OxDivFUqtpx+nbMx0E4O3pwo3lN5Kf7VygcnQqchg4PzxJRolj5QsExW+T4zO0oCfkcQ1RZztt9xUW7EUYYYYQRRhhhhBFGGGGEEUYYYYQRRhhhhBFGGGGEEUYYYYQRRhhhhBFGGGGEEUYYYYQRRhhhhBFGGGGEEUYYYYQRRhhhhBH+T4VnZnDHw9B1+GdbPFhrmZ0ln1cVj8ZGi4/GnvPQ5VH+eK3RLh4gnnpBbHquzysfkY1eek63+snayMx+en4aeHbsBn4KZUQxn24M+CgIuaH25PMnPua+s3hD83OtnU6b9cSTyx3xILP4w/D4KBZgFdKFrHk15vGxH4v2SS1GiT/MSFvr7K8KiYKQP119UfkstzjcEWvFEzcyo6xX1IzE8ewiM22/Y3s4af0NrKtW4ItHx1P2XPdqGkSuEHyXnla5m+IQMi9QhcG9HlKB5foOF/mwYbU1ry6O67oXjlzuifHWytt0nifjMEim3GFv3rDv8vMP5tXEjvLn30WCrT+Pzl6Mpg1i2uPxifAwPe6P4wl7y7rsZ2YceZ7BDhZfEXnukLc2rPWLzuV6Zb59cydByFrX6a10fmTXqU0+VHNfce6HdMbR7yBxiGGc611cX5o3fMYODw/njVdPMVPNu/1a91aLYxBy+6bOxY+a1+i+XrRXfneHYliLwZCPlKyQg3llR5E79rnTFyUioousJS/rNWXR0dMkmrTq9kXapQfz/qyfSZ53oHKXpnhlXZcoDoMbruYzf21dp2BqD914pmaVv7j2XWUWhVVdlWIiWZxW6qSH9uQjjiKdFycetsEsXTWddFNnfWxnq6rS6x+r9hTi2Nxkv339wv48/XrGzk/Pvnz89T37dPr+Y599OD47VhM4SWdt/mCLLRqLAxYFYcz85DYdB0OWlTSJmB0N082L648VFIu2FzrPVma7zQbqk0vI4yT02dQOI37iBXbcssWUv5525bNzg+ycUmNWb9Ge2ea3UCX8uNpKL0/7zyzds2RvrTl8ZCdezKZhkM5hfK3N1r7f2+v3j4/XVlx4BjjAAQ5wgAMc4AAHOMABDnD+mzgsSm7TfwIzh4uTzLFngijkDmhAAxrQgAY0oAENaEADGtCAppzmPvtq1j9oBl7CgQMc4AAHOMABDnCAAxzgAAc4dXCefjfQEr8beJ7IfjewZ2WfsB0dbW3t74MUpCAFKUhBClKQghSkIAUpSEEK0tdB2s1I7VhG2slIe71ud28HpCAFKUhBClKQghSkIAUpSEEKUpC+DtKeID0JXQlpdz8jtazd3V4PpCAFKUhBClKQghSkIAUpSEEKUpC+DtItQfplkshI9zLS/fTY/gWkIAUpSEEKUpCCFKQgBSlIQQpSkL4O0m1B+gd3ZKS7Gem7d/3+7i5IQQpSkIIUpCAFKUhBClKQghSkIH0dpDvZOxMJl5HuZKT9/s4OSEEKUpCCFKQgBSlIQQpSkIIUpCB9LaS7gvRzIKss2N3OSPf2ut3tbZCCFKQgBSlIQQpSkIIUpCAFKUhB2hhpgeKE9n2rUuzBjN3Y4+cTe8rNmD/ErbUPQRJG1Rizb698595yP3ID3+NRplAhsbnJjhyH2SxTYvduPGFRcMuZ06u4Mrobm/Z0yn2nZQhvY73iguIw7TgOW8aD0WY7Hc2LZulFXfWLonjm8Tnehu0PJ0GYXm94fKRBm2uMAj/euOfueBILjUHgOeoa8775/ej3eQOf8Qm3Y3Y6HLLz4WRtvayT3m5Gw9Cdxj9JX/N203HvXg5Lr5GLpVrMdQ6NoRjB/fSmbdfn4VV3r2OwrCkODceNpp49O3B9L41tDLxgePOjIQdMVef3wOLZNL1etMbmtX1nz8+WXimOOzsUo40dMse9nXrc9Pn9+d24ZXz/AmSbbXU62R+V6SN0HTu2U+GLvwzPHnDPODAcPrITL2bTMBi5Hjfa88jVg3FgmZ22cWd7CTcOdvbN/WfH3n7bGIo5J1VIp5F+//jYeGwrqXZXotpbierWSlS3V6K6sxLV3ZWo7q1EdX8lqlZnNbKryS5rNellrSa/rNUkmLWaDLNWk2LWanLMWk2SWavJsu5qsqy7ojVsNVnWXU2WdZfIMhYlt7cLP+NdY4cQckdDVLFt9UQVW1ZPVLFd9UQV5y49UcWZS09Ucd7SE1WctfREFecsPVHVjYGm6kpySnVboKm6kqxS3RRoqq4kr1S3BJqqK8ks1Q2BpupKckt1O6Cpupr1aiW5pboX0FStm1v3rh8vuw0YiBeoqyo2q6aqYrNqqio2q6aq4pSlqao4ZWmqKk5ZmqqKU5amquKUpamquh/QlV1NdqnuCHRlV5NfqnsCXdnVZJjqrkBXdjU5prov0JVdTZap7gx0ZVe0hq0my1Q3B7qyWll2qfKBQ/7ZIDtkPr8vPtDIPsdoRXfjdvaBROUnF8UHjBGPfwkS34la2502s6ztNuuJv3W31T79eEgxnj43dZy+HfNxEM6OHtxo/gHdU1MofIqZCpyGDg/PEvF5mfKFgmO2yPGZ21ES8jmG+Mgv74JlP5fNPkhatDrnocujHDd1yjtk6gWxKT7dqrSMXrrvatLIzMbdNPDs2A38FMqIYj7dGPBREHJDbSR94mPuO4s3ND/X2klHQU+MBPFhmCX+yD/2rPxEuJA1r8Y8PvZj0T6pxSjxhxlpa539pfC5pyDkT1dfVOaGONwRa8UTN0rHtbhOzUgczy4y0/Y7toeT1t/AumoFfv7ZYK57NQ0iVwi+S0+r3E1xCJkXqMLgXg+pwHJ9h4vE3bDamlcXx3XdC0cu98R4a+VtOs+TcRgkU+6wN2/Yd/n5B/NqYkf5fCISbP15dPZiNG0Q0x6PT4SH6XF/HE/YW9ZlPzPjyPMMdrD4ishzh7y1Ya1fdC7XK/PtmzsJQta6Tm+l8yO7Tm3yoZr7inM/HDJLv4PEIYZxrndxfWne8HR6OzycN149xUw17/Zr3VstjkHI7Zs6Fz9qXqP7etFe+d0dimEtBkM+UrKF0byaf6eHO9m3eqKLrCUv6zVl0dHTJJq06vZF2qUH8/6sn0med6Byl6Z4ZV2XKA6DG67mM39tXadgag/deKZmlb+49l1lFoVVXZViIlmcVuqkh/bkI44inRcnHrbBLF01nXRTZ31sZ6uq0usfq/YU4tjcZL99/cL+PP16xs5Pz758/PU9+3T6/mOffTg+O1YTOElnbf5giy0aiwMWBelG2k9u03EwZNkWMWJ2NEw3L64/VlAs2l7oPFuZ7TYbqE8uIY+T0GdTO4z4iRfYccsWU/562pXPzg2yc0qNWb1Fe2ab30KV8OO/8N3Lf3wAm3/BUnyg+q98FRQ4wAEOcIADHOAABzjAAQ5wXj3Ot19wEUQhd0ADGtCABjSgAQ1oQAMa0IAGNOU033wlUNCIr/gBBzjAAQ5wgAMc4AAHOMABDnD+xYqHX/jtlId2nISctU7WUfPwf6rm4R+2GHEfePafo9uBy/2YiS4TlQ+5k6Ttv8F2OyevpAii9RqKIFqNFUHMHj2tW4SJSKdHpLNFpLNNpLNDpLNLpLNHpLNPpLNQXWApIaoRbVENaYtqTFtUg9qiGtUW1bC2qMa1RTWwLaqR3aUa2V2yuZpqZHepRnZXa2SrF+1bkKpfpm8JGWkL1S/Ft4SMNO/rl9tbQkaa8/VL6i0hI833JcrmLaNDNI7ly9gSxfCW0SEayvI1bIkSd8voEI1m+QK2ROG6ZeZBovEsX72WKEe3jA7ReJYvXfWLzC3ILFFWbhkdafMsUTpuGR1pui9RHm4ZHWm6L1ECbhkdabovU+ZtKSGqES1fwZYp3raUENWgli9iy5RkW0qIalzL17FlCq0tNTNSjWz5UrZM+bSlhKhGtnw1Q1G0V1EUDWGEEUYYYYQRRhhhhBFGGGGEEUYY4f+l8MwM7ngYug7/bIs3qiyzg6L4z+4ERfGfDhTF1zpQFB9F8TUOFMX/54Gi+P88UBRf80BRfBTFf/FAUXzgAAc4wAEOcIADHOAABzjAAc5rKCkJGtCABjSgAQ1oQAMa0IAGNK+H5v+bUpbAAQ5wgAMc4AAHOMABDnCAU9/vXyiK/8695X7kBr7Howgl8f+3SuIH4Q07Ho3cocv94eypEH6zJfDzV/8j8vz/i7/P//uknv/l6T+DwJmJ/07iW++n//d/+RS98g=="
               },
               {
                  "name" : "annual_peak_electric_demand",
                  "units" : "kW",
                  "value" : 124.65137
               },
               {
                  "name" : "first_year_capital_cost",
                  "units" : "$",
                  "value" : 0
               },
               {
                  "name" : "annual_utility_cost",
                  "units" : "$",
                  "value" : 82430.220000000001
               },
               {
                  "name" : "total_lifecycle_cost",
                  "units" : "$",
                  "value" : 1421410.03
               }
            ],
            "step_warnings" : []
         }
      }
   ],
   "updated_at" : "20170710T194656Z",
   "weather_file" : "USA_CO_Denver.Intl.AP.725650_TMY3.epw"
}
