{
   "completed_at" : "20170710T183926Z",
   "completed_status" : "Success",
   "created_at" : "2017-07-10 18:32:12 +0000",
   "current_step" : 5,
   "description" : "",
   "eplusout_err" : "Program Version,EnergyPlus, Version 8.7.0-78a111df4a, YMD=2017.07.10 18:34,IDD_Version 8.7.0\n   ************* IDF Context for following error/warning message:\n   ************* Note -- lines truncated at 300 characters, if necessary...\n   *************      5 Building,\n   ************* indicated Name=NECB 2011-LargeHotel-NECB HDD Method-CAN_BC_Victoria.717990_CWEC.epw created: 2017-07-10 18:32:18 +0000\n   ************* Only last 1 lines before error line shown.....\n   *************      6   NECB 2011-LargeHotel-NECB HDD Method-CAN_BC_Victoria.717990_CWEC.epw created: 2017-07-10 18:32:18 +0000, !- Name\n   ** Warning ** IP: IDF line~6 Alpha Argument length exceeds maximum, will be truncated=  NECB 2011-LargeHotel-NECB HDD Method-CAN_BC_Victoria.717990_CWEC.epw created: 2017-07-10 18:32:18 +000\n   **   ~~~   ** Will be processed as Alpha=NECB 2011-LARGEHOTEL-NECB HDD METHOD-CAN_BC_VICTORIA.717990_CWEC.EPW CREATED: 2017-07-10 18:32:18 +0000\n   ************* Beginning Zone Sizing Calculations\n   ** Warning ** ProcessScheduleInput: Schedule:Day:Interval=\"ECONOMIZER MAX OA FRACTION 100 PCT DEFAULT\", Blank Schedule Type Limits Name input -- will not be validated.\n   ** Warning ** ProcessScheduleInput: Schedule:Day:Interval=\"SCHEDULE DAY 1\", Blank Schedule Type Limits Name input -- will not be validated.\n   ** Warning ** ProcessScheduleInput: Schedule:Day:Interval=\"SCHEDULE DAY 10\", Blank Schedule Type Limits Name input -- will not be validated.\n   ** Warning ** ProcessScheduleInput: Schedule:Day:Interval=\"SCHEDULE DAY 11\", Blank Schedule Type Limits Name input -- will not be validated.\n   ** Warning ** ProcessScheduleInput: Schedule:Day:Interval=\"SCHEDULE DAY 12\", Blank Schedule Type Limits Name input -- will not be validated.\n   ** Warning ** ProcessScheduleInput: Schedule:Day:Interval=\"SCHEDULE DAY 13\", Blank Schedule Type Limits Name input -- will not be validated.\n   ** Warning ** ProcessScheduleInput: Schedule:Day:Interval=\"SCHEDULE DAY 14\", Blank Schedule Type Limits Name input -- will not be validated.\n   ** Warning ** ProcessScheduleInput: Schedule:Day:Interval=\"SCHEDULE DAY 15\", Blank Schedule Type Limits Name input -- will not be validated.\n   ** Warning ** ProcessScheduleInput: Schedule:Day:Interval=\"SCHEDULE DAY 16\", Blank Schedule Type Limits Name input -- will not be validated.\n   ** Warning ** ProcessScheduleInput: Schedule:Day:Interval=\"SCHEDULE DAY 17\", Blank Schedule Type Limits Name input -- will not be validated.\n   ** Warning ** ProcessScheduleInput: Schedule:Day:Interval=\"SCHEDULE DAY 18\", Blank Schedule Type Limits Name input -- will not be validated.\n   ** Warning ** ProcessScheduleInput: Schedule:Day:Interval=\"SCHEDULE DAY 19\", Blank Schedule Type Limits Name input -- will not be validated.\n   ** Warning ** ProcessScheduleInput: Schedule:Day:Interval=\"SCHEDULE DAY 2\", Blank Schedule Type Limits Name input -- will not be validated.\n   ** Warning ** ProcessScheduleInput: Schedule:Day:Interval=\"SCHEDULE DAY 20\", Blank Schedule Type Limits Name input -- will not be validated.\n   ** Warning ** ProcessScheduleInput: Schedule:Day:Interval=\"SCHEDULE DAY 21\", Blank Schedule Type Limits Name input -- will not be validated.\n   ** Warning ** ProcessScheduleInput: Schedule:Day:Interval=\"SCHEDULE DAY 22\", Blank Schedule Type Limits Name input -- will not be validated.\n   ** Warning ** ProcessScheduleInput: Schedule:Day:Interval=\"SCHEDULE DAY 23\", Blank Schedule Type Limits Name input -- will not be validated.\n   ** Warning ** ProcessScheduleInput: Schedule:Day:Interval=\"SCHEDULE DAY 24\", Blank Schedule Type Limits Name input -- will not be validated.\n   ** Warning ** ProcessScheduleInput: Schedule:Day:Interval=\"SCHEDULE DAY 25\", Blank Schedule Type Limits Name input -- will not be validated.\n   ** Warning ** ProcessScheduleInput: Schedule:Day:Interval=\"SCHEDULE DAY 26\", Blank Schedule Type Limits Name input -- will not be validated.\n   ** Warning ** ProcessScheduleInput: Schedule:Day:Interval=\"SCHEDULE DAY 27\", Blank Schedule Type Limits Name input -- will not be validated.\n   ** Warning ** ProcessScheduleInput: Schedule:Day:Interval=\"SCHEDULE DAY 28\", Blank Schedule Type Limits Name input -- will not be validated.\n   ** Warning ** ProcessScheduleInput: Schedule:Day:Interval=\"SCHEDULE DAY 29\", Blank Schedule Type Limits Name input -- will not be validated.\n   ** Warning ** ProcessScheduleInput: Schedule:Day:Interval=\"SCHEDULE DAY 30\", Blank Schedule Type Limits Name input -- will not be validated.\n   ** Warning ** ProcessScheduleInput: Schedule:Day:Interval=\"SCHEDULE DAY 31\", Blank Schedule Type Limits Name input -- will not be validated.\n   ** Warning ** ProcessScheduleInput: Schedule:Day:Interval=\"SCHEDULE DAY 32\", Blank Schedule Type Limits Name input -- will not be validated.\n   ** Warning ** ProcessScheduleInput: Schedule:Day:Interval=\"SCHEDULE DAY 33\", Blank Schedule Type Limits Name input -- will not be validated.\n   ** Warning ** ProcessScheduleInput: Schedule:Day:Interval=\"SCHEDULE DAY 34\", Blank Schedule Type Limits Name input -- will not be validated.\n   ** Warning ** ProcessScheduleInput: Schedule:Day:Interval=\"SCHEDULE DAY 35\", Blank Schedule Type Limits Name input -- will not be validated.\n   ** Warning ** ProcessScheduleInput: Schedule:Day:Interval=\"SCHEDULE DAY 36\", Blank Schedule Type Limits Name input -- will not be validated.\n   ** Warning ** ProcessScheduleInput: Schedule:Day:Interval=\"SCHEDULE DAY 37\", Blank Schedule Type Limits Name input -- will not be validated.\n   ** Warning ** ProcessScheduleInput: Schedule:Day:Interval=\"SCHEDULE DAY 38\", Blank Schedule Type Limits Name input -- will not be validated.\n   ** Warning ** ProcessScheduleInput: Schedule:Day:Interval=\"SCHEDULE DAY 39\", Blank Schedule Type Limits Name input -- will not be validated.\n   ** Warning ** ProcessScheduleInput: Schedule:Day:Interval=\"SCHEDULE DAY 40\", Blank Schedule Type Limits Name input -- will not be validated.\n   ** Warning ** ProcessScheduleInput: Schedule:Day:Interval=\"SCHEDULE DAY 41\", Blank Schedule Type Limits Name input -- will not be validated.\n   ** Warning ** ProcessScheduleInput: Schedule:Day:Interval=\"SCHEDULE DAY 42\", Blank Schedule Type Limits Name input -- will not be validated.\n   ** Warning ** ProcessScheduleInput: Schedule:Day:Interval=\"SCHEDULE DAY 43\", Blank Schedule Type Limits Name input -- will not be validated.\n   ** Warning ** ProcessScheduleInput: Schedule:Day:Interval=\"SCHEDULE DAY 44\", Blank Schedule Type Limits Name input -- will not be validated.\n   ** Warning ** ProcessScheduleInput: Schedule:Day:Interval=\"SCHEDULE DAY 45\", Blank Schedule Type Limits Name input -- will not be validated.\n   ** Warning ** ProcessScheduleInput: Schedule:Day:Interval=\"SCHEDULE DAY 46\", Blank Schedule Type Limits Name input -- will not be validated.\n   ** Warning ** ProcessScheduleInput: Schedule:Day:Interval=\"SCHEDULE DAY 47\", Blank Schedule Type Limits Name input -- will not be validated.\n   ** Warning ** ProcessScheduleInput: Schedule:Day:Interval=\"SCHEDULE DAY 48\", Blank Schedule Type Limits Name input -- will not be validated.\n   ** Warning ** ProcessScheduleInput: Schedule:Day:Interval=\"SCHEDULE DAY 49\", Blank Schedule Type Limits Name input -- will not be validated.\n   ** Warning ** ProcessScheduleInput: Schedule:Day:Interval=\"SCHEDULE DAY 50\", Blank Schedule Type Limits Name input -- will not be validated.\n   ** Warning ** ProcessScheduleInput: Schedule:Day:Interval=\"SCHEDULE DAY 51\", Blank Schedule Type Limits Name input -- will not be validated.\n   ** Warning ** ProcessScheduleInput: Schedule:Day:Interval=\"SCHEDULE DAY 52\", Blank Schedule Type Limits Name input -- will not be validated.\n   ** Warning ** ProcessScheduleInput: Schedule:Day:Interval=\"SCHEDULE DAY 53\", Blank Schedule Type Limits Name input -- will not be validated.\n   ** Warning ** ProcessScheduleInput: Schedule:Day:Interval=\"SCHEDULE DAY 54\", Blank Schedule Type Limits Name input -- will not be validated.\n   ** Warning ** ProcessScheduleInput: Schedule:Day:Interval=\"SCHEDULE DAY 55\", Blank Schedule Type Limits Name input -- will not be validated.\n   ** Warning ** ProcessScheduleInput: Schedule:Day:Interval=\"SCHEDULE DAY 56\", Blank Schedule Type Limits Name input -- will not be validated.\n   ** Warning ** ProcessScheduleInput: Schedule:Day:Interval=\"SCHEDULE DAY 57\", Blank Schedule Type Limits Name input -- will not be validated.\n   ** Warning ** ProcessScheduleInput: Schedule:Day:Interval=\"SCHEDULE DAY 58\", Blank Schedule Type Limits Name input -- will not be validated.\n   ** Warning ** ProcessScheduleInput: Schedule:Day:Interval=\"SCHEDULE DAY 59\", Blank Schedule Type Limits Name input -- will not be validated.\n   ** Warning ** ProcessScheduleInput: Schedule:Day:Interval=\"SCHEDULE DAY 60\", Blank Schedule Type Limits Name input -- will not be validated.\n   ** Warning ** ProcessScheduleInput: Schedule:Day:Interval=\"SCHEDULE DAY 61\", Blank Schedule Type Limits Name input -- will not be validated.\n   ** Warning ** ProcessScheduleInput: Schedule:Day:Interval=\"SCHEDULE DAY 62\", Blank Schedule Type Limits Name input -- will not be validated.\n   ** Warning ** ProcessScheduleInput: Schedule:Day:Interval=\"SCHEDULE DAY 63\", Blank Schedule Type Limits Name input -- will not be validated.\n   ** Warning ** ProcessScheduleInput: Schedule:Day:Interval=\"SCHEDULE DAY 64\", Blank Schedule Type Limits Name input -- will not be validated.\n   ** Warning ** ProcessScheduleInput: Schedule:Day:Interval=\"SCHEDULE DAY 65\", Blank Schedule Type Limits Name input -- will not be validated.\n   ** Warning ** ProcessScheduleInput: Schedule:Day:Interval=\"SCHEDULE DAY 66\", Blank Schedule Type Limits Name input -- will not be validated.\n   ** Warning ** ProcessScheduleInput: Schedule:Day:Interval=\"SCHEDULE DAY 67\", Blank Schedule Type Limits Name input -- will not be validated.\n   ** Warning ** ProcessScheduleInput: Schedule:Day:Interval=\"SCHEDULE DAY 68\", Blank Schedule Type Limits Name input -- will not be validated.\n   ** Warning ** ProcessScheduleInput: Schedule:Day:Interval=\"SCHEDULE DAY 69\", Blank Schedule Type Limits Name input -- will not be validated.\n   ** Warning ** ProcessScheduleInput: Schedule:Day:Interval=\"SCHEDULE DAY 70\", Blank Schedule Type Limits Name input -- will not be validated.\n   ** Warning ** ProcessScheduleInput: Schedule:Day:Interval=\"SCHEDULE DAY 71\", Blank Schedule Type Limits Name input -- will not be validated.\n   ** Warning ** ProcessScheduleInput: Schedule:Day:Interval=\"SCHEDULE DAY 72\", Blank Schedule Type Limits Name input -- will not be validated.\n   ** Warning ** ProcessScheduleInput: Schedule:Day:Interval=\"SCHEDULE DAY 73\", Blank Schedule Type Limits Name input -- will not be validated.\n   ** Warning ** ProcessScheduleInput: Schedule:Day:Interval=\"SCHEDULE DAY 74\", Blank Schedule Type Limits Name input -- will not be validated.\n   ** Warning ** ProcessScheduleInput: Schedule:Day:Interval=\"SCHEDULE DAY 75\", Blank Schedule Type Limits Name input -- will not be validated.\n   ** Warning ** ProcessScheduleInput: Schedule:Day:Interval=\"SCHEDULE DAY 76\", Blank Schedule Type Limits Name input -- will not be validated.\n   ** Warning ** ProcessScheduleInput: Schedule:Day:Interval=\"SCHEDULE DAY 77\", Blank Schedule Type Limits Name input -- will not be validated.\n   ** Warning ** ProcessScheduleInput: Schedule:Day:Interval=\"SCHEDULE DAY 78\", Blank Schedule Type Limits Name input -- will not be validated.\n   ** Warning ** ProcessScheduleInput: Schedule:Day:Interval=\"SCHEDULE DAY 8\", Blank Schedule Type Limits Name input -- will not be validated.\n   ** Warning ** ProcessScheduleInput: Schedule:Day:Interval=\"SCHEDULE DAY 9\", Blank Schedule Type Limits Name input -- will not be validated.\n   ** Warning ** ProcessScheduleInput: Schedule:Year=\"ECONOMIZER MAX OA FRACTION 100 PCT\", Blank Schedule Type Limits Name input -- will not be validated.\n   ** Warning ** ProcessScheduleInput: Schedule:Year=\"SCHEDULE RULESET 10\", Blank Schedule Type Limits Name input -- will not be validated.\n   ** Warning ** ProcessScheduleInput: Schedule:Year=\"SCHEDULE RULESET 11\", Blank Schedule Type Limits Name input -- will not be validated.\n   ** Warning ** ProcessScheduleInput: Schedule:Year=\"SCHEDULE RULESET 12\", Blank Schedule Type Limits Name input -- will not be validated.\n   ** Warning ** ProcessScheduleInput: Schedule:Year=\"SCHEDULE RULESET 13\", Blank Schedule Type Limits Name input -- will not be validated.\n   ** Warning ** ProcessScheduleInput: Schedule:Year=\"SCHEDULE RULESET 14\", Blank Schedule Type Limits Name input -- will not be validated.\n   ** Warning ** ProcessScheduleInput: Schedule:Year=\"SCHEDULE RULESET 15\", Blank Schedule Type Limits Name input -- will not be validated.\n   ** Warning ** ProcessScheduleInput: Schedule:Year=\"SCHEDULE RULESET 16\", Blank Schedule Type Limits Name input -- will not be validated.\n   ** Warning ** ProcessScheduleInput: Schedule:Year=\"SCHEDULE RULESET 17\", Blank Schedule Type Limits Name input -- will not be validated.\n   ** Warning ** ProcessScheduleInput: Schedule:Year=\"SCHEDULE RULESET 18\", Blank Schedule Type Limits Name input -- will not be validated.\n   ** Warning ** ProcessScheduleInput: Schedule:Year=\"SCHEDULE RULESET 19\", Blank Schedule Type Limits Name input -- will not be validated.\n   ** Warning ** ProcessScheduleInput: Schedule:Year=\"SCHEDULE RULESET 20\", Blank Schedule Type Limits Name input -- will not be validated.\n   ** Warning ** ProcessScheduleInput: Schedule:Year=\"SCHEDULE RULESET 21\", Blank Schedule Type Limits Name input -- will not be validated.\n   ** Warning ** ProcessScheduleInput: Schedule:Year=\"SCHEDULE RULESET 22\", Blank Schedule Type Limits Name input -- will not be validated.\n   ** Warning ** ProcessScheduleInput: Schedule:Year=\"SCHEDULE RULESET 23\", Blank Schedule Type Limits Name input -- will not be validated.\n   ** Warning ** ProcessScheduleInput: Schedule:Year=\"SCHEDULE RULESET 24\", Blank Schedule Type Limits Name input -- will not be validated.\n   ** Warning ** ProcessScheduleInput: Schedule:Year=\"SCHEDULE RULESET 25\", Blank Schedule Type Limits Name input -- will not be validated.\n   ** Warning ** ProcessScheduleInput: Schedule:Year=\"SCHEDULE RULESET 26\", Blank Schedule Type Limits Name input -- will not be validated.\n   ** Warning ** ProcessScheduleInput: Schedule:Year=\"SCHEDULE RULESET 27\", Blank Schedule Type Limits Name input -- will not be validated.\n   ** Warning ** ProcessScheduleInput: Schedule:Year=\"SCHEDULE RULESET 28\", Blank Schedule Type Limits Name input -- will not be validated.\n   ** Warning ** ProcessScheduleInput: Schedule:Year=\"SCHEDULE RULESET 29\", Blank Schedule Type Limits Name input -- will not be validated.\n   ** Warning ** ProcessScheduleInput: Schedule:Year=\"SCHEDULE RULESET 3\", Blank Schedule Type Limits Name input -- will not be validated.\n   ** Warning ** ProcessScheduleInput: Schedule:Year=\"SCHEDULE RULESET 30\", Blank Schedule Type Limits Name input -- will not be validated.\n   ** Warning ** ProcessScheduleInput: Schedule:Year=\"SCHEDULE RULESET 31\", Blank Schedule Type Limits Name input -- will not be validated.\n   ** Warning ** ProcessScheduleInput: Schedule:Year=\"SCHEDULE RULESET 32\", Blank Schedule Type Limits Name input -- will not be validated.\n   ** Warning ** ProcessScheduleInput: Schedule:Year=\"SCHEDULE RULESET 33\", Blank Schedule Type Limits Name input -- will not be validated.\n   ** Warning ** ProcessScheduleInput: Schedule:Year=\"SCHEDULE RULESET 34\", Blank Schedule Type Limits Name input -- will not be validated.\n   ** Warning ** ProcessScheduleInput: Schedule:Year=\"SCHEDULE RULESET 35\", Blank Schedule Type Limits Name input -- will not be validated.\n   ** Warning ** ProcessScheduleInput: Schedule:Year=\"SCHEDULE RULESET 36\", Blank Schedule Type Limits Name input -- will not be validated.\n   ** Warning ** ProcessScheduleInput: Schedule:Year=\"SCHEDULE RULESET 37\", Blank Schedule Type Limits Name input -- will not be validated.\n   ** Warning ** ProcessScheduleInput: Schedule:Year=\"SCHEDULE RULESET 38\", Blank Schedule Type Limits Name input -- will not be validated.\n   ** Warning ** ProcessScheduleInput: Schedule:Year=\"SCHEDULE RULESET 39\", Blank Schedule Type Limits Name input -- will not be validated.\n   ** Warning ** ProcessScheduleInput: Schedule:Year=\"SCHEDULE RULESET 4\", Blank Schedule Type Limits Name input -- will not be validated.\n   ** Warning ** ProcessScheduleInput: Schedule:Year=\"SCHEDULE RULESET 40\", Blank Schedule Type Limits Name input -- will not be validated.\n   ** Warning ** ProcessScheduleInput: Schedule:Year=\"SCHEDULE RULESET 41\", Blank Schedule Type Limits Name input -- will not be validated.\n   ** Warning ** ProcessScheduleInput: Schedule:Year=\"SCHEDULE RULESET 42\", Blank Schedule Type Limits Name input -- will not be validated.\n   ** Warning ** ProcessScheduleInput: Schedule:Year=\"SCHEDULE RULESET 43\", Blank Schedule Type Limits Name input -- will not be validated.\n   ** Warning ** ProcessScheduleInput: Schedule:Year=\"SCHEDULE RULESET 44\", Blank Schedule Type Limits Name input -- will not be validated.\n   ** Warning ** ProcessScheduleInput: Schedule:Year=\"SCHEDULE RULESET 45\", Blank Schedule Type Limits Name input -- will not be validated.\n   ** Warning ** ProcessScheduleInput: Schedule:Year=\"SCHEDULE RULESET 46\", Blank Schedule Type Limits Name input -- will not be validated.\n   ** Warning ** ProcessScheduleInput: Schedule:Year=\"SCHEDULE RULESET 47\", Blank Schedule Type Limits Name input -- will not be validated.\n   ** Warning ** ProcessScheduleInput: Schedule:Year=\"SCHEDULE RULESET 48\", Blank Schedule Type Limits Name input -- will not be validated.\n   ** Warning ** ProcessScheduleInput: Schedule:Year=\"SCHEDULE RULESET 49\", Blank Schedule Type Limits Name input -- will not be validated.\n   ** Warning ** ProcessScheduleInput: Schedule:Year=\"SCHEDULE RULESET 5\", Blank Schedule Type Limits Name input -- will not be validated.\n   ** Warning ** ProcessScheduleInput: Schedule:Year=\"SCHEDULE RULESET 50\", Blank Schedule Type Limits Name input -- will not be validated.\n   ** Warning ** ProcessScheduleInput: Schedule:Year=\"SCHEDULE RULESET 51\", Blank Schedule Type Limits Name input -- will not be validated.\n   ** Warning ** ProcessScheduleInput: Schedule:Year=\"SCHEDULE RULESET 52\", Blank Schedule Type Limits Name input -- will not be validated.\n   ** Warning ** ProcessScheduleInput: Schedule:Year=\"SCHEDULE RULESET 53\", Blank Schedule Type Limits Name input -- will not be validated.\n   ** Warning ** ProcessScheduleInput: Schedule:Year=\"SCHEDULE RULESET 54\", Blank Schedule Type Limits Name input -- will not be validated.\n   ** Warning ** ProcessScheduleInput: Schedule:Year=\"SCHEDULE RULESET 55\", Blank Schedule Type Limits Name input -- will not be validated.\n   ** Warning ** ProcessScheduleInput: Schedule:Year=\"SCHEDULE RULESET 56\", Blank Schedule Type Limits Name input -- will not be validated.\n   ** Warning ** ProcessScheduleInput: Schedule:Year=\"SCHEDULE RULESET 57\", Blank Schedule Type Limits Name input -- will not be validated.\n   ** Warning ** ProcessScheduleInput: Schedule:Year=\"SCHEDULE RULESET 58\", Blank Schedule Type Limits Name input -- will not be validated.\n   ** Warning ** ProcessScheduleInput: Schedule:Year=\"SCHEDULE RULESET 59\", Blank Schedule Type Limits Name input -- will not be validated.\n   ** Warning ** ProcessScheduleInput: Schedule:Year=\"SCHEDULE RULESET 6\", Blank Schedule Type Limits Name input -- will not be validated.\n   ** Warning ** ProcessScheduleInput: Schedule:Year=\"SCHEDULE RULESET 7\", Blank Schedule Type Limits Name input -- will not be validated.\n   ** Warning ** ProcessScheduleInput: Schedule:Year=\"SCHEDULE RULESET 8\", Blank Schedule Type Limits Name input -- will not be validated.\n   ** Warning ** ProcessScheduleInput: Schedule:Year=\"SCHEDULE RULESET 9\", Blank Schedule Type Limits Name input -- will not be validated.\n   ** Warning ** ProcessScheduleInput: Schedule:Constant=\"ALWAYS OFF DISCRETE\", Blank Schedule Type Limits Name input -- will not be validated.\n   ** Warning ** ProcessScheduleInput: Schedule:Constant=\"ALWAYS ON CONTINUOUS\", Blank Schedule Type Limits Name input -- will not be validated.\n   ** Warning ** CheckUsedConstructions: There are 23 nominally unused constructions in input.\n   **   ~~~   ** For explicit details on each unused construction, use Output:Diagnostics,DisplayExtraWarnings;\n   ** Warning ** GetInternalHeatGains: ElectricEquipment Combination of ZoneList and Object Name generate a name too long.\n   **   ~~~   ** Object Name=\"SPACE FUNCTION HOSPITAL - LAUNDRY/WASHING ELEC EQUIP\".\n   **   ~~~   ** ZoneList/Zone Name=\"SP-LAUNDRY_FLR_1 SYS-3 FLR-1 SCH-C HPLCMT-EAST ZN\".\n   **   ~~~   ** Item length=[101] > Maximum Length=[100]. You may need to shorten the names.\n   **   ~~~   ** Shortening the Object Name by [2] characters will assure uniqueness for this ZoneList.\n   **   ~~~   ** name that will be used (may be needed in reporting)=\"SP-LAUNDRY_FLR_1 SYS-3 FLR-1 SCH-C HPLCMT-EAST ZN SPACE FUNCTION HOSPITAL - LAUNDRY/WASHING ELEC EQUIP\".\n   ** Warning ** GetInternalHeatGains: ElectricEquipment Combination of ZoneList and Object Name generate a name too long.\n   **   ~~~   ** Object Name=\"SPACE FUNCTION HOTEL/MOTEL - ROOMS ELEC EQUIP\".\n   **   ~~~   ** ZoneList/Zone Name=\"SP-ROOM_3_MULT19_FLR_3 SYS-1 FLR-2 SCH-F HPLCMT-SOUTH ZN\".\n   **   ~~~   ** Item length=[101] > Maximum Length=[100]. You may need to shorten the names.\n   **   ~~~   ** Shortening the Object Name by [2] characters will assure uniqueness for this ZoneList.\n   **   ~~~   ** name that will be used (may be needed in reporting)=\"SP-ROOM_3_MULT19_FLR_3 SYS-1 FLR-2 SCH-F HPLCMT-SOUTH ZN SPACE FUNCTION HOTEL/MOTEL - ROOMS ELEC EQUIP\".\n   ** Warning ** GetInternalHeatGains: ElectricEquipment Combination of ZoneList and Object Name generate a name too long.\n   **   ~~~   ** Object Name=\"SPACE FUNCTION HOTEL/MOTEL - ROOMS ELEC EQUIP\".\n   **   ~~~   ** ZoneList/Zone Name=\"SP-ROOM_4_MULT19_FLR_3 SYS-1 FLR-2 SCH-F HPLCMT-NORTH ZN\".\n   **   ~~~   ** Item length=[101] > Maximum Length=[100]. You may need to shorten the names.\n   **   ~~~   ** Shortening the Object Name by [2] characters will assure uniqueness for this ZoneList.\n   **   ~~~   ** name that will be used (may be needed in reporting)=\"SP-ROOM_4_MULT19_FLR_3 SYS-1 FLR-2 SCH-F HPLCMT-NORTH ZN SPACE FUNCTION HOTEL/MOTEL - ROOMS ELEC EQUIP\".\n   ** Warning ** Calculated design heating load for zone=SP-BASEMENT SYS-4 FLR-3 SCH-E HPLCMT-NORTH ZN is zero.\n   **   ~~~   ** Check Sizing:Zone and ZoneControl:Thermostat inputs.\n   ** Warning ** Calculated design heating load for zone=SP-LOBBY_FLR_1 SYS-6 FLR-1 SCH-H HPLCMT-NORTH ZN is zero.\n   **   ~~~   ** Check Sizing:Zone and ZoneControl:Thermostat inputs.\n   ** Warning ** Calculated design heating load for zone=SP-MECH_FLR_1 SYS-6 FLR-1 SCH-E HPLCMT-NORTH ZN is zero.\n   **   ~~~   ** Check Sizing:Zone and ZoneControl:Thermostat inputs.\n   ** Warning ** Calculated design heating load for zone=SP-RETAIL_2_FLR_1 SYS-6 FLR-1 SCH-C HPLCMT-WEST ZN is zero.\n   **   ~~~   ** Check Sizing:Zone and ZoneControl:Thermostat inputs.\n   ** Warning ** Calculated design heating load for zone=SP-STORAGE_FLR_1 SYS-4 FLR-1 SCH-E HPLCMT-NORTH ZN is zero.\n   **   ~~~   ** Check Sizing:Zone and ZoneControl:Thermostat inputs.\n   ************* Beginning System Sizing Calculations\n   ** Warning ** Since Zone Minimum Air Flow Input Method = CONSTANT, input for Fixed Minimum Air Flow Rate will be ignored.\n   **   ~~~   ** Occurs in AirTerminal:SingleDuct:VAV:Reheat = AIR TERMINAL SINGLE DUCT VAV REHEAT 3\n   ** Warning ** Since Zone Minimum Air Flow Input Method = CONSTANT, input for Fixed Minimum Air Flow Rate will be ignored.\n   **   ~~~   ** Occurs in AirTerminal:SingleDuct:VAV:Reheat = AIR TERMINAL SINGLE DUCT VAV REHEAT 5\n   ** Warning ** Since Zone Minimum Air Flow Input Method = CONSTANT, input for Fixed Minimum Air Flow Rate will be ignored.\n   **   ~~~   ** Occurs in AirTerminal:SingleDuct:VAV:Reheat = AIR TERMINAL SINGLE DUCT VAV REHEAT 4\n   ** Warning ** Since Zone Minimum Air Flow Input Method = CONSTANT, input for Fixed Minimum Air Flow Rate will be ignored.\n   **   ~~~   ** Occurs in AirTerminal:SingleDuct:VAV:Reheat = AIR TERMINAL SINGLE DUCT VAV REHEAT 2\n   ** Warning ** Since Zone Minimum Air Flow Input Method = CONSTANT, input for Fixed Minimum Air Flow Rate will be ignored.\n   **   ~~~   ** Occurs in AirTerminal:SingleDuct:VAV:Reheat = AIR TERMINAL SINGLE DUCT VAV REHEAT 1\n   ** Warning ** GetDXCoils: Coil:Cooling:DX:SingleSpeed=\"COIL COOLING DX SINGLE SPEED 8 36KBTU/HR 9.3EER\", invalid\n   **   ~~~   ** ...Part Load Fraction Correlation Curve Name = DXCOOL-NECB2011-REF-COOLPLFFPLR 16 has out of range value.\n   **   ~~~   ** ...Curve maximum must be <= 1.0, curve max at PLR = 0.99 is 1.015\n   **   ~~~   ** ...Setting curve maximum to 1.0 and simulation continues.\n   ** Warning ** GetDXCoils: Coil:Cooling:DX:SingleSpeed=\"COIL COOLING DX SINGLE SPEED 5 16KBTU/HR 9.3EER\", invalid\n   **   ~~~   ** ...Part Load Fraction Correlation Curve Name = DXCOOL-NECB2011-REF-COOLPLFFPLR 13 has out of range value.\n   **   ~~~   ** ...Curve maximum must be <= 1.0, curve max at PLR = 0.99 is 1.015\n   **   ~~~   ** ...Setting curve maximum to 1.0 and simulation continues.\n   ** Warning ** GetDXCoils: Coil:Cooling:DX:SingleSpeed=\"COIL COOLING DX SINGLE SPEED 9 19KBTU/HR 9.3EER\", invalid\n   **   ~~~   ** ...Part Load Fraction Correlation Curve Name = DXCOOL-NECB2011-REF-COOLPLFFPLR 17 has out of range value.\n   **   ~~~   ** ...Curve maximum must be <= 1.0, curve max at PLR = 0.99 is 1.015\n   **   ~~~   ** ...Setting curve maximum to 1.0 and simulation continues.\n   ** Warning ** GetDXCoils: Coil:Cooling:DX:SingleSpeed=\"COIL COOLING DX SINGLE SPEED 6 16KBTU/HR 9.3EER\", invalid\n   **   ~~~   ** ...Part Load Fraction Correlation Curve Name = DXCOOL-NECB2011-REF-COOLPLFFPLR 14 has out of range value.\n   **   ~~~   ** ...Curve maximum must be <= 1.0, curve max at PLR = 0.99 is 1.015\n   **   ~~~   ** ...Setting curve maximum to 1.0 and simulation continues.\n   ** Warning ** GetDXCoils: Coil:Cooling:DX:SingleSpeed=\"COIL COOLING DX SINGLE SPEED 10 18KBTU/HR 9.3EER\", invalid\n   **   ~~~   ** ...Part Load Fraction Correlation Curve Name = DXCOOL-NECB2011-REF-COOLPLFFPLR 1 has out of range value.\n   **   ~~~   ** ...Curve maximum must be <= 1.0, curve max at PLR = 0.99 is 1.015\n   **   ~~~   ** ...Setting curve maximum to 1.0 and simulation continues.\n   ** Warning ** GetDXCoils: Coil:Cooling:DX:SingleSpeed=\"COIL COOLING DX SINGLE SPEED 7 4KBTU/HR 11.0EER\", invalid\n   **   ~~~   ** ...Part Load Fraction Correlation Curve Name = DXCOOL-NECB2011-REF-COOLPLFFPLR 15 has out of range value.\n   **   ~~~   ** ...Curve maximum must be <= 1.0, curve max at PLR = 0.99 is 1.015\n   **   ~~~   ** ...Setting curve maximum to 1.0 and simulation continues.\n   ** Warning ** GetDXCoils: Coil:Cooling:DX:SingleSpeed=\"COIL COOLING DX SINGLE SPEED 11 8KBTU/HR 10.8EER\", invalid\n   **   ~~~   ** ...Part Load Fraction Correlation Curve Name = DXCOOL-NECB2011-REF-COOLPLFFPLR 2 has out of range value.\n   **   ~~~   ** ...Curve maximum must be <= 1.0, curve max at PLR = 0.99 is 1.015\n   **   ~~~   ** ...Setting curve maximum to 1.0 and simulation continues.\n   ** Warning ** GetDXCoils: Coil:Cooling:DX:SingleSpeed=\"COIL COOLING DX SINGLE SPEED 2 2KBTU/HR 11.0EER\", invalid\n   **   ~~~   ** ...Part Load Fraction Correlation Curve Name = DXCOOL-NECB2011-REF-COOLPLFFPLR 10 has out of range value.\n   **   ~~~   ** ...Curve maximum must be <= 1.0, curve max at PLR = 0.99 is 1.015\n   **   ~~~   ** ...Setting curve maximum to 1.0 and simulation continues.\n   ** Warning ** GetDXCoils: Coil:Cooling:DX:SingleSpeed=\"COIL COOLING DX SINGLE SPEED 4 15KBTU/HR 9.3EER\", invalid\n   **   ~~~   ** ...Part Load Fraction Correlation Curve Name = DXCOOL-NECB2011-REF-COOLPLFFPLR 12 has out of range value.\n   **   ~~~   ** ...Curve maximum must be <= 1.0, curve max at PLR = 0.99 is 1.015\n   **   ~~~   ** ...Setting curve maximum to 1.0 and simulation continues.\n   ** Warning ** GetDXCoils: Coil:Cooling:DX:SingleSpeed=\"COIL COOLING DX SINGLE SPEED 3 15KBTU/HR 9.3EER\", invalid\n   **   ~~~   ** ...Part Load Fraction Correlation Curve Name = DXCOOL-NECB2011-REF-COOLPLFFPLR 11 has out of range value.\n   **   ~~~   ** ...Curve maximum must be <= 1.0, curve max at PLR = 0.99 is 1.015\n   **   ~~~   ** ...Setting curve maximum to 1.0 and simulation continues.\n   ** Warning ** GetDXCoils: Coil:Cooling:DX:SingleSpeed=\"COIL COOLING DX SINGLE SPEED 1 174KBTU/HR 9.7EER\", invalid\n   **   ~~~   ** ...Part Load Fraction Correlation Curve Name = DXCOOL-NECB2011-REF-COOLPLFFPLR has out of range value.\n   **   ~~~   ** ...Curve maximum must be <= 1.0, curve max at PLR = 0.99 is 1.015\n   **   ~~~   ** ...Setting curve maximum to 1.0 and simulation continues.\n   ** Warning ** GetDXCoils: Coil:Cooling:DX:SingleSpeed=\"COIL COOLING DX SINGLE SPEED 14 68KBTU/HR 9.7EER\", invalid\n   **   ~~~   ** ...Part Load Fraction Correlation Curve Name = DXCOOL-NECB2011-REF-COOLPLFFPLR 5 has out of range value.\n   **   ~~~   ** ...Curve maximum must be <= 1.0, curve max at PLR = 0.99 is 1.015\n   **   ~~~   ** ...Setting curve maximum to 1.0 and simulation continues.\n   ** Warning ** GetDXCoils: Coil:Cooling:DX:SingleSpeed=\"COIL COOLING DX SINGLE SPEED 18 67KBTU/HR 9.7EER\", invalid\n   **   ~~~   ** ...Part Load Fraction Correlation Curve Name = DXCOOL-NECB2011-REF-COOLPLFFPLR 9 has out of range value.\n   **   ~~~   ** ...Curve maximum must be <= 1.0, curve max at PLR = 0.99 is 1.015\n   **   ~~~   ** ...Setting curve maximum to 1.0 and simulation continues.\n   ** Warning ** GetDXCoils: Coil:Cooling:DX:SingleSpeed=\"COIL COOLING DX SINGLE SPEED 13 47KBTU/HR 14.0SEER\", invalid\n   **   ~~~   ** ...Part Load Fraction Correlation Curve Name = DXCOOL-NECB2011-REF-COOLPLFFPLR 4 has out of range value.\n   **   ~~~   ** ...Curve maximum must be <= 1.0, curve max at PLR = 0.99 is 1.015\n   **   ~~~   ** ...Setting curve maximum to 1.0 and simulation continues.\n   ** Warning ** GetDXCoils: Coil:Cooling:DX:SingleSpeed=\"COIL COOLING DX SINGLE SPEED 15 68KBTU/HR 9.7EER\", invalid\n   **   ~~~   ** ...Part Load Fraction Correlation Curve Name = DXCOOL-NECB2011-REF-COOLPLFFPLR 6 has out of range value.\n   **   ~~~   ** ...Curve maximum must be <= 1.0, curve max at PLR = 0.99 is 1.015\n   **   ~~~   ** ...Setting curve maximum to 1.0 and simulation continues.\n   ** Warning ** GetDXCoils: Coil:Cooling:DX:SingleSpeed=\"COIL COOLING DX SINGLE SPEED 16 51KBTU/HR 14.0SEER\", invalid\n   **   ~~~   ** ...Part Load Fraction Correlation Curve Name = DXCOOL-NECB2011-REF-COOLPLFFPLR 7 has out of range value.\n   **   ~~~   ** ...Curve maximum must be <= 1.0, curve max at PLR = 0.99 is 1.015\n   **   ~~~   ** ...Setting curve maximum to 1.0 and simulation continues.\n   ** Warning ** GetDXCoils: Coil:Cooling:DX:SingleSpeed=\"COIL COOLING DX SINGLE SPEED 12 12KBTU/HR 14.0SEER\", invalid\n   **   ~~~   ** ...Part Load Fraction Correlation Curve Name = DXCOOL-NECB2011-REF-COOLPLFFPLR 3 has out of range value.\n   **   ~~~   ** ...Curve maximum must be <= 1.0, curve max at PLR = 0.99 is 1.015\n   **   ~~~   ** ...Setting curve maximum to 1.0 and simulation continues.\n   ** Warning ** GetDXCoils: Coil:Cooling:DX:SingleSpeed=\"COIL COOLING DX SINGLE SPEED 17 5KBTU/HR 14.0SEER\", invalid\n   **   ~~~   ** ...Part Load Fraction Correlation Curve Name = DXCOOL-NECB2011-REF-COOLPLFFPLR 8 has out of range value.\n   **   ~~~   ** ...Curve maximum must be <= 1.0, curve max at PLR = 0.99 is 1.015\n   **   ~~~   ** ...Setting curve maximum to 1.0 and simulation continues.\n   ************* Beginning Plant Sizing Calculations\n   ** Warning ** The Standard Ratings is calculated for Coil:Cooling:DX:SingleSpeed = COIL COOLING DX SINGLE SPEED 8 36KBTU/HR 9.3EER but not at the AHRI test condition due to curve out of bound.\n   **   ~~~   **  Review the Standard Ratings calculations in the Engineering Reference for this coil type. Also, use Output:Diagnostics, DisplayExtraWarnings for further guidance.\n   ** Warning ** The Standard Ratings is calculated for Coil:Cooling:DX:SingleSpeed = COIL COOLING DX SINGLE SPEED 5 16KBTU/HR 9.3EER but not at the AHRI test condition due to curve out of bound.\n   **   ~~~   **  Review the Standard Ratings calculations in the Engineering Reference for this coil type. Also, use Output:Diagnostics, DisplayExtraWarnings for further guidance.\n   ** Warning ** The Standard Ratings is calculated for Coil:Cooling:DX:SingleSpeed = COIL COOLING DX SINGLE SPEED 9 19KBTU/HR 9.3EER but not at the AHRI test condition due to curve out of bound.\n   **   ~~~   **  Review the Standard Ratings calculations in the Engineering Reference for this coil type. Also, use Output:Diagnostics, DisplayExtraWarnings for further guidance.\n   ** Warning ** The Standard Ratings is calculated for Coil:Cooling:DX:SingleSpeed = COIL COOLING DX SINGLE SPEED 6 16KBTU/HR 9.3EER but not at the AHRI test condition due to curve out of bound.\n   **   ~~~   **  Review the Standard Ratings calculations in the Engineering Reference for this coil type. Also, use Output:Diagnostics, DisplayExtraWarnings for further guidance.\n   ** Warning ** The Standard Ratings is calculated for Coil:Cooling:DX:SingleSpeed = COIL COOLING DX SINGLE SPEED 10 18KBTU/HR 9.3EER but not at the AHRI test condition due to curve out of bound.\n   **   ~~~   **  Review the Standard Ratings calculations in the Engineering Reference for this coil type. Also, use Output:Diagnostics, DisplayExtraWarnings for further guidance.\n   ** Warning ** The Standard Ratings is calculated for Coil:Cooling:DX:SingleSpeed = COIL COOLING DX SINGLE SPEED 7 4KBTU/HR 11.0EER but not at the AHRI test condition due to curve out of bound.\n   **   ~~~   **  Review the Standard Ratings calculations in the Engineering Reference for this coil type. Also, use Output:Diagnostics, DisplayExtraWarnings for further guidance.\n   ** Warning ** The Standard Ratings is calculated for Coil:Cooling:DX:SingleSpeed = COIL COOLING DX SINGLE SPEED 11 8KBTU/HR 10.8EER but not at the AHRI test condition due to curve out of bound.\n   **   ~~~   **  Review the Standard Ratings calculations in the Engineering Reference for this coil type. Also, use Output:Diagnostics, DisplayExtraWarnings for further guidance.\n   ** Warning ** The Standard Ratings is calculated for Coil:Cooling:DX:SingleSpeed = COIL COOLING DX SINGLE SPEED 2 2KBTU/HR 11.0EER but not at the AHRI test condition due to curve out of bound.\n   **   ~~~   **  Review the Standard Ratings calculations in the Engineering Reference for this coil type. Also, use Output:Diagnostics, DisplayExtraWarnings for further guidance.\n   ** Warning ** The Standard Ratings is calculated for Coil:Cooling:DX:SingleSpeed = COIL COOLING DX SINGLE SPEED 4 15KBTU/HR 9.3EER but not at the AHRI test condition due to curve out of bound.\n   **   ~~~   **  Review the Standard Ratings calculations in the Engineering Reference for this coil type. Also, use Output:Diagnostics, DisplayExtraWarnings for further guidance.\n   ** Warning ** The Standard Ratings is calculated for Coil:Cooling:DX:SingleSpeed = COIL COOLING DX SINGLE SPEED 3 15KBTU/HR 9.3EER but not at the AHRI test condition due to curve out of bound.\n   **   ~~~   **  Review the Standard Ratings calculations in the Engineering Reference for this coil type. Also, use Output:Diagnostics, DisplayExtraWarnings for further guidance.\n   ** Warning ** The Standard Ratings is calculated for Coil:Cooling:DX:SingleSpeed = COIL COOLING DX SINGLE SPEED 1 174KBTU/HR 9.7EER but not at the AHRI test condition due to curve out of bound.\n   **   ~~~   **  Review the Standard Ratings calculations in the Engineering Reference for this coil type. Also, use Output:Diagnostics, DisplayExtraWarnings for further guidance.\n   ** Warning ** The Standard Ratings is calculated for Coil:Cooling:DX:SingleSpeed = COIL COOLING DX SINGLE SPEED 14 68KBTU/HR 9.7EER but not at the AHRI test condition due to curve out of bound.\n   **   ~~~   **  Review the Standard Ratings calculations in the Engineering Reference for this coil type. Also, use Output:Diagnostics, DisplayExtraWarnings for further guidance.\n   ** Warning ** The Standard Ratings is calculated for Coil:Cooling:DX:SingleSpeed = COIL COOLING DX SINGLE SPEED 18 67KBTU/HR 9.7EER but not at the AHRI test condition due to curve out of bound.\n   **   ~~~   **  Review the Standard Ratings calculations in the Engineering Reference for this coil type. Also, use Output:Diagnostics, DisplayExtraWarnings for further guidance.\n   ** Warning ** The Standard Ratings is calculated for Coil:Cooling:DX:SingleSpeed = COIL COOLING DX SINGLE SPEED 13 47KBTU/HR 14.0SEER but not at the AHRI test condition due to curve out of bound.\n   **   ~~~   **  Review the Standard Ratings calculations in the Engineering Reference for this coil type. Also, use Output:Diagnostics, DisplayExtraWarnings for further guidance.\n   ** Warning ** The Standard Ratings is calculated for Coil:Cooling:DX:SingleSpeed = COIL COOLING DX SINGLE SPEED 15 68KBTU/HR 9.7EER but not at the AHRI test condition due to curve out of bound.\n   **   ~~~   **  Review the Standard Ratings calculations in the Engineering Reference for this coil type. Also, use Output:Diagnostics, DisplayExtraWarnings for further guidance.\n   ** Warning ** The Standard Ratings is calculated for Coil:Cooling:DX:SingleSpeed = COIL COOLING DX SINGLE SPEED 16 51KBTU/HR 14.0SEER but not at the AHRI test condition due to curve out of bound.\n   **   ~~~   **  Review the Standard Ratings calculations in the Engineering Reference for this coil type. Also, use Output:Diagnostics, DisplayExtraWarnings for further guidance.\n   ** Warning ** The Standard Ratings is calculated for Coil:Cooling:DX:SingleSpeed = COIL COOLING DX SINGLE SPEED 12 12KBTU/HR 14.0SEER but not at the AHRI test condition due to curve out of bound.\n   **   ~~~   **  Review the Standard Ratings calculations in the Engineering Reference for this coil type. Also, use Output:Diagnostics, DisplayExtraWarnings for further guidance.\n   ** Warning ** The Standard Ratings is calculated for Coil:Cooling:DX:SingleSpeed = COIL COOLING DX SINGLE SPEED 17 5KBTU/HR 14.0SEER but not at the AHRI test condition due to curve out of bound.\n   **   ~~~   **  Review the Standard Ratings calculations in the Engineering Reference for this coil type. Also, use Output:Diagnostics, DisplayExtraWarnings for further guidance.\n   ** Warning ** Missing temperature setpoint for LeavingSetpointModulated mode chiller named PRIMARY CHILLER WATERCOOLED SCROLL 24TONS 0.8KW/TON\n   **   ~~~   **   A temperature setpoint is needed at the outlet node of a chiller in variable flow mode, use a SetpointManager\n   **   ~~~   **   The overall loop setpoint will be assumed for chiller. The simulation continues ... \n   ** Warning ** Missing temperature setpoint for LeavingSetpointModulated mode chiller named SECONDARY CHILLER WATERCOOLED SCROLL 0TONS 0.8KW/TON\n   **   ~~~   **   A temperature setpoint is needed at the outlet node of a chiller in variable flow mode, use a SetpointManager\n   **   ~~~   **   The overall loop setpoint will be assumed for chiller. The simulation continues ... \n   ** Warning ** Missing temperature setpoint for LeavingSetpointModulated mode Boiler named PRIMARY BOILER 1664KBTU/HR 0.83 THERMAL EFF\n   **   ~~~   **   A temperature setpoint is needed at the outlet node of a boiler in variable flow mode, use a SetpointManager\n   **   ~~~   **   The overall loop setpoint will be assumed for Boiler. The simulation continues ... \n   ** Warning ** Output:Meter: invalid Name=\"DISTRICTCOOLING:FACILITY\" - not found.\n   ** Warning ** Output:Meter: invalid Name=\"DISTRICTHEATING:FACILITY\" - not found.\n   ** Warning ** Output:Meter:MeterFileOnly requested for \"Electricity:Facility\" (TimeStep), already on \"Output:Meter\". Will report to both eplusout.eso and eplusout.mtr\n   ************* Testing Individual Branch Integrity\n   ************* All Branches passed integrity testing\n   ************* Testing Individual Supply Air Path Integrity\n   ************* All Supply Air Paths passed integrity testing\n   ************* Testing Individual Return Air Path Integrity\n   ************* All Return Air Paths passed integrity testing\n   ************* No node connection errors were found.\n   ************* Beginning Simulation\n   ** Warning ** CalcDoe2DXCoil: Coil:Cooling:DX:SingleSpeed \"COIL COOLING DX SINGLE SPEED 7 4KBTU/HR 11.0EER\" - Air-cooled condenser inlet dry-bulb temperature below 0 C. Outdoor dry-bulb temperature = -0.28\n   **   ~~~   **  ... Occurrence info = RUN PERIOD 1, 01/03 20:00 - 20:08\n   **   ~~~   ** ... Operation at low ambient temperatures may require special performance curves.\n   ** Warning ** CalcDoe2DXCoil: Coil:Cooling:DX:SingleSpeed \"COIL COOLING DX SINGLE SPEED 17 5KBTU/HR 14.0SEER\" - Full load outlet air dry-bulb temperature < 2C. This indicates the possibility of coil frost/freeze. Outlet temperature = 1.22 C.\n   **   ~~~   **  ...Occurrence info = RUN PERIOD 1, 01/04 08:19 - 08:22\n   **   ~~~   ** ... Possible reasons for low outlet air dry-bulb temperatures are: This DX coil\n   **   ~~~   **    1) may have a low inlet air dry-bulb temperature. Inlet air temperature = 13.825 C.\n   **   ~~~   **    2) may have a low air flow rate per watt of cooling capacity. Check inputs.\n   **   ~~~   **    3) is used as part of a HX assisted cooling coil which uses a high sensible effectiveness. Check inputs.\n   ** Warning ** CalcDoe2DXCoil: Coil:Cooling:DX:SingleSpeed \"COIL COOLING DX SINGLE SPEED 13 47KBTU/HR 14.0SEER\" - Air-cooled condenser inlet dry-bulb temperature below 0 C. Outdoor dry-bulb temperature = -0.43\n   **   ~~~   **  ... Occurrence info = RUN PERIOD 1, 01/06 07:02 - 07:04\n   **   ~~~   ** ... Operation at low ambient temperatures may require special performance curves.\n   ** Warning ** CalcDoe2DXCoil: Coil:Cooling:DX:SingleSpeed \"COIL COOLING DX SINGLE SPEED 14 68KBTU/HR 9.7EER\" - Air-cooled condenser inlet dry-bulb temperature below 0 C. Outdoor dry-bulb temperature = -1.13\n   **   ~~~   **  ... Occurrence info = RUN PERIOD 1, 01/06 08:02 - 08:05\n   **   ~~~   ** ... Operation at low ambient temperatures may require special performance curves.\n   ** Warning ** CalcDoe2DXCoil: Coil:Cooling:DX:SingleSpeed \"COIL COOLING DX SINGLE SPEED 15 68KBTU/HR 9.7EER\" - Air-cooled condenser inlet dry-bulb temperature below 0 C. Outdoor dry-bulb temperature = -1.13\n   **   ~~~   **  ... Occurrence info = RUN PERIOD 1, 01/06 08:02 - 08:05\n   **   ~~~   ** ... Operation at low ambient temperatures may require special performance curves.\n   ** Warning ** CalcDoe2DXCoil: Coil:Cooling:DX:SingleSpeed \"COIL COOLING DX SINGLE SPEED 16 51KBTU/HR 14.0SEER\" - Air-cooled condenser inlet dry-bulb temperature below 0 C. Outdoor dry-bulb temperature = -1.13\n   **   ~~~   **  ... Occurrence info = RUN PERIOD 1, 01/06 08:02 - 08:05\n   **   ~~~   ** ... Operation at low ambient temperatures may require special performance curves.\n   ** Warning ** CalcDoe2DXCoil: Coil:Cooling:DX:SingleSpeed \"COIL COOLING DX SINGLE SPEED 17 5KBTU/HR 14.0SEER\" - Air-cooled condenser inlet dry-bulb temperature below 0 C. Outdoor dry-bulb temperature = -1.13\n   **   ~~~   **  ... Occurrence info = RUN PERIOD 1, 01/06 08:08 - 08:10\n   **   ~~~   ** ... Operation at low ambient temperatures may require special performance curves.\n   ** Warning ** CalcDoe2DXCoil: Coil:Cooling:DX:SingleSpeed \"COIL COOLING DX SINGLE SPEED 5 16KBTU/HR 9.3EER\" - Air-cooled condenser inlet dry-bulb temperature below 0 C. Outdoor dry-bulb temperature = -0.60\n   **   ~~~   **  ... Occurrence info = RUN PERIOD 1, 01/06 16:45 - 16:50\n   **   ~~~   ** ... Operation at low ambient temperatures may require special performance curves.\n   ** Warning ** CalcDoe2DXCoil: Coil:Cooling:DX:SingleSpeed \"COIL COOLING DX SINGLE SPEED 11 8KBTU/HR 10.8EER\" - Air-cooled condenser inlet dry-bulb temperature below 0 C. Outdoor dry-bulb temperature = -0.60\n   **   ~~~   **  ... Occurrence info = RUN PERIOD 1, 01/06 16:45 - 16:50\n   **   ~~~   ** ... Operation at low ambient temperatures may require special performance curves.\n   ** Warning ** CalcDoe2DXCoil: Coil:Cooling:DX:SingleSpeed \"COIL COOLING DX SINGLE SPEED 2 2KBTU/HR 11.0EER\" - Full load outlet air dry-bulb temperature < 2C. This indicates the possibility of coil frost/freeze. Outlet temperature = 1.99 C.\n   **   ~~~   **  ...Occurrence info = RUN PERIOD 1, 02/03 22:45 - 23:00\n   **   ~~~   ** ... Possible reasons for low outlet air dry-bulb temperatures are: This DX coil\n   **   ~~~   **    1) may have a low inlet air dry-bulb temperature. Inlet air temperature = 13.071 C.\n   **   ~~~   **    2) may have a low air flow rate per watt of cooling capacity. Check inputs.\n   **   ~~~   **    3) is used as part of a HX assisted cooling coil which uses a high sensible effectiveness. Check inputs.\n   ** Warning ** CalcDoe2DXCoil: Coil:Cooling:DX:SingleSpeed \"COIL COOLING DX SINGLE SPEED 18 67KBTU/HR 9.7EER\" - Full load outlet air dry-bulb temperature < 2C. This indicates the possibility of coil frost/freeze. Outlet temperature = 1.89 C.\n   **   ~~~   **  ...Occurrence info = RUN PERIOD 1, 02/04 09:15 - 09:22\n   **   ~~~   ** ... Possible reasons for low outlet air dry-bulb temperatures are: This DX coil\n   **   ~~~   **    1) may have a low inlet air dry-bulb temperature. Inlet air temperature = 11.898 C.\n   **   ~~~   **    2) may have a low air flow rate per watt of cooling capacity. Check inputs.\n   **   ~~~   **    3) is used as part of a HX assisted cooling coil which uses a high sensible effectiveness. Check inputs.\n   ** Warning ** CalcDoe2DXCoil: Coil:Cooling:DX:SingleSpeed \"COIL COOLING DX SINGLE SPEED 9 19KBTU/HR 9.3EER\" - Air-cooled condenser inlet dry-bulb temperature below 0 C. Outdoor dry-bulb temperature = -0.85\n   **   ~~~   **  ... Occurrence info = RUN PERIOD 1, 02/26 18:15 - 18:22\n   **   ~~~   ** ... Operation at low ambient temperatures may require special performance curves.\n   ** Warning ** CalcDoe2DXCoil: Coil:Cooling:DX:SingleSpeed \"COIL COOLING DX SINGLE SPEED 6 16KBTU/HR 9.3EER\" - Air-cooled condenser inlet dry-bulb temperature below 0 C. Outdoor dry-bulb temperature = -0.85\n   **   ~~~   **  ... Occurrence info = RUN PERIOD 1, 02/26 18:15 - 18:22\n   **   ~~~   ** ... Operation at low ambient temperatures may require special performance curves.\n   ** Warning ** CalcDoe2DXCoil: Coil:Cooling:DX:SingleSpeed \"COIL COOLING DX SINGLE SPEED 10 18KBTU/HR 9.3EER\" - Air-cooled condenser inlet dry-bulb temperature below 0 C. Outdoor dry-bulb temperature = -0.85\n   **   ~~~   **  ... Occurrence info = RUN PERIOD 1, 02/26 18:15 - 18:22\n   **   ~~~   ** ... Operation at low ambient temperatures may require special performance curves.\n   ** Warning ** CalcDoe2DXCoil: Coil:Cooling:DX:SingleSpeed \"COIL COOLING DX SINGLE SPEED 8 36KBTU/HR 9.3EER\" - Air-cooled condenser inlet dry-bulb temperature below 0 C. Outdoor dry-bulb temperature = -0.70\n   **   ~~~   **  ... Occurrence info = RUN PERIOD 1, 02/28 18:30 - 18:45\n   **   ~~~   ** ... Operation at low ambient temperatures may require special performance curves.\n   ** Warning ** CalcDoe2DXCoil: Coil:Cooling:DX:SingleSpeed \"COIL COOLING DX SINGLE SPEED 2 2KBTU/HR 11.0EER\" - Air-cooled condenser inlet dry-bulb temperature below 0 C. Outdoor dry-bulb temperature = -0.85\n   **   ~~~   **  ... Occurrence info = RUN PERIOD 1, 03/02 22:15 - 22:30\n   **   ~~~   ** ... Operation at low ambient temperatures may require special performance curves.\n   ** Warning ** CalcDoe2DXCoil: Coil:Cooling:DX:SingleSpeed \"COIL COOLING DX SINGLE SPEED 12 12KBTU/HR 14.0SEER\" - Full load outlet air dry-bulb temperature < 2C. This indicates the possibility of coil frost/freeze. Outlet temperature = 1.87 C.\n   **   ~~~   **  ...Occurrence info = RUN PERIOD 1, 05/17 07:03 - 07:06\n   **   ~~~   ** ... Possible reasons for low outlet air dry-bulb temperatures are: This DX coil\n   **   ~~~   **    1) may have a low inlet air dry-bulb temperature. Inlet air temperature = 12.013 C.\n   **   ~~~   **    2) may have a low air flow rate per watt of cooling capacity. Check inputs.\n   **   ~~~   **    3) is used as part of a HX assisted cooling coil which uses a high sensible effectiveness. Check inputs.\n   ************* Simulation Error Summary *************\n   ************* There are 9 unused schedules in input.\n   ************* There are 9 unused week schedules in input.\n   ************* There are 35 unused day schedules in input.\n   ************* Use Output:Diagnostics,DisplayUnusedSchedules; to see them.\n   *************\n   ************* ===== Recurring Error Summary =====\n   ************* The following recurring error messages occurred.\n   *************\n   *************  ** Warning ** CalcDoe2DXCoil: Coil:Cooling:DX:SingleSpeed=\"COIL COOLING DX SINGLE SPEED 7 4KBTU/HR 11.0EER\" - Low condenser dry-bulb temperature error continues...\n   *************  **   ~~~   **   This error occurred 462 total times;\n   *************  **   ~~~   **   during Warmup 0 times;\n   *************  **   ~~~   **   during Sizing 0 times.\n   *************  **   ~~~   **   Max=-2.500000E-002 [C]  Min=-2.8 [C]\n   *************\n   *************  ** Warning ** CalcDoe2DXCoil: Coil:Cooling:DX:SingleSpeed=\"COIL COOLING DX SINGLE SPEED 17 5KBTU/HR 14.0SEER\" - Full load outlet temperature indicates a possibility of frost/freeze error continues. Outlet air temperature statistics follow:\n   *************  **   ~~~   **   This error occurred 43 total times;\n   *************  **   ~~~   **   during Warmup 0 times;\n   *************  **   ~~~   **   during Sizing 0 times.\n   *************  **   ~~~   **   Max=1.999028  Min=0.128643\n   *************\n   *************  ** Warning ** CalcDoe2DXCoil: Coil:Cooling:DX:SingleSpeed=\"COIL COOLING DX SINGLE SPEED 13 47KBTU/HR 14.0SEER\" - Low condenser dry-bulb temperature error continues...\n   *************  **   ~~~   **   This error occurred 11 total times;\n   *************  **   ~~~   **   during Warmup 0 times;\n   *************  **   ~~~   **   during Sizing 0 times.\n   *************  **   ~~~   **   Max=-0.15 [C]  Min=-3.625 [C]\n   *************\n   *************  ** Warning ** CalcDoe2DXCoil: Coil:Cooling:DX:SingleSpeed=\"COIL COOLING DX SINGLE SPEED 14 68KBTU/HR 9.7EER\" - Low condenser dry-bulb temperature error continues...\n   *************  **   ~~~   **   This error occurred 18 total times;\n   *************  **   ~~~   **   during Warmup 0 times;\n   *************  **   ~~~   **   during Sizing 0 times.\n   *************  **   ~~~   **   Max=-0.25 [C]  Min=-2.525 [C]\n   *************\n   *************  ** Warning ** CalcDoe2DXCoil: Coil:Cooling:DX:SingleSpeed=\"COIL COOLING DX SINGLE SPEED 15 68KBTU/HR 9.7EER\" - Low condenser dry-bulb temperature error continues...\n   *************  **   ~~~   **   This error occurred 18 total times;\n   *************  **   ~~~   **   during Warmup 0 times;\n   *************  **   ~~~   **   during Sizing 0 times.\n   *************  **   ~~~   **   Max=-0.25 [C]  Min=-2.525 [C]\n   *************\n   *************  ** Warning ** CalcDoe2DXCoil: Coil:Cooling:DX:SingleSpeed=\"COIL COOLING DX SINGLE SPEED 16 51KBTU/HR 14.0SEER\" - Low condenser dry-bulb temperature error continues...\n   *************  **   ~~~   **   This error occurred 36 total times;\n   *************  **   ~~~   **   during Warmup 0 times;\n   *************  **   ~~~   **   during Sizing 0 times.\n   *************  **   ~~~   **   Max=-0.1 [C]  Min=-2.525 [C]\n   *************\n   *************  ** Warning ** CalcDoe2DXCoil: Coil:Cooling:DX:SingleSpeed=\"COIL COOLING DX SINGLE SPEED 17 5KBTU/HR 14.0SEER\" - Low condenser dry-bulb temperature error continues...\n   *************  **   ~~~   **   This error occurred 9 total times;\n   *************  **   ~~~   **   during Warmup 0 times;\n   *************  **   ~~~   **   during Sizing 0 times.\n   *************  **   ~~~   **   Max=-0.1 [C]  Min=-2.525 [C]\n   *************\n   *************  ** Warning ** CalcDoe2DXCoil: Coil:Cooling:DX:SingleSpeed=\"COIL COOLING DX SINGLE SPEED 5 16KBTU/HR 9.3EER\" - Low condenser dry-bulb temperature error continues...\n   *************  **   ~~~   **   This error occurred 35 total times;\n   *************  **   ~~~   **   during Warmup 0 times;\n   *************  **   ~~~   **   during Sizing 0 times.\n   *************  **   ~~~   **   Max=-2.500000E-002 [C]  Min=-2.1 [C]\n   *************\n   *************  ** Warning ** CalcDoe2DXCoil: Coil:Cooling:DX:SingleSpeed=\"COIL COOLING DX SINGLE SPEED 11 8KBTU/HR 10.8EER\" - Low condenser dry-bulb temperature error continues...\n   *************  **   ~~~   **   This error occurred 15 total times;\n   *************  **   ~~~   **   during Warmup 0 times;\n   *************  **   ~~~   **   during Sizing 0 times.\n   *************  **   ~~~   **   Max=-0.25 [C]  Min=-1.825 [C]\n   *************\n   *************  ** Warning ** CalcDoe2DXCoil: Coil:Cooling:DX:SingleSpeed=\"COIL COOLING DX SINGLE SPEED 2 2KBTU/HR 11.0EER\" - Full load outlet temperature indicates a possibility of frost/freeze error continues. Outlet air temperature statistics follow:\n   *************  **   ~~~   **   This error occurred 105 total times;\n   *************  **   ~~~   **   during Warmup 0 times;\n   *************  **   ~~~   **   during Sizing 0 times.\n   *************  **   ~~~   **   Max=1.996349  Min=0.410641\n   *************\n   *************  ** Warning ** CalcDoe2DXCoil: Coil:Cooling:DX:SingleSpeed=\"COIL COOLING DX SINGLE SPEED 18 67KBTU/HR 9.7EER\" - Full load outlet temperature indicates a possibility of frost/freeze error continues. Outlet air temperature statistics follow:\n   *************  **   ~~~   **   This error occurred 4 total times;\n   *************  **   ~~~   **   during Warmup 0 times;\n   *************  **   ~~~   **   during Sizing 0 times.\n   *************  **   ~~~   **   Max=1.995856  Min=1.235244\n   *************\n   *************  ** Warning ** CalcDoe2DXCoil: Coil:Cooling:DX:SingleSpeed=\"COIL COOLING DX SINGLE SPEED 9 19KBTU/HR 9.3EER\" - Low condenser dry-bulb temperature error continues...\n   *************  **   ~~~   **   This error occurred 2 total times;\n   *************  **   ~~~   **   during Warmup 0 times;\n   *************  **   ~~~   **   during Sizing 0 times.\n   *************  **   ~~~   **   Max=-0.85 [C]  Min=-0.85 [C]\n   *************\n   *************  ** Warning ** CalcDoe2DXCoil: Coil:Cooling:DX:SingleSpeed=\"COIL COOLING DX SINGLE SPEED 6 16KBTU/HR 9.3EER\" - Low condenser dry-bulb temperature error continues...\n   *************  **   ~~~   **   This error occurred 15 total times;\n   *************  **   ~~~   **   during Warmup 0 times;\n   *************  **   ~~~   **   during Sizing 0 times.\n   *************  **   ~~~   **   Max=-2.500000E-002 [C]  Min=-1.7 [C]\n   *************\n   *************  ** Warning ** CalcDoe2DXCoil: Coil:Cooling:DX:SingleSpeed=\"COIL COOLING DX SINGLE SPEED 10 18KBTU/HR 9.3EER\" - Low condenser dry-bulb temperature error continues...\n   *************  **   ~~~   **   This error occurred 3 total times;\n   *************  **   ~~~   **   during Warmup 0 times;\n   *************  **   ~~~   **   during Sizing 0 times.\n   *************  **   ~~~   **   Max=-2.500000E-002 [C]  Min=-0.85 [C]\n   *************\n   *************  ** Warning ** CalcDoe2DXCoil: Coil:Cooling:DX:SingleSpeed=\"COIL COOLING DX SINGLE SPEED 8 36KBTU/HR 9.3EER\" - Low condenser dry-bulb temperature error continues...\n   *************  **   ~~~   **   This error occurred 1 total times;\n   *************  **   ~~~   **   during Warmup 0 times;\n   *************  **   ~~~   **   during Sizing 0 times.\n   *************  **   ~~~   **   Max=-0.7 [C]  Min=-0.7 [C]\n   *************\n   *************  ** Warning ** CalcDoe2DXCoil: Coil:Cooling:DX:SingleSpeed=\"COIL COOLING DX SINGLE SPEED 2 2KBTU/HR 11.0EER\" - Low condenser dry-bulb temperature error continues...\n   *************  **   ~~~   **   This error occurred 6 total times;\n   *************  **   ~~~   **   during Warmup 0 times;\n   *************  **   ~~~   **   during Sizing 0 times.\n   *************  **   ~~~   **   Max=-0.275 [C]  Min=-1.1 [C]\n   *************\n   *************  ** Warning ** CalcDoe2DXCoil: Coil:Cooling:DX:SingleSpeed=\"COIL COOLING DX SINGLE SPEED 12 12KBTU/HR 14.0SEER\" - Full load outlet temperature indicates a possibility of frost/freeze error continues. Outlet air temperature statistics follow:\n   *************  **   ~~~   **   This error occurred 1 total times;\n   *************  **   ~~~   **   during Warmup 0 times;\n   *************  **   ~~~   **   during Sizing 0 times.\n   *************  **   ~~~   **   Max=1.866486  Min=1.866486\n   *************\n   *************\n   ************* ===== Final Error Summary =====\n   ************* The following error categories occurred.  Consider correcting or noting.\n   ************* Nominally Unused Constructions\n   ************* ..The nominally unused constructions warning is provided to alert you to potential conditions that can cause\n   ************* ..extra time during simulation. Each construction is calculated by the algorithm indicated in the HeatBalanceAlgorithm\n   ************* ..object. You may remove the constructions indicated (when you use the DisplayExtraWarnings option).\n   *************\n   ************* EnergyPlus Warmup Error Summary. During Warmup: 0 Warning; 0 Severe Errors.\n   ************* EnergyPlus Sizing Error Summary. During Sizing: 166 Warning; 0 Severe Errors.\n   ************* EnergyPlus Completed Successfully-- 975 Warning; 0 Severe Errors; Elapsed Time=00hr 04min 30.99sec\n",
   "file_format_version" : "0.0.1",
   "file_paths" : [ "../weather", "../seeds", "../seed" ],
   "hash" : "3BFA5CC1",
   "measure_paths" : [ "../measures" ],
   "name" : "LHS Autogenerated 245",
   "osa_id" : "4fef0e0f-5396-4c55-a6e1-2cd6803db3ab",
   "osd_id" : "50e384d5-207e-4a6e-9960-47e038091fc1",
   "run_directory" : "./run",
   "seed_file" : "seed.osm",
   "started_at" : "20170710T183215Z",
   "steps" : [
      {
         "arguments" : {
            "__SKIP__" : false,
            "building_type" : "LargeHotel",
            "climate_zone" : "NECB HDD Method",
            "epw_file" : "CAN_BC_Victoria.717990_CWEC.epw",
            "template" : "NECB 2011"
         },
         "measure_dir_name" : "create_prototype_building",
         "name" : "create_prototype_building",
         "result" : {
            "completed_at" : "20170710T183401Z",
            "measure_class_name" : "CreatePrototypeBuilding",
            "measure_display_name" : "Create Prototype Building",
            "measure_name" : "create_prototype_building",
            "measure_taxonomy" : "Whole Building.Space Types",
            "measure_type" : "ModelMeasure",
            "measure_uid" : "ae90fsd7-a651-467a-bc8d-29d310b0f937",
            "measure_version_id" : "c6ec5c18-5595-459f-a082-09a19c8c869c",
            "measure_version_modified" : "20170519T182315Z",
            "measure_xml_checksum" : "057E8D9D",
            "started_at" : "20170710T183217Z",
            "stderr" : "",
            "stdout" : "[OpenStudio.Measure] <0> OSArgumentVector is deprecated, use OpenStudio::Measure::OSArgumentVector instead.\n[openstudio.EpwFile] <0> Successive data points (1970-Jan-31 to 1960-Feb-01, ending on line 753) are greater than 1 day apart in EPW file '/usr/local/bundle/bundler/gems/openstudio-standards-f448df66933d/openstudio-standards/data/weather/CAN_BC_Victoria.717990_CWEC.epw'. Data will be treated as typical (TMY)\n[openstudio.setFileExtension] <0> Path p, '/usr/local/bundle/bundler/gems/openstudio-standards-f448df66933d/openstudio-standards/data/weather/CAN_BC_Victoria.717990_CWEC.ddy', has an unexpected file extension. Was expecting 'idf'.\n[openstudio.model.YearDescription] <1> 'UseWeatherFile' is not yet a supported option for YearDescription\n[openstudio.model.YearDescription] <1> 'UseWeatherFile' is not yet a supported option for YearDescription\n[openstudio.setFileExtension] <0> Path p, '/usr/local/bundle/bundler/gems/openstudio-standards-f448df66933d/openstudio-standards/data/weather/CAN_BC_Victoria.717990_CWEC.ddy', has an unexpected file extension. Was expecting 'idf'.\n[openstudio.model.YearDescription] <1> 'UseWeatherFile' is not yet a supported option for YearDescription\n[openstudio.model.YearDescription] <1> 'UseWeatherFile' is not yet a supported option for YearDescription\n[openstudio.EpwFile] <0> Successive data points (1970-Jan-31 to 1960-Feb-01, ending on line 753) are greater than 1 day apart in EPW file '/usr/local/bundle/bundler/gems/openstudio-standards-f448df66933d/openstudio-standards/data/weather/CAN_BC_Victoria.717990_CWEC.epw'. Data will be treated as typical (TMY)\n[openstudio.weather.Model] <0> Could not find ground temperatures; will use generic temperatures, which will skew results.\n[openstudio.setFileExtension] <0> Path p, '/usr/local/bundle/bundler/gems/openstudio-standards-f448df66933d/openstudio-standards/data/weather/CAN_BC_Victoria.717990_CWEC.ddy', has an unexpected file extension. Was expecting 'idf'.\n[openstudio.model.YearDescription] <1> 'UseWeatherFile' is not yet a supported option for YearDescription\n[openstudio.model.YearDescription] <1> 'UseWeatherFile' is not yet a supported option for YearDescription\n[openstudio.EpwFile] <0> Successive data points (1970-Jan-31 to 1960-Feb-01, ending on line 753) are greater than 1 day apart in EPW file '/usr/local/bundle/bundler/gems/openstudio-standards-f448df66933d/openstudio-standards/data/weather/CAN_BC_Victoria.717990_CWEC.epw'. Data will be treated as typical (TMY)\n[openstudio.setFileExtension] <0> Path p, '/usr/local/bundle/bundler/gems/openstudio-standards-f448df66933d/openstudio-standards/data/weather/CAN_BC_Victoria.717990_CWEC.ddy', has an unexpected file extension. Was expecting 'idf'.\n[openstudio.model.YearDescription] <1> 'UseWeatherFile' is not yet a supported option for YearDescription\n[openstudio.model.YearDescription] <1> 'UseWeatherFile' is not yet a supported option for YearDescription\n[openstudio.setFileExtension] <0> Path p, '/usr/local/bundle/bundler/gems/openstudio-standards-f448df66933d/openstudio-standards/data/weather/CAN_BC_Victoria.717990_CWEC.ddy', has an unexpected file extension. Was expecting 'idf'.\n[openstudio.model.YearDescription] <1> 'UseWeatherFile' is not yet a supported option for YearDescription\n[openstudio.model.YearDescription] <1> 'UseWeatherFile' is not yet a supported option for YearDescription\n[openstudio.EpwFile] <0> Successive data points (1970-Jan-31 to 1960-Feb-01, ending on line 753) are greater than 1 day apart in EPW file '/usr/local/bundle/bundler/gems/openstudio-standards-f448df66933d/openstudio-standards/data/weather/CAN_BC_Victoria.717990_CWEC.epw'. Data will be treated as typical (TMY)\n[openstudio.setFileExtension] <0> Path p, '/usr/local/bundle/bundler/gems/openstudio-standards-f448df66933d/openstudio-standards/data/weather/CAN_BC_Victoria.717990_CWEC.ddy', has an unexpected file extension. Was expecting 'idf'.\n[openstudio.model.YearDescription] <1> 'UseWeatherFile' is not yet a supported option for YearDescription\n[openstudio.model.YearDescription] <1> 'UseWeatherFile' is not yet a supported option for YearDescription\n[openstudio.setFileExtension] <0> Path p, '/usr/local/bundle/bundler/gems/openstudio-standards-f448df66933d/openstudio-standards/data/weather/CAN_BC_Victoria.717990_CWEC.ddy', has an unexpected file extension. Was expecting 'idf'.\n[openstudio.model.YearDescription] <1> 'UseWeatherFile' is not yet a supported option for YearDescription\n[openstudio.model.YearDescription] <1> 'UseWeatherFile' is not yet a supported option for YearDescription\n[utilities.idf.WorkspaceObject] <0> Object of type 'Schedule:Constant' and named 'Always Off Discrete', points to an object named OnOff 1 from field 1, but that object cannot be located.\n[utilities.idf.WorkspaceObject] <0> Object of type 'Schedule:Constant' and named 'Always On Continuous', points to an object named Fractional 1 from field 1, but that object cannot be located.\n[utilities.idf.WorkspaceObject] <0> Object of type 'Schedule:Constant' and named 'Always Off Discrete', points to an object named OnOff 1 from field 1, but that object cannot be located.\n[utilities.idf.WorkspaceObject] <0> Object of type 'Schedule:Constant' and named 'Always On Continuous', points to an object named Fractional 1 from field 1, but that object cannot be located.\n[openstudio.standards.Fan] <0> For Fan Constant Volume 1, there is no greater nominal HP.  Use the efficiency of the largest motor category.\n[openstudio.standards.Fan] <0> For Fan Constant Volume 12, there is no greater nominal HP.  Use the efficiency of the largest motor category.\n[openstudio.standards.Fan] <0> For Fan Constant Volume 13, there is no greater nominal HP.  Use the efficiency of the largest motor category.\n[openstudio.standards.Fan] <0> For Fan Constant Volume 14, there is no greater nominal HP.  Use the efficiency of the largest motor category.\n[openstudio.standards.Fan] <0> For Fan Constant Volume 15, there is no greater nominal HP.  Use the efficiency of the largest motor category.\n[openstudio.standards.Fan] <0> For Fan Constant Volume 16, there is no greater nominal HP.  Use the efficiency of the largest motor category.\n[openstudio.standards.Fan] <0> For Fan Constant Volume 17, there is no greater nominal HP.  Use the efficiency of the largest motor category.\n[openstudio.standards.Fan] <0> For Fan Constant Volume 18, there is no greater nominal HP.  Use the efficiency of the largest motor category.\n[openstudio.standards.Fan] <0> For Fan Variable Volume 1, there is no greater nominal HP.  Use the efficiency of the largest motor category.\n[openstudio.EpwFile] <0> Successive data points (1970-Jan-31 to 1960-Feb-01, ending on line 753) are greater than 1 day apart in EPW file '/usr/local/bundle/bundler/gems/openstudio-standards-f448df66933d/openstudio-standards/data/weather/CAN_BC_Victoria.717990_CWEC.epw'. Data will be treated as typical (TMY)\n[openstudio.setFileExtension] <0> Path p, '/usr/local/bundle/bundler/gems/openstudio-standards-f448df66933d/openstudio-standards/data/weather/CAN_BC_Victoria.717990_CWEC.ddy', has an unexpected file extension. Was expecting 'idf'.\n[openstudio.model.YearDescription] <1> 'UseWeatherFile' is not yet a supported option for YearDescription\n[openstudio.model.YearDescription] <1> 'UseWeatherFile' is not yet a supported option for YearDescription\n[openstudio.setFileExtension] <0> Path p, '/usr/local/bundle/bundler/gems/openstudio-standards-f448df66933d/openstudio-standards/data/weather/CAN_BC_Victoria.717990_CWEC.ddy', has an unexpected file extension. Was expecting 'idf'.\n[openstudio.model.YearDescription] <1> 'UseWeatherFile' is not yet a supported option for YearDescription\n[openstudio.model.YearDescription] <1> 'UseWeatherFile' is not yet a supported option for YearDescription\n[openstudio.EpwFile] <0> Successive data points (1970-Jan-31 to 1960-Feb-01, ending on line 753) are greater than 1 day apart in EPW file '/usr/local/bundle/bundler/gems/openstudio-standards-f448df66933d/openstudio-standards/data/weather/CAN_BC_Victoria.717990_CWEC.epw'. Data will be treated as typical (TMY)\n[openstudio.setFileExtension] <0> Path p, '/usr/local/bundle/bundler/gems/openstudio-standards-f448df66933d/openstudio-standards/data/weather/CAN_BC_Victoria.717990_CWEC.ddy', has an unexpected file extension. Was expecting 'idf'.\n[openstudio.model.YearDescription] <1> 'UseWeatherFile' is not yet a supported option for YearDescription\n[openstudio.model.YearDescription] <1> 'UseWeatherFile' is not yet a supported option for YearDescription\n[openstudio.setFileExtension] <0> Path p, '/usr/local/bundle/bundler/gems/openstudio-standards-f448df66933d/openstudio-standards/data/weather/CAN_BC_Victoria.717990_CWEC.ddy', has an unexpected file extension. Was expecting 'idf'.\n[openstudio.model.YearDescription] <1> 'UseWeatherFile' is not yet a supported option for YearDescription\n[openstudio.model.YearDescription] <1> 'UseWeatherFile' is not yet a supported option for YearDescription\n[openstudio.EpwFile] <0> Successive data points (1970-Jan-31 to 1960-Feb-01, ending on line 753) are greater than 1 day apart in EPW file '/usr/local/bundle/bundler/gems/openstudio-standards-f448df66933d/openstudio-standards/data/weather/CAN_BC_Victoria.717990_CWEC.epw'. Data will be treated as typical (TMY)\n[openstudio.setFileExtension] <0> Path p, '/usr/local/bundle/bundler/gems/openstudio-standards-f448df66933d/openstudio-standards/data/weather/CAN_BC_Victoria.717990_CWEC.ddy', has an unexpected file extension. Was expecting 'idf'.\n[openstudio.model.YearDescription] <1> 'UseWeatherFile' is not yet a supported option for YearDescription\n[openstudio.model.YearDescription] <1> 'UseWeatherFile' is not yet a supported option for YearDescription\n[openstudio.setFileExtension] <0> Path p, '/usr/local/bundle/bundler/gems/openstudio-standards-f448df66933d/openstudio-standards/data/weather/CAN_BC_Victoria.717990_CWEC.ddy', has an unexpected file extension. Was expecting 'idf'.\n[openstudio.model.YearDescription] <1> 'UseWeatherFile' is not yet a supported option for YearDescription\n[openstudio.model.YearDescription] <1> 'UseWeatherFile' is not yet a supported option for YearDescription\n[openstudio.EpwFile] <0> Successive data points (1970-Jan-31 to 1960-Feb-01, ending on line 753) are greater than 1 day apart in EPW file '/usr/local/bundle/bundler/gems/openstudio-standards-f448df66933d/openstudio-standards/data/weather/CAN_BC_Victoria.717990_CWEC.epw'. Data will be treated as typical (TMY)\n[openstudio.setFileExtension] <0> Path p, '/usr/local/bundle/bundler/gems/openstudio-standards-f448df66933d/openstudio-standards/data/weather/CAN_BC_Victoria.717990_CWEC.ddy', has an unexpected file extension. Was expecting 'idf'.\n[openstudio.model.YearDescription] <1> 'UseWeatherFile' is not yet a supported option for YearDescription\n[openstudio.model.YearDescription] <1> 'UseWeatherFile' is not yet a supported option for YearDescription\n[openstudio.setFileExtension] <0> Path p, '/usr/local/bundle/bundler/gems/openstudio-standards-f448df66933d/openstudio-standards/data/weather/CAN_BC_Victoria.717990_CWEC.ddy', has an unexpected file extension. Was expecting 'idf'.\n[openstudio.model.YearDescription] <1> 'UseWeatherFile' is not yet a supported option for YearDescription\n[openstudio.model.YearDescription] <1> 'UseWeatherFile' is not yet a supported option for YearDescription\n[openstudio.EpwFile] <0> Successive data points (1970-Jan-31 to 1960-Feb-01, ending on line 753) are greater than 1 day apart in EPW file '/usr/local/bundle/bundler/gems/openstudio-standards-f448df66933d/openstudio-standards/data/weather/CAN_BC_Victoria.717990_CWEC.epw'. Data will be treated as typical (TMY)\n[openstudio.setFileExtension] <0> Path p, '/usr/local/bundle/bundler/gems/openstudio-standards-f448df66933d/openstudio-standards/data/weather/CAN_BC_Victoria.717990_CWEC.ddy', has an unexpected file extension. Was expecting 'idf'.\n[openstudio.model.YearDescription] <1> 'UseWeatherFile' is not yet a supported option for YearDescription\n[openstudio.model.YearDescription] <1> 'UseWeatherFile' is not yet a supported option for YearDescription\n[openstudio.setFileExtension] <0> Path p, '/usr/local/bundle/bundler/gems/openstudio-standards-f448df66933d/openstudio-standards/data/weather/CAN_BC_Victoria.717990_CWEC.ddy', has an unexpected file extension. Was expecting 'idf'.\n[openstudio.model.YearDescription] <1> 'UseWeatherFile' is not yet a supported option for YearDescription\n[openstudio.model.YearDescription] <1> 'UseWeatherFile' is not yet a supported option for YearDescription\n[openstudio.EpwFile] <0> Successive data points (1970-Jan-31 to 1960-Feb-01, ending on line 753) are greater than 1 day apart in EPW file '/usr/local/bundle/bundler/gems/openstudio-standards-f448df66933d/openstudio-standards/data/weather/CAN_BC_Victoria.717990_CWEC.epw'. Data will be treated as typical (TMY)\n[openstudio.setFileExtension] <0> Path p, '/usr/local/bundle/bundler/gems/openstudio-standards-f448df66933d/openstudio-standards/data/weather/CAN_BC_Victoria.717990_CWEC.ddy', has an unexpected file extension. Was expecting 'idf'.\n[openstudio.model.YearDescription] <1> 'UseWeatherFile' is not yet a supported option for YearDescription\n[openstudio.model.YearDescription] <1> 'UseWeatherFile' is not yet a supported option for YearDescription\n[openstudio.setFileExtension] <0> Path p, '/usr/local/bundle/bundler/gems/openstudio-standards-f448df66933d/openstudio-standards/data/weather/CAN_BC_Victoria.717990_CWEC.ddy', has an unexpected file extension. Was expecting 'idf'.\n[openstudio.model.YearDescription] <1> 'UseWeatherFile' is not yet a supported option for YearDescription\n[openstudio.model.YearDescription] <1> 'UseWeatherFile' is not yet a supported option for YearDescription\n[openstudio.EpwFile] <0> Successive data points (1970-Jan-31 to 1960-Feb-01, ending on line 753) are greater than 1 day apart in EPW file '/usr/local/bundle/bundler/gems/openstudio-standards-f448df66933d/openstudio-standards/data/weather/CAN_BC_Victoria.717990_CWEC.epw'. Data will be treated as typical (TMY)\n[openstudio.setFileExtension] <0> Path p, '/usr/local/bundle/bundler/gems/openstudio-standards-f448df66933d/openstudio-standards/data/weather/CAN_BC_Victoria.717990_CWEC.ddy', has an unexpected file extension. Was expecting 'idf'.\n[openstudio.model.YearDescription] <1> 'UseWeatherFile' is not yet a supported option for YearDescription\n[openstudio.model.YearDescription] <1> 'UseWeatherFile' is not yet a supported option for YearDescription\n[openstudio.setFileExtension] <0> Path p, '/usr/local/bundle/bundler/gems/openstudio-standards-f448df66933d/openstudio-standards/data/weather/CAN_BC_Victoria.717990_CWEC.ddy', has an unexpected file extension. Was expecting 'idf'.\n[openstudio.model.YearDescription] <1> 'UseWeatherFile' is not yet a supported option for YearDescription\n[openstudio.model.YearDescription] <1> 'UseWeatherFile' is not yet a supported option for YearDescription\n[openstudio.EpwFile] <0> Successive data points (1970-Jan-31 to 1960-Feb-01, ending on line 753) are greater than 1 day apart in EPW file '/usr/local/bundle/bundler/gems/openstudio-standards-f448df66933d/openstudio-standards/data/weather/CAN_BC_Victoria.717990_CWEC.epw'. Data will be treated as typical (TMY)\n[openstudio.setFileExtension] <0> Path p, '/usr/local/bundle/bundler/gems/openstudio-standards-f448df66933d/openstudio-standards/data/weather/CAN_BC_Victoria.717990_CWEC.ddy', has an unexpected file extension. Was expecting 'idf'.\n[openstudio.model.YearDescription] <1> 'UseWeatherFile' is not yet a supported option for YearDescription\n[openstudio.model.YearDescription] <1> 'UseWeatherFile' is not yet a supported option for YearDescription\n[openstudio.setFileExtension] <0> Path p, '/usr/local/bundle/bundler/gems/openstudio-standards-f448df66933d/openstudio-standards/data/weather/CAN_BC_Victoria.717990_CWEC.ddy', has an unexpected file extension. Was expecting 'idf'.\n[openstudio.model.YearDescription] <1> 'UseWeatherFile' is not yet a supported option for YearDescription\n[openstudio.model.YearDescription] <1> 'UseWeatherFile' is not yet a supported option for YearDescription\n[openstudio.EpwFile] <0> Successive data points (1970-Jan-31 to 1960-Feb-01, ending on line 753) are greater than 1 day apart in EPW file '/usr/local/bundle/bundler/gems/openstudio-standards-f448df66933d/openstudio-standards/data/weather/CAN_BC_Victoria.717990_CWEC.epw'. Data will be treated as typical (TMY)\n[openstudio.setFileExtension] <0> Path p, '/usr/local/bundle/bundler/gems/openstudio-standards-f448df66933d/openstudio-standards/data/weather/CAN_BC_Victoria.717990_CWEC.ddy', has an unexpected file extension. Was expecting 'idf'.\n[openstudio.model.YearDescription] <1> 'UseWeatherFile' is not yet a supported option for YearDescription\n[openstudio.model.YearDescription] <1> 'UseWeatherFile' is not yet a supported option for YearDescription\n[openstudio.setFileExtension] <0> Path p, '/usr/local/bundle/bundler/gems/openstudio-standards-f448df66933d/openstudio-standards/data/weather/CAN_BC_Victoria.717990_CWEC.ddy', has an unexpected file extension. Was expecting 'idf'.\n[openstudio.model.YearDescription] <1> 'UseWeatherFile' is not yet a supported option for YearDescription\n[openstudio.model.YearDescription] <1> 'UseWeatherFile' is not yet a supported option for YearDescription\n[openstudio.standards.Fan] <0> For Fan Variable Volume 1, there is no greater nominal HP.  Use the efficiency of the largest motor category.\n[openstudio.standards.Fan] <0> For Fan Constant Volume 1, there is no greater nominal HP.  Use the efficiency of the largest motor category.\n[openstudio.standards.Fan] <0> For Fan Constant Volume 12, there is no greater nominal HP.  Use the efficiency of the largest motor category.\n[openstudio.standards.Fan] <0> For Fan Constant Volume 13, there is no greater nominal HP.  Use the efficiency of the largest motor category.\n[openstudio.standards.Fan] <0> For Fan Constant Volume 14, there is no greater nominal HP.  Use the efficiency of the largest motor category.\n[openstudio.standards.Fan] <0> For Fan Constant Volume 15, there is no greater nominal HP.  Use the efficiency of the largest motor category.\n[openstudio.standards.Fan] <0> For Fan Constant Volume 16, there is no greater nominal HP.  Use the efficiency of the largest motor category.\n[openstudio.standards.Fan] <0> For Fan Constant Volume 17, there is no greater nominal HP.  Use the efficiency of the largest motor category.\n[openstudio.standards.Fan] <0> For Fan Constant Volume 18, there is no greater nominal HP.  Use the efficiency of the largest motor category.\n[openstudio.standards.CoolingTower] <0> For Cooling Tower Single Speed 1, cannot find heat rejection properties, cannot apply standard efficiencies or curves.\n",
            "step_errors" : [],
            "step_files" : [],
            "step_info" : [
               "Started adding geometry",
               "Finished adding geometry",
               "Intersection of 'Room_1_Flr_6_Wall_East' with 'Room_3_Mult9_Flr_6_Wall_West' results in (Room_1_Flr_6_Wall_East), (Room_3_Mult9_Flr_6_Wall_West),",
               "Intersection of 'Surface 1' with 'Corridor_Flr_6_Wall_2_West' results in (Surface 1), (Corridor_Flr_6_Wall_2_West),",
               "Intersection of 'Corridor_Flr_3_Wall_3_North' with 'Room_4_Mult19_Flr_3_Wall_South' results in (Corridor_Flr_3_Wall_3_North), (Room_4_Mult19_Flr_3_Wall_South),",
               "Intersection of 'Corridor_Flr_3_Wall_1_East' with 'Room_4_Mult19_Flr_3_Wall_West' results in (Corridor_Flr_3_Wall_1_East), (Room_4_Mult19_Flr_3_Wall_West),",
[...]
7VeUWS6u6KsuFZHVZqTM9Ki8+5lhO59WFR+0qp6palelWnvVzJ99VSz3/87qewhxPn6pff3un/v3mt7fq9M3bdz/98oP6+c0PPx2rH0/enpQTeJWt2vrWMy2aSiOVRHGqJrOrrA5GKo80SZSXjLLmJZiMSygur73RebAzex11Xn5xiXU6iydq6sWJfhVGXtr2zJK/k93KB4+d54+VupjrW7QHtouXsE7482aTXu77z3y655O9/cTXF94sTNU0jrI1TD/pqCffHBwcH5+cPNlw8AxxiEMc4hCHOMQhDnGIQxzi/DlxVDK7yv4JrHxtHlS+d2eIYu2ThjSkIQ1pSEMa0pCGNKQhDWmKaW7yP836A815ONPEIQ5xiEMc4hCHOMQhDnGIQ5w6OPffG+iY7w08nUnfG9h38nfYnj/f2zs8JClJSUpSkpKUpCQlKUlJSlKSkpSk20Hq5qReKpH2ctJ+33UPhiQlKUlJSlKSkpSkJCUpSUlKUpKSdDtI+4b0VRwIpO5hTuo4+/v9PklJSlKSkpSkJCUpSUlKUpKSlKQk3Q7SPUP67nImkR7kpIfZMXhBUpKSlKQkJSlJSUpSkpKUpCQlKUm3g3RgSP+lfYl0Pyd9+fL4eH+fpCQlKUlJSlKSkpSkJCUpSUlKUpJuB+kw/83ETEukw5z0+Hg4JClJSUpSkpKUpCQlKUlJSlKSkpSk20K6b0hfR1KyoDvISQ8OXHcwIClJSUpSkpKUpCQlKUlJSlKSkpSkjZEuUfzYu2mvFbvtpkEa6tNLb6q7qb5N209+jGZxsh7j7sszXwZXepIE0STUSa6wRuLpU/Xc95WnciV1E6SXKomutPL7a85MrsddbzrVE7/dMt6tnTUnLI+ul6Zxu3Xb6qhhr+JJd9lJbvmTkvQu1HO8XW8yuozi7PxWqC8q0C40LqJJunujg/FlajTOo9AvrzG/N6fT3RdeorMblKrTu2R3T70K492+Oh1d7p6oH38NR1fp7iSKs1vwn1/ULyfHL8zTUn2l9tSvp/9Rb0Yj89wnO0U39funySgOpuk/xOd8/9QPrr8+LJ4ji2VaKvCPWiNT8cfZRfKCiY7PHKfXUvmlO2r5QTINvbtnwSTMxnbPw2j06buWDJipzl+DSu+m2fnm6j396F1780cLzzTHtReb6lRHyg+upqHuTvTN6fW43frmK5Adtdfr5f9ZO92Mru+lXib8/vdW6J3rsPWs5esLbxamahpHF0GoW535yNlt65nT7XVa114404ufR2ZVys7JFprj45OT1udOKR0XpNMH6eyBdAYgnSFIZx+kcwDSOQTpOD2UEKqiHVRJO6iadlBF7aCq2kGVtYOqawdV2A6qsl1UZbuwtRpV2S6qst1Kla2S2dXVytdUl9rRYu1XkBGvUTUZ8QpVkxGvTzUZcd5XkxFnfTUZcc5XkxFnfDUZcb5Xk5E3soo6oDqWt7GKOqBKljexijqgWpa3sIo6oGqWN7CKOqB6lrevijqodRlUz/LeVVGnfD3fBJO0+rZ1bh4qryNenoo64uWpqCNenoo64nSvqCNO94o64nSvqCNO94o64nSvqCPvX1WFUBUt72BVhVA1Le9hVYVQVS3vYlWFUHUt72NVhVCVLe9kVYVgazWqsuXNrKpQ+cq+f99i7fcKS9tcb+UfevMvHgZYuJu36G/eYm/zFoPNWww3b7G/eYuDzVscbt5iZWfflEcD89tpYII7Dcxwp4Ep7jQwx50GJrnTwCx3GpjmTgPz3G1gnrtN7OMNzHO3gXnu1pvna7++sVxbNf9+R4CFfDdgFvLNgFnI9wJmIS+5MAt5xYVZyAsuzEJeb2EW8nILsyh45xrnIb/1h/OQ3xXEechvGOI8GpjiBW0VzqOBSV7QVuE8GpjmBW0Vbv+T2yqcRxP7eAMbeUFbhfOoN8/XfktWubZq/jVaAAv5bsAs5JsBs5DvBcxCXnJhFvKKC7OQF1yYhbzewizkv42CWRS0VTgPua3CechtFc5DbqtwHvKfaOE85L9LxHnIf7KI85D/mhHnIf+hI86jgXle0FbhPJrYxxvYyAvaKpxHva187ZeRlGur5t9WArCQ7wbMQr4ZMAv5XsAs5LYKZiG3VTALua2CWchtFcxCXm5hFgVtFc5DbqtwHnJbhfOQ2yqch9xW4TzktgrnIbdVOA+5rcJ5yG0VzqOBeV7QVuE8mtjHG9jIC9oqnEe9rXxt5nu5tmoeCg+wkO8GzEK+GTAL+V7ALOS2CmYht1UwC7mtglnIbRXMQl5uYRYFbRXOQ26rcB5yW4XzkNsqnIfcVuE85LYK5yG3VTgPua3CechtFc6jgXle0FbhPJrYxxvYyAvaKpxHva18bbRuubZqnr0LsJDvBsxCvhkwC/lewCzktgpmIbdVMAu5rYJZyG0VzEJebmEWBW0VzkNuq3AecluF85DbKpyH3FbhPOS2Cucht1U4D7mtwnnIbRXOo4F5XtBW4Tya2Mcb2MgL2iqcR72tfG2CYbm2ah5xCLCQ7wbMQr4ZMAv5XsAs5LYKZiG3VTALua2CWchtFcyiKHcKZFEYtobyKEqrQnkUBVmhPIoyrlAeRfFXKI+izDeUR1EcHMqjKCkO5VEUIofyaGCeF7RVOI8m9vEGNvKCtgrnsX4r/1Am4XUR3qyO1ETfLBNk8+DYdnI97uQJsGujYpcJ0IlOX0SziZ+0B72OcpxBR/XNT+6gXNzsbYZxH2zt+8deqsdRfPf8NkjmCcr3r79EzHQm8Cb2dfx2ZgKNS59oOO5WOV5rL5nFeo5hMpkX133DEd8c5jCHOcxhDnOYwxzmMIc5zGEOc5jDHOYwhznMYQ5zmMMc5jCHOcxhDnOYwxzmMIc5zGEOc5jDHOYwhznMYQ5zmMMc5jCHOcxhDnOYwxz+Uw3fdaNrHceBr1975oO1Trdn+XlV89HYZPWjsac6DnSy+Hhtq7P8APE0jNJuGEz02o/IJl/7nO76T9Ym3fyr56dR6KVBNMmgWkmqp7vn+iKKdavcJ59/1mM98Vdf0Pyx9rDXUX3zyeWe+SCz+U8r1BepAVsjvZTtno11ejJJzfXJLC5mk1FO2t5Rv6+RWBLq+7Pfr/0stzmCC9VOL4Okm+R3pZyROR6c1M2u34k3umz/F7iq2hLffHQ8Y1/onk2jJDCCL7OHy7ya5WFkvkIVRzfVkJZYwcTXZj7sOp2KZy+Pj3VPvAh0aOqtvbim83kyjqPZVPvq22/V3xaP33bPLr1k8fl3M8F2Ho7efXU0uyBdbzx+ZTy6oZ6M00v1vXLVP1XreRi21LPVZyRhMNLtXWfnfe/Dztr59sUriWLV/pi9lN536mNmsyjVha957O/ZilP9BpnDlPFC7/3HD91P+k4dHR3NL149xVx1cds/Vn2py+M81t6nOid/rnhO1eeb67V4dUemrE0xLColD3LonnlJEown2j82ERHJ+/xKfqh3KZc3ejpLLtt170V2S5/N72f9mRSGz8q8yq55Zl2XJI2jT7qcz/y5dZ2iqTcK0rtyVosn135VucXSqq7KciFZXVbqTI/Ki485ltN5deFRu8qpqlZlupVn/dzJd9VSz/+8rqcwx9On6tff3ql/v/ntrTp98/bdT7/8oH5+88NPx+rHk7cn5QReZau2vvVMi6bSSCVRnKrJ7Cqrg5HKI00S5SWjrHkJJuMSistrb3Qe7MxeR52XX1xinc7iiZp6caJfhZGXtj2z5O9kt/LBY+f5Y6Uu5voW7YHt4iWsE/682aSX+/4zn+75ZG8/8fWFNwtTNY2jbA3TTzrqyTcHB8fHJydPNhw8QxziEIc4xCEOcYhDHOIQhzh/ThyVzK6yfwIrX5sHle/dGaJY+6QhDWlIQxrSkIY0pCENaUhDmmKam/xPs/5Acx7ONHGIQxziEIc4xCEOcYhDHOIQpw7O/fcGOuZ7A09n0vcG9p38Hbbnz/f2Dg9JSlKSkpSkJCUpSUlKUpKSlKQkJel2kLo5qZdKpL2ctN933YMhSUlKUpKSlKQkJSlJSUpSkpKUpCTdDtK+IX0VBwKpe5iTOs7+fr9PUpKSlKQkJSlJSUpSkpKUpCQlKUm3g3TPkL67nEmkBznpYXYMXpCUpCQlKUlJSlKSkpSkJCUpSUlK0u0gHRjSf2lfIt3PSV++PD7e3ycpSUlKUpKSlKQkJSlJSUpSkpKUpNtBOsx/MzHTEukwJz0+Hg5JSlKSkpSkJCUpSUlKUpKSlKQkJem2kO4b0teRlCzoDnLSgwPXHQxISlKSkpSkJCUpSUlKUpKSlKQkJWljpEsUP/Zu2mvFbrtpkIb69NKb6m6qb9P2kx+jWZysx7j78syXwZWeJEE0CXWSK6yRePpUPfd95alcSd0E6aVKoiut/P6aM5PrcdebTvXEb7eMd2tnzQnLo+uladxu3bY6atireNJddpJb/qQkvQv1HG/Xm4wuozg7vxXqiwq0C42LaJLu3uhgfJkajfMo9MtrzO/N6XT3OIrjwI/is1dhfDZUp3fJbl9lP+/uqdPR5e6J+vHXcHSV7ibRLLsR//lF/XJy/MI8LdVXqq9+Pf2PejMamec+2Sm6td8/TUZxME3/IT7n+6d+cP31YfEcWSzTUoF/1BqZuj/OLpUXTHR85jhOS+UX8KjlB8k09O6eBZMwG9s9D6PRp+9aMmCmOn8NKr2bZueba/j0o3ftzR8tPNMc115salQdKT+4moa6O9E3p9fjduubr0B21F6vl/9n7aQzur6Xepnw+99boXeuw9azlq8vvFmYqmkcXQShbnXmI2e3rWdOt9dpXXvhTC9+Hpm1KTsnW26Oj09OWp87pXRckE4fpLMH0hmAdIYgnX2QzgFI5xCk4/RQQqiKdlAl7aBq2kEVtYOqagdV1g6qrh1UYTuoynZRle3C1mpUZbuoynYrVbZKZldXK19WXWpHi7VfQUa8RtVkxCtUTUa8PtVkxHlfTUac9dVkxDlfTUac8dVkxPleTUbeyCrqgOpY3sYq6oAqWd7EKuqAalnewirqgKpZ3sAq6oDqWd6+Kuqg1mVQPct7V0Wd8vV8E0zS6tvWuXmovI54eSrqiJenoo54eSrqiNO9oo443SvqiNO9oo443SvqiNO9oo68f1UVQlW0vINVFULVtLyHVRVCVbW8i1UVQtW1vI9VFUJVtryTVRWCrdWoypY3s6pC5Sv7/t2Ltd8uLG1zvZV/6M2/fhhgIf/rFmbR3/yr2Nu8xWDzFsPNW+xv3uJg8xaHm7dY2dk35dHA/C74xSzOQ/7NFs5D/qUXzkP+TS/OQ/4lMM5D/v0wzkP+1THOQ/6tMm7/k3/hjPOQfxeN82hgnhf8BhvnUW8rX/sljuXexp1/yyPAQr4bMAu5rYJZyPcCZiG3VTALua2CWchtFcxCbqtgFnJbBbMoaKtwHg3M74K2CuchL7c4D7mtwnnIbRXOQ26rcB5yW4XzkNsqnIfcVuH2P7mtwnk0sY83MM8L2iqcR715vva7ssq1VfMv0wJYuOLuAbOQ2yqYhdxWwSzktgpmIbdVMAu5rYJZyG0VzEJuq2AWBW0VzqOB+V3QVuE85OUW5yEvtzgPua3CechtFc5DbqtwHnJbhfOQ2yrc/ie3VTiPJvbxBuZ5QVuF86g3z9d+JUm5tmr+nSUAC7mtglnIbRXMQm6rYBZyWwWzkNsqmIXcVsEs5LYKZiG3VTCLgrYK59HA/C5oq3Ae8nKL85CXW5yH3FbhPOS2Cucht1U4D7mtwnnIbRVu/5PbKpxHE/t4A/O8oK3CedSb52uT38u1VfNoeICF3FbBLOS2CmYht1UwC7mtglnIbRXMQm6rYBZyWwWzkNsqmEVBW4XzaGB+F7RVOA95ucV5yMstzkNuq3AecluF85DbKpyH3FbhPOS2Crf/yW0VzqOJfbyBeV7QVuE86s3ztQG75dqqeQIvwEJuq2AWclsFs5DbKpiF3FbBLOS2CmYht1UwC7mtglnIbRXMoqCtwnk0ML8L2iqch7zc4jzk5RbnIbdVOA+5rcJ5yG0VzkNuq3AecluF2//ktgrn0cQ+3sA8L2ircB715vnaHMNybdU86BBgIbdVMAu5rYJZyG0VzEJuq2AWclsFs5DbKpiF3FbBLOS2CmZR0FbhPBqY34URbSiPoowrlEdR/BXKoyjzDeVRFAeH8ihKikN5FIXIoTyK8uVQ+19R9BzKo4l9vIF5Xphlh/JYP88/lEl4XUQ4qyM10TfLBNk8OLadXI87eQLs2qjYZQ50otMX0WziJ+1Br6McZ9BRffOTOygXN3ubYdzHW/v+sZfqcRTfPb8NknmO8v3rLxE2nQm8iX0dv52ZWOPSJxqOu1WO19pLZrGeY5hk5sV133DQN4c5zGEOc5jDHOYwhznMYQ5zmMMc5jCHOcxhDnOYwxzmMIc5zGEOc5jDHOYwhznMYQ5zmMMc5jCHOcxhDnOYwxzmMIc5zGEOc5jDHOYwh/9Uw3fd6FrHceDr1575YK3T7Vl+XtV8NDZZ/WjsqY4DnSw+XtvqLD9APA2jtBsGE732I7LJ1z6nu/6TtUk3/+r5aRR6aRBNMqhWkurp7rm+iGLdKvfJ55/1WE/81Rc0f6w97HVU33xyuWc+yGz+0wr1RWrA1kgvZbtnY52eTFJzfTKLi9lklJO2d9TvaySWhPr+7PdrP8ttjuBCtdPLIOkm+V0pZ2SOByd1s+t34o0u2/8Frqq2xDcfHc/YF7pn0ygJjODL7OEyr2Z5GJmvUMXRTTWkJVYw8bWZD7tOp+LZy+Nj3RMvAh2aemsvrul8nozjaDbVvvr2W/W3xeO33bNLL1l8/t1MsJ2Ho3dfHc0uSNcbj18Zj26oJ+P0Un2vXPVP1Xoehi31bPUZSRiMdHvX2Xnf+7Czdr598UqiWLU/Zi+l9536mNksSnXhax77e7biVL9B5jBlvNB7//FD95O+U0dHR/OLV08xV13c9o9VX+ryOI+196nOyZ8rnlP1+eZ6LV7dkSlrUwyLSsmDHLpnXpIE44n2j01ERPI+v5If6l3K5Y2ezpLLdt17kd3SZ/P7WX8mheGzMq+ya55Z1yVJ4+iTLuczf25dp2jqjYL0rpzV4sm1X1VusbSqq7JcSFaXlTrTo/LiY47ldF5deNSucqqqVZlu5Vk/d/JdtdTzP6/rKczx9Kn69bd36t9vfnurTt+8fffTLz+on9/88NOx+vHk7Uk5gVfZqq1vPdOiqTRSSRSnajK7yupgpPJIk0R5yShrXoLJuITi8tobnQc7s9dR5+UXl1ins3iipl6c6Fdh5KVtzyz5O9mtfPDYef5YqYu5vkV7YLt4CeuEP2826eW+/8ynez7Z2098feHNwlRN4yhbw/STjnryzcHB8fHJyZMNB88QhzjEIQ5xiEMc4hCHOMQhzp8TRyWzq+yfwMrX5kHle3eGKNY+aUhDGtKQhjSkIQ1pSEMa0pCmmOYm/9OsP9CchzNNHOIQhzjEIQ5xiEMc4hCHOMSpg3P/vYGO+d7A05n0vYF9J3+H7fnzvb3DQ5KSlKQkJSlJSUpSkpKUpCQlKUlJuh2kbk7qpRJpLyft9133YEhSkpKUpCQlKUlJSlKSkpSkJCUpSbeDtG9IX8WBQOoe5qSOs7/f75OUpCQlKUlJSlKSkpSkJCUpSUlK0u0g3TOk7y5nEulBTnqYHYMXJCUpSUlKUpKSlKQkJSlJSUpSkpJ0O0gHhvRf2pdI93PSly+Pj/f3SUpSkpKUpCQlKUlJSlKSkpSkJCXpdpAO899MzLREOsxJj4+HQ5KSlKQkJSlJSUpSkpKUpCQlKUlJui2k+4b0dSQlC7qDnPTgwHUHA5KSlKQkJSlJSUpSkpKUpCQlKUlJ2hjpEsWPvZv2WrHbbhqkoT699Ka6m+rbtP3kx2gWJ+sx7r4882VwpSdJEE1CneQKaySePlXPfV95KldSN0F6qZLoSiu/v+bM5Hrc9aZTPfHbLePd2llzwvLoemkat1u3rY4a9iqedJed5JY/KUnvQj3H2/Umo8sozs5vhfqiAu1C4yKapLs3OhhfpkbjPAr98hrze3M63X0ZTILJ+OxVGJ8N1eldsttX2c+7e+p0dLn7Qv34azi6SncnUZzdhv/8on45OX5hnpbqK9VXv57+R70Zjcxzn+wU3djvnyajOJim/xCf8/1TP7j++rB4jiyWaanAP2qNTNUfZxfKCyY6PnMct6Xyy3fU8oNkGnp3z4JJmI3tnofR6NN3LRkwU52/BpXeTbPzzRV8+tG79uaPFp5pjmsvNhWqjpQfXE1D3Z3om9Prcbv1zVcgO2qv18v/s3bKGV3fS71M+P3vrdA712HrWcvXF94sTNU0ji6CULc685Gz29Yzp9vrtK69cKYXP4/MypSdky02x8cnJ63PnVI6LkinD9LZA+kMQDpDkM4+SOcApHMI0nF6KCFURTuoknZQNe2gitpBVbWDKmsHVdcOqrAdVGW7qMp2YWs1qrJdVGW7lSpbJbOrq5Wvqi61o8XaryAjXqNqMuIVqiYjXp9qMuK8ryYjzvpqMuKcryYjzvhqMuJ8ryYjb2QVdUB1LG9jFXVAlSxvYhV1QLUsb2EVdUDVLG9gFXVA9SxvXxV1UOsyqJ7lvauiTvl6vgkmafVt69w8VF5HvDwVdcTLU1FHvDwVdcTpXlFHnO4VdcTpXlFHnO4VdcTpXlFH3r+qCqEqWt7Bqgqhalrew6oKoapa3sWqCqHqWt7HqgqhKlveyaoKwdZqVGXLm1lVofKVff/exdrvFpa2ud7KP/TmXz4MsJD/dQuz6G/+Vext3mKweYvh5i32N29xsHmLw81brOzsm/JoYH4X/GIW5yH/ZgvnIf/SC+ch/6YX5yH/EhjnIf9+GOch/+oY5yH/Vhm3/8m/cMZ5yL+Lxnk0MM8LfoON86i3la/9Csdyb+POv+MRYCHfDZiF3FbBLOR7AbOQ2yqYhdxWwSzktgpmIbdVMAu5rYJZFLRVOI8G5ndBW4XzkJdbnIfcVuE85LYK5yG3VTgPua3CechtFc5Dbqtw+5/cVuE8mtjHG5jnBW0VzqPePF/7TVnl2qr5V2kBLFxx94BZyG0VzEJuq2AWclsFs5DbKpiF3FbBLOS2CmYht1Uwi4K2CufRwPwuaKtwHvJyi/OQl1uch9xW4TzktgrnIbdVOA+5rcJ5yG0Vbv+T2yqcRxP7eAPzvKCtwnnUm+drv5CkXFs1/8YSgIXcVsEs5LYKZiG3VTALua2CWchtFcxCbqtgFnJbBbOQ2yqYRUFbhfNoYH4XtFU4D3m5xXnIyy3OQ26rcB5yW4XzkNsqnIfcVuE85LYKt//JbRXOo4l9vIF5XtBW4TzqzfO1ue/l2qp5MDzAQm6rYBZyWwWzkNsqmIXcVsEs5LYKZiG3VTALua2CWchtFcyioK3CeTQwvwvaKpyHvNziPOTlFucht1U4D7mtwnnIbRXOQ26rcB5yW4Xb/+S2CufRxD7ewDwvaKtwHvXm+dp43XJt1Tx/F2Aht1UwC7mtglnIbRXMQm6rYBZyWwWzkNsqmIXcVsEs5LYKZlHQVuE8GpjfBW0VzkNebnEe8nKL85DbKpyH3FbhPOS2Cucht1U4D7mtwu1/cluF82hiH29gnhe0VTiPevN8bYphubZqHnMIsJDbKpiF3FbBLOS2CmYht1UwC7mtglnIbRXMQm6rYBZyWwWzKGircB4NzO/CiDaUR1HGFcqjKP4K5VGU+YbyKIqDQ3kUJcWhPIpC5FAeRflyqP2vKHoO5dHEPt7APC/MskN5rJ/nH8okvC4CnNWRmuibZYJsHhzbTq7HnTwBdm1U7DIFOtHpi2g28ZP2oNdRjjPoqL75yR2Ui5u9zTDuw619/9hL9TiK757fBsk8Rfn+9ZeIms4E3sS+jt/OTKhx6RMNx90qx2vtJbNYzzFMLvPium845pvDHOYwhznMYQ5zmMMc5jCHOcxhDnOYwxzmMIc5zGEOc5jDHOYwhznMYQ5zmMMc5jCHOcxhDnOYwxzmMIc5zGEOc5jDHOYwhznMYQ5zmMN/quG7bnSt4zjw9WvPfLDW6fYsP69qPhqbrH409lTHgU4WH69tdZYfIJ6GUdoNg4le+xHZ5Guf013/ydqkm3/1/DQKvTSIJhlUK0n1dPdcX0SxbpX75PPPeqwn/uoLmj/WHvY6qm8+udwzH2Q2/2mF+iI1YGukl7Lds7FOTyapuT6ZxcVsMspJ2zvq9zUSS0J9f/b7tZ/lNkdwodrpZZB0k/yulDMyx4OTutn1O/FGl+3/AldVW+Kbj45n7Avds2mUBEbwZfZwmVezPIzMV6ji6KYa0hIrmPjazIddp1Px7OXxse6JF4EOTb21F9d0Pk/GcTSbal99+6362+Lx2+7ZpZcsPv9uJtjOw9G7r45mF6TrjcevjEc31JNxeqm+V676p2o9D8OWerb6jCQMRrq96+y8733YWTvfvnglUazaH7OX0vtOfcxsFqW68DWP/T1bcarfIHOYMl7ovf/4oftJ36mjo6P5xaunmKsubvvHqi91eZzH2vtU5+TPFc+p+nxzvRav7siUtSmGRaXkQQ7dMy9JgvFE+8cmIiJ5n1/JD/Uu5fJGT2fJZbvuvchu6bP5/aw/k8LwWZlX2TXPrOuSpHH0SZfzmT+3rlM09UZBelfOavHk2q8qt1ha1VVZLiSry0qd6VF58THHcjqvLjxqVzlV1apMt/Ksnzv5rlrq+Z/X9RTmePpU/frbO/XvN7+9Vadv3r776Zcf1M9vfvjpWP148vaknMCrbNXWt55p0VQaqSSKUzWZXWV1MFJ5pEmivGSUNS/BZFxCcXntjc6DndnrqPPyi0us01k8UVMvTvSrMPLStmeW/J3sVj547Dx/rNTFXN+iPbBdvIR1wp83m/Ry33/m0z2f7O0nvr7wZmGqpnGUrWH6SUc9+ebg4Pj45OTJhoNniEMc4hCHOMQhDnGIQxziEOfPiaOS2VX2T2Dla/Og8r07QxRrnzSkIQ1pSEMa0pCGNKQhDWlIU0xzk/9p1h9ozsOZJg5xiEMc4hCHOMQhDnGIQxzi1MG5/95Ax3xv4OlM+t7AvpO/w/b8+d7e4SFJSUpSkpKUpCQlKUlJSlKSkpSkJN0OUjcn9VKJtJeT9vuuezAkKUlJSlKSkpSkJCUpSUlKUpKSlKTbQdo3pK/iQCB1D3NSx9nf7/dJSlKSkpSkJCUpSUlKUpKSlKQkJel2kO4Z0neXM4n0ICc9zI7BC5KSlKQkJSlJSUpSkpKUpCQlKUlJuh2kA0P6L+1LpPs56cuXx8f7+yQlKUlJSlKSkpSkJCUpSUlKUpKSdDtIh/lvJmZaIh3mpMfHwyFJSUpSkpKUpCQlKUlJSlKSkpSkJN0W0n1D+jqSkgXdQU56cOC6gwFJSUpSkpKUpCQlKUlJSlKSkpSkJG2MdInix95Ne63YbTcN0lCfXnpT3U31bdp+8mM0i5P1GHdfnvkyuNKTJIgmoU5yhTUST5+q576vPJUrqZsgvVRJdKWV319zZnI97nrTqZ747Zbxbu2sOWF5dL00jdut21ZHDXsVT7rLTnLLn5Skd6Ge4+16k9FlFGfnt0J9UYF2oXERTdLdGx2ML1OjcR6FfnmN+b05ne7+f0E6utSTs1dhfDZUp3fJbl9lP+/uqdPR5e4L9eOv4egq3dVekqr//KJ+OTl+YZ6V6ivVV7+e/ke9GY3MU5/sFN3Y758moziYpv8Qn/P9Uz+4/vqweI4slmmpwD9qjUzVH2cXygsmOj5znH5L5ZfvqOUHyTT07p4FkzAb2z0Po9Gn71oyYKY6fw0qvZtm55sr+PSjd+3NHy080xzXXmwqVB0pP7iahro70Ten1+N265uvQHbUXq+X/2ftlDO6vpd6mfD731uhd67D1rOWry+8WZiqaRxdBKFudeYjZ7etZ06312lde+FMt54NBt3+4YOjP+i0RmahyiSytef4+OSk9blTStbdjGx/M7J7m5EdbEZ2uBnZ/c3IHmxG9nAzsk5vQ7obmmfOhiaas6GZ5mxoqjkbmmvOhiabs6HZ5mxoujkbmm/uhuabu6l9bUPzzd3QfHNt5ptKZldXK18JXqdziLVfQbXs9a2mWvbqVlMte22rqZZdyaqpll3HqqmWXcWqqZZdw6qpll3BqqmWbhgqym5mdpVuFyrKbmZ+lW4WKspuZoaVbhUqym5mjpVuFCrKbmaWlW4TKspuaA/bzCwr3SNUlK09y26CSWrdHpybZ5SXLXtpK8qWvbQVZcte2oqyZRewirJlF7CKsmUXsIqyZRewirJlF7CKsqX7hKq6G5pnpTuFqrobmmmle4Wquhuaa6W7haq6G5ptpfuFqrobmm+lO4aqupva1zY030o3DVV1q823D2XeuFi8L6mO1ETfLN8Yyd8PaSfX407+xsbad0CWb24mOn0RzSZ+0h70OspxBh3VNz+5g3LvotxmGPfv2fr+sZfqcRTfPb8Nkvmbg/fXosQ7qJnAm9jX8duZea+u9ImG426V47X2klms5xjm7cbFPbB9Tzh/Q2rV6lTHgU4WuJnT4oZMwyjtmnfJ1lomX3vd60mTbl540yj00iCaZFCtJNXT3XN9EcW6Va6SftZjPfFXX9D8sfYwq4K+qQTzpppj/rN4y3Xtu9FL2e7ZWKcnk9Rcn8ziYjYZ5aTtHfV7ifdcDaG+P/v92rlhjuBCtdPLIMnq2pxXzsgcD07qZtfvxBtdtv8LXFVtib94j3GhezaNksAIvsweLvNqloeR+QpVHN1UQ1piBRNfm4m763Qqnr08PtY98SLQoam39uKazufJOI5mU+2rb79Vf1s8fts9u/SSxXpiJtjOw9G7r45mF6TrjcevjEc31JNxeqm+V676p2o9D8OWerb6jCQMRrq96+y8733YWTvfvnglUazaH7OX0vtOfcxsFqW68DWP/f1IOdVvkDlMGS/03n/80P2ks+Xt6Gh+8eop5qqL2/6x6ktdHuex9j7VOflzxXOqPt9cr8WrOzJlbYphUSn5xtg9m/89kfbzvyhK3udX8kO9S7m80dNZctmuey+yW/psfj/rz6QwfFbmVXbNM+u6JGkcfdLlfObPresUTb1RkN6Vs1o8ufaryi2WVnVVlgvJ6rJSZ3pUXnzMsZzOqwuP2lVOVbUq06086+dOvquWev7ndT2FOZ4+Vb/+9k79+81vb9Xpm7fvfvrlB/Xzmx9+OlY/nrw9KSfwKlu19a1nWjSVRiqJskZ6MrvK6mCk8hYxUV4yypqXYDIuobi89kbnwc7sddR5+cUl1uksnqipFyf6VRh5adszS/5OdisfPHaeP1bqYq5v0R7YLl7COuHP/4O/+/zDO7aLP+40b8D+T/4MlTjEIQ5xiEMc4hCHOMQhDnG2HufLv3wxRLH2SUMa0pCGNKQhDWlIQxrSkIY0xTRf/E2goTF/4kcc4hCHOMQhDnGIQxziEIc4xPkfpi2+01dTHXvpLNaq/WqHeYuPK29xNp2Gd+p5ECtzo7YkM3FvGzIT9xrLTMx/rhvOBNLpg3T2QDoDkM4QpLMP0jkA6RyCdFYyBayEUBXtoEraQdW0gypqB1XVDqqsHVRdO6jCdlCV7aIq24Wt1ajKdlGV7Vaq7PJZfitS9cP7LGTEK1Q/ns9CRpz39QP4LGTEOV8/Ys9CRpzvFiF6NjqgOpa3MYtcPBsdUCnLe5hF1J2NDqia5Q3MIr3OZh0E1bO8e1kE0tnogOpZ3rrqZ8ytyFiEytnoiJfHIjbORkec7hbBcDY64nS3iH6z0RGnu024m5UQqqLlHcwmr81KCFXU8iZmE8FmJYSqa3kfs0lVs1oZUZUtb2U2QWlWQqjKlnezL4Tuv+/JMd/3dDqTvu+p75T7fePz53t7h4cAC/lftzAL+d+9MAv5X8QwC/m3QDAL+fdDMAv5N0cwC/l3SjAL+bdNMIuCX7HiPBqY3wW/mMV5NDDDC36di/NoYI4X/BIY59HALC/41THOo4F5XvALZ5xHE/t4A/O84DfYOI9689zNPbxU8uiVa6v6fdc9GAIs5LsBs5BvBsxCvhcwC3nJhVnIKy7MQl5wYRbyeguzkJdbmEVBW4XzaGB+F7RVOI8GZnhBW4XzaGCOF7RVOI8GZnlBW4XzaGCeF7RVOI8m9vEG5nlBW4XzqDfP+8bjVRxI305+WK6tcpz9/X4fYCHfDZiFfDNgFvK9gFnISy7MQl5xYRbygguzkNdbmIW83MIsCtoqnEcD87ugrcJ5NDDDC9oqnEcDc7ygrcJ5NDDLC9oqnEcD87ygrcJ5NLGPNzDPC9oqnEe9eb5nPN5dziSPg3JtlfnGpcELgIV8N2AW8s2AWcj3AmYhL7kwC3nFhVnICy7MQl5vYRbycguzKGircB4NzO+Ctgrn0cAML2ircB4NzPGCtgrn0cAsL2ircB4NzPOCtgrn0cQ+3sA8L2ircB715vnAePxL+5LHfrm26uXL4+P9fYCFfDdgFvLNgFnI9wJmIS+5MAt5xYVZyAsuzEJeb2EW8nILsyhoq3AeDczvgrYK59HADC9oq3AeDczxgrYK59HALC9oq3AeDczzgrYK59HEPt7APC9oq3Ae9eb5MG/dZlryGJZrq46Ph0OIhXw3YBbyzYBZyPcCZiEvuTALecWFWcgLLsxCXm9hFvJyC7MoaKtwHg3M74K2CufRwAwvaKtwHg3M8YK2CufRwCwvaKtwHg3M84K2CufRxD7ewDwvaKtwHvXm+b7xeB1JfxbvDsq1VQcHrjsYACyKcm5AFkUJOCCLomwckEVRHhTIoigpCmRRlCEFsihKlwJZFOVOgSwKw9ZQHg3M78KINpRHAzO8MNgN5dHAHC+Mg0N5NDDLC0PkUB4NzPPC6DmURxP7eAPzvDDLDuWxfp5/KJPwuohhVkdqom+WCbJ5cGw7uR538gTYtVGxyyznRKcvotnET9qDXkc5zqCj+uYnd1AubvY2w7jPofb9Yy/V4yi+e34bJPMk5PvXXyIwOhN4E/s6fjszwcSlTzQcd6scr7WXzGI9xzDZyovrvuFEbg5zmMMc5jCHOcxhDnOYwxzmMIc5zGEOc5jDHOYwhznMYQ5zmMMc5jCHOcxhDnOYwxzmMIc5zGEOc5jDHOYwhznMYQ5zmMMc5jCHOcxhDv+phu+60bWO48DXrz3zwVqn27P8vKr5aGyy+tHYUx0HOll8vLbVWX6AeBpGaTcMJnrtR2STr31Od/0na5Nu/tXz0yj00iCaZFCtJNXT3XN9EcW6Ve6Tzz/rsZ74qy9o/lh72Ouovvnkcs98kNn8pxXqi9SArZFeynbPxjo9maTm+mQWF7PJKCdt76jf10gsCfX92e/XfpbbHMGFaqeXQdJN8rtSzsgcD07qZtfvxBtdtv8LXFVtiW8+Op6xL3TPplESGMGX2cNlXs3yMDJfoYqjm2pIS6xg4mszH3adTsWzl8fHuideBDo09dZeXNP5PBnH0WyqffXtt+pvi8dvu2eXXrL4/LuZYDsPR+++OppdkK43Hr8yHt1QT8bppfpeueqfqvU8DFvq2eozkjAY6faus/O+92Fn7Xz74pVEsWp/zF5K7zv1MbNZlOrC1zz292zFqX6DzGHKeKH3/uOH7id9p46OjuYXr55irrq47R+rvtTlcR5r71Odkz9XPKfq8831Wry6I1PWphgWlZIHOXTPvCQJxhPtH5uIiOR9fiU/1LuUyxs9nSWX7br3Irulz+b3s/5MCsNnZV5l1zyzrkuSxtEnXc5n/ty6TtHUGwXpXTmrxZNrv6rcYmlVV2W5kKwuK3WmR+XFxxzL6by68Khd5VRVqzLdyrN+7uS7aqnnf17XU5jj6VP162/v1L/f/PZWnb55++6nX35QP7/54adj9ePJ25NyAq+yVVvfeqZFU2mkkihO1WR2ldXBSOWRJonyklHWvASTcQnF5bU3Og92Zq+jzssvLrFOZ/FETb040a/CyEvbnlnyd7Jb+eCx8/yxUhdzfYv2wHbxEtYJf95s0st9/5lP93yyt5/4+sKbhamaxlG2huknHfXkm4OD4+OTkycbDp4hDnGIQxziEIc4xCEOcYhDnD8njkpmV9k/gZWvzYPK9+4MUax90pCGNKQhDWlIQxrSkIY0pCFNMc1N/qdZf6A5D2eaOMQhDnGIQxziEIc4xCEOcYhTB+f+ewMd872BpzPpewP7Tv4O2/Pne3uHhyQlKUlJSlKSkpSkJCUpSUlKUpKSdDtI3ZzUSyXSXk7a77vuwZCkJCUpSUlKUpKSlKQkJSlJSUpSkm4Had+QvooDgdQ9zEkdZ3+/3ycpSUlKUpKSlKQkJSlJSUpSkpKUpNtBumdI313OJNKDnPQwOwYvSEpSkpKUpCQlKUlJSlKSkpSkJCXpdpAODOm/tC+R7uekL18eH+/vk5SkJCUpSUlKUpKSlKQkJSlJSUrS7SAd5r+ZmGmJdJiTHh8PhyQlKUlJSlKSkpSkJCUpSUlKUpKSdFtI9w3p60hKFnQHOenBgesOBiQlKUlJSlKSkpSkJCUpSUlKUpKStDHSJYofezfttWK33TRIQ3166U11N9W3afvJj9EsTtZj3H155svgSk+SIJqEOskV1kg8faqe+77yVK6kboL0UiXRlVZ+f82ZyfW4602neuK3W8a7tbPmhOXR9dI0brduWx017FU86S47yS1/UpLehXqOt+tNRpdRnJ3fCvVFBdqFxkU0SXdvdDC+TI3GeRT65TXm9+b/PP8/8wv8Vl9qL1VvRiN1Orp8slN0k75/moziYJr+Q3zO90/94Prrw+I5slimpQL/qDUyFXycvWgvmOj4zHEGLZVfiqOWHyTT0Lt7FkzCbGz3PIxGn75ryYCZ6vw1qPRump1vrsbTj961N3+08ExzXHuxqTZ1pPzgahrq7kTfnF6P261vvgLZUXu9Xv6ftdPH6Ppe6mXC739vhd65DlvPWr6+8GZhqqZxdBGEutWZj5zdtp453V6nde2FM916NjzsHj44Dg47rZFZczKFbBk5Pj45aX3ulFJ1N6La34jq3kZUBxtRHW5EdX8jqgcbUT3ciKrT24zsZmaXs5np5WxmfjmbmWDOZmaYs5kp5mxmjjmbmWTOZmaZu5lZ5m5oD9vMLHM3M8tci1mmktnV1crXeNfoEGLtVxAteW2riZa8stVES17XaqIl165qoiVXrmqiJdetaqIlV61qoiXXrGqiZRuDiqobmVNl24KKqhuZVWWbgoqqG5lXZVuCiqobmVllG4KKqhuZW2XbgYqqm9mvNjK3yvYCFVXrzq2bYJLatgHn5gnlVUte1oqqJS9rRdWSl7Wiasklq6JqySWromrJJauiasklq6JqySWromrZfqCq7GZmV9mOoKrsZuZX2Z6gquxmZljZrqCq7GbmWNm+oKrsZmZZ2c6gquyG9rDNzLKyzUFV2Uqz7EOZNxwW7w2qIzXRN8s3NPL3MdrJ9biTvyGx9p2L5RuMiU5fRLOJn7QHvY5ynEFH9c1P7qDcux+3Gcb9+6a+f+ylehzFd89vg2T+Bt39pSjxLmYm8Cb2dfx2Zt4vK32i4bhb5XitvWQW6zmGectvcQts35fN30hatTrVcaCTBW7mtLgh0zBKu+bdrbWWydde93rSpJvX3TQKvTSIJhlUK0n1dPdcX0SxbpWrpJ/1WE/81Rc0f6w9zKqgbyrBvBnmmP8s3vZc+47wUrZ7NtbpySQ11yezuJhNRjlpe0f9XuJ9T0Oo789+v3ZumCO4UO30MkiyujbnlTMyx4OTutn1O/FGl+3/AldVW+Iv3htc6J5NoyQwgi+zh8u8muVhZL5CFUc31ZCWWMHE12bi7jqdimcvj491T7wIdGjqrb24pvN5Mo6j2VT76ttv1d8Wj992zy69ZLGemAm283D07quj2QXpeuPxK+PRDfVknF6q75Wr/qlaz8OwpZ6tPiMJg5Fu7zo773sfdtbOty9eSRSr9sfspfS+Ux8zm0WpLnzNY38/Uk71G2QOU8YLvfcfP3Q/6Wx5OzqaX7x6irnq4rZ/rPpSl8d5rL1PdU7+XPGcqs8312vx6o5MWZtiWFRKvjF2z+Z/06P9/K96kvf5lfxQ71Iub/R0lly2696L7JY+m9/P+jMpDJ+VeZVd88y6LkkaR590OZ/5c+s6RVNvFKR35awWT679qnKLpVVdleVCsrqs1JkelRcfcyyn8+rCo3aVU1WtynQrz/q5k++qpZ7/eV1PYY6nT9Wvv71T/37z21t1+ubtu59++UH9/OaHn47VjydvT8oJvMpWbX3rmRZNpZFKoqyRnsyusjoYqbxFTJSXjLLmJZiMSygur73RebAzex11Xn5xiXU6iydq6sWJfhVGXtr2zJK/k93KB4+d54+VupjrW7QHtouXsE748//gby//8Abs4g8szRuq/5M/BSUOcYhDHOIQhzjEIQ5xiEOcrcf58g9cDFGsfdKQhjSkIQ1pSEMa0pCGNKQhTTHNF38SaGjMn/gRhzjEIQ5xiEMc4hCHOMQhDnH+h4mH7/TVVMdeOou1ar/aYebho8o8/JdnKu5Hnf/P86vzQE9SZW6ZST7U/iy7/rtqv/dqS0IQh9sQgjhsLAQx/+hp3RAmkE4fpLMH0hmAdIYgnX2QzgFI5xCks5IuYCWEqmgHVdIOqqYdVFE7qKp2UGXtoOraQRW2g6psF1XZLmytRlW2i6pst1Jllw/tW5GqH9NnISNeofpRfBYy4ryvH7dnISPO+fqRehYy4ny3iM2z0QHVsbyNWYTh2eiASlnewywi7mx0QNUsb2AWwXU26yConuXdyyKOzkYHVM/y1lU/ZG5FxiJWzkZHvDwW0XE2OuJ0t4iHs9ERp7tFBJyNjjjdbWLerIRQFS3vYDbhbVZCqKKWNzGbSDYrIVRdy/uYTdCa1cqIqmx5K7OJT7MSQlW2vJsxFG0rQtE4zGEOc5jDHOYwhznMYQ5zmMMc5jCHOfyYhu+60bWO48DXrz3ziyqn22Mo/oNXwlD8+4Oh+JUOhuIzFL/CwVD8Px4Mxf/jwVD8igdD8RmK/9WDofjEIQ5xiEMc4hCHOMQhDnGIQ5xtiJQkDWlIQxrSkIY0pCENaUhDmu2h+ctEWRKHOMQhDnGIQxziEIc4xCFOfb//QSj+y+BKT5IgmoQ6SRiJ/7gi8aP4kzq5uAhGgZ6M7u6D8JuNwF88+w8jD///8uf5/96rL364/5/zyL8z/3uZXoX/+H/+fzw8gvI="
               },
               {
                  "name" : "annual_peak_electric_demand",
                  "units" : "kW",
                  "value" : 227.37824000000001
               },
               {
                  "name" : "first_year_capital_cost",
                  "units" : "$",
                  "value" : 0
               },
               {
                  "name" : "annual_utility_cost",
                  "units" : "$",
                  "value" : 0
               },
               {
                  "name" : "total_lifecycle_cost",
                  "units" : "$",
                  "value" : 0
               }
            ],
            "step_warnings" : []
         }
      }
   ],
   "updated_at" : "20170710T183926Z",
   "weather_file" : "USA_CO_Denver.Intl.AP.725650_TMY3.epw"
}
