{
   "completed_at" : "20170710T194142Z",
   "completed_status" : "Success",
   "created_at" : "2017-07-10 19:26:17 +0000",
   "current_step" : 5,
   "description" : "",
   "eplusout_err" : "Program Version,EnergyPlus, Version 8.7.0-78a111df4a, YMD=2017.07.10 19:37,IDD_Version 8.7.0\n   ************* IDF Context for following error/warning message:\n   ************* Note -- lines truncated at 300 characters, if necessary...\n   *************      5 Building,\n   ************* indicated Name=NECB 2011-SecondarySchool-NECB HDD Method-CAN_NS_Shearwater.716010_CWEC.epw created: 2017-07-10 19:26:25 +0000\n   ************* Only last 1 lines before error line shown.....\n   *************      6   NECB 2011-SecondarySchool-NECB HDD Method-CAN_NS_Shearwater.716010_CWEC.epw created: 2017-07-10 19:26:25 +0000, !- Name\n   ** Warning ** IP: IDF line~6 Alpha Argument length exceeds maximum, will be truncated=  NECB 2011-SecondarySchool-NECB HDD Method-CAN_NS_Shearwater.716010_CWEC.epw created: 2017-07-10 19:26:25 +000\n   **   ~~~   ** Will be processed as Alpha=NECB 2011-SECONDARYSCHOOL-NECB HDD METHOD-CAN_NS_SHEARWATER.716010_CWEC.EPW CREATED: 2017-07-10 19:26:25 +0000\n   ************* IDF Context for following error/warning message:\n   ************* Note -- lines truncated at 300 characters, if necessary...\n   *************    606 Schedule:Week:Daily,\n   ************* indicated Name=Schedule:Week:Daily {9dbac198-46e6-48fb-9ca7-36cf970d4b30}\n   ************* Only last 10 lines before error line shown.....\n   *************    607   Schedule:Week:Daily {9dbac198-46e6-48fb-9ca7-36cf970d4b30}, !- Name\n   *************    608   Sp-Auditorium_ZN_1_FLR_1 Sys-3 Flr-2 Sch-C HPlcmt-north ZN NECB System 3 PSZ Occ Sch Sunday, !- Sunday Schedule:Day Name\n   *************    609   Sp-Auditorium_ZN_1_FLR_1 Sys-3 Flr-2 Sch-C HPlcmt-north ZN NECB System 3 PSZ Occ Sch Monday, !- Monday Schedule:Day Name\n   *************    610   Sp-Auditorium_ZN_1_FLR_1 Sys-3 Flr-2 Sch-C HPlcmt-north ZN NECB System 3 PSZ Occ Sch Tuesday, !- Tuesday Schedule:Day Name\n   *************    611   Sp-Auditorium_ZN_1_FLR_1 Sys-3 Flr-2 Sch-C HPlcmt-north ZN NECB System 3 PSZ Occ Sch Wednesday, !- Wednesday Schedule:Day Name\n   *************    612   Sp-Auditorium_ZN_1_FLR_1 Sys-3 Flr-2 Sch-C HPlcmt-north ZN NECB System 3 PSZ Occ Sch Thursday, !- Thursday Schedule:Day Name\n   *************    613   Sp-Auditorium_ZN_1_FLR_1 Sys-3 Flr-2 Sch-C HPlcmt-north ZN NECB System 3 PSZ Occ Sch Friday, !- Friday Schedule:Day Name\n   *************    614   Sp-Auditorium_ZN_1_FLR_1 Sys-3 Flr-2 Sch-C HPlcmt-north ZN NECB System 3 PSZ Occ Sch Saturday, !- Saturday Schedule:Day Name\n   *************    615   Sp-Auditorium_ZN_1_FLR_1 Sys-3 Flr-2 Sch-C HPlcmt-north ZN NECB System 3 PSZ Occ Sch Default, !- Holiday Schedule:Day Name\n   *************    616   Sp-Auditorium_ZN_1_FLR_1 Sys-3 Flr-2 Sch-C HPlcmt-north ZN NECB System 3 PSZ Occ Sch Summer Design Day, !- SummerDesignDay Schedule:Day Name\n   ** Warning ** IP: IDF line~616 Alpha Argument length exceeds maximum, will be truncated=  Sp-Auditorium_ZN_1_FLR_1 Sys-3 Flr-2 Sch-C HPlcmt-north ZN NECB System 3 PSZ Occ Sch Summer Design Da\n   **   ~~~   ** Will be processed as Alpha=SP-AUDITORIUM_ZN_1_FLR_1 SYS-3 FLR-2 SCH-C HPLCMT-NORTH ZN NECB SYSTEM 3 PSZ OCC SCH SUMMER DESIGN DAY\n   ************* IDF Context for following error/warning message:\n   ************* Note -- lines truncated at 300 characters, if necessary...\n   *************    606 Schedule:Week:Daily,\n   ************* indicated Name=Schedule:Week:Daily {9dbac198-46e6-48fb-9ca7-36cf970d4b30}\n   ************* Only last 10 lines before error line shown.....\n   *************    608   Sp-Auditorium_ZN_1_FLR_1 Sys-3 Flr-2 Sch-C HPlcmt-north ZN NECB System 3 PSZ Occ Sch Sunday, !- Sunday Schedule:Day Name\n   *************    609   Sp-Auditorium_ZN_1_FLR_1 Sys-3 Flr-2 Sch-C HPlcmt-north ZN NECB System 3 PSZ Occ Sch Monday, !- Monday Schedule:Day Name\n   *************    610   Sp-Auditorium_ZN_1_FLR_1 Sys-3 Flr-2 Sch-C HPlcmt-north ZN NECB System 3 PSZ Occ Sch Tuesday, !- Tuesday Schedule:Day Name\n   *************    611   Sp-Auditorium_ZN_1_FLR_1 Sys-3 Flr-2 Sch-C HPlcmt-north ZN NECB System 3 PSZ Occ Sch Wednesday, !- Wednesday Schedule:Day Name\n   *************    612   Sp-Auditorium_ZN_1_FLR_1 Sys-3 Flr-2 Sch-C HPlcmt-north ZN NECB System 3 PSZ Occ Sch Thursday, !- Thursday Schedule:Day Name\n   *************    613   Sp-Auditorium_ZN_1_FLR_1 Sys-3 Flr-2 Sch-C HPlcmt-north ZN NECB System 3 PSZ Occ Sch Friday, !- Friday Schedule:Day Name\n   *************    614   Sp-Auditorium_ZN_1_FLR_1 Sys-3 Flr-2 Sch-C HPlcmt-north ZN NECB System 3 PSZ Occ Sch Saturday, !- Saturday Schedule:Day Name\n   *************    615   Sp-Auditorium_ZN_1_FLR_1 Sys-3 Flr-2 Sch-C HPlcmt-north ZN NECB System 3 PSZ Occ Sch Default, !- Holiday Schedule:Day Name\n   *************    616   Sp-Auditorium_ZN_1_FLR_1 Sys-3 Flr-2 Sch-C HPlcmt-north ZN NECB System 3 PSZ Occ Sch Summer Design Day, !- SummerDesignDay Schedule:Day Name\n   *************    617   Sp-Auditorium_ZN_1_FLR_1 Sys-3 Flr-2 Sch-C HPlcmt-north ZN NECB System 3 PSZ Occ Sch Winter Design Day, !- WinterDesignDay Schedule:Day Name\n   ** Warning ** IP: IDF line~617 Alpha Argument length exceeds maximum, will be truncated=  Sp-Auditorium_ZN_1_FLR_1 Sys-3 Flr-2 Sch-C HPlcmt-north ZN NECB System 3 PSZ Occ Sch Winter Design Da\n   **   ~~~   ** Will be processed as Alpha=SP-AUDITORIUM_ZN_1_FLR_1 SYS-3 FLR-2 SCH-C HPLCMT-NORTH ZN NECB SYSTEM 3 PSZ OCC SCH WINTER DESIGN DAY\n   ************* IDF Context for following error/warning message:\n   ************* Note -- lines truncated at 300 characters, if necessary...\n   *************    637 Schedule:Day:Interval,\n   ************* indicated Name=Sp-Auditorium_ZN_1_FLR_1 Sys-3 Flr-2 Sch-C HPlcmt-north ZN NECB System 3 PSZ Occ Sch Summer Design Day\n   ************* Only last 1 lines before error line shown.....\n   *************    638   Sp-Auditorium_ZN_1_FLR_1 Sys-3 Flr-2 Sch-C HPlcmt-north ZN NECB System 3 PSZ Occ Sch Summer Design Day, !- Name\n   ** Warning ** IP: IDF line~638 Alpha Argument length exceeds maximum, will be truncated=  Sp-Auditorium_ZN_1_FLR_1 Sys-3 Flr-2 Sch-C HPlcmt-north ZN NECB System 3 PSZ Occ Sch Summer Design Da\n   **   ~~~   ** Will be processed as Alpha=SP-AUDITORIUM_ZN_1_FLR_1 SYS-3 FLR-2 SCH-C HPLCMT-NORTH ZN NECB SYSTEM 3 PSZ OCC SCH SUMMER DESIGN DAY\n   ************* IDF Context for following error/warning message:\n   ************* Note -- lines truncated at 300 characters, if necessary...\n   *************    644 Schedule:Day:Interval,\n   ************* indicated Name=Sp-Auditorium_ZN_1_FLR_1 Sys-3 Flr-2 Sch-C HPlcmt-north ZN NECB System 3 PSZ Occ Sch Winter Design Day\n   ************* Only last 1 lines before error line shown.....\n   *************    645   Sp-Auditorium_ZN_1_FLR_1 Sys-3 Flr-2 Sch-C HPlcmt-north ZN NECB System 3 PSZ Occ Sch Winter Design Day, !- Name\n   ** Warning ** IP: IDF line~645 Alpha Argument length exceeds maximum, will be truncated=  Sp-Auditorium_ZN_1_FLR_1 Sys-3 Flr-2 Sch-C HPlcmt-north ZN NECB System 3 PSZ Occ Sch Winter Design Da\n   **   ~~~   ** Will be processed as Alpha=SP-AUDITORIUM_ZN_1_FLR_1 SYS-3 FLR-2 SCH-C HPLCMT-NORTH ZN NECB SYSTEM 3 PSZ OCC SCH WINTER DESIGN DAY\n   ************* IDF Context for following error/warning message:\n   ************* Note -- lines truncated at 300 characters, if necessary...\n   *************   2696 Schedule:Week:Daily,\n   ************* indicated Name=Schedule:Week:Daily {699fb50a-d1a6-4bd6-90c8-33f143b8b0d5}\n   ************* Only last 10 lines before error line shown.....\n   *************   2697   Schedule:Week:Daily {699fb50a-d1a6-4bd6-90c8-33f143b8b0d5}, !- Name\n   *************   2698   Sp-Bathrooms_ZN_1_FLR_2 Sys-3 Flr-1 Sch-D HPlcmt-north ZN NECB System 3 PSZ Occ Sch Sunday, !- Sunday Schedule:Day Name\n   *************   2699   Sp-Bathrooms_ZN_1_FLR_2 Sys-3 Flr-1 Sch-D HPlcmt-north ZN NECB System 3 PSZ Occ Sch Monday, !- Monday Schedule:Day Name\n   *************   2700   Sp-Bathrooms_ZN_1_FLR_2 Sys-3 Flr-1 Sch-D HPlcmt-north ZN NECB System 3 PSZ Occ Sch Tuesday, !- Tuesday Schedule:Day Name\n   *************   2701   Sp-Bathrooms_ZN_1_FLR_2 Sys-3 Flr-1 Sch-D HPlcmt-north ZN NECB System 3 PSZ Occ Sch Wednesday, !- Wednesday Schedule:Day Name\n   *************   2702   Sp-Bathrooms_ZN_1_FLR_2 Sys-3 Flr-1 Sch-D HPlcmt-north ZN NECB System 3 PSZ Occ Sch Thursday, !- Thursday Schedule:Day Name\n   *************   2703   Sp-Bathrooms_ZN_1_FLR_2 Sys-3 Flr-1 Sch-D HPlcmt-north ZN NECB System 3 PSZ Occ Sch Friday, !- Friday Schedule:Day Name\n   *************   2704   Sp-Bathrooms_ZN_1_FLR_2 Sys-3 Flr-1 Sch-D HPlcmt-north ZN NECB System 3 PSZ Occ Sch Saturday, !- Saturday Schedule:Day Name\n   *************   2705   Sp-Bathrooms_ZN_1_FLR_2 Sys-3 Flr-1 Sch-D HPlcmt-north ZN NECB System 3 PSZ Occ Sch Default, !- Holiday Schedule:Day Name\n   *************   2706   Sp-Bathrooms_ZN_1_FLR_2 Sys-3 Flr-1 Sch-D HPlcmt-north ZN NECB System 3 PSZ Occ Sch Summer Design Day, !- SummerDesignDay Schedule:Day Name\n   ** Warning ** IP: IDF line~2706 Alpha Argument length exceeds maximum, will be truncated=  Sp-Bathrooms_ZN_1_FLR_2 Sys-3 Flr-1 Sch-D HPlcmt-north ZN NECB System 3 PSZ Occ Sch Summer Design Da\n   **   ~~~   ** Will be processed as Alpha=SP-BATHROOMS_ZN_1_FLR_2 SYS-3 FLR-1 SCH-D HPLCMT-NORTH ZN NECB SYSTEM 3 PSZ OCC SCH SUMMER DESIGN DAY\n   ************* IDF Context for following error/warning message:\n   ************* Note -- lines truncated at 300 characters, if necessary...\n   *************   2696 Schedule:Week:Daily,\n   ************* indicated Name=Schedule:Week:Daily {699fb50a-d1a6-4bd6-90c8-33f143b8b0d5}\n   ************* Only last 10 lines before error line shown.....\n   *************   2698   Sp-Bathrooms_ZN_1_FLR_2 Sys-3 Flr-1 Sch-D HPlcmt-north ZN NECB System 3 PSZ Occ Sch Sunday, !- Sunday Schedule:Day Name\n   *************   2699   Sp-Bathrooms_ZN_1_FLR_2 Sys-3 Flr-1 Sch-D HPlcmt-north ZN NECB System 3 PSZ Occ Sch Monday, !- Monday Schedule:Day Name\n   *************   2700   Sp-Bathrooms_ZN_1_FLR_2 Sys-3 Flr-1 Sch-D HPlcmt-north ZN NECB System 3 PSZ Occ Sch Tuesday, !- Tuesday Schedule:Day Name\n   *************   2701   Sp-Bathrooms_ZN_1_FLR_2 Sys-3 Flr-1 Sch-D HPlcmt-north ZN NECB System 3 PSZ Occ Sch Wednesday, !- Wednesday Schedule:Day Name\n   *************   2702   Sp-Bathrooms_ZN_1_FLR_2 Sys-3 Flr-1 Sch-D HPlcmt-north ZN NECB System 3 PSZ Occ Sch Thursday, !- Thursday Schedule:Day Name\n   *************   2703   Sp-Bathrooms_ZN_1_FLR_2 Sys-3 Flr-1 Sch-D HPlcmt-north ZN NECB System 3 PSZ Occ Sch Friday, !- Friday Schedule:Day Name\n   *************   2704   Sp-Bathrooms_ZN_1_FLR_2 Sys-3 Flr-1 Sch-D HPlcmt-north ZN NECB System 3 PSZ Occ Sch Saturday, !- Saturday Schedule:Day Name\n   *************   2705   Sp-Bathrooms_ZN_1_FLR_2 Sys-3 Flr-1 Sch-D HPlcmt-north ZN NECB System 3 PSZ Occ Sch Default, !- Holiday Schedule:Day Name\n   *************   2706   Sp-Bathrooms_ZN_1_FLR_2 Sys-3 Flr-1 Sch-D HPlcmt-north ZN NECB System 3 PSZ Occ Sch Summer Design Day, !- SummerDesignDay Schedule:Day Name\n   *************   2707   Sp-Bathrooms_ZN_1_FLR_2 Sys-3 Flr-1 Sch-D HPlcmt-north ZN NECB System 3 PSZ Occ Sch Winter Design Day, !- WinterDesignDay Schedule:Day Name\n   ** Warning ** IP: IDF line~2707 Alpha Argument length exceeds maximum, will be truncated=  Sp-Bathrooms_ZN_1_FLR_2 Sys-3 Flr-1 Sch-D HPlcmt-north ZN NECB System 3 PSZ Occ Sch Winter Design Da\n   **   ~~~   ** Will be processed as Alpha=SP-BATHROOMS_ZN_1_FLR_2 SYS-3 FLR-1 SCH-D HPLCMT-NORTH ZN NECB SYSTEM 3 PSZ OCC SCH WINTER DESIGN DAY\n   ************* IDF Context for following error/warning message:\n   ************* Note -- lines truncated at 300 characters, if necessary...\n   *************   2727 Schedule:Day:Interval,\n   ************* indicated Name=Sp-Bathrooms_ZN_1_FLR_2 Sys-3 Flr-1 Sch-D HPlcmt-north ZN NECB System 3 PSZ Occ Sch Summer Design Day\n   ************* Only last 1 lines before error line shown.....\n   *************   2728   Sp-Bathrooms_ZN_1_FLR_2 Sys-3 Flr-1 Sch-D HPlcmt-north ZN NECB System 3 PSZ Occ Sch Summer Design Day, !- Name\n   ** Warning ** IP: IDF line~2728 Alpha Argument length exceeds maximum, will be truncated=  Sp-Bathrooms_ZN_1_FLR_2 Sys-3 Flr-1 Sch-D HPlcmt-north ZN NECB System 3 PSZ Occ Sch Summer Design Da\n   **   ~~~   ** Will be processed as Alpha=SP-BATHROOMS_ZN_1_FLR_2 SYS-3 FLR-1 SCH-D HPLCMT-NORTH ZN NECB SYSTEM 3 PSZ OCC SCH SUMMER DESIGN DAY\n   ************* IDF Context for following error/warning message:\n   ************* Note -- lines truncated at 300 characters, if necessary...\n   *************   2734 Schedule:Day:Interval,\n   ************* indicated Name=Sp-Bathrooms_ZN_1_FLR_2 Sys-3 Flr-1 Sch-D HPlcmt-north ZN NECB System 3 PSZ Occ Sch Winter Design Day\n   ************* Only last 1 lines before error line shown.....\n   *************   2735   Sp-Bathrooms_ZN_1_FLR_2 Sys-3 Flr-1 Sch-D HPlcmt-north ZN NECB System 3 PSZ Occ Sch Winter Design Day, !- Name\n   ** Warning ** IP: IDF line~2735 Alpha Argument length exceeds maximum, will be truncated=  Sp-Bathrooms_ZN_1_FLR_2 Sys-3 Flr-1 Sch-D HPlcmt-north ZN NECB System 3 PSZ Occ Sch Winter Design Da\n   **   ~~~   ** Will be processed as Alpha=SP-BATHROOMS_ZN_1_FLR_2 SYS-3 FLR-1 SCH-D HPLCMT-NORTH ZN NECB SYSTEM 3 PSZ OCC SCH WINTER DESIGN DAY\n   ************* IDF Context for following error/warning message:\n   ************* Note -- lines truncated at 300 characters, if necessary...\n   *************   3403 Schedule:Day:Interval,\n   ************* indicated Name=Sp-Corner_Class_1_Pod_1_ZN_1_FLR_1 Sys-3 Flr-2 Sch-D HPlcmt-south ZN NECB System 3 PSZ Occ Sch Sunday\n   ************* Only last 1 lines before error line shown.....\n   *************   3404   Sp-Corner_Class_1_Pod_1_ZN_1_FLR_1 Sys-3 Flr-2 Sch-D HPlcmt-south ZN NECB System 3 PSZ Occ Sch Sunday, !- Name\n   ** Warning ** IP: IDF line~3404 Alpha Argument length exceeds maximum, will be truncated=  Sp-Corner_Class_1_Pod_1_ZN_1_FLR_1 Sys-3 Flr-2 Sch-D HPlcmt-south ZN NECB System 3 PSZ Occ Sch Sunda\n   **   ~~~   ** Will be processed as Alpha=SP-CORNER_CLASS_1_POD_1_ZN_1_FLR_1 SYS-3 FLR-2 SCH-D HPLCMT-SOUTH ZN NECB SYSTEM 3 PSZ OCC SCH SUNDAY\n   ************* IDF Context for following error/warning message:\n   ************* Note -- lines truncated at 300 characters, if necessary...\n   *************   3410 Schedule:Day:Interval,\n   ************* indicated Name=Sp-Corner_Class_1_Pod_1_ZN_1_FLR_1 Sys-3 Flr-2 Sch-D HPlcmt-south ZN NECB System 3 PSZ Occ Sch Monday\n   ************* Only last 1 lines before error line shown.....\n   *************   3411   Sp-Corner_Class_1_Pod_1_ZN_1_FLR_1 Sys-3 Flr-2 Sch-D HPlcmt-south ZN NECB System 3 PSZ Occ Sch Monday, !- Name\n   ** Warning ** IP: IDF line~3411 Alpha Argument length exceeds maximum, will be truncated=  Sp-Corner_Class_1_Pod_1_ZN_1_FLR_1 Sys-3 Flr-2 Sch-D HPlcmt-south ZN NECB System 3 PSZ Occ Sch Monda\n   **   ~~~   ** Will be processed as Alpha=SP-CORNER_CLASS_1_POD_1_ZN_1_FLR_1 SYS-3 FLR-2 SCH-D HPLCMT-SOUTH ZN NECB SYSTEM 3 PSZ OCC SCH MONDAY\n   ************* IDF Context for following error/warning message:\n   ************* Note -- lines truncated at 300 characters, if necessary...\n   *************   3425 Schedule:Day:Interval,\n   ************* indicated Name=Sp-Corner_Class_1_Pod_1_ZN_1_FLR_1 Sys-3 Flr-2 Sch-D HPlcmt-south ZN NECB System 3 PSZ Occ Sch Tuesday\n   ************* Only last 1 lines before error line shown.....\n   *************   3426   Sp-Corner_Class_1_Pod_1_ZN_1_FLR_1 Sys-3 Flr-2 Sch-D HPlcmt-south ZN NECB System 3 PSZ Occ Sch Tuesday, !- Name\n   ** Warning ** IP: IDF line~3426 Alpha Argument length exceeds maximum, will be truncated=  Sp-Corner_Class_1_Pod_1_ZN_1_FLR_1 Sys-3 Flr-2 Sch-D HPlcmt-south ZN NECB System 3 PSZ Occ Sch Tuesda\n   **   ~~~   ** Will be processed as Alpha=SP-CORNER_CLASS_1_POD_1_ZN_1_FLR_1 SYS-3 FLR-2 SCH-D HPLCMT-SOUTH ZN NECB SYSTEM 3 PSZ OCC SCH TUESDAY\n   ************* IDF Context for following error/warning message:\n   ************* Note -- lines truncated at 300 characters, if necessary...\n   *************   3440 Schedule:Day:Interval,\n   ************* indicated Name=Sp-Corner_Class_1_Pod_1_ZN_1_FLR_1 Sys-3 Flr-2 Sch-D HPlcmt-south ZN NECB System 3 PSZ Occ Sch Wednesday\n   ************* Only last 1 lines before error line shown.....\n   *************   3441   Sp-Corner_Class_1_Pod_1_ZN_1_FLR_1 Sys-3 Flr-2 Sch-D HPlcmt-south ZN NECB System 3 PSZ Occ Sch Wednesday, !- Name\n   ** Warning ** IP: IDF line~3441 Alpha Argument length exceeds maximum, will be truncated=  Sp-Corner_Class_1_Pod_1_ZN_1_FLR_1 Sys-3 Flr-2 Sch-D HPlcmt-south ZN NECB System 3 PSZ Occ Sch Wednesda\n   **   ~~~   ** Will be processed as Alpha=SP-CORNER_CLASS_1_POD_1_ZN_1_FLR_1 SYS-3 FLR-2 SCH-D HPLCMT-SOUTH ZN NECB SYSTEM 3 PSZ OCC SCH WEDNESDAY\n   ************* IDF Context for following error/warning message:\n   ************* Note -- lines truncated at 300 characters, if necessary...\n   *************   3455 Schedule:Day:Interval,\n   ************* indicated Name=Sp-Corner_Class_1_Pod_1_ZN_1_FLR_1 Sys-3 Flr-2 Sch-D HPlcmt-south ZN NECB System 3 PSZ Occ Sch Thursday\n   ************* Only last 1 lines before error line shown.....\n   *************   3456   Sp-Corner_Class_1_Pod_1_ZN_1_FLR_1 Sys-3 Flr-2 Sch-D HPlcmt-south ZN NECB System 3 PSZ Occ Sch Thursday, !- Name\n   ** Warning ** IP: IDF line~3456 Alpha Argument length exceeds maximum, will be truncated=  Sp-Corner_Class_1_Pod_1_ZN_1_FLR_1 Sys-3 Flr-2 Sch-D HPlcmt-south ZN NECB System 3 PSZ Occ Sch Thursda\n   **   ~~~   ** Will be processed as Alpha=SP-CORNER_CLASS_1_POD_1_ZN_1_FLR_1 SYS-3 FLR-2 SCH-D HPLCMT-SOUTH ZN NECB SYSTEM 3 PSZ OCC SCH THURSDAY\n   ************* IDF Context for following error/warning message:\n   ************* Note -- lines truncated at 300 characters, if necessary...\n   *************   3470 Schedule:Day:Interval,\n   ************* indicated Name=Sp-Corner_Class_1_Pod_1_ZN_1_FLR_1 Sys-3 Flr-2 Sch-D HPlcmt-south ZN NECB System 3 PSZ Occ Sch Friday\n   ************* Only last 1 lines before error line shown.....\n   *************   3471   Sp-Corner_Class_1_Pod_1_ZN_1_FLR_1 Sys-3 Flr-2 Sch-D HPlcmt-south ZN NECB System 3 PSZ Occ Sch Friday, !- Name\n   ** Warning ** IP: IDF line~3471 Alpha Argument length exceeds maximum, will be truncated=  Sp-Corner_Class_1_Pod_1_ZN_1_FLR_1 Sys-3 Flr-2 Sch-D HPlcmt-south ZN NECB System 3 PSZ Occ Sch Frida\n   **   ~~~   ** Will be processed as Alpha=SP-CORNER_CLASS_1_POD_1_ZN_1_FLR_1 SYS-3 FLR-2 SCH-D HPLCMT-SOUTH ZN NECB SYSTEM 3 PSZ OCC SCH FRIDAY\n   ************* IDF Context for following error/warning message:\n   ************* Note -- lines truncated at 300 characters, if necessary...\n   *************   3485 Schedule:Day:Interval,\n   ************* indicated Name=Sp-Corner_Class_1_Pod_1_ZN_1_FLR_1 Sys-3 Flr-2 Sch-D HPlcmt-south ZN NECB System 3 PSZ Occ Sch Saturday\n   ************* Only last 1 lines before error line shown.....\n   *************   3486   Sp-Corner_Class_1_Pod_1_ZN_1_FLR_1 Sys-3 Flr-2 Sch-D HPlcmt-south ZN NECB System 3 PSZ Occ Sch Saturday, !- Name\n   ** Warning ** IP: IDF line~3486 Alpha Argument length exceeds maximum, will be truncated=  Sp-Corner_Class_1_Pod_1_ZN_1_FLR_1 Sys-3 Flr-2 Sch-D HPlcmt-south ZN NECB System 3 PSZ Occ Sch Saturda\n   **   ~~~   ** Will be processed as Alpha=SP-CORNER_CLASS_1_POD_1_ZN_1_FLR_1 SYS-3 FLR-2 SCH-D HPLCMT-SOUTH ZN NECB SYSTEM 3 PSZ OCC SCH SATURDAY\n   ************* IDF Context for following error/warning message:\n   ************* Note -- lines truncated at 300 characters, if necessary...\n   *************   3492 Schedule:Week:Daily,\n   ************* indicated Name=Schedule:Week:Daily {694120b6-3dec-4a33-a3e5-28f881e25d12}\n   ************* Only last 2 lines before error line shown.....\n   *************   3493   Schedule:Week:Daily {694120b6-3dec-4a33-a3e5-28f881e25d12}, !- Name\n   *************   3494   Sp-Corner_Class_1_Pod_1_ZN_1_FLR_1 Sys-3 Flr-2 Sch-D HPlcmt-south ZN NECB System 3 PSZ Occ Sch Sunday, !- Sunday Schedule:Day Name\n   ** Warning ** IP: IDF line~3494 Alpha Argument length exceeds maximum, will be truncated=  Sp-Corner_Class_1_Pod_1_ZN_1_FLR_1 Sys-3 Flr-2 Sch-D HPlcmt-south ZN NECB System 3 PSZ Occ Sch Sunda\n   **   ~~~   ** Will be processed as Alpha=SP-CORNER_CLASS_1_POD_1_ZN_1_FLR_1 SYS-3 FLR-2 SCH-D HPLCMT-SOUTH ZN NECB SYSTEM 3 PSZ OCC SCH SUNDAY\n   ************* IDF Context for following error/warning message:\n   ************* Note -- lines truncated at 300 characters, if necessary...\n   *************   3492 Schedule:Week:Daily,\n   ************* indicated Name=Schedule:Week:Daily {694120b6-3dec-4a33-a3e5-28f881e25d12}\n   ************* Only last 3 lines before error line shown.....\n   *************   3493   Schedule:Week:Daily {694120b6-3dec-4a33-a3e5-28f881e25d12}, !- Name\n   *************   3494   Sp-Corner_Class_1_Pod_1_ZN_1_FLR_1 Sys-3 Flr-2 Sch-D HPlcmt-south ZN NECB System 3 PSZ Occ Sch Sunday, !- Sunday Schedule:Day Name\n   *************   3495   Sp-Corner_Class_1_Pod_1_ZN_1_FLR_1 Sys-3 Flr-2 Sch-D HPlcmt-south ZN NECB System 3 PSZ Occ Sch Monday, !- Monday Schedule:Day Name\n   ** Warning ** IP: IDF line~3495 Alpha Argument length exceeds maximum, will be truncated=  Sp-Corner_Class_1_Pod_1_ZN_1_FLR_1 Sys-3 Flr-2 Sch-D HPlcmt-south ZN NECB System 3 PSZ Occ Sch Monda\n   **   ~~~   ** Will be processed as Alpha=SP-CORNER_CLASS_1_POD_1_ZN_1_FLR_1 SYS-3 FLR-2 SCH-D HPLCMT-SOUTH ZN NECB SYSTEM 3 PSZ OCC SCH MONDAY\n   ************* IDF Context for following error/warning message:\n   ************* Note -- lines truncated at 300 characters, if necessary...\n   *************   3492 Schedule:Week:Daily,\n   ************* indicated Name=Schedule:Week:Daily {694120b6-3dec-4a33-a3e5-28f881e25d12}\n   ************* Only last 4 lines before error line shown.....\n   *************   3493   Schedule:Week:Daily {694120b6-3dec-4a33-a3e5-28f881e25d12}, !- Name\n   *************   3494   Sp-Corner_Class_1_Pod_1_ZN_1_FLR_1 Sys-3 Flr-2 Sch-D HPlcmt-south ZN NECB System 3 PSZ Occ Sch Sunday, !- Sunday Schedule:Day Name\n   *************   3495   Sp-Corner_Class_1_Pod_1_ZN_1_FLR_1 Sys-3 Flr-2 Sch-D HPlcmt-south ZN NECB System 3 PSZ Occ Sch Monday, !- Monday Schedule:Day Name\n   *************   3496   Sp-Corner_Class_1_Pod_1_ZN_1_FLR_1 Sys-3 Flr-2 Sch-D HPlcmt-south ZN NECB System 3 PSZ Occ Sch Tuesday, !- Tuesday Schedule:Day Name\n   ** Warning ** IP: IDF line~3496 Alpha Argument length exceeds maximum, will be truncated=  Sp-Corner_Class_1_Pod_1_ZN_1_FLR_1 Sys-3 Flr-2 Sch-D HPlcmt-south ZN NECB System 3 PSZ Occ Sch Tuesda\n   **   ~~~   ** Will be processed as Alpha=SP-CORNER_CLASS_1_POD_1_ZN_1_FLR_1 SYS-3 FLR-2 SCH-D HPLCMT-SOUTH ZN NECB SYSTEM 3 PSZ OCC SCH TUESDAY\n   ************* IDF Context for following error/warning message:\n   ************* Note -- lines truncated at 300 characters, if necessary...\n   *************   3492 Schedule:Week:Daily,\n   ************* indicated Name=Schedule:Week:Daily {694120b6-3dec-4a33-a3e5-28f881e25d12}\n   ************* Only last 5 lines before error line shown.....\n   *************   3493   Schedule:Week:Daily {694120b6-3dec-4a33-a3e5-28f881e25d12}, !- Name\n   *************   3494   Sp-Corner_Class_1_Pod_1_ZN_1_FLR_1 Sys-3 Flr-2 Sch-D HPlcmt-south ZN NECB System 3 PSZ Occ Sch Sunday, !- Sunday Schedule:Day Name\n   *************   3495   Sp-Corner_Class_1_Pod_1_ZN_1_FLR_1 Sys-3 Flr-2 Sch-D HPlcmt-south ZN NECB System 3 PSZ Occ Sch Monday, !- Monday Schedule:Day Name\n   *************   3496   Sp-Corner_Class_1_Pod_1_ZN_1_FLR_1 Sys-3 Flr-2 Sch-D HPlcmt-south ZN NECB System 3 PSZ Occ Sch Tuesday, !- Tuesday Schedule:Day Name\n   *************   3497   Sp-Corner_Class_1_Pod_1_ZN_1_FLR_1 Sys-3 Flr-2 Sch-D HPlcmt-south ZN NECB System 3 PSZ Occ Sch Wednesday, !- Wednesday Schedule:Day Name\n   ** Warning ** IP: IDF line~3497 Alpha Argument length exceeds maximum, will be truncated=  Sp-Corner_Class_1_Pod_1_ZN_1_FLR_1 Sys-3 Flr-2 Sch-D HPlcmt-south ZN NECB System 3 PSZ Occ Sch Wednesda\n   **   ~~~   ** Will be processed as Alpha=SP-CORNER_CLASS_1_POD_1_ZN_1_FLR_1 SYS-3 FLR-2 SCH-D HPLCMT-SOUTH ZN NECB SYSTEM 3 PSZ OCC SCH WEDNESDAY\n   ************* IDF Context for following error/warning message:\n   ************* Note -- lines truncated at 300 characters, if necessary...\n   *************   3492 Schedule:Week:Daily,\n   ************* indicated Name=Schedule:Week:Daily {694120b6-3dec-4a33-a3e5-28f881e25d12}\n   ************* Only last 6 lines before error line shown.....\n   *************   3493   Schedule:Week:Daily {694120b6-3dec-4a33-a3e5-28f881e25d12}, !- Name\n   *************   3494   Sp-Corner_Class_1_Pod_1_ZN_1_FLR_1 Sys-3 Flr-2 Sch-D HPlcmt-south ZN NECB System 3 PSZ Occ Sch Sunday, !- Sunday Schedule:Day Name\n   *************   3495   Sp-Corner_Class_1_Pod_1_ZN_1_FLR_1 Sys-3 Flr-2 Sch-D HPlcmt-south ZN NECB System 3 PSZ Occ Sch Monday, !- Monday Schedule:Day Name\n   *************   3496   Sp-Corner_Class_1_Pod_1_ZN_1_FLR_1 Sys-3 Flr-2 Sch-D HPlcmt-south ZN NECB System 3 PSZ Occ Sch Tuesday, !- Tuesday Schedule:Day Name\n   *************   3497   Sp-Corner_Class_1_Pod_1_ZN_1_FLR_1 Sys-3 Flr-2 Sch-D HPlcmt-south ZN NECB System 3 PSZ Occ Sch Wednesday, !- Wednesday Schedule:Day Name\n   *************   3498   Sp-Corner_Class_1_Pod_1_ZN_1_FLR_1 Sys-3 Flr-2 Sch-D HPlcmt-south ZN NECB System 3 PSZ Occ Sch Thursday, !- Thursday Schedule:Day Name\n   ** Warning ** IP: IDF line~3498 Alpha Argument length exceeds maximum, will be truncated=  Sp-Corner_Class_1_Pod_1_ZN_1_FLR_1 Sys-3 Flr-2 Sch-D HPlcmt-south ZN NECB System 3 PSZ Occ Sch Thursda\n   **   ~~~   ** Will be processed as Alpha=SP-CORNER_CLASS_1_POD_1_ZN_1_FLR_1 SYS-3 FLR-2 SCH-D HPLCMT-SOUTH ZN NECB SYSTEM 3 PSZ OCC SCH THURSDAY\n   ************* IDF Context for following error/warning message:\n   ************* Note -- lines truncated at 300 characters, if necessary...\n   *************   3492 Schedule:Week:Daily,\n   ************* indicated Name=Schedule:Week:Daily {694120b6-3dec-4a33-a3e5-28f881e25d12}\n   ************* Only last 7 lines before error line shown.....\n   *************   3493   Schedule:Week:Daily {694120b6-3dec-4a33-a3e5-28f881e25d12}, !- Name\n   *************   3494   Sp-Corner_Class_1_Pod_1_ZN_1_FLR_1 Sys-3 Flr-2 Sch-D HPlcmt-south ZN NECB System 3 PSZ Occ Sch Sunday, !- Sunday Schedule:Day Name\n   *************   3495   Sp-Corner_Class_1_Pod_1_ZN_1_FLR_1 Sys-3 Flr-2 Sch-D HPlcmt-south ZN NECB System 3 PSZ Occ Sch Monday, !- Monday Schedule:Day Name\n   *************   3496   Sp-Corner_Class_1_Pod_1_ZN_1_FLR_1 Sys-3 Flr-2 Sch-D HPlcmt-south ZN NECB System 3 PSZ Occ Sch Tuesday, !- Tuesday Schedule:Day Name\n   *************   3497   Sp-Corner_Class_1_Pod_1_ZN_1_FLR_1 Sys-3 Flr-2 Sch-D HPlcmt-south ZN NECB System 3 PSZ Occ Sch Wednesday, !- Wednesday Schedule:Day Name\n   *************   3498   Sp-Corner_Class_1_Pod_1_ZN_1_FLR_1 Sys-3 Flr-2 Sch-D HPlcmt-south ZN NECB System 3 PSZ Occ Sch Thursday, !- Thursday Schedule:Day Name\n   *************   3499   Sp-Corner_Class_1_Pod_1_ZN_1_FLR_1 Sys-3 Flr-2 Sch-D HPlcmt-south ZN NECB System 3 PSZ Occ Sch Friday, !- Friday Schedule:Day Name\n   ** Warning ** IP: IDF line~3499 Alpha Argument length exceeds maximum, will be truncated=  Sp-Corner_Class_1_Pod_1_ZN_1_FLR_1 Sys-3 Flr-2 Sch-D HPlcmt-south ZN NECB System 3 PSZ Occ Sch Frida\n   **   ~~~   ** Will be processed as Alpha=SP-CORNER_CLASS_1_POD_1_ZN_1_FLR_1 SYS-3 FLR-2 SCH-D HPLCMT-SOUTH ZN NECB SYSTEM 3 PSZ OCC SCH FRIDAY\n   ************* IDF Context for following error/warning message:\n   ************* Note -- lines truncated at 300 characters, if necessary...\n   *************   3492 Schedule:Week:Daily,\n   ************* indicated Name=Schedule:Week:Daily {694120b6-3dec-4a33-a3e5-28f881e25d12}\n   ************* Only last 8 lines before error line shown.....\n   *************   3493   Schedule:Week:Daily {694120b6-3dec-4a33-a3e5-28f881e25d12}, !- Name\n   *************   3494   Sp-Corner_Class_1_Pod_1_ZN_1_FLR_1 Sys-3 Flr-2 Sch-D HPlcmt-south ZN NECB System 3 PSZ Occ Sch Sunday, !- Sunday Schedule:Day Name\n   *************   3495   Sp-Corner_Class_1_Pod_1_ZN_1_FLR_1 Sys-3 Flr-2 Sch-D HPlcmt-south ZN NECB System 3 PSZ Occ Sch Monday, !- Monday Schedule:Day Name\n   *************   3496   Sp-Corner_Class_1_Pod_1_ZN_1_FLR_1 Sys-3 Flr-2 Sch-D HPlcmt-south ZN NECB System 3 PSZ Occ Sch Tuesday, !- Tuesday Schedule:Day Name\n   *************   3497   Sp-Corner_Class_1_Pod_1_ZN_1_FLR_1 Sys-3 Flr-2 Sch-D HPlcmt-south ZN NECB System 3 PSZ Occ Sch Wednesday, !- Wednesday Schedule:Day Name\n   *************   3498   Sp-Corner_Class_1_Pod_1_ZN_1_FLR_1 Sys-3 Flr-2 Sch-D HPlcmt-south ZN NECB System 3 PSZ Occ Sch Thursday, !- Thursday Schedule:Day Name\n   *************   3499   Sp-Corner_Class_1_Pod_1_ZN_1_FLR_1 Sys-3 Flr-2 Sch-D HPlcmt-south ZN NECB System 3 PSZ Occ Sch Friday, !- Friday Schedule:Day Name\n   *************   3500   Sp-Corner_Class_1_Pod_1_ZN_1_FLR_1 Sys-3 Flr-2 Sch-D HPlcmt-south ZN NECB System 3 PSZ Occ Sch Saturday, !- Saturday Schedule:Day Name\n   ** Warning ** IP: IDF line~3500 Alpha Argument length exceeds maximum, will be truncated=  Sp-Corner_Class_1_Pod_1_ZN_1_FLR_1 Sys-3 Flr-2 Sch-D HPlcmt-south ZN NECB System 3 PSZ Occ Sch Saturda\n   **   ~~~   ** Will be processed as Alpha=SP-CORNER_CLASS_1_POD_1_ZN_1_FLR_1 SYS-3 FLR-2 SCH-D HPLCMT-SOUTH ZN NECB SYSTEM 3 PSZ OCC SCH SATURDAY\n   ************* IDF Context for following error/warning message:\n   ************* Note -- lines truncated at 300 characters, if necessary...\n   *************   3492 Schedule:Week:Daily,\n   ************* indicated Name=Schedule:Week:Daily {694120b6-3dec-4a33-a3e5-28f881e25d12}\n   ************* Only last 9 lines before error line shown.....\n   *************   3493   Schedule:Week:Daily {694120b6-3dec-4a33-a3e5-28f881e25d12}, !- Name\n   *************   3494   Sp-Corner_Class_1_Pod_1_ZN_1_FLR_1 Sys-3 Flr-2 Sch-D HPlcmt-south ZN NECB System 3 PSZ Occ Sch Sunday, !- Sunday Schedule:Day Name\n   *************   3495   Sp-Corner_Class_1_Pod_1_ZN_1_FLR_1 Sys-3 Flr-2 Sch-D HPlcmt-south ZN NECB System 3 PSZ Occ Sch Monday, !- Monday Schedule:Day Name\n   *************   3496   Sp-Corner_Class_1_Pod_1_ZN_1_FLR_1 Sys-3 Flr-2 Sch-D HPlcmt-south ZN NECB System 3 PSZ Occ Sch Tuesday, !- Tuesday Schedule:Day Name\n   *************   3497   Sp-Corner_Class_1_Pod_1_ZN_1_FLR_1 Sys-3 Flr-2 Sch-D HPlcmt-south ZN NECB System 3 PSZ Occ Sch Wednesday, !- Wednesday Schedule:Day Name\n   *************   3498   Sp-Corner_Class_1_Pod_1_ZN_1_FLR_1 Sys-3 Flr-2 Sch-D HPlcmt-south ZN NECB System 3 PSZ Occ Sch Thursday, !- Thursday Schedule:Day Name\n   *************   3499   Sp-Corner_Class_1_Pod_1_ZN_1_FLR_1 Sys-3 Flr-2 Sch-D HPlcmt-south ZN NECB System 3 PSZ Occ Sch Friday, !- Friday Schedule:Day Name\n   *************   3500   Sp-Corner_Class_1_Pod_1_ZN_1_FLR_1 Sys-3 Flr-2 Sch-D HPlcmt-south ZN NECB System 3 PSZ Occ Sch Saturday, !- Saturday Schedule:Day Name\n   *************   3501   Sp-Corner_Class_1_Pod_1_ZN_1_FLR_1 Sys-3 Flr-2 Sch-D HPlcmt-south ZN NECB System 3 PSZ Occ Sch Default, !- Holiday Schedule:Day Name\n   ** Warning ** IP: IDF line~3501 Alpha Argument length exceeds maximum, will be truncated=  Sp-Corner_Class_1_Pod_1_ZN_1_FLR_1 Sys-3 Flr-2 Sch-D HPlcmt-south ZN NECB System 3 PSZ Occ Sch Defaul\n   **   ~~~   ** Will be processed as Alpha=SP-CORNER_CLASS_1_POD_1_ZN_1_FLR_1 SYS-3 FLR-2 SCH-D HPLCMT-SOUTH ZN NECB SYSTEM 3 PSZ OCC SCH DEFAULT\n   ************* IDF Context for following error/warning message:\n   ************* Note -- lines truncated at 300 characters, if necessary...\n   *************   3492 Schedule:Week:Daily,\n   ************* indicated Name=Schedule:Week:Daily {694120b6-3dec-4a33-a3e5-28f881e25d12}\n   ************* Only last 10 lines before error line shown.....\n   *************   3493   Schedule:Week:Daily {694120b6-3dec-4a33-a3e5-28f881e25d12}, !- Name\n   *************   3494   Sp-Corner_Class_1_Pod_1_ZN_1_FLR_1 Sys-3 Flr-2 Sch-D HPlcmt-south ZN NECB System 3 PSZ Occ Sch Sunday, !- Sunday Schedule:Day Name\n   *************   3495   Sp-Corner_Class_1_Pod_1_ZN_1_FLR_1 Sys-3 Flr-2 Sch-D HPlcmt-south ZN NECB System 3 PSZ Occ Sch Monday, !- Monday Schedule:Day Name\n   *************   3496   Sp-Corner_Class_1_Pod_1_ZN_1_FLR_1 Sys-3 Flr-2 Sch-D HPlcmt-south ZN NECB System 3 PSZ Occ Sch Tuesday, !- Tuesday Schedule:Day Name\n   *************   3497   Sp-Corner_Class_1_Pod_1_ZN_1_FLR_1 Sys-3 Flr-2 Sch-D HPlcmt-south ZN NECB System 3 PSZ Occ Sch Wednesday, !- Wednesday Schedule:Day Name\n   *************   3498   Sp-Corner_Class_1_Pod_1_ZN_1_FLR_1 Sys-3 Flr-2 Sch-D HPlcmt-south ZN NECB System 3 PSZ Occ Sch Thursday, !- Thursday Schedule:Day Name\n   *************   3499   Sp-Corner_Class_1_Pod_1_ZN_1_FLR_1 Sys-3 Flr-2 Sch-D HPlcmt-south ZN NECB System 3 PSZ Occ Sch Friday, !- Friday Schedule:Day Name\n   *************   3500   Sp-Corner_Class_1_Pod_1_ZN_1_FLR_1 Sys-3 Flr-2 Sch-D HPlcmt-south ZN NECB System 3 PSZ Occ Sch Saturday, !- Saturday Schedule:Day Name\n   *************   3501   Sp-Corner_Class_1_Pod_1_ZN_1_FLR_1 Sys-3 Flr-2 Sch-D HPlcmt-south ZN NECB System 3 PSZ Occ Sch Default, !- Holiday Schedule:Day Name\n   *************   3502   Sp-Corner_Class_1_Pod_1_ZN_1_FLR_1 Sys-3 Flr-2 Sch-D HPlcmt-south ZN NECB System 3 PSZ Occ Sch Summer Design Day, !- SummerDesignDay Schedule:Day Name\n   ** Warning ** IP: IDF line~3502 Alpha Argument length exceeds maximum, will be truncated=  Sp-Corner_Class_1_Pod_1_ZN_1_FLR_1 Sys-3 Flr-2 Sch-D HPlcmt-south ZN NECB System 3 PSZ Occ Sch Summer Design Da\n   **   ~~~   ** Will be processed as Alpha=SP-CORNER_CLASS_1_POD_1_ZN_1_FLR_1 SYS-3 FLR-2 SCH-D HPLCMT-SOUTH ZN NECB SYSTEM 3 PSZ OCC SCH SUMMER DESIGN DAY\n   ************* IDF Context for following error/warning message:\n   ************* Note -- lines truncated at 300 characters, if necessary...\n   *************   3492 Schedule:Week:Daily,\n   ************* indicated Name=Schedule:Week:Daily {694120b6-3dec-4a33-a3e5-28f881e25d12}\n   ************* Only last 10 lines before error line shown.....\n   *************   3494   Sp-Corner_Class_1_Pod_1_ZN_1_FLR_1 Sys-3 Flr-2 Sch-D HPlcmt-south ZN NECB System 3 PSZ Occ Sch Sunday, !- Sunday Schedule:Day Name\n   *************   3495   Sp-Corner_Class_1_Pod_1_ZN_1_FLR_1 Sys-3 Flr-2 Sch-D HPlcmt-south ZN NECB System 3 PSZ Occ Sch Monday, !- Monday Schedule:Day Name\n   *************   3496   Sp-Corner_Class_1_Pod_1_ZN_1_FLR_1 Sys-3 Flr-2 Sch-D HPlcmt-south ZN NECB System 3 PSZ Occ Sch Tuesday, !- Tuesday Schedule:Day Name\n   *************   3497   Sp-Corner_Class_1_Pod_1_ZN_1_FLR_1 Sys-3 Flr-2 Sch-D HPlcmt-south ZN NECB System 3 PSZ Occ Sch Wednesday, !- Wednesday Schedule:Day Name\n   *************   3498   Sp-Corner_Class_1_Pod_1_ZN_1_FLR_1 Sys-3 Flr-2 Sch-D HPlcmt-south ZN NECB System 3 PSZ Occ Sch Thursday, !- Thursday Schedule:Day Name\n   *************   3499   Sp-Corner_Class_1_Pod_1_ZN_1_FLR_1 Sys-3 Flr-2 Sch-D HPlcmt-south ZN NECB System 3 PSZ Occ Sch Friday, !- Friday Schedule:Day Name\n   *************   3500   Sp-Corner_Class_1_Pod_1_ZN_1_FLR_1 Sys-3 Flr-2 Sch-D HPlcmt-south ZN NECB System 3 PSZ Occ Sch Saturday, !- Saturday Schedule:Day Name\n   *************   3501   Sp-Corner_Class_1_Pod_1_ZN_1_FLR_1 Sys-3 Flr-2 Sch-D HPlcmt-south ZN NECB System 3 PSZ Occ Sch Default, !- Holiday Schedule:Day Name\n   *************   3502   Sp-Corner_Class_1_Pod_1_ZN_1_FLR_1 Sys-3 Flr-2 Sch-D HPlcmt-south ZN NECB System 3 PSZ Occ Sch Summer Design Day, !- SummerDesignDay Schedule:Day Name\n   *************   3503   Sp-Corner_Class_1_Pod_1_ZN_1_FLR_1 Sys-3 Flr-2 Sch-D HPlcmt-south ZN NECB System 3 PSZ Occ Sch Winter Design Day, !- WinterDesignDay Schedule:Day Name\n   ** Warning ** IP: IDF line~3503 Alpha Argument length exceeds maximum, will be truncated=  Sp-Corner_Class_1_Pod_1_ZN_1_FLR_1 Sys-3 Flr-2 Sch-D HPlcmt-south ZN NECB System 3 PSZ Occ Sch Winter Design Da\n   **   ~~~   ** Will be processed as Alpha=SP-CORNER_CLASS_1_POD_1_ZN_1_FLR_1 SYS-3 FLR-2 SCH-D HPLCMT-SOUTH ZN NECB SYSTEM 3 PSZ OCC SCH WINTER DESIGN DAY\n   ************* IDF Context for following error/warning message:\n   ************* Note -- lines truncated at 300 characters, if necessary...\n   *************   3492 Schedule:Week:Daily,\n   ************* indicated Name=Schedule:Week:Daily {694120b6-3dec-4a33-a3e5-28f881e25d12}\n   ************* Only last 10 lines before error line shown.....\n   *************   3495   Sp-Corner_Class_1_Pod_1_ZN_1_FLR_1 Sys-3 Flr-2 Sch-D HPlcmt-south ZN NECB System 3 PSZ Occ Sch Monday, !- Monday Schedule:Day Name\n   *************   3496   Sp-Corner_Class_1_Pod_1_ZN_1_FLR_1 Sys-3 Flr-2 Sch-D HPlcmt-south ZN NECB System 3 PSZ Occ Sch Tuesday, !- Tuesday Schedule:Day Name\n   *************   3497   Sp-Corner_Class_1_Pod_1_ZN_1_FLR_1 Sys-3 Flr-2 Sch-D HPlcmt-south ZN NECB System 3 PSZ Occ Sch Wednesday, !- Wednesday Schedule:Day Name\n   *************   3498   Sp-Corner_Class_1_Pod_1_ZN_1_FLR_1 Sys-3 Flr-2 Sch-D HPlcmt-south ZN NECB System 3 PSZ Occ Sch Thursday, !- Thursday Schedule:Day Name\n   *************   3499   Sp-Corner_Class_1_Pod_1_ZN_1_FLR_1 Sys-3 Flr-2 Sch-D HPlcmt-south ZN NECB System 3 PSZ Occ Sch Friday, !- Friday Schedule:Day Name\n   *************   3500   Sp-Corner_Class_1_Pod_1_ZN_1_FLR_1 Sys-3 Flr-2 Sch-D HPlcmt-south ZN NECB System 3 PSZ Occ Sch Saturday, !- Saturday Schedule:Day Name\n   *************   3501   Sp-Corner_Class_1_Pod_1_ZN_1_FLR_1 Sys-3 Flr-2 Sch-D HPlcmt-south ZN NECB System 3 PSZ Occ Sch Default, !- Holiday Schedule:Day Name\n   *************   3502   Sp-Corner_Class_1_Pod_1_ZN_1_FLR_1 Sys-3 Flr-2 Sch-D HPlcmt-south ZN NECB System 3 PSZ Occ Sch Summer Design Day, !- SummerDesignDay Schedule:Day Name\n   *************   3503   Sp-Corner_Class_1_Pod_1_ZN_1_FLR_1 Sys-3 Flr-2 Sch-D HPlcmt-south ZN NECB System 3 PSZ Occ Sch Winter Design Day, !- WinterDesignDay Schedule:Day Name\n   *************   3504   Sp-Corner_Class_1_Pod_1_ZN_1_FLR_1 Sys-3 Flr-2 Sch-D HPlcmt-south ZN NECB System 3 PSZ Occ Sch Default, !- CustomDay1 Schedule:Day Name\n   ** Warning ** IP: IDF line~3504 Alpha Argument length exceeds maximum, will be truncated=  Sp-Corner_Class_1_Pod_1_ZN_1_FLR_1 Sys-3 Flr-2 Sch-D HPlcmt-south ZN NECB System 3 PSZ Occ Sch Defaul\n   **   ~~~   ** Will be processed as Alpha=SP-CORNER_CLASS_1_POD_1_ZN_1_FLR_1 SYS-3 FLR-2 SCH-D HPLCMT-SOUTH ZN NECB SYSTEM 3 PSZ OCC SCH DEFAULT\n   ************* IDF Context for following error/warning message:\n   ************* Note -- lines truncated at 300 characters, if necessary...\n   *************   3492 Schedule:Week:Daily,\n   ************* indicated Name=Schedule:Week:Daily {694120b6-3dec-4a33-a3e5-28f881e25d12}\n   ************* Only last 10 lines before error line shown.....\n   *************   3496   Sp-Corner_Class_1_Pod_1_ZN_1_FLR_1 Sys-3 Flr-2 Sch-D HPlcmt-south ZN NECB System 3 PSZ Occ Sch Tuesday, !- Tuesday Schedule:Day Name\n   *************   3497   Sp-Corner_Class_1_Pod_1_ZN_1_FLR_1 Sys-3 Flr-2 Sch-D HPlcmt-south ZN NECB System 3 PSZ Occ Sch Wednesday, !- Wednesday Schedule:Day Name\n   *************   3498   Sp-Corner_Class_1_Pod_1_ZN_1_FLR_1 Sys-3 Flr-2 Sch-D HPlcmt-south ZN NECB System 3 PSZ Occ Sch Thursday, !- Thursday Schedule:Day Name\n   *************   3499   Sp-Corner_Class_1_Pod_1_ZN_1_FLR_1 Sys-3 Flr-2 Sch-D HPlcmt-south ZN NECB System 3 PSZ Occ Sch Friday, !- Friday Schedule:Day Name\n   *************   3500   Sp-Corner_Class_1_Pod_1_ZN_1_FLR_1 Sys-3 Flr-2 Sch-D HPlcmt-south ZN NECB System 3 PSZ Occ Sch Saturday, !- Saturday Schedule:Day Name\n   *************   3501   Sp-Corner_Class_1_Pod_1_ZN_1_FLR_1 Sys-3 Flr-2 Sch-D HPlcmt-south ZN NECB System 3 PSZ Occ Sch Default, !- Holiday Schedule:Day Name\n   *************   3502   Sp-Corner_Class_1_Pod_1_ZN_1_FLR_1 Sys-3 Flr-2 Sch-D HPlcmt-south ZN NECB System 3 PSZ Occ Sch Summer Design Day, !- SummerDesignDay Schedule:Day Name\n   *************   3503   Sp-Corner_Class_1_Pod_1_ZN_1_FLR_1 Sys-3 Flr-2 Sch-D HPlcmt-south ZN NECB System 3 PSZ Occ Sch Winter Design Day, !- WinterDesignDay Schedule:Day Name\n   *************   3504   Sp-Corner_Class_1_Pod_1_ZN_1_FLR_1 Sys-3 Flr-2 Sch-D HPlcmt-south ZN NECB System 3 PSZ Occ Sch Default, !- CustomDay1 Schedule:Day Name\n   *************   3505   Sp-Corner_Class_1_Pod_1_ZN_1_FLR_1 Sys-3 Flr-2 Sch-D HPlcmt-south ZN NECB System 3 PSZ Occ Sch Default; !- CustomDay2 Schedule:Day Name\n   ** Warning ** IP: IDF line~3505 Alpha Argument length exceeds maximum, will be truncated=  Sp-Corner_Class_1_Pod_1_ZN_1_FLR_1 Sys-3 Flr-2 Sch-D HPlcmt-south ZN NECB System 3 PSZ Occ Sch Defaul\n   **   ~~~   ** Will be processed as Alpha=SP-CORNER_CLASS_1_POD_1_ZN_1_FLR_1 SYS-3 FLR-2 SCH-D HPLCMT-SOUTH ZN NECB SYSTEM 3 PSZ OCC SCH DEFAULT\n   ************* IDF Context for following error/warning message:\n   ************* Note -- lines truncated at 300 characters, if necessary...\n   *************   3516 Schedule:Day:Interval,\n   ************* indicated Name=Sp-Corner_Class_1_Pod_1_ZN_1_FLR_1 Sys-3 Flr-2 Sch-D HPlcmt-south ZN NECB System 3 PSZ Occ Sch Default\n   ************* Only last 1 lines before error line shown.....\n   *************   3517   Sp-Corner_Class_1_Pod_1_ZN_1_FLR_1 Sys-3 Flr-2 Sch-D HPlcmt-south ZN NECB System 3 PSZ Occ Sch Default, !- Name\n   ** Warning ** IP: IDF line~3517 Alpha Argument length exceeds maximum, will be truncated=  Sp-Corner_Class_1_Pod_1_ZN_1_FLR_1 Sys-3 Flr-2 Sch-D HPlcmt-south ZN NECB System 3 PSZ Occ Sch Defaul\n   **   ~~~   ** Will be processed as Alpha=SP-CORNER_CLASS_1_POD_1_ZN_1_FLR_1 SYS-3 FLR-2 SCH-D HPLCMT-SOUTH ZN NECB SYSTEM 3 PSZ OCC SCH DEFAULT\n   ************* IDF Context for following error/warning message:\n   ************* Note -- lines truncated at 300 characters, if necessary...\n   *************   3523 Schedule:Day:Interval,\n   ************* indicated Name=Sp-Corner_Class_1_Pod_1_ZN_1_FLR_1 Sys-3 Flr-2 Sch-D HPlcmt-south ZN NECB System 3 PSZ Occ Sch Summer Design Day\n   ************* Only last 1 lines before error line shown.....\n   *************   3524   Sp-Corner_Class_1_Pod_1_ZN_1_FLR_1 Sys-3 Flr-2 Sch-D HPlcmt-south ZN NECB System 3 PSZ Occ Sch Summer Design Day, !- Name\n   ** Warning ** IP: IDF line~3524 Alpha Argument length exceeds maximum, will be truncated=  Sp-Corner_Class_1_Pod_1_ZN_1_FLR_1 Sys-3 Flr-2 Sch-D HPlcmt-south ZN NECB System 3 PSZ Occ Sch Summer Design Da\n   **   ~~~   ** Will be processed as Alpha=SP-CORNER_CLASS_1_POD_1_ZN_1_FLR_1 SYS-3 FLR-2 SCH-D HPLCMT-SOUTH ZN NECB SYSTEM 3 PSZ OCC SCH SUMMER DESIGN DAY\n   ************* IDF Context for following error/warning message:\n   ************* Note -- lines truncated at 300 characters, if necessary...\n   *************   3530 Schedule:Day:Interval,\n   ************* indicated Name=Sp-Corner_Class_1_Pod_1_ZN_1_FLR_1 Sys-3 Flr-2 Sch-D HPlcmt-south ZN NECB System 3 PSZ Occ Sch Winter Design Day\n   ************* Only last 1 lines before error line shown.....\n   *************   3531   Sp-Corner_Class_1_Pod_1_ZN_1_FLR_1 Sys-3 Flr-2 Sch-D HPlcmt-south ZN NECB System 3 PSZ Occ Sch Winter Design Day, !- Name\n   ** Warning ** IP: IDF line~3531 Alpha Argument length exceeds maximum, will be truncated=  Sp-Corner_Class_1_Pod_1_ZN_1_FLR_1 Sys-3 Flr-2 Sch-D HPlcmt-south ZN NECB System 3 PSZ Occ Sch Winter Design Da\n   **   ~~~   ** Will be processed as Alpha=SP-CORNER_CLASS_1_POD_1_ZN_1_FLR_1 SYS-3 FLR-2 SCH-D HPLCMT-SOUTH ZN NECB SYSTEM 3 PSZ OCC SCH WINTER DESIGN DAY\n   ************* IDF Context for following error/warning message:\n   ************* Note -- lines truncated at 300 characters, if necessary...\n   *************   3811 Schedule:Day:Interval,\n   ************* indicated Name=Sp-Corner_Class_1_Pod_1_ZN_1_FLR_2 Sys-3 Flr-1 Sch-D HPlcmt-south ZN NECB System 3 PSZ Occ Sch Sunday\n   ************* Only last 1 lines before error line shown.....\n   *************   3812   Sp-Corner_Class_1_Pod_1_ZN_1_FLR_2 Sys-3 Flr-1 Sch-D HPlcmt-south ZN NECB System 3 PSZ Occ Sch Sunday, !- Name\n   ** Warning ** IP: IDF line~3812 Alpha Argument length exceeds maximum, will be truncated=  Sp-Corner_Class_1_Pod_1_ZN_1_FLR_2 Sys-3 Flr-1 Sch-D HPlcmt-south ZN NECB System 3 PSZ Occ Sch Sunda\n   **   ~~~   ** Will be processed as Alpha=SP-CORNER_CLASS_1_POD_1_ZN_1_FLR_2 SYS-3 FLR-1 SCH-D HPLCMT-SOUTH ZN NECB SYSTEM 3 PSZ OCC SCH SUNDAY\n   ************* IDF Context for following error/warning message:\n   ************* Note -- lines truncated at 300 characters, if necessary...\n   *************   3818 Schedule:Day:Interval,\n   ************* indicated Name=Sp-Corner_Class_1_Pod_1_ZN_1_FLR_2 Sys-3 Flr-1 Sch-D HPlcmt-south ZN NECB System 3 PSZ Occ Sch Monday\n   ************* Only last 1 lines before error line shown.....\n   *************   3819   Sp-Corner_Class_1_Pod_1_ZN_1_FLR_2 Sys-3 Flr-1 Sch-D HPlcmt-south ZN NECB System 3 PSZ Occ Sch Monday, !- Name\n   ** Warning ** IP: IDF line~3819 Alpha Argument length exceeds maximum, will be truncated=  Sp-Corner_Class_1_Pod_1_ZN_1_FLR_2 Sys-3 Flr-1 Sch-D HPlcmt-south ZN NECB System 3 PSZ Occ Sch Monda\n   **   ~~~   ** Will be processed as Alpha=SP-CORNER_CLASS_1_POD_1_ZN_1_FLR_2 SYS-3 FLR-1 SCH-D HPLCMT-SOUTH ZN NECB SYSTEM 3 PSZ OCC SCH MONDAY\n   ************* IDF Context for following error/warning message:\n   ************* Note -- lines truncated at 300 characters, if necessary...\n   *************   3833 Schedule:Day:Interval,\n   ************* indicated Name=Sp-Corner_Class_1_Pod_1_ZN_1_FLR_2 Sys-3 Flr-1 Sch-D HPlcmt-south ZN NECB System 3 PSZ Occ Sch Tuesday\n   ************* Only last 1 lines before error line shown.....\n   *************   3834   Sp-Corner_Class_1_Pod_1_ZN_1_FLR_2 Sys-3 Flr-1 Sch-D HPlcmt-south ZN NECB System 3 PSZ Occ Sch Tuesday, !- Name\n   ** Warning ** IP: IDF line~3834 Alpha Argument length exceeds maximum, will be truncated=  Sp-Corner_Class_1_Pod_1_ZN_1_FLR_2 Sys-3 Flr-1 Sch-D HPlcmt-south ZN NECB System 3 PSZ Occ Sch Tuesda\n   **   ~~~   ** Will be processed as Alpha=SP-CORNER_CLASS_1_POD_1_ZN_1_FLR_2 SYS-3 FLR-1 SCH-D HPLCMT-SOUTH ZN NECB SYSTEM 3 PSZ OCC SCH TUESDAY\n   ************* IDF Context for following error/warning message:\n   ************* Note -- lines truncated at 300 characters, if necessary...\n   *************   3848 Schedule:Day:Interval,\n   ************* indicated Name=Sp-Corner_Class_1_Pod_1_ZN_1_FLR_2 Sys-3 Flr-1 Sch-D HPlcmt-south ZN NECB System 3 PSZ Occ Sch Wednesday\n   ************* Only last 1 lines before error line shown.....\n   *************   3849   Sp-Corner_Class_1_Pod_1_ZN_1_FLR_2 Sys-3 Flr-1 Sch-D HPlcmt-south ZN NECB System 3 PSZ Occ Sch Wednesday, !- Name\n   ** Warning ** IP: IDF line~3849 Alpha Argument length exceeds maximum, will be truncated=  Sp-Corner_Class_1_Pod_1_ZN_1_FLR_2 Sys-3 Flr-1 Sch-D HPlcmt-south ZN NECB System 3 PSZ Occ Sch Wednesda\n   **   ~~~   ** Will be processed as Alpha=SP-CORNER_CLASS_1_POD_1_ZN_1_FLR_2 SYS-3 FLR-1 SCH-D HPLCMT-SOUTH ZN NECB SYSTEM 3 PSZ OCC SCH WEDNESDAY\n   ************* IDF Context for following error/warning message:\n   ************* Note -- lines truncated at 300 characters, if necessary...\n   *************   3863 Schedule:Day:Interval,\n   ************* indicated Name=Sp-Corner_Class_1_Pod_1_ZN_1_FLR_2 Sys-3 Flr-1 Sch-D HPlcmt-south ZN NECB System 3 PSZ Occ Sch Thursday\n   ************* Only last 1 lines before error line shown.....\n   *************   3864   Sp-Corner_Class_1_Pod_1_ZN_1_FLR_2 Sys-3 Flr-1 Sch-D HPlcmt-south ZN NECB System 3 PSZ Occ Sch Thursday, !- Name\n   ** Warning ** IP: IDF line~3864 Alpha Argument length exceeds maximum, will be truncated=  Sp-Corner_Class_1_Pod_1_ZN_1_FLR_2 Sys-3 Flr-1 Sch-D HPlcmt-south ZN NECB System 3 PSZ Occ Sch Thursda\n   **   ~~~   ** Will be processed as Alpha=SP-CORNER_CLASS_1_POD_1_ZN_1_FLR_2 SYS-3 FLR-1 SCH-D HPLCMT-SOUTH ZN NECB SYSTEM 3 PSZ OCC SCH THURSDAY\n   ************* IDF Context for following error/warning message:\n   ************* Note -- lines truncated at 300 characters, if necessary...\n   *************   3878 Schedule:Day:Interval,\n   ************* indicated Name=Sp-Corner_Class_1_Pod_1_ZN_1_FLR_2 Sys-3 Flr-1 Sch-D HPlcmt-south ZN NECB System 3 PSZ Occ Sch Friday\n   ************* Only last 1 lines before error line shown.....\n   *************   3879   Sp-Corner_Class_1_Pod_1_ZN_1_FLR_2 Sys-3 Flr-1 Sch-D HPlcmt-south ZN NECB System 3 PSZ Occ Sch Friday, !- Name\n   ** Warning ** IP: IDF line~3879 Alpha Argument length exceeds maximum, will be truncated=  Sp-Corner_Class_1_Pod_1_ZN_1_FLR_2 Sys-3 Flr-1 Sch-D HPlcmt-south ZN NECB System 3 PSZ Occ Sch Frida\n   **   ~~~   ** Will be processed as Alpha=SP-CORNER_CLASS_1_POD_1_ZN_1_FLR_2 SYS-3 FLR-1 SCH-D HPLCMT-SOUTH ZN NECB SYSTEM 3 PSZ OCC SCH FRIDAY\n   ************* IDF Context for following error/warning message:\n   ************* Note -- lines truncated at 300 characters, if necessary...\n   *************   3893 Schedule:Day:Interval,\n   ************* indicated Name=Sp-Corner_Class_1_Pod_1_ZN_1_FLR_2 Sys-3 Flr-1 Sch-D HPlcmt-south ZN NECB System 3 PSZ Occ Sch Saturday\n   ************* Only last 1 lines before error line shown.....\n   *************   3894   Sp-Corner_Class_1_Pod_1_ZN_1_FLR_2 Sys-3 Flr-1 Sch-D HPlcmt-south ZN NECB System 3 PSZ Occ Sch Saturday, !- Name\n   ** Warning ** IP: IDF line~3894 Alpha Argument length exceeds maximum, will be truncated=  Sp-Corner_Class_1_Pod_1_ZN_1_FLR_2 Sys-3 Flr-1 Sch-D HPlcmt-south ZN NECB System 3 PSZ Occ Sch Saturda\n   **   ~~~   ** Will be processed as Alpha=SP-CORNER_CLASS_1_POD_1_ZN_1_FLR_2 SYS-3 FLR-1 SCH-D HPLCMT-SOUTH ZN NECB SYSTEM 3 PSZ OCC SCH SATURDAY\n   ************* IDF Context for following error/warning message:\n   ************* Note -- lines truncated at 300 characters, if necessary...\n   *************   3900 Schedule:Week:Daily,\n   ************* indicated Name=Schedule:Week:Daily {0000db64-d513-4111-bb91-c95863788100}\n   ************* Only last 2 lines before error line shown.....\n   *************   3901   Schedule:Week:Daily {0000db64-d513-4111-bb91-c95863788100}, !- Name\n   *************   3902   Sp-Corner_Class_1_Pod_1_ZN_1_FLR_2 Sys-3 Flr-1 Sch-D HPlcmt-south ZN NECB System 3 PSZ Occ Sch Sunday, !- Sunday Schedule:Day Name\n   ** Warning ** IP: IDF line~3902 Alpha Argument length exceeds maximum, will be truncated=  Sp-Corner_Class_1_Pod_1_ZN_1_FLR_2 Sys-3 Flr-1 Sch-D HPlcmt-south ZN NECB System 3 PSZ Occ Sch Sunda\n   **   ~~~   ** Will be processed as Alpha=SP-CORNER_CLASS_1_POD_1_ZN_1_FLR_2 SYS-3 FLR-1 SCH-D HPLCMT-SOUTH ZN NECB SYSTEM 3 PSZ OCC SCH SUNDAY\n   ************* IDF Context for following error/warning message:\n   ************* Note -- lines truncated at 300 characters, if necessary...\n   *************   3900 Schedule:Week:Daily,\n   ************* indicated Name=Schedule:Week:Daily {0000db64-d513-4111-bb91-c95863788100}\n   ************* Only last 3 lines before error line shown.....\n   *************   3901   Schedule:Week:Daily {0000db64-d513-4111-bb91-c95863788100}, !- Name\n   *************   3902   Sp-Corner_Class_1_Pod_1_ZN_1_FLR_2 Sys-3 Flr-1 Sch-D HPlcmt-south ZN NECB System 3 PSZ Occ Sch Sunday, !- Sunday Schedule:Day Name\n   *************   3903   Sp-Corner_Class_1_Pod_1_ZN_1_FLR_2 Sys-3 Flr-1 Sch-D HPlcmt-south ZN NECB System 3 PSZ Occ Sch Monday, !- Monday Schedule:Day Name\n   ** Warning ** IP: IDF line~3903 Alpha Argument length exceeds maximum, will be truncated=  Sp-Corner_Class_1_Pod_1_ZN_1_FLR_2 Sys-3 Flr-1 Sch-D HPlcmt-south ZN NECB System 3 PSZ Occ Sch Monda\n   **   ~~~   ** Will be processed as Alpha=SP-CORNER_CLASS_1_POD_1_ZN_1_FLR_2 SYS-3 FLR-1 SCH-D HPLCMT-SOUTH ZN NECB SYSTEM 3 PSZ OCC SCH MONDAY\n   ************* IDF Context for following error/warning message:\n   ************* Note -- lines truncated at 300 characters, if necessary...\n   *************   3900 Schedule:Week:Daily,\n   ************* indicated Name=Schedule:Week:Daily {0000db64-d513-4111-bb91-c95863788100}\n   ************* Only last 4 lines before error line shown.....\n   *************   3901   Schedule:Week:Daily {0000db64-d513-4111-bb91-c95863788100}, !- Name\n   *************   3902   Sp-Corner_Class_1_Pod_1_ZN_1_FLR_2 Sys-3 Flr-1 Sch-D HPlcmt-south ZN NECB System 3 PSZ Occ Sch Sunday, !- Sunday Schedule:Day Name\n   *************   3903   Sp-Corner_Class_1_Pod_1_ZN_1_FLR_2 Sys-3 Flr-1 Sch-D HPlcmt-south ZN NECB System 3 PSZ Occ Sch Monday, !- Monday Schedule:Day Name\n   *************   3904   Sp-Corner_Class_1_Pod_1_ZN_1_FLR_2 Sys-3 Flr-1 Sch-D HPlcmt-south ZN NECB System 3 PSZ Occ Sch Tuesday, !- Tuesday Schedule:Day Name\n   ** Warning ** IP: IDF line~3904 Alpha Argument length exceeds maximum, will be truncated=  Sp-Corner_Class_1_Pod_1_ZN_1_FLR_2 Sys-3 Flr-1 Sch-D HPlcmt-south ZN NECB System 3 PSZ Occ Sch Tuesda\n   **   ~~~   ** Will be processed as Alpha=SP-CORNER_CLASS_1_POD_1_ZN_1_FLR_2 SYS-3 FLR-1 SCH-D HPLCMT-SOUTH ZN NECB SYSTEM 3 PSZ OCC SCH TUESDAY\n   ************* IDF Context for following error/warning message:\n   ************* Note -- lines truncated at 300 characters, if necessary...\n   *************   3900 Schedule:Week:Daily,\n   ************* indicated Name=Schedule:Week:Daily {0000db64-d513-4111-bb91-c95863788100}\n   ************* Only last 5 lines before error line shown.....\n   *************   3901   Schedule:Week:Daily {0000db64-d513-4111-bb91-c95863788100}, !- Name\n   *************   3902   Sp-Corner_Class_1_Pod_1_ZN_1_FLR_2 Sys-3 Flr-1 Sch-D HPlcmt-south ZN NECB System 3 PSZ Occ Sch Sunday, !- Sunday Schedule:Day Name\n   *************   3903   Sp-Corner_Class_1_Pod_1_ZN_1_FLR_2 Sys-3 Flr-1 Sch-D HPlcmt-south ZN NECB System 3 PSZ Occ Sch Monday, !- Monday Schedule:Day Name\n   *************   3904   Sp-Corner_Class_1_Pod_1_ZN_1_FLR_2 Sys-3 Flr-1 Sch-D HPlcmt-south ZN NECB System 3 PSZ Occ Sch Tuesday, !- Tuesday Schedule:Day Name\n   *************   3905   Sp-Corner_Class_1_Pod_1_ZN_1_FLR_2 Sys-3 Flr-1 Sch-D HPlcmt-south ZN NECB System 3 PSZ Occ Sch Wednesday, !- Wednesday Schedule:Day Name\n   ** Warning ** IP: IDF line~3905 Alpha Argument length exceeds maximum, will be truncated=  Sp-Corner_Class_1_Pod_1_ZN_1_FLR_2 Sys-3 Flr-1 Sch-D HPlcmt-south ZN NECB System 3 PSZ Occ Sch Wednesda\n   **   ~~~   ** Will be processed as Alpha=SP-CORNER_CLASS_1_POD_1_ZN_1_FLR_2 SYS-3 FLR-1 SCH-D HPLCMT-SOUTH ZN NECB SYSTEM 3 PSZ OCC SCH WEDNESDAY\n   ************* IDF Context for following error/warning message:\n   ************* Note -- lines truncated at 300 characters, if necessary...\n   *************   3900 Schedule:Week:Daily,\n   ************* indicated Name=Schedule:Week:Daily {0000db64-d513-4111-bb91-c95863788100}\n   ************* Only last 6 lines before error line shown.....\n   *************   3901   Schedule:Week:Daily {0000db64-d513-4111-bb91-c95863788100}, !- Name\n   *************   3902   Sp-Corner_Class_1_Pod_1_ZN_1_FLR_2 Sys-3 Flr-1 Sch-D HPlcmt-south ZN NECB System 3 PSZ Occ Sch Sunday, !- Sunday Schedule:Day Name\n   *************   3903   Sp-Corner_Class_1_Pod_1_ZN_1_FLR_2 Sys-3 Flr-1 Sch-D HPlcmt-south ZN NECB System 3 PSZ Occ Sch Monday, !- Monday Schedule:Day Name\n   *************   3904   Sp-Corner_Class_1_Pod_1_ZN_1_FLR_2 Sys-3 Flr-1 Sch-D HPlcmt-south ZN NECB System 3 PSZ Occ Sch Tuesday, !- Tuesday Schedule:Day Name\n   *************   3905   Sp-Corner_Class_1_Pod_1_ZN_1_FLR_2 Sys-3 Flr-1 Sch-D HPlcmt-south ZN NECB System 3 PSZ Occ Sch Wednesday, !- Wednesday Schedule:Day Name\n   *************   3906   Sp-Corner_Class_1_Pod_1_ZN_1_FLR_2 Sys-3 Flr-1 Sch-D HPlcmt-south ZN NECB System 3 PSZ Occ Sch Thursday, !- Thursday Schedule:Day Name\n   ** Warning ** IP: IDF line~3906 Alpha Argument length exceeds maximum, will be truncated=  Sp-Corner_Class_1_Pod_1_ZN_1_FLR_2 Sys-3 Flr-1 Sch-D HPlcmt-south ZN NECB System 3 PSZ Occ Sch Thursda\n   **   ~~~   ** Will be processed as Alpha=SP-CORNER_CLASS_1_POD_1_ZN_1_FLR_2 SYS-3 FLR-1 SCH-D HPLCMT-SOUTH ZN NECB SYSTEM 3 PSZ OCC SCH THURSDAY\n   ************* IDF Context for following error/warning message:\n   ************* Note -- lines truncated at 300 characters, if necessary...\n   *************   3900 Schedule:Week:Daily,\n   ************* indicated Name=Schedule:Week:Daily {0000db64-d513-4111-bb91-c95863788100}\n   ************* Only last 7 lines before error line shown.....\n   *************   3901   Schedule:Week:Daily {0000db64-d513-4111-bb91-c95863788100}, !- Name\n   *************   3902   Sp-Corner_Class_1_Pod_1_ZN_1_FLR_2 Sys-3 Flr-1 Sch-D HPlcmt-south ZN NECB System 3 PSZ Occ Sch Sunday, !- Sunday Schedule:Day Name\n   *************   3903   Sp-Corner_Class_1_Pod_1_ZN_1_FLR_2 Sys-3 Flr-1 Sch-D HPlcmt-south ZN NECB System 3 PSZ Occ Sch Monday, !- Monday Schedule:Day Name\n   *************   3904   Sp-Corner_Class_1_Pod_1_ZN_1_FLR_2 Sys-3 Flr-1 Sch-D HPlcmt-south ZN NECB System 3 PSZ Occ Sch Tuesday, !- Tuesday Schedule:Day Name\n   *************   3905   Sp-Corner_Class_1_Pod_1_ZN_1_FLR_2 Sys-3 Flr-1 Sch-D HPlcmt-south ZN NECB System 3 PSZ Occ Sch Wednesday, !- Wednesday Schedule:Day Name\n   *************   3906   Sp-Corner_Class_1_Pod_1_ZN_1_FLR_2 Sys-3 Flr-1 Sch-D HPlcmt-south ZN NECB System 3 PSZ Occ Sch Thursday, !- Thursday Schedule:Day Name\n   *************   3907   Sp-Corner_Class_1_Pod_1_ZN_1_FLR_2 Sys-3 Flr-1 Sch-D HPlcmt-south ZN NECB System 3 PSZ Occ Sch Friday, !- Friday Schedule:Day Name\n   ** Warning ** IP: IDF line~3907 Alpha Argument length exceeds maximum, will be truncated=  Sp-Corner_Class_1_Pod_1_ZN_1_FLR_2 Sys-3 Flr-1 Sch-D HPlcmt-south ZN NECB System 3 PSZ Occ Sch Frida\n   **   ~~~   ** Will be processed as Alpha=SP-CORNER_CLASS_1_POD_1_ZN_1_FLR_2 SYS-3 FLR-1 SCH-D HPLCMT-SOUTH ZN NECB SYSTEM 3 PSZ OCC SCH FRIDAY\n   ************* IDF Context for following error/warning message:\n   ************* Note -- lines truncated at 300 characters, if necessary...\n   *************   3900 Schedule:Week:Daily,\n   ************* indicated Name=Schedule:Week:Daily {0000db64-d513-4111-bb91-c95863788100}\n   ************* Only last 8 lines before error line shown.....\n   *************   3901   Schedule:Week:Daily {0000db64-d513-4111-bb91-c95863788100}, !- Name\n   *************   3902   Sp-Corner_Class_1_Pod_1_ZN_1_FLR_2 Sys-3 Flr-1 Sch-D HPlcmt-south ZN NECB System 3 PSZ Occ Sch Sunday, !- Sunday Schedule:Day Name\n   *************   3903   Sp-Corner_Class_1_Pod_1_ZN_1_FLR_2 Sys-3 Flr-1 Sch-D HPlcmt-south ZN NECB System 3 PSZ Occ Sch Monday, !- Monday Schedule:Day Name\n   *************   3904   Sp-Corner_Class_1_Pod_1_ZN_1_FLR_2 Sys-3 Flr-1 Sch-D HPlcmt-south ZN NECB System 3 PSZ Occ Sch Tuesday, !- Tuesday Schedule:Day Name\n   *************   3905   Sp-Corner_Class_1_Pod_1_ZN_1_FLR_2 Sys-3 Flr-1 Sch-D HPlcmt-south ZN NECB System 3 PSZ Occ Sch Wednesday, !- Wednesday Schedule:Day Name\n   *************   3906   Sp-Corner_Class_1_Pod_1_ZN_1_FLR_2 Sys-3 Flr-1 Sch-D HPlcmt-south ZN NECB System 3 PSZ Occ Sch Thursday, !- Thursday Schedule:Day Name\n   *************   3907   Sp-Corner_Class_1_Pod_1_ZN_1_FLR_2 Sys-3 Flr-1 Sch-D HPlcmt-south ZN NECB System 3 PSZ Occ Sch Friday, !- Friday Schedule:Day Name\n   *************   3908   Sp-Corner_Class_1_Pod_1_ZN_1_FLR_2 Sys-3 Flr-1 Sch-D HPlcmt-south ZN NECB System 3 PSZ Occ Sch Saturday, !- Saturday Schedule:Day Name\n   ** Warning ** IP: IDF line~3908 Alpha Argument length exceeds maximum, will be truncated=  Sp-Corner_Class_1_Pod_1_ZN_1_FLR_2 Sys-3 Flr-1 Sch-D HPlcmt-south ZN NECB System 3 PSZ Occ Sch Saturda\n   **   ~~~   ** Will be processed as Alpha=SP-CORNER_CLASS_1_POD_1_ZN_1_FLR_2 SYS-3 FLR-1 SCH-D HPLCMT-SOUTH ZN NECB SYSTEM 3 PSZ OCC SCH SATURDAY\n   ************* IDF Context for following error/warning message:\n   ************* Note -- lines truncated at 300 characters, if necessary...\n   *************   3900 Schedule:Week:Daily,\n   ************* indicated Name=Schedule:Week:Daily {0000db64-d513-4111-bb91-c95863788100}\n   ************* Only last 9 lines before error line shown.....\n   *************   3901   Schedule:Week:Daily {0000db64-d513-4111-bb91-c95863788100}, !- Name\n   *************   3902   Sp-Corner_Class_1_Pod_1_ZN_1_FLR_2 Sys-3 Flr-1 Sch-D HPlcmt-south ZN NECB System 3 PSZ Occ Sch Sunday, !- Sunday Schedule:Day Name\n   *************   3903   Sp-Corner_Class_1_Pod_1_ZN_1_FLR_2 Sys-3 Flr-1 Sch-D HPlcmt-south ZN NECB System 3 PSZ Occ Sch Monday, !- Monday Schedule:Day Name\n   *************   3904   Sp-Corner_Class_1_Pod_1_ZN_1_FLR_2 Sys-3 Flr-1 Sch-D HPlcmt-south ZN NECB System 3 PSZ Occ Sch Tuesday, !- Tuesday Schedule:Day Name\n   *************   3905   Sp-Corner_Class_1_Pod_1_ZN_1_FLR_2 Sys-3 Flr-1 Sch-D HPlcmt-south ZN NECB System 3 PSZ Occ Sch Wednesday, !- Wednesday Schedule:Day Name\n   *************   3906   Sp-Corner_Class_1_Pod_1_ZN_1_FLR_2 Sys-3 Flr-1 Sch-D HPlcmt-south ZN NECB System 3 PSZ Occ Sch Thursday, !- Thursday Schedule:Day Name\n   *************   3907   Sp-Corner_Class_1_Pod_1_ZN_1_FLR_2 Sys-3 Flr-1 Sch-D HPlcmt-south ZN NECB System 3 PSZ Occ Sch Friday, !- Friday Schedule:Day Name\n   *************   3908   Sp-Corner_Class_1_Pod_1_ZN_1_FLR_2 Sys-3 Flr-1 Sch-D HPlcmt-south ZN NECB System 3 PSZ Occ Sch Saturday, !- Saturday Schedule:Day Name\n   *************   3909   Sp-Corner_Class_1_Pod_1_ZN_1_FLR_2 Sys-3 Flr-1 Sch-D HPlcmt-south ZN NECB System 3 PSZ Occ Sch Default, !- Holiday Schedule:Day Name\n   ** Warning ** IP: IDF line~3909 Alpha Argument length exceeds maximum, will be truncated=  Sp-Corner_Class_1_Pod_1_ZN_1_FLR_2 Sys-3 Flr-1 Sch-D HPlcmt-south ZN NECB System 3 PSZ Occ Sch Defaul\n   **   ~~~   ** Will be processed as Alpha=SP-CORNER_CLASS_1_POD_1_ZN_1_FLR_2 SYS-3 FLR-1 SCH-D HPLCMT-SOUTH ZN NECB SYSTEM 3 PSZ OCC SCH DEFAULT\n   ************* IDF Context for following error/warning message:\n   ************* Note -- lines truncated at 300 characters, if necessary...\n   *************   3900 Schedule:Week:Daily,\n   ************* indicated Name=Schedule:Week:Daily {0000db64-d513-4111-bb91-c95863788100}\n   ************* Only last 10 lines before error line shown.....\n   *************   3901   Schedule:Week:Daily {0000db64-d513-4111-bb91-c95863788100}, !- Name\n   *************   3902   Sp-Corner_Class_1_Pod_1_ZN_1_FLR_2 Sys-3 Flr-1 Sch-D HPlcmt-south ZN NECB System 3 PSZ Occ Sch Sunday, !- Sunday Schedule:Day Name\n   *************   3903   Sp-Corner_Class_1_Pod_1_ZN_1_FLR_2 Sys-3 Flr-1 Sch-D HPlcmt-south ZN NECB System 3 PSZ Occ Sch Monday, !- Monday Schedule:Day Name\n   *************   3904   Sp-Corner_Class_1_Pod_1_ZN_1_FLR_2 Sys-3 Flr-1 Sch-D HPlcmt-south ZN NECB System 3 PSZ Occ Sch Tuesday, !- Tuesday Schedule:Day Name\n   *************   3905   Sp-Corner_Class_1_Pod_1_ZN_1_FLR_2 Sys-3 Flr-1 Sch-D HPlcmt-south ZN NECB System 3 PSZ Occ Sch Wednesday, !- Wednesday Schedule:Day Name\n   *************   3906   Sp-Corner_Class_1_Pod_1_ZN_1_FLR_2 Sys-3 Flr-1 Sch-D HPlcmt-south ZN NECB System 3 PSZ Occ Sch Thursday, !- Thursday Schedule:Day Name\n   *************   3907   Sp-Corner_Class_1_Pod_1_ZN_1_FLR_2 Sys-3 Flr-1 Sch-D HPlcmt-south ZN NECB System 3 PSZ Occ Sch Friday, !- Friday Schedule:Day Name\n   *************   3908   Sp-Corner_Class_1_Pod_1_ZN_1_FLR_2 Sys-3 Flr-1 Sch-D HPlcmt-south ZN NECB System 3 PSZ Occ Sch Saturday, !- Saturday Schedule:Day Name\n   *************   3909   Sp-Corner_Class_1_Pod_1_ZN_1_FLR_2 Sys-3 Flr-1 Sch-D HPlcmt-south ZN NECB System 3 PSZ Occ Sch Default, !- Holiday Schedule:Day Name\n   *************   3910   Sp-Corner_Class_1_Pod_1_ZN_1_FLR_2 Sys-3 Flr-1 Sch-D HPlcmt-south ZN NECB System 3 PSZ Occ Sch Summer Design Day, !- SummerDesignDay Schedule:Day Name\n   ** Warning ** IP: IDF line~3910 Alpha Argument length exceeds maximum, will be truncated=  Sp-Corner_Class_1_Pod_1_ZN_1_FLR_2 Sys-3 Flr-1 Sch-D HPlcmt-south ZN NECB System 3 PSZ Occ Sch Summer Design Da\n   **   ~~~   ** Will be processed as Alpha=SP-CORNER_CLASS_1_POD_1_ZN_1_FLR_2 SYS-3 FLR-1 SCH-D HPLCMT-SOUTH ZN NECB SYSTEM 3 PSZ OCC SCH SUMMER DESIGN DAY\n   ************* IDF Context for following error/warning message:\n   ************* Note -- lines truncated at 300 characters, if necessary...\n   *************   3900 Schedule:Week:Daily,\n   ************* indicated Name=Schedule:Week:Daily {0000db64-d513-4111-bb91-c95863788100}\n   ************* Only last 10 lines before error line shown.....\n   *************   3902   Sp-Corner_Class_1_Pod_1_ZN_1_FLR_2 Sys-3 Flr-1 Sch-D HPlcmt-south ZN NECB System 3 PSZ Occ Sch Sunday, !- Sunday Schedule:Day Name\n   *************   3903   Sp-Corner_Class_1_Pod_1_ZN_1_FLR_2 Sys-3 Flr-1 Sch-D HPlcmt-south ZN NECB System 3 PSZ Occ Sch Monday, !- Monday Schedule:Day Name\n   *************   3904   Sp-Corner_Class_1_Pod_1_ZN_1_FLR_2 Sys-3 Flr-1 Sch-D HPlcmt-south ZN NECB System 3 PSZ Occ Sch Tuesday, !- Tuesday Schedule:Day Name\n   *************   3905   Sp-Corner_Class_1_Pod_1_ZN_1_FLR_2 Sys-3 Flr-1 Sch-D HPlcmt-south ZN NECB System 3 PSZ Occ Sch Wednesday, !- Wednesday Schedule:Day Name\n   *************   3906   Sp-Corner_Class_1_Pod_1_ZN_1_FLR_2 Sys-3 Flr-1 Sch-D HPlcmt-south ZN NECB System 3 PSZ Occ Sch Thursday, !- Thursday Schedule:Day Name\n   *************   3907   Sp-Corner_Class_1_Pod_1_ZN_1_FLR_2 Sys-3 Flr-1 Sch-D HPlcmt-south ZN NECB System 3 PSZ Occ Sch Friday, !- Friday Schedule:Day Name\n   *************   3908   Sp-Corner_Class_1_Pod_1_ZN_1_FLR_2 Sys-3 Flr-1 Sch-D HPlcmt-south ZN NECB System 3 PSZ Occ Sch Saturday, !- Saturday Schedule:Day Name\n   *************   3909   Sp-Corner_Class_1_Pod_1_ZN_1_FLR_2 Sys-3 Flr-1 Sch-D HPlcmt-south ZN NECB System 3 PSZ Occ Sch Default, !- Holiday Schedule:Day Name\n   *************   3910   Sp-Corner_Class_1_Pod_1_ZN_1_FLR_2 Sys-3 Flr-1 Sch-D HPlcmt-south ZN NECB System 3 PSZ Occ Sch Summer Design Day, !- SummerDesignDay Schedule:Day Name\n   *************   3911   Sp-Corner_Class_1_Pod_1_ZN_1_FLR_2 Sys-3 Flr-1 Sch-D HPlcmt-south ZN NECB System 3 PSZ Occ Sch Winter Design Day, !- WinterDesignDay Schedule:Day Name\n   ** Warning ** IP: IDF line~3911 Alpha Argument length exceeds maximum, will be truncated=  Sp-Corner_Class_1_Pod_1_ZN_1_FLR_2 Sys-3 Flr-1 Sch-D HPlcmt-south ZN NECB System 3 PSZ Occ Sch Winter Design Da\n   **   ~~~   ** Will be processed as Alpha=SP-CORNER_CLASS_1_POD_1_ZN_1_FLR_2 SYS-3 FLR-1 SCH-D HPLCMT-SOUTH ZN NECB SYSTEM 3 PSZ OCC SCH WINTER DESIGN DAY\n   ************* IDF Context for following error/warning message:\n   ************* Note -- lines truncated at 300 characters, if necessary...\n   *************   3900 Schedule:Week:Daily,\n   ************* indicated Name=Schedule:Week:Daily {0000db64-d513-4111-bb91-c95863788100}\n   ************* Only last 10 lines before error line shown.....\n   *************   3903   Sp-Corner_Class_1_Pod_1_ZN_1_FLR_2 Sys-3 Flr-1 Sch-D HPlcmt-south ZN NECB System 3 PSZ Occ Sch Monday, !- Monday Schedule:Day Name\n   *************   3904   Sp-Corner_Class_1_Pod_1_ZN_1_FLR_2 Sys-3 Flr-1 Sch-D HPlcmt-south ZN NECB System 3 PSZ Occ Sch Tuesday, !- Tuesday Schedule:Day Name\n   *************   3905   Sp-Corner_Class_1_Pod_1_ZN_1_FLR_2 Sys-3 Flr-1 Sch-D HPlcmt-south ZN NECB System 3 PSZ Occ Sch Wednesday, !- Wednesday Schedule:Day Name\n   *************   3906   Sp-Corner_Class_1_Pod_1_ZN_1_FLR_2 Sys-3 Flr-1 Sch-D HPlcmt-south ZN NECB System 3 PSZ Occ Sch Thursday, !- Thursday Schedule:Day Name\n   *************   3907   Sp-Corner_Class_1_Pod_1_ZN_1_FLR_2 Sys-3 Flr-1 Sch-D HPlcmt-south ZN NECB System 3 PSZ Occ Sch Friday, !- Friday Schedule:Day Name\n   *************   3908   Sp-Corner_Class_1_Pod_1_ZN_1_FLR_2 Sys-3 Flr-1 Sch-D HPlcmt-south ZN NECB System 3 PSZ Occ Sch Saturday, !- Saturday Schedule:Day Name\n   *************   3909   Sp-Corner_Class_1_Pod_1_ZN_1_FLR_2 Sys-3 Flr-1 Sch-D HPlcmt-south ZN NECB System 3 PSZ Occ Sch Default, !- Holiday Schedule:Day Name\n   *************   3910   Sp-Corner_Class_1_Pod_1_ZN_1_FLR_2 Sys-3 Flr-1 Sch-D HPlcmt-south ZN NECB System 3 PSZ Occ Sch Summer Design Day, !- SummerDesignDay Schedule:Day Name\n   *************   3911   Sp-Corner_Class_1_Pod_1_ZN_1_FLR_2 Sys-3 Flr-1 Sch-D HPlcmt-south ZN NECB System 3 PSZ Occ Sch Winter Design Day, !- WinterDesignDay Schedule:Day Name\n   *************   3912   Sp-Corner_Class_1_Pod_1_ZN_1_FLR_2 Sys-3 Flr-1 Sch-D HPlcmt-south ZN NECB System 3 PSZ Occ Sch Default, !- CustomDay1 Schedule:Day Name\n   ** Warning ** IP: IDF line~3912 Alpha Argument length exceeds maximum, will be truncated=  Sp-Corner_Class_1_Pod_1_ZN_1_FLR_2 Sys-3 Flr-1 Sch-D HPlcmt-south ZN NECB System 3 PSZ Occ Sch Defaul\n   **   ~~~   ** Will be processed as Alpha=SP-CORNER_CLASS_1_POD_1_ZN_1_FLR_2 SYS-3 FLR-1 SCH-D HPLCMT-SOUTH ZN NECB SYSTEM 3 PSZ OCC SCH DEFAULT\n   ************* IDF Context for following error/warning message:\n   ************* Note -- lines truncated at 300 characters, if necessary...\n   *************   3900 Schedule:Week:Daily,\n   ************* indicated Name=Schedule:Week:Daily {0000db64-d513-4111-bb91-c95863788100}\n   ************* Only last 10 lines before error line shown.....\n   *************   3904   Sp-Corner_Class_1_Pod_1_ZN_1_FLR_2 Sys-3 Flr-1 Sch-D HPlcmt-south ZN NECB System 3 PSZ Occ Sch Tuesday, !- Tuesday Schedule:Day Name\n   *************   3905   Sp-Corner_Class_1_Pod_1_ZN_1_FLR_2 Sys-3 Flr-1 Sch-D HPlcmt-south ZN NECB System 3 PSZ Occ Sch Wednesday, !- Wednesday Schedule:Day Name\n   *************   3906   Sp-Corner_Class_1_Pod_1_ZN_1_FLR_2 Sys-3 Flr-1 Sch-D HPlcmt-south ZN NECB System 3 PSZ Occ Sch Thursday, !- Thursday Schedule:Day Name\n   *************   3907   Sp-Corner_Class_1_Pod_1_ZN_1_FLR_2 Sys-3 Flr-1 Sch-D HPlcmt-south ZN NECB System 3 PSZ Occ Sch Friday, !- Friday Schedule:Day Name\n   *************   3908   Sp-Corner_Class_1_Pod_1_ZN_1_FLR_2 Sys-3 Flr-1 Sch-D HPlcmt-south ZN NECB System 3 PSZ Occ Sch Saturday, !- Saturday Schedule:Day Name\n   *************   3909   Sp-Corner_Class_1_Pod_1_ZN_1_FLR_2 Sys-3 Flr-1 Sch-D HPlcmt-south ZN NECB System 3 PSZ Occ Sch Default, !- Holiday Schedule:Day Name\n   *************   3910   Sp-Corner_Class_1_Pod_1_ZN_1_FLR_2 Sys-3 Flr-1 Sch-D HPlcmt-south ZN NECB System 3 PSZ Occ Sch Summer Design Day, !- SummerDesignDay Schedule:Day Name\n   *************   3911   Sp-Corner_Class_1_Pod_1_ZN_1_FLR_2 Sys-3 Flr-1 Sch-D HPlcmt-south ZN NECB System 3 PSZ Occ Sch Winter Design Day, !- WinterDesignDay Schedule:Day Name\n   *************   3912   Sp-Corner_Class_1_Pod_1_ZN_1_FLR_2 Sys-3 Flr-1 Sch-D HPlcmt-south ZN NECB System 3 PSZ Occ Sch Default, !- CustomDay1 Schedule:Day Name\n   *************   3913   Sp-Corner_Class_1_Pod_1_ZN_1_FLR_2 Sys-3 Flr-1 Sch-D HPlcmt-south ZN NECB System 3 PSZ Occ Sch Default; !- CustomDay2 Schedule:Day Name\n   ** Warning ** IP: IDF line~3913 Alpha Argument length exceeds maximum, will be truncated=  Sp-Corner_Class_1_Pod_1_ZN_1_FLR_2 Sys-3 Flr-1 Sch-D HPlcmt-south ZN NECB System 3 PSZ Occ Sch Defaul\n   **   ~~~   ** Will be processed as Alpha=SP-CORNER_CLASS_1_POD_1_ZN_1_FLR_2 SYS-3 FLR-1 SCH-D HPLCMT-SOUTH ZN NECB SYSTEM 3 PSZ OCC SCH DEFAULT\n   ************* IDF Context for following error/warning message:\n   ************* Note -- lines truncated at 300 characters, if necessary...\n   *************   3924 Schedule:Day:Interval,\n   ************* indicated Name=Sp-Corner_Class_1_Pod_1_ZN_1_FLR_2 Sys-3 Flr-1 Sch-D HPlcmt-south ZN NECB System 3 PSZ Occ Sch Default\n   ************* Only last 1 lines before error line shown.....\n   *************   3925   Sp-Corner_Class_1_Pod_1_ZN_1_FLR_2 Sys-3 Flr-1 Sch-D HPlcmt-south ZN NECB System 3 PSZ Occ Sch Default, !- Name\n   ** Warning ** IP: IDF line~3925 Alpha Argument length exceeds maximum, will be truncated=  Sp-Corner_Class_1_Pod_1_ZN_1_FLR_2 Sys-3 Flr-1 Sch-D HPlcmt-south ZN NECB System 3 PSZ Occ Sch Defaul\n   **   ~~~   ** Will be processed as Alpha=SP-CORNER_CLASS_1_POD_1_ZN_1_FLR_2 SYS-3 FLR-1 SCH-D HPLCMT-SOUTH ZN NECB SYSTEM 3 PSZ OCC SCH DEFAULT\n   ************* IDF Context for following error/warning message:\n   ************* Note -- lines truncated at 300 characters, if necessary...\n   *************   3931 Schedule:Day:Interval,\n   ************* indicated Name=Sp-Corner_Class_1_Pod_1_ZN_1_FLR_2 Sys-3 Flr-1 Sch-D HPlcmt-south ZN NECB System 3 PSZ Occ Sch Summer Design Day\n   ************* Only last 1 lines before error line shown.....\n   *************   3932   Sp-Corner_Class_1_Pod_1_ZN_1_FLR_2 Sys-3 Flr-1 Sch-D HPlcmt-south ZN NECB System 3 PSZ Occ Sch Summer Design Day, !- Name\n   ** Warning ** IP: IDF line~3932 Alpha Argument length exceeds maximum, will be truncated=  Sp-Corner_Class_1_Pod_1_ZN_1_FLR_2 Sys-3 Flr-1 Sch-D HPlcmt-south ZN NECB System 3 PSZ Occ Sch Summer Design Da\n   **   ~~~   ** Will be processed as Alpha=SP-CORNER_CLASS_1_POD_1_ZN_1_FLR_2 SYS-3 FLR-1 SCH-D HPLCMT-SOUTH ZN NECB SYSTEM 3 PSZ OCC SCH SUMMER DESIGN DAY\n   ************* IDF Context for following error/warning message:\n   ************* Note -- lines truncated at 300 characters, if necessary...\n   *************   3938 Schedule:Day:Interval,\n   ************* indicated Name=Sp-Corner_Class_1_Pod_1_ZN_1_FLR_2 Sys-3 Flr-1 Sch-D HPlcmt-south ZN NECB System 3 PSZ Occ Sch Winter Design Day\n   ************* Only last 1 lines before error line shown.....\n   *************   3939   Sp-Corner_Class_1_Pod_1_ZN_1_FLR_2 Sys-3 Flr-1 Sch-D HPlcmt-south ZN NECB System 3 PSZ Occ Sch Winter Design Day, !- Name\n   ** Warning ** IP: IDF line~3939 Alpha Argument length exceeds maximum, will be truncated=  Sp-Corner_Class_1_Pod_1_ZN_1_FLR_2 Sys-3 Flr-1 Sch-D HPlcmt-south ZN NECB System 3 PSZ Occ Sch Winter Design Da\n   **   ~~~   ** Will be processed as Alpha=SP-CORNER_CLASS_1_POD_1_ZN_1_FLR_2 SYS-3 FLR-1 SCH-D HPLCMT-SOUTH ZN NECB SYSTEM 3 PSZ OCC SCH WINTER DESIGN DAY\n   ************* IDF Context for following error/warning message:\n   ************* Note -- lines truncated at 300 characters, if necessary...\n   *************   4211 Schedule:Day:Interval,\n   ************* indicated Name=Sp-Corner_Class_1_Pod_2_ZN_1_FLR_1 Sys-3 Flr-2 Sch-D HPlcmt-south ZN NECB System 3 PSZ Occ Sch Sunday\n   ************* Only last 1 lines before error line shown.....\n   *************   4212   Sp-Corner_Class_1_Pod_2_ZN_1_FLR_1 Sys-3 Flr-2 Sch-D HPlcmt-south ZN NECB System 3 PSZ Occ Sch Sunday, !- Name\n   ** Warning ** IP: IDF line~4212 Alpha Argument length exceeds maximum, will be truncated=  Sp-Corner_Class_1_Pod_2_ZN_1_FLR_1 Sys-3 Flr-2 Sch-D HPlcmt-south ZN NECB System 3 PSZ Occ Sch Sunda\n   **   ~~~   ** Will be processed as Alpha=SP-CORNER_CLASS_1_POD_2_ZN_1_FLR_1 SYS-3 FLR-2 SCH-D HPLCMT-SOUTH ZN NECB SYSTEM 3 PSZ OCC SCH SUNDAY\n   ************* IDF Context for following error/warning message:\n   ************* Note -- lines truncated at 300 characters, if necessary...\n   *************   4218 Schedule:Day:Interval,\n   ************* indicated Name=Sp-Corner_Class_1_Pod_2_ZN_1_FLR_1 Sys-3 Flr-2 Sch-D HPlcmt-south ZN NECB System 3 PSZ Occ Sch Monday\n   ************* Only last 1 lines before error line shown.....\n   *************   4219   Sp-Corner_Class_1_Pod_2_ZN_1_FLR_1 Sys-3 Flr-2 Sch-D HPlcmt-south ZN NECB System 3 PSZ Occ Sch Monday, !- Name\n   ** Warning ** IP: IDF line~4219 Alpha Argument length exceeds maximum, will be truncated=  Sp-Corner_Class_1_Pod_2_ZN_1_FLR_1 Sys-3 Flr-2 Sch-D HPlcmt-south ZN NECB System 3 PSZ Occ Sch Monda\n   **   ~~~   ** Will be processed as Alpha=SP-CORNER_CLASS_1_POD_2_ZN_1_FLR_1 SYS-3 FLR-2 SCH-D HPLCMT-SOUTH ZN NECB SYSTEM 3 PSZ OCC SCH MONDAY\n   ************* IDF Context for following error/warning message:\n   ************* Note -- lines truncated at 300 characters, if necessary...\n   *************   4233 Schedule:Day:Interval,\n   ************* indicated Name=Sp-Corner_Class_1_Pod_2_ZN_1_FLR_1 Sys-3 Flr-2 Sch-D HPlcmt-south ZN NECB System 3 PSZ Occ Sch Tuesday\n   ************* Only last 1 lines before error line shown.....\n   *************   4234   Sp-Corner_Class_1_Pod_2_ZN_1_FLR_1 Sys-3 Flr-2 Sch-D HPlcmt-south ZN NECB System 3 PSZ Occ Sch Tuesday, !- Name\n   ** Warning ** IP: IDF line~4234 Alpha Argument length exceeds maximum, will be truncated=  Sp-Corner_Class_1_Pod_2_ZN_1_FLR_1 Sys-3 Flr-2 Sch-D HPlcmt-south ZN NECB System 3 PSZ Occ Sch Tuesda\n   **   ~~~   ** Will be processed as Alpha=SP-CORNER_CLASS_1_POD_2_ZN_1_FLR_1 SYS-3 FLR-2 SCH-D HPLCMT-SOUTH ZN NECB SYSTEM 3 PSZ OCC SCH TUESDAY\n   ************* IDF Context for following error/warning message:\n   ************* Note -- lines truncated at 300 characters, if necessary...\n   *************   4248 Schedule:Day:Interval,\n   ************* indicated Name=Sp-Corner_Class_1_Pod_2_ZN_1_FLR_1 Sys-3 Flr-2 Sch-D HPlcmt-south ZN NECB System 3 PSZ Occ Sch Wednesday\n   ************* Only last 1 lines before error line shown.....\n   *************   4249   Sp-Corner_Class_1_Pod_2_ZN_1_FLR_1 Sys-3 Flr-2 Sch-D HPlcmt-south ZN NECB System 3 PSZ Occ Sch Wednesday, !- Name\n   ** Warning ** IP: IDF line~4249 Alpha Argument length exceeds maximum, will be truncated=  Sp-Corner_Class_1_Pod_2_ZN_1_FLR_1 Sys-3 Flr-2 Sch-D HPlcmt-south ZN NECB System 3 PSZ Occ Sch Wednesda\n   **   ~~~   ** Will be processed as Alpha=SP-CORNER_CLASS_1_POD_2_ZN_1_FLR_1 SYS-3 FLR-2 SCH-D HPLCMT-SOUTH ZN NECB SYSTEM 3 PSZ OCC SCH WEDNESDAY\n   ************* IDF Context for following error/warning message:\n   ************* Note -- lines truncated at 300 characters, if necessary...\n   *************   4263 Schedule:Day:Interval,\n   ************* indicated Name=Sp-Corner_Class_1_Pod_2_ZN_1_FLR_1 Sys-3 Flr-2 Sch-D HPlcmt-south ZN NECB System 3 PSZ Occ Sch Thursday\n   ************* Only last 1 lines before error line shown.....\n   *************   4264   Sp-Corner_Class_1_Pod_2_ZN_1_FLR_1 Sys-3 Flr-2 Sch-D HPlcmt-south ZN NECB System 3 PSZ Occ Sch Thursday, !- Name\n   ** Warning ** IP: IDF line~4264 Alpha Argument length exceeds maximum, will be truncated=  Sp-Corner_Class_1_Pod_2_ZN_1_FLR_1 Sys-3 Flr-2 Sch-D HPlcmt-south ZN NECB System 3 PSZ Occ Sch Thursda\n   **   ~~~   ** Will be processed as Alpha=SP-CORNER_CLASS_1_POD_2_ZN_1_FLR_1 SYS-3 FLR-2 SCH-D HPLCMT-SOUTH ZN NECB SYSTEM 3 PSZ OCC SCH THURSDAY\n   ************* IDF Context for following error/warning message:\n   ************* Note -- lines truncated at 300 characters, if necessary...\n   *************   4278 Schedule:Day:Interval,\n   ************* indicated Name=Sp-Corner_Class_1_Pod_2_ZN_1_FLR_1 Sys-3 Flr-2 Sch-D HPlcmt-south ZN NECB System 3 PSZ Occ Sch Friday\n   ************* Only last 1 lines before error line shown.....\n   *************   4279   Sp-Corner_Class_1_Pod_2_ZN_1_FLR_1 Sys-3 Flr-2 Sch-D HPlcmt-south ZN NECB System 3 PSZ Occ Sch Friday, !- Name\n   ** Warning ** IP: IDF line~4279 Alpha Argument length exceeds maximum, will be truncated=  Sp-Corner_Class_1_Pod_2_ZN_1_FLR_1 Sys-3 Flr-2 Sch-D HPlcmt-south ZN NECB System 3 PSZ Occ Sch Frida\n   **   ~~~   ** Will be processed as Alpha=SP-CORNER_CLASS_1_POD_2_ZN_1_FLR_1 SYS-3 FLR-2 SCH-D HPLCMT-SOUTH ZN NECB SYSTEM 3 PSZ OCC SCH FRIDAY\n   ************* IDF Context for following error/warning message:\n   ************* Note -- lines truncated at 300 characters, if necessary...\n   *************   4293 Schedule:Day:Interval,\n   ************* indicated Name=Sp-Corner_Class_1_Pod_2_ZN_1_FLR_1 Sys-3 Flr-2 Sch-D HPlcmt-south ZN NECB System 3 PSZ Occ Sch Saturday\n   ************* Only last 1 lines before error line shown.....\n   *************   4294   Sp-Corner_Class_1_Pod_2_ZN_1_FLR_1 Sys-3 Flr-2 Sch-D HPlcmt-south ZN NECB System 3 PSZ Occ Sch Saturday, !- Name\n   ** Warning ** IP: IDF line~4294 Alpha Argument length exceeds maximum, will be truncated=  Sp-Corner_Class_1_Pod_2_ZN_1_FLR_1 Sys-3 Flr-2 Sch-D HPlcmt-south ZN NECB System 3 PSZ Occ Sch Saturda\n   **   ~~~   ** Will be processed as Alpha=SP-CORNER_CLASS_1_POD_2_ZN_1_FLR_1 SYS-3 FLR-2 SCH-D HPLCMT-SOUTH ZN NECB SYSTEM 3 PSZ OCC SCH SATURDAY\n   ************* IDF
[...]
aorwgreLTqCHOC9IqPo069vEa4rwgreLTWC/OSz+dVS2tWnxbi0GCHg02CXow2CTosWCToJdcNgl6xWWToBdcNgl6vWWToJdbNomCBwL5NOgnqvg06Iet+DTo57D4NOhHtPg06OcS+TToRxb5NOinGfk06Acd+TRqiPOCxyP5NGqI84KHKvk0atjJC9KqIo3SL5RUS6sWnzBhkKDTKjYJejDYJOixYJOg0yo2CTqtYpOg0yo2CTqtYpOgl1s2iYK0ik+DXm75NOjllk+DTqv4NOi0ik+DTqv4NOi0ik+DTqv4NOi0ik+jhjgvSKv4NGqI84K0ik+jhp28IK0q0igtBF8trVpUimeQoNMqNgl6MNgk6LFgk6DTKjYJOq1ik6DTKjYJOq1ik6CXWzaJgrSKT4Nebvk06OWWT4NOq/g06LSKT4NOq/g06LSKT4NOq/g06LSKT6OGOC9Iq/g0aojzgrSKT6OGnbwgrSrSKK23Wy2tWhTkZZCg0yo2CXow2CTosWCToNMqNgk6rWKToNMqNgk6rWKToJdbNomCtIpPg15u+TTo5ZZPg06r+DTotIpPg06r+DTotIpPg06r+DTotIpPo4Y4L0ir+DRqiPOCtIpPo4advCCtKtIoLWtYLa1a1D1kkKDTKjYJejDYJOixYJOg0yo2CTqtYpOg0yo2CTqtYpOgl1s2icJia1waRdWquDSKCllxaRTVuOLSKCp/xaVRVPONS6OoHByXRlGlOC6NoiJyXBo1xHlh6TkujRrivLBgHZdGDTt5QVq11PhWpcJrXtFZHItA3i0ryGaFYxvx7biZVYAtLRW7LAsdy+RtOAvcuNFtN4VldZuio/5md6uVm71PMR6rXbtuz0nkOIzmJ/devCir/Hj/FWpPpw7OI1dGFzNV5bhyQ8UxX+X4KJ14FskFhirUnPf7hut+wwwzzDDDDDPMMMMMM8wwwwwzzDDDDDPMMMMMM8wwwwwzzDDDDDPMMMMMM8wwwwwzzDDDDDPMMMMMM8wwwwwzzDDDDDPMMMP8lzLPzfBWRpHnyo+OerHWMtsvfF9VvRobr74aeykjT8b567VGc/kC8dQPE9P3Aln6imz83Hu65W/Wxmb26flp6DuJFwYplBEnctoayFEYSaPam88f5FgG7uoNLc419tpN0VFvLrfVi8zqD8OXo0SBlbheujX7Y5mcBonqn1RiNAuGGWljW/xR4mJJKB9bX5W+y60ObyQaycSLzTgblWpC6njSyEz779QZThr/Adb1tsRXr46n7Lnf/jSMPeXwXXq6yt0sD+XmGaoovNNDWmJ5gStVPLSspmbr5XG9bsORJ3013xp5ny7iZByFs6l0xc8/i7/l5+/N/sSJ8/ffVYBtP7XOn7WmHWI64/GZ0jB9GYyTiXgjbPFPYZz4viGOVq+IfW8oGy1r+6r9bbs03n64kzASjev0Vtq/iOtUJp+qua469/d0xdEfIHWoaZz7u7r+Zn6Xc3F8fLzovPU8Zl7zYb/WvdXlMYik832dxg+abXSvV/2V392xmtZqMuQzJSvkYPadOPbGgXR7qkREfJX15Lf1unI50NNZPGmsOxbpkB4txnP9SPL9oyp3aaor11WJkyj8LqvpLK5dVymcOkMvmVeTyi9e+64yiaXUul6WC8nqsrJOeGgvPupYhvPqwiNawtL1phNu1VkfmtmuWun6h7KcQh07O+Lz71/Ev89/vxCX5xdffvv0q/hw/utvPfH+9OK0moOzdNWW945K0UQSijiMEhHMbtJ5MBRZSZNYOPEwTV68YFzB47LvlZ8nO7PTFIPqi0skk1kUiKkTxfLMD52k4aglfzsdyifnBtm5Sp1ZnqI9kc1voczxw2YrvTzmn1m4Z8He2HLlyJn5iZhGYbqGya2m2Prp4KDXOz3d2nDhGeAABzjAAQ5wgAMc4AAHOMD5a+KIeHaT/hNYuFKdFK4zV0SRdEEDGtCABjSgAQ1oQAMa0IAGNMU0d9mjWX+iGfgzCRzgAAc4wAEOcIADHOAABzjAWQfn8buBlvpu4OWM+m5gx8p+YTs52d09PAQpSEEKUpCCFKQgBSlIQQpSkIIUpK+D1M5InYQibWeknY5tH+yBFKQgBSlIQQpSkIIUpCAFKUhBCtLXQdpRpGeRR5DahxmpZe3vdzogBSlIQQpSkIIUpCAFKUhBClKQgvR1kO4q0i+TGUV6kJEepkf3LUhBClKQghSkIAUpSEEKUpCCFKQgfR2kXUX6L+lSpPsZ6bt3vd7+PkhBClKQghSkIAUpSEEKUpCCFKQgfR2ke9l/mZhJinQvI+319vZAClKQghSkIAUpSEEKUpCCFKQgBelrId1XpB9DqrKg3c1IDw5su9sFKUhBClKQghSkIAUpSEEKUpCCFKS1kS5R3Mi5a5Q6uzcTL/Hl5cSZSjOR90lj6304i+JyjPmPLd95NzKIvTDwZZx5KHGxsyNOXFc4IvMk7rxkIuLwRgq3U9Iyvh2bznQqA7dhKG1ju6TB8jCdJIkaxr3RFHttzUbztJFdvVGczH25wGs5wXASRml7w5cjDdrcxygMktad9MaTRPkYhL5b3cdibC6nrY8zP+n3/HSO9u3+59BN//z6qW/1zz5c9G1xOY9bHXHmRy1LXA4nrXfi/Wd/eJO0gjBKx+XrJ/HptPdWXZbIG9ERny+/ivPhUF27tV000m924mHkTZN/kNe82XG92+fNZBvaWepLeO6xMVRh0Et7zvECGfWt/X1DZP15bLhePPWd+ZEX+KmtNfDD4fdfDBow9bq4B5HMp2l71aU7186tszhb2FIdt06kpqw4Fq53M/WlGci7y9txw/jpGcim2G23sz9KY1D5dZ3ESR1f/WH4zkD6xpHhypGTDrWYRuHI86XRXFj698aRZbabxq3jz2T+96FaqtI26erT652eGg/NSn5sJj8dJj+7TH66TH72mPzsM/k5YPJzyOTHanM54prRFteUtrjmtMU1qS2uWW1xTWuLa15bXBPb4prZNtfMttnWaq6ZbXPNbFtrZot4dnOz8u3qSjtaJF0NN2Qf6bkhe0jPDdk/em7IuNdzQ0a9nhsy5vXckBGv54aMdz039Eam6YdpHtPbmKYfpplMb2KafpjmMr2Fafphms30Bqbph2k+09uXph+udZlpPtN7l6af6vP5zgsS/W1roE5V90N2j6Yfsns0/ZDdo+mHDHdNP2S4a/ohw13TDxnumn7IcNf0Q+9fuo64ZjS9g+k64prT9B6m64hrVtO7mK4jrnlN72O6jrhmNr2T6TpiW6u5Zja9mek6qj6zH3/MKP3YMLXNtVf+obf4GjGDhL15ic7mJXY3L9HdvMTe5iX2Ny9xsHmJw81LrOzsm9KoIb6tGgLcqiHCrRpC3Kohxq0agtyqIcqtGsLcqiHO7Rri3K5jH68hzu0a4txeL85Lv+lYLa1afPSRQYIeDTYJejDYJOixYJOgl1w2CXrFZZOgF1w2CXq9ZZOgl1s2iYK0ik+jhvguSKv4NGqI8IK0ik+jhhgvSKv4NGqI8oK0ik+jhjgvSKv4NOrYx2uI84K0ik9jvTgv/XRWtbRq8W0tBgl6NNgk6MFgk6DHgk2CXnLZJOgVl02CXnDZJOj1lk2CXm7ZJAoeCOTToJ+o4tOgH7bi06Cfw+LToB/R4tOgn0vk06AfWeTToJ9m5NOgH3Tk06ghzgsej+TTqCHOCx6q5NOoYScvSKuKNEq/UFItrVp8woRBgk6r2CTowWCToMeCTYJOq9gk6LSKTYJOq9gk6LSKTYJebtkkCtIqPg16ueXToJdbPg06reLToNMqPg06reLToNMqPg06reLToNMqPo0a4rwgreLTqCHOC9IqPo0advKCtKpIo7QQfLW0alEpnkGCTqvYJOjBYJOgx4JNgk6r2CTotIpNgk6r2CTotIpNgl5u2SQK0io+DXq55dOgl1s+DTqt4tOg0yo+DTqt4tOg0yo+DTqt4tOg0yo+jRrivCCt4tOoIc4L0io+jRp28oK0qkijtN5utbRqUZCXQYJOq9gk6MFgk6DHgk2CTqvYJOi0ik2CTqvYJOi0ik2CXm7ZJArSKj4Nernl06CXWz4NOq3i06DTKj4NOq3i06DTKj4NOq3i06DTKj6NGuK8IK3i06ghzgvSKj6NGnbygrSqSKO0rGG1tGpR95BBgk6r2CTowWCToMeCTYJOq9gk6LSKTYJOq9gk6LSKTYJebtkkCoutcWkUVavi0igqZMWlUVTjikujqPwVl0ZRzTcujaJycFwaRZXiuDSKishxadQQ54Wl57g0aojzwoJ1XBo17OQFadVS41uVCq95RWdxLAJ5t6wgmxWObcS342ZWAba0VOyyLHQsk7fhLHDjRrfdFJbVbYqO+pvdrVZu9j7FeKx27bo9J5HjMJqf3Hvxoqzy4/1XqD2dOjiPXBldzFSV48oNFcd8leOjdOJZJBcYqlBz3u8brvsNM8wwwwwzzDDDDDPMMMMMM8wwwwwzzDDDDDPMMMMMM8wwwwwzzDDDDDPMMMMMM8wwwwwzzDDDDDPMMMMMM8wwwwwzzDDDDPNfyjw3w1sZRZ4rPzrqxVrLbL/wfVX1amy8+mrspYw8Geev1xrN5QvEUz9MTN8LZOkrsvFz7+mWv1kbm9mn56eh7yReGKRQRpzIaWsgR2EkjWpvPn+QYxm4qze0ONfYazdFR7253FYvMqs/DF+OEgVW4nrp1uyPZXIaJKp/UonRLBhmpI1t8UeJiyWhfGx9Vfoutzq8kWgkEy8242xUqgmp40kjM+2/U2c4afwHWNfbEl+9Op6y53770zD2lMN36ekqd7M8lJtnqKLwTg9pieUFrlTx0LKamq2Xx/W6DUee9NV8a+R9uoiTcRTOptIVP/8s/pafvzf7EyfO339XAbb91Dp/1pp2iOmMx2dKw/RlME4m4o2wxT+FceL7hjhavSL2vaFstKztq/a37dJ4++FOwkg0rtNbaf8irlOZfKrmuurc39MVR3+A1KGmce7v6vqb+V3OxfHx8aLz1vOYec2H/Vr3VpfHIJLO93UaP2i20b1e9Vd+d8dqWqvJkM+UrJCD2Xfi2BsH0u2pEhHxVdaT39bryuVAT2fxpLHuWKRDerQYz/UjyfePqtylqa5cVyVOovC7rKazuHZdpXDqDL1kXk0qv3jtu8okllLrelkuJKvLyjrhob34qGMZzqsLj2gJS9ebTrhVZ31oZrtqpesfynIKdezsiM+/fxH/Pv/9QlyeX3z57dOv4sP5r7/1xPvTi9NqDs7SVVveOypFE0ko4jBKRDC7SefBUGQlTWLhxMM0efGCcQWPy75Xfp7szE5TDKovLpFMZlEgpk4UyzM/dJKGo5b87XQon5wbZOcqdWZ5ivZENr+FMscPm6308ph/ZuGeBXtjy5UjZ+YnYhqF6Romt5pi66eDg17v9HRrw4VngAMc4AAHOMABDnCAAxzgAOeviSPi2U36T2DhSnVSuM5cEUXSBQ1oQAMa0IAGNKABDWhAAxrQFNPcZY9m/Ylm4M8kcIADHOAABzjAAQ5wgAMc4ABnHZzH7wZa6ruBlzPqu4EdK/uF7eRkd/fwEKQgBSlIQQpSkIIUpCAFKUhBClKQvg5SOyN1Eoq0nZF2OrZ9sAdSkIIUpCAFKUhBClKQghSkIAUpSF8HaUeRnkUeQWofZqSWtb/f6YAUpCAFKUhBClKQghSkIAUpSEEK0tdBuqtIv0xmFOlBRnqYHt23IAUpSEEKUpCCFKQgBSlIQQpSkIL0dZB2Fem/pEuR7mek7971evv7IAUpSEEKUpCCFKQgBSlIQQpSkIL0dZDuZf9lYiYp0r2MtNfb2wMpSEEKUpCCFKQgBSlIQQpSkIIUpK+FdF+RfgypyoJ2NyM9OLDtbhekIAUpSEEKUpCCFKQgBSlIQQpSkNZGukRxI+euUers3ky8xJeXE2cqzUTeJ42t9+Esissx5j+2fOfdyCD2wsCXceahxMXOjjhxXeGIzJO485KJiMMbKdxOScv4dmw606kM3IahtI3tkgbLw3SSJGoY90ZT7LU1G83TRnb1RnEy9+UCr+UEw0kYpe0NX440aHMfozBIWnfSG08S5WMQ+m51H4uxuZy2Ps78pN/z0znat/ufQ7ff6X/91Lf6Zx8u+pa4nMetjjjzo5YtLoeT1jvx/rM/vElaQRil4/L1k/h02nurLkvkjeiIz5dfxflwqK7d2i4a6Tc78TDypsk/yGve7Lje7fNmsg3tLPUlPPfYGKow6KU953iBjPrW/oEhsv48NlwvnvrO/MgL/NTWGvjh8PsvBg2Yel3cg0jm07S96tKda+fWWZwtbKmOWydSU1YcC9e7mfrSDOTd5e24Yfz0DGRT7Lbb2R+lMaj8uk7ipI6v/jB8ZyB948hw5chJh1pMo3Dk+dJoLiz9e+PIMttN49bxZzL/+1AtVWmbdPXp9U5PjYdmJT82k58Ok59dJj9dJj97TH72mfwcMPk5ZPJjtbkccc1oi2tKW1xz2uKa1BbXrLa4prXFNa8troltcc1sm2tm22xrNdfMtrlmtq01s0U8u7lZ+XZ1pR0tkq6GG7KP9NyQPaTnhuwfPTdk3Ou5IaNezw0Z83puyIjXc0PGu54beiPT9MM0j+ltTNMP00ymNzFNP0xzmd7CNP0wzWZ6A9P0wzSf6e1L0w/Xusw0n+m9S9NP9fl85wWJ/rY1UKeq+yG7R9MP2T2afsju0fRDhrumHzLcNf2Q4a7phwx3TT9kuGv6ofcvXUdcM5rewXQdcc1peg/TdcQ1q+ldTNcR17ym9zFdR1wzm97JdB2xrdVcM5vezHQdVZ/Zjz9mlH5smNrm2iv/0Ft8jZhBwt68RGfzErubl+huXmJv8xL7m5c42LzE4eYlVnb2TWnUEN9WDQFu1RDhVg0hbtUQ41YNQW7VEOVWDWFu1RDndg1xbtexj9cQ53YNcW6vF+el33SsllYtPvrIIEGPBpsEPRhsEvRYsEnQSy6bBL3isknQCy6bBL3esknQyy2bREFaxadRQ3wXpFV8GjVEeEFaxadRQ4wXpFV8GjVEeUFaxadRQ5wXpFV8GnXs4zXEeUFaxaexXpyXfjqrWlq1+LYWgwQ9GmwS9GCwSdBjwSZBL7lsEvSKyyZBL7hsEvR6yyZBL7dsEgUPBPJp0E9U8WnQD1vxadDPYfFp0I9o8WnQzyXyadCPLPJp0E8z8mnQDzryadQQ5wWPR/Jp1BDnBQ9V8mnUsJMXpFVFGqVfKKmWVi0+YcIgQadVbBL0YLBJ0GPBJkGnVWwSdFrFJkGnVWwSdFrFJkEvt2wSBWkVnwa93PJp0MstnwadVvFp0GkVnwadVvFp0GkVnwadVvFp0GkVn0YNcV6QVvFp1BDnBWkVn0YNO3lBWlWkUVoIvlpatagUzyBBp1VsEvRgsEnQY8EmQadVbBJ0WsUmQadVbBJ0WsUmQS+3bBIFaRWfBr3c8mnQyy2fBp1W8WnQaRWfBp1W8WnQaRWfBp1W8WnQaRWfRg1xXpBW8WnUEOcFaRWfRg07eUFaVaRRWm+3Wlq1KMjLIEGnVWwS9GCwSdBjwSZBp1VsEnRaxSZBp1VsEnRaxSZBL7dsEgVpFZ8GvdzyadDLLZ8GnVbxadBpFZ8GnVbxadBpFZ8GnVbxadBpFZ9GDXFekFbxadQQ5wVpFZ9GDTt5QVpVpFFa1rBaWrWoe8ggQadVbBL0YLBJ0GPBJkGnVWwSdFrFJkGnVWwSdFrFJkEvt2wShcXWuDSKqlVxaRQVsuLSKKpxxaVRVP6KS6Oo5huXRlE5OC6NokpxXBpFReS4NGqI88LSc1waNcR5YcE6Lo0advKCtGqp8a1Khde8orM4FoG8W1aQzQrHNuLbcTOrAFtaKnZZFjqWydtwFrhxo9tuCsvqNkVH/c3uVis3e59iPFa7dt2ek8hxGM1P7r14UVb58f4r1J5OHZxHrowuZqrKceWGimO+yvFROvEskgsMVag57/cN1/2GGWaYYYYZZphhhhlmmGGGGWaYYYYZZphhhhlmmGGGGWaYYYYZZphhhhlmmGGGGWaYYYYZZphhhhlmmGGGGWaYYYYZZphhhvkvZZ6b4a2MIs+VHx31Yq1ltl/4vqp6NTZefTX2UkaejPPXa43m8gXiqR8mpu8FsvQV2fi593TL36yNzezT89PQdxIvDFIoI07ktDWQozCSRrU3nz/IsQzc1RtanGvstZuio95cbqsXmdUfhi9HiQIrcb10a/bHMjkNEtU/qcRoFgwz0sa2+KPExZJQPra+Kn2XWx3eSDSSiRebcTYq1YTU8aSRmfbfqTOcNP4DrOttia9eHU/Zc7/9aRh7yuG79HSVu1keys0zVFF4p4e0xPICV6p4aFlNzdbL43rdhiNP+mq+NfI+XcTJOApnU+mKn38Wf8vP35v9iRPn77+rANt+ap0/a007xHTG4zOlYfoyGCcT8UbY4p/COPF9QxytXhH73lA2Wtb2Vfvbdmm8/XAnYSQa1+mttH8R16lMPlVzXXXu7+mKoz9A6lDTOPd3df3N/C7n4vj4eNF563nMvObDfq17q8tjEEnn+zqNHzTb6F6v+iu/u2M1rdVkyGdKVsjB7Dtx7I0D6fZUiYj4KuvJb+t15XKgp7N40lh3LNIhPVqM5/qR5PtHVe7SVFeuqxInUfhdVtNZXLuuUjh1hl4yryaVX7z2XWUSS6l1vSwXktVlZZ3w0F581LEM59WFR7SEpetNJ9yqsz40s1210vUPZTmFOnZ2xOffv4h/n/9+IS7PL7789ulX8eH819964v3pxWk1B2fpqi3vHZWiiSQUcRglIpjdpPNgKLKSJrFw4mGavHjBuILHZd8rP092ZqcpBtUXl0gmsygQUyeK5ZkfOknDUUv+djqUT84NsnOVOrM8RXsim99CmeOHzVZ6ecw/s3DPgr2x5cqRM/MTMY3CdA2TW02x9dPBQa93erq14cIzwAEOcIADHOAABzjAAQ5wgPPXxBHx7Cb9J7BwpTopXGeuiCLpggY0oAENaEADGtCABjSgAQ1oimnuskez/kQz8GcSOMABDnCAAxzgAAc4wAEOcICzDs7jdwMt9d3Ayxn13cCOlf3CdnKyu3t4CFKQghSkIAUpSEEKUpCCFKQgBSlIXwepnZE6CUXazkg7Hds+2AMpSEEKUpCCFKQgBSlIQQpSkIIUpK+DtKNIzyKPILUPM1LL2t/vdEAKUpCCFKQgBSlIQQpSkIIUpCAF6esg3VWkXyYzivQgIz1Mj+5bkIIUpCAFKUhBClKQghSkIAUpSEH6Oki7ivRf0qVI9zPSd+96vf19kIIUpCAFKUhBClKQghSkIAUpSEH6Okj3sv8yMZMU6V5G2uvt7YEUpCAFKUhBClKQghSkIAUpSEEK0tdCuq9IP4ZUZUG7m5EeHNh2twtSkIIUpCAFKUhBClKQghSkIAUpSGsjXaK4kXPXKHV2byZe4svLiTOVZiLvk8bW+3AWxeUY8x9bvvNuZBB7YeDLOPNQ4mJnR5y4rnBE5knceclExOGNFG6npGV8Ozad6VQGbsNQ2sZ2SYPlYTpJEjWMe6Mp9tqajeZpI7t6oziZ+3KB13KC4SSM0vaGL0catLmPURgkrTvpjSeJ8jEIfbe6j8XYXE5bH2d+0u/56Rzt2/3Podvv9L9+6lv9sw8XfVtczuNWR5z5UcsSl8NJ6514/9kf3iStIIzScfn6SXw67b1VlyXyRnTE58uv4nw4VNdubReN9JudeBh50+Qf5DVvdlzv9nkz2YZ2lvoSnntsDFUY9NKec7xARn1r/9AQWX8eG64XT31nfuQFfmprDfxw+P0XgwZMvS7uQSTzadpedenOtXPrLM4WtlTHrROpKSuOhevdTH1pBvLu8nbcMH56BrIpdtvt7I/SGFR+XSdxUsdXfxi+M5C+cWS4cuSkQy2mUTjyfGk0F5b+vXFkme2mcev4M5n/faiWqrRNuvr0eqenxkOzkh+byU+Hyc8uk58uk589Jj/7TH4OmPwcMvmx2lyOuGa0xTWlLa45bXFNaotrVltc09rimtcW18S2uGa2zTWzbba1mmtm21wz29aa2SKe3dysfLu60o4WSVfDDdlHem7IHtJzQ/aPnhsy7vXckFGv54aMeT03ZMTruSHjXc8NvZFp+mGax/Q2pumHaSbTm5imH6a5TG9hmn6YZjO9gWn6YZrP9Pal6YdrXWaaz/Tepemn+ny+84JEf9saqFPV/ZDdo+mH7B5NP2T3aPohw13TDxnumn7IcNf0Q4a7ph8y3DX90PuXriOuGU3vYLqOuOY0vYfpOuKa1fQupuuIa17T+5iuI66ZTe9kuo7Y1mqumU1vZrqOqs/sxx8zSj82TG1z7ZV/6C2+RswgYW9eorN5id3NS3Q3L7G3eYn9zUscbF7icPMSKzv7pjRqiG+rhgC3aohwq4YQt2qIcauGILdqiHKrhjC3aohzu4Y4t+vYx2uIc7uGOLfXi/PSbzpWS6sWH31kkKBHg02CHgw2CXos2CToJZdNgl5x2SToBZdNgl5v2STo5ZZNoiCt4tOoIb4L0io+jRoivCCt4tOoIcYL0io+jRqivCCt4tOoIc4L0io+jTr28RrivCCt4tNYL85LP51VLa1afFuLQYIeDTYJejDYJOixYJOgl1w2CXrFZZOgF1w2CXq9ZZOgn41ikyh4IJBPg36iik+DftiKT4N+DotPg35Ei0+Dfi6RT4N+ZJFPg36akU+DftCRT6OGOC9Iq/g06tjHa9jIC9IqPo31tvLSL5RUS6sWnzBhkKBHg02CHgw2CXos2CTotIpNgk6r2CTotIpNgk6r2CTo5ZZNoiCt4tOg0yo+DTqt4tOg0yo+DTqt4tOg0yo+DTqt4tOg0yo+DTqt4tOoIc4L0io+jTr28Ro28oK0ik9jva28tBB8tbRqUSmeQYIeDTYJejDYJOixYJOg0yo2CTqtYpOg0yo2CTqtYpOgl1s2iYK0ik+DTqv4NOi0ik+DTqv4NOi0ik+DTqv4NOi0ik+DTqv4NOi0ik+jhjgvSKv4NOrYx2vYyAvSKj6N9bby0nq71dKqRUFeBgl6NNgk6MFgk6DHgk2CTqvYJOi0ik2CTqvYJOi0ik2CXm7ZJArSKj4NOq3i06DTKj4NOq3i06DTKj4NOq3i06DTKj4NOq3i06DTKj6NGuK8IK3i06hjH69hIy9Iq/g01tvKS8saVkurFnUPGSTo0WCToAeDTYIeCzYJOq1ik6DTKjYJOq1ik6DTKjaJorpTTBKFxda4NIqqVXFpFBWy4tIoqnHFpVFU/opLo6jmG5dGUTk4Lo2iSnFcGkVF5Lg0aojzgrSKT6OOfbyGjbwgreLTKN/Kv1Wp8JpXdBbHIpB3ywqyWeHYRnw7bmYVYEtLxS7LQscyeRvOAjdudNtNYVndpuiov9ndauVm71OMx2rXrttzEjkOo/nJvRcvyio/3n+F2tOpg/PIldHFTFU5rtxQccxXOT5KJ55FcoGhCjXn/b7hut8wwwwzzDDDDDPMMMMMM8wwwwwzzDDDDDPMMMMMM8wwwwwzzDDDDDPMMMMMM8wwwwwzzDDDDDPMMMMMM8wwwwwzzDDDDDPMMP+lzHMzvJVR5Lnyo6NerLXM9gvfV1Wvxsarr8ZeysiTcf56rdFcvkA89cPE9L1Alr4iGz/3nm75m7WxmX16fhr6TuKFQQplxImctgZyFEbSqPbm8wc5loG7ekOLc429dlN01JvLbfUis/rD8OUoUWAlrpduzf5YJqdBovonlRjNgmFG2tgWf5S4WBLKx9ZXpe9yq8MbiUYy8WIzzkalmpA6njQy0/47dYaTxn+Adb0t8dWr4yl77rc/DWNPOXyXnq5yN8tDuXmGKgrv9JCWWF7gShUPLaup2Xp5XK/bcORJX823Rt6nizgZR+FsKl3x88/ib/n5e7M/ceL8/XcVYNtPrfNnrWmHmM54fKY0TF8G42Qi3ghb/FMYJ75viKPVK2LfG8pGy9q+an/bLo23H+4kjETjOr2V9i/iOpXJp2quq879PV1x9AdIHWoa5/6urr+Z3+VcHB8fLzpvPY+Z13zYr3VvdXkMIul8X6fxg2Yb3etVf+V3d6ymtZoM+UzJCjmYfSeOvXEg3Z4qERFfZT35bb2uXA70dBZPGuuORTqkR4vxXD+SfP+oyl2a6sp1VeIkCr/LajqLa9dVCqfO0Evm1aTyi9e+q0xiKbWul+VCsrqsrBMe2ouPOpbhvLrwiJawdL3phFt11odmtqtWuv6hLKdQx86O+Pz7F/Hv898vxOX5xZffPv0qPpz/+ltPvD+9OK3m4CxdteW9o1I0kYQiDqNEBLObdB4MRVbSJBZOPEyTFy8YV/C47Hvl58nO7DTFoPriEslkFgVi6kSxPPNDJ2k4asnfTofyyblBdq5SZ5anaE9k81soc/yw2Uovj/lnFu5ZsDe2XDlyZn4iplGYrmFyqym2fjo46PVOT7c2XHgGOMABDnCAAxzgAAc4wAEOcP6aOCKe3aT/BBauVCeF68wVUSRd0IAGNKABDWhAAxrQgAY0oAFNMc1d9mjWn2gG/kwCBzjAAQ5wgAMc4AAHOMABDnDWwXn8bqClvht4OaO+G9ixsl/YTk52dw8PQQpSkIIUpCAFKUhBClKQghSkIAXp6yC1M1InoUjbGWmnY9sHeyAFKUhBClKQghSkIAUpSEEKUpCC9HWQdhTpWeQRpPZhRmpZ+/udDkhBClKQghSkIAUpSEEKUpCCFKQgfR2ku4r0y2RGkR5kpIfp0X0LUpCCFKQgBSlIQQpSkIIUpCAFKUhfB2lXkf5LuhTpfkb67l2vt78PUpCCFKQgBSlIQQpSkIIUpCAFKUhfB+le9l8mZpIi3ctIe729PZCCFKQgBSlIQQpSkIIUpCAFKUhB+lpI9xXpx5CqLGh3M9KDA9vudkEKUpCCFKQgBSlIQQpSkIIUpCAFaW2kSxQ3cu4apc7uzcRLfHk5cabSTOR90th6H86iuBxj/mPLd96NDGIvDHwZZx5KXOzsiBPXFY7IPIk7L5mIOLyRwu2UtIxvx6YzncrAbRhK29guabA8TCdJooZxbzTFXluz0TxtZFdvFCdzXy7wWk4wnIRR2t7w5UiDNvcxCoOkdSe98SRRPgah71b3sRiby2nrfDTyhjLuf/3Ut/pnHy76lricx62OOPOjli0uh5PWiXj/2R/eJK04nKWD8fWT+HTae6suS+SN6IjPl1/F+XCort3aLhreNzvxMPKmyT/Ia97suN7t82ayDe0s9SU899gYqrnfS7vL8QIZ9a2DtiGyTjw2XC+e+s78yAv81NYa+OHw+y8GDZh6XdyDSObTtL3qx51r59ZZnC1sqY5bJ1LzVBwL17uZ+tIM5N3l7bhh/PQMZFPsttvZH6WBp/y6TuKkjq/+MHxnIH3jyHDlyJn5iZhG4cjzpdFcWPr3xpFltpvGrePPZP73oVqf0jbpktPrnZ4aD81KfmwmPx0mP7tMfrpMfvaY/Owz+Tlg8nPI5MdqcznimtEW15S2uOa0xTWpLa5ZbXFNa4trXltcE9vimtk218y22dZqrpltc81sW2tmi3h2c7PywepKO1okXQ03ZB/puSF7SM8N2T96bsi413NDRr2eGzLm9dyQEa/nhox3PTf0Rqbph2ke09uYph+mmUxvYpp+mOYyvYVp+mGazfQGpumHaT7T25emH651mWk+03uXpp/q8/nOCxL9bWugTlX3Q3aPph+yezT9kN2j6YcMd00/ZLhr+iHDXdMPGe6afshw1/RD71+6jrhmNL2D6TrimtP0HqbriGtW07uYriOueU3vY7qOuGY2vZPpOmJbq7lmNr2Z6TqqPrMff8Eo/cIwtc21V/6ht/gEMYOEvXmJzuYldjcv0d28xN7mJfY3L3GweYnDzUus7Oyb0qghvq0aAtyqIcKtGkLcqiHGrRqC3Kohyq0awtyqIc7tGuLcrmMfryHO7Rri3F4vzks/5FgtrVp86ZFBgh4NNgl6MNgk6LFgk6CXXDYJesVlk6AXXDYJer1lk6CXWzaJgrSKT6OG+C5Iq/g0aojwgrSKT6OGGC9Iq/g0aojygrSKT6OGOC9Iq/g06tjHa4jzgrSKT2O9OC/9Xla1tGrxQS0GCXo02CTowWCToMeCTYJectkk6BWXTYJecNkk6PWWTYJ+NopNouCBQD4N+okqPg36YSs+Dfo5LD4N+hEtPg36uUQ+DfqRRT4N+mlGPg36QUc+jRrivCCt4tOoYx+vYSMvSKv4NNbbyks/S1ItrVp8t4RBgh4NNgl6MNgk6LFgk6DTKjYJOq1ik6DTKjYJOq1ik6CXWzaJgrSKT4NOq/g06LSKT4NOq/g06LSKT4NOq/g06LSKT4NOq/g06LSKT6OGOC9Iq/g06tjHa9jIC9IqPo31tvLS6u/V0qpFeXgGCXo02CTowWCToMeCTYJOq9gk6LSKTYJOq9gk6LSKTYJebtkkCtIqPg06reLToNMqPg06reLToNMqPg06reLToNMqPg06reLToNMqPo0a4rwgreLTqGMfr2EjL0ir+DTW28pLi+xWS6sWVXgZJOjRYJOgB4NNgh4LNgk6rWKToNMqNgk6rWKToNMqNgl6uWWTKEir+DTotIpPg06r+DTotIpPg06r+DTotIpPg06r+DTotIpPg06r+DRqiPOCtIpPo459vIaNvCCt4tNYbysvrWVYLa1aFDtkkKBHg02CHgw2CXos2CTotIpNgk6r2CTotIpNgk6r2CSK6k4xSRQWW+PSKKpWxaVRVMiKS6OoxhWXRlH5Ky6NoppvXBpF5eC4NIoqxXFpFBWR49KoIc4L0io+jTr28Ro28oK0ik+jfCv/VqXCa17GWRyLQN4tK8hmhWMb8e24mVWALS0Vu6wFHcvkbTgL3LjRbTeFZXWboqP+ZnerlZu9TzEeS1y7bs9J5DiM5if3Xryopfx4/xUKTqcOziNXRhczVdq4ckPFMV/l+CideBbJBYaqzpz3+4aLfcMMM8wwwwwzzDDDDDPMMMMMM8wwwwwzzDDDDDPMMMMMM8wwwwwzzDDDDDPMMMMMM8wwwwwzzDDDDDPMMMMMM8wwwwwzzDDD/Jcyz83wVkaR58qPjnqx1jLbL3xfVb0aG6++GnspI0/G+eu1RnP5AvHUDxPT9wJZ+ops/Nx7uuVv1sZm9un5aeg7iRcGKZQRJ3LaGshRGEmj2pvPH+RYBu7qDS3ONfbaTdFRby631YvM6g/Dl6NEgZW4Xro1+2OZnAaJ6p9UYjQLhhlpY1v8UeJiSSgfW1+VvsutDm8kGsnEi804G5VqQup40shM++/UGU4a/wHW9bbEV6+Op+y53/40jD3l8F16usrdLA/l5hmqKLzTQ1pieYErVTy0rKZm6+VxvW7DkSd9Nd8aeZ8u4mQchbOpdMXPP4u/5efvzf7EifP331WAbT+1zp+1ph1iOuPxmdIwfRmMk4l4I2zxT2Gc+L4hjlaviH1vKBsta/uq/W27NN5+uJMwEo3r9Fbav4jrVCafqrmuOvf3dMXRHyB1qGmc+7u6/mZ+l3NxfHy86Lz1PGZe82G/1r3V5TGIpPN9ncYPmm10r1f9ld/dsZrWajLkMyUr5GD2nTj2xoF0e6pERHyV9eS39bpyOdDTWTxprDsW6ZAeLcZz/Ujy/aMqd2mqK9dViZMo/C6r6SyuXVcpnDpDL5lXk8ovXvuuMoml1LpelgvJ6rKyTnhoLz7qWIbz6sIjWsLS9aYTbtVZH5rZrlrp+oeynEIdOzvi8+9fxL/Pf78Ql+cXX3779Kv4cP7rbz3x/vTitJqDs3TVlveOStFEEoo4jBIRzG7SeTAUWUmTWDjxME1evGBcweOy75WfJzuz0xSD6otLJJNZFIipE8XyzA+dpOGoJX87Hcon5wbZuUqdWZ6iPZHNb6HM8cNmK7085p9ZuGfB3thy5ciZ+YmYRmG6hsmtptj66eCg1zs93dpw4RngAAc4wAEOcIADHOAABzjA+WviiHh2k/4TWLhSnRSuM1dEkXRBAxrQgAY0oAENaEADGtCABjTFNHfZo1l/ohn4Mwkc4AAHOMABDnCAAxzgAAc4wFkH5/G7gZb6buDljPpuYMfKfmE7OdndPTwEKUhBClKQghSkIAUpSEEKUpCCFKSvg9TOSJ2EIm1npJ2ObR/sgRSkIAUpSEEKUpCCFKQgBSlIQQrS10HaUaRnkUeQ2ocZqWXt73c6IAUpSEEKUpCCFKQgBSlIQQpSkIL0dZDuKtIvkxlFepCRHqZH9y1IQQpSkIIUpCAFKUhBClKQghSkIH0dpF1F+i/pUqT7Gem7d73e/j5IQQpSkIIUpCAFKUhBClKQghSkIH0dpHvZf5mYSYp0LyPt9fb2QApSkIIUpCAFKUhBClKQghSkIAXpayHdV6QfQ6qyoN3NSA8ObLvbBSlIQQpSkIIUpCAFKUhBClKQghSktZEuUdzIuWuUOrs3Ey/x5eXEmUozkfdJY+t9OIvicoz5jy3feTcyiL0w8GWceShxsbMjTlxXOCLzJO68ZCLi8EYKt1PSMr4dm850KgO3YShtY7ukwfIwnSSJGsa90RR7bc1G87SRXb1RnMx9ucBrOcFwEkZpe8OXIw3a3McoDJLWnfTGk0T5GIS+W93HYmwup63z0cgbyrj/9VPf6p99uOjb4nIetzrizI9alrgcTlon4v1nf3iTtOJwlg7G10/i02nvrboskTeiIz5ffhXnw6G6dmu7aHjf7MTDyJsm/yCvebPjerfPm8k2tLPUl/DcY2Oo5n4v7S7HC2TUtw4sQ2SdeGy4Xjz1nfmRF/iprTXww+H3XwwaMPW6uAeRzKdpe9WPO9fOrbM4W9hSHbdOpOapOBaudzP1pRnIu8vbccP46RnIpthtt7M/SgNP+XWdxEkdX/1h+M5A+saR4cqRM/MTMY3CkedLo7mw9O+NI8tsN41bx59J42jv0Dx8chwcNo2hWq1SD+kC1OudnhoPzUpe7Y147WzE6+5GvHY34nVvI173N+L1YCNeDzfi1Wpvxu1mosvaTHhZm4kvazMBZm0mwqzNhJi1mRizNhNk1maizN5MlNkb2sM2E2X2ZqLMfkGUiXh2c7PyAfA1MoRIuhpOK/atntOKPavntGK/6jmtuHbpOa24cuk5rbhu6TmtuGrpOa24Zuk5rZoYaHrdSExVTQs0vW4kqqomBZpeNxJXVVMCTa8biayqCYGm143EVtV0QNPrZvarjcRW1VxA0+u6sXXnBclL04CBuqC614rdqum1Yrdqeq3YrZpeKy5Zml4rLlmaXisuWZpeKy5Zml4rLlmaXqvmA7puNxNdVTMCXbebia+qOYGu281EWNWsQNftZmKsal6g63YzUVY1M9B1u6E9bDNRVjU50HWrFWXfqvzgkP+qKI5FIO+WP2hkv2M04ttxM/tBovSXi+VPk7FM3oazwI0b3XZTWFa3KTrqb3a32q8f9ynG4y+urttzEjkOo/nJvRcvftp77IoKv3+mDs4jV0YXM/VLW+WGimO+yvFROvEskgsM9WNhPgQv/UU3+yFpVepSRp6Mc9xUKR+QqR8mpvp1q1Qyfu6+y0ljM5t309B3Ei8MUigjTuS0NZCjMJJGtZn0QY5l4K7e0OJcYy+dBR01E9SPYZb6I//BtPS35KVbsz+WyWmQqP5JJUazYJiRNrbFHxV+MVWE8rH1VWlsqMMbiUYy8eJ0Xqt21YTU8aSRmfbfqTOcNP4DrOttiZ//Npj77U/D2FMO36Wnq9zN8lBunqGKwjs9pCWWF7hSBW7Lamq2Xh7X6zYcedJX862R9+kiTsZROJtKV/z8s/hbfv7e7E+cOF9PVIBtP7XOn7WmHWI64/GZ0jB9GYyTiXgjbPFPYZz4viGOVq+IfW8oGy1r+6r9bbs03n64kzASjev0Vtq/iOtUJp+qua469/djYekPkDrUNM79XV1/M7/LdHk7Pl503noeM6/5sF/r3uryGETS+b5O4wfNNrrXq/7K7+5YTWs1GfKZkm2MZn/xNJB0s+eB4qusJ7+t15XLgZ7O4klj3bFIh/RoMZ7rR5LvH1W5S1Ndua5KnEThd1lNZ3Htukrh1Bl6ybyaVH7x2neVSSyl1vWyXEhWl5V1wkN78VHHMpxXFx7REpauN51wq8760Mx21UrXP5TlFOrY2RGff/8i/n3++4W4PL/48tunX8WH819/64n3pxen1Rycpau2vHdUiiaSUMRhmkgHs5t0HgxFliLGwomHafLiBeMKHpd9r/w82ZmdphhUX1wimcyiQEydKJZnfugkDUct+dvpUD45N8jOVerM8hTtiWx+C2WOH/4LT23+6QfY/NFM9YPqf+UhUuAABzjAAQ5wgAMc4AAHOMB59Tg/PuCiiCLpggY0oAENaEADGtCABjSgAQ1oiml+eCRQ0ahH/IADHOAABzjAAQ5wgAMc4AAHOP/FWolf5M1URk4yi6RonG2jWuL/VLXEfzlqxr2X2f+c3Aw8GSRCDZmqfCjdWdr/LbHfPnslRRDt11AE0a6tCGL26um6RZiY/HSY/Owy+eky+dlj8rPP5OeAyc8hk5+V6gIvcsQ1oy2uKW1xzWmLa1JbXLPa4prWFte8trgmtsU1s22umW2zrdVcM9vmmtm21syuXrRvxdX6Zfpe4IbsofVL8b3ADRn365fbe4EbMubXL6n3AjdkvL+gbN5L/DDNY3obe0ExvJf4YZrK9B72ghJ3L/HDNJvpDewFhetesg4yzWd693pBObqX+GGaz/TWtX6RuRU3Lygr9xI/ZPe8oHTcS/yQ4f6C8nAv8UOG+wtKwL3EDxnuLynz9iJHXDOa3sFeUrztRY64JjW9ib2kJNuLHHHNa3ofe0mhtRetjFwzm97KXlI+7UWOuGY2vZuhKNqrKIoGM8wwwwwzzDDDDDPMMMMMM8wwwwzz/5J5boa3Moo8V3501H+ossw2iuI/uRMUxX88UBRf60BRfBTF1zhQFP/PB4ri//lAUXzNA0XxURT/2QNF8YEDHOAABzjAAQ5wgAMc4AAHOK+hpCRoQAMa0IAGNKABDWhAAxrQvB6a/29KWQIHOMABDnCAAxzgAAc4wAHO+nr/haL477wbGcReGPgyjlES/3+rJH4YfReno5E39GQwnD8Wwq+3BH5+9Z8sT///8u+L/330nv/l8X8GoTtX/ztJbvx//L//A/KuB5k="
               },
               {
                  "name" : "annual_peak_electric_demand",
                  "units" : "kW",
                  "value" : 669.59464000000003
               },
               {
                  "name" : "first_year_capital_cost",
                  "units" : "$",
                  "value" : 0
               },
               {
                  "name" : "annual_utility_cost",
                  "units" : "$",
                  "value" : 0
               },
               {
                  "name" : "total_lifecycle_cost",
                  "units" : "$",
                  "value" : 0
               }
            ],
            "step_warnings" : []
         }
      }
   ],
   "updated_at" : "20170710T194142Z",
   "weather_file" : "USA_CO_Denver.Intl.AP.725650_TMY3.epw"
}
