{
   "completed_at" : "20170710T185955Z",
   "completed_status" : "Success",
   "created_at" : "2017-07-10 18:57:51 +0000",
   "current_step" : 5,
   "description" : "",
   "eplusout_err" : "Program Version,EnergyPlus, Version 8.7.0-78a111df4a, YMD=2017.07.10 18:58,IDD_Version 8.7.0\n   ************* IDF Context for following error/warning message:\n   ************* Note -- lines truncated at 300 characters, if necessary...\n   *************      5 Building,\n   ************* indicated Name=NECB 2011-RetailStandalone-NECB HDD Method-CAN_BC_Abbotsford.711080_CWEC.epw created: 2017-07-10 18:57:57 +0000\n   ************* Only last 1 lines before error line shown.....\n   *************      6   NECB 2011-RetailStandalone-NECB HDD Method-CAN_BC_Abbotsford.711080_CWEC.epw created: 2017-07-10 18:57:57 +0000, !- Name\n   ** Warning ** IP: IDF line~6 Alpha Argument length exceeds maximum, will be truncated=  NECB 2011-RetailStandalone-NECB HDD Method-CAN_BC_Abbotsford.711080_CWEC.epw created: 2017-07-10 18:57:57 +000\n   **   ~~~   ** Will be processed as Alpha=NECB 2011-RETAILSTANDALONE-NECB HDD METHOD-CAN_BC_ABBOTSFORD.711080_CWEC.EPW CREATED: 2017-07-10 18:57:57 +0000\n   ************* Beginning Zone Sizing Calculations\n   ** Warning ** ProcessScheduleInput: Schedule:Day:Interval=\"ECONOMIZER MAX OA FRACTION 100 PCT DEFAULT\", Blank Schedule Type Limits Name input -- will not be validated.\n   ** Warning ** ProcessScheduleInput: Schedule:Day:Interval=\"SCHEDULE DAY 1\", Blank Schedule Type Limits Name input -- will not be validated.\n   ** Warning ** ProcessScheduleInput: Schedule:Day:Interval=\"SCHEDULE DAY 10\", Blank Schedule Type Limits Name input -- will not be validated.\n   ** Warning ** ProcessScheduleInput: Schedule:Day:Interval=\"SCHEDULE DAY 11\", Blank Schedule Type Limits Name input -- will not be validated.\n   ** Warning ** ProcessScheduleInput: Schedule:Day:Interval=\"SCHEDULE DAY 12\", Blank Schedule Type Limits Name input -- will not be validated.\n   ** Warning ** ProcessScheduleInput: Schedule:Day:Interval=\"SCHEDULE DAY 13\", Blank Schedule Type Limits Name input -- will not be validated.\n   ** Warning ** ProcessScheduleInput: Schedule:Day:Interval=\"SCHEDULE DAY 14\", Blank Schedule Type Limits Name input -- will not be validated.\n   ** Warning ** ProcessScheduleInput: Schedule:Day:Interval=\"SCHEDULE DAY 15\", Blank Schedule Type Limits Name input -- will not be validated.\n   ** Warning ** ProcessScheduleInput: Schedule:Day:Interval=\"SCHEDULE DAY 16\", Blank Schedule Type Limits Name input -- will not be validated.\n   ** Warning ** ProcessScheduleInput: Schedule:Day:Interval=\"SCHEDULE DAY 17\", Blank Schedule Type Limits Name input -- will not be validated.\n   ** Warning ** ProcessScheduleInput: Schedule:Day:Interval=\"SCHEDULE DAY 18\", Blank Schedule Type Limits Name input -- will not be validated.\n   ** Warning ** ProcessScheduleInput: Schedule:Day:Interval=\"SCHEDULE DAY 19\", Blank Schedule Type Limits Name input -- will not be validated.\n   ** Warning ** ProcessScheduleInput: Schedule:Day:Interval=\"SCHEDULE DAY 2\", Blank Schedule Type Limits Name input -- will not be validated.\n   ** Warning ** ProcessScheduleInput: Schedule:Day:Interval=\"SCHEDULE DAY 20\", Blank Schedule Type Limits Name input -- will not be validated.\n   ** Warning ** ProcessScheduleInput: Schedule:Day:Interval=\"SCHEDULE DAY 21\", Blank Schedule Type Limits Name input -- will not be validated.\n   ** Warning ** ProcessScheduleInput: Schedule:Day:Interval=\"SCHEDULE DAY 22\", Blank Schedule Type Limits Name input -- will not be validated.\n   ** Warning ** ProcessScheduleInput: Schedule:Day:Interval=\"SCHEDULE DAY 23\", Blank Schedule Type Limits Name input -- will not be validated.\n   ** Warning ** ProcessScheduleInput: Schedule:Day:Interval=\"SCHEDULE DAY 24\", Blank Schedule Type Limits Name input -- will not be validated.\n   ** Warning ** ProcessScheduleInput: Schedule:Day:Interval=\"SCHEDULE DAY 5\", Blank Schedule Type Limits Name input -- will not be validated.\n   ** Warning ** ProcessScheduleInput: Schedule:Day:Interval=\"SCHEDULE DAY 6\", Blank Schedule Type Limits Name input -- will not be validated.\n   ** Warning ** ProcessScheduleInput: Schedule:Day:Interval=\"SCHEDULE DAY 7\", Blank Schedule Type Limits Name input -- will not be validated.\n   ** Warning ** ProcessScheduleInput: Schedule:Day:Interval=\"SCHEDULE DAY 8\", Blank Schedule Type Limits Name input -- will not be validated.\n   ** Warning ** ProcessScheduleInput: Schedule:Day:Interval=\"SCHEDULE DAY 9\", Blank Schedule Type Limits Name input -- will not be validated.\n   ** Warning ** ProcessScheduleInput: Schedule:Year=\"ECONOMIZER MAX OA FRACTION 100 PCT\", Blank Schedule Type Limits Name input -- will not be validated.\n   ** Warning ** ProcessScheduleInput: Schedule:Year=\"SCHEDULE RULESET 10\", Blank Schedule Type Limits Name input -- will not be validated.\n   ** Warning ** ProcessScheduleInput: Schedule:Year=\"SCHEDULE RULESET 11\", Blank Schedule Type Limits Name input -- will not be validated.\n   ** Warning ** ProcessScheduleInput: Schedule:Year=\"SCHEDULE RULESET 12\", Blank Schedule Type Limits Name input -- will not be validated.\n   ** Warning ** ProcessScheduleInput: Schedule:Year=\"SCHEDULE RULESET 13\", Blank Schedule Type Limits Name input -- will not be validated.\n   ** Warning ** ProcessScheduleInput: Schedule:Year=\"SCHEDULE RULESET 14\", Blank Schedule Type Limits Name input -- will not be validated.\n   ** Warning ** ProcessScheduleInput: Schedule:Year=\"SCHEDULE RULESET 3\", Blank Schedule Type Limits Name input -- will not be validated.\n   ** Warning ** ProcessScheduleInput: Schedule:Year=\"SCHEDULE RULESET 4\", Blank Schedule Type Limits Name input -- will not be validated.\n   ** Warning ** ProcessScheduleInput: Schedule:Year=\"SCHEDULE RULESET 5\", Blank Schedule Type Limits Name input -- will not be validated.\n   ** Warning ** ProcessScheduleInput: Schedule:Year=\"SCHEDULE RULESET 6\", Blank Schedule Type Limits Name input -- will not be validated.\n   ** Warning ** ProcessScheduleInput: Schedule:Year=\"SCHEDULE RULESET 7\", Blank Schedule Type Limits Name input -- will not be validated.\n   ** Warning ** ProcessScheduleInput: Schedule:Year=\"SCHEDULE RULESET 8\", Blank Schedule Type Limits Name input -- will not be validated.\n   ** Warning ** ProcessScheduleInput: Schedule:Year=\"SCHEDULE RULESET 9\", Blank Schedule Type Limits Name input -- will not be validated.\n   ** Warning ** ProcessScheduleInput: Schedule:Constant=\"ALWAYS OFF DISCRETE\", Blank Schedule Type Limits Name input -- will not be validated.\n   ** Warning ** ProcessScheduleInput: Schedule:Constant=\"ALWAYS ON CONTINUOUS\", Blank Schedule Type Limits Name input -- will not be validated.\n   ** Warning ** CheckUsedConstructions: There are 25 nominally unused constructions in input.\n   **   ~~~   ** For explicit details on each unused construction, use Output:Diagnostics,DisplayExtraWarnings;\n   ** Severe  ** Problem in interior solar distribution calculation (CHKBKS)\n   **   ~~~   **    Solar Distribution = FullInteriorExterior will not work in Zone=SP-CORE_RETAIL SYS-3 FLR-1 SCH-C HPLCMT-EAST ZN\n   **   ~~~   **    because vertex 2 of back surface=CORE_RETAIL_WALL_EAST_1 is in front of receiving surface=CORE_RETAIL_ROOF\n   **   ~~~   **    (Dot Product indicator=459.6689)\n   **   ~~~   **    Check surface geometry; if OK, use Solar Distribution = FullExterior instead.\n   ** Severe  ** Problem in interior solar distribution calculation (CHKBKS)\n   **   ~~~   **    Solar Distribution = FullInteriorExterior will not work in Zone=SP-CORE_RETAIL SYS-3 FLR-1 SCH-C HPLCMT-EAST ZN\n   **   ~~~   **    because vertex 3 of back surface=CORE_RETAIL_WALL_EAST_1 is in front of receiving surface=CORE_RETAIL_ROOF\n   **   ~~~   **    (Dot Product indicator=459.6689)\n   **   ~~~   **    Check surface geometry; if OK, use Solar Distribution = FullExterior instead.\n   ** Severe  ** Problem in interior solar distribution calculation (CHKBKS)\n   **   ~~~   **    Solar Distribution = FullInteriorExterior will not work in Zone=SP-CORE_RETAIL SYS-3 FLR-1 SCH-C HPLCMT-EAST ZN\n   **   ~~~   **    because vertex 2 of back surface=CORE_RETAIL_WALL_EAST_2 is in front of receiving surface=CORE_RETAIL_ROOF\n   **   ~~~   **    (Dot Product indicator=459.6689)\n   **   ~~~   **    Check surface geometry; if OK, use Solar Distribution = FullExterior instead.\n   ** Severe  ** Problem in interior solar distribution calculation (CHKBKS)\n   **   ~~~   **    Solar Distribution = FullInteriorExterior will not work in Zone=SP-CORE_RETAIL SYS-3 FLR-1 SCH-C HPLCMT-EAST ZN\n   **   ~~~   **    because vertex 3 of back surface=CORE_RETAIL_WALL_EAST_2 is in front of receiving surface=CORE_RETAIL_ROOF\n   **   ~~~   **    (Dot Product indicator=459.6689)\n   **   ~~~   **    Check surface geometry; if OK, use Solar Distribution = FullExterior instead.\n   ** Severe  ** Problem in interior solar distribution calculation (CHKBKS)\n   **   ~~~   **    Solar Distribution = FullInteriorExterior will not work in Zone=SP-CORE_RETAIL SYS-3 FLR-1 SCH-C HPLCMT-EAST ZN\n   **   ~~~   **    because vertex 2 of back surface=CORE_RETAIL_WALL_NORTH is in front of receiving surface=CORE_RETAIL_ROOF\n   **   ~~~   **    (Dot Product indicator=459.6689)\n   **   ~~~   **    Check surface geometry; if OK, use Solar Distribution = FullExterior instead.\n   ** Severe  ** Problem in interior solar distribution calculation (CHKBKS)\n   **   ~~~   **    Solar Distribution = FullInteriorExterior will not work in Zone=SP-CORE_RETAIL SYS-3 FLR-1 SCH-C HPLCMT-EAST ZN\n   **   ~~~   **    because vertex 3 of back surface=CORE_RETAIL_WALL_NORTH is in front of receiving surface=CORE_RETAIL_ROOF\n   **   ~~~   **    (Dot Product indicator=459.6689)\n   **   ~~~   **    Check surface geometry; if OK, use Solar Distribution = FullExterior instead.\n   ** Severe  ** Problem in interior solar distribution calculation (CHKBKS)\n   **   ~~~   **    Solar Distribution = FullInteriorExterior will not work in Zone=SP-CORE_RETAIL SYS-3 FLR-1 SCH-C HPLCMT-EAST ZN\n   **   ~~~   **    because vertex 2 of back surface=CORE_RETAIL_WALL_SOUTH_1 is in front of receiving surface=CORE_RETAIL_ROOF\n   **   ~~~   **    (Dot Product indicator=459.6689)\n   **   ~~~   **    Check surface geometry; if OK, use Solar Distribution = FullExterior instead.\n   ** Severe  ** Problem in interior solar distribution calculation (CHKBKS)\n   **   ~~~   **    Solar Distribution = FullInteriorExterior will not work in Zone=SP-CORE_RETAIL SYS-3 FLR-1 SCH-C HPLCMT-EAST ZN\n   **   ~~~   **    because vertex 3 of back surface=CORE_RETAIL_WALL_SOUTH_1 is in front of receiving surface=CORE_RETAIL_ROOF\n   **   ~~~   **    (Dot Product indicator=459.6689)\n   **   ~~~   **    Check surface geometry; if OK, use Solar Distribution = FullExterior instead.\n   ** Severe  ** Problem in interior solar distribution calculation (CHKBKS)\n   **   ~~~   **    Solar Distribution = FullInteriorExterior will not work in Zone=SP-CORE_RETAIL SYS-3 FLR-1 SCH-C HPLCMT-EAST ZN\n   **   ~~~   **    because vertex 2 of back surface=CORE_RETAIL_WALL_SOUTH_2 is in front of receiving surface=CORE_RETAIL_ROOF\n   **   ~~~   **    (Dot Product indicator=459.6689)\n   **   ~~~   **    Check surface geometry; if OK, use Solar Distribution = FullExterior instead.\n   ** Severe  ** Problem in interior solar distribution calculation (CHKBKS)\n   **   ~~~   **    Solar Distribution = FullInteriorExterior will not work in Zone=SP-CORE_RETAIL SYS-3 FLR-1 SCH-C HPLCMT-EAST ZN\n   **   ~~~   **    because vertex 3 of back surface=CORE_RETAIL_WALL_SOUTH_2 is in front of receiving surface=CORE_RETAIL_ROOF\n   **   ~~~   **    (Dot Product indicator=459.6689)\n   **   ~~~   **    Check surface geometry; if OK, use Solar Distribution = FullExterior instead.\n   ** Severe  ** Problem in interior solar distribution calculation (CHKBKS)\n   **   ~~~   **    Solar Distribution = FullInteriorExterior will not work in Zone=SP-CORE_RETAIL SYS-3 FLR-1 SCH-C HPLCMT-EAST ZN\n   **   ~~~   **    because vertex 2 of back surface=CORE_RETAIL_WALL_SOUTH_3 is in front of receiving surface=CORE_RETAIL_ROOF\n   **   ~~~   **    (Dot Product indicator=459.6689)\n   **   ~~~   **    Check surface geometry; if OK, use Solar Distribution = FullExterior instead.\n   ** Severe  ** Problem in interior solar distribution calculation (CHKBKS)\n   **   ~~~   **    Solar Distribution = FullInteriorExterior will not work in Zone=SP-CORE_RETAIL SYS-3 FLR-1 SCH-C HPLCMT-EAST ZN\n   **   ~~~   **    because vertex 3 of back surface=CORE_RETAIL_WALL_SOUTH_3 is in front of receiving surface=CORE_RETAIL_ROOF\n   **   ~~~   **    (Dot Product indicator=459.6689)\n   **   ~~~   **    Check surface geometry; if OK, use Solar Distribution = FullExterior instead.\n   ** Severe  ** Problem in interior solar distribution calculation (CHKBKS)\n   **   ~~~   **    Solar Distribution = FullInteriorExterior will not work in Zone=SP-CORE_RETAIL SYS-3 FLR-1 SCH-C HPLCMT-EAST ZN\n   **   ~~~   **    because vertex 2 of back surface=CORE_RETAIL_WALL_WEST_1 is in front of receiving surface=CORE_RETAIL_ROOF\n   **   ~~~   **    (Dot Product indicator=459.6689)\n   **   ~~~   **    Check surface geometry; if OK, use Solar Distribution = FullExterior instead.\n   ** Severe  ** Problem in interior solar distribution calculation (CHKBKS)\n   **   ~~~   **    Solar Distribution = FullInteriorExterior will not work in Zone=SP-CORE_RETAIL SYS-3 FLR-1 SCH-C HPLCMT-EAST ZN\n   **   ~~~   **    because vertex 3 of back surface=CORE_RETAIL_WALL_WEST_1 is in front of receiving surface=CORE_RETAIL_ROOF\n   **   ~~~   **    (Dot Product indicator=459.6689)\n   **   ~~~   **    Check surface geometry; if OK, use Solar Distribution = FullExterior instead.\n   ** Severe  ** Problem in interior solar distribution calculation (CHKBKS)\n   **   ~~~   **    Solar Distribution = FullInteriorExterior will not work in Zone=SP-CORE_RETAIL SYS-3 FLR-1 SCH-C HPLCMT-EAST ZN\n   **   ~~~   **    because vertex 2 of back surface=CORE_RETAIL_WALL_WEST_2 is in front of receiving surface=CORE_RETAIL_ROOF\n   **   ~~~   **    (Dot Product indicator=459.6689)\n   **   ~~~   **    Check surface geometry; if OK, use Solar Distribution = FullExterior instead.\n   ** Severe  ** Problem in interior solar distribution calculation (CHKBKS)\n   **   ~~~   **    Solar Distribution = FullInteriorExterior will not work in Zone=SP-CORE_RETAIL SYS-3 FLR-1 SCH-C HPLCMT-EAST ZN\n   **   ~~~   **    because vertex 3 of back surface=CORE_RETAIL_WALL_WEST_2 is in front of receiving surface=CORE_RETAIL_ROOF\n   **   ~~~   **    (Dot Product indicator=459.6689)\n   **   ~~~   **    Check surface geometry; if OK, use Solar Distribution = FullExterior instead.\n   ** Severe  ** Problem in interior solar distribution calculation (CHKBKS)\n   **   ~~~   **    Solar Distribution = FullInteriorExterior will not work in Zone=SP-CORE_RETAIL SYS-3 FLR-1 SCH-C HPLCMT-EAST ZN\n   **   ~~~   **    because vertex 1 of back surface=CORE_RETAIL_FLOOR is in front of receiving surface=CORE_RETAIL_ROOF\n   **   ~~~   **    (Dot Product indicator=459.6689)\n   **   ~~~   **    Check surface geometry; if OK, use Solar Distribution = FullExterior instead.\n   ** Severe  ** Problem in interior solar distribution calculation (CHKBKS)\n   **   ~~~   **    Solar Distribution = FullInteriorExterior will not work in Zone=SP-CORE_RETAIL SYS-3 FLR-1 SCH-C HPLCMT-EAST ZN\n   **   ~~~   **    because vertex 2 of back surface=CORE_RETAIL_FLOOR is in front of receiving surface=CORE_RETAIL_ROOF\n   **   ~~~   **    (Dot Product indicator=459.6689)\n   **   ~~~   **    Check surface geometry; if OK, use Solar Distribution = FullExterior instead.\n   ** Severe  ** Problem in interior solar distribution calculation (CHKBKS)\n   **   ~~~   **    Solar Distribution = FullInteriorExterior will not work in Zone=SP-CORE_RETAIL SYS-3 FLR-1 SCH-C HPLCMT-EAST ZN\n   **   ~~~   **    because vertex 3 of back surface=CORE_RETAIL_FLOOR is in front of receiving surface=CORE_RETAIL_ROOF\n   **   ~~~   **    (Dot Product indicator=459.6689)\n   **   ~~~   **    Check surface geometry; if OK, use Solar Distribution = FullExterior instead.\n   ** Severe  ** Problem in interior solar distribution calculation (CHKBKS)\n   **   ~~~   **    Solar Distribution = FullInteriorExterior will not work in Zone=SP-CORE_RETAIL SYS-3 FLR-1 SCH-C HPLCMT-EAST ZN\n   **   ~~~   **    because vertex 4 of back surface=CORE_RETAIL_FLOOR is in front of receiving surface=CORE_RETAIL_ROOF\n   **   ~~~   **    (Dot Product indicator=459.6689)\n   **   ~~~   **    Check surface geometry; if OK, use Solar Distribution = FullExterior instead.\n   ** Severe  ** Problem in interior solar distribution calculation (CHKBKS)\n   **   ~~~   **    Solar Distribution = FullInteriorExterior will not work in Zone=SP-CORE_RETAIL SYS-3 FLR-1 SCH-C HPLCMT-EAST ZN\n   **   ~~~   **    because vertex 5 of back surface=CORE_RETAIL_FLOOR is in front of receiving surface=CORE_RETAIL_ROOF\n   **   ~~~   **    (Dot Product indicator=459.6689)\n   **   ~~~   **    Check surface geometry; if OK, use Solar Distribution = FullExterior instead.\n   ** Severe  ** Problem in interior solar distribution calculation (CHKBKS)\n   **   ~~~   **    Solar Distribution = FullInteriorExterior will not work in Zone=SP-CORE_RETAIL SYS-3 FLR-1 SCH-C HPLCMT-EAST ZN\n   **   ~~~   **    because vertex 6 of back surface=CORE_RETAIL_FLOOR is in front of receiving surface=CORE_RETAIL_ROOF\n   **   ~~~   **    (Dot Product indicator=459.6689)\n   **   ~~~   **    Check surface geometry; if OK, use Solar Distribution = FullExterior instead.\n   ** Severe  ** Problem in interior solar distribution calculation (CHKBKS)\n   **   ~~~   **    Solar Distribution = FullInteriorExterior will not work in Zone=SP-CORE_RETAIL SYS-3 FLR-1 SCH-C HPLCMT-EAST ZN\n   **   ~~~   **    because vertex 7 of back surface=CORE_RETAIL_FLOOR is in front of receiving surface=CORE_RETAIL_ROOF\n   **   ~~~   **    (Dot Product indicator=459.6689)\n   **   ~~~   **    Check surface geometry; if OK, use Solar Distribution = FullExterior instead.\n   ** Severe  ** Problem in interior solar distribution calculation (CHKBKS)\n   **   ~~~   **    Solar Distribution = FullInteriorExterior will not work in Zone=SP-CORE_RETAIL SYS-3 FLR-1 SCH-C HPLCMT-EAST ZN\n   **   ~~~   **    because vertex 8 of back surface=CORE_RETAIL_FLOOR is in front of receiving surface=CORE_RETAIL_ROOF\n   **   ~~~   **    (Dot Product indicator=459.6689)\n   **   ~~~   **    Check surface geometry; if OK, use Solar Distribution = FullExterior instead.\n   ************* Beginning System Sizing Calculations\n   ************* Beginning Plant Sizing Calculations\n   ** Warning ** GetDXCoils: Coil:Cooling:DX:SingleSpeed=\"COIL COOLING DX SINGLE SPEED 5 42KBTU/HR 14.0SEER\", invalid\n   **   ~~~   ** ...Part Load Fraction Correlation Curve Name = DXCOOL-NECB2011-REF-COOLPLFFPLR 4 has out of range value.\n   **   ~~~   ** ...Curve maximum must be <= 1.0, curve max at PLR = 0.99 is 1.015\n   **   ~~~   ** ...Setting curve maximum to 1.0 and simulation continues.\n   ** Warning ** GetDXCoils: Coil:Cooling:DX:SingleSpeed=\"COIL COOLING DX SINGLE SPEED 1 266KBTU/HR 8.21EER\", invalid\n   **   ~~~   ** ...Part Load Fraction Correlation Curve Name = DXCOOL-NECB2011-REF-COOLPLFFPLR has out of range value.\n   **   ~~~   ** ...Curve maximum must be <= 1.0, curve max at PLR = 0.99 is 1.015\n   **   ~~~   ** ...Setting curve maximum to 1.0 and simulation continues.\n   ** Warning ** GetDXCoils: Coil:Cooling:DX:SingleSpeed=\"COIL COOLING DX SINGLE SPEED 2 9KBTU/HR 14.0SEER\", invalid\n   **   ~~~   ** ...Part Load Fraction Correlation Curve Name = DXCOOL-NECB2011-REF-COOLPLFFPLR 1 has out of range value.\n   **   ~~~   ** ...Curve maximum must be <= 1.0, curve max at PLR = 0.99 is 1.015\n   **   ~~~   ** ...Setting curve maximum to 1.0 and simulation continues.\n   ** Warning ** GetDXCoils: Coil:Cooling:DX:SingleSpeed=\"COIL COOLING DX SINGLE SPEED 4 54KBTU/HR 14.0SEER\", invalid\n   **   ~~~   ** ...Part Load Fraction Correlation Curve Name = DXCOOL-NECB2011-REF-COOLPLFFPLR 3 has out of range value.\n   **   ~~~   ** ...Curve maximum must be <= 1.0, curve max at PLR = 0.99 is 1.015\n   **   ~~~   ** ...Setting curve maximum to 1.0 and simulation continues.\n   ** Warning ** GetDXCoils: Coil:Cooling:DX:SingleSpeed=\"COIL COOLING DX SINGLE SPEED 3 54KBTU/HR 14.0SEER\", invalid\n   **   ~~~   ** ...Part Load Fraction Correlation Curve Name = DXCOOL-NECB2011-REF-COOLPLFFPLR 2 has out of range value.\n   **   ~~~   ** ...Curve maximum must be <= 1.0, curve max at PLR = 0.99 is 1.015\n   **   ~~~   ** ...Setting curve maximum to 1.0 and simulation continues.\n   ** Warning ** The Standard Ratings is calculated for Coil:Cooling:DX:SingleSpeed = COIL COOLING DX SINGLE SPEED 5 42KBTU/HR 14.0SEER but not at the AHRI test condition due to curve out of bound.\n   **   ~~~   **  Review the Standard Ratings calculations in the Engineering Reference for this coil type. Also, use Output:Diagnostics, DisplayExtraWarnings for further guidance.\n   ** Warning ** The Standard Ratings is calculated for Coil:Cooling:DX:SingleSpeed = COIL COOLING DX SINGLE SPEED 1 266KBTU/HR 8.21EER but not at the AHRI test condition due to curve out of bound.\n   **   ~~~   **  Review the Standard Ratings calculations in the Engineering Reference for this coil type. Also, use Output:Diagnostics, DisplayExtraWarnings for further guidance.\n   ** Warning ** The Standard Ratings is calculated for Coil:Cooling:DX:SingleSpeed = COIL COOLING DX SINGLE SPEED 2 9KBTU/HR 14.0SEER but not at the AHRI test condition due to curve out of bound.\n   **   ~~~   **  Review the Standard Ratings calculations in the Engineering Reference for this coil type. Also, use Output:Diagnostics, DisplayExtraWarnings for further guidance.\n   ** Warning ** The Standard Ratings is calculated for Coil:Cooling:DX:SingleSpeed = COIL COOLING DX SINGLE SPEED 4 54KBTU/HR 14.0SEER but not at the AHRI test condition due to curve out of bound.\n   **   ~~~   **  Review the Standard Ratings calculations in the Engineering Reference for this coil type. Also, use Output:Diagnostics, DisplayExtraWarnings for further guidance.\n   ** Warning ** The Standard Ratings is calculated for Coil:Cooling:DX:SingleSpeed = COIL COOLING DX SINGLE SPEED 3 54KBTU/HR 14.0SEER but not at the AHRI test condition due to curve out of bound.\n   **   ~~~   **  Review the Standard Ratings calculations in the Engineering Reference for this coil type. Also, use Output:Diagnostics, DisplayExtraWarnings for further guidance.\n   ** Warning ** Check input. Pump nominal power or motor efficiency is set to 0, for pump=SERVICE WATER LOOP PUMP\n   ** Warning ** Output:Meter: invalid Name=\"DISTRICTCOOLING:FACILITY\" - not found.\n   ** Warning ** Output:Meter: invalid Name=\"DISTRICTHEATING:FACILITY\" - not found.\n   ** Warning ** Output:Meter:MeterFileOnly requested for \"Electricity:Facility\" (TimeStep), already on \"Output:Meter\". Will report to both eplusout.eso and eplusout.mtr\n   ************* Testing Individual Branch Integrity\n   ************* All Branches passed integrity testing\n   ************* Testing Individual Supply Air Path Integrity\n   ************* All Supply Air Paths passed integrity testing\n   ************* Testing Individual Return Air Path Integrity\n   ************* All Return Air Paths passed integrity testing\n   ************* No node connection errors were found.\n   ************* Beginning Simulation\n   ** Warning ** CalcDoe2DXCoil: Coil:Cooling:DX:SingleSpeed \"COIL COOLING DX SINGLE SPEED 2 9KBTU/HR 14.0SEER\" - Full load outlet air dry-bulb temperature < 2C. This indicates the possibility of coil frost/freeze. Outlet temperature = 1.67 C.\n   **   ~~~   **  ...Occurrence info = RUN PERIOD 1, 01/02 21:15 - 21:19\n   **   ~~~   ** ... Possible reasons for low outlet air dry-bulb temperatures are: This DX coil\n   **   ~~~   **    1) may have a low inlet air dry-bulb temperature. Inlet air temperature = 14.127 C.\n   **   ~~~   **    2) may have a low air flow rate per watt of cooling capacity. Check inputs.\n   **   ~~~   **    3) is used as part of a HX assisted cooling coil which uses a high sensible effectiveness. Check inputs.\n   ** Warning ** CalcDoe2DXCoil: Coil:Cooling:DX:SingleSpeed \"COIL COOLING DX SINGLE SPEED 2 9KBTU/HR 14.0SEER\" - Air-cooled condenser inlet dry-bulb temperature below 0 C. Outdoor dry-bulb temperature = -0.25\n   **   ~~~   **  ... Occurrence info = RUN PERIOD 1, 01/05 21:15 - 21:19\n   **   ~~~   ** ... Operation at low ambient temperatures may require special performance curves.\n   ** Warning ** CalcDoe2DXCoil: Coil:Cooling:DX:SingleSpeed \"COIL COOLING DX SINGLE SPEED 4 54KBTU/HR 14.0SEER\" - Air-cooled condenser inlet dry-bulb temperature below 0 C. Outdoor dry-bulb temperature = -2.48\n   **   ~~~   **  ... Occurrence info = RUN PERIOD 1, 01/06 07:03 - 07:06\n   **   ~~~   ** ... Operation at low ambient temperatures may require special performance curves.\n   ** Warning ** CalcDoe2DXCoil: Coil:Cooling:DX:SingleSpeed \"COIL COOLING DX SINGLE SPEED 3 54KBTU/HR 14.0SEER\" - Air-cooled condenser inlet dry-bulb temperature below 0 C. Outdoor dry-bulb temperature = -2.48\n   **   ~~~   **  ... Occurrence info = RUN PERIOD 1, 01/06 07:03 - 07:06\n   **   ~~~   ** ... Operation at low ambient temperatures may require special performance curves.\n   ** Warning ** CalcDoe2DXCoil: Coil:Cooling:DX:SingleSpeed \"COIL COOLING DX SINGLE SPEED 5 42KBTU/HR 14.0SEER\" - Air-cooled condenser inlet dry-bulb temperature below 0 C. Outdoor dry-bulb temperature = -2.48\n   **   ~~~   **  ... Occurrence info = RUN PERIOD 1, 01/06 07:06 - 07:09\n   **   ~~~   ** ... Operation at low ambient temperatures may require special performance curves.\n   ** Warning ** CalcDoe2DXCoil: Coil:Cooling:DX:SingleSpeed \"COIL COOLING DX SINGLE SPEED 1 266KBTU/HR 8.21EER\" - Full load outlet air dry-bulb temperature < 2C. This indicates the possibility of coil frost/freeze. Outlet temperature = 0.88 C.\n   **   ~~~   **  ...Occurrence info = RUN PERIOD 1, 04/04 12:15 - 12:30\n   **   ~~~   ** ... Possible reasons for low outlet air dry-bulb temperatures are: This DX coil\n   **   ~~~   **    1) may have a low inlet air dry-bulb temperature. Inlet air temperature = 15.000 C.\n   **   ~~~   **    2) may have a low air flow rate per watt of cooling capacity. Check inputs.\n   **   ~~~   **    3) is used as part of a HX assisted cooling coil which uses a high sensible effectiveness. Check inputs.\n   ************* Simulation Error Summary *************\n   ************* There are 9 unused schedules in input.\n   ************* There are 9 unused week schedules in input.\n   ************* There are 20 unused day schedules in input.\n   ************* Use Output:Diagnostics,DisplayUnusedSchedules; to see them.\n   *************\n   ************* ===== Recurring Error Summary =====\n   ************* The following recurring error messages occurred.\n   *************\n   *************  ** Warning ** CalcDoe2DXCoil: Coil:Cooling:DX:SingleSpeed=\"COIL COOLING DX SINGLE SPEED 2 9KBTU/HR 14.0SEER\" - Full load outlet temperature indicates a possibility of frost/freeze error continues. Outlet air temperature statistics follow:\n   *************  **   ~~~   **   This error occurred 208 total times;\n   *************  **   ~~~   **   during Warmup 0 times;\n   *************  **   ~~~   **   during Sizing 0 times.\n   *************  **   ~~~   **   Max=1.999638  Min=-2.327564\n   *************\n   *************  ** Warning ** CalcDoe2DXCoil: Coil:Cooling:DX:SingleSpeed=\"COIL COOLING DX SINGLE SPEED 2 9KBTU/HR 14.0SEER\" - Low condenser dry-bulb temperature error continues...\n   *************  **   ~~~   **   This error occurred 76 total times;\n   *************  **   ~~~   **   during Warmup 0 times;\n   *************  **   ~~~   **   during Sizing 0 times.\n   *************  **   ~~~   **   Max=-7.500000E-002 [C]  Min=-2.5 [C]\n   *************\n   *************  ** Warning ** CalcDoe2DXCoil: Coil:Cooling:DX:SingleSpeed=\"COIL COOLING DX SINGLE SPEED 4 54KBTU/HR 14.0SEER\" - Low condenser dry-bulb temperature error continues...\n   *************  **   ~~~   **   This error occurred 208 total times;\n   *************  **   ~~~   **   during Warmup 0 times;\n   *************  **   ~~~   **   during Sizing 0 times.\n   *************  **   ~~~   **   Max=-7.500000E-002 [C]  Min=-11.425 [C]\n   *************\n   *************  ** Warning ** CalcDoe2DXCoil: Coil:Cooling:DX:SingleSpeed=\"COIL COOLING DX SINGLE SPEED 3 54KBTU/HR 14.0SEER\" - Low condenser dry-bulb temperature error continues...\n   *************  **   ~~~   **   This error occurred 215 total times;\n   *************  **   ~~~   **   during Warmup 0 times;\n   *************  **   ~~~   **   during Sizing 0 times.\n   *************  **   ~~~   **   Max=-7.500000E-002 [C]  Min=-11.425 [C]\n   *************\n   *************  ** Warning ** CalcDoe2DXCoil: Coil:Cooling:DX:SingleSpeed=\"COIL COOLING DX SINGLE SPEED 5 42KBTU/HR 14.0SEER\" - Low condenser dry-bulb temperature error continues...\n   *************  **   ~~~   **   This error occurred 50 total times;\n   *************  **   ~~~   **   during Warmup 0 times;\n   *************  **   ~~~   **   during Sizing 0 times.\n   *************  **   ~~~   **   Max=-0.1 [C]  Min=-11.425 [C]\n   *************\n   *************  ** Warning ** CalcDoe2DXCoil: Coil:Cooling:DX:SingleSpeed=\"COIL COOLING DX SINGLE SPEED 1 266KBTU/HR 8.21EER\" - Full load outlet temperature indicates a possibility of frost/freeze error continues. Outlet air temperature statistics follow:\n   *************  **   ~~~   **   This error occurred 7 total times;\n   *************  **   ~~~   **   during Warmup 0 times;\n   *************  **   ~~~   **   during Sizing 0 times.\n   *************  **   ~~~   **   Max=1.892944  Min=0.876972\n   *************\n   *************\n   ************* ===== Final Error Summary =====\n   ************* The following error categories occurred.  Consider correcting or noting.\n   ************* Nominally Unused Constructions\n   ************* ..The nominally unused constructions warning is provided to alert you to potential conditions that can cause\n   ************* ..extra time during simulation. Each construction is calculated by the algorithm indicated in the HeatBalanceAlgorithm\n   ************* ..object. You may remove the constructions indicated (when you use the DisplayExtraWarnings option).\n   *************\n   ************* EnergyPlus Warmup Error Summary. During Warmup: 0 Warning; 0 Severe Errors.\n   ************* EnergyPlus Sizing Error Summary. During Sizing: 39 Warning; 24 Severe Errors.\n   ************* EnergyPlus Completed Successfully-- 818 Warning; 24 Severe Errors; Elapsed Time=00hr 00min 34.97sec\n",
   "file_format_version" : "0.0.1",
   "file_paths" : [ "../weather", "../seeds", "../seed" ],
   "hash" : "A9095612",
   "measure_paths" : [ "../measures" ],
   "name" : "LHS Autogenerated 550",
   "osa_id" : "4fef0e0f-5396-4c55-a6e1-2cd6803db3ab",
   "osd_id" : "5674ad9e-9b24-4dff-8aa8-dc4cb2d2d4bc",
   "run_directory" : "./run",
   "seed_file" : "seed.osm",
   "started_at" : "20170710T185754Z",
   "steps" : [
      {
         "arguments" : {
            "__SKIP__" : false,
            "building_type" : "RetailStandalone",
            "climate_zone" : "NECB HDD Method",
            "epw_file" : "CAN_BC_Abbotsford.711080_CWEC.epw",
            "template" : "NECB 2011"
         },
         "measure_dir_name" : "create_prototype_building",
         "name" : "create_prototype_building",
         "result" : {
            "completed_at" : "20170710T185847Z",
            "measure_class_name" : "CreatePrototypeBuilding",
            "measure_display_name" : "Create Prototype Building",
            "measure_name" : "create_prototype_building",
            "measure_taxonomy" : "Whole Building.Space Types",
            "measure_type" : "ModelMeasure",
            "measure_uid" : "ae90fsd7-a651-467a-bc8d-29d310b0f937",
            "measure_version_id" : "c6ec5c18-5595-459f-a082-09a19c8c869c",
            "measure_version_modified" : "20170519T182315Z",
            "measure_xml_checksum" : "057E8D9D",
            "started_at" : "20170710T185756Z",
            "stderr" : "",
            "stdout" : "[OpenStudio.Measure] <0> OSArgumentVector is deprecated, use OpenStudio::Measure::OSArgumentVector instead.\n[openstudio.EpwFile] <0> Successive data points (1987-Jan-31 to 1971-Feb-01, ending on line 753) are greater than 1 day apart in EPW file '/usr/local/bundle/bundler/gems/openstudio-standards-f448df66933d/openstudio-standards/data/weather/CAN_BC_Abbotsford.711080_CWEC.epw'. Data will be treated as typical (TMY)\n[openstudio.setFileExtension] <0> Path p, '/usr/local/bundle/bundler/gems/openstudio-standards-f448df66933d/openstudio-standards/data/weather/CAN_BC_Abbotsford.711080_CWEC.ddy', has an unexpected file extension. Was expecting 'idf'.\n[openstudio.model.YearDescription] <1> 'UseWeatherFile' is not yet a supported option for YearDescription\n[openstudio.model.YearDescription] <1> 'UseWeatherFile' is not yet a supported option for YearDescription\n[openstudio.setFileExtension] <0> Path p, '/usr/local/bundle/bundler/gems/openstudio-standards-f448df66933d/openstudio-standards/data/weather/CAN_BC_Abbotsford.711080_CWEC.ddy', has an unexpected file extension. Was expecting 'idf'.\n[openstudio.model.YearDescription] <1> 'UseWeatherFile' is not yet a supported option for YearDescription\n[openstudio.model.YearDescription] <1> 'UseWeatherFile' is not yet a supported option for YearDescription\n[openstudio.EpwFile] <0> Successive data points (1987-Jan-31 to 1971-Feb-01, ending on line 753) are greater than 1 day apart in EPW file '/usr/local/bundle/bundler/gems/openstudio-standards-f448df66933d/openstudio-standards/data/weather/CAN_BC_Abbotsford.711080_CWEC.epw'. Data will be treated as typical (TMY)\n[openstudio.weather.Model] <0> Could not find ground temperatures; will use generic temperatures, which will skew results.\n[openstudio.setFileExtension] <0> Path p, '/usr/local/bundle/bundler/gems/openstudio-standards-f448df66933d/openstudio-standards/data/weather/CAN_BC_Abbotsford.711080_CWEC.ddy', has an unexpected file extension. Was expecting 'idf'.\n[openstudio.model.YearDescription] <1> 'UseWeatherFile' is not yet a supported option for YearDescription\n[openstudio.model.YearDescription] <1> 'UseWeatherFile' is not yet a supported option for YearDescription\n[openstudio.EpwFile] <0> Successive data points (1987-Jan-31 to 1971-Feb-01, ending on line 753) are greater than 1 day apart in EPW file '/usr/local/bundle/bundler/gems/openstudio-standards-f448df66933d/openstudio-standards/data/weather/CAN_BC_Abbotsford.711080_CWEC.epw'. Data will be treated as typical (TMY)\n[openstudio.setFileExtension] <0> Path p, '/usr/local/bundle/bundler/gems/openstudio-standards-f448df66933d/openstudio-standards/data/weather/CAN_BC_Abbotsford.711080_CWEC.ddy', has an unexpected file extension. Was expecting 'idf'.\n[openstudio.model.YearDescription] <1> 'UseWeatherFile' is not yet a supported option for YearDescription\n[openstudio.model.YearDescription] <1> 'UseWeatherFile' is not yet a supported option for YearDescription\n[openstudio.setFileExtension] <0> Path p, '/usr/local/bundle/bundler/gems/openstudio-standards-f448df66933d/openstudio-standards/data/weather/CAN_BC_Abbotsford.711080_CWEC.ddy', has an unexpected file extension. Was expecting 'idf'.\n[openstudio.model.YearDescription] <1> 'UseWeatherFile' is not yet a supported option for YearDescription\n[openstudio.model.YearDescription] <1> 'UseWeatherFile' is not yet a supported option for YearDescription\n[openstudio.EpwFile] <0> Successive data points (1987-Jan-31 to 1971-Feb-01, ending on line 753) are greater than 1 day apart in EPW file '/usr/local/bundle/bundler/gems/openstudio-standards-f448df66933d/openstudio-standards/data/weather/CAN_BC_Abbotsford.711080_CWEC.epw'. Data will be treated as typical (TMY)\n[openstudio.setFileExtension] <0> Path p, '/usr/local/bundle/bundler/gems/openstudio-standards-f448df66933d/openstudio-standards/data/weather/CAN_BC_Abbotsford.711080_CWEC.ddy', has an unexpected file extension. Was expecting 'idf'.\n[openstudio.model.YearDescription] <1> 'UseWeatherFile' is not yet a supported option for YearDescription\n[openstudio.model.YearDescription] <1> 'UseWeatherFile' is not yet a supported option for YearDescription\n[openstudio.setFileExtension] <0> Path p, '/usr/local/bundle/bundler/gems/openstudio-standards-f448df66933d/openstudio-standards/data/weather/CAN_BC_Abbotsford.711080_CWEC.ddy', has an unexpected file extension. Was expecting 'idf'.\n[openstudio.model.YearDescription] <1> 'UseWeatherFile' is not yet a supported option for YearDescription\n[openstudio.model.YearDescription] <1> 'UseWeatherFile' is not yet a supported option for YearDescription\n[utilities.idf.WorkspaceObject] <0> Object of type 'Schedule:Constant' and named 'Always Off Discrete', points to an object named OnOff 1 from field 1, but that object cannot be located.\n[utilities.idf.WorkspaceObject] <0> Object of type 'Schedule:Constant' and named 'Always On Continuous', points to an object named Fractional 1 from field 1, but that object cannot be located.\n[openstudio.model.Model] <0> The run completed but had the following severe errors: Problem in interior solar distribution calculation (CHKBKS)     Solar Distribution = FullInteriorExterior will not work in Zone=CORE_RETAIL ZN     because vertex 2 of back surface=CORE_RETAIL_WALL_EAST_1 is in front of receiving surface=CORE_RETAIL_ROOF     (Dot Product indicator=459.6689)     Check surface geometry; if OK, use Solar Distribution = FullExterior instead.\\nProblem in interior solar distribution calculation (CHKBKS)     Solar Distribution = FullInteriorExterior will not work in Zone=CORE_RETAIL ZN     because vertex 3 of back surface=CORE_RETAIL_WALL_EAST_1 is in front of receiving surface=CORE_RETAIL_ROOF     (Dot Product indicator=459.6689)     Check surface geometry; if OK, use Solar Distribution = FullExterior instead.\\nProblem in interior solar distribution calculation (CHKBKS)     Solar Distribution = FullInteriorExterior will not work in Zone=CORE_RETAIL ZN     because vertex 2 of back surface=CORE_RETAIL_WALL_EAST_2 is in front of receiving surface=CORE_RETAIL_ROOF     (Dot Product indicator=459.6689)     Check surface geometry; if OK, use Solar Distribution = FullExterior instead.\\nProblem in interior solar distribution calculation (CHKBKS)     Solar Distribution = FullInteriorExterior will not work in Zone=CORE_RETAIL ZN     because vertex 3 of back surface=CORE_RETAIL_WALL_EAST_2 is in front of receiving surface=CORE_RETAIL_ROOF     (Dot Product indicator=459.6689)     Check surface geometry; if OK, use Solar Distribution = FullExterior instead.\\nProblem in interior solar distribution calculation (CHKBKS)     Solar Distribution = FullInteriorExterior will not work in Zone=CORE_RETAIL ZN     because vertex 2 of back surface=CORE_RETAIL_WALL_NORTH is in front of receiving surface=CORE_RETAIL_ROOF     (Dot Product indicator=459.6689)     Check surface geometry; if OK, use Solar Distribution = FullExterior instead.\\nProblem in interior solar distribution calculation (CHKBKS)     Solar Distribution = FullInteriorExterior will not work in Zone=CORE_RETAIL ZN     because vertex 3 of back surface=CORE_RETAIL_WALL_NORTH is in front of receiving surface=CORE_RETAIL_ROOF     (Dot Product indicator=459.6689)     Check surface geometry; if OK, use Solar Distribution = FullExterior instead.\\nProblem in interior solar distribution calculation (CHKBKS)     Solar Distribution = FullInteriorExterior will not work in Zone=CORE_RETAIL ZN     because vertex 2 of back surface=CORE_RETAIL_WALL_SOUTH_1 is in front of receiving surface=CORE_RETAIL_ROOF     (Dot Product indicator=459.6689)     Check surface geometry; if OK, use Solar Distribution = FullExterior instead.\\nProblem in interior solar distribution calculation (CHKBKS)     Solar Distribution = FullInteriorExterior will not work in Zone=CORE_RETAIL ZN     because vertex 3 of back surface=CORE_RETAIL_WALL_SOUTH_1 is in front of receiving surface=CORE_RETAIL_ROOF     (Dot Product indicator=459.6689)     Check surface geometry; if OK, use Solar Distribution = FullExterior instead.\\nProblem in interior solar distribution calculation (CHKBKS)     Solar Distribution = FullInteriorExterior will not work in Zone=CORE_RETAIL ZN     because vertex 2 of back surface=CORE_RETAIL_WALL_SOUTH_2 is in front of receiving surface=CORE_RETAIL_ROOF     (Dot Product indicator=459.6689)     Check surface geometry; if OK, use Solar Distribution = FullExterior instead.\\nProblem in interior solar distribution calculation (CHKBKS)     Solar Distribution = FullInteriorExterior will not work in Zone=CORE_RETAIL ZN     because vertex 3 of back surface=CORE_RETAIL_WALL_SOUTH_2 is in front of receiving surface=CORE_RETAIL_ROOF     (Dot Product indicator=459.6689)     Check surface geometry; if OK, use Solar Distribution = FullExterior instead.\\nProblem in interior solar distribution calculation (CHKBKS)     Solar Distribution = FullInteriorExterior will not work in Zone=CORE_RETAIL ZN     because vertex 2 of back surface=CORE_RETAIL_WALL_SOUTH_3 is in front of receiving surface=CORE_RETAIL_ROOF     (Dot Product indicator=459.6689)     Check surface geometry; if OK, use Solar Distribution = FullExterior instead.\\nProblem in interior solar distribution calculation (CHKBKS)     Solar Distribution = FullInteriorExterior will not work in Zone=CORE_RETAIL ZN     because vertex 3 of back surface=CORE_RETAIL_WALL_SOUTH_3 is in front of receiving surface=CORE_RETAIL_ROOF     (Dot Product indicator=459.6689)     Check surface geometry; if OK, use Solar Distribution = FullExterior instead.\\nProblem in interior solar distribution calculation (CHKBKS)     Solar Distribution = FullInteriorExterior will not work in Zone=CORE_RETAIL ZN     because vertex 2 of back surface=CORE_RETAIL_WALL_WEST_1 is in front of receiving surface=CORE_RETAIL_ROOF     (Dot Product indicator=459.6689)     Check surface geometry; if OK, use Solar Distribution = FullExterior instead.\\nProblem in interior solar distribution calculation (CHKBKS)     Solar Distribution = FullInteriorExterior will not work in Zone=CORE_RETAIL ZN     because vertex 3 of back surface=CORE_RETAIL_WALL_WEST_1 is in front of receiving surface=CORE_RETAIL_ROOF     (Dot Product indicator=459.6689)     Check surface geometry; if OK, use Solar Distribution = FullExterior instead.\\nProblem in interior solar distribution calculation (CHKBKS)     Solar Distribution = FullInteriorExterior will not work in Zone=CORE_RETAIL ZN     because vertex 2 of back surface=CORE_RETAIL_WALL_WEST_2 is in front of receiving surface=CORE_RETAIL_ROOF     (Dot Product indicator=459.6689)     Check surface geometry; if OK, use Solar Distribution = FullExterior instead.\\nProblem in interior solar distribution calculation (CHKBKS)     Solar Distribution = FullInteriorExterior will not work in Zone=CORE_RETAIL ZN     because vertex 3 of back surface=CORE_RETAIL_WALL_WEST_2 is in front of receiving surface=CORE_RETAIL_ROOF     (Dot Product indicator=459.6689)     Check surface geometry; if OK, use Solar Distribution = FullExterior instead.\\nProblem in interior solar distribution calculation (CHKBKS)     Solar Distribution = FullInteriorExterior will not work in Zone=CORE_RETAIL ZN     because vertex 1 of back surface=CORE_RETAIL_FLOOR is in front of receiving surface=CORE_RETAIL_ROOF     (Dot Product indicator=459.6689)     Check surface geometry; if OK, use Solar Distribution = FullExterior instead.\\nProblem in interior solar distribution calculation (CHKBKS)     Solar Distribution = FullInteriorExterior will not work in Zone=CORE_RETAIL ZN     because vertex 2 of back surface=CORE_RETAIL_FLOOR is in front of receiving surface=CORE_RETAIL_ROOF     (Dot Product indicator=459.6689)     Check surface geometry; if OK, use Solar Distribution = FullExterior instead.\\nProblem in interior solar distribution calculation (CHKBKS)     Solar Distribution = FullInteriorExterior will not work in Zone=CORE_RETAIL ZN     because vertex 3 of back surface=CORE_RETAIL_FLOOR is in front of receiving surface=CORE_RETAIL_ROOF     (Dot Product indicator=459.6689)     Check surface geometry; if OK, use Solar Distribution = FullExterior instead.\\nProblem in interior solar distribution calculation (CHKBKS)     Solar Distribution = FullInteriorExterior will not work in Zone=CORE_RETAIL ZN     because vertex 4 of back surface=CORE_RETAIL_FLOOR is in front of receiving surface=CORE_RETAIL_ROOF     (Dot Product indicator=459.6689)     Check surface geometry; if OK, use Solar Distribution = FullExterior instead.\\nProblem in interior solar distribution calculation (CHKBKS)     Solar Distribution = FullInteriorExterior will not work in Zone=CORE_RETAIL ZN     because vertex 5 of back surface=CORE_RETAIL_FLOOR is in front of receiving surface=CORE_RETAIL_ROOF     (Dot Product indicator=459.6689)     Check surface geometry; if OK, use Solar Distribution = FullExterior instead.\\nProblem in interior solar distribution calculation (CHKBKS)     Solar Distribution = FullInteriorExterior will not work in Zone=CORE_RETAIL ZN     because vertex 6 of back surface=CORE_RETAIL_FLOOR is in front of receiving surface=CORE_RETAIL_ROOF     (Dot Product indicator=459.6689)     Check surface geometry; if OK, use Solar Distribution = FullExterior instead.\\nProblem in interior solar distribution calculation (CHKBKS)     Solar Distribution = FullInteriorExterior will not work in Zone=CORE_RETAIL ZN     because vertex 7 of back surface=CORE_RETAIL_FLOOR is in front of receiving surface=CORE_RETAIL_ROOF     (Dot Product indicator=459.6689)     Check surface geometry; if OK, use Solar Distribution = FullExterior instead.\\nProblem in interior solar distribution calculation (CHKBKS)     Solar Distribution = FullInteriorExterior will not work in Zone=CORE_RETAIL ZN     because vertex 8 of back surface=CORE_RETAIL_FLOOR is in front of receiving surface=CORE_RETAIL_ROOF     (Dot Product indicator=459.6689)     Check surface geometry; if OK, use Solar Distribution = FullExterior instead.\n[utilities.idf.WorkspaceObject] <0> Object of type 'Schedule:Constant' and named 'Always Off Discrete', points to an object named OnOff 1 from field 1, but that object cannot be located.\n[utilities.idf.WorkspaceObject] <0> Object of type 'Schedule:Constant' and named 'Always On Continuous', points to an object named Fractional 1 from field 1, but that object cannot be located.\n[openstudio.model.Model] <0> The run completed but had the following severe errors: Problem in interior solar distribution calculation (CHKBKS)     Solar Distribution = FullInteriorExterior will not work in Zone=SP-CORE_RETAIL SYS-3 FLR-1 SCH-C HPLCMT-EAST ZN     because vertex 2 of back surface=CORE_RETAIL_WALL_EAST_1 is in front of receiving surface=CORE_RETAIL_ROOF     (Dot Product indicator=459.6689)     Check surface geometry; if OK, use Solar Distribution = FullExterior instead.\\nProblem in interior solar distribution calculation (CHKBKS)     Solar Distribution = FullInteriorExterior will not work in Zone=SP-CORE_RETAIL SYS-3 FLR-1 SCH-C HPLCMT-EAST ZN     because vertex 3 of back surface=CORE_RETAIL_WALL_EAST_1 is in front of receiving surface=CORE_RETAIL_ROOF     (Dot Product indicator=459.6689)     Check surface geometry; if OK, use Solar Distribution = FullExterior instead.\\nProblem in interior solar distribution calculation (CHKBKS)     Solar Distribution = FullInteriorExterior will not work in Zone=SP-CORE_RETAIL SYS-3 FLR-1 SCH-C HPLCMT-EAST ZN     because vertex 2 of back surface=CORE_RETAIL_WALL_EAST_2 is in front of receiving surface=CORE_RETAIL_ROOF     (Dot Product indicator=459.6689)     Check surface geometry; if OK, use Solar Distribution = FullExterior instead.\\nProblem in interior solar distribution calculation (CHKBKS)     Solar Distribution = FullInteriorExterior will not work in Zone=SP-CORE_RETAIL SYS-3 FLR-1 SCH-C HPLCMT-EAST ZN     because vertex 3 of back surface=CORE_RETAIL_WALL_EAST_2 is in front of receiving surface=CORE_RETAIL_ROOF     (Dot Product indicator=459.6689)     Check surface geometry; if OK, use Solar Distribution = FullExterior instead.\\nProblem in interior solar distribution calculation (CHKBKS)     Solar Distribution = FullInteriorExterior will not work in Zone=SP-CORE_RETAIL SYS-3 FLR-1 SCH-C HPLCMT-EAST ZN     because vertex 2 of back surface=CORE_RETAIL_WALL_NORTH is in front of receiving surface=CORE_RETAIL_ROOF     (Dot Product indicator=459.6689)     Check surface geometry; if OK, use Solar Distribution = FullExterior instead.\\nProblem in interior solar distribution calculation (CHKBKS)     Solar Distribution = FullInteriorExterior will not work in Zone=SP-CORE_RETAIL SYS-3 FLR-1 SCH-C HPLCMT-EAST ZN     because vertex 3 of back surface=CORE_RETAIL_WALL_NORTH is in front of receiving surface=CORE_RETAIL_ROOF     (Dot Product indicator=459.6689)     Check surface geometry; if OK, use Solar Distribution = FullExterior instead.\\nProblem in interior solar distribution calculation (CHKBKS)     Solar Distribution = FullInteriorExterior will not work in Zone=SP-CORE_RETAIL SYS-3 FLR-1 SCH-C HPLCMT-EAST ZN     because vertex 2 of back surface=CORE_RETAIL_WALL_SOUTH_1 is in front of receiving surface=CORE_RETAIL_ROOF     (Dot Product indicator=459.6689)     Check surface geometry; if OK, use Solar Distribution = FullExterior instead.\\nProblem in interior solar distribution calculation (CHKBKS)     Solar Distribution = FullInteriorExterior will not work in Zone=SP-CORE_RETAIL SYS-3 FLR-1 SCH-C HPLCMT-EAST ZN     because vertex 3 of back surface=CORE_RETAIL_WALL_SOUTH_1 is in front of receiving surface=CORE_RETAIL_ROOF     (Dot Product indicator=459.6689)     Check surface geometry; if OK, use Solar Distribution = FullExterior instead.\\nProblem in interior solar distribution calculation (CHKBKS)     Solar Distribution = FullInteriorExterior will not work in Zone=SP-CORE_RETAIL SYS-3 FLR-1 SCH-C HPLCMT-EAST ZN     because vertex 2 of back surface=CORE_RETAIL_WALL_SOUTH_2 is in front of receiving surface=CORE_RETAIL_ROOF     (Dot Product indicator=459.6689)     Check surface geometry; if OK, use Solar Distribution = FullExterior instead.\\nProblem in interior solar distribution calculation (CHKBKS)     Solar Distribution = FullInteriorExterior will not work in Zone=SP-CORE_RETAIL SYS-3 FLR-1 SCH-C HPLCMT-EAST ZN     because vertex 3 of back surface=CORE_RETAIL_WALL_SOUTH_2 is in front of receiving surface=CORE_RETAIL_ROOF     (Dot Product indicator=459.6689)     Check surface geometry; if OK, use Solar Distribution = FullExterior instead.\\nProblem in interior solar distribution calculation (CHKBKS)     Solar Distribution = FullInteriorExterior will not work in Zone=SP-CORE_RETAIL SYS-3 FLR-1 SCH-C HPLCMT-EAST ZN     because vertex 2 of back surface=CORE_RETAIL_WALL_SOUTH_3 is in front of receiving surface=CORE_RETAIL_ROOF     (Dot Product indicator=459.6689)     Check surface geometry; if OK, use Solar Distribution = FullExterior instead.\\nProblem in interior solar distribution calculation (CHKBKS)     Solar Distribution = FullInteriorExterior will not work in Zone=SP-CORE_RETAIL SYS-3 FLR-1 SCH-C HPLCMT-EAST ZN     because vertex 3 of back surface=CORE_RETAIL_WALL_SOUTH_3 is in front of receiving surface=CORE_RETAIL_ROOF     (Dot Product indicator=459.6689)     Check surface geometry; if OK, use Solar Distribution = FullExterior instead.\\nProblem in interior solar distribution calculation (CHKBKS)     Solar Distribution = FullInteriorExterior will not work in Zone=SP-CORE_RETAIL SYS-3 FLR-1 SCH-C HPLCMT-EAST ZN     because vertex 2 of back surface=CORE_RETAIL_WALL_WEST_1 is in front of receiving surface=CORE_RETAIL_ROOF     (Dot Product indicator=459.6689)     Check surface geometry; if OK, use Solar Distribution = FullExterior instead.\\nProblem in interior solar distribution calculation (CHKBKS)     Solar Distribution = FullInteriorExterior will not work in Zone=SP-CORE_RETAIL SYS-3 FLR-1 SCH-C HPLCMT-EAST ZN     because vertex 3 of back surface=CORE_RETAIL_WALL_WEST_1 is in front of receiving surface=CORE_RETAIL_ROOF     (Dot Product indicator=459.6689)     Check surface geometry; if OK, use Solar Distribution = FullExterior instead.\\nProblem in interior solar distribution calculation (CHKBKS)     Solar Distribution = FullInteriorExterior will not work in Zone=SP-CORE_RETAIL SYS-3 FLR-1 SCH-C HPLCMT-EAST ZN     because vertex 2 of back surface=CORE_RETAIL_WALL_WEST_2 is in front of receiving surface=CORE_RETAIL_ROOF     (Dot Product indicator=459.6689)     Check surface geometry; if OK, use Solar Distribution = FullExterior instead.\\nProblem in interior solar distribution calculation (CHKBKS)     Solar Distribution = FullInteriorExterior will not work in Zone=SP-CORE_RETAIL SYS-3 FLR-1 SCH-C HPLCMT-EAST ZN     because vertex 3 of back surface=CORE_RETAIL_WALL_WEST_2 is in front of receiving surface=CORE_RETAIL_ROOF     (Dot Product indicator=459.6689)     Check surface geometry; if OK, use Solar Distribution = FullExterior instead.\\nProblem in interior solar distribution calculation (CHKBKS)     Solar Distribution = FullInteriorExterior will not work in Zone=SP-CORE_RETAIL SYS-3 FLR-1 SCH-C HPLCMT-EAST ZN     because vertex 1 of back surface=CORE_RETAIL_FLOOR is in front of receiving surface=CORE_RETAIL_ROOF     (Dot Product indicator=459.6689)     Check surface geometry; if OK, use Solar Distribution = FullExterior instead.\\nProblem in interior solar distribution calculation (CHKBKS)     Solar Distribution = FullInteriorExterior will not work in Zone=SP-CORE_RETAIL SYS-3 FLR-1 SCH-C HPLCMT-EAST ZN     because vertex 2 of back surface=CORE_RETAIL_FLOOR is in front of receiving surface=CORE_RETAIL_ROOF     (Dot Product indicator=459.6689)     Check surface geometry; if OK, use Solar Distribution = FullExterior instead.\\nProblem in interior solar distribution calculation (CHKBKS)     Solar Distribution = FullInteriorExterior will not work in Zone=SP-CORE_RETAIL SYS-3 FLR-1 SCH-C HPLCMT-EAST ZN     because vertex 3 of back surface=CORE_RETAIL_FLOOR is in front of receiving surface=CORE_RETAIL_ROOF     (Dot Product indicator=459.6689)     Check surface geometry; if OK, use Solar Distribution = FullExterior instead.\\nProblem in interior solar distribution calculation (CHKBKS)     Solar Distribution = FullInteriorExterior will not work in Zone=SP-CORE_RETAIL SYS-3 FLR-1 SCH-C HPLCMT-EAST ZN     because vertex 4 of back surface=CORE_RETAIL_FLOOR is in front of receiving surface=CORE_RETAIL_ROOF     (Dot Product indicator=459.6689)     Check surface geometry; if OK, use Solar Distribution = FullExterior instead.\\nProblem in interior solar distribution calculation (CHKBKS)     Solar Distribution = FullInteriorExterior will not work in Zone=SP-CORE_RETAIL SYS-3 FLR-1 SCH-C HPLCMT-EAST ZN     because vertex 5 of back surface=CORE_RETAIL_FLOOR is in front of receiving surface=CORE_RETAIL_ROOF     (Dot Product indicator=459.6689)     Check surface geometry; if OK, use Solar Distribution = FullExterior instead.\\nProblem in interior solar distribution calculation (CHKBKS)     Solar Distribution = FullInteriorExterior will not work in Zone=SP-CORE_RETAIL SYS-3 FLR-1 SCH-C HPLCMT-EAST ZN     because vertex 6 of back surface=CORE_RETAIL_FLOOR is in front of receiving surface=CORE_RETAIL_ROOF     (Dot Product indicator=459.6689)     Check surface geometry; if OK, use Solar Distribution = FullExterior instead.\\nProblem in interior solar distribution calculation (CHKBKS)     Solar Distribution = FullInteriorExterior will not work in Zone=SP-CORE_RETAIL SYS-3 FLR-1 SCH-C HPLCMT-EAST ZN     because vertex 7 of back surface=CORE_RETAIL_FLOOR is in front of receiving surface=CORE_RETAIL_ROOF     (Dot Product indicator=459.6689)     Check surface geometry; if OK, use Solar Distribution = FullExterior instead.\\nProblem in interior solar distribution calculation (CHKBKS)     Solar Distribution = FullInteriorExterior will not work in Zone=SP-CORE_RETAIL SYS-3 FLR-1 SCH-C HPLCMT-EAST ZN     because vertex 8 of back surface=CORE_RETAIL_FLOOR is in front of receiving surface=CORE_RETAIL_ROOF     (Dot Product indicator=459.6689)     Check surface geometry; if OK, use Solar Distribution = FullExterior instead.\n[openstudio.standards.Fan] <0> For Fan Constant Volume 1, there is no greater nominal HP.  Use the efficiency of the largest motor category.\n[openstudio.standards.Fan] <0> For Fan Constant Volume 2, there is no greater nominal HP.  Use the efficiency of the largest motor category.\n[openstudio.standards.Fan] <0> For Fan Constant Volume 3, there is no greater nominal HP.  Use the efficiency of the largest motor category.\n[openstudio.standards.Fan] <0> For Fan Constant Volume 4, there is no greater nominal HP.  Use the efficiency of the largest motor category.\n[openstudio.standards.Fan] <0> For Fan Constant Volume 5, there is no greater nominal HP.  Use the efficiency of the largest motor category.\n[openstudio.EpwFile] <0> Successive data points (1987-Jan-31 to 1971-Feb-01, ending on line 753) are greater than 1 day apart in EPW file '/usr/local/bundle/bundler/gems/openstudio-standards-f448df66933d/openstudio-standards/data/weather/CAN_BC_Abbotsford.711080_CWEC.epw'. Data will be treated as typical (TMY)\n[openstudio.setFileExtension] <0> Path p, '/usr/local/bundle/bundler/gems/openstudio-standards-f448df66933d/openstudio-standards/data/weather/CAN_BC_Abbotsford.711080_CWEC.ddy', has an unexpected file extension. Was expecting 'idf'.\n[openstudio.model.YearDescription] <1> 'UseWeatherFile' is not yet a supported option for YearDescription\n[openstudio.model.YearDescription] <1> 'UseWeatherFile' is not yet a supported option for YearDescription\n[openstudio.setFileExtension] <0> Path p, '/usr/local/bundle/bundler/gems/openstudio-standards-f448df66933d/openstudio-standards/data/weather/CAN_BC_Abbotsford.711080_CWEC.ddy', has an unexpected file extension. Was expecting 'idf'.\n[openstudio.model.YearDescription] <1> 'UseWeatherFile' is not yet a supported option for YearDescription\n[openstudio.model.YearDescription] <1> 'UseWeatherFile' is not yet a supported option for YearDescription\n[openstudio.EpwFile] <0> Successive data points (1987-Jan-31 to 1971-Feb-01, ending on line 753) are greater than 1 day apart in EPW file '/usr/local/bundle/bundler/gems/openstudio-standards-f448df66933d/openstudio-standards/data/weather/CAN_BC_Abbotsford.711080_CWEC.epw'. Data will be treated as typical (TMY)\n[openstudio.setFileExtension] <0> Path p, '/usr/local/bundle/bundler/gems/openstudio-standards-f448df66933d/openstudio-standards/data/weather/CAN_BC_Abbotsford.711080_CWEC.ddy', has an unexpected file extension. Was expecting 'idf'.\n[openstudio.model.YearDescription] <1> 'UseWeatherFile' is not yet a supported option for YearDescription\n[openstudio.model.YearDescription] <1> 'UseWeatherFile' is not yet a supported option for YearDescription\n[openstudio.setFileExtension] <0> Path p, '/usr/local/bundle/bundler/gems/openstudio-standards-f448df66933d/openstudio-standards/data/weather/CAN_BC_Abbotsford.711080_CWEC.ddy', has an unexpected file extension. Was expecting 'idf'.\n[openstudio.model.YearDescription] <1> 'UseWeatherFile' is not yet a supported option for YearDescription\n[openstudio.model.YearDescription] <1> 'UseWeatherFile' is not yet a supported option for YearDescription\n[openstudio.EpwFile] <0> Successive data points (1987-Jan-31 to 1971-Feb-01, ending on line 753) are greater than 1 day apart in EPW file '/usr/local/bundle/bundler/gems/openstudio-standards-f448df66933d/openstudio-standards/data/weather/CAN_BC_Abbotsford.711080_CWEC.epw'. Data will be treated as typical (TMY)\n[openstudio.setFileExtension] <0> Path p, '/usr/local/bundle/bundler/gems/openstudio-standards-f448df66933d/openstudio-standards/data/weather/CAN_BC_Abbotsford.711080_CWEC.ddy', has an unexpected file extension. Was expecting 'idf'.\n[openstudio.model.YearDescription] <1> 'UseWeatherFile' is not yet a supported option for YearDescription\n[openstudio.model.YearDescription] <1> 'UseWeatherFile' is not yet a supported option for YearDescription\n[openstudio.setFileExtension] <0> Path p, '/usr/local/bundle/bundler/gems/openstudio-standards-f448df66933d/openstudio-standards/data/weather/CAN_BC_Abbotsford.711080_CWEC.ddy', has an unexpected file extension. Was expecting 'idf'.\n[openstudio.model.YearDescription] <1> 'UseWeatherFile' is not yet a supported option for YearDescription\n[openstudio.model.YearDescription] <1> 'UseWeatherFile' is not yet a supported option for YearDescription\n[openstudio.EpwFile] <0> Successive data points (1987-Jan-31 to 1971-Feb-01, ending on line 753) are greater than 1 day apart in EPW file '/usr/local/bundle/bundler/gems/openstudio-standards-f448df66933d/openstudio-standards/data/weather/CAN_BC_Abbotsford.711080_CWEC.epw'. Data will be treated as typical (TMY)\n[openstudio.setFileExtension] <0> Path p, '/usr/local/bundle/bundler/gems/openstudio-standards-f448df66933d/openstudio-standards/data/weather/CAN_BC_Abbotsford.711080_CWEC.ddy', has an unexpected file extension. Was expecting 'idf'.\n[openstudio.model.YearDescription] <1> 'UseWeatherFile' is not yet a supported option for YearDescription\n[openstudio.model.YearDescription] <1> 'UseWeatherFile' is not yet a supported option for YearDescription\n[openstudio.setFileExtension] <0> Path p, '/usr/local/bundle/bundler/gems/openstudio-standards-f448df66933d/openstudio-standards/data/weather/CAN_BC_Abbotsford.711080_CWEC.ddy', has an unexpected file extension. Was expecting 'idf'.\n[openstudio.model.YearDescription] <1> 'UseWeatherFile' is not yet a supported option for YearDescription\n[openstudio.model.YearDescription] <1> 'UseWeatherFile' is not yet a supported option for YearDescription\n[openstudio.EpwFile] <0> Successive data points (1987-Jan-31 to 1971-Feb-01, ending on line 753) are greater than 1 day apart in EPW file '/usr/local/bundle/bundler/gems/openstudio-standards-f448df66933d/openstudio-standards/data/weather/CAN_BC_Abbotsford.711080_CWEC.epw'. Data will be treated as typical (TMY)\n[openstudio.setFileExtension] <0> Path p, '/usr/local/bundle/bundler/gems/openstudio-standards-f448df66933d/openstudio-standards/data/weather/CAN_BC_Abbotsford.711080_CWEC.ddy', has an unexpected file extension. Was expecting 'idf'.\n[openstudio.model.YearDescription] <1> 'UseWeatherFile' is not yet a supported option for YearDescription\n[openstudio.model.YearDescription] <1> 'UseWeatherFile' is not yet a supported option for YearDescription\n[openstudio.setFileExtension] <0> Path p, '/usr/local/bundle/bundler/gems/openstudio-standards-f448df66933d/openstudio-standards/data/weather/CAN_BC_Abbotsford.711080_CWEC.ddy', has an unexpected file extension. Was expecting 'idf'.\n[openstudio.model.YearDescription] <1> 'UseWeatherFile' is not yet a supported option for YearDescription\n[openstudio.model.YearDescription] <1> 'UseWeatherFile' is not yet a supported option for YearDescription\n[openstudio.standards.Fan] <0> For Fan Constant Volume 1, there is no greater nominal HP.  Use the efficiency of the largest motor category.\n[openstudio.standards.Fan] <0> For Fan Constant Volume 2, there is no greater nominal HP.  Use the efficiency of the largest motor category.\n[openstudio.standards.Fan] <0> For Fan Constant Volume 3, there is no greater nominal HP.  Use the efficiency of the largest motor category.\n[openstudio.standards.Fan] <0> For Fan Constant Volume 4, there is no greater nominal HP.  Use the efficiency of the largest motor category.\n[openstudio.standards.Fan] <0> For Fan Constant Volume 5, there is no greater nominal HP.  Use the efficiency of the largest motor category.\n",
            "step_errors" : [],
            "step_files" : [],
            "step_info" : [
               "Started adding geometry",
               "Finished adding geometry",
               "Started adding weather file for climate zone: NECB HDD Method.",
               "Template =",
               "Setting Back_Space to Space Function.Storage area",
               "Setting Core_Retail to Space Function.Retail - sales",
               "Setting Front_Retail to Space Function.Retail - sales",
               "Setting Point_Of_Sale to Space Function.Retail - sales",
               "Setting Front_Entry to Space Function.Lobby - elevator",
               "Started applying space types (loads)",
               "Space Function Lobby - elevator had no people, one has been created.",
               "Space Function Lobby - elevator set occupancy to 9.29 people/1000 ft^2.",
               "Space Function Lobby - elevator had no lights, one has been created.",
               "Space Function Lobby - elevator set LPD to 0.641025641 W/ft^2.",
               "Space Function Lobby - elevator had no electric equipment, one has been created.",
               "Space Function Lobby - elevator set electric EPD to 0.092902267 W/ft^2.",
               "Space Function Lobby - elevator had no ventilation specification, one has been created.",
               "Space Function Lobby - elevator set ventilation per area to 0.81 cfm/ft^2.",
               "Space Function Lobby - elevator had no infiltration objects, one has been created.",
               "Space Function Lobby - elevator set infiltration to 0.0 per ft^2 exterior surface area.",
               "Space Function Lobby - elevator set occupancy schedule to NECB-C-Occupancy.",
               "Space Function Lobby - elevator set occupant activity schedule to NECB-Activity.",
               "Space Function Lobby - elevator set lighting schedule to NECB-C-Lighting.",
               "Space Function Lobby - elevator set electric equipment schedule to NECB-C-Electric-Equipment.",
               "Space Function Lobby - elevator set infiltration schedule to Always On.",
               "Space Function Lobby - elevator set heating setpoint schedule to NECB-C-Thermostat Setpoint-Heating.",
               "Space Function Lobby - elevator set cooling setpoint schedule to NECB-C-Thermostat Setpoint-Cooling.",
               "Space Function Retail - sales had no people, one has been created.",
               "Space Function Retail - sales set occupancy to 3.1 people/1000 ft^2.",
               "Space Function Retail - sales had no lights, one has been created.",
               "Space Function Retail - sales set LPD to 1.681531029 W/ft^2.",
               "Space Function Retail - sales had no electric equipment, one has been created.",
               "Space Function Retail - sales set electric EPD to 0.232255667 W/ft^2.",
               "Space Function Retail - sales had no ventilation specification, one has been created.",
               "Space Function Retail - sales set ventilation per area to 0.233 cfm/ft^2.",
               "Space Function Retail - sales had no infiltration objects, one has been created.",
               "Space Function Retail - sales set infiltration to 0.0 per ft^2 exterior surface area.",
               "Space Function Retail - sales set occupancy schedule to NECB-C-Occupancy.",
               "Space Function Retail - sales set occupant activity schedule to NECB-Activity.",
               "Space Function Retail - sales set lighting schedule to NECB-C-Lighting.",
               "Space Function Retail - sales set electric equipment schedule to NECB-C-Electric-Equipment.",
               "Space Function Retail - sales set infiltration schedule to Always On.",
               "Space Function Retail - sales set heating setpoint schedule to NECB-C-Thermostat Setpoint-Heating.",
               "Space Function Retail - sales set cooling setpoint schedule to NECB-C-Thermostat Setpoint-Cooling.",
               "Space Function Storage area had no people, one has been created.",
               "Space Function Storage area set occupancy to 0.93 people/1000 ft^2.",
               "Space Function Storage area had no lights, one has been created.",
               "Space Function Storage area set LPD to 0.631735414 W/ft^2.",
               "Space Function Storage area had no electric equipment, one has been created.",
               "Space Function Storage area set electric EPD to 0.092902267 W/ft^2.",
               "Space Function Storage area had no ventilation specification, one has been created.",
               "Space Function Storage area set ventilation per area to 0.07 cfm/ft^2.",
               "Space Function Storage area had no infiltration objects, one has been created.",
               "Space Function Storage area set infiltration to 0.0 per ft^2 exterior surface area.",
               "Space Function Storage area set occupancy schedule to NECB-E-Occupancy.",
               "Space Function Storage area set occupant activity schedule to NECB-Activity.",
               "Space Function Storage area set lighting schedule to NECB-E-Lighting.",
               "Space Function Storage area set electric equipment schedule to NECB-E-Electric-Equipment.",
               "Space Function Storage area set infiltration schedule to Always On.",
               "Space Function Storage area set heating setpoint schedule to NECB-E-Thermostat Setpoint-Heating.",
               "Space Function Storage area set cooling setpoint schedule to NECB-E-Thermostat Setpoint-Cooling.",
               "Finished applying space types (loads)",
               "Started applying constructions",
               "Adding construction set: NECB 2011-NECB HDD Method-Retail--is_residentialNo",
               "Adding construction Typical Insulated Exterior Mass Floor R-15.63.",
               "Adding construction Typical Insulated Exterior Mass Wall R-12.5.",
               "Adding construction Typical Insulated Metal Building Roof R-20.41.",
               "Adding construction Typical Interior Floor.",
               "Adding construction Typical Interior Wall.",
               "Adding construction Typical Interior Ceiling.",
               "Adding construction Typical Insulated Carpeted 6in Slab Floor.",
               "Adding construction U 0.55 SHGC 0.31 Dbl Ref-D Tint 6mm/6mm Air.",
               "Adding construction Typical Insulated Metal Door R-1.43.",
               "Adding construction U 0.35 SHGC 0.35 Dbl LoE (e2-.1) Tint 6mm/13mm Air.",
               "Adding construction Typical Overhead Door R-2.0.",
               "Adding construction U 0.48 SHGC 0.40 Dbl Ref-D Clr 6mm/13mm.",
               "Adding construction Typical Interior Window.",
               "Adding construction Typical Interior Door.",
               "Adding construction Typical Interior Partition.",
               "Finished applying constructions",
               "WWR NonRes = 0%; window = 0 ft2, wall = 0 ft2.",
               "WWR Res = 0%; window = 0 ft2, wall = 0 ft2.",
               "WWR Semiheated = 0%; window = 0 ft2, wall = 0 ft2.",
               "The skylight to roof ratios (SRRs) are: NonRes: 1%, Res: 0%.",
               "Started creating thermal zones",
               "Finished creating thermal zones",
               "Running simulation /mnt/openstudio/analysis_4fef0e0f-5396-4c55-a6e1-2cd6803db3ab/data_point_5674ad9e-9b24-4dff-8aa8-dc4cb2d2d4bc/run/000_create_prototype_building/output/RetailStandalone-NECB 2011-NECB HDD Method-CAN_BC_Abbotsford.711080_CWEC.epw/SR0.",
               "Finished run.",
               "Started Adding HVAC",
               "Finished adding HVAC",
               "Started Adding Service Water Heating",
               "Adding service water loop.",
               "Adding water heater.",
               "Template =",
               "Finished adding Service Water Heating",
               "Set sizing factors to 1.3 for heating and 1.3 for cooling.",
               "Running simulation /mnt/openstudio/analysis_4fef0e0f-5396-4c55-a6e1-2cd6803db3ab/data_point_5674ad9e-9b24-4dff-8aa8-dc4cb2d2d4bc/run/000_create_prototype_building/output/RetailStandalone-NECB 2011-NECB HDD Method-CAN_BC_Abbotsford.711080_CWEC.epw/SR1.",
               "Finished run.",
               "Started applying multizone vav OA sizing.",
               "Finished applying multizone vav OA sizing.",
               "Started applying prototype HVAC assumptions.",
               "For Fan Constant Volume 1: allowed_hp = 6.11HP; motor eff = 61.5%; total fan eff = 40% based on 8938 cfm.",
               "For Fan Constant Volume 2: allowed_hp = 1.01HP; motor eff = 61.5%; total fan eff = 40% based on 324 cfm.",
               "For Fan Constant Volume 3: allowed_hp = 1.38HP; motor eff = 61.5%; total fan eff = 40% based on 2013 cfm.",
               "For Fan Constant Volume 4: allowed_hp = 1.38HP; motor eff = 61.5%; total fan eff = 40% based on 2022 cfm.",
               "For Fan Constant Volume 5: allowed_hp = 1.08HP; motor eff = 61.5%; total fan eff = 40% based on 1576 cfm.",
               "Sp-Core_Retail Sys-3 Flr-1 Sch-C HPlcmt-east ZN NECB System 3 PSZ requires an economizer because the total cooling capacity of 265909 Btu/hr exceeds the minimum capacity of 68243 Btu/hr.",
               "Sp-Front_Entry Sys-3 Flr-1 Sch-C HPlcmt-south ZN NECB System 3 PSZ does not require an economizer because the total cooling capacity of 8969 Btu/hr is less than the minimum capacity of 68243 Btu/hr.",
               "Sp-Front_Retail Sys-3 Flr-1 Sch-C HPlcmt-south ZN NECB System 3 PSZ does not require an economizer because the total cooling capacity of 53891 Btu/hr is less than the minimum capacity of 68243 Btu/hr.",
               "Sp-Back_Space Sys-4 Flr-1 Sch-E HPlcmt-north ZN NECB System 4 PSZ does not require an economizer because the total cooling capacity of 42020 Btu/hr is less than the minimum capacity of 68243 Btu/hr.",
               "Sp-Point_Of_Sale Sys-3 Flr-1 Sch-C HPlcmt-south ZN NECB System 3 PSZ does not require an economizer because the total cooling capacity of 53653 Btu/hr is less than the minimum capacity of 68243 Btu/hr.",
               "Finished applying prototype HVAC assumptions.",
               "Started applying HVAC efficiency standards.",
               "For Sp-Back_Space Sys-4 Flr-1 Sch-E HPlcmt-north ZN NECB System 4 PSZ, ERV not required based on 0% OA flow, design supply air flow of 1576cfm, and climate zone NECB HDD Method.",
               "For Sp-Back_Space Sys-4 Flr-1 Sch-E HPlcmt-north ZN NECB System 4 PSZ, ERV not required based on exhaust heat content.",
               "For NECB 2011 NECB HDD Method:  Sp-Back_Space Sys-4 Flr-1 Sch-E HPlcmt-north ZN NECB System 4 PSZ: DCV is not required for any system.",
               "For Sp-Back_Space Sys-4 Flr-1 Sch-E HPlcmt-north ZN NECB System 4 PSZ: Annual occupied hours = 3068 hr/yr, assuming a 0.15 occupancy threshold.  This schedule will be used as the HVAC operation schedule.",
               "For Sp-Back_Space Sys-4 Flr-1 Sch-E HPlcmt-north ZN NECB System 4 PSZ: Setting motorized OA damper schedule to Sp-Back_Space Sys-4 Flr-1 Sch-E HPlcmt-north ZN NECB System 4 PSZ Occ Sch.",
               "For Sp-Core_Retail Sys-3 Flr-1 Sch-C HPlcmt-east ZN NECB System 3 PSZ, ERV not required based on 0% OA flow, design supply air flow of 8938cfm, and climate zone NECB HDD Method.",
               "For Sp-Core_Retail Sys-3 Flr-1 Sch-C HPlcmt-east ZN NECB System 3 PSZ, ERV not required based on exhaust heat content.",
               "For NECB 2011 NECB HDD Method:  Sp-Core_Retail Sys-3 Flr-1 Sch-C HPlcmt-east ZN NECB System 3 PSZ: DCV is not required for any system.",
               "For Sp-Core_Retail Sys-3 Flr-1 Sch-C HPlcmt-east ZN NECB System 3 PSZ: Annual occupied hours = 4168 hr/yr, assuming a 0.15 occupancy threshold.  This schedule will be used as the HVAC operation schedule.",
               "For Sp-Core_Retail Sys-3 Flr-1 Sch-C HPlcmt-east ZN NECB System 3 PSZ: Because the system has an economizer, it requires a motorized OA damper.",
               "For Sp-Core_Retail Sys-3 Flr-1 Sch-C HPlcmt-east ZN NECB System 3 PSZ: Setting motorized OA damper schedule to Sp-Core_Retail Sys-3 Flr-1 Sch-C HPlcmt-east ZN NECB System 3 PSZ Occ Sch.",
               "For Sp-Front_Entry Sys-3 Flr-1 Sch-C HPlcmt-south ZN NECB System 3 PSZ, ERV not required based on 0% OA flow, design supply air flow of 324cfm, and climate zone NECB HDD Method.",
               "For Sp-Front_Entry Sys-3 Flr-1 Sch-C HPlcmt-south ZN NECB System 3 PSZ, ERV not required based on exhaust heat content.",
               "For NECB 2011 NECB HDD Method:  Sp-Front_Entry Sys-3 Flr-1 Sch-C HPlcmt-south ZN NECB System 3 PSZ: DCV is not required for any system.",
               "For Sp-Front_Entry Sys-3 Flr-1 Sch-C HPlcmt-south ZN NECB System 3 PSZ: Unoccupied fan shutoff not required because system fan HP of 0.33 HP is less than the minimum threshold of 0.75 HP.",
               "For Sp-Front_Entry Sys-3 Flr-1 Sch-C HPlcmt-south ZN NECB System 3 PSZ: Setting motorized OA damper schedule to Always On Discrete.",
               "For Sp-Front_Retail Sys-3 Flr-1 Sch-C HPlcmt-south ZN NECB System 3 PSZ, ERV not required based on 0% OA flow, design supply air flow of 2022cfm, and climate zone NECB HDD Method.",
               "For Sp-Front_Retail Sys-3 Flr-1 Sch-C HPlcmt-south ZN NECB System 3 PSZ, ERV not required based on exhaust heat content.",
               "For NECB 2011 NECB HDD Method:  Sp-Front_Retail Sys-3 Flr-1 Sch-C HPlcmt-south ZN NECB System 3 PSZ: DCV is not required for any system.",
               "For Sp-Front_Retail Sys-3 Flr-1 Sch-C HPlcmt-south ZN NECB System 3 PSZ: Annual occupied hours = 4168 hr/yr, assuming a 0.15 occupancy threshold.  This schedule will be used as the HVAC operation schedule.",
               "For Sp-Front_Retail Sys-3 Flr-1 Sch-C HPlcmt-south ZN NECB System 3 PSZ: Setting motorized OA damper schedule to Sp-Front_Retail Sys-3 Flr-1 Sch-C HPlcmt-south ZN NECB System 3 PSZ Occ Sch.",
               "For Sp-Point_Of_Sale Sys-3 Flr-1 Sch-C HPlcmt-south ZN NECB System 3 PSZ, ERV not required based on 0% OA flow, design supply air flow of 2013cfm, and climate zone NECB HDD Method.",
               "For Sp-Point_Of_Sale Sys-3 Flr-1 Sch-C HPlcmt-south ZN NECB System 3 PSZ, ERV not required based on exhaust heat content.",
               "For NECB 2011 NECB HDD Method:  Sp-Point_Of_Sale Sys-3 Flr-1 Sch-C HPlcmt-south ZN NECB System 3 PSZ: DCV is not required for any system.",
               "For Sp-Point_Of_Sale Sys-3 Flr-1 Sch-C HPlcmt-south ZN NECB System 3 PSZ: Annual occupied hours = 4168 hr/yr, assuming a 0.15 occupancy threshold.  This schedule will be used as the HVAC operation schedule.",
               "For Sp-Point_Of_Sale Sys-3 Flr-1 Sch-C HPlcmt-south ZN NECB System 3 PSZ: Setting motorized OA damper schedule to Sp-Point_Of_Sale Sys-3 Flr-1 Sch-C HPlcmt-south ZN NECB System 3 PSZ Occ Sch.",
               "For Fan Constant Volume 1: motor nameplate = 6HP, motor eff = 61.5%.",
               "For Fan Constant Volume 2: motor nameplate = 0.20163540103984923HP, motor eff = 61.5%.",
               "For Fan Constant Volume 3: motor nameplate = 1.2537208392563597HP, motor eff = 61.5%.",
               "For Fan Constant Volume 4: motor nameplate = 1.2593012552904848HP, motor eff = 61.5%.",
               "For Fan Constant Volume 5: motor nameplate = 0.9818849867735586HP, motor eff = 61.5%.",
               "For Service Water Loop Pump: brake hp = 0.0HP, motor nameplate = 0.1HP, motor eff = 70.0%.",
[...]
9e0xYauacuuaf3t6Jq2vwVd0/Y31jWt23FZmqbZ6PSYdPaYdPpMOgMmnX0mnQMmnUMmnZV77q2EuCLa4QpphyumHa6gdrii2uEKa4crrh2uwHa4ItvlimyXba3mimyXK7Jdo8jW7462IlW9OZqFDHmGqrdGs5Ah5331xmgWMuScr94WzUKGnO8WTdFsdJjimE5jFh3RbHSYQpnOYRbt0Gx0mKKZTmAWvdBs1kGmeKazl0UjNBsdpnimU1f1LmgrMhZN0Gx0yNNj0QLNRoec7hYN0Gx0yOlu0f7MRoec7jbNz6yEuCKazmA2nc+shLiCmk5iNm3PrIS44prOYzY9z6xWRq7IplOZTcMzKyGuyKazGbqdodsZup09I0S3M7Wh2xm6naHbWcmGbmfodmZ0VOh2tuJv8H50O3u6odvZ41bDj6u+saYAwAEOcIADHOAABzjAAQ5wgLP1ON9YrwDQgAY0oAENaEADGtCABjSg2R6av0yPAuAABzjAAQ5wgAMc4AAHOMCp7oduZ4sN3c6W3c4G29Ht7GALup0dbLDbWbfP1O7MQqjHJbTHJdTnEhpwCe1zCR1wCR1yCf3pbnsbJbbYdtiC22GLboctvB22+HbYAtxhi3CHLcQdthh32WLc5Vu/2WLcZYtx1yzGTbqgPdWyaYNWXYc+SzaN0Krr0KuATSu06jr0CmDTDK26Dj37rdqhWQhxRXRJerPqiGYhxBXUJbnNqimahRBXXJckNqu+aBYrI1dkl2Q1q9ZoFkJckV2S0my6oz3VsWqPZiFEnyKrBmkWQvTkt2qRZiFET36rJmkWQvTkt2uTZqPEFtslmc2uU5qNElt4lyQ3u2ZpNkpsEV6S3+z6pdmslWwxXpLi7Fqm2SixxXhJlkPXNHRNQ9e0Z4TomqY2dE1D1zR0TSvZ0DUNXdOMjgpd01b8Dd6PrmlPN3RNe9xq+JHWN9ZcADjAAQ5wgAMc4AAHOMABDnC2Hucb6zkAGtCABjSgAQ1oQAMa0IAGNNtD85fpdQAc4AAHOMABDnCAAxzgAAc41f3QNW2xoWvasmva/nZ0TTvcgq5phxvrmjYo7gmt2uGGS6jHJbTHJdTnEhpwCe1zCR1wCR1yCa3cfG+nxBbbDltwO2zR7bCFt8MW3w5bgDtsEe6whbjDFuMuW4y7fOs3W4y7bDHumsW4fte0Va3qXdNsdOizVL1rmo0OvQpU75pmo0OvANW7ptno0LPfomualRBXRJekN4uuaVZCXEFdktssuqZZCXHFdUlis+iaZrUyckV2SVaz6JpmJcQV2SUprXrXtFUdi65pVkL0KbLommYlRE9+i65pVkL05LfommYlRE9+m65pdkpssV2S2Wy6ptkpsYV3SXKz6Zpmp8QW4SX5zaZrmt1ayRbjJSnOpmuanRJbjJdkOXRNQ9c0dE17RoiuaWpD1zR0TUPXtJINXdPQNc3oqNA1bcXf4P3omvZ0Q9e0x62GH2l9Y80FgAMc4AAHOMABDnCAAxzgAGfrcb6xngOgAQ1oQAMa0IAGNKABDWhAsz00f5leB8ABDnCAAxzgAAc4wAEOcIBT3Q9d0xYbuqYtu6YdbEXXtL3ut981LWfcVNe0bsdlaZpmo9Nj0tlj0ukz6QyYdPaZdA6YdA6ZdFbuubcS4opohyukHa6YdriC2uGKaocrrB2uuHa4AtvhimyXK7JdtrWaK7Jdrsh2jSJbvzvailT15mgWMuQZqt4azUKGnPfVG6NZyJBzvnpbNAsZcr5bNEWz0WGKYzqNWXREs9FhCmU6h1m0Q7PRYYpmOoFZ9EKzWQeZ4pnOXhaN0Gx0mOKZTl3Vu6CtyFg0QbPRIU+PRQs0Gx1yuls0QLPRIae7RfszGx1yuts0P7MS4opoOoPZdD6zEuIKajqJ2bQ9sxLiims6j9n0PLNaGbkim05lNg3PrIS4IpvOZuh2hm5n6Hb2jBDdztSGbmfodoZuZyUbup2h25nRUaHb2Yq/wfvR7ezphm5nj1sNP676xpoCAAc4wAEOcIADHOAABzjAAc7W43xjvQJAAxrQgAY0oAENaEADGtCAZnto/jI9CoADHOAABzjAAQ5wgAMc4ACnuh+6nS02dDtbdjs73I5uZ84WdDtzNtbtzNnrdrpPNmePpfkZo2yvHtm9emT79cgO6pHdr0f2oB7Zw3pkV+7159StaZ45NU00p6aZ5tQ01Zya5ppT02RzapptTk3Tzalpvrk1zTe3rrxW03xza5pvrs180+8qV6Zcvckcn6ru2a3ego5PVXclq96gjk9VdxWr3r6OT1V3BbNobscoW8/s0i4XLDrhMcrWM8G0awWLtnmMsvXMMe1CwaLHHmNWqGeWaVcJFg35GGXrmWXaJUL17n1lqhbN/BhldU+tRas/RlndBcyiESCjrO4CZtEmkFFWdwGzaSLIqVvTPNOuFGw6DnLq1jTVtIsFm/aEnLo1zTbtesGmlyFnnqhpvmmXDDaNDzl1a5pv2lUDuiSiSyK6JD4jRJdEtaFLIrokoktiyYYuieiSaHRU6JK44m/wfnRJfLqhS+LjVsOPMr+xZiLAAQ5wgAMc4AAHOMABDnCAs/U431iPEdCABjSgAQ1oQAMa0IAGNKDZHpq/TG8T4AAHOMABDnCAAxzgAAc4wKnu9xW6JH6QtxOZeNk0kaJ5toOmid9W00SZ3AVDKf7lqcj7OY4nQl0w9Tvnve7ZdjRQdLeggaK7uQaK6u9VOzUx6fSYdPaYdPpMOgMmnX0mnQMmnUMmndUGAzZCXBHtcIW0wxXTDldQO1xR7XCFtcMV1w5XYDtcke1yRbbLtlZzRbbLFdmuUWQbNPZ7KmXRya+6DHmGLHr1VZch571FN77qMuSct+i3V12GnO82HfUsdJjimE5jNk3yLHSYQpnOYTZ97yx0mKKZTmA2rews1kGmeKazl013OgsdpnimU5dFw7mnMjYd5ix0yNNj00POQoec7jZd4ix0yOlu0wfOQoec7lad3myEuCKazmBWzdtshLiCmk5iVv3YbIS44prOY1Yt1mxWRq7IplOZVdc0GyGuyKaz2TOh35IgToJsJhzRFs3zabSjWlIN2v/nRe2u0y7+/kYO2z2HSnPdlX/ovXq1t3d4yGDh1m/Rq99ir36Lfv0Wg/ot9uu3OKjf4rB+i5XMXpfHBua3s4EJ7mxghjsbmOLOBua4s4FJ7mxgljsbmObOBua5u4F57m4ij29gnrsbmOdutXnuFh5eRnl09cqqXs91DwYMFvTVYLOgLwabBX0t2CzoJZfNgl5x2SzoBZfNgl5v2Szo5ZbNouSbaz4P+qs/Pg/6W0E+D/oLQz6PDUzxkrKKz2MDk7ykrOLz2MA0Lymr+PIfXVbxeWwij28gkZeUVXwe1eZ5T3mcJQHh4R7qlVWOs7/f6zFY0FeDzYK+GGwW9LVgs6CXXDYLesVls6AXXDYLer1ls6B/G8VmUVJW8XnQZRWfB11W8XnQZRWfB/0TLT4P+neJfB70Txb5POhfM/J50D905PPYwDwvKav4PDaRxzeQyEvKKj6Paql8T3l8GE8pjwO9suow3/qvGSzoq8FmQV8MNgv6WrBZ0GUVmwVdVrFZ0GUVmwVdVrFZ0Mstm0VJWcXnQZdVfB50WcXnQZdVfB50WcXnQZdVfB50WcXnQZdVfB50WcXnsYF5XlJW8XlsIo9vIJGXlFV8HtVSeV95/Ev6lMe+Xln15s3Jyf4+gwV9Ndgs6IvBZkFfCzYLuqxis6DLKjYLuqxis6DLKjYLerllsygpq/g86LKKz4Muq/g86LKKz4Muq/g86LKKz4Muq/g86LKKz4Muq/g8NjDPS8oqPo9N5PENJPKSsorPo1oqHxSl21RSHgO9surkZDBgsaCvBpsFfTHYLOhrwWZBl1VsFnRZxWZBl1VsFnRZxWZBL7dsFiVlFZ8HXVbxedBlFZ8HXVbxedBlFZ8HXVbxedBlFZ8HXVbxedBlFZ/HBuZ5SVnF57GJPL6BRF5SVvF5VEvl+8rjl5j6Wbzb1yurDg5ct99nsKCvBpsFfTHYLOhrwWZBl1VsFnRZxWZBl1VsFnRZxWZR1neKyaK02RqXR1m3Ki6PskZWXB5lPa64PMraX3F5lPV84/IoawfH5VHWKY7Lo6yJHJfHBuZ5SVnF57GJPL6BRF5SVvF5rE/lH3U6vC56MotjEcn7ZQPZom9sM70btYoOsGtbxS4bO6cyex1PIz9t9rst4Tj9luipv7l9vXazDznGY1Nq3z/xMjmKk9mrhyCdt0V+PH6N7tG5wLvEl8n7qepSrL2j4pitcvwivXSayDmGarS8OO81t+fGMIYxjGEMYxjDGMYwhjGMYQxjGMMYxjCGMYxhDGMYwxjGMIYxjGEMYxjDGMYwhjGMYQxjGMMYxjCGMYxhDGMYwxjGMIYxjGEMYxjDGMbw/9TwrBPfySQJfPmLp26sdTpdy/tV1a2x6eqtsecyCWS6uL220VreQDwJ46wTBpFce4ts+qX7dNffWZt2ikfPT+LQy4I4yqEaaSYn7St5HSeyoXfn889yJCN/9YDmrzUH3ZboqTuXu+pGZvVHI5TXmQJbI72U7VyOZHYaZer85BbX02hYkDZ3xB9rJJaE8nHvi7X3cqstuBbNbByknbS4KnpGanuyUyc/f6fecNz8L7Cp2hJf3Tqesy90LydxGijBN/nLOkez3JTMF6iS+N4MaYkVRL5U86HttAz3Xm43VXe8DmSo4q25OKfzeTJK4ulE+uL778XfFq8/dC7HXrq4/11NsJ2no7MvjuYnpOONRmfKoxPKaJSNxUvhin+KxqswbIij1XekYTCUzbazc9H9uLN2vj07kjgRzZv8ULo/iJvcZhGqC1/12t/zFcf8AqlNhfFC7+LmY+eTnInj4+P5yaumWKguLvuN6aEut6tEep+q7PzZcB/T96vztTi6YxXWKhgWkVI0cuhcemkajCLpn6gWEelFcSY/VjuVyws9mabjZtVrkV/So/n1rD6TwvBI5yg76p1VXdIsiT9JPZ/5e6s6xRNvGGQzPavFmysfVWGxtKqqslxIVpeVKtPDePFR23I6ry48oi0cUzWT6abP+rlVZFWt939eV1OobXdX/Pb7B/Hvd7+/F+fv3n/46dcfxc/vfvzpRLw9fX+qJ3CWr9rywVMlmshikcZJJqLpbR4HQ1G0NEmFlw7z4iWIRhqKy3OvdJ5kZq8lrvQXl0Rm0yQSEy9J5VkYe1nTU0v+Tn4pn7x2VbymdTLXl2hPbBeHsE74c72dXh7rz2K6F5O9+cKX1940zMQkifM1TL5oiRffHRycnJyevqi58QxwgAMc4AAHOMABDnCAAxzg/G/iiHR6m/8TWPhSvSh8b6aIEumDBjSgAQ1oQAMa0IAGNKABDWjKae6Ln2b9ieYqnErgAAc4wAEOcIADHOAABzjAAU4VnMfnBjrquYHnU+q5gT2n+Ibt1au9vcNDkIIUpCAFKUhBClKQghSkIAUpSEG6HaRuQeplFGm3IO31XPdgAFKQghSkIAUpSEEKUpCCFKQgBSlIt4O0p0jPkoAgdQ8LUsfZ3+/1QApSkIIUpCAFKUhBClKQghSkIAXpdpDuKdIP4ylFelCQHuZb/zVIQQpSkIIUpCAFKUhBClKQghSkIN0O0r4i/Zf0KdL9gvTNm5OT/X2QghSkIAUpSEEKUpCCFKQgBSlIQbodpIPik4mppEgHBenJyWAAUpCCFKQgBSlIQQpSkIIUpCAFKUi3hXRfkf4SU50F3X5BenDguv0+SEEKUpCCFKQgBSlIQQpSkIIUpCDdGOkSxU+8++ZasYdOFmShPB97E9nJ5EPWfPE2nibpeozZ8z3fBLcySoM4CmVaKKyR2N0Vr3xfeKJQEvdBNhZpfCuF31uzZ3o36niTiYz8ZkN5N3bW7LDcOl6WJc3GQ6MlBl3DnWb5Tq7+Tmk2C+Ucr+1Fw3Gc5Ps3QnltQLvQuI6jrH0vg9E4UxpXcejra8yvzfmk/dobfro8n3hDKc5naXtPnIVJ2xHnw3H7VLz9LRzeZu0oTvKL8J9fxa+nJ6/V2zJ5K/bEb+f/Ee+GQ/XeFztll/XlbjpMgkn2D/I9L3f94O7Lw+Q+tFiuJQL/uDFUMX+SnyYviGRyuddriOLcHTf8IJ2E3uwoiMJ8qH0VxsNPPzRovlx0fggim03y/dXp273x7rz5q6V7qu3OS1R4imPhB7eTUHYieX9+N2o2vnvO2BJ73W7xx9rppmR9L/Ny3Ys/GqF3JcPGUcOX1940zMQkia+DUDZa85HLh8aR0+m2GndeOJWLvw/VqpTvky80Jyenp43PLS0dl0mnx6Szx6TTZ9IZMOnsM+kcMOkcMuk4XS4hroh2uELa4YpphyuoHa6odrjC2uGKa4crsB2uyHa5IttlW6u5ItvlimzXKLJFOr29XXlMtVZGS6RvIEOeIzMZ8gyZyZDnx0yGnPdmMuSsN5Mh57yZDDnjzWTI+W4mQycyQx2mOKbTmKEOUyTTScxQhymW6RRmqMMUzXQCM9Rhimc6fRnqcK3LTPFM5y5DHf14vg+izDxtXamX9HXI02OoQ54eQx3y9BjqkNPdUIec7oY65HQ31CGnu6EOOd0Ndej8ZSrEFdF0BjMV4oppOoeZCnFFNZ3FTIW44prOY6ZCXJFNZzJTIba1miuy6WRmKqQf2Y/fW6x9rjCV5ror/9CbP3iYwcKt36JXv8Ve/Rb9+i0G9Vvs129xUL/FYf0WK5m9Lo8NzO+SD2b5POhPtvg86A+9+DzoT3r5POgPgfk86M+H+Tzoj475POhPlfny3wbmubuJPL6BRO5uIJO71VL52sc36pVV8+c7MljQV4PNgr4YbBb0tWCzoMsqNgu6rGKzoMsqNgu6rGKzoMsqNouSb675POiv/vg86LKKz4Muq/g86LKKz4Muq/g86LKKz4Muq/g86LKKz4Muq/jy3wbmeclX/HweG0jkJWUVn0e1VL72KVl6ZdX8MVoMFvTVYLOgLwabBX0t2CzosorNgi6r2CzosorNgi6r2CzosorNoqSs4vOgl1s+D7qs4vOgyyo+D7qs4vOgyyo+D7qs4vOgyyo+D7qs4vOgyyq+/LeBeV5SVvF5bCCRl5RVfB7VUvnah5HolVXzp5UwWNBXg82CvhhsFvS1YLOgyyo2C7qsYrOgyyo2C7qsYrOgyyo2i5Kyis+DXm75POiyis+DLqv4POiyis+DLqv4POiyis+DLqv4POiyis+DLqv48t8G5nlJWcXnsYFEXlJW8XlUS+Vre77rlVXzpvAMFvTVYLOgLwabBX0t2CzosorNgi6r2CzosorNgi6r2CzosorNoqSs4vOgl1s+D7qs4vOgyyo+D7qs4vOgyyo+D7qs4vOgyyo+D7qs4vOgyyq+/LeBeV5SVvF5bCCRl5RVfB7VUvna1rp6ZdW89y6DBX012Czoi8FmQV8LNgu6rGKzoMsqNgu6rGKzoMsqNgu6rGKzKCmr+Dzo5ZbPgy6r+DzosorPgy6r+DzosorPgy6r+DzosorPgy6r+Dzosoov/21gnpeUVXweG0jkJWUVn0e1VL62g6FeWTVvcchgQV8NNgv6YrBZ0NeCzYIuq9gs6LKKzYIuq9gs6LKKzYIuq9gsSputcXnQyy2fR1kjKy6Psh5XXB5l7a+4PMp6vnF5lLWD4/Io6xTH5VHWRI7Lo6y/HFf+28A8L+1Kx+WxgUReUlbxeaxP5R91OrwumjeLYxHJ+2UD2aJvbDO9G7WKDrBrW8UuO0CnMnsdTyM/bfa7LeE4/Zboqb+5fb12sw85xmNja98/8TI5ipPZq4cgnXdQfjx+jTbTucC7xJfJ+6lqaKy9o+KYrXL8Ir10msg5hurJvDjvNbf4xjCGMYxhDGMYwxjGMIYxjGEMYxjDGMYwhjGMYQxjGMMYxjCGMYxhDGMYwxjGMIYxjGEMYxjDGMYwhjGMYQxjGMMYxjCGMYxhDGMYwxjG8P/U8KwT38kkCXz5i6durHU6Xcv7VdWtsenqrbHnMglkuri9ttFa3kA8CeOsEwaRXHuLbPql+3TX31mbdopHz0/i0MuCOMqhGmkmJ+0reR0nsqF35/PPciQjf/WA5q81B92W6Kk7l7vqRmb1RyOU15kCWyO9lO1cjmR2GmXq/OQW19NoWJA2d8QfaySWhPJx74u193KrLbgWzWwcpJ20uCp6Rmp7slMnP3+n3nDc/C+wqdoSX906nrMvdC8ncRoowTf5yzpHs9yUzBeokvjeDGmJFUS+VPOh7bQM915uN1V3vA5kqOKtuTin83kySuLpRPri++/F3xavP3Qux166uP9dTbCdp6OzL47mJ6TjjUZnyqMTymiUjcVL4Yp/isarMGyIo9V3pGEwlM22s3PR/bizdr49O5I4Ec2b/FC6P4ib3GYRqgtf9drf8xXH/AKpTYXxQu/i5mPnk5yJ4+Pj+cmrplioLi77jemhLrerRHqfquz82XAf0/er87U4umMV1ioYFpFSNHLoXHppGowi6Z+oFhHpRXEmP1Y7lcsLPZmm42bVa5Ff0qP59aw+k8LwSOcoO+qdVV3SLIk/ST2f+XurOsUTbxhkMz2rxZsrH1VhsbSqqrJcSFaXlSrTw3jxUdtyOq8uPKItHFM1k+mmz/q5VWRVrfd/XldTqG13V/z2+wfx73e/vxfn795/+OnXH8XP73786US8PX1/qidwlq/a8sFTJZrIYpHGSSai6W0eB0NRtDRJhZcO8+IliEYaistzr3SeZGavJa70F5dEZtMkEhMvSeVZGHtZ01NL/k5+KZ+8dlW8pnUy15doT2wXh7BO+HO9nV4e689iuheTvfnCl9feNMzEJInzNUy+aIkX3x0cnJycnr6oufEMcIADHOAABzjAAQ5wgAMc4Pxv4oh0epv/E1j4Ur0ofG+miBLpgwY0oAENaEADGtCABjSgAQ1oymnui59m/YnmKpxK4AAHOMABDnCAAxzgAAc4wAFOFZzH5wY66rmB51PquYE9p/iG7dWrvb3DQ5CCFKQgBSlIQQpSkIIUpCAFKUhBuh2kbkHqZRRptyDt9Vz3YABSkIIUpCAFKUhBClKQghSkIAUpSLeDtKdIz5KAIHUPC1LH2d/v9UAKUpCCFKQgBSlIQQpSkIIUpCAF6XaQ7inSD+MpRXpQkB7mW/81SEEKUpCCFKQgBSlIQQpSkIIUpCDdDtK+Iv2X9CnS/YL0zZuTk/19kIIUpCAFKUhBClKQghSkIAUpSEG6HaSD4pOJqaRIBwXpyclgAFKQghSkIAUpSEEKUpCCFKQgBSlIt4V0X5H+ElOdBd1+QXpw4Lr9PkhBClKQghSkIAUpSEEKUpCCFKQg3RjpEsVPvPvmWrGHThZkoTwfexPZyeRD1nzxNp4m6XqM2fM93wS3MkqDOAplWiiskdjdFa98X3iiUBL3QTYWaXwrhd9bs2d6N+p4k4mM/GZDeTd21uyw3DpeliXNxkOjJQZdw51m+U6u/k5pNgvlHK/tRcNxnOT7N0J5bUC70LiOo6x9L4PROFMaV3Ho62vMr835pH0SJ/Lyvcy8IBTns7TdE2dh0nbE+XDcPhFvfwuHt1lbemkm/vOr+PX05LV6VyZvRU/8dv4f8W44VG99sVN2WV/upsMkmGT/IN/zctcP7r48TO5Di+VaIvCPG0MV8yf5afKCSCaXe3sNUZy744YfpJPQmx0FUZgPta/CePjphwbNl4vOD0Fks0m+vzp9uzfenTd/tXRPtd15iQpPcSz84HYSyk4k78/vRs3Gd88ZW2Kv2y3+WDvdlKzvZV6ue/FHI/SuZNg4avjy2puGmZgk8XUQykZrPnL50DhyOt1W484Lp3Lx96FalfJ98oXm5OT0tPG5paXjMun0mHT2mHT6TDoDJp19Jp0DJp1DJh2nyyXEFdEOV0g7XDHtcAW1wxXVDldYO1xx7XAFtsMV2S5XZLtsazVXZLtcke0aRbZIp7e3K4+p1spoifQNZMhzZCZDniEzGfL8mMmQ895Mhpz1ZjLknDeTIWe8mQw5381k6ERmqMMUx3QaM9RhimQ6iRnqMMUyncIMdZiimU5ghjpM8UynL0MdrnWZKZ7p3GWoox/P90GUmaetK/WSvg55egx1yNNjqEOeHkMdcrob6pDT3VCHnO6GOuR0N9Qhp7uhDp2/TIW4IprOYKZCXDFN5zBTIa6oprOYqRBXXNN5zFSIK7LpTGYqxLZWc0U2ncxMhfQj+/F7i7XPFabSXHflH3rzBw8zWLj1W/Tqt9ir36Jfv8Wgfov9+i0O6rc4rN9iJbPX5bGB+V3ywSyfB/3JFp8H/aEXnwf9SS+fB/0hMJ8H/fkwnwf90TGfB/2pMl/+28A8dzeRxzeQyN0NZHK3Wipf+/hGvbJq/nxHBgv6arBZ0BeDzYK+FmwWdFnFZkGXVWwWdFnFZkGXVWwWdFnFZlHyzTWfB/3VH58HXVbxedBlFZ8HXVbxedBlFZ8HXVbxedBlFZ8HXVbxedBlFV/+28A8L/mKn89jA4m8pKzi86iWytc+JUuvrJo/RovBgr4abBb0xWCzoK8FmwVdVrFZ0GUVmwVdVrFZ0GUVmwVdVrFZlJRVfB70csvnQZdVfB50WcXnQZdVfB50WcXnQZdVfB50WcXnQZdVfB50WcWX/zYwz0vKKj6PDSTykrKKz6NaKl/7MBK9smr+tBIGC/pqsFnQF4PNgr4WbBZ0WcVmQZdVbBZ0WcVmQZdVbBZ0WcVmUVJW8XnQyy2fB11W8XnQZRWfB11W8XnQZRWfB11W8XnQZRWfB11W8XnQZRVf/tvAPC8pq/g8NpDIS8oqPo9qqXxtz3e9smreFJ7Bgr4abBb0xWCzoK8FmwVdVrFZ0GUVmwVdVrFZ0GUVmwVdVrFZlJRVfB70csvnQZdVfB50WcXnQZdVfB50WcXnQZdVfB50WcXnQZdVfB50WcWX/zYwz0vKKj6PDSTykrKKz6NaKl/bWlevrJr33mWwoK8GmwV9Mdgs6GvBZkGXVWwWdFnFZkGXVWwWdFnFZkGXVWwWJWUVnwe93PJ50GUVnwddVvF50GUVnwddVvF50GUVnwddVvF50GUVnwddVvHlvw3M85Kyis9jA4m8pKzi86iWytd2MNQrq+YtDhks6KvBZkFfDDYL+lqwWdBlFZsFXVaxWdBlFZsFXVaxWdBlFZtFabM1Lg96ueXzKGtkxeVR1uOKy6Os/RWXR1nPNy6PsnZwXB5lneK4PMqayHF5lPWX48p/G5jnpV3puDw2kMhLyio+j/Wp/KNOh9dF82ZxLCJ5v2wgW/SNbaZ3o1bRAXZtq9hlB+hUZq/jaeSnzX63JRyn3xI99Te3r9du9iHHeGxs7fsnXiZHcTJ79RCk8w7Kj8ev0WY6F3iX+DJ5P1UNjbV3VByzVY5fpJdOEznHUD2ZF+e95hbfGMYwhjGMYQxjGMMYxjCGMYxhDGMYwxjGMIYxjGEMYxjDGMYwhjGMYQxjGMMYxjCGMYxhDGMYwxjGMIYxjGEMYxjDGMYwhjGMYQxjGMMY/p8annXiO5kkgS9/8dSNtU6na3m/qro1Nl29NfZcJoFMF7fXNlrLG4gnYZx1wiCSa2+RTb90n+76O2vTTvHo+UkcelkQRzlUI83kpH0lr+NENvTufP5ZjmTkrx7Q/LXmoNsSPXXnclfdyKz+aITyOlNga6SXsp3LkcxOo0ydn9ziehoNC9LmjvhjjcSSUD7ufbH2Xm61BdeimY2DtJMWV0XPSG1Pdurk5+/UG46b/wU2VVviq1vHc/aF7uUkTgMl+CZ/WedolpuS+QJVEt+bIS2xgsiXaj60nZbh3svtpuqO14EMVbw1F+d0Pk9GSTydSF98/7342+L1h87l2EsX97+rCbbzdHT2xdH8hHS80ehMeXRCGY2ysXgpXPFP0XgVhg1xtPqONAyGstl2di66H3fWzrdnRxInonmTH0r3B3GT2yxCdeGrXvt7vuKYXyC1qTBe6F3cfOx8kjNxfHw8P3nVFAvVxWW/MT3U5XaVSO9TlZ0/G+5j+n51vhZHd6zCWgXDIlKKRg6dSy9Ng1Ek/RPVIiK9KM7kx2qncnmhJ9N03Kx6LfJLejS/ntVnUhge6RxlR72zqkuaJfEnqeczf29Vp3jiDYNspme1eHPloyosllZVVZYLyeqyUmV6GC8+altO59WFR7SFY6pmMt30WT+3iqyq9f7P62oKte3uit9+/yD+/e739+L83fsPP/36o/j53Y8/nYi3p+9P9QTO8lVbPniqRBNZLNI4yUQ0vc3jYCiKliap8NJhXrwE0UhDcXnulc6TzOy1xJX+4pLIbJpEYuIlqTwLYy9remrJ38kv5ZPXrorXtE7m+hLtie3iENYJf66308tj/VlM92KyN1/48tqbhpmYJHG+hskXLfHiu4ODk5PT0xc1N54BDnCAAxzgAAc4wAEOcIADnP9NHJFOb/N/AgtfqheF780UUSJ90IAGNKABDWhAAxrQgAY0oAFNOc198dOsP9FchVMJHOAABzjAAQ5wgAMc4AAHOMCpgvP43EBHPTfwfEo9N7DnFN+wvXq1t3d4CFKQghSkIAUpSEEKUpCCFKQgBSlIt4PULUi9jCLtFqS9nuseDEAKUpCCFKQgBSlIQQpSkIIUpCAF6XaQ9hTpWRIQpO5hQeo4+/u9HkhBClKQghSkIAUpSEEKUpCCFKQg3Q7SPUX6YTylSA8K0sN8678GKUhBClKQghSkIAUpSEEKUpCCFKTbQdpXpP+SPkW6X5C+eXNysr8PUpCCFKQgBSlIQQpSkIIUpCAFKUi3g3RQfDIxlRTpoCA9ORkMQApSkIIUpCAFKUhBClKQghSkIAXptpDuK9JfYqqzoNsvSA8OXLffBylIQQpSkIIUpCAFKUhBClKQghSkGyNdoviJd99cK/bQyYIslOdjbyI7mXzImi/extMkXY8xe77nm+BWRmkQR6FMC4U1Eru74pXvC08USuI+yMYijW+l8Htr9kzvRh1vMpGR32wo78bOmh2WW8fLsqTZeGi0xKBruNMs38nV3ynNZqGc47W9aDiOk3z/RiivDWgXGtdxlLXvZTAaZ0rjKg59fY35tTmftM+SXObyvcy8IBTns7TdE2dh0nbE+XDcPhFvfwuHt1k7jaf5ZfjPr+LX05PX6m2ZvBU98dv5f8S74VC998VO2YV9uZsOk2CS/YN8z8tdP7j78jC5Dy2Wa4nAP24MVdSf5EfoBZFMLvf6DVGcveOGH6ST0JsdBVGYD7Wvwnj46YcGzZeLzg9BZLNJvr86gbs33p03f7V0T7XdeYkKUHEs/OB2EspOJO/P70bNxnfPGVtir9st/lg74ZSs72VernvxRyP0rmTYOGr48tqbhpmYJPF1EMpGaz5y+dA4cjrdVuPOC6dy8fehWpfyffKl5uTk9LTxuaWl4zLp9Jh09ph0+kw6AyadfSadAyadQyYdp8slxBXRDldIO1wx7XAFtcMV1Q5XWDtcce1wBbbDFdkuV2S7bGs1V2S7XJHtGkW2SKe3tysPqtbKaIn0DWTIc2QmQ54hMxny/JjJkPPeTIac9WYy5Jw3kyFnvJkMOd/NZOhEZqjDFMd0GjPUYYpkOokZ6jDFMp3CDHWYoplOYIY6TPFMpy9DHa51mSme6dxlqKMfz/dBlJmnrSv1kr4OeXoMdcjTY6hDnh5DHXK6G+qQ091Qh5zuhjrkdDfUIae7oQ6dv0yFuCKazmCmQlwxTecwUyGuqKazmKkQV1zTecxUiCuy6UxmKsS2VnNFNp3MTIX0I/vxm4u1Txam0lx35R9680cPM1i49Vv06rfYq9+iX7/FoH6L/fotDuq3OKzfYiWz1+Wxgfld8sEsnwf9yRafB/2hF58H/Ukvnwf9ITCfB/35MJ8H/dExnwf9qTJf/tvAPHc3kcc3kMjdDWRyt1oqX/sAR72yav6ERwYL+mqwWdAXg82CvhZsFnRZxWZBl1VsFnRZxWZBl1VsFnRZxWZR8s01nwf91R+fB11W8XnQZRWfB11W8XnQZRWfB11W8XnQZRWfB11W8XnQZRVf/tvAPC/5ip/PYwOJvKSs4vOolsrXPidLr6yaP0iLwYK+GmwW9MVgs6CvBZsFXVaxWdBlFZsFXVaxWdBlFZsFXVaxWZSUVXwe9HLL50GXVXwedFnF50GXVXwedFnF50GXVXwedFnF50GXVXwedFnFl/82MM9Lyio+jw0k8pKyis+jWipf+zgSvbJq/rwSBgv6arBZ0BeDzYK+FmwWdFnFZkGXVWwWdFnFZkGXVWwWdFnFZlFSVvF50MstnwddVvF50GUVnwddVvF50GUVnwddVvF50GUVnwddVvF50GUVX/7bwDwvKav4PDaQyEvKKj6Paql8bdd3vbJq3haewYK+GmwW9MVgs6CvBZsFXVaxWdBlFZsFXVaxWdBlFZsFXVaxWZSUVXwe9HLL50GXVXwedFnF50GXVXwedFnF50GXVXwedFnF50GXVXwedFnFl/82MM9Lyio+jw0k8pKyis+jWipf21xXr6yad99lsKCvBpsFfTHYLOhrwWZBl1VsFnRZxWZBl1VsFnRZxWZBl1VsFiVlFZ8HvdzyedBlFZ8HXVbxedBlFZ8HXVbxedBlFZ8HXVbxedBlFZ8HXVbx5b8NzPOSsorPYwOJvKSs4vOolsrX9jDUK6vmTQ4ZLOirwWZBXww2C/pasFnQZRWbBV1WsVnQZRWbBV1WsVnQZRWbRWmzNS4Pernl8yhrZMXlUdbjisujrP0Vl0dZzzcuj7J2cFweZZ3iuDzKmshxeZT1l+PKfxuY56Vd6bg8NpDIS8oqPo/1qfyjTofXRftmcSwieb9sIFv0jW2md6NW0QF2bavYZQ/oVGav42nkp81+tyUcp98SPfU3t6/XbvYhx3hsbe37J14mR3Eye/UQpPMeyo/Hr9FoOhd4l/gyeT9VLY21d1Qcs1WOX6SXThM5x1BdmRfnveYm3xjGMIYxjGEMYxjDGMYwhjGMYQxjGMMYxjCGMYxhDGMYwxjGMIYxjGEMYxjDGMYwhjGMYQxjGMMYxjCGMYxhDGMYwxjGMIYxjGEMYxjDGP6fGp514juZJIEvf/HUjbVOp2t5v6q6NTZdvTX2XCaBTBe31zZayxuIJ2GcdcIgkmtvkU2/dJ/u+jtr007x6PlJHHpZEEc5VCPN5KR9Ja/jRDb07nz+WY5k5K8e0Py15qDbEj1153JX3cis/miE8jpTYGukl7Kdy5HMTqNMnZ/c4noaDQvS5o74Y43EklA+7n2x9l5utQXXopmNg7STFldFz0htT3bq5Ofv1BuOm/8FNlVb4qtbx3P2he7lJE4DJfgmf1nnaJabkvkCVRLfmyEtsYLIl2o+tJ2W4d7L7abqjteBDFW8NRfndD5PRkk8nUhffP+9+Nvi9YfO5dhLF/e/qwm283R09sXR/IR0vNHoTHl0QhmNsrF4KVzxT9F4FYYNcbT6jjQMhrLZdnYuuh931s63Z0cSJ6J5kx9K9wdxk9ssQnXhq177e77imF8gtakwXuhd3HzsfJIzcXx8PD951RQL1cVlvzE91OV2lUjvU5WdPxvuY/p+db4WR3eswloFwyJSikYOnUsvTYNRJP0T1SIivSjO5Mdqp3J5oSfTdNysei3yS3o0v57VZ1IYHukcZUe9s6pLmiXxJ6nnM39vVad44g2DbKZntXhz5aMqLJZWVVWWC8nqslJlehgvPmpbTufVhUe0hWOqZjLd9Fk/t4qsqvX+z+tqCrXt7orffv8g/v3u9/fi/N37Dz/9+qP4+d2PP52It6fvT/UEzvJVWz54qkQTWSzSOMlENL3N42AoipYmqfDSYV68BNFIQ3F57pXOk8zstcSV/uKSyGyaRGLiJak8C2Mva3pqyd/JL+WT166K17RO5voS7Ynt4hDWCX+ut9PLY/1ZTPdisjdf+PLam4aZmCRxvobJFy3x4ruDg5OT09MXNTeeAQ5wgAMc4AAHOMABDnCAA5z/TRyRTm/zfwILX6oXhe/NFFEifdCABjSgAQ1oQAMa0IAGNKABTTnNffHTrD/RXIVTCRzgAAc4wAEOcIADHOAABzjAqYLz+NxARz038HxKPTew5xTfsL16tbd3eAhSkIIUpCAFKUhBClKQghSkIAUpSLeD1C1IvYwi7RakvZ7rHgxAClKQghSkIAUpSEEKUpCCFKQgBel2kPYU6VkSEKTuYUHqOPv7vR5IQQpSkIIUpCAFKUhBClKQghSkIN0O0j1F+mE8pUgPCtLDfOu/BilIQQpSkIIUpCAFKUhBClKQghSk20HaV6T/kj5Ful+QvnlzcrK/D1KQghSkIAUpSEEKUpCCFKQgBSlIt4N0UHwyMZUU6aAgPTkZDEAKUpCCFKQgBSlIQQpSkIIUpCAF6baQ7ivSX2Kqs6DbL0gPDly33wcpSEEKUpCCFKQgBSlIQQpSkIIUpBsjXaL4iXffXCv20MmCLJTnY28iO5l8yJov3sbTJF2PMXu+55vgVkZpEEehTAuFNRK7u+KV7wtPFEriPsjGIo1vpfB7a/ZM70YdbzKRkd9sKO/GzpodllvHy7Kk2XhotMSga7jTLN/J1d8pzWahnOO1vWg4jpN8/0Yorw1oFxrXcZS172UwGmdK4yoOfX2N+bU5n7R/i4Mou3x3fXnu5Wf7fJa2e+IsTNqOOB+O2yfi7W/h8DZrp/E0vw7/+VX8enryWr0tk7eiJ347/494Nxyq977YKbuyL3fTYRJMsn+Q73m56wd3Xx4m96HFci0R+MeNoQr7k/xMeUEkk8u9QUMUp++44QfpJPRmR0EU5kPtqzAefvqhQfPlovNDENlsku+vzuDujXfnzV8t3VNtd16iIlQcCz+4nYSyE8n787tRs/Hdc8aW2Ot2iz/Wzjgl63uZl+te/NEIvSsZNo4avrz2pmEmJkl8HYSy0ZqPXD40jpxOt9W488KpbBwNDjuHT7aDw1ZjqJapXCFfeU5OTk8bn1taqm4tqr1aVPdqUe3XojqoRXW/FtWDWlQPa1F1uvXI1jO7nHqml1PP/HLqmWBOPTPMqWeKOfXMMaeeSebUM8vcemaZW1MOq2eWufXMMtdilol0enu78uTvChVCIn0DUc1zayaqeWbNRDXPq5mo5tplJqq5cpmJaq5bZqKaq5aZqOaaZSaqWxgYqtYyp3TLAkPVWmaVblFgqFrLvNItCQxVa5lZugWBoWotc0u3HDBUrSdf1TK3dGsBQ9Wqc+s+iDLbMuBKvUFfVfO0GqpqnlZDVc3TaqiquWQZqmouWYaqmkuWoarmkmWoqrlkGarq1gOmsvXMLt2KwFS2nvmlWxOYytYzw3SrAlPZeuaYbl1gKlvPLNOtDExla8ph9cwy3eLAVNZoln3U+cJh8XWiOBaRvF9+n1F8jdFM70at4guJtd9cLL+TTGX2Op5Gftrsd1vCcfot0VN/c/t633485BiPX7X6/omXyVGczF49BOn8O73HU6HxxWcu8C7xZfJ+qr5i095RccxWOX6RXjpN5BxDfUu4uAS2X+UW3yOtWp3LJJDpAjd3WlyQSRhnHfXl1lrL9EvHvZ407RRxN4lDLwviKIdqpJmctK/kdZzIhl4k/SxHMvJXD2j+WnOQR0FPRYL6MsxRfyy+KV37JfJStnM5ktlplKnzk1tcT6NhQdrcEX9ofFWqCOXj3hdr54bagmvRzMZBmse12k/PSG1Pdurk5+/UG46b/wU2VVviL74bXOheTuI0UIJv8pd1jma5KZkvUCXxvRnSEiuIfKkmbttpGe693G6q7ngdyFDFW3NxTufzZJTE04n0xfffi78tXn/oXI69dLGeqAm283R09sXR/IR0vNHoTHl0QhmNsrF4KVzxT9F4FYYNcbT6jjQMhrLZdnYuuh931s63Z0cSJ6J5kx9K9wdxk9ssQnXhq177+7FwzC+Q2lQYL/Qubj52Psl8eTs+np+8aoqF6uKy35ge6nK7SqT3qcrOnw33MX2/Ol+LoztWYa2CYREpRWLsXM5/BiT94odA6UVxJj9WO5XLCz2ZpuNm1WuRX9Kj+fWsPpPC8EjnKDvqnVVd0iyJP0k9n/l7qzrFE28YZDM9q8WbKx9VYbG0qqqyXEhWl5Uq08N48VHbcjqvLjyiLRxTNZPpps/6uVVkVa33f15XU6htd1f89vsH8e93v78X5+/ef/jp1x/Fz+9+/OlEvD19f6oncJav2vLBUyWayGKRxnkhHU1v8zgYiqJETIWXDvPiJYhGGorLc690nmRmryWu9BeXRGbTJBITL0nlWRh7WdNTS/5OfimfvHZVvKZ1MteXaE9sF4ewTvjzV/i55p++gF38JlN9ofpVfj0KHOAABzjAAQ5wgAMc4AAHOFuP8/wHLoookT5oQAMa0IAGNKABDWhAAxrQgKac5tlPAhWN+okfcIADHOAABzjAAQ5wgAMc4ADnKzZJ/CBvJzLxsmkiRfNsB20Sv6k2if/yVMS9lcV/Xt1eBTLKhLpkqu+h9Kf5+W+L/e7ZdrRA3N+CFoj7G2uBWNx4WrUFE5NOj0lnj0mnz6QzYNLZZ9I5YNI5ZNJZ6S1gJcQV0Q5XSDtcMe1wBbXDFdUOV1g7XHHtcAW2wxXZLldku2xrNVdku1yR7RpFtn7LvhWp6k36LGTIM1S9EZ+FDDnvqzfbs5Ah53z1hnoWMuR8t2iaZ6PDFMd0GrNohWejwxTKdA6zaHBno8MUzXQCs2hbZ7MOMsUznb0smtHZ6DDFM526qreYW5GxaCpno0OeHovGcTY65HS3aA5no0NOd4sGcDY65HS3afJmJcQV0XQGs2ndZiXEFdR0ErNpyGYlxBXXdB6zabNmtTJyRTadymyap1kJcUU2nc3QEm0rWqJhGMMYxjCGMYxhDGMYwxjGMIYxjGEMY/hbGp514juZJIEvf/HUB1VOp4uW+E+OBC3xHze0xDfa0BIfLfENNrTE//OGlvh/3tAS33BDS3y0xP/ihpb4wAEOcIADHOAABzjAAQ5wgAOcbWgoCRrQgAY0oAENaEADGtCABjTbQ/OXaWQJHOAABzjAAQ5wgAMc4AAHONX9vkJL/DfBrYzSII5CmaZoiP9tNcSPk0/i9Po6GAYyGs4e2+BvtgH+4t1/Gnn6/8u/z//7qL74y+N/rmJ/pv47zm7Df/y//w9IB6+e"
               },
               {
                  "name" : "annual_peak_electric_demand",
                  "units" : "kW",
                  "value" : 87.711320000000015
               },
               {
                  "name" : "first_year_capital_cost",
                  "units" : "$",
                  "value" : 0
               },
               {
                  "name" : "annual_utility_cost",
                  "units" : "$",
                  "value" : 27415.879999999997
               },
               {
                  "name" : "total_lifecycle_cost",
                  "units" : "$",
                  "value" : 462227.65999999997
               }
            ],
            "step_warnings" : []
         }
      }
   ],
   "updated_at" : "20170710T185955Z",
   "weather_file" : "USA_CO_Denver.Intl.AP.725650_TMY3.epw"
}
