{
   "completed_at" : "20170710T192903Z",
   "completed_status" : "Success",
   "created_at" : "2017-07-10 19:06:35 +0000",
   "current_step" : 5,
   "description" : "",
   "eplusout_err" : "Program Version,EnergyPlus, Version 8.7.0-78a111df4a, YMD=2017.07.10 19:17,IDD_Version 8.7.0\n   ************* IDF Context for following error/warning message:\n   ************* Note -- lines truncated at 300 characters, if necessary...\n   *************      5 Building,\n   ************* indicated Name=NECB 2011-Hospital-NECB HDD Method-CAN_YT_Whitehorse.719640_CWEC.epw created: 2017-07-10 19:06:44 +0000\n   ************* Only last 1 lines before error line shown.....\n   *************      6   NECB 2011-Hospital-NECB HDD Method-CAN_YT_Whitehorse.719640_CWEC.epw created: 2017-07-10 19:06:44 +0000, !- Name\n   ** Warning ** IP: IDF line~6 Alpha Argument length exceeds maximum, will be truncated=  NECB 2011-Hospital-NECB HDD Method-CAN_YT_Whitehorse.719640_CWEC.epw created: 2017-07-10 19:06:44 +000\n   **   ~~~   ** Will be processed as Alpha=NECB 2011-HOSPITAL-NECB HDD METHOD-CAN_YT_WHITEHORSE.719640_CWEC.EPW CREATED: 2017-07-10 19:06:44 +0000\n   ************* IDF Context for following error/warning message:\n   ************* Note -- lines truncated at 300 characters, if necessary...\n   *************   5089 Schedule:Week:Daily,\n   ************* indicated Name=Schedule:Week:Daily {047a350c-0878-4a90-bd36-17b00907db11}\n   ************* Only last 10 lines before error line shown.....\n   *************   5090   Schedule:Week:Daily {047a350c-0878-4a90-bd36-17b00907db11}, !- Name\n   *************   5091   Sp-ER_Exam1_Mult4_Flr_1 Sys-3 Flr-1 Sch-H HPlcmt-south ZN NECB System 3 PSZ Occ Sch Sunday, !- Sunday Schedule:Day Name\n   *************   5092   Sp-ER_Exam1_Mult4_Flr_1 Sys-3 Flr-1 Sch-H HPlcmt-south ZN NECB System 3 PSZ Occ Sch Monday, !- Monday Schedule:Day Name\n   *************   5093   Sp-ER_Exam1_Mult4_Flr_1 Sys-3 Flr-1 Sch-H HPlcmt-south ZN NECB System 3 PSZ Occ Sch Tuesday, !- Tuesday Schedule:Day Name\n   *************   5094   Sp-ER_Exam1_Mult4_Flr_1 Sys-3 Flr-1 Sch-H HPlcmt-south ZN NECB System 3 PSZ Occ Sch Wednesday, !- Wednesday Schedule:Day Name\n   *************   5095   Sp-ER_Exam1_Mult4_Flr_1 Sys-3 Flr-1 Sch-H HPlcmt-south ZN NECB System 3 PSZ Occ Sch Thursday, !- Thursday Schedule:Day Name\n   *************   5096   Sp-ER_Exam1_Mult4_Flr_1 Sys-3 Flr-1 Sch-H HPlcmt-south ZN NECB System 3 PSZ Occ Sch Friday, !- Friday Schedule:Day Name\n   *************   5097   Sp-ER_Exam1_Mult4_Flr_1 Sys-3 Flr-1 Sch-H HPlcmt-south ZN NECB System 3 PSZ Occ Sch Saturday, !- Saturday Schedule:Day Name\n   *************   5098   Sp-ER_Exam1_Mult4_Flr_1 Sys-3 Flr-1 Sch-H HPlcmt-south ZN NECB System 3 PSZ Occ Sch Default, !- Holiday Schedule:Day Name\n   *************   5099   Sp-ER_Exam1_Mult4_Flr_1 Sys-3 Flr-1 Sch-H HPlcmt-south ZN NECB System 3 PSZ Occ Sch Summer Design Day, !- SummerDesignDay Schedule:Day Name\n   ** Warning ** IP: IDF line~5099 Alpha Argument length exceeds maximum, will be truncated=  Sp-ER_Exam1_Mult4_Flr_1 Sys-3 Flr-1 Sch-H HPlcmt-south ZN NECB System 3 PSZ Occ Sch Summer Design Da\n   **   ~~~   ** Will be processed as Alpha=SP-ER_EXAM1_MULT4_FLR_1 SYS-3 FLR-1 SCH-H HPLCMT-SOUTH ZN NECB SYSTEM 3 PSZ OCC SCH SUMMER DESIGN DAY\n   ************* IDF Context for following error/warning message:\n   ************* Note -- lines truncated at 300 characters, if necessary...\n   *************   5089 Schedule:Week:Daily,\n   ************* indicated Name=Schedule:Week:Daily {047a350c-0878-4a90-bd36-17b00907db11}\n   ************* Only last 10 lines before error line shown.....\n   *************   5091   Sp-ER_Exam1_Mult4_Flr_1 Sys-3 Flr-1 Sch-H HPlcmt-south ZN NECB System 3 PSZ Occ Sch Sunday, !- Sunday Schedule:Day Name\n   *************   5092   Sp-ER_Exam1_Mult4_Flr_1 Sys-3 Flr-1 Sch-H HPlcmt-south ZN NECB System 3 PSZ Occ Sch Monday, !- Monday Schedule:Day Name\n   *************   5093   Sp-ER_Exam1_Mult4_Flr_1 Sys-3 Flr-1 Sch-H HPlcmt-south ZN NECB System 3 PSZ Occ Sch Tuesday, !- Tuesday Schedule:Day Name\n   *************   5094   Sp-ER_Exam1_Mult4_Flr_1 Sys-3 Flr-1 Sch-H HPlcmt-south ZN NECB System 3 PSZ Occ Sch Wednesday, !- Wednesday Schedule:Day Name\n   *************   5095   Sp-ER_Exam1_Mult4_Flr_1 Sys-3 Flr-1 Sch-H HPlcmt-south ZN NECB System 3 PSZ Occ Sch Thursday, !- Thursday Schedule:Day Name\n   *************   5096   Sp-ER_Exam1_Mult4_Flr_1 Sys-3 Flr-1 Sch-H HPlcmt-south ZN NECB System 3 PSZ Occ Sch Friday, !- Friday Schedule:Day Name\n   *************   5097   Sp-ER_Exam1_Mult4_Flr_1 Sys-3 Flr-1 Sch-H HPlcmt-south ZN NECB System 3 PSZ Occ Sch Saturday, !- Saturday Schedule:Day Name\n   *************   5098   Sp-ER_Exam1_Mult4_Flr_1 Sys-3 Flr-1 Sch-H HPlcmt-south ZN NECB System 3 PSZ Occ Sch Default, !- Holiday Schedule:Day Name\n   *************   5099   Sp-ER_Exam1_Mult4_Flr_1 Sys-3 Flr-1 Sch-H HPlcmt-south ZN NECB System 3 PSZ Occ Sch Summer Design Day, !- SummerDesignDay Schedule:Day Name\n   *************   5100   Sp-ER_Exam1_Mult4_Flr_1 Sys-3 Flr-1 Sch-H HPlcmt-south ZN NECB System 3 PSZ Occ Sch Winter Design Day, !- WinterDesignDay Schedule:Day Name\n   ** Warning ** IP: IDF line~5100 Alpha Argument length exceeds maximum, will be truncated=  Sp-ER_Exam1_Mult4_Flr_1 Sys-3 Flr-1 Sch-H HPlcmt-south ZN NECB System 3 PSZ Occ Sch Winter Design Da\n   **   ~~~   ** Will be processed as Alpha=SP-ER_EXAM1_MULT4_FLR_1 SYS-3 FLR-1 SCH-H HPLCMT-SOUTH ZN NECB SYSTEM 3 PSZ OCC SCH WINTER DESIGN DAY\n   ************* IDF Context for following error/warning message:\n   ************* Note -- lines truncated at 300 characters, if necessary...\n   *************   5120 Schedule:Day:Interval,\n   ************* indicated Name=Sp-ER_Exam1_Mult4_Flr_1 Sys-3 Flr-1 Sch-H HPlcmt-south ZN NECB System 3 PSZ Occ Sch Summer Design Day\n   ************* Only last 1 lines before error line shown.....\n   *************   5121   Sp-ER_Exam1_Mult4_Flr_1 Sys-3 Flr-1 Sch-H HPlcmt-south ZN NECB System 3 PSZ Occ Sch Summer Design Day, !- Name\n   ** Warning ** IP: IDF line~5121 Alpha Argument length exceeds maximum, will be truncated=  Sp-ER_Exam1_Mult4_Flr_1 Sys-3 Flr-1 Sch-H HPlcmt-south ZN NECB System 3 PSZ Occ Sch Summer Design Da\n   **   ~~~   ** Will be processed as Alpha=SP-ER_EXAM1_MULT4_FLR_1 SYS-3 FLR-1 SCH-H HPLCMT-SOUTH ZN NECB SYSTEM 3 PSZ OCC SCH SUMMER DESIGN DAY\n   ************* IDF Context for following error/warning message:\n   ************* Note -- lines truncated at 300 characters, if necessary...\n   *************   5127 Schedule:Day:Interval,\n   ************* indicated Name=Sp-ER_Exam1_Mult4_Flr_1 Sys-3 Flr-1 Sch-H HPlcmt-south ZN NECB System 3 PSZ Occ Sch Winter Design Day\n   ************* Only last 1 lines before error line shown.....\n   *************   5128   Sp-ER_Exam1_Mult4_Flr_1 Sys-3 Flr-1 Sch-H HPlcmt-south ZN NECB System 3 PSZ Occ Sch Winter Design Day, !- Name\n   ** Warning ** IP: IDF line~5128 Alpha Argument length exceeds maximum, will be truncated=  Sp-ER_Exam1_Mult4_Flr_1 Sys-3 Flr-1 Sch-H HPlcmt-south ZN NECB System 3 PSZ Occ Sch Winter Design Da\n   **   ~~~   ** Will be processed as Alpha=SP-ER_EXAM1_MULT4_FLR_1 SYS-3 FLR-1 SCH-H HPLCMT-SOUTH ZN NECB SYSTEM 3 PSZ OCC SCH WINTER DESIGN DAY\n   ************* IDF Context for following error/warning message:\n   ************* Note -- lines truncated at 300 characters, if necessary...\n   *************   5883 Schedule:Week:Daily,\n   ************* indicated Name=Schedule:Week:Daily {ddeab7d9-7766-41eb-9fd8-5545d361b6b1}\n   ************* Only last 10 lines before error line shown.....\n   *************   5884   Schedule:Week:Daily {ddeab7d9-7766-41eb-9fd8-5545d361b6b1}, !- Name\n   *************   5885   Sp-ER_NurseStn_Lobby_Flr_1 Sys-3 Flr-1 Sch-H HPlcmt-east ZN NECB System 3 PSZ Occ Sch Sunday, !- Sunday Schedule:Day Name\n   *************   5886   Sp-ER_NurseStn_Lobby_Flr_1 Sys-3 Flr-1 Sch-H HPlcmt-east ZN NECB System 3 PSZ Occ Sch Monday, !- Monday Schedule:Day Name\n   *************   5887   Sp-ER_NurseStn_Lobby_Flr_1 Sys-3 Flr-1 Sch-H HPlcmt-east ZN NECB System 3 PSZ Occ Sch Tuesday, !- Tuesday Schedule:Day Name\n   *************   5888   Sp-ER_NurseStn_Lobby_Flr_1 Sys-3 Flr-1 Sch-H HPlcmt-east ZN NECB System 3 PSZ Occ Sch Wednesday, !- Wednesday Schedule:Day Name\n   *************   5889   Sp-ER_NurseStn_Lobby_Flr_1 Sys-3 Flr-1 Sch-H HPlcmt-east ZN NECB System 3 PSZ Occ Sch Thursday, !- Thursday Schedule:Day Name\n   *************   5890   Sp-ER_NurseStn_Lobby_Flr_1 Sys-3 Flr-1 Sch-H HPlcmt-east ZN NECB System 3 PSZ Occ Sch Friday, !- Friday Schedule:Day Name\n   *************   5891   Sp-ER_NurseStn_Lobby_Flr_1 Sys-3 Flr-1 Sch-H HPlcmt-east ZN NECB System 3 PSZ Occ Sch Saturday, !- Saturday Schedule:Day Name\n   *************   5892   Sp-ER_NurseStn_Lobby_Flr_1 Sys-3 Flr-1 Sch-H HPlcmt-east ZN NECB System 3 PSZ Occ Sch Default, !- Holiday Schedule:Day Name\n   *************   5893   Sp-ER_NurseStn_Lobby_Flr_1 Sys-3 Flr-1 Sch-H HPlcmt-east ZN NECB System 3 PSZ Occ Sch Summer Design Day, !- SummerDesignDay Schedule:Day Name\n   ** Warning ** IP: IDF line~5893 Alpha Argument length exceeds maximum, will be truncated=  Sp-ER_NurseStn_Lobby_Flr_1 Sys-3 Flr-1 Sch-H HPlcmt-east ZN NECB System 3 PSZ Occ Sch Summer Design Da\n   **   ~~~   ** Will be processed as Alpha=SP-ER_NURSESTN_LOBBY_FLR_1 SYS-3 FLR-1 SCH-H HPLCMT-EAST ZN NECB SYSTEM 3 PSZ OCC SCH SUMMER DESIGN DAY\n   ************* IDF Context for following error/warning message:\n   ************* Note -- lines truncated at 300 characters, if necessary...\n   *************   5883 Schedule:Week:Daily,\n   ************* indicated Name=Schedule:Week:Daily {ddeab7d9-7766-41eb-9fd8-5545d361b6b1}\n   ************* Only last 10 lines before error line shown.....\n   *************   5885   Sp-ER_NurseStn_Lobby_Flr_1 Sys-3 Flr-1 Sch-H HPlcmt-east ZN NECB System 3 PSZ Occ Sch Sunday, !- Sunday Schedule:Day Name\n   *************   5886   Sp-ER_NurseStn_Lobby_Flr_1 Sys-3 Flr-1 Sch-H HPlcmt-east ZN NECB System 3 PSZ Occ Sch Monday, !- Monday Schedule:Day Name\n   *************   5887   Sp-ER_NurseStn_Lobby_Flr_1 Sys-3 Flr-1 Sch-H HPlcmt-east ZN NECB System 3 PSZ Occ Sch Tuesday, !- Tuesday Schedule:Day Name\n   *************   5888   Sp-ER_NurseStn_Lobby_Flr_1 Sys-3 Flr-1 Sch-H HPlcmt-east ZN NECB System 3 PSZ Occ Sch Wednesday, !- Wednesday Schedule:Day Name\n   *************   5889   Sp-ER_NurseStn_Lobby_Flr_1 Sys-3 Flr-1 Sch-H HPlcmt-east ZN NECB System 3 PSZ Occ Sch Thursday, !- Thursday Schedule:Day Name\n   *************   5890   Sp-ER_NurseStn_Lobby_Flr_1 Sys-3 Flr-1 Sch-H HPlcmt-east ZN NECB System 3 PSZ Occ Sch Friday, !- Friday Schedule:Day Name\n   *************   5891   Sp-ER_NurseStn_Lobby_Flr_1 Sys-3 Flr-1 Sch-H HPlcmt-east ZN NECB System 3 PSZ Occ Sch Saturday, !- Saturday Schedule:Day Name\n   *************   5892   Sp-ER_NurseStn_Lobby_Flr_1 Sys-3 Flr-1 Sch-H HPlcmt-east ZN NECB System 3 PSZ Occ Sch Default, !- Holiday Schedule:Day Name\n   *************   5893   Sp-ER_NurseStn_Lobby_Flr_1 Sys-3 Flr-1 Sch-H HPlcmt-east ZN NECB System 3 PSZ Occ Sch Summer Design Day, !- SummerDesignDay Schedule:Day Name\n   *************   5894   Sp-ER_NurseStn_Lobby_Flr_1 Sys-3 Flr-1 Sch-H HPlcmt-east ZN NECB System 3 PSZ Occ Sch Winter Design Day, !- WinterDesignDay Schedule:Day Name\n   ** Warning ** IP: IDF line~5894 Alpha Argument length exceeds maximum, will be truncated=  Sp-ER_NurseStn_Lobby_Flr_1 Sys-3 Flr-1 Sch-H HPlcmt-east ZN NECB System 3 PSZ Occ Sch Winter Design Da\n   **   ~~~   ** Will be processed as Alpha=SP-ER_NURSESTN_LOBBY_FLR_1 SYS-3 FLR-1 SCH-H HPLCMT-EAST ZN NECB SYSTEM 3 PSZ OCC SCH WINTER DESIGN DAY\n   ************* IDF Context for following error/warning message:\n   ************* Note -- lines truncated at 300 characters, if necessary...\n   *************   5914 Schedule:Day:Interval,\n   ************* indicated Name=Sp-ER_NurseStn_Lobby_Flr_1 Sys-3 Flr-1 Sch-H HPlcmt-east ZN NECB System 3 PSZ Occ Sch Summer Design Day\n   ************* Only last 1 lines before error line shown.....\n   *************   5915   Sp-ER_NurseStn_Lobby_Flr_1 Sys-3 Flr-1 Sch-H HPlcmt-east ZN NECB System 3 PSZ Occ Sch Summer Design Day, !- Name\n   ** Warning ** IP: IDF line~5915 Alpha Argument length exceeds maximum, will be truncated=  Sp-ER_NurseStn_Lobby_Flr_1 Sys-3 Flr-1 Sch-H HPlcmt-east ZN NECB System 3 PSZ Occ Sch Summer Design Da\n   **   ~~~   ** Will be processed as Alpha=SP-ER_NURSESTN_LOBBY_FLR_1 SYS-3 FLR-1 SCH-H HPLCMT-EAST ZN NECB SYSTEM 3 PSZ OCC SCH SUMMER DESIGN DAY\n   ************* IDF Context for following error/warning message:\n   ************* Note -- lines truncated at 300 characters, if necessary...\n   *************   5921 Schedule:Day:Interval,\n   ************* indicated Name=Sp-ER_NurseStn_Lobby_Flr_1 Sys-3 Flr-1 Sch-H HPlcmt-east ZN NECB System 3 PSZ Occ Sch Winter Design Day\n   ************* Only last 1 lines before error line shown.....\n   *************   5922   Sp-ER_NurseStn_Lobby_Flr_1 Sys-3 Flr-1 Sch-H HPlcmt-east ZN NECB System 3 PSZ Occ Sch Winter Design Day, !- Name\n   ** Warning ** IP: IDF line~5922 Alpha Argument length exceeds maximum, will be truncated=  Sp-ER_NurseStn_Lobby_Flr_1 Sys-3 Flr-1 Sch-H HPlcmt-east ZN NECB System 3 PSZ Occ Sch Winter Design Da\n   **   ~~~   ** Will be processed as Alpha=SP-ER_NURSESTN_LOBBY_FLR_1 SYS-3 FLR-1 SCH-H HPLCMT-EAST ZN NECB SYSTEM 3 PSZ OCC SCH WINTER DESIGN DAY\n   ************* IDF Context for following error/warning message:\n   ************* Note -- lines truncated at 300 characters, if necessary...\n   *************   6684 Schedule:Week:Daily,\n   ************* indicated Name=Schedule:Week:Daily {06a29ac8-a16d-400f-9a60-ec92cd3839af}\n   ************* Only last 10 lines before error line shown.....\n   *************   6685   Schedule:Week:Daily {06a29ac8-a16d-400f-9a60-ec92cd3839af}, !- Name\n   *************   6686   Sp-ER_Triage_Mult4_Flr_1 Sys-3 Flr-1 Sch-H HPlcmt-north ZN NECB System 3 PSZ Occ Sch Sunday, !- Sunday Schedule:Day Name\n   *************   6687   Sp-ER_Triage_Mult4_Flr_1 Sys-3 Flr-1 Sch-H HPlcmt-north ZN NECB System 3 PSZ Occ Sch Monday, !- Monday Schedule:Day Name\n   *************   6688   Sp-ER_Triage_Mult4_Flr_1 Sys-3 Flr-1 Sch-H HPlcmt-north ZN NECB System 3 PSZ Occ Sch Tuesday, !- Tuesday Schedule:Day Name\n   *************   6689   Sp-ER_Triage_Mult4_Flr_1 Sys-3 Flr-1 Sch-H HPlcmt-north ZN NECB System 3 PSZ Occ Sch Wednesday, !- Wednesday Schedule:Day Name\n   *************   6690   Sp-ER_Triage_Mult4_Flr_1 Sys-3 Flr-1 Sch-H HPlcmt-north ZN NECB System 3 PSZ Occ Sch Thursday, !- Thursday Schedule:Day Name\n   *************   6691   Sp-ER_Triage_Mult4_Flr_1 Sys-3 Flr-1 Sch-H HPlcmt-north ZN NECB System 3 PSZ Occ Sch Friday, !- Friday Schedule:Day Name\n   *************   6692   Sp-ER_Triage_Mult4_Flr_1 Sys-3 Flr-1 Sch-H HPlcmt-north ZN NECB System 3 PSZ Occ Sch Saturday, !- Saturday Schedule:Day Name\n   *************   6693   Sp-ER_Triage_Mult4_Flr_1 Sys-3 Flr-1 Sch-H HPlcmt-north ZN NECB System 3 PSZ Occ Sch Default, !- Holiday Schedule:Day Name\n   *************   6694   Sp-ER_Triage_Mult4_Flr_1 Sys-3 Flr-1 Sch-H HPlcmt-north ZN NECB System 3 PSZ Occ Sch Summer Design Day, !- SummerDesignDay Schedule:Day Name\n   ** Warning ** IP: IDF line~6694 Alpha Argument length exceeds maximum, will be truncated=  Sp-ER_Triage_Mult4_Flr_1 Sys-3 Flr-1 Sch-H HPlcmt-north ZN NECB System 3 PSZ Occ Sch Summer Design Da\n   **   ~~~   ** Will be processed as Alpha=SP-ER_TRIAGE_MULT4_FLR_1 SYS-3 FLR-1 SCH-H HPLCMT-NORTH ZN NECB SYSTEM 3 PSZ OCC SCH SUMMER DESIGN DAY\n   ************* IDF Context for following error/warning message:\n   ************* Note -- lines truncated at 300 characters, if necessary...\n   *************   6684 Schedule:Week:Daily,\n   ************* indicated Name=Schedule:Week:Daily {06a29ac8-a16d-400f-9a60-ec92cd3839af}\n   ************* Only last 10 lines before error line shown.....\n   *************   6686   Sp-ER_Triage_Mult4_Flr_1 Sys-3 Flr-1 Sch-H HPlcmt-north ZN NECB System 3 PSZ Occ Sch Sunday, !- Sunday Schedule:Day Name\n   *************   6687   Sp-ER_Triage_Mult4_Flr_1 Sys-3 Flr-1 Sch-H HPlcmt-north ZN NECB System 3 PSZ Occ Sch Monday, !- Monday Schedule:Day Name\n   *************   6688   Sp-ER_Triage_Mult4_Flr_1 Sys-3 Flr-1 Sch-H HPlcmt-north ZN NECB System 3 PSZ Occ Sch Tuesday, !- Tuesday Schedule:Day Name\n   *************   6689   Sp-ER_Triage_Mult4_Flr_1 Sys-3 Flr-1 Sch-H HPlcmt-north ZN NECB System 3 PSZ Occ Sch Wednesday, !- Wednesday Schedule:Day Name\n   *************   6690   Sp-ER_Triage_Mult4_Flr_1 Sys-3 Flr-1 Sch-H HPlcmt-north ZN NECB System 3 PSZ Occ Sch Thursday, !- Thursday Schedule:Day Name\n   *************   6691   Sp-ER_Triage_Mult4_Flr_1 Sys-3 Flr-1 Sch-H HPlcmt-north ZN NECB System 3 PSZ Occ Sch Friday, !- Friday Schedule:Day Name\n   *************   6692   Sp-ER_Triage_Mult4_Flr_1 Sys-3 Flr-1 Sch-H HPlcmt-north ZN NECB System 3 PSZ Occ Sch Saturday, !- Saturday Schedule:Day Name\n   *************   6693   Sp-ER_Triage_Mult4_Flr_1 Sys-3 Flr-1 Sch-H HPlcmt-north ZN NECB System 3 PSZ Occ Sch Default, !- Holiday Schedule:Day Name\n   *************   6694   Sp-ER_Triage_Mult4_Flr_1 Sys-3 Flr-1 Sch-H HPlcmt-north ZN NECB System 3 PSZ Occ Sch Summer Design Day, !- SummerDesignDay Schedule:Day Name\n   *************   6695   Sp-ER_Triage_Mult4_Flr_1 Sys-3 Flr-1 Sch-H HPlcmt-north ZN NECB System 3 PSZ Occ Sch Winter Design Day, !- WinterDesignDay Schedule:Day Name\n   ** Warning ** IP: IDF line~6695 Alpha Argument length exceeds maximum, will be truncated=  Sp-ER_Triage_Mult4_Flr_1 Sys-3 Flr-1 Sch-H HPlcmt-north ZN NECB System 3 PSZ Occ Sch Winter Design Da\n   **   ~~~   ** Will be processed as Alpha=SP-ER_TRIAGE_MULT4_FLR_1 SYS-3 FLR-1 SCH-H HPLCMT-NORTH ZN NECB SYSTEM 3 PSZ OCC SCH WINTER DESIGN DAY\n   ************* IDF Context for following error/warning message:\n   ************* Note -- lines truncated at 300 characters, if necessary...\n   *************   6715 Schedule:Day:Interval,\n   ************* indicated Name=Sp-ER_Triage_Mult4_Flr_1 Sys-3 Flr-1 Sch-H HPlcmt-north ZN NECB System 3 PSZ Occ Sch Summer Design Day\n   ************* Only last 1 lines before error line shown.....\n   *************   6716   Sp-ER_Triage_Mult4_Flr_1 Sys-3 Flr-1 Sch-H HPlcmt-north ZN NECB System 3 PSZ Occ Sch Summer Design Day, !- Name\n   ** Warning ** IP: IDF line~6716 Alpha Argument length exceeds maximum, will be truncated=  Sp-ER_Triage_Mult4_Flr_1 Sys-3 Flr-1 Sch-H HPlcmt-north ZN NECB System 3 PSZ Occ Sch Summer Design Da\n   **   ~~~   ** Will be processed as Alpha=SP-ER_TRIAGE_MULT4_FLR_1 SYS-3 FLR-1 SCH-H HPLCMT-NORTH ZN NECB SYSTEM 3 PSZ OCC SCH SUMMER DESIGN DAY\n   ************* IDF Context for following error/warning message:\n   ************* Note -- lines truncated at 300 characters, if necessary...\n   *************   6722 Schedule:Day:Interval,\n   ************* indicated Name=Sp-ER_Triage_Mult4_Flr_1 Sys-3 Flr-1 Sch-H HPlcmt-north ZN NECB System 3 PSZ Occ Sch Winter Design Day\n   ************* Only last 1 lines before error line shown.....\n   *************   6723   Sp-ER_Triage_Mult4_Flr_1 Sys-3 Flr-1 Sch-H HPlcmt-north ZN NECB System 3 PSZ Occ Sch Winter Design Day, !- Name\n   ** Warning ** IP: IDF line~6723 Alpha Argument length exceeds maximum, will be truncated=  Sp-ER_Triage_Mult4_Flr_1 Sys-3 Flr-1 Sch-H HPlcmt-north ZN NECB System 3 PSZ Occ Sch Winter Design Da\n   **   ~~~   ** Will be processed as Alpha=SP-ER_TRIAGE_MULT4_FLR_1 SYS-3 FLR-1 SCH-H HPLCMT-NORTH ZN NECB SYSTEM 3 PSZ OCC SCH WINTER DESIGN DAY\n   ************* IDF Context for following error/warning message:\n   ************* Note -- lines truncated at 300 characters, if necessary...\n   *************   7414 Schedule:Week:Daily,\n   ************* indicated Name=Schedule:Week:Daily {e1d099eb-0e24-4de4-a108-9babfeb63b17}\n   ************* Only last 10 lines before error line shown.....\n   *************   7415   Schedule:Week:Daily {e1d099eb-0e24-4de4-a108-9babfeb63b17}, !- Name\n   *************   7416   Sp-ICU_NurseStn_Lobby_Flr_2 Sys-3 Flr-4 Sch-H HPlcmt-core ZN NECB System 3 PSZ Occ Sch Sunday, !- Sunday Schedule:Day Name\n   *************   7417   Sp-ICU_NurseStn_Lobby_Flr_2 Sys-3 Flr-4 Sch-H HPlcmt-core ZN NECB System 3 PSZ Occ Sch Monday, !- Monday Schedule:Day Name\n   *************   7418   Sp-ICU_NurseStn_Lobby_Flr_2 Sys-3 Flr-4 Sch-H HPlcmt-core ZN NECB System 3 PSZ Occ Sch Tuesday, !- Tuesday Schedule:Day Name\n   *************   7419   Sp-ICU_NurseStn_Lobby_Flr_2 Sys-3 Flr-4 Sch-H HPlcmt-core ZN NECB System 3 PSZ Occ Sch Wednesday, !- Wednesday Schedule:Day Name\n   *************   7420   Sp-ICU_NurseStn_Lobby_Flr_2 Sys-3 Flr-4 Sch-H HPlcmt-core ZN NECB System 3 PSZ Occ Sch Thursday, !- Thursday Schedule:Day Name\n   *************   7421   Sp-ICU_NurseStn_Lobby_Flr_2 Sys-3 Flr-4 Sch-H HPlcmt-core ZN NECB System 3 PSZ Occ Sch Friday, !- Friday Schedule:Day Name\n   *************   7422   Sp-ICU_NurseStn_Lobby_Flr_2 Sys-3 Flr-4 Sch-H HPlcmt-core ZN NECB System 3 PSZ Occ Sch Saturday, !- Saturday Schedule:Day Name\n   *************   7423   Sp-ICU_NurseStn_Lobby_Flr_2 Sys-3 Flr-4 Sch-H HPlcmt-core ZN NECB System 3 PSZ Occ Sch Default, !- Holiday Schedule:Day Name\n   *************   7424   Sp-ICU_NurseStn_Lobby_Flr_2 Sys-3 Flr-4 Sch-H HPlcmt-core ZN NECB System 3 PSZ Occ Sch Summer Design Day, !- SummerDesignDay Schedule:Day Name\n   ** Warning ** IP: IDF line~7424 Alpha Argument length exceeds maximum, will be truncated=  Sp-ICU_NurseStn_Lobby_Flr_2 Sys-3 Flr-4 Sch-H HPlcmt-core ZN NECB System 3 PSZ Occ Sch Summer Design Da\n   **   ~~~   ** Will be processed as Alpha=SP-ICU_NURSESTN_LOBBY_FLR_2 SYS-3 FLR-4 SCH-H HPLCMT-CORE ZN NECB SYSTEM 3 PSZ OCC SCH SUMMER DESIGN DAY\n   ************* IDF Context for following error/warning message:\n   ************* Note -- lines truncated at 300 characters, if necessary...\n   *************   7414 Schedule:Week:Daily,\n   ************* indicated Name=Schedule:Week:Daily {e1d099eb-0e24-4de4-a108-9babfeb63b17}\n   ************* Only last 10 lines before error line shown.....\n   *************   7416   Sp-ICU_NurseStn_Lobby_Flr_2 Sys-3 Flr-4 Sch-H HPlcmt-core ZN NECB System 3 PSZ Occ Sch Sunday, !- Sunday Schedule:Day Name\n   *************   7417   Sp-ICU_NurseStn_Lobby_Flr_2 Sys-3 Flr-4 Sch-H HPlcmt-core ZN NECB System 3 PSZ Occ Sch Monday, !- Monday Schedule:Day Name\n   *************   7418   Sp-ICU_NurseStn_Lobby_Flr_2 Sys-3 Flr-4 Sch-H HPlcmt-core ZN NECB System 3 PSZ Occ Sch Tuesday, !- Tuesday Schedule:Day Name\n   *************   7419   Sp-ICU_NurseStn_Lobby_Flr_2 Sys-3 Flr-4 Sch-H HPlcmt-core ZN NECB System 3 PSZ Occ Sch Wednesday, !- Wednesday Schedule:Day Name\n   *************   7420   Sp-ICU_NurseStn_Lobby_Flr_2 Sys-3 Flr-4 Sch-H HPlcmt-core ZN NECB System 3 PSZ Occ Sch Thursday, !- Thursday Schedule:Day Name\n   *************   7421   Sp-ICU_NurseStn_Lobby_Flr_2 Sys-3 Flr-4 Sch-H HPlcmt-core ZN NECB System 3 PSZ Occ Sch Friday, !- Friday Schedule:Day Name\n   *************   7422   Sp-ICU_NurseStn_Lobby_Flr_2 Sys-3 Flr-4 Sch-H HPlcmt-core ZN NECB System 3 PSZ Occ Sch Saturday, !- Saturday Schedule:Day Name\n   *************   7423   Sp-ICU_NurseStn_Lobby_Flr_2 Sys-3 Flr-4 Sch-H HPlcmt-core ZN NECB System 3 PSZ Occ Sch Default, !- Holiday Schedule:Day Name\n   *************   7424   Sp-ICU_NurseStn_Lobby_Flr_2 Sys-3 Flr-4 Sch-H HPlcmt-core ZN NECB System 3 PSZ Occ Sch Summer Design Day, !- SummerDesignDay Schedule:Day Name\n   *************   7425   Sp-ICU_NurseStn_Lobby_Flr_2 Sys-3 Flr-4 Sch-H HPlcmt-core ZN NECB System 3 PSZ Occ Sch Winter Design Day, !- WinterDesignDay Schedule:Day Name\n   ** Warning ** IP: IDF line~7425 Alpha Argument length exceeds maximum, will be truncated=  Sp-ICU_NurseStn_Lobby_Flr_2 Sys-3 Flr-4 Sch-H HPlcmt-core ZN NECB System 3 PSZ Occ Sch Winter Design Da\n   **   ~~~   ** Will be processed as Alpha=SP-ICU_NURSESTN_LOBBY_FLR_2 SYS-3 FLR-4 SCH-H HPLCMT-CORE ZN NECB SYSTEM 3 PSZ OCC SCH WINTER DESIGN DAY\n   ************* IDF Context for following error/warning message:\n   ************* Note -- lines truncated at 300 characters, if necessary...\n   *************   7445 Schedule:Day:Interval,\n   ************* indicated Name=Sp-ICU_NurseStn_Lobby_Flr_2 Sys-3 Flr-4 Sch-H HPlcmt-core ZN NECB System 3 PSZ Occ Sch Summer Design Day\n   ************* Only last 1 lines before error line shown.....\n   *************   7446   Sp-ICU_NurseStn_Lobby_Flr_2 Sys-3 Flr-4 Sch-H HPlcmt-core ZN NECB System 3 PSZ Occ Sch Summer Design Day, !- Name\n   ** Warning ** IP: IDF line~7446 Alpha Argument length exceeds maximum, will be truncated=  Sp-ICU_NurseStn_Lobby_Flr_2 Sys-3 Flr-4 Sch-H HPlcmt-core ZN NECB System 3 PSZ Occ Sch Summer Design Da\n   **   ~~~   ** Will be processed as Alpha=SP-ICU_NURSESTN_LOBBY_FLR_2 SYS-3 FLR-4 SCH-H HPLCMT-CORE ZN NECB SYSTEM 3 PSZ OCC SCH SUMMER DESIGN DAY\n   ************* IDF Context for following error/warning message:\n   ************* Note -- lines truncated at 300 characters, if necessary...\n   *************   7452 Schedule:Day:Interval,\n   ************* indicated Name=Sp-ICU_NurseStn_Lobby_Flr_2 Sys-3 Flr-4 Sch-H HPlcmt-core ZN NECB System 3 PSZ Occ Sch Winter Design Day\n   ************* Only last 1 lines before error line shown.....\n   *************   7453   Sp-ICU_NurseStn_Lobby_Flr_2 Sys-3 Flr-4 Sch-H HPlcmt-core ZN NECB System 3 PSZ Occ Sch Winter Design Day, !- Name\n   ** Warning ** IP: IDF line~7453 Alpha Argument length exceeds maximum, will be truncated=  Sp-ICU_NurseStn_Lobby_Flr_2 Sys-3 Flr-4 Sch-H HPlcmt-core ZN NECB System 3 PSZ Occ Sch Winter Design Da\n   **   ~~~   ** Will be processed as Alpha=SP-ICU_NURSESTN_LOBBY_FLR_2 SYS-3 FLR-4 SCH-H HPLCMT-CORE ZN NECB SYSTEM 3 PSZ OCC SCH WINTER DESIGN DAY\n   ************* IDF Context for following error/warning message:\n   ************* Note -- lines truncated at 300 characters, if necessary...\n   *************   8263 Schedule:Week:Daily,\n   ************* indicated Name=Schedule:Week:Daily {70067cbe-ddb2-4ce2-aded-21771dc37f4c}\n   ************* Only last 10 lines before error line shown.....\n   *************   8264   Schedule:Week:Daily {70067cbe-ddb2-4ce2-aded-21771dc37f4c}, !- Name\n   *************   8265   Sp-IC_PatRoom3_Mult6_Flr_2 Sys-3 Flr-4 Sch-H HPlcmt-west ZN NECB System 3 PSZ Occ Sch Sunday, !- Sunday Schedule:Day Name\n   *************   8266   Sp-IC_PatRoom3_Mult6_Flr_2 Sys-3 Flr-4 Sch-H HPlcmt-west ZN NECB System 3 PSZ Occ Sch Monday, !- Monday Schedule:Day Name\n   *************   8267   Sp-IC_PatRoom3_Mult6_Flr_2 Sys-3 Flr-4 Sch-H HPlcmt-west ZN NECB System 3 PSZ Occ Sch Tuesday, !- Tuesday Schedule:Day Name\n   *************   8268   Sp-IC_PatRoom3_Mult6_Flr_2 Sys-3 Flr-4 Sch-H HPlcmt-west ZN NECB System 3 PSZ Occ Sch Wednesday, !- Wednesday Schedule:Day Name\n   *************   8269   Sp-IC_PatRoom3_Mult6_Flr_2 Sys-3 Flr-4 Sch-H HPlcmt-west ZN NECB System 3 PSZ Occ Sch Thursday, !- Thursday Schedule:Day Name\n   *************   8270   Sp-IC_PatRoom3_Mult6_Flr_2 Sys-3 Flr-4 Sch-H HPlcmt-west ZN NECB System 3 PSZ Occ Sch Friday, !- Friday Schedule:Day Name\n   *************   8271   Sp-IC_PatRoom3_Mult6_Flr_2 Sys-3 Flr-4 Sch-H HPlcmt-west ZN NECB System 3 PSZ Occ Sch Saturday, !- Saturday Schedule:Day Name\n   *************   8272   Sp-IC_PatRoom3_Mult6_Flr_2 Sys-3 Flr-4 Sch-H HPlcmt-west ZN NECB System 3 PSZ Occ Sch Default, !- Holiday Schedule:Day Name\n   *************   8273   Sp-IC_PatRoom3_Mult6_Flr_2 Sys-3 Flr-4 Sch-H HPlcmt-west ZN NECB System 3 PSZ Occ Sch Summer Design Day, !- SummerDesignDay Schedule:Day Name\n   ** Warning ** IP: IDF line~8273 Alpha Argument length exceeds maximum, will be truncated=  Sp-IC_PatRoom3_Mult6_Flr_2 Sys-3 Flr-4 Sch-H HPlcmt-west ZN NECB System 3 PSZ Occ Sch Summer Design Da\n   **   ~~~   ** Will be processed as Alpha=SP-IC_PATROOM3_MULT6_FLR_2 SYS-3 FLR-4 SCH-H HPLCMT-WEST ZN NECB SYSTEM 3 PSZ OCC SCH SUMMER DESIGN DAY\n   ************* IDF Context for following error/warning message:\n   ************* Note -- lines truncated at 300 characters, if necessary...\n   *************   8263 Schedule:Week:Daily,\n   ************* indicated Name=Schedule:Week:Daily {70067cbe-ddb2-4ce2-aded-21771dc37f4c}\n   ************* Only last 10 lines before error line shown.....\n   *************   8265   Sp-IC_PatRoom3_Mult6_Flr_2 Sys-3 Flr-4 Sch-H HPlcmt-west ZN NECB System 3 PSZ Occ Sch Sunday, !- Sunday Schedule:Day Name\n   *************   8266   Sp-IC_PatRoom3_Mult6_Flr_2 Sys-3 Flr-4 Sch-H HPlcmt-west ZN NECB System 3 PSZ Occ Sch Monday, !- Monday Schedule:Day Name\n   *************   8267   Sp-IC_PatRoom3_Mult6_Flr_2 Sys-3 Flr-4 Sch-H HPlcmt-west ZN NECB System 3 PSZ Occ Sch Tuesday, !- Tuesday Schedule:Day Name\n   *************   8268   Sp-IC_PatRoom3_Mult6_Flr_2 Sys-3 Flr-4 Sch-H HPlcmt-west ZN NECB System 3 PSZ Occ Sch Wednesday, !- Wednesday Schedule:Day Name\n   *************   8269   Sp-IC_PatRoom3_Mult6_Flr_2 Sys-3 Flr-4 Sch-H HPlcmt-west ZN NECB System 3 PSZ Occ Sch Thursday, !- Thursday Schedule:Day Name\n   *************   8270   Sp-IC_PatRoom3_Mult6_Flr_2 Sys-3 Flr-4 Sch-H HPlcmt-west ZN NECB System 3 PSZ Occ Sch Friday, !- Friday Schedule:Day Name\n   *************   8271   Sp-IC_PatRoom3_Mult6_Flr_2 Sys-3 Flr-4 Sch-H HPlcmt-west ZN NECB System 3 PSZ Occ Sch Saturday, !- Saturday Schedule:Day Name\n   *************   8272   Sp-IC_PatRoom3_Mult6_Flr_2 Sys-3 Flr-4 Sch-H HPlcmt-west ZN NECB System 3 PSZ Occ Sch Default, !- Holiday Schedule:Day Name\n   *************   8273   Sp-IC_PatRoom3_Mult6_Flr_2 Sys-3 Flr-4 Sch-H HPlcmt-west ZN NECB System 3 PSZ Occ Sch Summer Design Day, !- SummerDesignDay Schedule:Day Name\n   *************   8274   Sp-IC_PatRoom3_Mult6_Flr_2 Sys-3 Flr-4 Sch-H HPlcmt-west ZN NECB System 3 PSZ Occ Sch Winter Design Day, !- WinterDesignDay Schedule:Day Name\n   ** Warning ** IP: IDF line~8274 Alpha Argument length exceeds maximum, will be truncated=  Sp-IC_PatRoom3_Mult6_Flr_2 Sys-3 Flr-4 Sch-H HPlcmt-west ZN NECB System 3 PSZ Occ Sch Winter Design Da\n   **   ~~~   ** Will be processed as Alpha=SP-IC_PATROOM3_MULT6_FLR_2 SYS-3 FLR-4 SCH-H HPLCMT-WEST ZN NECB SYSTEM 3 PSZ OCC SCH WINTER DESIGN DAY\n   ************* IDF Context for following error/warning message:\n   ************* Note -- lines truncated at 300 characters, if necessary...\n   *************   8294 Schedule:Day:Interval,\n   ************* indicated Name=Sp-IC_PatRoom3_Mult6_Flr_2 Sys-3 Flr-4 Sch-H HPlcmt-west ZN NECB System 3 PSZ Occ Sch Summer Design Day\n   ************* Only last 1 lines before error line shown.....\n   *************   8295   Sp-IC_PatRoom3_Mult6_Flr_2 Sys-3 Flr-4 Sch-H HPlcmt-west ZN NECB System 3 PSZ Occ Sch Summer Design Day, !- Name\n   ** Warning ** IP: IDF line~8295 Alpha Argument length exceeds maximum, will be truncated=  Sp-IC_PatRoom3_Mult6_Flr_2 Sys-3 Flr-4 Sch-H HPlcmt-west ZN NECB System 3 PSZ Occ Sch Summer Design Da\n   **   ~~~   ** Will be processed as Alpha=SP-IC_PATROOM3_MULT6_FLR_2 SYS-3 FLR-4 SCH-H HPLCMT-WEST ZN NECB SYSTEM 3 PSZ OCC SCH SUMMER DESIGN DAY\n   ************* IDF Context for following error/warning message:\n   ************* Note -- lines truncated at 300 characters, if necessary...\n   *************   8301 Schedule:Day:Interval,\n   ************* indicated Name=Sp-IC_PatRoom3_Mult6_Flr_2 Sys-3 Flr-4 Sch-H HPlcmt-west ZN NECB System 3 PSZ Occ Sch Winter Design Day\n   ************* Only last 1 lines before error line shown.....\n   *************   8302   Sp-IC_PatRoom3_Mult6_Flr_2 Sys-3 Flr-4 Sch-H HPlcmt-west ZN NECB System 3 PSZ Occ Sch Winter Design Day, !- Name\n   ** Warning ** IP: IDF line~8302 Alpha Argument length exceeds maximum, will be truncated=  Sp-IC_PatRoom3_Mult6_Flr_2 Sys-3 Flr-4 Sch-H HPlcmt-west ZN NECB System 3 PSZ Occ Sch Winter Design Da\n   **   ~~~   ** Will be processed as Alpha=SP-IC_PATROOM3_MULT6_FLR_2 SYS-3 FLR-4 SCH-H HPLCMT-WEST ZN NECB SYSTEM 3 PSZ OCC SCH WINTER DESIGN DAY\n   ************* IDF Context for following error/warning message:\n   ************* Note -- lines truncated at 300 characters, if necessary...\n   *************  10949 Schedule:Week:Daily,\n   ************* indicated Name=Schedule:Week:Daily {3459b406-6805-4c26-b69b-82b2387e9424}\n   ************* Only last 10 lines before error line shown.....\n   *************  10950   Schedule:Week:Daily {3459b406-6805-4c26-b69b-82b2387e9424}, !- Name\n   *************  10951   Sp-NurseStn_Lobby_Flr_5 Sys-3 Flr-6 Sch-H HPlcmt-south ZN NECB System 3 PSZ Occ Sch Sunday, !- Sunday Schedule:Day Name\n   *************  10952   Sp-NurseStn_Lobby_Flr_5 Sys-3 Flr-6 Sch-H HPlcmt-south ZN NECB System 3 PSZ Occ Sch Monday, !- Monday Schedule:Day Name\n   *************  10953   Sp-NurseStn_Lobby_Flr_5 Sys-3 Flr-6 Sch-H HPlcmt-south ZN NECB System 3 PSZ Occ Sch Tuesday, !- Tuesday Schedule:Day Name\n   *************  10954   Sp-NurseStn_Lobby_Flr_5 Sys-3 Flr-6 Sch-H HPlcmt-south ZN NECB System 3 PSZ Occ Sch Wednesday, !- Wednesday Schedule:Day Name\n   *************  10955   Sp-NurseStn_Lobby_Flr_5 Sys-3 Flr-6 Sch-H HPlcmt-south ZN NECB System 3 PSZ Occ Sch Thursday, !- Thursday Schedule:Day Name\n   *************  10956   Sp-NurseStn_Lobby_Flr_5 Sys-3 Flr-6 Sch-H HPlcmt-south ZN NECB System 3 PSZ Occ Sch Friday, !- Friday Schedule:Day Name\n   *************  10957   Sp-NurseStn_Lobby_Flr_5 Sys-3 Flr-6 Sch-H HPlcmt-south ZN NECB System 3 PSZ Occ Sch Saturday, !- Saturday Schedule:Day Name\n   *************  10958   Sp-NurseStn_Lobby_Flr_5 Sys-3 Flr-6 Sch-H HPlcmt-south ZN NECB System 3 PSZ Occ Sch Default, !- Holiday Schedule:Day Name\n   *************  10959   Sp-NurseStn_Lobby_Flr_5 Sys-3 Flr-6 Sch-H HPlcmt-south ZN NECB System 3 PSZ Occ Sch Summer Design Day, !- SummerDesignDay Schedule:Day Name\n   ** Warning ** IP: IDF line~10959 Alpha Argument length exceeds maximum, will be truncated=  Sp-NurseStn_Lobby_Flr_5 Sys-3 Flr-6 Sch-H HPlcmt-south ZN NECB System 3 PSZ Occ Sch Summer Design Da\n   **   ~~~   ** Will be processed as Alpha=SP-NURSESTN_LOBBY_FLR_5 SYS-3 FLR-6 SCH-H HPLCMT-SOUTH ZN NECB SYSTEM 3 PSZ OCC SCH SUMMER DESIGN DAY\n   ************* IDF Context for following error/warning message:\n   ************* Note -- lines truncated at 300 characters, if necessary...\n   *************  10949 Schedule:Week:Daily,\n   ************* indicated Name=Schedule:Week:Daily {3459b406-6805-4c26-b69b-82b2387e9424}\n   ************* Only last 10 lines before error line shown.....\n   *************  10951   Sp-NurseStn_Lobby_Flr_5 Sys-3 Flr-6 Sch-H HPlcmt-south ZN NECB System 3 PSZ Occ Sch Sunday, !- Sunday Schedule:Day Name\n   *************  10952   Sp-NurseStn_Lobby_Flr_5 Sys-3 Flr-6 Sch-H HPlcmt-south ZN NECB System 3 PSZ Occ Sch Monday, !- Monday Schedule:Day Name\n   *************  10953   Sp-NurseStn_Lobby_Flr_5 Sys-3 Flr-6 Sch-H HPlcmt-south ZN NECB System 3 PSZ Occ Sch Tuesday, !- Tuesday Schedule:Day Name\n   *************  10954   Sp-NurseStn_Lobby_Flr_5 Sys-3 Flr-6 Sch-H HPlcmt-south ZN NECB System 3 PSZ Occ Sch Wednesday, !- Wednesday Schedule:Day Name\n   *************  10955   Sp-NurseStn_Lobby_Flr_5 Sys-3 Flr-6 Sch-H HPlcmt-south ZN NECB System 3 PSZ Occ Sch Thursday, !- Thursday Schedule:Day Name\n   *************  10956   Sp-NurseStn_Lobby_Flr_5 Sys-3 Flr-6 Sch-H HPlcmt-south ZN NECB System 3 PSZ Occ Sch Friday, !- Friday Schedule:Day Name\n   *************  10957   Sp-NurseStn_Lobby_Flr_5 Sys-3 Flr-6 Sch-H HPlcmt-south ZN NECB System 3 PSZ Occ Sch Saturday, !- Saturday Schedule:Day Name\n   *************  10958   Sp-NurseStn_Lobby_Flr_5 Sys-3 Flr-6 Sch-H HPlcmt-south ZN NECB System 3 PSZ Occ Sch Default, !- Holiday Schedule:Day Name\n   *************  10959   Sp-NurseStn_Lobby_Flr_5 Sys-3 Flr-6 Sch-H HPlcmt-south ZN NECB System 3 PSZ Occ Sch Summer Design Day, !- SummerDesignDay Schedule:Day Name\n   *************  10960   Sp-NurseStn_Lobby_Flr_5 Sys-3 Flr-6 Sch-H HPlcmt-south ZN NECB System 3 PSZ Occ Sch Winter Design Day, !- WinterDesignDay Schedule:Day Name\n   ** Warning ** IP: IDF line~10960 Alpha Argument length exceeds maximum, will be truncated=  Sp-NurseStn_Lobby_Flr_5 Sys-3 Flr-6 Sch-H HPlcmt-south ZN NECB System 3 PSZ Occ Sch Winter Design Da\n   **   ~~~   ** Will be processed as Alpha=SP-NURSESTN_LOBBY_FLR_5 SYS-3 FLR-6 SCH-H HPLCMT-SOUTH ZN NECB SYSTEM 3 PSZ OCC SCH WINTER DESIGN DAY\n   ************* IDF Context for following error/warning message:\n   ************* Note -- lines truncated at 300 characters, if necessary...\n   *************  10980 Schedule:Day:Interval,\n   ************* indicated Name=Sp-NurseStn_Lobby_Flr_5 Sys-3 Flr-6 Sch-H HPlcmt-south ZN NECB System 3 PSZ Occ Sch Summer Design Day\n   ************* Only last 1 lines before error line shown.....\n   *************  10981   Sp-NurseStn_Lobby_Flr_5 Sys-3 Flr-6 Sch-H HPlcmt-south ZN NECB System 3 PSZ Occ Sch Summer Design Day, !- Name\n   ** Warning ** IP: IDF line~10981 Alpha Argument length exceeds maximum, will be truncated=  Sp-NurseStn_Lobby_Flr_5 Sys-3 Flr-6 Sch-H HPlcmt-south ZN NECB System 3 PSZ Occ Sch Summer Design Da\n   **   ~~~   ** Will be processed as Alpha=SP-NURSESTN_LOBBY_FLR_5 SYS-3 FLR-6 SCH-H HPLCMT-SOUTH ZN NECB SYSTEM 3 PSZ OCC SCH SUMMER DESIGN DAY\n   ************* IDF Context for following error/warning message:\n   ************* Note -- lines truncated at 300 characters, if necessary...\n   *************  10987 Schedule:Day:Interval,\n   ************* indicated Name=Sp-NurseStn_Lobby_Flr_5 Sys-3 Flr-6 Sch-H HPlcmt-south ZN NECB System 3 PSZ Occ Sch Winter Design Day\n   ************* Only last 1 lines before error line shown.....\n   *************  10988   Sp-NurseStn_Lobby_Flr_5 Sys-3 Flr-6 Sch-H HPlcmt-south ZN NECB System 3 PSZ Occ Sch Winter Design Day, !- Name\n   ** Warning ** IP: IDF line~10988 Alpha Argument length exceeds maximum, will be truncated=  Sp-NurseStn_Lobby_Flr_5 Sys-3 Flr-6 Sch-H HPlcmt-south ZN NECB System 3 PSZ Occ Sch Winter Design Da\n   **   ~~~   ** Will be processed as Alpha=SP-NURSESTN_LOBBY_FLR_5 SYS-3 FLR-6 SCH-H HPLCMT-SOUTH ZN NECB SYSTEM 3 PSZ OCC SCH WINTER DESIGN DAY\n   ************* IDF Context for following error/warning message:\n   ************* Note -- lines truncated at 300 characters, if necessary...\n   *************  14079 Schedule:Week:Daily,\n   ************* indicated Name=Schedule:Week:Daily {eac0443d-7af7-4a25-995a-8b33a3fd45c4}\n   ************* Only last 10 lines before error line shown.....\n   *************  14080   Schedule:Week:Daily {eac0443d-7af7-4a25-995a-8b33a3fd45c4}, !- Name\n   *************  14081   Sp-OR_NurseStn_Lobby_Flr_2 Sys-3 Flr-4 Sch-H HPlcmt-south ZN NECB System 3 PSZ Occ Sch Sunday, !- Sunday Schedule:Day Name\n   *************  14082   Sp-OR_NurseStn_Lobby_Flr_2 Sys-3 Flr-4 Sch-H HPlcmt-south ZN NECB System 3 PSZ Occ Sch Monday, !- Monday Schedule:Day Name\n   *************  14083   Sp-OR_NurseStn_Lobby_Flr_2 Sys-3 Flr-4 Sch-H HPlcmt-south ZN NECB System 3 PSZ Occ Sch Tuesday, !- Tuesday Schedule:Day Name\n   *************  14084   Sp-OR_NurseStn_Lobby_Flr_2 Sys-3 Flr-4 Sch-H HPlcmt-south ZN NECB System 3 PSZ Occ Sch Wednesday, !- Wednesday Schedule:Day Name\n   *************  14085   Sp-OR_NurseStn_Lobby_Flr_2 Sys-3 Flr-4 Sch-H HPlcmt-south ZN NECB System 3 PSZ Occ Sch Thursday, !- Thursday Schedule:Day Name\n   *************  14086   Sp-OR_NurseStn_Lobby_Flr_2 Sys-3 Flr-4 Sch-H HPlcmt-south ZN NECB System 3 PSZ Occ Sch Friday, !- Friday Schedule:Day Name\n   *************  14087   Sp-OR_NurseStn_Lobby_Flr_2 Sys-3 Flr-4 Sch-H HPlcmt-south ZN NECB System 3 PSZ Occ Sch Saturday, !- Saturday Schedule:Day Name\n   *************  14088   Sp-OR_NurseStn_Lobby_Flr_2 Sys-3 Flr-4 Sch-H HPlcmt-south ZN NECB System 3 PSZ Occ Sch Default, !- Holiday Schedule:Day Name\n   *************  14089   Sp-OR_NurseStn_Lobby_Flr_2 Sys-3 Flr-4 Sch-H HPlcmt-south ZN NECB System 3 PSZ Occ Sch Summer Design Day, !- SummerDesignDay Schedule:Day Name\n   ** Warning ** IP: IDF line~14089 Alpha Argument length exceeds maximum, will be truncated=  Sp-OR_NurseStn_Lobby_Flr_2 Sys-3 Flr-4 Sch-H HPlcmt-south ZN NECB System 3 PSZ Occ Sch Summer Design Da\n   **   ~~~   ** Will be processed as Alpha=SP-OR_NURSESTN_LOBBY_FLR_2 SYS-3 FLR-4 SCH-H HPLCMT-SOUTH ZN NECB SYSTEM 3 PSZ OCC SCH SUMMER DESIGN DAY\n   ************* IDF Context for following error/warning message:\n   ************* Note -- lines truncated at 300 characters, if necessary...\n   *************  14079 Schedule:Week:Daily,\n   ************* indicated Name=Schedule:Week:Daily {eac0443d-7af7-4a25-995a-8b33a3fd45c4}\n   ************* Only last 10 lines before error line shown.....\n   *************  14081   Sp-OR_NurseStn_Lobby_Flr_2 Sys-3 Flr-4 Sch-H HPlcmt-south ZN NECB System 3 PSZ Occ Sch Sunday, !- Sunday Schedule:Day Name\n   *************  14082   Sp-OR_NurseStn_Lobby_Flr_2 Sys-3 Flr-4 Sch-H HPlcmt-south ZN NECB System 3 PSZ Occ Sch Monday, !- Monday Schedule:Day Name\n   *************  14083   Sp-OR_NurseStn_Lobby_Flr_2 Sys-3 Flr-4 Sch-H HPlcmt-south ZN NECB System 3 PSZ Occ Sch Tuesday, !- Tuesday Schedule:Day Name\n   *************  14084   Sp-OR_NurseStn_Lobby_Flr_2 Sys-3 Flr-4 Sch-H HPlcmt-south ZN NECB System 3 PSZ Occ Sch Wednesday, !- Wednesday Schedule:Day Name\n   *************  14085   Sp-OR_NurseStn_Lobby_Flr_2 Sys-3 Flr-4 Sch-H HPlcmt-south ZN NECB System 3 PSZ Occ Sch Thursday, !- Thursday Schedule:Day Name\n   *************  14086   Sp-OR_NurseStn_Lobby_Flr_2 Sys-3 Flr-4 Sch-H HPlcmt-south ZN NECB System 3 PSZ Occ Sch Friday, !- Friday Schedule:Day Name\n   *************  14087   Sp-OR_NurseStn_Lobby_Flr_2 Sys-3 Flr-4 Sch-H HPlcmt-south ZN NECB System 3 PSZ Occ Sch Saturday, !- Saturday Schedule:Day Name\n   *************  14088   Sp-OR_NurseStn_Lobby_Flr_2 Sys-3 Flr-4 Sch-H HPlcmt-south ZN NECB System 3 PSZ Occ Sch Default, !- Holiday Schedule:Day Name\n   *************  14089   Sp-OR_NurseStn_Lobby_Flr_2 Sys-3 Flr-4 Sch-H HPlcmt-south ZN NECB System 3 PSZ Occ Sch Summer Design Day, !- SummerDesignDay Schedule:Day Name\n   *************  14090   Sp-OR_NurseStn_Lobby_Flr_2 Sys-3 Flr-4 Sch-H HPlcmt-south ZN NECB System 3 PSZ Occ Sch Winter Design Day, !- WinterDesignDay Schedule:Day Name\n   ** Warning ** IP: IDF line~14090 Alpha Argument length exceeds maximum, will be truncated=  Sp-OR_NurseStn_Lobby_Flr_2 Sys-3 Flr-4 Sch-H HPlcmt-south ZN NECB System 3 PSZ Occ Sch Winter Design Da\n   **   ~~~   ** Will be processed as Alpha=SP-OR_NURSESTN_LOBBY_FLR_2 SYS-3 FLR-4 SCH-H HPLCMT-SOUTH ZN NECB SYSTEM 3 PSZ OCC SCH WINTER DESIGN DAY\n   ************* IDF Context for following error/warning message:\n   ************* Note -- lines truncated at 300 characters, if necessary...\n   *************  14110 Schedule:Day:Interval,\n   ************* indicated Name=Sp-OR_NurseStn_Lobby_Flr_2 Sys-3 Flr-4 Sch-H HPlcmt-south ZN NECB System 3 PSZ Occ Sch Summer Design Day\n   ************* Only last 1 lines before error line shown.....\n   *************  14111   Sp-OR_NurseStn_Lobby_Flr_2 Sys-3 Flr-4 Sch-H HPlcmt-south ZN NECB System 3 PSZ Occ Sch Summer Design Day, !- Name\n   ** Warning ** IP: IDF line~14111 Alpha Argument length exceeds maximum, will be truncated=  Sp-OR_NurseStn_Lobby_Flr_2 Sys-3 Flr-4 Sch-H HPlcmt-south ZN NECB System 3 PSZ Occ Sch Summer Design Da\n   **   ~~~   ** Will be processed as Alpha=SP-OR_NURSESTN_LOBBY_FLR_2 SYS-3 FLR-4 SCH-H HPLCMT-SOUTH ZN NECB SYSTEM 3 PSZ OCC SCH SUMMER DESIGN DAY\n   ************* IDF Context for following error/warning message:\n   ************* Note -- lines truncated at 300 characters, if necessary...\n   *************  14117 Schedule:Day:Interval,\n   ************* indicated Name=Sp-OR_NurseStn_Lobby_Flr_2 Sys-3 Flr-4 Sch-H HPlcmt-south ZN NECB System 3 PSZ Occ Sch Winter Design Day\n   ************* Only last 1 lines before error line shown.....\n   *************  14118   Sp-OR_NurseStn_Lobby_Flr_2 Sys-3 Flr-4 Sch-H HPlcmt-south ZN NECB System 3 PSZ Occ Sch Winter Design Day, !- Name\n   ** Warning ** IP: IDF line~14118 Alpha Argument length exceeds maximum, will be truncated=  Sp-OR_NurseStn_Lobby_Flr_2 Sys-3 Flr-4 Sch-H HPlcmt-south ZN NECB System 3 PSZ Occ Sch Winter Design Da\n   **   ~~~   ** Will be processed as Alpha=SP-OR_NURSESTN_LOBBY_FLR_2 SYS-3 FLR-4 SCH-H HPLCMT-SOUTH ZN NECB SYSTEM 3 PSZ OCC SCH WINTER DESIGN DAY\n   ************* IDF Context for following error/warning message:\n   ************* Note -- lines truncated at 300 characters, if necessary...\n   *************  14422 Schedule:Week:Daily,\n   ************* indicated Name=Schedule:Week:Daily {27ed9753-22dd-4ba7-9092-3575d03d5093}\n   ************* Only last 10 lines before error line shown.....\n   *************  14423   Schedule:Week:Daily {27ed9753-22dd-4ba7-9092-3575d03d5093}, !- Name\n   *************  14424   Sp-PatRoom1_Mult10_Flr_3 Sys-3 Flr-2 Sch-H HPlcmt-south ZN NECB System 3 PSZ Occ Sch Sunday, !- Sunday Schedule:Day Name\n   *************  14425   Sp-PatRoom1_Mult10_Flr_3 Sys-3 Flr-2 Sch-H HPlcmt-south ZN NECB System 3 PSZ Occ Sch Monday, !- Monday Schedule:Day Name\n   *************  14426   Sp-PatRoom1_Mult10_Flr_3 Sys-3 Flr-2 Sch-H HPlcmt-south ZN NECB System 3 PSZ Occ Sch Tuesday, !- Tuesday Schedule:Day Name\n   *************  14427   Sp-PatRoom1_Mult10_Flr_3 Sys-3 Flr-2 Sch-H HPlcmt-south ZN NECB System 3 PSZ Occ Sch Wednesday, !- Wednesday Schedule:Day Name\n   *************  14428   Sp-PatRoom1_Mult10_Flr_3 Sys-3 Flr-2 Sch-H HPlcmt-south ZN NECB System 3 PSZ Occ Sch Thursday, !- Thursday Schedule:Day Name\n   *************  14429   Sp-PatRoom1_Mult10_Flr_3 Sys-3 Flr-2 Sch-H HPlcmt-south ZN NECB System 3 PSZ Occ Sch Friday, !- Friday Schedule:Day Name\n   *************  14430   Sp-PatRoom1_Mult10_Flr_3 Sys-3 Flr-2 Sch-H HPlcmt-south ZN NECB System 3 PSZ Occ Sch Saturday, !- Saturday Schedule:Day Name\n   *************  14431   Sp-PatRoom1_Mult10_Flr_3 Sys-3 Flr-2 Sch-H HPlcmt-south ZN NECB System 3 PSZ Occ Sch Default, !- Holiday Schedule:Day Name\n   *************  14432   Sp-PatRoom1_Mult10_Flr_3 Sys-3 Flr-2 Sch-H HPlcmt-south ZN NECB System 3 PSZ Occ Sch Summer Design Day, !- SummerDesignDay Schedule:Day Name\n   ** Warning ** IP: IDF line~14432 Alpha Argument length exceeds maximum, will be truncated=  Sp-PatRoom1_Mult10_Flr_3 Sys-3 Flr-2 Sch-H HPlcmt-south ZN NECB System 3 PSZ Occ Sch Summer Design Da\n   **   ~~~   ** Will be processed as Alpha=SP-PATROOM1_MULT10_FLR_3 SYS-3 FLR-2 SCH-H HPLCMT-SOUTH ZN NECB SYSTEM 3 PSZ OCC SCH SUMMER DESIGN DAY\n   ************* IDF Context for following error/warning message:\n   ************* Note -- lines truncated at 300 characters, if necessary...\n   *************  14422 Schedule:Week:Daily,\n   ************* indicated Name=Schedule:Week:Daily {27ed9753-22dd-4ba7-9092-3575d03d5093}\n   ************* Only last 10 lines before error line shown.....\n   *************  14424   Sp-PatRoom1_Mult10_Flr_3 Sys-3 Flr-2 Sch-H HPlcmt-south ZN NECB System 3 PSZ Occ Sch Sunday, !- Sunday Schedule:Day Name\n   *************  14425   Sp-PatRoom1_Mult10_Flr_3 Sys-3 Flr-2 Sch-H HPlcmt-south ZN NECB System 3 PSZ Occ Sch Monday, !- Monday Schedule:Day Name\n   *************  14426   Sp-PatRoom1_Mult10_Flr_3 Sys-3 Flr-2 Sch-H HPlcmt-south ZN NECB System 3 PSZ Occ Sch Tuesday, !- Tuesday Schedule:Day Name\n   *************  14427   Sp-PatRoom1_Mult10_Flr_3 Sys-3 Flr-2 Sch-H HPlcmt-south ZN NECB System 3 PSZ Occ Sch Wednesday, !- Wednesday Schedule:Day Name\n   *************  14428   Sp-PatRoom1_Mult10_Flr_3 Sys-3 Flr-2 Sch-H HPlcmt-south ZN NECB System 3 PSZ Occ Sch Thursday, !- Thursday Schedule:Day Name\n   *************  14429   Sp-PatRoom1_Mult10_Flr_3 Sys-3 Flr-2 Sch-H HPlcmt-south ZN NECB System 3 PSZ Occ Sch Friday, !- Friday Schedule:Day Name\n   *************  14430   Sp-PatRoom1_Mult10_Flr_3 Sys-3 Flr-2 Sch-H HPlcmt-south ZN NECB System 3 PSZ Occ Sch Saturday, !- Saturday Schedule:Day Name\n   *************  14431   Sp-PatRoom1_Mult10_Flr_3 Sys-3 Flr-2 Sch-H HPlcmt-south ZN NECB System 3 PSZ Occ Sch Default, !- Holiday Schedule:Day Name\n   *************  14432   Sp-PatRoom1_Mult10_Flr_3 Sys-3 Flr-2 Sch-H HPlcmt-south ZN NECB System 3 PSZ Occ Sch Summer Design Day, !- SummerDesignDay Schedule:Day Name\n   *************  14433   Sp-PatRoom1_Mult10_Flr_3 Sys-3 Flr-2 Sch-H HPlcmt-south ZN NECB System 3 PSZ Occ Sch Winter Design Day, !- WinterDesignDay Schedule:Day Name\n   ** Warning ** IP: IDF line~14433 Alpha Argument length exceeds maximum, will be truncated=  Sp-PatRoom1_Mult10_Flr_3 Sys-3 Flr-2 Sch-H HPlcmt-south ZN NECB System 3 PSZ Occ Sch Winter Design Da\n   **   ~~~   ** Will be processed as Alpha=SP-PATROOM1_MULT10_FLR_3 SYS-3 FLR-2 SCH-H HPLCMT-SOUTH ZN NECB SYSTEM 3 PSZ OCC SCH WINTER DESIGN DAY\n   ************* IDF Context for following error/warning message:\n   ************* Note -- lines truncated at 300 characters, if necessary...\n   *************  14453 Schedule:Day:Interval,\n   ************* indicated Name=Sp-PatRoom1_Mult10_Flr_3 Sys-3 Flr-2 Sch-H HPlcmt-south ZN NECB System 3 PSZ Occ Sch Summer Design Day\n   ************* Only last 1 lines before error line shown.....\n   *************  14454   Sp-PatRoom1_Mult10_Flr_3 Sys-3 Flr-2 Sch-H HPlcmt-south ZN NECB System 3 PSZ Occ Sch Summer Design Day, !- Name\n   ** Warning ** IP: IDF line~14454 Alpha Argument length exceeds maximum, will be truncated=  Sp-PatRoom1_Mult10_Flr_3 Sys-3 Flr-2 Sch-H HPlcmt-south ZN NECB System 3 PSZ Occ Sch Summer Design Da\n   **   ~~~   ** Will be processed as Alpha=SP-PATROOM1_MULT10_FLR_3 SYS-3 FLR-2 SCH-H HPLCMT-SOUTH ZN NECB SYSTEM 3 PSZ OCC SCH SUMMER DESIGN DAY\n   ************* IDF Context for following error/warning message:\n   ************* Note -- lines truncated at 300 characters, if necessary...\n   *************  14460 Schedule:Day:Interval,\n   ************* indicated Name=Sp-PatRoom1_Mult10_Flr_3 Sys-3 Flr-2 Sch-H HPlcmt-south ZN NECB System 3 PSZ Occ Sch Winter Design Day\n   ************* Only last 1 lines before error line shown.....\n   *************  14461   Sp-PatRoom1_Mult10_Flr_3 Sys-3 Flr-2 Sch-H HPlcmt-south ZN NECB System 3 PSZ Occ Sch Winter Design Day, !- Name\n   ** Warning ** IP: IDF line~14461 Alpha Argument length exceeds maximum, will be truncated=  Sp-PatRoom1_Mult10_Flr_3 Sys-3 Flr-2 Sch-H HPlcmt-south ZN NECB System 3 PSZ Occ Sch Winter Design Da\n   **   ~~~   ** Will be processed as Alpha=SP-PATROOM1_MULT10_FLR_3 SYS-3 FLR-2 SCH-H HPLCMT-SOUTH ZN NECB SYSTEM 3 PSZ OCC SCH WINTER DESIGN DAY\n   ************* IDF Context for following error/warning message:\n   ************* Note -- lines truncated at 300 characters, if necessary...\n   *************  14765 Schedule:Week:Daily,\n   ************* indicated Name=Schedule:Week:Daily {4577efa1-cf40-4b26-b9cf-0cd543a9ccfd}\n   ************* Only last 10 lines before error line shown.....\n   *************  14766   Schedule:Week:Daily {4577efa1-cf40-4b26-b9cf-0cd543a9ccfd}, !- Name\n   *************  14767   Sp-PatRoom1_Mult10_Flr_4 Sys-3 Flr-3 Sch-H HPlcmt-south ZN NECB System 3 PSZ Occ Sch Sunday, !- Sunday Schedule:Day Name\n   *************  14768   Sp-PatRoom1_Mult10_Flr_4 Sys-3 Flr-3 Sch-H HPlcmt-south ZN NECB System 3 PSZ Occ Sch Monday, !- Monday Schedule:Day Name\n   *************  14769   Sp-PatRoom1_Mult10_Flr_4 Sys-3 Flr-3 Sch-H HPlcmt-south ZN NECB System 3 PSZ Occ Sch Tuesday, !- Tuesday Schedule:Day Name\n   *************  14770   Sp-PatRoom1_Mult10_Flr_4 Sys-3 Flr-3 Sch-H HPlcmt-south ZN NECB System 3 PSZ Occ Sch Wednesday, !- Wednesday Schedule:Day Name\n   *************  14771   Sp-PatRoom1_Mult10_Flr_4 Sys-3 Flr-3 Sch-H HPlcmt-south ZN NECB System 3 PSZ Occ Sch Thursday, !- Thursday Schedule:Day Name\n   *************  14772   Sp-PatRoom1_Mult10_Flr_4 Sys-3 Flr-3 Sch-H HPlcmt-south ZN NECB System 3 PSZ Occ Sch Friday, !- Friday Schedule:Day Name\n   *************  14773   Sp-PatRoom1_Mult10_Flr_4 Sys-3 Flr-3 Sch-H HPlcmt-south ZN NECB System 3 PSZ Occ Sch Saturday, !- Saturday Schedule:Day Name\n   *************  14774   Sp-PatRoom1_Mult10_Flr_4 Sys-3 Flr-3 Sch-H HPlcmt-south ZN NECB System 3 PSZ Occ Sch Default, !- Holiday Schedule:Day Name\n   *************  14775   Sp-PatRoom1_Mult10_Flr_4 Sys-3 Flr-3 Sch-H HPlcmt-south ZN NECB System 3 PSZ Occ Sch Summer Design Day, !- SummerDesignDay Schedule:Day Name\n   ** Warning ** IP: IDF line~14775 Alpha Argument length exceeds maximum, will be truncated=  Sp-PatRoom1_Mult10_Flr_4 Sys-3 Flr-3 Sch-H HPlcmt-south ZN NECB System 3 PSZ Occ Sch Summer Design Da\n   **   ~~~   ** Will be processed as Alpha=SP-PATROOM1_MULT10_FLR_4 SYS-3 FLR-3 SCH-H HPLCMT-SOUTH ZN NECB SYSTEM 3 PSZ OCC SCH SUMMER DESIGN DAY\n   ************* IDF Context for following error/warning message:\n   ************* Note -- lines truncated at 300 characters, if necessary...\n   *************  14765 Schedule:Week:Daily,\n   ************* indicated Name=Schedule:Week:Daily {4577efa1-cf40-4b26-b9cf-0cd543a9ccfd}\n   ************* Only last 10 lines before error line shown.....\n   *************  14767   Sp-PatRoom1_Mult10_Flr_4 Sys-3 Flr-3 Sch-H HPlcmt-south ZN NECB System 3 PSZ Occ Sch Sunday, !- Sunday Schedule:Day Name\n   *************  14768   Sp-PatRoom1_Mult10_Flr_4 Sys-3 Flr-3 Sch-H HPlcmt-south ZN NECB System 3 PSZ Occ Sch Monday, !- Monday Schedule:Day Name\n   *************  14769   Sp-PatRoom1_Mult10_Flr_4 Sys-3 Flr-3 Sch-H HPlcmt-south ZN NECB System 3 PSZ Occ Sch Tuesday, !- Tuesday Schedule:Day Name\n   *************  14770   Sp-PatRoom1_Mult10_Flr_4 Sys-3 Flr-3 Sch-H HPlcmt-south ZN NECB System 3 PSZ Occ Sch Wednesday, !- Wednesday Schedule:Day Name\n   *************  14771   Sp-PatRoom1_Mult10_Flr_4 Sys-3 Flr-3 Sch-H HPlcmt-south ZN NECB System 3 PSZ Occ Sch Thursday, !- Thursday Schedule:Day Name\n   *************  14772   Sp-PatRoom1_Mult10_Flr_4 Sys-3 Flr-3 Sch-H HPlcmt-south ZN NECB System 3 PSZ Occ Sch Friday, !- Friday Schedule:Day Name\n   *************  14773   Sp-PatRoom1_Mult10_Flr_4 Sys-3 Flr-3 Sch-H HPlcmt-south ZN NECB System 3 PSZ Occ Sch Saturday, !- Saturday Schedule:Day Name\n   *************  14774   Sp-PatRoom1_Mult10_Flr_4 Sys-3 Flr-3 Sch-H HPlcmt-south ZN NECB System 3 PSZ Occ Sch Default, !- Holiday Schedule:Day Name\n   *************  14775   Sp-PatRoom1_Mult10_Flr_4 Sys-3 Flr-3 Sch-H HPlcmt-south ZN NECB System 3 PSZ Occ Sch Summer Design Day, !- SummerDesignDay Schedule:Day Name\n   *************  14776   Sp-PatRoom1_Mult10_Flr_4 Sys-3 Flr-3 Sch-H HPlcmt-south ZN NECB System 3 PSZ Occ Sch Winter Design Day, !- WinterDesignDay Schedule:Day Name\n   ** Warning ** IP: IDF line~14776 Alpha Argument length exceeds maximum, will be truncated=  Sp-PatRoom1_Mult10_Flr_4 Sys-3 Flr-3 Sch-H HPlcmt-south ZN NECB System 3 PSZ Occ Sch Winter Design Da\n   **   ~~~   ** Will be processed as Alpha=SP-PATROOM1_MULT10_FLR_4 SYS-3 FLR-3 SCH-H HPLCMT-SOUTH ZN NECB SYSTEM 3 PSZ OCC SCH WINTER DESIGN DAY\n   ************* IDF Context for following error/warning message:\n   ************* Note -- lines truncated at 300 characters, if necessary...\n   *************  14796 Schedule:Day:Interval,\n   ************* indicated Name=Sp-PatRoom1_Mult10_Flr_4 Sys-3 Flr-3 Sch-H HPlcmt-south ZN NECB System 3 PSZ Occ Sch Summer Design Day\n   ************* Only last 1 lines before error line shown.....\n   *************  14797   Sp-PatRoom1_Mult10_Flr_4 Sys-3 Flr-3 Sch-H HPlcmt-south ZN NECB System 3 PSZ Occ Sch Summer Design Day, !- Name\n   ** Warning ** IP: IDF line~14797 Alpha Argument length exceeds maximum, will be truncated=  Sp-PatRoom1_Mult10_Flr_4 Sys-3 Flr-3 Sch-H HPlcmt-south ZN NECB System 3 PSZ Occ Sch Summer Design Da\n   **   ~~~   ** Will be processed as Alpha=SP-PATROOM1_MULT10_FLR_4 SYS-3 FLR-3 SCH-H HPLCMT-SOUTH ZN NECB SYSTEM 3 PSZ OCC SCH SUMMER DESIGN DAY\n   ************* IDF Context for following error/warning message:\n   ************* Note -- lines truncated at 300 characters, if necessary...\n   *************  14803 Schedule:Day:Interval,\n   ************* indicated Name=Sp-PatRoom1_Mult10_Flr_4 Sys-3 Flr-3 Sch-H HPlcmt-south ZN NECB System 3 PSZ Occ Sch Winter Design Day\n   ************* Only last 1 lines before error line shown.....\n   *************  14804   Sp-PatRoom1_Mult10_Flr_4 Sys-3 Flr-3 Sch-H HPlcmt-south ZN NECB System 3 PSZ Occ Sch Winter Design Day, !- Name\n   ** Warning ** IP: IDF line~14804 Alpha Argument length exceeds maximum, will be truncated=  Sp-PatRoom1_Mult10_Flr_4 Sys-3 Flr-3 Sch-H HPlcmt-south ZN NECB System 3 PSZ Occ Sch Winter Design Da\n   **   ~~~   ** Will be processed as Alpha=SP-PATROOM1_MULT10_FLR_4 SYS-3 FLR-3 SCH-H HPLCMT-SOUTH ZN NECB SYSTEM 3 PSZ OCC SCH WINTER DESIGN DAY\n   ************* IDF Context for following error/warning message:\n   ************* Note -- lines truncated at 300 characters, if necessary...\n   *************  15670 Schedule:Week:Daily,\n   ************* indicated Name=Schedule:Week:Daily {531c801b-ad3e-49e2-b7ad-87b9a0017a93}\n   ************* Only last 10 lines before error line shown.....\n   *************  15671   Schedule:Week:Daily {531c801b-ad3e-49e2-b7ad-87b9a0017a93}, !- Name\n   *************  15672   Sp-PatRoom3_Mult10_Flr_3 Sys-3 Flr-2 Sch-H HPlcmt-east ZN NECB System 3 PSZ Occ Sch Sunday, !- Sunday Schedule:Day Name\n   *************  15673   Sp-PatRoom3_Mult10_Flr_3 Sys-3 Flr-2 Sch-H HPlcmt-east ZN NECB System 3 PSZ Occ Sch Monday, !- Monday Schedule:Day Name\n   *************  15674   Sp-PatRoom3_Mult10_Flr_3 Sys-3 Flr-2 Sch-H HPlcmt-east ZN NECB System 3 PSZ Occ Sch Tuesday, !- Tuesday Schedule:Day Name\n   *************  15675   Sp-PatRoom3_Mult10_Flr_3 Sys-3 Flr-2 Sch-H HPlcmt-east ZN NECB System 3 PSZ Occ Sch Wednesday, !- Wednesday Schedule:Day Name\n   *************  15676   Sp-PatRoom3_Mult10_Flr_3 Sys-3 Flr-2 Sch-H HPlcmt-east ZN NECB System 3 PSZ Occ Sch Thursday, !- Thursday Schedule:Day Name\n   *************  15677   Sp-PatRoom3_Mult10_Flr_3 Sys-3 Flr-2 Sch-H HPlcmt-east ZN NECB System 3 PSZ Occ Sch Friday, !- Friday Schedule:Day Name\n   *************  15678   Sp-PatRoom3_Mult10_Flr_3 Sys-3 Flr-2 Sch-H HPlcmt-east ZN NECB System 3 PSZ Occ Sch Saturday, !- Saturday Schedule:Day Name\n   *************  15679   Sp-PatRoom3_Mult10_Flr_3 Sys-3 Flr-2 Sch-H HPlcmt-east ZN NECB System 3 PSZ Occ Sch Default, !- Holiday Schedule:Day Name\n   *************  15680   Sp-PatRoom3_Mult10_Flr_3 Sys-3 Flr-2 Sch-H HPlcmt-east ZN NECB System 3 PSZ Occ Sch Summer Design Day, !- SummerDesignDay Schedule:Day Name\n   ** Warning ** IP: IDF line~15680 Alpha Argument length exceeds maximum, will be truncated=  Sp-PatRoom3_Mult10_Flr_3 Sys-3 Flr-2 Sch-H HPlcmt-east ZN NECB System 3 PSZ Occ Sch Summer Design Da\n   **   ~~~   ** Will be processed as Alpha=SP-PATROOM3_MULT10_FLR_3 SYS-3 FLR-2 SCH-H HPLCMT-EAST ZN NECB SYSTEM 3 PSZ OCC SCH SUMMER DESIGN DAY\n   ************* IDF Context for following error/warning message:\n   ************* Note -- lines truncated at 300 characters, if necessary...\n   *************  15670 Schedule:Week:Daily,\n   ************* indicated Name=Schedule:Week:Daily {531c801b-ad3e-49e2-b7ad-87b9a0017a93}\n   ************* Only last 10 lines before error line shown.....\n   *************  15672   Sp-PatRoom3_Mult10_Flr_3 Sys-3 Flr-2 Sch-H HPlcmt-east ZN NECB System 3 PSZ Occ Sch Sunday, !- Sunday Schedule:Day Name\n   *************  15673   Sp-PatRoom3_Mult10_Flr_3 Sys-3 Flr-2 Sch-H HPlcmt-east ZN NECB System 3 PSZ Occ Sch Monday, !- Monday Schedule:Day Name\n   *************  15674   Sp-PatRoom3_Mult10_Flr_3 Sys-3 Flr-2 Sch-H HPlcmt-east ZN NECB System 3 PSZ Occ Sch Tuesday, !- Tuesday Schedule:Day Name\n   *************  15675   Sp-PatRoom3_Mult10_Flr_3 Sys-3 Flr-2 Sch-H HPlcmt-east ZN NECB System 3 PSZ Occ Sch Wednesday, !- Wednesday Schedule:Day Name\n   *************  15676   Sp-PatRoom3_Mult10_Flr_3 Sys-3 Flr-2 Sch-H HPlcmt-east ZN NECB System 3 PSZ Occ Sch Thursday, !- Thursday Schedule:Day Name\n   *************  15677   Sp-PatRoom3_Mult10_Flr_3 Sys-3 Flr-2 Sch-H HPlcmt-east ZN NECB System 3 PSZ Occ Sch Friday, !- Friday Schedule:Day Name\n   *************  15678   Sp-PatRoom3_Mult10_Flr_3 Sys-3 Flr-2 Sch-H HPlcmt-east ZN NECB System 3 PSZ Occ Sch Saturday, !- Saturday Schedule:Day Name\n   *************  15679   Sp-PatRoom3_Mult10_Flr_3 Sys-3 Flr-2 Sch-H HPlcmt-east ZN NECB System 3 PSZ Occ Sch Default, !- Holiday Schedule:Day Name\n   *************  15680   Sp-PatRoom3_Mult10_Flr_3 Sys-3 Flr-2 Sch-H HPlcmt-east ZN NECB System 3 PSZ Occ Sch Summer Design Day, !- SummerDesignDay Schedule:Day Name\n   *************  15681   Sp-PatRoom3_Mult10_Flr_3 Sys-3 Flr-2 Sch-H HPlcmt-east ZN NECB System 3 PSZ Occ Sch Winter Design Day, !- WinterDesignDay Schedule:Day Name\n   ** Warning ** IP: IDF line~15681 Alpha Argument length exceeds maximum, will be truncated=  Sp-PatRoom3_Mult10_Flr_3 Sys-3 Flr-2 Sch-H HPlcmt-east ZN NECB System 3 PSZ Occ Sch Winter Design Da\n   **   ~~~   ** Will be processed as Alpha=SP-PATROOM3_MULT10_FLR_3 SYS-3 FLR-2 SCH-H HPLCMT-EAST ZN NECB SYSTEM 3 PSZ OCC SCH WINTER DESIGN DAY\n   ************* IDF Context for following error/warning message:\n   ************* Note -- lines truncated at 300 characters, if necessary...\n   *************  15701 Schedule:Day:Interval,\n   ************* indicated Name=Sp-PatRoom3_Mult10_Flr_3 Sys-3 Flr-2 Sch-H HPlcmt-east ZN NECB System 3 PSZ Occ Sch Summer Design Day\n   ************* Only last 1 lines before error line shown.....\n   *************  15702   Sp-PatRoom3_Mult10_Flr_3 Sys-3 Flr-2 Sch-H HPlcmt-east ZN NECB System 3 PSZ Occ Sch Summer Design Day, !- Name\n   ** Warning ** IP: IDF line~15702 Alpha Argument length exceeds maximum, will be truncated=  Sp-PatRoom3_Mult10_Flr_3 Sys-3 Flr-2 Sch-H HPlcmt-east ZN NECB System 3 PSZ Occ Sch Summer Design Da\n   **   ~~~   ** Will be processed as Alpha=SP-PATROOM3_MULT10_FLR_3 SYS-3 FLR-2 SCH-H HPLCMT-EAST ZN NECB SYSTEM 3 PSZ OCC SCH SUMMER DESIGN DAY\n   ************* IDF Context for following error/warning message:\n   ************* Note -- lines truncated at 300 characters, if necessary...\n   *************  15708 Schedule:Day:Interval,\n   ************* indicated Name=Sp-PatRoom3_Mult10_Flr_3 Sys-3 Flr-2 Sch-H HPlcmt-east ZN NECB System 3 PSZ Occ Sch Winter Design Day\n   ************* Only last 1 lines before error line shown.....\n   *************  15709   Sp-PatRoom3_Mult10_Flr_3 Sys-3 Flr-2 Sch-H HPlcmt-east ZN NECB System 3 PSZ Occ Sch Winter Design Day, !- Name\n   ** Warning ** IP: IDF line~15709 Alpha Argument length exceeds maximum, will be truncated=  Sp-PatRoom3_Mult10_Flr_3 Sys-3 Flr-2 Sch-H HPlcmt-east ZN NECB System 3 PSZ Occ Sch Winter Design Da\n   **   ~~~   ** Will be processed as Alpha=SP-PATROOM3_MULT10_FLR_3 SYS-3 FLR-2 SCH-H HPLCMT-EAST ZN NECB SYSTEM 3 PSZ OCC SCH WINTER DESIGN DAY\n   ************* IDF Context for following error/warning message:\n   ************* Note -- lines truncated at 300 characters, if necessary...\n   *************  16013 Schedule:Week:Daily,\n   ************* indicated Name=Schedule:Week:Daily {f1de32b3-3250-49f8-a470-e46a42d65dba}\n   ************* Only last 10 lines before error line shown.....\n   *************  16014   Schedule:Week:Daily {f1de32b3-3250-49f8-a470-e46a42d65dba}, !- Name\n   *************  16015   Sp-PatRoom3_Mult10_Flr_4 Sys-3 Flr-3 Sch-H HPlcmt-east ZN NECB System 3 PSZ Occ Sch Sunday, !- Sunday Schedule:Day Name\n   *************  16016   Sp-PatRoom3_Mult10_Flr_4 Sys-3 Flr-3 Sch-H HPlcmt-east ZN NECB System 3 PSZ Occ Sch Monday, !- Monday Schedule:Day Name\n   *************  16017   Sp-PatRoom3_Mult10_Flr_4 Sys-3 Flr-3 Sch-H HPlcmt-east ZN NECB System 3 PSZ Occ Sch Tuesday, !- Tuesday Schedule:Day Name\n   *************  16018   Sp-PatRoom3_Mult10_Flr_4 Sys-3 Flr-3 Sch-H HPlcmt-east ZN NECB System 3 PSZ Occ Sch Wednesday, !- Wednesday Schedule:Day Name\n   *************  16019   Sp-PatRoom3_Mult10_Flr_4 Sys-3 Flr-3 Sch-H HPlcmt-east ZN NECB System 3 PSZ Occ Sch Thursday, !- Thursday Schedule:Day Name\n   *************  16020   Sp-PatRoom3_Mult10_Flr_4 Sys-3 Flr-3 Sch-H HPlcmt-east ZN NECB System 3 PSZ Occ Sch Friday, !- Friday Schedule:Day Name\n   *************  16021   Sp-PatRoom3_Mult10_Flr_4 Sys-3 Flr-3 Sch-H HPlcmt-east ZN NECB System 3 PSZ Occ Sch Saturday, !- Saturday Schedule:Day Name\n   *************  16022   Sp-PatRoom3_Mult10_Flr_4 Sys-3 Flr-3 Sch-H HPlcmt-east ZN NECB System 3 PSZ Occ Sch Default, !- Holiday Schedule:Day Name\n   *************  16023   Sp-PatRoom3_Mult10_Flr_4 Sys-3 Flr-3 Sch-H HPlcmt-east ZN NECB System 3 PSZ Occ Sch Summer Design Day, !- SummerDesignDay Schedule:Day Name\n   ** Warning ** IP: IDF line~16023 Alpha Argument length exceeds maximum, will be truncated=  Sp-PatRoom3_Mult10_Flr_4 Sys-3 Flr-3 Sch-H HPlcmt-east ZN NECB System 3 PSZ Occ Sch Summer Design Da\n   **   ~~~   ** Will be processed as Alpha=SP-PATROOM3_MULT10_FLR_4 SYS-3 FLR-3 SCH-H HPLCMT-EAST ZN NECB SYSTEM 3 PSZ OCC SCH SUMMER DESIGN DAY\n   ************* IDF Context for following error/warning message:\n   ************* Note -- lines truncated at 300 characters, if necessary...\n   *************  16013 Schedule:Week:Daily,\n   ************* indicated Name=Schedule:Week:Daily {f1de32b3-3250-49f8-a470-e46a42d65dba}\n   ************* Only last 10 lines before error line shown.....\n   *************  16015   Sp-PatRoom3_Mult10_Flr_4 Sys-3 Flr-3 Sch-H HPlcmt-east ZN NECB System 3 PSZ Occ Sch Sunday, !- Sunday Schedule:Day Name\n   *************  16016   Sp-PatRoom3_Mult10_Flr_4 Sys-3 Flr-3 Sch-H HPlcmt-east ZN NECB System 3 PSZ Occ Sch Monday, !- Monday Schedule:Day Name\n   *************  16017   Sp-PatRoom3_Mult10_Flr_4 Sys-3 Flr-3 Sch-H HPlcmt-east ZN NECB System 3 PSZ Occ Sch Tuesday, !- Tuesday Schedule:Day Name\n   *************  16018   Sp-PatRoom3_Mult10_Flr_4 Sys-3 Flr-3 Sch-H HPlcmt-east ZN NECB System 3 PSZ Occ Sch Wednesday, !- Wednesday Schedule:Day Name\n   *************  16019   Sp-PatRoom3_Mult10_Flr_4 Sys-3 Flr-3 Sch-H HPlcmt-east ZN NECB System 3 PSZ Occ Sch Thursday, !- Thursday Schedule:Day Name\n   *************  16020   Sp-PatRoom3_Mult10_Flr_4 Sys-3 Flr-3 Sch-H HPlcmt-east ZN NECB System 3 PSZ Occ Sch Friday, !- Friday Schedule:Day Name\n   *************  16021   Sp-PatRoom3_Mult10_Flr_4 Sys-3 Flr-3 Sch-H HPlcmt-east ZN NECB System 3 PSZ Occ Sch Saturday, !- Saturday Schedule:Day Name\n   *************  16022   Sp-PatRoom3_Mult10_Flr_4 Sys-3 Flr-3 Sch-H HPlcmt-east ZN NECB System 3 PSZ Occ Sch Default, !- Holiday Schedule:Day Name\n   *************  16023   Sp-PatRoom3_Mult10_Flr_4 Sys-3 Flr-3 Sch-H HPlcmt-east ZN NECB System 3 PSZ Occ Sch Summer Design Day, !- SummerDesignDay Schedule:Day Name\n   *************  16024   Sp-PatRoom3_Mult10_Flr_4 Sys-3 Flr-3 Sch-H HPlcmt-east ZN NECB System 3 PSZ Occ Sch Winter Design Day, !- WinterDesignDay Schedule:Day Name\n   ** Warning ** IP: IDF line~16024 Alpha Argument length exceeds maximum, will be truncated=  Sp-PatRoom3_Mult10_Flr_4 Sys-3 Flr-3 Sch-H HPlcmt-east ZN NECB System 3 PSZ Occ Sch Winter Design Da\n   **   ~~~   ** Will be processed as Alpha=SP-PATROOM3_MULT10_FLR_4 SYS-3 FLR-3 SCH-H HPLCMT-EAST ZN NECB SYSTEM 3 PSZ OCC SCH WINTER DESIGN DAY\n   ************* IDF Context for following error/warning message:\n   ************* Note -- lines truncated at 300 characters, if necessary...\n   *************  16044 Schedule:Day:Interval,\n   ************* indicated Name=Sp-PatRoom3_Mult10_Flr_4 Sys-3 Flr-3 Sch-H HPlcmt-east ZN NECB System 3 PSZ Occ Sch Summer Design Day\n   ************* Only last 1 lines before error line shown.....\n   *************  16045   Sp-PatRoom3_Mult10_Flr_4 Sys-3 Flr-3 Sch-H HPlcmt-east ZN NECB System 3 PSZ Occ Sch Summer Design Day, !- Name\n   ** Warning ** IP: IDF line~16045 Alpha Argument length exceeds maximum, will be truncated=  Sp-PatRoom3_Mult10_Flr_4 Sys-3 Flr-3 Sch-H HPlcmt-east ZN NECB System 3 PSZ Occ Sch Summer Design Da\n   **   ~~~   ** Will be processed as Alpha=SP-PATROOM3_MULT10_FLR_4 SYS-3 FLR-3 SCH-H HPLCMT-EAST ZN NECB SYSTEM 3 PSZ OCC SCH SUMMER DESIGN DAY\n   ************* IDF Context for following error/warning message:\n   ************* Note -- lines truncated at 300 characters, if necessary...\n   *************  16051 Schedule:Day:Interval,\n   ************* indicated Name=Sp-PatRoom3_Mult10_Flr_4 Sys-3 Flr-3 Sch-H HPlcmt-east ZN NECB System 3 PSZ Occ Sch Winter Design Day\n   ************* Only last 1 lines before error line shown.....\n   *************  16052   Sp-PatRoom3_Mult10_Flr_4 Sys-3 Flr-3 Sch-H HPlcmt-east ZN NECB System 3 PSZ Occ Sch Winter Design Day, !- Name\n   ** Warning ** IP: IDF line~16052 Alpha Argument length exceeds maximum, will be truncated=  Sp-PatRoom3_Mult10_Flr_4 Sys-3 Flr-3 Sch-H HPlcmt-east ZN NECB System 3 PSZ Occ Sch Winter Design Da\n   **   ~~~   ** Will be processed as Alpha=SP-PATROOM3_MULT10_FLR_4 SYS-3 FLR-3 SCH-H HPLCMT-EAST ZN NECB SYSTEM 3 PSZ OCC SCH WINTER DESIGN DAY\n   ************* IDF Context for following error/warning message:\n   ************* Note -- lines truncated at 300 characters, if necessary...\n   *************  16918 Schedule:Week:Daily,\n   ************* indicated Name=Schedule:Week:Daily {9eaa8c30-6c2c-4738-ba6e-615d819779a4}\n   ************* Only last 10 lines before error line shown.....\n   *************  16919   Schedule:Week:Daily {9eaa8c30-6c2c-4738-ba6e-615d819779a4}, !- Name\n   *************  16920   Sp-PatRoom5_Mult10_Flr_3 Sys-3 Flr-2 Sch-H HPlcmt-north ZN NECB System 3 PSZ Occ Sch Sunday, !- Sunday Schedule:Day Name\n   *************  16921   Sp-PatRoom5_Mult10_Flr_3 Sys-3 Flr-2 Sch-H HPlcmt-north ZN NECB System 3 PSZ Occ Sch Monday, !- Monday Schedule:Day Name\n   *************  16922   Sp-PatRoom5_Mult10_Flr_3 Sys-3 Flr-2 Sch-H HPlcmt-north ZN NECB System 3 PSZ Occ Sch Tuesday, !- Tuesday Schedule:Day Name\n   *************  16923   Sp-PatRoom5_Mult10_Flr_3 Sys-3 Flr-2 Sch-H HPlcmt-north ZN NECB System 3 PSZ Occ Sch Wednesday, !- Wednesday Schedule:Day Name\n   *************  16924   Sp-PatRoom5_Mult10_Flr_3 Sys-3 Flr-2 Sch-H HPlcmt-north ZN NECB System 3 PSZ Occ Sch Thursday, !- Thursday Schedule:Day Name\n   *************  16925   Sp-PatRoom5_Mult10_Flr_3 Sys-3 Flr-2 Sch-H HPlcmt-north ZN NECB System 3 PSZ Occ Sch Friday, !- Friday Schedule:Day Name\n   *************  16926   Sp-PatRoom5_Mult10_Flr_3 Sys-3 Flr-2 Sch-H HPlcmt-north ZN NECB System 3 PSZ Occ Sch Saturday, !- Saturday Schedule:Day Name\n   *************  16927   Sp-PatRoom5_Mult10_Flr_3 Sys-3 Flr-2 Sch-H HPlcmt-north ZN NECB System 3 PSZ Occ Sch Default, !- Holiday Schedule:Day Name\n   *************  16928   Sp-PatRoom5_Mult10_Flr_3 Sys-3 Flr-2 Sch-H HPlcmt-north ZN NECB System 3 PSZ Occ Sch Summer Design Day, !- SummerDesignDay Schedule:Day Name\n   ** Warning ** IP: IDF line~16928 Alpha Argument length exceeds maximum, will be truncated=  Sp-PatRoom5_Mult10_Flr_3 Sys-3 Flr-2 Sch-H HPlcmt-north ZN NECB System 3 PSZ Occ Sch Summer Design Da\n   **   ~~~   ** Will be processed as Alpha=SP-PATROOM5_MULT10_FLR_3 SYS-3 FLR-2 SCH-H HPLCMT-NORTH ZN NECB SYSTEM 3 PSZ OCC SCH SUMMER DESIGN DAY\n   ************* IDF Context for following error/warning message:\n   ************* Note -- lines truncated at 300 characters, if necessary...\n   *************  16918 Schedule:Week:Daily,\n   ************* indicated Name=Schedule:Week:Daily {9eaa8c30-6c2c-4738-ba6e-615d819779a4}\n   ************* Only last 10 lines before error line shown.....\n   *************  16920   Sp-PatRoom5_Mult10_Flr_3 Sys-3 Flr-2 Sch-H HPlcmt-north ZN NECB System 3 PSZ Occ Sch Sunday, !- Sunday Schedule:Day Name\n   *************  16921   Sp-PatRoom5_Mult10_Flr_3 Sys-3 Flr-2 Sch-H HPlcmt-north ZN NECB System 3 PSZ Occ Sch Monday, !- Monday Schedule:Day Name\n   *************  16922   Sp-PatRoom5_Mult10_Flr_3 Sys-3 Flr-2 Sch-H HPlcmt-north ZN NECB System 3 PSZ Occ Sch Tuesday, !- Tuesday Schedule:Day Name\n   *************  16923   Sp-PatRoom5_Mult10_Flr_3 Sys-3 Flr-2 Sch-H HPlcmt-north ZN NECB System 3 PSZ Occ Sch Wednesday, !- Wednesday Schedule:Day Name\n   *************  16924   Sp-PatRoom5_Mult10_Flr_3 Sys-3 Flr-2 Sch-H HPlcmt-north ZN NECB System 3 PSZ Occ Sch Thursday, !- Thursday Schedule:Day Name\n   *************  16925   Sp-PatRoom5_Mult10_Flr_3 Sys-3 Flr-2 Sch-H HPlcmt-north ZN NECB System 3 PSZ Occ Sch Friday, !- Friday Schedule:Day Name\n   *************  16926   Sp-PatRoom5_Mult10_Flr_3 Sys-3 Flr-2 Sch-H HPlcmt-north ZN NECB System 3 PSZ Occ Sch Saturday, !- Saturday Schedule:Day Name\n   *************  16927   Sp-PatRoom5_Mult10_Flr_3 Sys-3 Flr-2 Sch-H HPlcmt-north ZN NECB System 3 PSZ Occ Sch Default, !- Holiday Schedule:Day Name\n   *************  16928   Sp-PatRoom5_Mult10_Flr_3 Sys-3 Flr-2 Sch-H HPlcmt-north ZN NECB System 3 PSZ Occ Sch Summer Design Day, !- SummerDesignDay Schedule:Day Name\n   *************  16929   Sp-PatRoom5_Mult10_Flr_3 Sys-3 Flr-2 Sch-H HPlcmt-north ZN NECB System 3 PSZ Occ Sch Winter Design Day, !- WinterDesignDay Schedule:Day Name\n   ** Warning ** IP: IDF line~16929 Alpha Argument length exceeds maximum, will be truncated=  Sp-PatRoom5_Mult10_Flr_3 Sys-3 Flr-2 Sch-H HPlcmt-north ZN NECB System 3 PSZ Occ Sch Winter Design Da\n   **   ~~~   ** Will be processed as Alpha=SP-PATROOM5_MULT10_FLR_3 SYS-3 FLR-2 SCH-H HPLCMT-NORTH ZN NECB SYSTEM 3 PSZ OCC SCH WINTER DESIGN DAY\n   ************* IDF Context for following error/warning message:\n   ************* Note -- lines truncated at 300 characters, if necessary...\n   *************  16949 Schedule:Day:Interval,\n   ************* indicated Name=Sp-PatRoom5_Mult10_Flr_3 Sys-3 Flr-2 Sch-H HPlcmt-north ZN NECB System 3 PSZ Occ Sch Summer Design Day\n   ************* Only last 1 lines before error line shown.....\n   *************  16950   Sp-PatRoom5_Mult10_Flr_3 Sys-3 Flr-2 Sch-H HPlcmt-north ZN NECB System 3 PSZ Occ Sch Summer Design Day, !- Name\n   ** Warning ** IP: IDF line~16950 Alpha Argument length exceeds maximum, will be truncated=  Sp-PatRoom5_Mult10_Flr_3 Sys-3 Flr-2 Sch-H HPlcmt-north ZN NECB System 3 PSZ Occ Sch Summer Design Da\n   **   ~~~   ** Will be processed as Alpha=SP-PATROOM5_MULT10_FLR_3 SYS-3 FLR-2 SCH-H HPLCMT-NORTH ZN NECB SYSTEM 3 PSZ OCC SCH SUMMER DESIGN DAY\n   ************* IDF Context for following error/warning message:\n   ************* Note -- lines truncated at 300 characters, if necessary...\n   *************  16956 Schedule:Day:Interval,\n   ************* indicated Name=Sp-PatRoom5_Mult10_Flr_3 Sys-3 Flr-2 Sch-H HPlcmt-north ZN NECB System 3 PSZ Occ Sch Winter Design Day\n   ************* Only last 1 lines before error line shown.....\n   *************  16957   Sp-PatRoom5_Mult10_Flr_3 Sys-3 Flr-2 Sch-H HPlcmt-north ZN NECB System 3 PSZ Occ Sch Winter Design Day, !- Name\n   ** Warning ** IP: IDF line~16957 Alpha Argument length exceeds maximum, will be truncated=  Sp-PatRoom5_Mult10_Flr_3 Sys-3 Flr-2 Sch-H HPlcmt-north ZN NECB System 3 PSZ Occ Sch Winter Design Da\n   **   ~~~   ** Will be processed as Alpha=SP-PATROOM5_MULT10_FLR_3 SYS-3 FLR-2 SCH-H HPLCMT-NORTH ZN NECB SYSTEM 3 PSZ OCC SCH WINTER DESIGN DAY\n   ************* IDF Context for following error/warning message:\n   ************* Note -- lines truncated at 300 characters, if necessary...\n   *************  17261 Schedule:Week:Daily,\n   ************* indicated Name=Schedule:Week:Daily {fddaf3cd-e550-4716-8b7e-3f3601775571}\n   ************* Only last 10 lines before error line shown.....\n   *************  17262   Schedule:Week:Daily {fddaf3cd-e550-4716-8b7e-3f3601775571}, !- Name\n   *************  17263   Sp-PatRoom5_Mult10_Flr_4 Sys-3 Flr-3 Sch-H HPlcmt-north ZN NECB System 3 PSZ Occ Sch Sunday, !- Sunday Schedule:Day Name\n   *************  17264   Sp-PatRoom5_Mult10_Flr_4 Sys-3 Flr-3 Sch-H HPlcmt-north ZN NECB System 3 PSZ Occ Sch Monday, !- Monday Schedule:Day Name\n   *************  17265   Sp-PatRoom5_Mult10_Flr_4 Sys-3 Flr-3 Sch-H HPlcmt-north ZN NECB System 3 PSZ Occ Sch Tuesday, !- Tuesday Schedule:Day Name\n   *************  17266   Sp-PatRoom5_Mult10_Flr_4 Sys-3 Flr-3 Sch-H HPlcmt-north ZN NECB System 3 PSZ Occ Sch Wednesday, !- Wednesday Schedule:Day Name\n   *************  17267   Sp-PatRoom5_Mult10_Flr_4 Sys-3 Flr-3 Sch-H HPlcmt-north ZN NECB System 3 PSZ Occ Sch Thursday, !- Thursday Schedule:Day Name\n   *************  17268   Sp-PatRoom5_Mult10_Flr_4 Sys-3 Flr-3 Sch-H HPlcmt-north ZN NECB System 3 PSZ Occ Sch Friday, !- Friday Schedule:Day Name\n   *************  17269   Sp-PatRoom5_Mult10_Flr_4 Sys-3 Flr-3 Sch-H HPlcmt-north ZN NECB System 3 PSZ Occ Sch Saturday, !- Saturday Schedule:Day Name\n   *************  17270   Sp-PatRoom5_Mult10_Flr_4 Sys-3 Flr-3 Sch-H HPlcmt-north ZN NECB System 3 PSZ Occ Sch Default, !- Holiday Schedule:Day Name\n   *************  17271   Sp-PatRoom5_Mult10_Flr_4 Sys-3 Flr-3 Sch-H HPlcmt-north ZN NECB System 3 PSZ Occ Sch Summer Design Day, !- SummerDesignDay Schedule:Day Name\n   ** Warning ** IP: IDF line~17271 Alpha Argument length exceeds maximum, will be truncated=  Sp-PatRoom5_Mult10_Flr_4 Sys-3 Flr-3 Sch-H HPlcmt-north ZN NECB System 3 PSZ Occ Sch Summer Design Da\n   **   ~~~   ** Will be processed as Alpha=SP-PATROOM5_MULT10_FLR_4 SYS-3 FLR-3 SCH-H HPLCMT-NORTH ZN NECB SYSTEM 3 PSZ OCC SCH SUMMER DESIGN DAY\n   ************* IDF Context for following error/warning message:\n   ************* Note -- lines truncated at 300 characters, if necessary...\n   *************  17261 Schedule:Week:Daily,\n   ************* indicated Name=Schedule:Week:Daily {fddaf3cd-e550-4716-8b7e-3f3601775571}\n   ************* Only last 10 lines before error line shown.....\n   *************  17263   Sp-PatRoom5_Mult10_Flr_4 Sys-3 Flr-3 Sch-H HPlcmt-north ZN NECB System 3 PSZ Occ Sch Sunday, !- Sunday Schedule:Day Name\n   *************  17264   Sp-PatRoom5_Mult10_Flr_4 Sys-3 Flr-3 Sch-H HPlcmt-north ZN NECB System 3 PSZ Occ Sch Monday, !- Monday Schedule:Day Name\n   *************  17265   Sp-PatRoom5_Mult10_Flr_4 Sys-3 Flr-3 Sch-H HPlcmt-north ZN NECB System 3 PSZ Occ Sch Tuesday, !- Tuesday Schedule:Day Name\n   *************  17266   Sp-PatRoom5_Mult10_Flr_4 Sys-3 Flr-3 Sch-H HPlcmt-north ZN NECB System 3 PSZ Occ Sch Wednesday, !- Wednesday Schedule:Day Name\n   *************  17267   Sp-PatRoom5_Mult10_Flr_4 Sys-3 Flr-3 Sch-H HPlcmt-north ZN NECB System 3 PSZ Occ Sch Thursday, !- Thursday Schedule:Day Name\n   *************  17268   Sp-PatRoom5_Mult10_Flr_4 Sys-3 Flr-3 Sch-H HPlcmt-north ZN NECB System 3 PSZ Occ Sch Friday, !- Friday Schedule:Day Name\n   *************  17269   Sp-PatRoom5_Mult10_Flr_4 Sys-3 Flr-3 Sch-H HPlcmt-north ZN NECB System 3 PSZ Occ Sch Saturday, !- Saturday Schedule:Day Name\n   *************  17270   Sp-PatRoom5_Mult10_Flr_4 Sys-3 Flr-3 Sch-H HPlcmt-north ZN NECB System 3 PSZ Occ Sch Default, !- Holiday Schedule:Day Name\n   *************  17271   Sp-PatRoom5_Mult10_Flr_4 Sys-3 Flr-3 Sch-H HPlcmt-north ZN NECB System 3 PSZ Occ Sch Summer Design Day, !- SummerDesignDay Schedule:Day Name\n   *************  17272   Sp-PatRoom5_Mult10_Flr_4 Sys-3 Flr-3 Sch-H HPlcmt-north ZN NECB System 3 PSZ Occ Sch Winter Design Day, !- WinterDesignDay Schedule:Day Name\n   ** Warning ** IP: IDF line~17272 Alpha Argument length exceeds maximum, will be truncated=  Sp-PatRoom5_Mult10_Flr_4 Sys-3 Flr-3 Sch-H HPlcmt-north ZN NECB System 3 PSZ Occ Sch Winter Design Da\n   **   ~~~   ** Will be processed as Alpha=SP-PATROOM5_MULT10_FLR_4 SYS-3 FLR-3 SCH-H HPLCMT-NORTH ZN NECB SYSTEM 3 PSZ OCC SCH WINTER DESIGN DAY\n   ************* IDF Context for following error/warning message:\n   ************* Note -- lines truncated at 300 characters, if necessary...\n   *************  17292 Schedule:Day:Interval,\n   ************* indicated Name=Sp-PatRoom5_Mult10_Flr_4 Sys-3 Flr-3 Sch-H HPlcmt-north ZN NECB System 3 PSZ Occ Sch Summer Design Day\n   ************* Only last 1 lines before error line shown.....\n   *************  17293   Sp-PatRoom5_Mult10_Flr_4 Sys-3 Flr-3 Sch-H HPlcmt-north ZN NECB System 3 PSZ Occ Sch Summer Design Day, !- Name\n   ** Warning ** IP: IDF line~17293 Alpha Argument length exceeds maximum, will be truncated=  Sp-PatRoom5_Mult10_Flr_4 S
[...]
MzSpFjD5FZTbP1wcNDvn55ufefCM8ABDnCAAxzgAAc4wAEOcIDz98QR2Xxa/AosAqlOisBfKKJUBqABDWhAAxrQgAY0oAENaEADGj3NXflfs/5Ecx3NJXCAAxzgAAc4wAEOcIADHOAAZxOcx+8Geuq7gYM59d3Arlf+he3kZHf38BCkIAUpSEEKUpCCFKQgBSlIQQpSkL4O0k5J6ucUabsk7XY7nYM9kIIUpCAFKUhBClKQghSkIAUpSEH6Oki7ivQsDQnSzmFJ6nn7+90uSEEKUpCCFKQgBSlIQQpSkIIUpCB9HaS7ivTzZE6RHpSkh8XRewtSkIIUpCAFKUhBClKQghSkIAUpSF8HaU+R/i4DinS/JH33rt/f3wcpSEEKUpCCFKQgBSlIQQpSkIIUpK+DdK98MjGXFOleSdrv7+2BFKQgBSlIQQpSkIIUpCAFKUhBCtLXQrqvSD8kVGXBTq8kPTjodHo9kIIUpCAFKUhBClKQghSkIAUpSEFqjXSNEqT+XaPS2b2bh3kkBxN/Jt1c3ueNrffJPM2qMRZ/bfkunMo4C5M4klnpocLFzo44CQLhi9KTuAvziciSqRRBt6Jldjt2/dlMxkHDUdrOdkWD9eH6eZ42nHunKfbaho0WRaNO/UZZvojkEq/lx8NJkhbtnUiODGhXPkZJnLfuZDie5MrHdRIF9X0sx2Ywa33y84skme5ffZhHude+OovSq10xWGStrih+Lv4dDCet9+L9p2g4VXpZLr58FB9P+2/VVbmciq74NPgizodDdenWtm6A3+xkwzSc5f8ir3mzE4S3L5vJNrSzwpcIg2NnqGZ/v+gwP4xletXxeo4ou/HYCcJsFvmLozCOClvrOkqG335yaMDC6/IeRL6YFe1VT+7c+Lf+8qy2pTpu/VTNVHEsgnA6i6Qby7vB7bjh/PACZFPsttvlP5Whp/wGfu4Xji//cCL/WkbOkRPIkV8MrJilySiMpNNcWq7unSPPbTedWz+ay9XPQ7VCFW2KRaffPz11Hpq1/HSY/HSZ/Owy+ekx+dlj8rPP5OeAyc8hkx+vzeWIa0Z7XFPa45rTHtek9rhmtcc1rT2uee1xTWyPa2Z3uGZ2h22t5prZHa6Z3TGa2SKbT6fPPllda0dLZWDghuwjMzdkD5m5IfvHzA0Z92ZuyKg3c0PGvJkbMuLN3JDxbuaG3sgM/TDNY3obM/TDNJPpTczQD9NcprcwQz9Ms5newAz9MM1nevsy9MO1LjPNZ3rvMvRTfz7fhXFuvm1dq1P1/ZDdY+iH7B5DP2T3GPohw93QDxnuhn7IcDf0Q4a7oR8y3A390PuXqSOuGU3vYKaOuOY0vYeZOuKa1fQuZuqIa17T+5ipI66ZTe9kpo7Y1mqumU1vZqaO6s/sx79hVH5jmNrm2s9+0Vt+hJhBovP9JbrfX2L3+0v0vr/E3veX2P/+EgffX+Lw+0s829m/l4aF+NY8mOXToJ9s8WnQD734NOgnvXwa9ENgPg36+TCfBv3omE+DfqrMt/9ZiPOOjX3cwkbesbCTdzbbyis/5VgvrVp+65FBgh4NNgl6MNgk6LFgk6DTKjYJOq1ik6DTKjYJOq1ik6DTKjYJzV+u+TToP/3xadBpFZ8GnVbxadBpFZ8GnVbxadBpFZ8GnVbxadBpFZ8GnVbx7X8W4lzzJ34+DQsbuSat4tPYbCuv/GJWvbRq+UktBgl6NNgk6MFgk6DHgk2CTqvYJOi0ik2CTqvYJOi0ik2CTqvYJDRpFZ8GvdzyadBpFZ8GnVbxadBpFZ8GnVbxadBpFZ8GnVbxadBpFZ8GnVbx7X8W4lyTVvFpWNjINWkVn8ZmW3nlh0nqpVXLL5cwSNCjwSZBDwabBD0WbBJ0WsUmQadVbBJ0WsUmQadVbBJ0WsUmoUmr+DTo5ZZPg06r+DTotIpPg06r+DTotIpPg06r+DTotIpPg06r+DTotIpv/7MQ55q0ik/DwkauSav4NDbbyivrv9dLq5YF4hkk6NFgk6AHg02CHgs2CTqtYpOg0yo2CTqtYpOg0yo2CTqtYpPQpFV8GvRyy6dBp1V8GnRaxadBp1V8GnRaxadBp1V8GnRaxadBp1V8GnRaxbf/WYhzTVrFp2FhI9ekVXwam23llWV266VVyzq8DBL0aLBJ0IPBJkGPBZsEnVaxSdBpFZsEnVaxSdBpFZsEnVaxSWjSKj4Nernl06DTKj4NOq3i06DTKj4NOq3i06DTKj4NOq3i06DTKj4NOq3i2/8sxLkmreLTsLCRa9IqPo3NtvLKaob10qpluUMGCXo02CTowWCToMeCTYJOq9gk6LSKTYJOq9gk6LSKTYJOq9gktMXWuDTo5ZZPQ1fIiktDV+OKS0NX/opLQ1fzjUtDVw6OS0NXKY5LQ1dEjktDV1+Oa/+zEOfaqnRcGhY2ck1axadRvZV/rVPhdVXIWRyLWN6tK8iWhWMb2e24WVaArSwVu64Gncn8bTKPg6zRazeF5/Waoqt+6vTqlZu9LzAei1wHQd/P5ThJFyf3Ybaspvx4/zVKThcOztNAphdzVdy4dkPFsXjO8UH62TyVSwxVn3nV79+53DfMMMMMM8wwwwwzzDDDDDPMMMMMM8wwwwwzzDDDDDPMMMMMM8wwwwwzzDDDDDPMMMMMM8wwwwwzzDDDDDPMMMMMM8wwwwwzzH8r88JNbmWahoH84KsXaz23/X++r6pejc2evxo7kGkos9XrtU5z/QLxLEpyNwpjWfmKbPbSe7rVb9Zmbvnp+VkS+XmYxAWUk+Vy1rqWoySVTr03n3+VYxkHz29oea6x126Krnpzua1eZFb/OJEc5QqswvXarXs1lvlpnKv+KSRG83hYkja2xR8VLtaE8rH1ZeW73OoIR6KRT8LMzcpRqSekjieN3KL/Tv3hpPE/YFNva3z16njBvvJ7NUuyUDl8V5yuczfrQ7l5gSpN7syQ1lhhHEgVDy2vadh6fdxs2nAUykjNt8aqT5dxMk6T+UwG4scfxT9W5+/dq4mfrd5/VwG2/dS6eNFadIjrj8dnSsONZDzOJ+KN6Ih/C+ckihxx9PyKLAqHstHyti/bX7cr4+0vd5KkonFT3Er7J3FTyKym6kpXnftnseKYD5A61DRe+bu8+ep+kwtxfHy87LzNPJZeV8N+Y3qr6+M6lf63TRo/GLYxvV711+rujtW0VpNhNVPKQg7ulZ9l4TiWQV+ViMguy578ullXrgd6Ns8mjU3HohjSo+V4bh5JUXRU5y5ddeWmKlmeJt9kPZ3ltZsqJTN/GOaLelKrize+q1JiLbWpl/VC8nxZ2SQ8jBcfdazD+fnCI1rCM/VmEm71WR+a5a5a6/qHqpxCHTs74tNvn8V/zn+7EIPzi8+/fPxZ/Hr+8y998f704rSeg7Ni1Zb3vkrRRJ6ILElzEc+nxTwYirKkSSb8bFgkL2E8ruFx3ffKz5Od2W+K6/qLSyrzeRqLmZ9m8ixK/LzhqyV/uxjKJ+euy3O1OrM6RXsiu7qFKscP37fSy2P+WYZ7GeyNrUCO/HmUi1maFGuY3GqKrR8ODvr909Ot71x4BjjAAQ5wgAMc4AAHOMABDnD+njgim0+LX4FFINVJEfgLRZTKADSgAQ1oQAMa0IAGNKABDWhAo6e5K/9r1p9orqO5BA5wgAMc4AAHOMABDnCAAxzgbILz+N1AT303cDCnvhvY9cq/sJ2c7O4eHoIUpCAFKUhBClKQghSkIAUpSEEK0tdB2ilJ/ZwibZek3W6nc7AHUpCCFKQgBSlIQQpSkIIUpCAFKUhfB2lXkZ6lIUHaOSxJPW9/v9sFKUhBClKQghSkIAUpSEEKUpCCFKSvg3RXkX6ezCnSg5L0sDh6b0EKUpCCFKQgBSlIQQpSkIIUpCAF6esg7SnS32VAke6XpO/e9fv7+yAFKUhBClKQghSkIAUpSEEKUpCC9HWQ7pVPJuaSIt0rSfv9vT2QghSkIAUpSEEKUpCCFKQgBSlIQfpaSPcV6YeEqizY6ZWkBwedTq8HUpCCFKQgBSlIQQpSkIIUpCAFKUitka5RgtS/a1Q6u3fzMI/kYOLPpJvL+7yx9T6Zp1k1xuKvLd+FUxlnYRJHMis9VLjY2REnQSB8UXoSd2E+EVkylSLoVrTMbseuP5vJOGg4StvZrmiwPlw/z9OGc+80xV7bsNGiaNSp3yjLF5Fc4rX8eDhJ0qK9E8mRAe3KxyiJ89adDMeTXPm4TqKgvo/l2AxmrU+TRfZ5IlN/trg6i9KrrhgsslZXFD+3OmIwnLT64v2naDjNW8MkleLLR/HxtP9WXZXLqeiKT4Mv4nw4VJdubesG981ONkzDWf4v8po3O0F4+7KZbEM7K3yJMDh2hmrm94vO8sNYplcdb88RZRceO8F/2zvfpsaNbeu/fz5FR6nKmIoxloz5l+GkiAcyuZUJKZic1LnUFCWsxhYjJJckA64U3/1RyzLBGbbcLW8ph9ylF4R4W2v9JPXu3oOsbT+ZBO7swA+DLLZ5FUTDz99ZNGCmOj8Gkc4m2f7qLG7duHfu/NXSPdV258ZqlIpD4fm3k0B2Qnl/fjdqWV+/ANkW291u/mNl2ildz03dTPjiDytwr2RgHVievHanQSomcXTtB9JqzyOXD9aB3em2rTs3mMri96GanbJ9sglnMDg+th7bWjoOk06PSWebSafPpLPDpLPLpLPHpLPPpGN3uYS4RrTNNaRtrjFtcw1qm2tU21zD2uYa1zbXwLa5RrbDNbIdtrmaa2Q7XCPbMRrZIpne3i59XbXWihZLz0CGPEdmMuQZMpMhz4+ZDJn3ZjJk1pvJkDlvJkNmvJkMme9mMvRCZqjDNI7pZcxQh2kk04uYoQ7TWKaXMEMdptFML2CGOkzjmV6+DHW45mWm8UyvXYY6+uP53g9T82XrSr2kr0OeHkMd8vQY6pCnx1CHTHdDHTLdDXXIdDfUIdPdUIdMd0Mdev0yFeIa0fQKZirENabpNcxUiGtU06uYqRDXuKbXMVMhrpFNr2SmQmxzNdfIphczUyH9kf10/2Ll9wvr/b1x/gXEDBb0v27ZLOh/97JZ0P8iZrOg/wrEZkH/fYjNgv7LEZsF/TclNgv6r01sFiV/YuXzaCC/S/4wy+fRQIaX/DmXz6OBHC/5IzCfRwNZXvKnYz6PBvK85A/OfB5NrOMN5HnJX7D5PKrl+cqvcdQrq+bf88hgQV8NNgv6YrBZ0NeCzYKectks6BmXzYKecNks6PmWzYKebtksSsoqPo8G8rukrOLzaCDDS8oqPo8GcrykrOLzaCDLS8oqPo8G8rykrOLzaGIdbyDPS8oqPo9qeb7y27L0yqr512kxWNBXg82CvhhsFvS1YLOgp1w2C3rGZbOgJ1w2C3q+ZbOgp1s2i5Kyis+jgfwuKav4PBrI8JKyis+jgRwvKav4PBrI8pKyis+jgTwvKav4PJpYxxvI85Kyis+jWp6v/FISvbJq/q0lDBb01WCzoC8GmwV9Ldgs6CmXzYKecdks6AmXzYKeb9ks6OmWzaKkrOLzaCC/S8oqPo8GMrykrOLzaCDHS8oqPo8GsrykrOLzaCDPS8oqPo8m1vEG8rykrOLzqJbnK3u/65VV8+bwDBb01WCzoC8GmwV9Ldgs6CmXzYKecdks6AmXzYKeb9ks6OmWzaKkrOLzaCC/S8oqPo8GMrykrOLzaCDHS8oqPo8GsrykrOLzaCDPS8oqPo8m1vEG8rykrOLzqJbnK1vs6pVV8x68DBb01WCzoC8GmwV9Ldgs6CmXzYKecdks6AmXzYKeb9ks6OmWzaKkrOLzaCC/S8oqPo8GMrykrOLzaCDHS8oqPo8GsrykrOLzaCDPS8oqPo8m1vEG8rykrOLzqJbnKzsZ6pVV81aHDBZlfW6YLMo64DBZlPXGYbIo6wfFZFHWKYrJoqyHFJNFWXcpJouyvlNMFqXN1rg8Gsjv0hZtXB4NZHhpYzcujwZyvLQdHJdHA1le2kSOy6OBPC9tPcfl0cQ63kCel/ay4/JYneefdDq8Fk2cxaEI5f2ig2zeOLaV3I3aeQfYla1iF52gE5n+EE1DL2n1u21h2/226KnfnL5eu9mHDOOpwbXnDdxUjqJ4dvTgJ/NOyk/Hr9FuOhM4jT0Zn01VY2PtHRXHbJnjg3STaSznGKo3c3Hea271jTDCCCOMMMIII4wwwggjjDDCCCOMMMIII4wwwggjjDDCCCOMMMIII4wwwggjjDDCCCOMMMIII4wwwggjjDDCCCOMMMIII4zwPyo860R3Mo59T35w1YO1dqe75vOq6tHYZPnR2HMZ+zIpHq+12osHiCdBlHYCP5QrH5FNXnpOd/WTtUkn/+r5SRS4qR+FGZSVpHKyeSWvo1haek8+/yxHMvSWD2j+Wmun2xY99eRyVz3IrH5YgbxOFdgK6YVs53Ik0+MwVecns7iehsOctLUh/lghsSCUT3tfrHyWW23+tWilYz/pJPlV0TNS27OdOtn5O3aH49afwKZqC3z16HjGXuheTqLEV4Lvspd1jmaxKZkXqOLo3gxpgeWHnlT5sGm3DfdebDdVd7z2ZaDGW6s4p/M8GcXRdCI98c034qvi9YfO5dhNiuffVYJtPI/OXoxmJ6TjjkYnyqMTyHCUjsVb4YjvhXUUBJY4WH5HEvhD2dq0Ny66nzZW5tsXRxLFonWTHUr3O3GT2RRDtfBVr32bzTjmF0htahgXehc3nzqf5UwcHh7OT141xVy1uOw3poe62K5i6X6usvOj4T6m71fnqzi6QzWs1WAoRkreyKFz6SaJPwqlN1AtIpKL/Ex+qnYqFxd6Mk3GrarXIrukB/PrWT2TguBA5yg76p1VXZI0jj5LPZ/5e6s6RRN36KczPavizZWPKrdYWFVVWUwky9NKlfQwnnzUtkjn5YlHbArbVM0k3fRZH9v5qqr1/sdVNYXatrbEr799FP85/e1MnJ+effzplx/Fz6c//jQQ74/PjvUETrJZWz64qkQTaSSSKE5FOL3NxsFQ5C1NEuEmw6x48cORhuLi3CudZyuz2xZX+pNLLNNpHIqJGyfyJIjctOWqKX8ju5TPXrvKX9M6matLtGe2xSGsEn6st9PLU/2Zp3ue7K03nrx2p0EqJnGUzWHyTVu8+XpvbzA4Pn5Tc+MZ4AAHOMABDnCAAxzgAAc4wPln4ohkepv9E1h4Ur0oPHemiGLpgQY0oAENaEADGtCABjSgAQ1oymnu849m/YXmKphK4AAHOMABDnCAAxzgAAc4wAFOFZyn7w201fcGnk+p7w3s2fkdtqOj7e39fZCCFKQgBSlIQQpSkIIUpCAFKUhB+jpInZzUTSnSbk7a6znO3g5IQQpSkIIUpCAFKUhBClKQghSkIH0dpD1FehL7BKmzn5Pa9u5urwdSkIIUpCAFKUhBClKQghSkIAUpSF8H6bYi/TieUqR7Oel+tvV/AClIQQpSkIIUpCAFKUhBClKQghSkr4O0r0h/lx5FupuTvns3GOzughSkIAUpSEEKUpCCFKQgBSlIQQrS10G6k/9lYiop0p2cdDDY2QEpSEEKUpCCFKQgBSlIQQpSkIIUpK+FdFeRfoiozoJOPyfd23Ocfh+kIAUpSEEKUpCCFKQgBSlIQQpSkDZGukDxYve+tVLsoZP6aSDPx+5EdlL5kLbevI+mcbIaY/blnu/8WxkmfhQGMskVVkhsbYkjzxOuyJXEvZ+ORRLdSuH1VuyZ3I067mQiQ69lKW9rY8UOi63jpmncsh6sttjpGu40y3Zy9HdK0lkg53ibbjgcR3G2vxXIawPaQuM6CtPNe+mPxqnSuIoCT19jfm3OJ5tnrudnI3M0uzwJ4sttcT5LNnsi+z37eT4cb74X738Nhrfp5jCKpfjfX8Qvx4Mf1LtSeSt64tfz/xWnw6F665uNskv7disZxv4k/Rf5nrdbnn/3cpjchxbLtITvHVpDNe4H2aly/VDGl469a4n8BB5anp9MAnd24IdBFtu8CqLh5+8sGjBTnR+DSGeTbH91Drdu3Dt3/mrpnmq7c2M1RsWh8PzbSSA7obw/vxu1rK9fgGyL7W43/7Ey6ZSu56ZuJnzxhxW4VzKwDixPXrvTIBWTOLr2A2m155HLB+vA7nTb1p0bTKV10O93evvPtl6/bQ3VVJVJZLPPYHB8bD22tWSdemR79chu1yPbr0d2px7Z3Xpk9+qR3a9H1u7WpFtTntk1JZpdU6bZNaWaXVOu2TUlm11Tttk1pZtdU745NeWbU9e6VlO+OTXlm7NOvolkenu79KXgVSqHWHoGqrrn10xV9+yaqeqeWzNV3ZnMTFV3HjNT1Z3FzFR15zAzVd0ZzExVu2AwlK0nu7TLBUPZevJLu1gwlK0nw7RLBUPZenJMu1AwlK0ny7TLBEPZmtawerJMu0YwlK2cZfd+mK5dHlypd+jL6p5aQ1ndU2soq3tqDWV1JzBDWd0JzFBWdwIzlNWdwAxldScwQ1ntOsFUt6Y8064UTHVryjTtWsFUt6Zc064WTHVryjbtesFUt6Z8064YTHXrWtdqyjftosFU1yzfPuncuCjuTIpDEcr7xY2R/H5IK7kbtfMbGyvvgCxubyYy/SGahl7S6nfbwrb7bdFTvzl9vbsoDxnG011bzxu4qRxF8ezowU/mtwefzoXGPdRM4DT2ZHw2VXfrtHdUHLNljg/STaaxnGOoG47FNVj3rnB+Q2rZ6lzGvkwK3MypuCCTIEo76i7ZSsvkpeNeTZp08oE3iQI39aMwg7KSVE42r+R1FEtLbyT9LEcy9JYPaP5aaycbBT01EtRNNVv9KG66rrwfvZDtXI5kehym6vxkFtfTcJiTtjbEHxp3XRWhfNr7YmVuqM2/Fq107CfZuFb76Rmp7dlOnez8HbvDcetPYFO1BX5xj7HQvZxEia8E32Uv6xzNYlMyL1DF0b0Z0gLLDz2pEnfTbhvuvdhuqu547ctAjbdWcU7neTKKo+lEeuKbb8RXxesPncuxmxTziUqwjefR2YvR7IR03NHoRHl0AhmO0rF4KxzxvbCOgsASB8vvSAJ/KFub9sZF99PGynz74kiiWLRuskPpfiduMptiqBa+6rVvD4VtfoHUpoZxoXdx86nzWWbT2+Hh/ORVU8xVi8t+Y3qoi+0qlu7nKjs/Gu5j+n51voqjO1TDWg2GYqTkC2Pncv6JIunlnylKLvIz+anaqVxc6Mk0GbeqXovskh7Mr2f1TAqCA52j7Kh3VnVJ0jj6LPV85u+t6hRN3KGfzvSsijdXPqrcYmFVVWUxkSxPK1XSw3jyUdsinZcnHrEpbFM1k3TTZ31s56uq1vsfV9UUatvaEr/+9lH85/S3M3F+evbxp19+FD+f/vjTQLw/PjvWEzjJZm354KoSTaSRSKKskA6nt9k4GIq8REyEmwyz4sUPRxqKi3OvdJ6tzG5bXOlPLrFMp3EoJm6cyJMgctOWq6b8jexSPnvtKn9N62SuLtGe2RaHsEr48W/45Odf7tgWH+9UN2D/lg+iAgc4wAEOcIADHOAABzjAAc6rx/nyky+KKJYeaEADGtCABjSgAQ1oQAMa0ICmnOaLzwQqGvURP+AABzjAAQ5wgAMc4AAHOMABzt/Yb/GjvJ3I2E2nsRStkw10XPzv6rg4nUyCmTjyY6Eu1Cvpmbj3Gnom7qFnonFrA/RMNJdFz0T0TDRvbYCeidV00TMRPRPRMxE9E9EzET0TX5JFz0T0TETPROMyAT0TzWXRMxE9E9Ez0bRMQM/EarromYieieiZiJ6JL9y4QM/EFzjQMxE9EwV6JuphoWcieiZW2dAzUW3omYieifmGnonl70TPxNUCakPPxNfRWgQ4wAEOcIADHOAABzjAAQ5wXj3Of1nHEdCABjSgAQ1oQAMa0IAGNKB5PTT/ZzqdAAc4wAEOcIADHOAABzjAAU51P/RMfHlDz8R5z0Rhv5KuifuvoWvifmNdE/Pfq7ZnYtLpMelsM+n0mXR2mHR2mXT2mHT2mXSWugqsJcQ1om2uIW1zjWmba1DbXKPa5hrWNte4trkGts01sh2uke2wzdVcI9vhGtmO0cjW7+a3JFW9fd8aMuQZqt6gbw0ZMu+rt+BbQ4bM+epN9taQIfN9jTZ66+gwjWN6GVujM946OkxDmV7D1mh2t44O02imF7A1+tetMw8yjWd69VqjJd06OkzjmV66qneZW5JZo63cOjrk6Vmjcdw6OmS6r9Eabh0dMt3XaP62jg6Z7uu0d1tLiGtE0yvYOh3b1hLiGtT0IrZOE7a1hLjGNb2OrdNXba2ZkWtk00vZOq3S1hLiGtn0avaF0K+xH8V+OhO22BSt82m4ofpQ7Wz+jxtudu3N/Pd3crjZs6llrrv0D72jo+3t/X0GC6d+i179Ftv1W/Trt9ip32K3fou9+i3267dYWtnr8mggv+0GEtxuIMPtBlLcbiDH7QaS3G4gy+0G0txuIM+dBvLcaWIdbyDPnQby3KmW507u4aaUR1evrOr1HGdvh8GCvhpsFvTFYLOgrwWbBT3lslnQMy6bBT3hslnQ8y2bBT3dslmUlFV8Hg3kd0lZxefRQIaXlFV8Hg3keElZxefRQJaXlFV8Hg3keUlZxefRxDreQJ6XlFV8HtXyvKc8TmKf8HD29coq297d7fUYLOirwWZBXww2C/pasFnQUy6bBT3jslnQEy6bBT3fslnQn41isyj5QCCfB/2JKj4P+sNWfB7057D4POiPaPF50J9L5POgP7LI50F/mpHPg/6gI59HA3leUlbxeTSxjjewkJeUVXwe1ZbybeXxcTylPPb0yir1nUv9Hxgs6KvBZkFfDDYL+lqwWdBlFZsFXVaxWdBlFZsFXVaxWdDTLZtFSVnF50GXVXwedFnF50GXVXwedFnF50GXVXwedFnF50GXVXwedFnF59FAnpeUVXweTazjDSzkJWUVn0e1pbyvPH6XHuWxq1dWvXs3GOzuMljQV4PNgr4YbBb0tWCzoMsqNgu6rGKzoMsqNgu6rGKzoKdbNouSsorPgy6r+DzosorPgy6r+DzosorPgy6r+DzosorPgy6r+DzosorPo4E8Lymr+DyaWMcbWMhLyio+j2pL+U5euk0l5bGjV1YNBjs7LBb01WCzoC8GmwV9Ldgs6LKKzYIuq9gs6LKKzYIuq9gs6OmWzaKkrOLzoMsqPg+6rOLzoMsqPg+6rOLzoMsqPg+6rOLzoMsqPg+6rOLzaCDPS8oqPo8m1vEGFvKSsorPo9pSvqs8PkTUx+Kdvl5ZtbfnOP0+gwV9Ndgs6IvBZkFfCzYLuqxis6DLKjYLuqxis6DLKjaLsr5TTBalzda4PMq6VXF5lDWy4vIo63HF5VHW/orLo6znG5dHWTs4Lo+yTnFcHmVN5Lg8GsjzkrKKz6OJdbyBhbykrOLzWL2Uf9Lp8Fo0YhaHIpT3iw6yeePYVnI3aucdYFe2il10c05k+kM0Db2k1e+2hW3326KnfnP6eu1mHzKMp07UnjdwUzmK4tnRg5/MeyE/Hb9Gy+hM4DT2ZHw2Va2JtXdUHLNljg/STaaxnGOo7srFea+5JzfCCCOMMMIII4wwwggjjDDCCCOMMMIII4wwwggjjDDCCCOMMMIII4wwwggjjDDCCCOMMMIII4wwwggjjDDCCCOMMMIII4wwwv+o8KwT3ck49j35wVUP1tqd7prPq6pHY5PlR2PPZezLpHi81movHiCeBFHaCfxQrnxENnnpOd3VT9Ymnfyr5ydR4KZ+FGZQVpLKyeaVvI5iaek9+fyzHMnQWz6g+WutnW5b9NSTy131ILP6YQXyOlVgK6QXsp3LkUyPw1Sdn8ziehoOc9LWhvhjhcSCUD7tfbHyWW61+deilY79pJPkV0XPSG3Pdupk5+/YHY5bfwKbqi3w1aPjGXuhezmJEl8Jvste1jmaxaZkXqCKo3szpAWWH3pS5cOm3Tbce7HdVN3x2peBGm+t4pzO82QUR9OJ9MQ334ivitcfOpdjNymef1cJtvE8Onsxmp2QjjsanSiPTiDDUToWb4UjvhfWURBY4mD5HUngD2Vr09646H7aWJlvXxxJFIvWTXYo3e/ETWZTDNXCV732bTbjmF8gtalhXOhd3HzqfJYzcXh4OD951RRz1eKy35ge6mK7iqX7ucrOj4b7mL5fna/i6A7VsFaDoRgpeSOHzqWbJP4olN5AtYhILvIz+anaqVxc6Mk0GbeqXovskh7Mr2f1TAqCA52j7Kh3VnVJ0jj6LPV85u+t6hRN3KGfzvSsijdXPqrcYmFVVWUxkSxPK1XSw3jyUdsinZcnHrEpbFM1k3TTZ31s56uq1vsfV9UUatvaEr/+9lH85/S3M3F+evbxp19+FD+f/vjTQLw/PjvWEzjJZm354KoSTaSRSKI4FeH0NhsHQ5G3NEmEmwyz4sUPRxqKi3OvdJ6tzG5bXOlPLrFMp3EoJm6cyJMgctOWq6b8jexSPnvtKn9N62SuLtGe2RaHsEr4sd5OL0/1Z57uebK33njy2p0GqZjEUTaHyTdt8ebrvb3B4Pj4Tc2NZ4ADHOAABzjAAQ5wgAMc4ADnn4kjkult9k9g4Un1ovDcmSKKpQca0IAGNKABDWhAAxrQgAY0oCmnuc8/mvUXmqtgKoEDHOAABzjAAQ5wgAMc4AAHOFVwnr430FbfG3g+pb43sGfnd9iOjra39/dBClKQghSkIAUpSEEKUpCCFKQgBenrIHVyUjelSLs5aa/nOHs7IAUpSEEKUpCCFKQgBSlIQQpSkIL0dZD2FOlJ7BOkzn5Oatu7u70eSEEKUpCCFKQgBSlIQQpSkIIUpCB9HaTbivTjeEqR7uWk+9nW/wGkIAUpSEEKUpCCFKQgBSlIQQpSkL4O0r4i/V16FOluTvru3WCwuwtSkIIUpCAFKUhBClKQghSkIAUpSF8H6U7+l4mppEh3ctLBYGcHpCAFKUhBClKQghSkIAUpSEEKUpC+FtJdRfohojoLOv2cdG/Pcfp9kIIUpCAFKUhBClKQghSkIAUpSEHaGOkCxYvd+9ZKsYdO6qeBPB+7E9lJ5UPaevM+msbJaozZl3u+829lmPhRGMgkV1ghsbUljjxPuCJXEvd+OhZJdCuF11uxZ3I36riTiQy9lqW8rY0VOyy2jpumcct6sNpip2u40yzbydHfKUlngZzjbbrhcBzF2f5WIK8NaAuN6yhMN++lPxqnSuMqCjx9jfm1+ffRv+cn+EyOpZsKW5wOh+J8OH6zUXaZ3m4lw9ifpP8i3/N2y/PvXg6T+9BimZbwvUNrqMbwIDts1w9lfOk4XUvkJ+PQ8vxkErizAz8MstjmVRANP39n0YCZ6vwYRDqbZPur87F1496581dL91TbnRur8SYOheffTgLZCeX9+d2oZX39AmRbbHe7+Y+VCaR0PTd1M+GLP6zAvZKBdWB58tqdBqmYxNG1H0irPY9cPlgHdqfbtu7cYCqL34dqnsn2yaaOweD42Hpsa+k4TDo9Jp1tJp0+k84Ok84uk84ek84+k47d5RLiGtE215C2uca0zTWoba5RbXMNa5trXNtcA9vmGtkO18h22OZqrpHtcI1sx2hki2R6e7v0xdNaK1osPQMZ8hyZyZBnyEyGPD9mMmTem8mQWW8mQ+a8mQyZ8WYyZL6bydALmaEO0zimlzFDHaaRTC9ihjpMY5lewgx1mEYzvYAZ6jCNZ3r5MtThmpeZxjO9dhnq6I/nez9MzZetK/WSvg55egx1yNNjqEOeHkMdMt0Ndch0N9Qh091Qh0x3Qx0y3Q116PXLVIhrRNMrmKkQ15im1zBTIa5RTa9ipkJc45pex0yFuEY2vZKZCrHN1Vwjm17MTIX0R/bTnYiV3xRMLXPdpX/ozb9KmMHCqd+iV7/Fdv0W/fotduq32K3fYq9+i/36LZZW9ro8Gshvu4EEtxvIcLuBFLcbyHG7gSS3G8hyu4E0txvIc6eBPHeaWMcbyHOngTx3quX5yi9k1Cur5t/YyGBBXw02C/pisFnQ14LNgp5y2SzoGZfNgp5w2Szo+ZbNgp5u2SxKyio+jwbyu6Ss4vNoIMNLyio+jwZyvKSs4vNoIMtLyio+jwbyvKSs4vNoYh1vIM9Lyio+j2p5vvJ7r/TKqvkXYzFY0FeDzYK+GGwW9LVgs6CnXDYLesZls6AnXDYLer5ls6A/G8VmUfKBQD4P+hNVfB70h634POjPYfF50B/R4vOgP5fI50F/ZJHPg/40I58H/UFHPo8G8rzk45F8Hg3kecmHKvk8GljJS8qqMo+VXy+iV1bNv3+EwYIuq9gs6IvBZkFfCzYLuqxis6DLKjYLuqxis6DLKjYLerplsygpq/g86OmWz4Oebvk86LKKz4Muq/g86LKKz4Muq/g86LKKz4Muq/g8GsjzkrKKz6OBPC8pq/g8GljJS8qqMo+VXdz1yqp5m3cGC7qsYrOgLwabBX0t2CzosorNgi6r2CzosorNgi6r2Czo6ZbNoqSs4vOgp1s+D3q65fOgyyo+D7qs4vOgyyo+D7qs4vOgyyo+D7qs4vNoIM9Lyio+jwbyvKSs4vNoYCUvKavKPFY2y9Urq+bddBks6LKKzYK+GGwW9LVgs6DLKjYLuqxis6DLKjYLuqxis6CnWzaLkrKKz4Oebvk86OmWz4Muq/g86LKKz4Muq/g86LKKz4Muq/g86LKKz6OBPC8pq/g8GsjzkrKKz6OBlbykrCrzWNmTUK+smjctZLCgyyo2C/pisFnQ14LNgi6r2CzosorNgi6r2CzosorNoqzvFJNFabM1Lg96uuXzKGtkxeVR1uOKy6Os/RWXR1nPNy6PsnZwXB5lneK4PMqayHF5NJDnpa3nuDwayPPShnVcHg2s5CVl1cLjk06H16IdszgUobxfdJDNG8e2krtRO+8Au7JV7KKncyLTH6Jp6CWtfrctbLvfFj31m9PXazf7kGE8tar2vIGbylEUz44e/GTeE/np+DUaR2cCp7En47OpalGsvaPimC1zfJBuMo3lHEN1WS7Oe81NuxFGGGGEEUYYYYQRRhhhhBFGGGGEEUYYYYQRRhhhhBFGGGGEEUYYYYQRRhhhhBFGGGGEEUYYYYQRRhhhhBFGGGGEEUYYYYQR/keFZ53oTsax78kPrnqw1u5013xeVT0amyw/GnsuY18mxeO1VnvxAPEkiNJO4Idy5SOyyUvP6a5+sjbp5F89P4kCN/WjMIOyklRONq/kdRRLS+/J55/lSIbe8gHNX2vtdNuip55c7qoHmdUPK5DXqQJbIb2Q7VyOZHocpur8ZBbX03CYk7Y2xB8rJBaE8mnvi5XPcqvNvxatdOwnnSS/KnpGanu2Uyc7f8fucNz6E9hUbYGvHh3P2Avdy0mU+ErwXfayztEsNiXzAlUc3ZshLbD80JMqHzbttuHei+2m6o7XvgzUeGsV53SeJ6M4mk6kJ775RnxVvP7QuRy7SfH8u0qwjefR2YvR7IR03NHoRHl0AhmO0rF4KxzxvbCOgsASB8vvSAJ/KFub9sZF99PGynz74kiiWLRuskPpfiduMptiqBa+6rVvsxnH/AKpTQ3jQu/i5lPns5yJw8PD+cmrppirFpf9xvRQF9tVLN3PVXZ+NNzH9P3qfBVHd6iGtRoMxUjJGzl0Lt0k8Ueh9AaqRURykZ/JT9VO5eJCT6bJuFX1WmSX9GB+PatnUhAc6BxlR72zqkuSxtFnqeczf29Vp2jiDv10pmdVvLnyUeUWC6uqKouJZHlaqZIexpOP2hbpvDzxiE1hm6qZpJs+62M7X1W13v+4qqZQ29aW+PW3j+I/p7+difPTs48//fKj+Pn0x58G4v3x2bGewEk2a8sHV5VoIo1EEsWpCKe32TgYirylSSLcZJgVL3440lBcnHul82xldtviSn9yiWU6jUMxceNEngSRm7ZcNeVvZJfy2WtX+WtaJ3N1ifbMtjiEVcKP9XZ6eao/83TPk731xpPX7jRIxSSOsjlMvmmLN1/v7Q0Gx8dvam48AxzgAAc4wAEOcIADHOAABzj/TByRTG+zfwILT6oXhefOFFEsPdCABjSgAQ1oQAMa0IAGNKABTTnNff7RrL/QXAVTCRzgAAc4wAEOcIADHOAABzjAqYLz9L2BtvrewPMp9b2BPTu/w3Z0tL29vw9SkIIUpCAFKUhBClKQghSkIAUpSF8HqZOTuilF2s1Jez3H2dsBKUhBClKQghSkIAUpSEEKUpCCFKSvg7SnSE9inyB19nNS297d7fVAClKQghSkIAUpSEEKUpCCFKQgBenrIN1WpB/HU4p0Lyfdz7b+DyAFKUhBClKQghSkIAUpSEEKUpCC9HWQ9hXp79KjSHdz0nfvBoPdXZCCFKQgBSlIQQpSkIIUpCAFKUhB+jpId/K/TEwlRbqTkw4GOzsgBSlIQQpSkIIUpCAFKUhBClKQgvS1kO4q0g8R1VnQ6eeke3uO0++DFKQgBSlIQQpSkIIUpCAFKUhBCtLGSBcoXuzet1aKPXRSPw3k+didyE4qH9LWm/fRNE5WY8y+3POdfyvDxI/CQCa5wgqJrS1x5HnCFbmSuPfTsUiiWym83oo9k7tRx51MZOi1LOVtbazYYbF13DSNW9aD1RY7XcOdZtlOjv5OSToL5Bxv0w2H4yjO9rcCeW1AW2hcR2G6eS/90ThVGldR4OlrzK/Nv4/+PT/BZ3Is3VScDofifDh+s1F2kd5uJcPYn6T/It/zdsvz714Ok/vQYpmW8L1Da6hG8CA7aNcPZXzpOLYl8lNxaHl+Mgnc2YEfBlls8yqIhp+/s2jATHV+DCKdTbL91dnYunHv3PmrpXuq7c6N1WgTh8LzbyeB7ITy/vxu1LK+fgGyLba73fzHyvRRup6bupnwxR9W4F7JwDqwPHntToNUTOLo2g+k1Z5HLh+sA7vTbVt3bjCV1sHOfmf/2ba337aGas7JFLJpZDA4PrYe21qqTi2qvVpUt2tR7deiulOL6m4tqnu1qO7Xomp365GtJ7vsetLLrie/7HoSzK4nw+x6UsyuJ8fsepLMrifLnHqyzKlpDasny5x6ssxZI8tEMr29Xfoa7woVQiw9A1HNc2smqnlmzUQ1z6uZqObcZSaqOXOZiWrOW2aimrOWmajmnGUmqlsYGKrWklO6ZYGhai1ZpVsUGKrWkle6JYGhai2ZpVsQGKrWklu65YChaj3rVS25pVsLGKpWza17P0zXLQOu1Bv0VTVPq6Gq5mk1VNU8rYaqmlOWoarmlGWoqjllGapqTlmGqppTlqGqbj1gKltPdulWBKay9eSXbk1gKltPhulWBaay9eSYbl1gKltPlulWBqayNa1h9WSZbnFgKmuUZZ90bjgU9wbFoQjl/eKGRn4fo5Xcjdr5DYmVdy4WNxgTmf4QTUMvafW7bWHb/bboqd+cvt7dj4cM4+m+qecN3FSOonh29OAn8xt0T6dC4y5mJnAaezI+m6r7Zdo7Ko7ZMscH6SbTWM4x1C2/4hKse182v5G0bHUuY18mBW7mVFyQSRClHXV3a6Vl8tJxryZNOvm4m0SBm/pRmEFZSSonm1fyOoqlpTeSfpYjGXrLBzR/rbWTjYKeGgnqZpitfhS3PVfeEV7Idi5HMj0OU3V+MovraTjMSVsb4g+N+56KUD7tfbEyN9TmX4tWOvaTbFyr/fSM1PZsp052/o7d4bj1J7Cp2gK/uDdY6F5OosRXgu+yl3WOZrEpmReo4ujeDGmB5YeeVIm7abcN915sN1V3vPZloMZbqzin8zwZxdF0Ij3xzTfiq+L1h87l2E2K+UQl2Mbz6OzFaHZCOu5odKI8OoEMR+lYvBWO+F5YR0FgiYPldySBP5StTXvjovtpY2W+fXEkUSxaN9mhdL8TN5lNMVQLX/Xat4fCNr9AalPDuNC7uPnU+Syz6e3wcH7yqinmqsVlvzE91MV2FUv3c5WdHw33MX2/Ol/F0R2qYa0GQzFS8oWxczn/TI/08k/1JBf5mfxU7VQuLvRkmoxbVa9FdkkP5tezeiYFwYHOUXbUO6u6JGkcfZZ6PvP3VnWKJu7QT2d6VsWbKx9VbrGwqqqymEiWp5Uq6WE8+ahtkc7LE4/YFLapmkm66bM+tvNVVev9j6tqCrVtbYlff/so/nP625k4Pz37+NMvP4qfT3/8aSDeH58d6wmcZLO2fHBViSbSSCRRVkiH09tsHAxFXiImwk2GWfHihyMNxcW5VzrPVma3La70J5dYptM4FBM3TuRJELlpy1VT/kZ2KZ+9dpW/pnUyV5doz2yLQ1gl/Pg3fPbyLzdgiw9Yqhuqf8tHQYEDHOAABzjAAQ5wgAMc4ADn1eN8+QEXRRRLDzSgAQ1oQAMa0IAGNKABDWhAU07zxUcCFY36iB9wgAMc4AAHOMABDnCAAxzgAOdv7Hj4Ud5OZOym01iK1skGeh7+V/U8/N1VI+69zP9zdHvlyzAV6pKpzofSm2bnf1Psdk9eSRNE5zU0QXQaa4KYP3patQkTk06PSWebSafPpLPDpLPLpLPHpLPPpLPUXWAtIa4RbXMNaZtrTNtcg9rmGtU217C2uca1zTWwba6R7XCNbIdtruYa2Q7XyHaMRrZ+074lqept+taQIc9Q9VZ8a8iQeV+93d4aMmTOV2+pt4YMme9rtM1bR4dpHNPL2BrN8NbRYRrK9Bq2Rou7dXSYRjO9gK3RuG6deZBpPNOr1xrt6NbRYRrP9NJVvcnckswabeXW0SFPzxqt49bRIdN9jfZw6+iQ6b5GC7h1dMh0X6fN21pCXCOaXsHWad62lhDXoKYXsXVasq0lxDWu6XVsnUZra82MXCObXsrWaZ+2lhDXyKZXMzRFexVN0RBGGGGEEUYYYYQRRhhhhBFGGGGEEf5vCs860Z2MY9+TH1z1hyq700VT/GdHgqb4Txua4httaIqPpvgGG5ri/3VDU/y/bmiKb7ihKT6a4r+4oSk+cIADHOAABzjAAQ5wgAMc4ADnNbSUBA1oQAMa0IAGNKABDWhAA5rXQ/N/ppUlcIADHOAABzjAAQ5wgAMc4FT3+xua4r/zb2WY+FEYyCRBS/z/rpb4UfxZHF9f+0NfhsPZUyP8ZlvgF+/+S+T5/y9+n//3Sb345ek/V5E3U/8dp7fBv/7f/wdRZft5"
               },
               {
                  "name" : "annual_peak_electric_demand",
                  "units" : "kW",
                  "value" : 2362.2036400000002
               },
               {
                  "name" : "first_year_capital_cost",
                  "units" : "$",
                  "value" : 0
               },
               {
                  "name" : "annual_utility_cost",
                  "units" : "$",
                  "value" : 0
               },
               {
                  "name" : "total_lifecycle_cost",
                  "units" : "$",
                  "value" : 0
               }
            ],
            "step_warnings" : [ "A table in Annual Overview section returned false and was skipped." ]
         }
      }
   ],
   "updated_at" : "20170710T192903Z",
   "weather_file" : "USA_CO_Denver.Intl.AP.725650_TMY3.epw"
}
