{
   "completed_at" : "20170710T193847Z",
   "completed_status" : "Success",
   "created_at" : "2017-07-10 19:31:49 +0000",
   "current_step" : 5,
   "description" : "",
   "eplusout_err" : "Program Version,EnergyPlus, Version 8.7.0-78a111df4a, YMD=2017.07.10 19:35,IDD_Version 8.7.0\n   ************* IDF Context for following error/warning message:\n   ************* Note -- lines truncated at 300 characters, if necessary...\n   *************      5 Building,\n   ************* indicated Name=NECB 2011-PrimarySchool-NECB HDD Method-CAN_PQ_Sherbrooke.716100_CWEC.epw created: 2017-07-10 19:31:55 +0000\n   ************* Only last 1 lines before error line shown.....\n   *************      6   NECB 2011-PrimarySchool-NECB HDD Method-CAN_PQ_Sherbrooke.716100_CWEC.epw created: 2017-07-10 19:31:55 +0000, !- Name\n   ** Warning ** IP: IDF line~6 Alpha Argument length exceeds maximum, will be truncated=  NECB 2011-PrimarySchool-NECB HDD Method-CAN_PQ_Sherbrooke.716100_CWEC.epw created: 2017-07-10 19:31:55 +000\n   **   ~~~   ** Will be processed as Alpha=NECB 2011-PRIMARYSCHOOL-NECB HDD METHOD-CAN_PQ_SHERBROOKE.716100_CWEC.EPW CREATED: 2017-07-10 19:31:55 +0000\n   ************* IDF Context for following error/warning message:\n   ************* Note -- lines truncated at 300 characters, if necessary...\n   *************   1050 Schedule:Week:Daily,\n   ************* indicated Name=Schedule:Week:Daily {0b91e562-1422-4c07-ae10-6002c805d514}\n   ************* Only last 10 lines before error line shown.....\n   *************   1051   Schedule:Week:Daily {0b91e562-1422-4c07-ae10-6002c805d514}, !- Name\n   *************   1052   Sp-Cafeteria_ZN_1_FLR_1 Sys-3 Flr-1 Sch-C HPlcmt-north ZN NECB System 3 PSZ Occ Sch Sunday, !- Sunday Schedule:Day Name\n   *************   1053   Sp-Cafeteria_ZN_1_FLR_1 Sys-3 Flr-1 Sch-C HPlcmt-north ZN NECB System 3 PSZ Occ Sch Monday, !- Monday Schedule:Day Name\n   *************   1054   Sp-Cafeteria_ZN_1_FLR_1 Sys-3 Flr-1 Sch-C HPlcmt-north ZN NECB System 3 PSZ Occ Sch Tuesday, !- Tuesday Schedule:Day Name\n   *************   1055   Sp-Cafeteria_ZN_1_FLR_1 Sys-3 Flr-1 Sch-C HPlcmt-north ZN NECB System 3 PSZ Occ Sch Wednesday, !- Wednesday Schedule:Day Name\n   *************   1056   Sp-Cafeteria_ZN_1_FLR_1 Sys-3 Flr-1 Sch-C HPlcmt-north ZN NECB System 3 PSZ Occ Sch Thursday, !- Thursday Schedule:Day Name\n   *************   1057   Sp-Cafeteria_ZN_1_FLR_1 Sys-3 Flr-1 Sch-C HPlcmt-north ZN NECB System 3 PSZ Occ Sch Friday, !- Friday Schedule:Day Name\n   *************   1058   Sp-Cafeteria_ZN_1_FLR_1 Sys-3 Flr-1 Sch-C HPlcmt-north ZN NECB System 3 PSZ Occ Sch Saturday, !- Saturday Schedule:Day Name\n   *************   1059   Sp-Cafeteria_ZN_1_FLR_1 Sys-3 Flr-1 Sch-C HPlcmt-north ZN NECB System 3 PSZ Occ Sch Default, !- Holiday Schedule:Day Name\n   *************   1060   Sp-Cafeteria_ZN_1_FLR_1 Sys-3 Flr-1 Sch-C HPlcmt-north ZN NECB System 3 PSZ Occ Sch Summer Design Day, !- SummerDesignDay Schedule:Day Name\n   ** Warning ** IP: IDF line~1060 Alpha Argument length exceeds maximum, will be truncated=  Sp-Cafeteria_ZN_1_FLR_1 Sys-3 Flr-1 Sch-C HPlcmt-north ZN NECB System 3 PSZ Occ Sch Summer Design Da\n   **   ~~~   ** Will be processed as Alpha=SP-CAFETERIA_ZN_1_FLR_1 SYS-3 FLR-1 SCH-C HPLCMT-NORTH ZN NECB SYSTEM 3 PSZ OCC SCH SUMMER DESIGN DAY\n   ************* IDF Context for following error/warning message:\n   ************* Note -- lines truncated at 300 characters, if necessary...\n   *************   1050 Schedule:Week:Daily,\n   ************* indicated Name=Schedule:Week:Daily {0b91e562-1422-4c07-ae10-6002c805d514}\n   ************* Only last 10 lines before error line shown.....\n   *************   1052   Sp-Cafeteria_ZN_1_FLR_1 Sys-3 Flr-1 Sch-C HPlcmt-north ZN NECB System 3 PSZ Occ Sch Sunday, !- Sunday Schedule:Day Name\n   *************   1053   Sp-Cafeteria_ZN_1_FLR_1 Sys-3 Flr-1 Sch-C HPlcmt-north ZN NECB System 3 PSZ Occ Sch Monday, !- Monday Schedule:Day Name\n   *************   1054   Sp-Cafeteria_ZN_1_FLR_1 Sys-3 Flr-1 Sch-C HPlcmt-north ZN NECB System 3 PSZ Occ Sch Tuesday, !- Tuesday Schedule:Day Name\n   *************   1055   Sp-Cafeteria_ZN_1_FLR_1 Sys-3 Flr-1 Sch-C HPlcmt-north ZN NECB System 3 PSZ Occ Sch Wednesday, !- Wednesday Schedule:Day Name\n   *************   1056   Sp-Cafeteria_ZN_1_FLR_1 Sys-3 Flr-1 Sch-C HPlcmt-north ZN NECB System 3 PSZ Occ Sch Thursday, !- Thursday Schedule:Day Name\n   *************   1057   Sp-Cafeteria_ZN_1_FLR_1 Sys-3 Flr-1 Sch-C HPlcmt-north ZN NECB System 3 PSZ Occ Sch Friday, !- Friday Schedule:Day Name\n   *************   1058   Sp-Cafeteria_ZN_1_FLR_1 Sys-3 Flr-1 Sch-C HPlcmt-north ZN NECB System 3 PSZ Occ Sch Saturday, !- Saturday Schedule:Day Name\n   *************   1059   Sp-Cafeteria_ZN_1_FLR_1 Sys-3 Flr-1 Sch-C HPlcmt-north ZN NECB System 3 PSZ Occ Sch Default, !- Holiday Schedule:Day Name\n   *************   1060   Sp-Cafeteria_ZN_1_FLR_1 Sys-3 Flr-1 Sch-C HPlcmt-north ZN NECB System 3 PSZ Occ Sch Summer Design Day, !- SummerDesignDay Schedule:Day Name\n   *************   1061   Sp-Cafeteria_ZN_1_FLR_1 Sys-3 Flr-1 Sch-C HPlcmt-north ZN NECB System 3 PSZ Occ Sch Winter Design Day, !- WinterDesignDay Schedule:Day Name\n   ** Warning ** IP: IDF line~1061 Alpha Argument length exceeds maximum, will be truncated=  Sp-Cafeteria_ZN_1_FLR_1 Sys-3 Flr-1 Sch-C HPlcmt-north ZN NECB System 3 PSZ Occ Sch Winter Design Da\n   **   ~~~   ** Will be processed as Alpha=SP-CAFETERIA_ZN_1_FLR_1 SYS-3 FLR-1 SCH-C HPLCMT-NORTH ZN NECB SYSTEM 3 PSZ OCC SCH WINTER DESIGN DAY\n   ************* IDF Context for following error/warning message:\n   ************* Note -- lines truncated at 300 characters, if necessary...\n   *************   1081 Schedule:Day:Interval,\n   ************* indicated Name=Sp-Cafeteria_ZN_1_FLR_1 Sys-3 Flr-1 Sch-C HPlcmt-north ZN NECB System 3 PSZ Occ Sch Summer Design Day\n   ************* Only last 1 lines before error line shown.....\n   *************   1082   Sp-Cafeteria_ZN_1_FLR_1 Sys-3 Flr-1 Sch-C HPlcmt-north ZN NECB System 3 PSZ Occ Sch Summer Design Day, !- Name\n   ** Warning ** IP: IDF line~1082 Alpha Argument length exceeds maximum, will be truncated=  Sp-Cafeteria_ZN_1_FLR_1 Sys-3 Flr-1 Sch-C HPlcmt-north ZN NECB System 3 PSZ Occ Sch Summer Design Da\n   **   ~~~   ** Will be processed as Alpha=SP-CAFETERIA_ZN_1_FLR_1 SYS-3 FLR-1 SCH-C HPLCMT-NORTH ZN NECB SYSTEM 3 PSZ OCC SCH SUMMER DESIGN DAY\n   ************* IDF Context for following error/warning message:\n   ************* Note -- lines truncated at 300 characters, if necessary...\n   *************   1088 Schedule:Day:Interval,\n   ************* indicated Name=Sp-Cafeteria_ZN_1_FLR_1 Sys-3 Flr-1 Sch-C HPlcmt-north ZN NECB System 3 PSZ Occ Sch Winter Design Day\n   ************* Only last 1 lines before error line shown.....\n   *************   1089   Sp-Cafeteria_ZN_1_FLR_1 Sys-3 Flr-1 Sch-C HPlcmt-north ZN NECB System 3 PSZ Occ Sch Winter Design Day, !- Name\n   ** Warning ** IP: IDF line~1089 Alpha Argument length exceeds maximum, will be truncated=  Sp-Cafeteria_ZN_1_FLR_1 Sys-3 Flr-1 Sch-C HPlcmt-north ZN NECB System 3 PSZ Occ Sch Winter Design Da\n   **   ~~~   ** Will be processed as Alpha=SP-CAFETERIA_ZN_1_FLR_1 SYS-3 FLR-1 SCH-C HPLCMT-NORTH ZN NECB SYSTEM 3 PSZ OCC SCH WINTER DESIGN DAY\n   ************* IDF Context for following error/warning message:\n   ************* Note -- lines truncated at 300 characters, if necessary...\n   *************   1438 Schedule:Week:Daily,\n   ************* indicated Name=Schedule:Week:Daily {c56180e7-cfd6-4795-8636-43008aa139b4}\n   ************* Only last 10 lines before error line shown.....\n   *************   1439   Schedule:Week:Daily {c56180e7-cfd6-4795-8636-43008aa139b4}, !- Name\n   *************   1440   Sp-Computer_Class_ZN_1_FLR_1 Sys-3 Flr-1 Sch-D HPlcmt-north ZN NECB System 3 PSZ Occ Sch Sunday, !- Sunday Schedule:Day Name\n   *************   1441   Sp-Computer_Class_ZN_1_FLR_1 Sys-3 Flr-1 Sch-D HPlcmt-north ZN NECB System 3 PSZ Occ Sch Monday, !- Monday Schedule:Day Name\n   *************   1442   Sp-Computer_Class_ZN_1_FLR_1 Sys-3 Flr-1 Sch-D HPlcmt-north ZN NECB System 3 PSZ Occ Sch Tuesday, !- Tuesday Schedule:Day Name\n   *************   1443   Sp-Computer_Class_ZN_1_FLR_1 Sys-3 Flr-1 Sch-D HPlcmt-north ZN NECB System 3 PSZ Occ Sch Wednesday, !- Wednesday Schedule:Day Name\n   *************   1444   Sp-Computer_Class_ZN_1_FLR_1 Sys-3 Flr-1 Sch-D HPlcmt-north ZN NECB System 3 PSZ Occ Sch Thursday, !- Thursday Schedule:Day Name\n   *************   1445   Sp-Computer_Class_ZN_1_FLR_1 Sys-3 Flr-1 Sch-D HPlcmt-north ZN NECB System 3 PSZ Occ Sch Friday, !- Friday Schedule:Day Name\n   *************   1446   Sp-Computer_Class_ZN_1_FLR_1 Sys-3 Flr-1 Sch-D HPlcmt-north ZN NECB System 3 PSZ Occ Sch Saturday, !- Saturday Schedule:Day Name\n   *************   1447   Sp-Computer_Class_ZN_1_FLR_1 Sys-3 Flr-1 Sch-D HPlcmt-north ZN NECB System 3 PSZ Occ Sch Default, !- Holiday Schedule:Day Name\n   *************   1448   Sp-Computer_Class_ZN_1_FLR_1 Sys-3 Flr-1 Sch-D HPlcmt-north ZN NECB System 3 PSZ Occ Sch Summer Design Day, !- SummerDesignDay Schedule:Day Name\n   ** Warning ** IP: IDF line~1448 Alpha Argument length exceeds maximum, will be truncated=  Sp-Computer_Class_ZN_1_FLR_1 Sys-3 Flr-1 Sch-D HPlcmt-north ZN NECB System 3 PSZ Occ Sch Summer Design Da\n   **   ~~~   ** Will be processed as Alpha=SP-COMPUTER_CLASS_ZN_1_FLR_1 SYS-3 FLR-1 SCH-D HPLCMT-NORTH ZN NECB SYSTEM 3 PSZ OCC SCH SUMMER DESIGN DAY\n   ************* IDF Context for following error/warning message:\n   ************* Note -- lines truncated at 300 characters, if necessary...\n   *************   1438 Schedule:Week:Daily,\n   ************* indicated Name=Schedule:Week:Daily {c56180e7-cfd6-4795-8636-43008aa139b4}\n   ************* Only last 10 lines before error line shown.....\n   *************   1440   Sp-Computer_Class_ZN_1_FLR_1 Sys-3 Flr-1 Sch-D HPlcmt-north ZN NECB System 3 PSZ Occ Sch Sunday, !- Sunday Schedule:Day Name\n   *************   1441   Sp-Computer_Class_ZN_1_FLR_1 Sys-3 Flr-1 Sch-D HPlcmt-north ZN NECB System 3 PSZ Occ Sch Monday, !- Monday Schedule:Day Name\n   *************   1442   Sp-Computer_Class_ZN_1_FLR_1 Sys-3 Flr-1 Sch-D HPlcmt-north ZN NECB System 3 PSZ Occ Sch Tuesday, !- Tuesday Schedule:Day Name\n   *************   1443   Sp-Computer_Class_ZN_1_FLR_1 Sys-3 Flr-1 Sch-D HPlcmt-north ZN NECB System 3 PSZ Occ Sch Wednesday, !- Wednesday Schedule:Day Name\n   *************   1444   Sp-Computer_Class_ZN_1_FLR_1 Sys-3 Flr-1 Sch-D HPlcmt-north ZN NECB System 3 PSZ Occ Sch Thursday, !- Thursday Schedule:Day Name\n   *************   1445   Sp-Computer_Class_ZN_1_FLR_1 Sys-3 Flr-1 Sch-D HPlcmt-north ZN NECB System 3 PSZ Occ Sch Friday, !- Friday Schedule:Day Name\n   *************   1446   Sp-Computer_Class_ZN_1_FLR_1 Sys-3 Flr-1 Sch-D HPlcmt-north ZN NECB System 3 PSZ Occ Sch Saturday, !- Saturday Schedule:Day Name\n   *************   1447   Sp-Computer_Class_ZN_1_FLR_1 Sys-3 Flr-1 Sch-D HPlcmt-north ZN NECB System 3 PSZ Occ Sch Default, !- Holiday Schedule:Day Name\n   *************   1448   Sp-Computer_Class_ZN_1_FLR_1 Sys-3 Flr-1 Sch-D HPlcmt-north ZN NECB System 3 PSZ Occ Sch Summer Design Day, !- SummerDesignDay Schedule:Day Name\n   *************   1449   Sp-Computer_Class_ZN_1_FLR_1 Sys-3 Flr-1 Sch-D HPlcmt-north ZN NECB System 3 PSZ Occ Sch Winter Design Day, !- WinterDesignDay Schedule:Day Name\n   ** Warning ** IP: IDF line~1449 Alpha Argument length exceeds maximum, will be truncated=  Sp-Computer_Class_ZN_1_FLR_1 Sys-3 Flr-1 Sch-D HPlcmt-north ZN NECB System 3 PSZ Occ Sch Winter Design Da\n   **   ~~~   ** Will be processed as Alpha=SP-COMPUTER_CLASS_ZN_1_FLR_1 SYS-3 FLR-1 SCH-D HPLCMT-NORTH ZN NECB SYSTEM 3 PSZ OCC SCH WINTER DESIGN DAY\n   ************* IDF Context for following error/warning message:\n   ************* Note -- lines truncated at 300 characters, if necessary...\n   *************   1469 Schedule:Day:Interval,\n   ************* indicated Name=Sp-Computer_Class_ZN_1_FLR_1 Sys-3 Flr-1 Sch-D HPlcmt-north ZN NECB System 3 PSZ Occ Sch Summer Design Day\n   ************* Only last 1 lines before error line shown.....\n   *************   1470   Sp-Computer_Class_ZN_1_FLR_1 Sys-3 Flr-1 Sch-D HPlcmt-north ZN NECB System 3 PSZ Occ Sch Summer Design Day, !- Name\n   ** Warning ** IP: IDF line~1470 Alpha Argument length exceeds maximum, will be truncated=  Sp-Computer_Class_ZN_1_FLR_1 Sys-3 Flr-1 Sch-D HPlcmt-north ZN NECB System 3 PSZ Occ Sch Summer Design Da\n   **   ~~~   ** Will be processed as Alpha=SP-COMPUTER_CLASS_ZN_1_FLR_1 SYS-3 FLR-1 SCH-D HPLCMT-NORTH ZN NECB SYSTEM 3 PSZ OCC SCH SUMMER DESIGN DAY\n   ************* IDF Context for following error/warning message:\n   ************* Note -- lines truncated at 300 characters, if necessary...\n   *************   1476 Schedule:Day:Interval,\n   ************* indicated Name=Sp-Computer_Class_ZN_1_FLR_1 Sys-3 Flr-1 Sch-D HPlcmt-north ZN NECB System 3 PSZ Occ Sch Winter Design Day\n   ************* Only last 1 lines before error line shown.....\n   *************   1477   Sp-Computer_Class_ZN_1_FLR_1 Sys-3 Flr-1 Sch-D HPlcmt-north ZN NECB System 3 PSZ Occ Sch Winter Design Day, !- Name\n   ** Warning ** IP: IDF line~1477 Alpha Argument length exceeds maximum, will be truncated=  Sp-Computer_Class_ZN_1_FLR_1 Sys-3 Flr-1 Sch-D HPlcmt-north ZN NECB System 3 PSZ Occ Sch Winter Design Da\n   **   ~~~   ** Will be processed as Alpha=SP-COMPUTER_CLASS_ZN_1_FLR_1 SYS-3 FLR-1 SCH-D HPLCMT-NORTH ZN NECB SYSTEM 3 PSZ OCC SCH WINTER DESIGN DAY\n   ************* IDF Context for following error/warning message:\n   ************* Note -- lines truncated at 300 characters, if necessary...\n   *************   1753 Schedule:Day:Interval,\n   ************* indicated Name=Sp-Corner_Class_1_Pod_1_ZN_1_FLR_1 Sys-3 Flr-1 Sch-D HPlcmt-south ZN NECB System 3 PSZ Occ Sch Sunday\n   ************* Only last 1 lines before error line shown.....\n   *************   1754   Sp-Corner_Class_1_Pod_1_ZN_1_FLR_1 Sys-3 Flr-1 Sch-D HPlcmt-south ZN NECB System 3 PSZ Occ Sch Sunday, !- Name\n   ** Warning ** IP: IDF line~1754 Alpha Argument length exceeds maximum, will be truncated=  Sp-Corner_Class_1_Pod_1_ZN_1_FLR_1 Sys-3 Flr-1 Sch-D HPlcmt-south ZN NECB System 3 PSZ Occ Sch Sunda\n   **   ~~~   ** Will be processed as Alpha=SP-CORNER_CLASS_1_POD_1_ZN_1_FLR_1 SYS-3 FLR-1 SCH-D HPLCMT-SOUTH ZN NECB SYSTEM 3 PSZ OCC SCH SUNDAY\n   ************* IDF Context for following error/warning message:\n   ************* Note -- lines truncated at 300 characters, if necessary...\n   *************   1760 Schedule:Day:Interval,\n   ************* indicated Name=Sp-Corner_Class_1_Pod_1_ZN_1_FLR_1 Sys-3 Flr-1 Sch-D HPlcmt-south ZN NECB System 3 PSZ Occ Sch Monday\n   ************* Only last 1 lines before error line shown.....\n   *************   1761   Sp-Corner_Class_1_Pod_1_ZN_1_FLR_1 Sys-3 Flr-1 Sch-D HPlcmt-south ZN NECB System 3 PSZ Occ Sch Monday, !- Name\n   ** Warning ** IP: IDF line~1761 Alpha Argument length exceeds maximum, will be truncated=  Sp-Corner_Class_1_Pod_1_ZN_1_FLR_1 Sys-3 Flr-1 Sch-D HPlcmt-south ZN NECB System 3 PSZ Occ Sch Monda\n   **   ~~~   ** Will be processed as Alpha=SP-CORNER_CLASS_1_POD_1_ZN_1_FLR_1 SYS-3 FLR-1 SCH-D HPLCMT-SOUTH ZN NECB SYSTEM 3 PSZ OCC SCH MONDAY\n   ************* IDF Context for following error/warning message:\n   ************* Note -- lines truncated at 300 characters, if necessary...\n   *************   1775 Schedule:Day:Interval,\n   ************* indicated Name=Sp-Corner_Class_1_Pod_1_ZN_1_FLR_1 Sys-3 Flr-1 Sch-D HPlcmt-south ZN NECB System 3 PSZ Occ Sch Tuesday\n   ************* Only last 1 lines before error line shown.....\n   *************   1776   Sp-Corner_Class_1_Pod_1_ZN_1_FLR_1 Sys-3 Flr-1 Sch-D HPlcmt-south ZN NECB System 3 PSZ Occ Sch Tuesday, !- Name\n   ** Warning ** IP: IDF line~1776 Alpha Argument length exceeds maximum, will be truncated=  Sp-Corner_Class_1_Pod_1_ZN_1_FLR_1 Sys-3 Flr-1 Sch-D HPlcmt-south ZN NECB System 3 PSZ Occ Sch Tuesda\n   **   ~~~   ** Will be processed as Alpha=SP-CORNER_CLASS_1_POD_1_ZN_1_FLR_1 SYS-3 FLR-1 SCH-D HPLCMT-SOUTH ZN NECB SYSTEM 3 PSZ OCC SCH TUESDAY\n   ************* IDF Context for following error/warning message:\n   ************* Note -- lines truncated at 300 characters, if necessary...\n   *************   1790 Schedule:Day:Interval,\n   ************* indicated Name=Sp-Corner_Class_1_Pod_1_ZN_1_FLR_1 Sys-3 Flr-1 Sch-D HPlcmt-south ZN NECB System 3 PSZ Occ Sch Wednesday\n   ************* Only last 1 lines before error line shown.....\n   *************   1791   Sp-Corner_Class_1_Pod_1_ZN_1_FLR_1 Sys-3 Flr-1 Sch-D HPlcmt-south ZN NECB System 3 PSZ Occ Sch Wednesday, !- Name\n   ** Warning ** IP: IDF line~1791 Alpha Argument length exceeds maximum, will be truncated=  Sp-Corner_Class_1_Pod_1_ZN_1_FLR_1 Sys-3 Flr-1 Sch-D HPlcmt-south ZN NECB System 3 PSZ Occ Sch Wednesda\n   **   ~~~   ** Will be processed as Alpha=SP-CORNER_CLASS_1_POD_1_ZN_1_FLR_1 SYS-3 FLR-1 SCH-D HPLCMT-SOUTH ZN NECB SYSTEM 3 PSZ OCC SCH WEDNESDAY\n   ************* IDF Context for following error/warning message:\n   ************* Note -- lines truncated at 300 characters, if necessary...\n   *************   1805 Schedule:Day:Interval,\n   ************* indicated Name=Sp-Corner_Class_1_Pod_1_ZN_1_FLR_1 Sys-3 Flr-1 Sch-D HPlcmt-south ZN NECB System 3 PSZ Occ Sch Thursday\n   ************* Only last 1 lines before error line shown.....\n   *************   1806   Sp-Corner_Class_1_Pod_1_ZN_1_FLR_1 Sys-3 Flr-1 Sch-D HPlcmt-south ZN NECB System 3 PSZ Occ Sch Thursday, !- Name\n   ** Warning ** IP: IDF line~1806 Alpha Argument length exceeds maximum, will be truncated=  Sp-Corner_Class_1_Pod_1_ZN_1_FLR_1 Sys-3 Flr-1 Sch-D HPlcmt-south ZN NECB System 3 PSZ Occ Sch Thursda\n   **   ~~~   ** Will be processed as Alpha=SP-CORNER_CLASS_1_POD_1_ZN_1_FLR_1 SYS-3 FLR-1 SCH-D HPLCMT-SOUTH ZN NECB SYSTEM 3 PSZ OCC SCH THURSDAY\n   ************* IDF Context for following error/warning message:\n   ************* Note -- lines truncated at 300 characters, if necessary...\n   *************   1820 Schedule:Day:Interval,\n   ************* indicated Name=Sp-Corner_Class_1_Pod_1_ZN_1_FLR_1 Sys-3 Flr-1 Sch-D HPlcmt-south ZN NECB System 3 PSZ Occ Sch Friday\n   ************* Only last 1 lines before error line shown.....\n   *************   1821   Sp-Corner_Class_1_Pod_1_ZN_1_FLR_1 Sys-3 Flr-1 Sch-D HPlcmt-south ZN NECB System 3 PSZ Occ Sch Friday, !- Name\n   ** Warning ** IP: IDF line~1821 Alpha Argument length exceeds maximum, will be truncated=  Sp-Corner_Class_1_Pod_1_ZN_1_FLR_1 Sys-3 Flr-1 Sch-D HPlcmt-south ZN NECB System 3 PSZ Occ Sch Frida\n   **   ~~~   ** Will be processed as Alpha=SP-CORNER_CLASS_1_POD_1_ZN_1_FLR_1 SYS-3 FLR-1 SCH-D HPLCMT-SOUTH ZN NECB SYSTEM 3 PSZ OCC SCH FRIDAY\n   ************* IDF Context for following error/warning message:\n   ************* Note -- lines truncated at 300 characters, if necessary...\n   *************   1835 Schedule:Day:Interval,\n   ************* indicated Name=Sp-Corner_Class_1_Pod_1_ZN_1_FLR_1 Sys-3 Flr-1 Sch-D HPlcmt-south ZN NECB System 3 PSZ Occ Sch Saturday\n   ************* Only last 1 lines before error line shown.....\n   *************   1836   Sp-Corner_Class_1_Pod_1_ZN_1_FLR_1 Sys-3 Flr-1 Sch-D HPlcmt-south ZN NECB System 3 PSZ Occ Sch Saturday, !- Name\n   ** Warning ** IP: IDF line~1836 Alpha Argument length exceeds maximum, will be truncated=  Sp-Corner_Class_1_Pod_1_ZN_1_FLR_1 Sys-3 Flr-1 Sch-D HPlcmt-south ZN NECB System 3 PSZ Occ Sch Saturda\n   **   ~~~   ** Will be processed as Alpha=SP-CORNER_CLASS_1_POD_1_ZN_1_FLR_1 SYS-3 FLR-1 SCH-D HPLCMT-SOUTH ZN NECB SYSTEM 3 PSZ OCC SCH SATURDAY\n   ************* IDF Context for following error/warning message:\n   ************* Note -- lines truncated at 300 characters, if necessary...\n   *************   1842 Schedule:Week:Daily,\n   ************* indicated Name=Schedule:Week:Daily {6bf659cf-c965-43d7-a421-6756f1da5a60}\n   ************* Only last 2 lines before error line shown.....\n   *************   1843   Schedule:Week:Daily {6bf659cf-c965-43d7-a421-6756f1da5a60}, !- Name\n   *************   1844   Sp-Corner_Class_1_Pod_1_ZN_1_FLR_1 Sys-3 Flr-1 Sch-D HPlcmt-south ZN NECB System 3 PSZ Occ Sch Sunday, !- Sunday Schedule:Day Name\n   ** Warning ** IP: IDF line~1844 Alpha Argument length exceeds maximum, will be truncated=  Sp-Corner_Class_1_Pod_1_ZN_1_FLR_1 Sys-3 Flr-1 Sch-D HPlcmt-south ZN NECB System 3 PSZ Occ Sch Sunda\n   **   ~~~   ** Will be processed as Alpha=SP-CORNER_CLASS_1_POD_1_ZN_1_FLR_1 SYS-3 FLR-1 SCH-D HPLCMT-SOUTH ZN NECB SYSTEM 3 PSZ OCC SCH SUNDAY\n   ************* IDF Context for following error/warning message:\n   ************* Note -- lines truncated at 300 characters, if necessary...\n   *************   1842 Schedule:Week:Daily,\n   ************* indicated Name=Schedule:Week:Daily {6bf659cf-c965-43d7-a421-6756f1da5a60}\n   ************* Only last 3 lines before error line shown.....\n   *************   1843   Schedule:Week:Daily {6bf659cf-c965-43d7-a421-6756f1da5a60}, !- Name\n   *************   1844   Sp-Corner_Class_1_Pod_1_ZN_1_FLR_1 Sys-3 Flr-1 Sch-D HPlcmt-south ZN NECB System 3 PSZ Occ Sch Sunday, !- Sunday Schedule:Day Name\n   *************   1845   Sp-Corner_Class_1_Pod_1_ZN_1_FLR_1 Sys-3 Flr-1 Sch-D HPlcmt-south ZN NECB System 3 PSZ Occ Sch Monday, !- Monday Schedule:Day Name\n   ** Warning ** IP: IDF line~1845 Alpha Argument length exceeds maximum, will be truncated=  Sp-Corner_Class_1_Pod_1_ZN_1_FLR_1 Sys-3 Flr-1 Sch-D HPlcmt-south ZN NECB System 3 PSZ Occ Sch Monda\n   **   ~~~   ** Will be processed as Alpha=SP-CORNER_CLASS_1_POD_1_ZN_1_FLR_1 SYS-3 FLR-1 SCH-D HPLCMT-SOUTH ZN NECB SYSTEM 3 PSZ OCC SCH MONDAY\n   ************* IDF Context for following error/warning message:\n   ************* Note -- lines truncated at 300 characters, if necessary...\n   *************   1842 Schedule:Week:Daily,\n   ************* indicated Name=Schedule:Week:Daily {6bf659cf-c965-43d7-a421-6756f1da5a60}\n   ************* Only last 4 lines before error line shown.....\n   *************   1843   Schedule:Week:Daily {6bf659cf-c965-43d7-a421-6756f1da5a60}, !- Name\n   *************   1844   Sp-Corner_Class_1_Pod_1_ZN_1_FLR_1 Sys-3 Flr-1 Sch-D HPlcmt-south ZN NECB System 3 PSZ Occ Sch Sunday, !- Sunday Schedule:Day Name\n   *************   1845   Sp-Corner_Class_1_Pod_1_ZN_1_FLR_1 Sys-3 Flr-1 Sch-D HPlcmt-south ZN NECB System 3 PSZ Occ Sch Monday, !- Monday Schedule:Day Name\n   *************   1846   Sp-Corner_Class_1_Pod_1_ZN_1_FLR_1 Sys-3 Flr-1 Sch-D HPlcmt-south ZN NECB System 3 PSZ Occ Sch Tuesday, !- Tuesday Schedule:Day Name\n   ** Warning ** IP: IDF line~1846 Alpha Argument length exceeds maximum, will be truncated=  Sp-Corner_Class_1_Pod_1_ZN_1_FLR_1 Sys-3 Flr-1 Sch-D HPlcmt-south ZN NECB System 3 PSZ Occ Sch Tuesda\n   **   ~~~   ** Will be processed as Alpha=SP-CORNER_CLASS_1_POD_1_ZN_1_FLR_1 SYS-3 FLR-1 SCH-D HPLCMT-SOUTH ZN NECB SYSTEM 3 PSZ OCC SCH TUESDAY\n   ************* IDF Context for following error/warning message:\n   ************* Note -- lines truncated at 300 characters, if necessary...\n   *************   1842 Schedule:Week:Daily,\n   ************* indicated Name=Schedule:Week:Daily {6bf659cf-c965-43d7-a421-6756f1da5a60}\n   ************* Only last 5 lines before error line shown.....\n   *************   1843   Schedule:Week:Daily {6bf659cf-c965-43d7-a421-6756f1da5a60}, !- Name\n   *************   1844   Sp-Corner_Class_1_Pod_1_ZN_1_FLR_1 Sys-3 Flr-1 Sch-D HPlcmt-south ZN NECB System 3 PSZ Occ Sch Sunday, !- Sunday Schedule:Day Name\n   *************   1845   Sp-Corner_Class_1_Pod_1_ZN_1_FLR_1 Sys-3 Flr-1 Sch-D HPlcmt-south ZN NECB System 3 PSZ Occ Sch Monday, !- Monday Schedule:Day Name\n   *************   1846   Sp-Corner_Class_1_Pod_1_ZN_1_FLR_1 Sys-3 Flr-1 Sch-D HPlcmt-south ZN NECB System 3 PSZ Occ Sch Tuesday, !- Tuesday Schedule:Day Name\n   *************   1847   Sp-Corner_Class_1_Pod_1_ZN_1_FLR_1 Sys-3 Flr-1 Sch-D HPlcmt-south ZN NECB System 3 PSZ Occ Sch Wednesday, !- Wednesday Schedule:Day Name\n   ** Warning ** IP: IDF line~1847 Alpha Argument length exceeds maximum, will be truncated=  Sp-Corner_Class_1_Pod_1_ZN_1_FLR_1 Sys-3 Flr-1 Sch-D HPlcmt-south ZN NECB System 3 PSZ Occ Sch Wednesda\n   **   ~~~   ** Will be processed as Alpha=SP-CORNER_CLASS_1_POD_1_ZN_1_FLR_1 SYS-3 FLR-1 SCH-D HPLCMT-SOUTH ZN NECB SYSTEM 3 PSZ OCC SCH WEDNESDAY\n   ************* IDF Context for following error/warning message:\n   ************* Note -- lines truncated at 300 characters, if necessary...\n   *************   1842 Schedule:Week:Daily,\n   ************* indicated Name=Schedule:Week:Daily {6bf659cf-c965-43d7-a421-6756f1da5a60}\n   ************* Only last 6 lines before error line shown.....\n   *************   1843   Schedule:Week:Daily {6bf659cf-c965-43d7-a421-6756f1da5a60}, !- Name\n   *************   1844   Sp-Corner_Class_1_Pod_1_ZN_1_FLR_1 Sys-3 Flr-1 Sch-D HPlcmt-south ZN NECB System 3 PSZ Occ Sch Sunday, !- Sunday Schedule:Day Name\n   *************   1845   Sp-Corner_Class_1_Pod_1_ZN_1_FLR_1 Sys-3 Flr-1 Sch-D HPlcmt-south ZN NECB System 3 PSZ Occ Sch Monday, !- Monday Schedule:Day Name\n   *************   1846   Sp-Corner_Class_1_Pod_1_ZN_1_FLR_1 Sys-3 Flr-1 Sch-D HPlcmt-south ZN NECB System 3 PSZ Occ Sch Tuesday, !- Tuesday Schedule:Day Name\n   *************   1847   Sp-Corner_Class_1_Pod_1_ZN_1_FLR_1 Sys-3 Flr-1 Sch-D HPlcmt-south ZN NECB System 3 PSZ Occ Sch Wednesday, !- Wednesday Schedule:Day Name\n   *************   1848   Sp-Corner_Class_1_Pod_1_ZN_1_FLR_1 Sys-3 Flr-1 Sch-D HPlcmt-south ZN NECB System 3 PSZ Occ Sch Thursday, !- Thursday Schedule:Day Name\n   ** Warning ** IP: IDF line~1848 Alpha Argument length exceeds maximum, will be truncated=  Sp-Corner_Class_1_Pod_1_ZN_1_FLR_1 Sys-3 Flr-1 Sch-D HPlcmt-south ZN NECB System 3 PSZ Occ Sch Thursda\n   **   ~~~   ** Will be processed as Alpha=SP-CORNER_CLASS_1_POD_1_ZN_1_FLR_1 SYS-3 FLR-1 SCH-D HPLCMT-SOUTH ZN NECB SYSTEM 3 PSZ OCC SCH THURSDAY\n   ************* IDF Context for following error/warning message:\n   ************* Note -- lines truncated at 300 characters, if necessary...\n   *************   1842 Schedule:Week:Daily,\n   ************* indicated Name=Schedule:Week:Daily {6bf659cf-c965-43d7-a421-6756f1da5a60}\n   ************* Only last 7 lines before error line shown.....\n   *************   1843   Schedule:Week:Daily {6bf659cf-c965-43d7-a421-6756f1da5a60}, !- Name\n   *************   1844   Sp-Corner_Class_1_Pod_1_ZN_1_FLR_1 Sys-3 Flr-1 Sch-D HPlcmt-south ZN NECB System 3 PSZ Occ Sch Sunday, !- Sunday Schedule:Day Name\n   *************   1845   Sp-Corner_Class_1_Pod_1_ZN_1_FLR_1 Sys-3 Flr-1 Sch-D HPlcmt-south ZN NECB System 3 PSZ Occ Sch Monday, !- Monday Schedule:Day Name\n   *************   1846   Sp-Corner_Class_1_Pod_1_ZN_1_FLR_1 Sys-3 Flr-1 Sch-D HPlcmt-south ZN NECB System 3 PSZ Occ Sch Tuesday, !- Tuesday Schedule:Day Name\n   *************   1847   Sp-Corner_Class_1_Pod_1_ZN_1_FLR_1 Sys-3 Flr-1 Sch-D HPlcmt-south ZN NECB System 3 PSZ Occ Sch Wednesday, !- Wednesday Schedule:Day Name\n   *************   1848   Sp-Corner_Class_1_Pod_1_ZN_1_FLR_1 Sys-3 Flr-1 Sch-D HPlcmt-south ZN NECB System 3 PSZ Occ Sch Thursday, !- Thursday Schedule:Day Name\n   *************   1849   Sp-Corner_Class_1_Pod_1_ZN_1_FLR_1 Sys-3 Flr-1 Sch-D HPlcmt-south ZN NECB System 3 PSZ Occ Sch Friday, !- Friday Schedule:Day Name\n   ** Warning ** IP: IDF line~1849 Alpha Argument length exceeds maximum, will be truncated=  Sp-Corner_Class_1_Pod_1_ZN_1_FLR_1 Sys-3 Flr-1 Sch-D HPlcmt-south ZN NECB System 3 PSZ Occ Sch Frida\n   **   ~~~   ** Will be processed as Alpha=SP-CORNER_CLASS_1_POD_1_ZN_1_FLR_1 SYS-3 FLR-1 SCH-D HPLCMT-SOUTH ZN NECB SYSTEM 3 PSZ OCC SCH FRIDAY\n   ************* IDF Context for following error/warning message:\n   ************* Note -- lines truncated at 300 characters, if necessary...\n   *************   1842 Schedule:Week:Daily,\n   ************* indicated Name=Schedule:Week:Daily {6bf659cf-c965-43d7-a421-6756f1da5a60}\n   ************* Only last 8 lines before error line shown.....\n   *************   1843   Schedule:Week:Daily {6bf659cf-c965-43d7-a421-6756f1da5a60}, !- Name\n   *************   1844   Sp-Corner_Class_1_Pod_1_ZN_1_FLR_1 Sys-3 Flr-1 Sch-D HPlcmt-south ZN NECB System 3 PSZ Occ Sch Sunday, !- Sunday Schedule:Day Name\n   *************   1845   Sp-Corner_Class_1_Pod_1_ZN_1_FLR_1 Sys-3 Flr-1 Sch-D HPlcmt-south ZN NECB System 3 PSZ Occ Sch Monday, !- Monday Schedule:Day Name\n   *************   1846   Sp-Corner_Class_1_Pod_1_ZN_1_FLR_1 Sys-3 Flr-1 Sch-D HPlcmt-south ZN NECB System 3 PSZ Occ Sch Tuesday, !- Tuesday Schedule:Day Name\n   *************   1847   Sp-Corner_Class_1_Pod_1_ZN_1_FLR_1 Sys-3 Flr-1 Sch-D HPlcmt-south ZN NECB System 3 PSZ Occ Sch Wednesday, !- Wednesday Schedule:Day Name\n   *************   1848   Sp-Corner_Class_1_Pod_1_ZN_1_FLR_1 Sys-3 Flr-1 Sch-D HPlcmt-south ZN NECB System 3 PSZ Occ Sch Thursday, !- Thursday Schedule:Day Name\n   *************   1849   Sp-Corner_Class_1_Pod_1_ZN_1_FLR_1 Sys-3 Flr-1 Sch-D HPlcmt-south ZN NECB System 3 PSZ Occ Sch Friday, !- Friday Schedule:Day Name\n   *************   1850   Sp-Corner_Class_1_Pod_1_ZN_1_FLR_1 Sys-3 Flr-1 Sch-D HPlcmt-south ZN NECB System 3 PSZ Occ Sch Saturday, !- Saturday Schedule:Day Name\n   ** Warning ** IP: IDF line~1850 Alpha Argument length exceeds maximum, will be truncated=  Sp-Corner_Class_1_Pod_1_ZN_1_FLR_1 Sys-3 Flr-1 Sch-D HPlcmt-south ZN NECB System 3 PSZ Occ Sch Saturda\n   **   ~~~   ** Will be processed as Alpha=SP-CORNER_CLASS_1_POD_1_ZN_1_FLR_1 SYS-3 FLR-1 SCH-D HPLCMT-SOUTH ZN NECB SYSTEM 3 PSZ OCC SCH SATURDAY\n   ************* IDF Context for following error/warning message:\n   ************* Note -- lines truncated at 300 characters, if necessary...\n   *************   1842 Schedule:Week:Daily,\n   ************* indicated Name=Schedule:Week:Daily {6bf659cf-c965-43d7-a421-6756f1da5a60}\n   ************* Only last 9 lines before error line shown.....\n   *************   1843   Schedule:Week:Daily {6bf659cf-c965-43d7-a421-6756f1da5a60}, !- Name\n   *************   1844   Sp-Corner_Class_1_Pod_1_ZN_1_FLR_1 Sys-3 Flr-1 Sch-D HPlcmt-south ZN NECB System 3 PSZ Occ Sch Sunday, !- Sunday Schedule:Day Name\n   *************   1845   Sp-Corner_Class_1_Pod_1_ZN_1_FLR_1 Sys-3 Flr-1 Sch-D HPlcmt-south ZN NECB System 3 PSZ Occ Sch Monday, !- Monday Schedule:Day Name\n   *************   1846   Sp-Corner_Class_1_Pod_1_ZN_1_FLR_1 Sys-3 Flr-1 Sch-D HPlcmt-south ZN NECB System 3 PSZ Occ Sch Tuesday, !- Tuesday Schedule:Day Name\n   *************   1847   Sp-Corner_Class_1_Pod_1_ZN_1_FLR_1 Sys-3 Flr-1 Sch-D HPlcmt-south ZN NECB System 3 PSZ Occ Sch Wednesday, !- Wednesday Schedule:Day Name\n   *************   1848   Sp-Corner_Class_1_Pod_1_ZN_1_FLR_1 Sys-3 Flr-1 Sch-D HPlcmt-south ZN NECB System 3 PSZ Occ Sch Thursday, !- Thursday Schedule:Day Name\n   *************   1849   Sp-Corner_Class_1_Pod_1_ZN_1_FLR_1 Sys-3 Flr-1 Sch-D HPlcmt-south ZN NECB System 3 PSZ Occ Sch Friday, !- Friday Schedule:Day Name\n   *************   1850   Sp-Corner_Class_1_Pod_1_ZN_1_FLR_1 Sys-3 Flr-1 Sch-D HPlcmt-south ZN NECB System 3 PSZ Occ Sch Saturday, !- Saturday Schedule:Day Name\n   *************   1851   Sp-Corner_Class_1_Pod_1_ZN_1_FLR_1 Sys-3 Flr-1 Sch-D HPlcmt-south ZN NECB System 3 PSZ Occ Sch Default, !- Holiday Schedule:Day Name\n   ** Warning ** IP: IDF line~1851 Alpha Argument length exceeds maximum, will be truncated=  Sp-Corner_Class_1_Pod_1_ZN_1_FLR_1 Sys-3 Flr-1 Sch-D HPlcmt-south ZN NECB System 3 PSZ Occ Sch Defaul\n   **   ~~~   ** Will be processed as Alpha=SP-CORNER_CLASS_1_POD_1_ZN_1_FLR_1 SYS-3 FLR-1 SCH-D HPLCMT-SOUTH ZN NECB SYSTEM 3 PSZ OCC SCH DEFAULT\n   ************* IDF Context for following error/warning message:\n   ************* Note -- lines truncated at 300 characters, if necessary...\n   *************   1842 Schedule:Week:Daily,\n   ************* indicated Name=Schedule:Week:Daily {6bf659cf-c965-43d7-a421-6756f1da5a60}\n   ************* Only last 10 lines before error line shown.....\n   *************   1843   Schedule:Week:Daily {6bf659cf-c965-43d7-a421-6756f1da5a60}, !- Name\n   *************   1844   Sp-Corner_Class_1_Pod_1_ZN_1_FLR_1 Sys-3 Flr-1 Sch-D HPlcmt-south ZN NECB System 3 PSZ Occ Sch Sunday, !- Sunday Schedule:Day Name\n   *************   1845   Sp-Corner_Class_1_Pod_1_ZN_1_FLR_1 Sys-3 Flr-1 Sch-D HPlcmt-south ZN NECB System 3 PSZ Occ Sch Monday, !- Monday Schedule:Day Name\n   *************   1846   Sp-Corner_Class_1_Pod_1_ZN_1_FLR_1 Sys-3 Flr-1 Sch-D HPlcmt-south ZN NECB System 3 PSZ Occ Sch Tuesday, !- Tuesday Schedule:Day Name\n   *************   1847   Sp-Corner_Class_1_Pod_1_ZN_1_FLR_1 Sys-3 Flr-1 Sch-D HPlcmt-south ZN NECB System 3 PSZ Occ Sch Wednesday, !- Wednesday Schedule:Day Name\n   *************   1848   Sp-Corner_Class_1_Pod_1_ZN_1_FLR_1 Sys-3 Flr-1 Sch-D HPlcmt-south ZN NECB System 3 PSZ Occ Sch Thursday, !- Thursday Schedule:Day Name\n   *************   1849   Sp-Corner_Class_1_Pod_1_ZN_1_FLR_1 Sys-3 Flr-1 Sch-D HPlcmt-south ZN NECB System 3 PSZ Occ Sch Friday, !- Friday Schedule:Day Name\n   *************   1850   Sp-Corner_Class_1_Pod_1_ZN_1_FLR_1 Sys-3 Flr-1 Sch-D HPlcmt-south ZN NECB System 3 PSZ Occ Sch Saturday, !- Saturday Schedule:Day Name\n   *************   1851   Sp-Corner_Class_1_Pod_1_ZN_1_FLR_1 Sys-3 Flr-1 Sch-D HPlcmt-south ZN NECB System 3 PSZ Occ Sch Default, !- Holiday Schedule:Day Name\n   *************   1852   Sp-Corner_Class_1_Pod_1_ZN_1_FLR_1 Sys-3 Flr-1 Sch-D HPlcmt-south ZN NECB System 3 PSZ Occ Sch Summer Design Day, !- SummerDesignDay Schedule:Day Name\n   ** Warning ** IP: IDF line~1852 Alpha Argument length exceeds maximum, will be truncated=  Sp-Corner_Class_1_Pod_1_ZN_1_FLR_1 Sys-3 Flr-1 Sch-D HPlcmt-south ZN NECB System 3 PSZ Occ Sch Summer Design Da\n   **   ~~~   ** Will be processed as Alpha=SP-CORNER_CLASS_1_POD_1_ZN_1_FLR_1 SYS-3 FLR-1 SCH-D HPLCMT-SOUTH ZN NECB SYSTEM 3 PSZ OCC SCH SUMMER DESIGN DAY\n   ************* IDF Context for following error/warning message:\n   ************* Note -- lines truncated at 300 characters, if necessary...\n   *************   1842 Schedule:Week:Daily,\n   ************* indicated Name=Schedule:Week:Daily {6bf659cf-c965-43d7-a421-6756f1da5a60}\n   ************* Only last 10 lines before error line shown.....\n   *************   1844   Sp-Corner_Class_1_Pod_1_ZN_1_FLR_1 Sys-3 Flr-1 Sch-D HPlcmt-south ZN NECB System 3 PSZ Occ Sch Sunday, !- Sunday Schedule:Day Name\n   *************   1845   Sp-Corner_Class_1_Pod_1_ZN_1_FLR_1 Sys-3 Flr-1 Sch-D HPlcmt-south ZN NECB System 3 PSZ Occ Sch Monday, !- Monday Schedule:Day Name\n   *************   1846   Sp-Corner_Class_1_Pod_1_ZN_1_FLR_1 Sys-3 Flr-1 Sch-D HPlcmt-south ZN NECB System 3 PSZ Occ Sch Tuesday, !- Tuesday Schedule:Day Name\n   *************   1847   Sp-Corner_Class_1_Pod_1_ZN_1_FLR_1 Sys-3 Flr-1 Sch-D HPlcmt-south ZN NECB System 3 PSZ Occ Sch Wednesday, !- Wednesday Schedule:Day Name\n   *************   1848   Sp-Corner_Class_1_Pod_1_ZN_1_FLR_1 Sys-3 Flr-1 Sch-D HPlcmt-south ZN NECB System 3 PSZ Occ Sch Thursday, !- Thursday Schedule:Day Name\n   *************   1849   Sp-Corner_Class_1_Pod_1_ZN_1_FLR_1 Sys-3 Flr-1 Sch-D HPlcmt-south ZN NECB System 3 PSZ Occ Sch Friday, !- Friday Schedule:Day Name\n   *************   1850   Sp-Corner_Class_1_Pod_1_ZN_1_FLR_1 Sys-3 Flr-1 Sch-D HPlcmt-south ZN NECB System 3 PSZ Occ Sch Saturday, !- Saturday Schedule:Day Name\n   *************   1851   Sp-Corner_Class_1_Pod_1_ZN_1_FLR_1 Sys-3 Flr-1 Sch-D HPlcmt-south ZN NECB System 3 PSZ Occ Sch Default, !- Holiday Schedule:Day Name\n   *************   1852   Sp-Corner_Class_1_Pod_1_ZN_1_FLR_1 Sys-3 Flr-1 Sch-D HPlcmt-south ZN NECB System 3 PSZ Occ Sch Summer Design Day, !- SummerDesignDay Schedule:Day Name\n   *************   1853   Sp-Corner_Class_1_Pod_1_ZN_1_FLR_1 Sys-3 Flr-1 Sch-D HPlcmt-south ZN NECB System 3 PSZ Occ Sch Winter Design Day, !- WinterDesignDay Schedule:Day Name\n   ** Warning ** IP: IDF line~1853 Alpha Argument length exceeds maximum, will be truncated=  Sp-Corner_Class_1_Pod_1_ZN_1_FLR_1 Sys-3 Flr-1 Sch-D HPlcmt-south ZN NECB System 3 PSZ Occ Sch Winter Design Da\n   **   ~~~   ** Will be processed as Alpha=SP-CORNER_CLASS_1_POD_1_ZN_1_FLR_1 SYS-3 FLR-1 SCH-D HPLCMT-SOUTH ZN NECB SYSTEM 3 PSZ OCC SCH WINTER DESIGN DAY\n   ************* IDF Context for following error/warning message:\n   ************* Note -- lines truncated at 300 characters, if necessary...\n   *************   1842 Schedule:Week:Daily,\n   ************* indicated Name=Schedule:Week:Daily {6bf659cf-c965-43d7-a421-6756f1da5a60}\n   ************* Only last 10 lines before error line shown.....\n   *************   1845   Sp-Corner_Class_1_Pod_1_ZN_1_FLR_1 Sys-3 Flr-1 Sch-D HPlcmt-south ZN NECB System 3 PSZ Occ Sch Monday, !- Monday Schedule:Day Name\n   *************   1846   Sp-Corner_Class_1_Pod_1_ZN_1_FLR_1 Sys-3 Flr-1 Sch-D HPlcmt-south ZN NECB System 3 PSZ Occ Sch Tuesday, !- Tuesday Schedule:Day Name\n   *************   1847   Sp-Corner_Class_1_Pod_1_ZN_1_FLR_1 Sys-3 Flr-1 Sch-D HPlcmt-south ZN NECB System 3 PSZ Occ Sch Wednesday, !- Wednesday Schedule:Day Name\n   *************   1848   Sp-Corner_Class_1_Pod_1_ZN_1_FLR_1 Sys-3 Flr-1 Sch-D HPlcmt-south ZN NECB System 3 PSZ Occ Sch Thursday, !- Thursday Schedule:Day Name\n   *************   1849   Sp-Corner_Class_1_Pod_1_ZN_1_FLR_1 Sys-3 Flr-1 Sch-D HPlcmt-south ZN NECB System 3 PSZ Occ Sch Friday, !- Friday Schedule:Day Name\n   *************   1850   Sp-Corner_Class_1_Pod_1_ZN_1_FLR_1 Sys-3 Flr-1 Sch-D HPlcmt-south ZN NECB System 3 PSZ Occ Sch Saturday, !- Saturday Schedule:Day Name\n   *************   1851   Sp-Corner_Class_1_Pod_1_ZN_1_FLR_1 Sys-3 Flr-1 Sch-D HPlcmt-south ZN NECB System 3 PSZ Occ Sch Default, !- Holiday Schedule:Day Name\n   *************   1852   Sp-Corner_Class_1_Pod_1_ZN_1_FLR_1 Sys-3 Flr-1 Sch-D HPlcmt-south ZN NECB System 3 PSZ Occ Sch Summer Design Day, !- SummerDesignDay Schedule:Day Name\n   *************   1853   Sp-Corner_Class_1_Pod_1_ZN_1_FLR_1 Sys-3 Flr-1 Sch-D HPlcmt-south ZN NECB System 3 PSZ Occ Sch Winter Design Day, !- WinterDesignDay Schedule:Day Name\n   *************   1854   Sp-Corner_Class_1_Pod_1_ZN_1_FLR_1 Sys-3 Flr-1 Sch-D HPlcmt-south ZN NECB System 3 PSZ Occ Sch Default, !- CustomDay1 Schedule:Day Name\n   ** Warning ** IP: IDF line~1854 Alpha Argument length exceeds maximum, will be truncated=  Sp-Corner_Class_1_Pod_1_ZN_1_FLR_1 Sys-3 Flr-1 Sch-D HPlcmt-south ZN NECB System 3 PSZ Occ Sch Defaul\n   **   ~~~   ** Will be processed as Alpha=SP-CORNER_CLASS_1_POD_1_ZN_1_FLR_1 SYS-3 FLR-1 SCH-D HPLCMT-SOUTH ZN NECB SYSTEM 3 PSZ OCC SCH DEFAULT\n   ************* IDF Context for following error/warning message:\n   ************* Note -- lines truncated at 300 characters, if necessary...\n   *************   1842 Schedule:Week:Daily,\n   ************* indicated Name=Schedule:Week:Daily {6bf659cf-c965-43d7-a421-6756f1da5a60}\n   ************* Only last 10 lines before error line shown.....\n   *************   1846   Sp-Corner_Class_1_Pod_1_ZN_1_FLR_1 Sys-3 Flr-1 Sch-D HPlcmt-south ZN NECB System 3 PSZ Occ Sch Tuesday, !- Tuesday Schedule:Day Name\n   *************   1847   Sp-Corner_Class_1_Pod_1_ZN_1_FLR_1 Sys-3 Flr-1 Sch-D HPlcmt-south ZN NECB System 3 PSZ Occ Sch Wednesday, !- Wednesday Schedule:Day Name\n   *************   1848   Sp-Corner_Class_1_Pod_1_ZN_1_FLR_1 Sys-3 Flr-1 Sch-D HPlcmt-south ZN NECB System 3 PSZ Occ Sch Thursday, !- Thursday Schedule:Day Name\n   *************   1849   Sp-Corner_Class_1_Pod_1_ZN_1_FLR_1 Sys-3 Flr-1 Sch-D HPlcmt-south ZN NECB System 3 PSZ Occ Sch Friday, !- Friday Schedule:Day Name\n   *************   1850   Sp-Corner_Class_1_Pod_1_ZN_1_FLR_1 Sys-3 Flr-1 Sch-D HPlcmt-south ZN NECB System 3 PSZ Occ Sch Saturday, !- Saturday Schedule:Day Name\n   *************   1851   Sp-Corner_Class_1_Pod_1_ZN_1_FLR_1 Sys-3 Flr-1 Sch-D HPlcmt-south ZN NECB System 3 PSZ Occ Sch Default, !- Holiday Schedule:Day Name\n   *************   1852   Sp-Corner_Class_1_Pod_1_ZN_1_FLR_1 Sys-3 Flr-1 Sch-D HPlcmt-south ZN NECB System 3 PSZ Occ Sch Summer Design Day, !- SummerDesignDay Schedule:Day Name\n   *************   1853   Sp-Corner_Class_1_Pod_1_ZN_1_FLR_1 Sys-3 Flr-1 Sch-D HPlcmt-south ZN NECB System 3 PSZ Occ Sch Winter Design Day, !- WinterDesignDay Schedule:Day Name\n   *************   1854   Sp-Corner_Class_1_Pod_1_ZN_1_FLR_1 Sys-3 Flr-1 Sch-D HPlcmt-south ZN NECB System 3 PSZ Occ Sch Default, !- CustomDay1 Schedule:Day Name\n   *************   1855   Sp-Corner_Class_1_Pod_1_ZN_1_FLR_1 Sys-3 Flr-1 Sch-D HPlcmt-south ZN NECB System 3 PSZ Occ Sch Default; !- CustomDay2 Schedule:Day Name\n   ** Warning ** IP: IDF line~1855 Alpha Argument length exceeds maximum, will be truncated=  Sp-Corner_Class_1_Pod_1_ZN_1_FLR_1 Sys-3 Flr-1 Sch-D HPlcmt-south ZN NECB System 3 PSZ Occ Sch Defaul\n   **   ~~~   ** Will be processed as Alpha=SP-CORNER_CLASS_1_POD_1_ZN_1_FLR_1 SYS-3 FLR-1 SCH-D HPLCMT-SOUTH ZN NECB SYSTEM 3 PSZ OCC SCH DEFAULT\n   ************* IDF Context for following error/warning message:\n   ************* Note -- lines truncated at 300 characters, if necessary...\n   *************   1866 Schedule:Day:Interval,\n   ************* indicated Name=Sp-Corner_Class_1_Pod_1_ZN_1_FLR_1 Sys-3 Flr-1 Sch-D HPlcmt-south ZN NECB System 3 PSZ Occ Sch Default\n   ************* Only last 1 lines before error line shown.....\n   *************   1867   Sp-Corner_Class_1_Pod_1_ZN_1_FLR_1 Sys-3 Flr-1 Sch-D HPlcmt-south ZN NECB System 3 PSZ Occ Sch Default, !- Name\n   ** Warning ** IP: IDF line~1867 Alpha Argument length exceeds maximum, will be truncated=  Sp-Corner_Class_1_Pod_1_ZN_1_FLR_1 Sys-3 Flr-1 Sch-D HPlcmt-south ZN NECB System 3 PSZ Occ Sch Defaul\n   **   ~~~   ** Will be processed as Alpha=SP-CORNER_CLASS_1_POD_1_ZN_1_FLR_1 SYS-3 FLR-1 SCH-D HPLCMT-SOUTH ZN NECB SYSTEM 3 PSZ OCC SCH DEFAULT\n   ************* IDF Context for following error/warning message:\n   ************* Note -- lines truncated at 300 characters, if necessary...\n   *************   1873 Schedule:Day:Interval,\n   ************* indicated Name=Sp-Corner_Class_1_Pod_1_ZN_1_FLR_1 Sys-3 Flr-1 Sch-D HPlcmt-south ZN NECB System 3 PSZ Occ Sch Summer Design Day\n   ************* Only last 1 lines before error line shown.....\n   *************   1874   Sp-Corner_Class_1_Pod_1_ZN_1_FLR_1 Sys-3 Flr-1 Sch-D HPlcmt-south ZN NECB System 3 PSZ Occ Sch Summer Design Day, !- Name\n   ** Warning ** IP: IDF line~1874 Alpha Argument length exceeds maximum, will be truncated=  Sp-Corner_Class_1_Pod_1_ZN_1_FLR_1 Sys-3 Flr-1 Sch-D HPlcmt-south ZN NECB System 3 PSZ Occ Sch Summer Design Da\n   **   ~~~   ** Will be processed as Alpha=SP-CORNER_CLASS_1_POD_1_ZN_1_FLR_1 SYS-3 FLR-1 SCH-D HPLCMT-SOUTH ZN NECB SYSTEM 3 PSZ OCC SCH SUMMER DESIGN DAY\n   ************* IDF Context for following error/warning message:\n   ************* Note -- lines truncated at 300 characters, if necessary...\n   *************   1880 Schedule:Day:Interval,\n   ************* indicated Name=Sp-Corner_Class_1_Pod_1_ZN_1_FLR_1 Sys-3 Flr-1 Sch-D HPlcmt-south ZN NECB System 3 PSZ Occ Sch Winter Design Day\n   ************* Only last 1 lines before error line shown.....\n   *************   1881   Sp-Corner_Class_1_Pod_1_ZN_1_FLR_1 Sys-3 Flr-1 Sch-D HPlcmt-south ZN NECB System 3 PSZ Occ Sch Winter Design Day, !- Name\n   ** Warning ** IP: IDF line~1881 Alpha Argument length exceeds maximum, will be truncated=  Sp-Corner_Class_1_Pod_1_ZN_1_FLR_1 Sys-3 Flr-1 Sch-D HPlcmt-south ZN NECB System 3 PSZ Occ Sch Winter Design Da\n   **   ~~~   ** Will be processed as Alpha=SP-CORNER_CLASS_1_POD_1_ZN_1_FLR_1 SYS-3 FLR-1 SCH-D HPLCMT-SOUTH ZN NECB SYSTEM 3 PSZ OCC SCH WINTER DESIGN DAY\n   ************* IDF Context for following error/warning message:\n   ************* Note -- lines truncated at 300 characters, if necessary...\n   *************   2149 Schedule:Day:Interval,\n   ************* indicated Name=Sp-Corner_Class_1_Pod_2_ZN_1_FLR_1 Sys-3 Flr-1 Sch-D HPlcmt-south ZN NECB System 3 PSZ Occ Sch Sunday\n   ************* Only last 1 lines before error line shown.....\n   *************   2150   Sp-Corner_Class_1_Pod_2_ZN_1_FLR_1 Sys-3 Flr-1 Sch-D HPlcmt-south ZN NECB System 3 PSZ Occ Sch Sunday, !- Name\n   ** Warning ** IP: IDF line~2150 Alpha Argument length exceeds maximum, will be truncated=  Sp-Corner_Class_1_Pod_2_ZN_1_FLR_1 Sys-3 Flr-1 Sch-D HPlcmt-south ZN NECB System 3 PSZ Occ Sch Sunda\n   **   ~~~   ** Will be processed as Alpha=SP-CORNER_CLASS_1_POD_2_ZN_1_FLR_1 SYS-3 FLR-1 SCH-D HPLCMT-SOUTH ZN NECB SYSTEM 3 PSZ OCC SCH SUNDAY\n   ************* IDF Context for following error/warning message:\n   ************* Note -- lines truncated at 300 characters, if necessary...\n   *************   2156 Schedule:Day:Interval,\n   ************* indicated Name=Sp-Corner_Class_1_Pod_2_ZN_1_FLR_1 Sys-3 Flr-1 Sch-D HPlcmt-south ZN NECB System 3 PSZ Occ Sch Monday\n   ************* Only last 1 lines before error line shown.....\n   *************   2157   Sp-Corner_Class_1_Pod_2_ZN_1_FLR_1 Sys-3 Flr-1 Sch-D HPlcmt-south ZN NECB System 3 PSZ Occ Sch Monday, !- Name\n   ** Warning ** IP: IDF line~2157 Alpha Argument length exceeds maximum, will be truncated=  Sp-Corner_Class_1_Pod_2_ZN_1_FLR_1 Sys-3 Flr-1 Sch-D HPlcmt-south ZN NECB System 3 PSZ Occ Sch Monda\n   **   ~~~   ** Will be processed as Alpha=SP-CORNER_CLASS_1_POD_2_ZN_1_FLR_1 SYS-3 FLR-1 SCH-D HPLCMT-SOUTH ZN NECB SYSTEM 3 PSZ OCC SCH MONDAY\n   ************* IDF Context for following error/warning message:\n   ************* Note -- lines truncated at 300 characters, if necessary...\n   *************   2171 Schedule:Day:Interval,\n   ************* indicated Name=Sp-Corner_Class_1_Pod_2_ZN_1_FLR_1 Sys-3 Flr-1 Sch-D HPlcmt-south ZN NECB System 3 PSZ Occ Sch Tuesday\n   ************* Only last 1 lines before error line shown.....\n   *************   2172   Sp-Corner_Class_1_Pod_2_ZN_1_FLR_1 Sys-3 Flr-1 Sch-D HPlcmt-south ZN NECB System 3 PSZ Occ Sch Tuesday, !- Name\n   ** Warning ** IP: IDF line~2172 Alpha Argument length exceeds maximum, will be truncated=  Sp-Corner_Class_1_Pod_2_ZN_1_FLR_1 Sys-3 Flr-1 Sch-D HPlcmt-south ZN NECB System 3 PSZ Occ Sch Tuesda\n   **   ~~~   ** Will be processed as Alpha=SP-CORNER_CLASS_1_POD_2_ZN_1_FLR_1 SYS-3 FLR-1 SCH-D HPLCMT-SOUTH ZN NECB SYSTEM 3 PSZ OCC SCH TUESDAY\n   ************* IDF Context for following error/warning message:\n   ************* Note -- lines truncated at 300 characters, if necessary...\n   *************   2186 Schedule:Day:Interval,\n   ************* indicated Name=Sp-Corner_Class_1_Pod_2_ZN_1_FLR_1 Sys-3 Flr-1 Sch-D HPlcmt-south ZN NECB System 3 PSZ Occ Sch Wednesday\n   ************* Only last 1 lines before error line shown.....\n   *************   2187   Sp-Corner_Class_1_Pod_2_ZN_1_FLR_1 Sys-3 Flr-1 Sch-D HPlcmt-south ZN NECB System 3 PSZ Occ Sch Wednesday, !- Name\n   ** Warning ** IP: IDF line~2187 Alpha Argument length exceeds maximum, will be truncated=  Sp-Corner_Class_1_Pod_2_ZN_1_FLR_1 Sys-3 Flr-1 Sch-D HPlcmt-south ZN NECB System 3 PSZ Occ Sch Wednesda\n   **   ~~~   ** Will be processed as Alpha=SP-CORNER_CLASS_1_POD_2_ZN_1_FLR_1 SYS-3 FLR-1 SCH-D HPLCMT-SOUTH ZN NECB SYSTEM 3 PSZ OCC SCH WEDNESDAY\n   ************* IDF Context for following error/warning message:\n   ************* Note -- lines truncated at 300 characters, if necessary...\n   *************   2201 Schedule:Day:Interval,\n   ************* indicated Name=Sp-Corner_Class_1_Pod_2_ZN_1_FLR_1 Sys-3 Flr-1 Sch-D HPlcmt-south ZN NECB System 3 PSZ Occ Sch Thursday\n   ************* Only last 1 lines before error line shown.....\n   *************   2202   Sp-Corner_Class_1_Pod_2_ZN_1_FLR_1 Sys-3 Flr-1 Sch-D HPlcmt-south ZN NECB System 3 PSZ Occ Sch Thursday, !- Name\n   ** Warning ** IP: IDF line~2202 Alpha Argument length exceeds maximum, will be truncated=  Sp-Corner_Class_1_Pod_2_ZN_1_FLR_1 Sys-3 Flr-1 Sch-D HPlcmt-south ZN NECB System 3 PSZ Occ Sch Thursda\n   **   ~~~   ** Will be processed as Alpha=SP-CORNER_CLASS_1_POD_2_ZN_1_FLR_1 SYS-3 FLR-1 SCH-D HPLCMT-SOUTH ZN NECB SYSTEM 3 PSZ OCC SCH THURSDAY\n   ************* IDF Context for following error/warning message:\n   ************* Note -- lines truncated at 300 characters, if necessary...\n   *************   2216 Schedule:Day:Interval,\n   ************* indicated Name=Sp-Corner_Class_1_Pod_2_ZN_1_FLR_1 Sys-3 Flr-1 Sch-D HPlcmt-south ZN NECB System 3 PSZ Occ Sch Friday\n   ************* Only last 1 lines before error line shown.....\n   *************   2217   Sp-Corner_Class_1_Pod_2_ZN_1_FLR_1 Sys-3 Flr-1 Sch-D HPlcmt-south ZN NECB System 3 PSZ Occ Sch Friday, !- Name\n   ** Warning ** IP: IDF line~2217 Alpha Argument length exceeds maximum, will be truncated=  Sp-Corner_Class_1_Pod_2_ZN_1_FLR_1 Sys-3 Flr-1 Sch-D HPlcmt-south ZN NECB System 3 PSZ Occ Sch Frida\n   **   ~~~   ** Will be processed as Alpha=SP-CORNER_CLASS_1_POD_2_ZN_1_FLR_1 SYS-3 FLR-1 SCH-D HPLCMT-SOUTH ZN NECB SYSTEM 3 PSZ OCC SCH FRIDAY\n   ************* IDF Context for following error/warning message:\n   ************* Note -- lines truncated at 300 characters, if necessary...\n   *************   2231 Schedule:Day:Interval,\n   ************* indicated Name=Sp-Corner_Class_1_Pod_2_ZN_1_FLR_1 Sys-3 Flr-1 Sch-D HPlcmt-south ZN NECB System 3 PSZ Occ Sch Saturday\n   ************* Only last 1 lines before error line shown.....\n   *************   2232   Sp-Corner_Class_1_Pod_2_ZN_1_FLR_1 Sys-3 Flr-1 Sch-D HPlcmt-south ZN NECB System 3 PSZ Occ Sch Saturday, !- Name\n   ** Warning ** IP: IDF line~2232 Alpha Argument length exceeds maximum, will be truncated=  Sp-Corner_Class_1_Pod_2_ZN_1_FLR_1 Sys-3 Flr-1 Sch-D HPlcmt-south ZN NECB System 3 PSZ Occ Sch Saturda\n   **   ~~~   ** Will be processed as Alpha=SP-CORNER_CLASS_1_POD_2_ZN_1_FLR_1 SYS-3 FLR-1 SCH-D HPLCMT-SOUTH ZN NECB SYSTEM 3 PSZ OCC SCH SATURDAY\n   ************* IDF Context for following error/warning message:\n   ************* Note -- lines truncated at 300 characters, if necessary...\n   *************   2238 Schedule:Week:Daily,\n   ************* indicated Name=Schedule:Week:Daily {12ad81c7-7975-42af-9c86-dd3ef1897963}\n   ************* Only last 2 lines before error line shown.....\n   *************   2239   Schedule:Week:Daily {12ad81c7-7975-42af-9c86-dd3ef1897963}, !- Name\n   *************   2240   Sp-Corner_Class_1_Pod_2_ZN_1_FLR_1 Sys-3 Flr-1 Sch-D HPlcmt-south ZN NECB System 3 PSZ Occ Sch Sunday, !- Sunday Schedule:Day Name\n   ** Warning ** IP: IDF line~2240 Alpha Argument length exceeds maximum, will be truncated=  Sp-Corner_Class_1_Pod_2_ZN_1_FLR_1 Sys-3 Flr-1 Sch-D HPlcmt-south ZN NECB System 3 PSZ Occ Sch Sunda\n   **   ~~~   ** Will be processed as Alpha=SP-CORNER_CLASS_1_POD_2_ZN_1_FLR_1 SYS-3 FLR-1 SCH-D HPLCMT-SOUTH ZN NECB SYSTEM 3 PSZ OCC SCH SUNDAY\n   ************* IDF Context for following error/warning message:\n   ************* Note -- lines truncated at 300 characters, if necessary...\n   *************   2238 Schedule:Week:Daily,\n   ************* indicated Name=Schedule:Week:Daily {12ad81c7-7975-42af-9c86-dd3ef1897963}\n   ************* Only last 3 lines before error line shown.....\n   *************   2239   Schedule:Week:Daily {12ad81c7-7975-42af-9c86-dd3ef1897963}, !- Name\n   *************   2240   Sp-Corner_Class_1_Pod_2_ZN_1_FLR_1 Sys-3 Flr-1 Sch-D HPlcmt-south ZN NECB System 3 PSZ Occ Sch Sunday, !- Sunday Schedule:Day Name\n   *************   2241   Sp-Corner_Class_1_Pod_2_ZN_1_FLR_1 Sys-3 Flr-1 Sch-D HPlcmt-south ZN NECB System 3 PSZ Occ Sch Monday, !- Monday Schedule:Day Name\n   ** Warning ** IP: IDF line~2241 Alpha Argument length exceeds maximum, will be truncated=  Sp-Corner_Class_1_Pod_2_ZN_1_FLR_1 Sys-3 Flr-1 Sch-D HPlcmt-south ZN NECB System 3 PSZ Occ Sch Monda\n   **   ~~~   ** Will be processed as Alpha=SP-CORNER_CLASS_1_POD_2_ZN_1_FLR_1 SYS-3 FLR-1 SCH-D HPLCMT-SOUTH ZN NECB SYSTEM 3 PSZ OCC SCH MONDAY\n   ************* IDF Context for following error/warning message:\n   ************* Note -- lines truncated at 300 characters, if necessary...\n   *************   2238 Schedule:Week:Daily,\n   ************* indicated Name=Schedule:Week:Daily {12ad81c7-7975-42af-9c86-dd3ef1897963}\n   ************* Only last 4 lines before error line shown.....\n   *************   2239   Schedule:Week:Daily {12ad81c7-7975-42af-9c86-dd3ef1897963}, !- Name\n   *************   2240   Sp-Corner_Class_1_Pod_2_ZN_1_FLR_1 Sys-3 Flr-1 Sch-D HPlcmt-south ZN NECB System 3 PSZ Occ Sch Sunday, !- Sunday Schedule:Day Name\n   *************   2241   Sp-Corner_Class_1_Pod_2_ZN_1_FLR_1 Sys-3 Flr-1 Sch-D HPlcmt-south ZN NECB System 3 PSZ Occ Sch Monday, !- Monday Schedule:Day Name\n   *************   2242   Sp-Corner_Class_1_Pod_2_ZN_1_FLR_1 Sys-3 Flr-1 Sch-D HPlcmt-south ZN NECB System 3 PSZ Occ Sch Tuesday, !- Tuesday Schedule:Day Name\n   ** Warning ** IP: IDF line~2242 Alpha Argument length exceeds maximum, will be truncated=  Sp-Corner_Class_1_Pod_2_ZN_1_FLR_1 Sys-3 Flr-1 Sch-D HPlcmt-south ZN NECB System 3 PSZ Occ Sch Tuesda\n   **   ~~~   ** Will be processed as Alpha=SP-CORNER_CLASS_1_POD_2_ZN_1_FLR_1 SYS-3 FLR-1 SCH-D HPLCMT-SOUTH ZN NECB SYSTEM 3 PSZ OCC SCH TUESDAY\n   ************* IDF Context for following error/warning message:\n   ************* Note -- lines truncated at 300 characters, if necessary...\n   *************   2238 Schedule:Week:Daily,\n   ************* indicated Name=Schedule:Week:Daily {12ad81c7-7975-42af-9c86-dd3ef1897963}\n   ************* Only last 5 lines before error line shown.....\n   *************   2239   Schedule:Week:Daily {12ad81c7-7975-42af-9c86-dd3ef1897963}, !- Name\n   *************   2240   Sp-Corner_Class_1_Pod_2_ZN_1_FLR_1 Sys-3 Flr-1 Sch-D HPlcmt-south ZN NECB System 3 PSZ Occ Sch Sunday, !- Sunday Schedule:Day Name\n   *************   2241   Sp-Corner_Class_1_Pod_2_ZN_1_FLR_1 Sys-3 Flr-1 Sch-D HPlcmt-south ZN NECB System 3 PSZ Occ Sch Monday, !- Monday Schedule:Day Name\n   *************   2242   Sp-Corner_Class_1_Pod_2_ZN_1_FLR_1 Sys-3 Flr-1 Sch-D HPlcmt-south ZN NECB System 3 PSZ Occ Sch Tuesday, !- Tuesday Schedule:Day Name\n   *************   2243   Sp-Corner_Class_1_Pod_2_ZN_1_FLR_1 Sys-3 Flr-1 Sch-D HPlcmt-south ZN NECB System 3 PSZ Occ Sch Wednesday, !- Wednesday Schedule:Day Name\n   ** Warning ** IP: IDF line~2243 Alpha Argument length exceeds maximum, will be truncated=  Sp-Corner_Class_1_Pod_2_ZN_1_FLR_1 Sys-3 Flr-1 Sch-D HPlcmt-south ZN NECB System 3 PSZ Occ Sch Wednesda\n   **   ~~~   ** Will be processed as Alpha=SP-CORNER_CLASS_1_POD_2_ZN_1_FLR_1 SYS-3 FLR-1 SCH-D HPLCMT-SOUTH ZN NECB SYSTEM 3 PSZ OCC SCH WEDNESDAY\n   ************* IDF Context for following error/warning message:\n   ************* Note -- lines truncated at 300 characters, if necessary...\n   *************   2238 Schedule:Week:Daily,\n   ************* indicated Name=Schedule:Week:Daily {12ad81c7-7975-42af-9c86-dd3ef1897963}\n   ************* Only last 6 lines before error line shown.....\n   *************   2239   Schedule:Week:Daily {12ad81c7-7975-42af-9c86-dd3ef1897963}, !- Name\n   *************   2240   Sp-Corner_Class_1_Pod_2_ZN_1_FLR_1 Sys-3 Flr-1 Sch-D HPlcmt-south ZN NECB System 3 PSZ Occ Sch Sunday, !- Sunday Schedule:Day Name\n   *************   2241   Sp-Corner_Class_1_Pod_2_ZN_1_FLR_1 Sys-3 Flr-1 Sch-D HPlcmt-south ZN NECB System 3 PSZ Occ Sch Monday, !- Monday Schedule:Day Name\n   *************   2242   Sp-Corner_Class_1_Pod_2_ZN_1_FLR_1 Sys-3 Flr-1 Sch-D HPlcmt-south ZN NECB System 3 PSZ Occ Sch Tuesday, !- Tuesday Schedule:Day Name\n   *************   2243   Sp-Corner_Class_1_Pod_2_ZN_1_FLR_1 Sys-3 Flr-1 Sch-D HPlcmt-south ZN NECB System 3 PSZ Occ Sch Wednesday, !- Wednesday Schedule:Day Name\n   *************   2244   Sp-Corner_Class_1_Pod_2_ZN_1_FLR_1 Sys-3 Flr-1 Sch-D HPlcmt-south ZN NECB System 3 PSZ Occ Sch Thursday, !- Thursday Schedule:Day Name\n   ** Warning ** IP: IDF line~2244 Alpha Argument length exceeds maximum, will be truncated=  Sp-Corner_Class_1_Pod_2_ZN_1_FLR_1 Sys-3 Flr-1 Sch-D HPlcmt-south ZN NECB System 3 PSZ Occ Sch Thursda\n   **   ~~~   ** Will be processed as Alpha=SP-CORNER_CLASS_1_POD_2_ZN_1_FLR_1 SYS-3 FLR-1 SCH-D HPLCMT-SOUTH ZN NECB SYSTEM 3 PSZ OCC SCH THURSDAY\n   ************* IDF Context for following error/warning message:\n   ************* Note -- lines truncated at 300 characters, if necessary...\n   *************   2238 Schedule:Week:Daily,\n   ************* indicated Name=Schedule:Week:Daily {12ad81c7-7975-42af-9c86-dd3ef1897963}\n   ************* Only last 7 lines before error line shown.....\n   *************   2239   Schedule:Week:Daily {12ad81c7-7975-42af-9c86-dd3ef1897963}, !- Name\n   *************   2240   Sp-Corner_Class_1_Pod_2_ZN_1_FLR_1 Sys-3 Flr-1 Sch-D HPlcmt-south ZN NECB System 3 PSZ Occ Sch Sunday, !- Sunday Schedule:Day Name\n   *************   2241   Sp-Corner_Class_1_Pod_2_ZN_1_FLR_1 Sys-3 Flr-1 Sch-D HPlcmt-south ZN NECB System 3 PSZ Occ Sch Monday, !- Monday Schedule:Day Name\n   *************   2242   Sp-Corner_Class_1_Pod_2_ZN_1_FLR_1 Sys-3 Flr-1 Sch-D HPlcmt-south ZN NECB System 3 PSZ Occ Sch Tuesday, !- Tuesday Schedule:Day Name\n   *************   2243   Sp-Corner_Class_1_Pod_2_ZN_1_FLR_1 Sys-3 Flr-1 Sch-D HPlcmt-south ZN NECB System 3 PSZ Occ Sch Wednesday, !- Wednesday Schedule:Day Name\n   *************   2244   Sp-Corner_Class_1_Pod_2_ZN_1_FLR_1 Sys-3 Flr-1 Sch-D HPlcmt-south ZN NECB System 3 PSZ Occ Sch Thursday, !- Thursday Schedule:Day Name\n   *************   2245   Sp-Corner_Class_1_Pod_2_ZN_1_FLR_1 Sys-3 Flr-1 Sch-D HPlcmt-south ZN NECB System 3 PSZ Occ Sch Friday, !- Friday Schedule:Day Name\n   ** Warning ** IP: IDF line~2245 Alpha Argument length exceeds maximum, will be truncated=  Sp-Corner_Class_1_Pod_2_ZN_1_FLR_1 Sys-3 Flr-1 Sch-D HPlcmt-south ZN NECB System 3 PSZ Occ Sch Frida\n   **   ~~~   ** Will be processed as Alpha=SP-CORNER_CLASS_1_POD_2_ZN_1_FLR_1 SYS-3 FLR-1 SCH-D HPLCMT-SOUTH ZN NECB SYSTEM 3 PSZ OCC SCH FRIDAY\n   ************* IDF Context for following error/warning message:\n   ************* Note -- lines truncated at 300 characters, if necessary...\n   *************   2238 Schedule:Week:Daily,\n   ************* indicated Name=Schedule:Week:Daily {12ad81c7-7975-42af-9c86-dd3ef1897963}\n   ************* Only last 8 lines before error line shown.....\n   *************   2239   Schedule:Week:Daily {12ad81c7-7975-42af-9c86-dd3ef1897963}, !- Name\n   *************   2240   Sp-Corner_Class_1_Pod_2_ZN_1_FLR_1 Sys-3 Flr-1 Sch-D HPlcmt-south ZN NECB System 3 PSZ Occ Sch Sunday, !- Sunday Schedule:Day Name\n   *************   2241   Sp-Corner_Class_1_Pod_2_ZN_1_FLR_1 Sys-3 Flr-1 Sch-D HPlcmt-south ZN NECB System 3 PSZ Occ Sch Monday, !- Monday Schedule:Day Name\n   *************   2242   Sp-Corner_Class_1_Pod_2_ZN_1_FLR_1 Sys-3 Flr-1 Sch-D HPlcmt-south ZN NECB System 3 PSZ Occ Sch Tuesday, !- Tuesday Schedule:Day Name\n   *************   2243   Sp-Corner_Class_1_Pod_2_ZN_1_FLR_1 Sys-3 Flr-1 Sch-D HPlcmt-south ZN NECB System 3 PSZ Occ Sch Wednesday, !- Wednesday Schedule:Day Name\n   *************   2244   Sp-Corner_Class_1_Pod_2_ZN_1_FLR_1 Sys-3 Flr-1 Sch-D HPlcmt-south ZN NECB System 3 PSZ Occ Sch Thursday, !- Thursday Schedule:Day Name\n   *************   2245   Sp-Corner_Class_1_Pod_2_ZN_1_FLR_1 Sys-3 Flr-1 Sch-D HPlcmt-south ZN NECB System 3 PSZ Occ Sch Friday, !- Friday Schedule:Day Name\n   *************   2246   Sp-Corner_Class_1_Pod_2_ZN_1_FLR_1 Sys-3 Flr-1 Sch-D HPlcmt-south ZN NECB System 3 PSZ Occ Sch Saturday, !- Saturday Schedule:Day Name\n   ** Warning ** IP: IDF line~2246 Alpha Argument length exceeds maximum, will be truncated=  Sp-Corner_Class_1_Pod_2_ZN_1_FLR_1 Sys-3 Flr-1 Sch-D HPlcmt-south ZN NECB System 3 PSZ Occ Sch Saturda\n   **   ~~~   ** Will be processed as Alpha=SP-CORNER_CLASS_1_POD_2_ZN_1_FLR_1 SYS-3 FLR-1 SCH-D HPLCMT-SOUTH ZN NECB SYSTEM 3 PSZ OCC SCH SATURDAY\n   ************* IDF Context for following error/warning message:\n   ************* Note -- lines truncated at 300 characters, if necessary...\n   *************   2238 Schedule:Week:Daily,\n   ************* indicated Name=Schedule:Week:Daily {12ad81c7-7975-42af-9c86-dd3ef1897963}\n   ************* Only last 9 lines before error line shown.....\n   *************   2239   Schedule:Week:Daily {12ad81c7-7975-42af-9c86-dd3ef1897963}, !- Name\n   *************   2240   Sp-Corner_Class_1_Pod_2_ZN_1_FLR_1 Sys-3 Flr-1 Sch-D HPlcmt-south ZN NECB System 3 PSZ Occ Sch Sunday, !- Sunday Schedule:Day Name\n   *************   2241   Sp-Corner_Class_1_Pod_2_ZN_1_FLR_1 Sys-3 Flr-1 Sch-D HPlcmt-south ZN NECB System 3 PSZ Occ Sch Monday, !- Monday Schedule:Day Name\n   *************   2242   Sp-Corner_Class_1_Pod_2_ZN_1_FLR_1 Sys-3 Flr-1 Sch-D HPlcmt-south ZN NECB System 3 PSZ Occ Sch Tuesday, !- Tuesday Schedule:Day Name\n   *************   2243   Sp-Corner_Class_1_Pod_2_ZN_1_FLR_1 Sys-3 Flr-1 Sch-D HPlcmt-south ZN NECB System 3 PSZ Occ Sch Wednesday, !- Wednesday Schedule:Day Name\n   *************   2244   Sp-Corner_Class_1_Pod_2_ZN_1_FLR_1 Sys-3 Flr-1 Sch-D HPlcmt-south ZN NECB System 3 PSZ Occ Sch Thursday, !- Thursday Schedule:Day Name\n   *************   2245   Sp-Corner_Class_1_Pod_2_ZN_1_FLR_1 Sys-3 Flr-1 Sch-D HPlcmt-south ZN NECB System 3 PSZ Occ Sch Friday, !- Friday Schedule:Day Name\n   *************   2246   Sp-Corner_Class_1_Pod_2_ZN_1_FLR_1 Sys-3 Flr-1 Sch-D HPlcmt-south ZN NECB System 3 PSZ Occ Sch Saturday, !- Saturday Schedule:Day Name\n   *************   2247   Sp-Corner_Class_1_Pod_2_ZN_1_FLR_1 Sys-3 Flr-1 Sch-D HPlcmt-south ZN NECB System 3 PSZ Occ Sch Default, !- Holiday Schedule:Day Name\n   ** Warning ** IP: IDF line~2247 Alpha Argument length exceeds maximum, will be truncated=  Sp-Corner_Class_1_Pod_2_ZN_1_FLR_1 Sys-3 Flr-1 Sch-D HPlcmt-south ZN NECB System 3 PSZ Occ Sch Defaul\n   **   ~~~   ** Will be processed as Alpha=SP-CORNER_CLASS_1_POD_2_ZN_1_FLR_1 SYS-3 FLR-1 SCH-D HPLCMT-SOUTH ZN NECB SYSTEM 3 PSZ OCC SCH DEFAULT\n   ************* IDF Context for following error/warning message:\n   ************* Note -- lines truncated at 300 characters, if necessary...\n   *************   2238 Schedule:Week:Daily,\n   ************* indicated Name=Schedule:Week:Daily {12ad81c7-7975-42af-9c86-dd3ef1897963}\n   ************* Only last 10 lines before error line shown.....\n   *************   2239   Schedule:Week:Daily {12ad81c7-7975-42af-9c86-dd3ef1897963}, !- Name\n   *************   2240   Sp-Corner_Class_1_Pod_2_ZN_1_FLR_1 Sys-3 Flr-1 Sch-D HPlcmt-south ZN NECB System 3 PSZ Occ Sch Sunday, !- Sunday Schedule:Day Name\n   *************   2241   Sp-Corner_Class_1_Pod_2_ZN_1_FLR_1 Sys-3 Flr-1 Sch-D HPlcmt-south ZN NECB System 3 PSZ Occ Sch Monday, !- Monday Schedule:Day Name\n   *************   2242   Sp-Corner_Class_1_Pod_2_ZN_1_FLR_1 Sys-3 Flr-1 Sch-D HPlcmt-south ZN NECB System 3 PSZ Occ Sch Tuesday, !- Tuesday Schedule:Day Name\n   *************   2243   Sp-Corner_Class_1_Pod_2_ZN_1_FLR_1 Sys-3 Flr-1 Sch-D HPlcmt-south ZN NECB System 3 PSZ Occ Sch Wednesday, !- Wednesday Schedule:Day Name\n   *************   2244   Sp-Corner_Class_1_Pod_2_ZN_1_FLR_1 Sys-3 Flr-1 Sch-D HPlcmt-south ZN NECB System 3 PSZ Occ Sch Thursday, !- Thursday Schedule:Day Name\n   *************   2245   Sp-Corner_Class_1_Pod_2_ZN_1_FLR_1 Sys-3 Flr-1 Sch-D HPlcmt-south ZN NECB System 3 PSZ Occ Sch Friday, !- Friday Schedule:Day Name\n   *************   2246   Sp-Corner_Class_1_Pod_2_ZN_1_FLR_1 Sys-3 Flr-1 Sch-D HPlcmt-south ZN NECB System 3 PSZ Occ Sch Saturday, !- Saturday Schedule:Day Name\n   *************   2247   Sp-Corner_Class_1_Pod_2_ZN_1_FLR_1 Sys-3 Flr-1 Sch-D HPlcmt-south ZN NECB System 3 PSZ Occ Sch Default, !- Holiday Schedule:Day Name\n   *************   2248   Sp-Corner_Class_1_Pod_2_ZN_1_FLR_1 Sys-3 Flr-1 Sch-D HPlcmt-south ZN NECB System 3 PSZ Occ Sch Summer Design Day, !- SummerDesignDay Schedule:Day Name\n   ** Warning ** IP: IDF line~2248 Alpha Argument length exceeds maximum, will be truncated=  Sp-Corner_Class_1_Pod_2_ZN_1_FLR_1 Sys-3 Flr-1 Sch-D HPlcmt-south ZN NECB System 3 PSZ Occ Sch Summer Design Da\n   **   ~~~   ** Will be processed as Alpha=SP-CORNER_CLASS_1_POD_2_ZN_1_FLR_1 SYS-3 FLR-1 SCH-D HPLCMT-SOUTH ZN NECB SYSTEM 3 PSZ OCC SCH SUMMER DESIGN DAY\n   ************* IDF Context for following error/warning message:\n   ************* Note -- lines truncated at 300 characters, if necessary...\n   *************   2238 Schedule:Week:Daily,\n   ************* indicated Name=Schedule:Week:Daily {12ad81c7-7975-42af-9c86-dd3ef1897963}\n   ************* Only last 10 lines before error line shown.....\n   *************   2240   Sp-Corner_Class_1_Pod_2_ZN_1_FLR_1 Sys-3 Flr-1 Sch-D HPlcmt-south ZN NECB System 3 PSZ Occ Sch Sunday, !- Sunday Schedule:Day Name\n   *************   2241   Sp-Corner_Class_1_Pod_2_ZN_1_FLR_1 Sys-3 Flr-1 Sch-D HPlcmt-south ZN NECB System 3 PSZ Occ Sch Monday, !- Monday Schedule:Day Name\n   *************   2242   Sp-Corner_Class_1_Pod_2_ZN_1_FLR_1 Sys-3 Flr-1 Sch-D HPlcmt-south ZN NECB System 3 PSZ Occ Sch Tuesday, !- Tuesday Schedule:Day Name\n   *************   2243   Sp-Corner_Class_1_Pod_2_ZN_1_FLR_1 Sys-3 Flr-1 Sch-D HPlcmt-south ZN NECB System 3 PSZ Occ Sch Wednesday, !- Wednesday Schedule:Day Name\n   *************   2244   Sp-Corner_Class_1_Pod_2_ZN_1_FLR_1 Sys-3 Flr-1 Sch-D HPlcmt-south ZN NECB System 3 PSZ Occ Sch Thursday, !- Thursday Schedule:Day Name\n   *************   2245   Sp-Corner_Class_1_Pod_2_ZN_1_FLR_1 Sys-3 Flr-1 Sch-D HPlcmt-south ZN NECB System 3 PSZ Occ Sch Friday, !- Friday Schedule:Day Name\n   *************   2246   Sp-Corner_Class_1_Pod_2_ZN_1_FLR_1 Sys-3 Flr-1 Sch-D HPlcmt-south ZN NECB System 3 PSZ Occ Sch Saturday, !- Saturday Schedule:Day Name\n   *************   2247   Sp-Corner_Class_1_Pod_2_ZN_1_FLR_1 Sys-3 Flr-1 Sch-D HPlcmt-south ZN NECB System 3 PSZ Occ Sch Default, !- Holiday Schedule:Day Name\n   *************   2248   Sp-Corner_Class_1_Pod_2_ZN_1_FLR_1 Sys-3 Flr-1 Sch-D HPlcmt-south ZN NECB System 3 PSZ Occ Sch Summer Design Day, !- SummerDesignDay Schedule:Day Name\n   *************   2249   Sp-Corner_Class_1_Pod_2_ZN_1_FLR_1 Sys-3 Flr-1 Sch-D HPlcmt-south ZN NECB System 3 PSZ Occ Sch Winter Design Day, !- WinterDesignDay Schedule:Day Name\n   ** Warning ** IP: IDF line~2249 Alpha Argument length exceeds maximum, will be truncated=  Sp-Corner_Class_1_Pod_2_ZN_1_FLR_1 Sys-3 Flr-1 Sch-D HPlcmt-south ZN NECB System 3 PSZ Occ Sch Winter Design Da\n   **   ~~~   ** Will be processed as Alpha=SP-CORNER_CLASS_1_POD_2_ZN_1_FLR_1 SYS-3 FLR-1 SCH-D HPLCMT-SOUTH ZN NECB SYSTEM 3 PSZ OCC SCH WINTER DESIGN DAY\n   ************* IDF Context for following error/warning message:\n   ************* Note -- lines truncated at 300 characters, if necessary...\n   *************   2238 Schedule:Week:Daily,\n   ************* indicated Name=Schedule:Week:Daily {12ad81c7-7975-42af-9c86-dd3ef1897963}\n   ************* Only last 10 lines before error line shown.....\n   *************   2241   Sp-Corner_Class_1_Pod_2_ZN_1_FLR_1 Sys-3 Flr-1 Sch-D HPlcmt-south ZN NECB System 3 PSZ Occ Sch Monday, !- Monday Schedule:Day Name\n   *************   2242   Sp-Corner_Class_1_Pod_2_ZN_1_FLR_1 Sys-3 Flr-1 Sch-D HPlcmt-south ZN NECB System 3 PSZ Occ Sch Tuesday, !- Tuesday Schedule:Day Name\n   *************   2243   Sp-Corner_Class_1_Pod_2_ZN_1_FLR_1 Sys-3 Flr-1 Sch-D HPlcmt-south ZN NECB System 3 PSZ Occ Sch Wednesday, !- Wednesday Schedule:Day Name\n   *************   2244   Sp-Corner_Class_1_Pod_2_ZN_1_FLR_1 Sys-3 Flr-1 Sch-D HPlcmt-south ZN NECB System 3 PSZ Occ Sch Thursday, !- Thursday Schedule:Day Name\n   *************   2245   Sp-Corner_Class_1_Pod_2_ZN_1_FLR_1 Sys-3 Flr-1 Sch-D HPlcmt-south ZN NECB System 3 PSZ Occ Sch Friday, !- Friday Schedule:Day Name\n   *************   2246   Sp-Corner_Class_1_Pod_2_ZN_1_FLR_1 Sys-3 Flr-1 Sch-D HPlcmt-south ZN NECB System 3 PSZ Occ Sch Saturday, !- Saturday Schedule:Day Name\n   *************   2247   Sp-Corner_Class_1_Pod_2_ZN_1_FLR_1 Sys-3 Flr-1 Sch-D HPlcmt-south ZN NECB System 3 PSZ Occ Sch Default, !- Holiday Schedule:Day Name\n   *************   2248   Sp-Corner_Class_1_Pod_2_ZN_1_FLR_1 Sys-3 Flr-1 Sch-D HPlcmt-south ZN NECB System 3 PSZ Occ Sch Summer Design Day, !- SummerDesignDay Schedule:Day Name\n   *************   2249   Sp-Corner_Class_1_Pod_2_ZN_1_FLR_1 Sys-3 Flr-1 Sch-D HPlcmt-south ZN NECB System 3 PSZ Occ Sch Winter Design Day, !- WinterDesignDay Schedule:Day Name\n   *************   2250   Sp-Corner_Class_1_Pod_2_ZN_1_FLR_1 Sys-3 Flr-1 Sch-D HPlcmt-south ZN NECB System 3 PSZ Occ Sch Default, !- CustomDay1 Schedule:Day Name\n   ** Warning ** IP: IDF line~2250 Alpha Argument length exceeds maximum, will be truncated=  Sp-Corner_Class_1_Pod_2_ZN_1_FLR_1 Sys-3 Flr-1 Sch-D HPlcmt-south ZN NECB System 3 PSZ Occ Sch Defaul\n   **   ~~~   ** Will be processed as Alpha=SP-CORNER_CLASS_1_POD_2_ZN_1_FLR_1 SYS-3 FLR-1 SCH-D HPLCMT-SOUTH ZN NECB SYSTEM 3 PSZ OCC SCH DEFAULT\n   ************* IDF Context for following error/warning message:\n   ************* Note -- lines truncated at 300 characters, if necessary...\n   *************   2238 Schedule:Week:Daily,\n   ************* indicated Name=Schedule:Week:Daily {12ad81c7-7975-42af-9c86-dd3ef1897963}\n   ************* Only last 10 lines before error line shown.....\n   *************   2242   Sp-Corner_Class_1_Pod_2_ZN_1_FLR_1 Sys-3 Flr-1 Sch-D HPlcmt-south ZN NECB System 3 PSZ Occ Sch Tuesday, !- Tuesday Schedule:Day Name\n   *************   2243   Sp-Corner_Class_1_Pod_2_ZN_1_FLR_1 Sys-3 Flr-1 Sch-D HPlcmt-south ZN NECB System 3 PSZ Occ Sch Wednesday, !- Wednesday Schedule:Day Name\n   *************   2244   Sp-Corner_Class_1_Pod_2_ZN_1_FLR_1 Sys-3 Flr-1 Sch-D HPlcmt-south ZN NECB System 3 PSZ Occ Sch Thursday, !- Thursday Schedule:Day Name\n   *************   2245   Sp-Corner_Class_1_Pod_2_ZN_1_FLR_1 Sys-3 Flr-1 Sch-D HPlcmt-south ZN NECB System 3 PSZ Occ Sch Friday, !- Friday Schedule:Day Name\n   *************   2246   Sp-Corner_Class_1_Pod_2_ZN_1_FLR_1 Sys-3 Flr-1 Sch-D HPlcmt-south ZN NECB System 3 PSZ Occ Sch Saturday, !- Saturday Schedule:Day Name\n   *************   2247   Sp-Corner_Class_1_Pod_2_ZN_1_FLR_1 Sys-3 Flr-1 Sch-D HPlcmt-south ZN NECB System 3 PSZ Occ Sch Default, !- Holiday Schedule:Day Name\n   *************   2248   Sp-Corner_Class_1_Pod_2_ZN_1_FLR_1 Sys-3 Flr-1 Sch-D HPlcmt-south ZN NECB System 3 PSZ Occ Sch Summer Design Day, !- SummerDesignDay Schedule:Day Name\n   *************   2249   Sp-Corner_Class_1_Pod_2_ZN_1_FLR_1 Sys-3 Flr-1 Sch-D HPlcmt-south ZN NECB System 3 PSZ Occ Sch Winter Design Day, !- WinterDesignDay Schedule:Day Name\n   *************   2250   Sp-Corner_Class_1_Pod_2_ZN_1_FLR_1 Sys-3 Flr-1 Sch-D HPlcmt-south ZN NECB System 3 PSZ Occ Sch Default, !- CustomDay1 Schedule:Day Name\n   *************   2251   Sp-Corner_Class_1_Pod_2_ZN_1_FLR_1 Sys-3 Flr-1 Sch-D HPlcmt-south ZN NECB System 3 PSZ Occ Sch Default; !- CustomDay2 Schedule:Day Name\n   ** Warning ** IP: IDF line~2251 Alpha Argument length exceeds maximum, will be truncated=  Sp-Corner_Class_1_Pod_2_ZN_1_FLR_1 Sys-3 Flr-1 Sch-D HPlcmt-south ZN NECB System 3 PSZ Occ Sch Defaul\n   **   ~~~   ** Will be processed as Alpha=SP-CORNER_CLASS_1_POD_2_ZN_1_FLR_1 SYS-3 FLR-1 SCH-D HPLCMT-SOUTH ZN NECB SYSTEM 3 PSZ OCC SCH DEFAULT\n   ************* IDF Context for following error/warning message:\n   ************* Note -- lines truncated at 300 characters, if necessary...\n   *************   2262 Schedule:Day:Interval,\n   ************* indicated Name=Sp-Corner_Class_1_Pod_2_ZN_1_FLR_1 Sys-3 Flr-1 Sch-D HPlcmt-south ZN NECB System 3 PSZ Occ Sch Default\n   ************* Only last 1 lines before error line shown.....\n   *************   2263   Sp-Corner_Class_1_Pod_2_ZN_1_FLR_1 Sys-3 Flr-1 Sch-D HPlcmt-south ZN NECB System 3 PSZ Occ Sch Default, !- Name\n   ** Warning ** IP: IDF line~2263 Alpha Argument length exceeds maximum, will be truncated=  Sp-Corner_Class_1_Pod_2_ZN_1_FLR_1 Sys-3 Flr-1 Sch-D HPlcmt-south ZN NECB System 3 PSZ Occ Sch Defaul\n   **   ~~~   ** Will be processed as Alpha=SP-CORNER_CLASS_1_POD_2_ZN_1_FLR_1 SYS-3 FLR-1 SCH-D HPLCMT-SOUTH ZN NECB SYSTEM 3 PSZ OCC SCH DEFAULT\n   ************* IDF Context for following error/warning message:\n   ************* Note -- lines truncated at 300 characters, if necessary...\n   *************   2269 Schedule:Day:Interval,\n   ************* indicated Name=Sp-Corner_Class_1_Pod_2_ZN_1_FLR_1 Sys-3 Flr-1 Sch-D HPlcmt-south ZN NECB System 3 PSZ Occ Sch Summer Design Day\n   ************* Only last 1 lines before error line shown.....\n   *************   2270   Sp-Corner_Class_1_Pod_2_ZN_1_FLR_1 Sys-3 Flr-1 Sch-D HPlcmt-south ZN NECB System 3 PSZ Occ Sch Summer Design Day, !- Name\n   ** Warning ** IP: IDF line~2270 Alpha Argument length exceeds maximum, will be truncated=  Sp-Corner_Class_1_Pod_2_ZN_1_FLR_1 Sys-3 Flr-1 Sch-D HPlcmt-south ZN NECB System 3 PSZ Occ Sch Summer Design Da\n   **   ~~~   ** Will be processed as Alpha=SP-CORNER_CLASS_1_POD_2_ZN_1_FLR_1 SYS-3 FLR-1 SCH-D HPLCMT-SOUTH ZN NECB SYSTEM 3 PSZ OCC SCH SUMMER DESIGN DAY\n   ************* IDF Context for following error/warning message:\n   ************* Note -- lines truncated at 300 characters, if necessary...\n   *************   2276 Schedule:Day:Interval,\n   ************* indicated Name=Sp-Corner_Class_1_Pod_2_ZN_1_FLR_1 Sys-3 Flr-1 Sch-D HPlcmt-south ZN NECB System 3 PSZ Occ Sch Winter Design Day\n   ************* Only last 1 lines before error line shown.....\n   *************   2277   Sp-Corner_Class_1_Pod_2_ZN_1_FLR_1 Sys-3 Flr-1 Sch-D HPlcmt-south ZN NECB System 3 PSZ Occ Sch Winter Design Day, !- Name\n   ** Warning ** IP: IDF line~2277 Alpha Argument length exceeds maximum, will be truncated=  Sp-Corner_Class_1_Pod_2_ZN_1_FLR_1 Sys-3 Flr-1 Sch-D HPlcmt-south ZN NECB System 3 PSZ Occ Sch Winter Design Da\n   **   ~~~   ** Will be processed as Alpha=SP-CORNER_CLASS_1_POD_2_ZN_1_FLR_1 SYS-3 FLR-1 SCH-D HPLCMT-SOUTH ZN NECB SYSTEM 3 PSZ OCC SCH WINTER DESIGN DAY\n   ************* IDF Context for following error/warning message:\n   ************* Note -- lines truncated at 300 characters, if necessary...\n   *************   2545 Schedule:Day:Interval,\n   ************* indicated Name=Sp-Corner_Class_1_Pod_3_ZN_1_FLR_1 Sys-3 Flr-1 Sch-D HPlcmt-south ZN NECB System 3 PSZ Occ Sch Sunday\n   ************* Only last 1 lines before error line shown.....\n   *************   2546   Sp-Corner_Class_1_Pod_3_ZN_1_FLR_1 Sys-3 Flr-1 Sch-D HPlcmt-south ZN NECB System 3 PSZ Occ Sch Sunday, !- Name\n   ** Warning ** IP: IDF line~2546 Alpha Argument length exceeds maximum, will be truncated=  Sp-Corner_Class_1_Pod_3_ZN_1_FLR_1 Sys-3 Flr-1 Sch-D HPlcmt-south ZN NECB System 3 PSZ Occ Sch Sunda\n   **   ~~~   ** Will be processed as Alpha=SP-CORNER_CLASS_1_POD_3_ZN_1_FLR_1 SYS-3 FLR-1 SCH-D HPLCMT-SOUTH ZN NECB SYSTEM 3 PSZ OCC SCH SUNDAY\n   ************* IDF Context for following error/warning message:\n   ************* Note -- lines truncated at 300 characters, if necessary...\n   *************   2552 Schedule:Day:Interval,\n   ************* indicated Name=Sp-Corner_Class_1_Pod_3_ZN_1_FLR_1 Sys-3 Flr-1 Sch-D HPlcmt-south ZN NECB System 3 PSZ Occ Sch Monday\n   ************* Only last 1 lines before error line shown.....\n   *************   2553   Sp-Corner_Class_1_Pod_3_ZN_1_FLR_1 Sys-3 Flr-1 Sch-D HPlcmt-south ZN NECB System 3 PSZ Occ Sch Monday, !- Name\n   ** Warning ** IP: IDF line~2553 Alpha Argument length exceeds maximum, will be truncated=  Sp-Corner_Class_1_Pod_3_ZN_1_FLR_1 Sys-3 Flr-1 Sch-D HPlcmt-south ZN NECB System 3 PSZ Occ Sch Monda\n   **   ~~~   ** Will be processed as Alpha=SP-CORNER_CLASS_1_POD_3_ZN_1_FLR_1 SYS-3 FLR-1 SCH-D HPLCMT-SOUTH ZN NECB SYSTEM 3 PSZ OCC SCH MONDAY\n   ************* IDF Context for following error/warning message:\n   ************* Note -- lines truncated at 300 characters, if necessary...\n   *************   2567 Schedule:Day:Interval,\n   ************* indicated Name=Sp-Corner_Class_1_Pod_3_ZN_1_FLR_1 Sys-3 Flr-1 Sch-D HPlcmt-south ZN NECB System 3 PSZ Occ Sch Tuesday\n   ************* Only last 1 lines before error line shown.....\n   *************   2568   Sp-Corner_Class_1_Pod_3_ZN_1_FLR_1 Sys-3 Flr-1 Sch-D HPlcmt-south ZN NECB System 3 PSZ Occ Sch Tuesday, !- Name\n   ** Warning ** IP: IDF line~2568 Alpha Argument length exceeds maximum, will be truncated=  Sp-Corner_Class_1_Pod_3_ZN_1_FLR_1 Sys-3 Flr-1 Sch-D HPlcmt-south ZN NECB System 3 PSZ Occ Sch Tuesda\n   **   ~~~   ** Will be processed as Alpha=SP-CORNER_CLASS_1_POD_3_ZN_1_FLR_1 SYS-3 FLR-1 SCH-D HPLCMT-SOUTH ZN NECB SYSTEM 3 PSZ OCC SCH TUESDAY\n   ************* IDF Context for following error/warning message:\n   ************* Note -- lines truncated at 300 characters, if necessary...\n   *************   2582 Schedule:Day:Interval,\n   ************* indicated Name=Sp-Corner_Class_1_Pod_3_ZN_1_FLR_1 Sys-3 Flr-1 Sch-D HPlcmt-south ZN NECB System 3 PSZ Occ Sch Wednesday\n   ************* Only last 1 lines before error line shown.....\n   *************   2583   Sp-Corner_Class_1_Pod_3_ZN_1_FLR_1 Sys-3 Flr-1 Sch-D HPlcmt-south ZN NECB System 3 PSZ Occ Sch Wednesday, !- Name\n   ** Warning ** IP: IDF line~2583 Alpha Argument length exceeds maximum, will be truncated=  Sp-Corner_Class_1_Pod_3_ZN_1_FLR_1 Sys-3 Flr-1 Sch-D HPlcmt-south ZN NECB System 3 PSZ Occ Sch Wednesda\n   **   ~~~   ** Will be processed as Alpha=SP-CORNER_CLASS_1_POD_3_ZN_1_FLR_1 SYS-3 FLR-1 SCH-D HPLCMT-SOUTH ZN NECB SYSTEM 3 PSZ OCC SCH WEDNESDAY\n   ************* IDF Context for following error/warning message:\n   ************* Note -- lines truncated at 300 characters, if necessary...\n   *************   2597 Schedule:Day:Interval,\n   ************* indicated Name=Sp-Corner_Class_1_Pod_3_ZN_1_FLR_1 Sys-3 Flr-1 Sch-D HPlcmt-south ZN NECB System 3 PSZ Occ Sch Thursday\n   ************* Only last 1 lines before error line shown.....\n   *************   2598   Sp-Corner_Class_1_Pod_3_ZN_1_FLR_1 Sys-3 Flr-1 Sch-D HPlcmt-south ZN NECB System 3 PSZ Occ Sch Thursday, !- Name\n   ** Warning ** IP: IDF line~2598 Alpha Argument length exceeds maximum, will be truncated=  Sp-Corner_Class_1_Pod_3_ZN_1_FLR_1 Sys-3 Flr-1 Sch-D HPlcmt-south ZN NECB System 3 PSZ Occ Sch Thursda\n   **   ~~~   ** Will be processed as Alpha=SP-CORNER_CLASS_1_POD_3_ZN_1_FLR_1 SYS-3 FLR-1 SCH-D HPLCMT-SOUTH ZN NECB SYSTEM 3 PSZ OCC SCH THURSDAY\n   ************* IDF Context for following error/warning message:\n   ************* Note -- lines truncated at 300 characters, if necessary...\n   *************   2612 Schedule:Day:Interval,\n   ************* indicated Name=Sp-Corner_Class_1_Pod_3_ZN_1_FLR_1 Sys-3 Flr-1 Sch-D HPlcmt-south ZN NECB System 3 PSZ Occ Sch Friday\n   ************* Only last 1 lines before error line shown.....\n   *************   2613   Sp-Corner_Class_1_Pod_3_ZN_1_FLR_1 Sys-3 Flr-1 Sch-D HPlcmt-south ZN NECB System 3 PSZ Occ Sch Friday, !- Name\n   ** Warning ** IP: IDF line~2613 Alpha Argument length exceeds maximum, will be truncated=  Sp-Corner_Class_1_Pod_3_ZN_1_FLR_1 Sys-3 Flr-1 Sch-D HPlcmt-south ZN NECB System 3 PSZ Occ Sch Frida\n   **   ~~~   ** Will be processed as Alpha=SP-CORNER_CLASS_1_POD_3_ZN_1_FLR_1 SYS-3 FLR-1 SCH-D HPLCMT-SOUTH ZN NECB SYSTEM 3 PSZ OCC SCH FRIDAY\n   ************* IDF Context for following error/warning message:\n   ************* Note -- lines truncated at 300 characters, if necessary...\n   *************   2627 Schedule:Day:Interval,\n   ************* indicated Name=Sp-Corner_Class_1_Pod_3_ZN_1_FLR_1 Sys-3 Flr-1 Sch-D HPlcmt-south ZN NECB System 3 PSZ Occ Sch Saturday\n   ************* Only last 1 lines before error line shown.....\n   *************   2628   Sp-Corner_Class_1_Pod_3_ZN_1_FLR_1 Sys-3 Flr-1 Sch-D HPlcmt-south ZN NECB System 3 PSZ Occ Sch Saturday, !- Name\n   ** Warning ** IP: IDF line~2628 Alpha Argument length exceeds maximum, will be truncated=  Sp-Corner_Class_1_Pod_3_ZN_1_FLR_1 Sys-3 Flr-1 Sch-D HPlcmt-south ZN NECB System 3 PSZ Occ Sch Saturda\n   **   ~~~   ** Will be processed as Alpha=SP-CO
[...]
D/pmKz4P+j4sPg/6Fi0+D/q+RD4P+pZFPg/6bkY+D/pGRz6PGvJcc3skn0cNea65qZLPo4aVXFNW6TxK31BSraxavMKEwYIuq9gs6M5gs6D7gs2CLqvYLOiyis2CLqvYLOiyis2Cnm7ZLDRlFZ8HPd3yedDTLZ8HXVbxedBlFZ8HXVbxedBlFZ8HXVbxedBlFZ9HDXmuKav4PGrIc01ZxedRw0quKat0HqUbwVcrqxY7xTNY0GUVmwXdGWwWdF+wWdBlFZsFXVaxWdBlFZsFXVaxWdDTLZuFpqzi86CnWz4Perrl86DLKj4Puqzi86DLKj4Puqzi86DLKj4Puqzi86ghzzVlFZ9HDXmuKav4PGpYyTVllc6jdL/damXVYkNeBgu6rGKzoDuDzYLuCzYLuqxis6DLKjYLuqxis6DLKjYLerpls9CUVXwe9HTL50FPt3wedFnF50GXVXwedFnF50GXVXwedFnF50GXVXweNeS5pqzi86ghzzVlFZ9HDSu5pqzSeZRua1itrFrse8hgQZdVbBZ0Z7BZ0H3BZkGXVWwWdFnFZkGXVWwWdFnFZkFPt2wW2s3WuDx0u1Vxeeg2suLy0O1xxeWh2/6Ky0O35xuXh247OC4P3U5xXB66TeS4PGrIc+3Wc1weNeS5dsM6Lo8aVnJNWbXy+F5lh9fljs7iSETyfrWDbLFxbCO9GzeLHWBLt4pdbQudyux9PIv8tNFtN4XjdJuio35zu9W2m33IMZ52u/b9vpfJcZzMjx+CdLGt8tP1V9h7Ohc4T3yZXMzULseVT1Qc85ccn6SXzhK5wFAbNS/bfcP7fiOMMMIII4wwwggjjDDCCCOMMMIII4wwwggjjDDCCCOMMMIII4wwwggjjDDCCCOMMMIII4wwwggjjDDCCCOMMMIII4wwwggj/LcKz+34TiZJ4MtPnnqw1rHbf/F5VfVobPry0dhLmQQyXT5eazVXDxBPwzizwyCSpY/Ipq89p1v+ZG1qF6+en8ahlwVxlENZaSanrWs5ihNpVXvy+aMcy8h/eUGLzxq9dlN01JPLbfUgs/phhXKUKbAS6ZWsPRjL7DTKVPvkFqNZNCxIG9vijxKJFaF8Ovuq9FludQQj0cgmQWqnRa9UM1LHs5PsvP1OveGk8V9gU7UVvnp0PGdf6g6mcRoowZP84ypXszqUzCtUSXxvhrTCCiJfqnxoOU3Ds1fHzbonjgIZqvHWWLbpIk/GSTybSl/8/LP4x/LzB3sw8dLl8+8qwbafR+evRvMGsb3x+Ex52KGMxtlEvBOu+D9hHYehJQ5ffiMNg6FstJztq/b37dJ8+9OVxIlo3OSX0v5F3OQ2y6G69FWf/TOfccw7SB1qGC/1rm6+2z/kXBwdHS0abz3FQnXZ7Teml7o6rhPp/Vjn5EfDc0y/r9preXVHalirwbAcKcVGDvbAS9NgHEm/r7aISK+Klvy+XlOuOno6SyeNdfsi79LDRX+un0lheFjlKm31zXVd0iyJf8hqPovvrusUT71hkM2rWS2/vPZVFRYrq3VVVhPJy2llnfQwnnzUsUrnlxOPaAnHVM0k3aqzPjaLVbXS9x/Lagp17OyIL79/Ff85//1CXJ5ffP3t86/i4/mvv/XFh9OL02oCZ/msLR88VaKJLBZpnGQimt3m42Aoii1NUuGlw7x4CaJxBcVV2yudZyuz1xTX1SeXRGazJBJTL0nlWRh7WcNTU/523pXPPrsuPqvUmOUl2jPb5SWUCT9udqeXp/qzSPci2Rtbvhx5szAT0yTO5zC51RRbP+3v9/unp1sb3ngGOMABDnCAAxzgAAc4wAEOcP6eOCKd3eb/BBa+VB8K35srokT6oAENaEADGtCABjSgAQ1oQAMaPc19cWvW/9BchzMJHOAABzjAAQ5wgAMc4AAHOMBZB+fpvYGOem/g5Yx6b2DHKf7Cdny8u3twAFKQghSkIAUpSEEKUpCCFKQgBSlI3wapW5B6GUXaLkg7Hdfd74EUpCAFKUhBClKQghSkIAUpSEEK0rdB2lGkZ0lAkLoHBanj7O11OiAFKUhBClKQghSkIAUpSEEKUpCC9G2Q7irSr5MZRbpfkB7kR/c9SEEKUpCCFKQgBSlIQQpSkIIUpCB9G6RdRfpv6VOkewXpyUm/v7cHUpCCFKQgBSlIQQpSkIIUpCAFKUjfBmmv+J+JmaRIewVpv9/rgRSkIAUpSEEKUpCCFKQgBSlIQQrSt0K6p0g/xdTOgm63IN3fd91uF6QgBSlIQQpSkIIUpCAFKUhBClKQ1ka6QvET775RKvZgZ0EWysuJN5V2Jh+yxtaHeJak5RjzP595EtzKKA3iKJRpoVAisbMjjn1feKJQEvdBNhFpfCuF3yk5M70b2950KiO/YSlva7vkhNVhe1mWNKwHqyl6bcOT5vlJbvWT0mweygVey4uGkzjJz7dCOTKgXWqM4ihr3ctgPMmUxnUc+tU1Fn1zOW19moXZoB/mY3TgDL7E/qAz+PY5//Xs48XAEZfztNURZ2HSyn8fTlon4sOXcHibtdJ4lvfLt8/i82n/vfpaJm9FR3y5/CbOh0P13a1tXU+/20mHSTDN/kV+592OH9y9HibPocVyLRH4R9ZQpUE/bzkviGQycBzXEkV7Hll+kE5Db34YRGEea12H8fDHLxYNmKsurkFk82l+vmrSnRvvzlt8qj1THXdeooasOBJ+cDsNpR3J+8u7ccP66RXIpthtt4sfpTmodH0v83Lhqz+s0LuWoXVo+XLk5V0tpkk8CkJpNReRwYN16NjtpnXnhTO5/H2opqr8nHz26fdPT63HZiUdl0mnw6Szy6TTZdLpMensMensM+kcMOk4bS4hrhHtcA1ph2tMO1yD2uEa1Q7XsHa4xrXDNbAdrpHtco1sl22u5hrZLtfIdo1Gtkhnt7cv3l1daUVLpG8gQ7aRmQzZQmYyZPuYyZB5byZDZr2ZDJnzZjJkxpvJkPluJkMvZIY6TOOYXsYMdZhGMr2IGeowjWV6CTPUYRrN9AJmqMM0nunly1CHa15mGs/02mWoU3083wdRZr5sXauPquuQzWOoQzaPoQ7ZPIY6ZLob6pDpbqhDpruhDpnuhjpkuhvq0OuXqRDXiKZXMFMhrjFNr2GmQlyjml7FTIW4xjW9jpkKcY1seiUzFWKbq7lGNr2YmQpVH9lPf8wofdkwtcy1X/xDb/E2YgYLd/MWnc1b7G7eort5i97mLfY2b7G/eYuDzVu8WNk35VFDfjs1JLhTQ4Y7NaS4U0OOOzUkuVNDljs1pLlTQ567NeS5W8c6XkOeuzXkubtenpe+07FaWbV46SODBd0bbBZ0Z7BZ0H3BZkFPuWwW9IzLZkFPuGwW9HzLZkFPt2wWmrKKz6OG/NaUVXweNWS4pqzi86ghxzVlFZ9HDVmuKav4PGrIc01ZxedRxzpeQ55ryio+j/XyvPTVWdXKqsW7tRgs6N5gs6A7g82C7gs2C3rKZbOgZ1w2C3rCZbOg51s2C3q6ZbPQ3BDI50HfUcXnQd9sxedB34fF50HfosXnQd+XyOdB37LI50HfzcjnQd/oyOdRQ55rbo/k86ghzzU3VfJ51LCSa8oqnUfpG0qqlVWLV5gwWNBlFZsF3RlsFnRfsFnQZRWbBV1WsVnQZRWbBV1WsVnQ0y2bhaas4vOgp1s+D3q65fOgyyo+D7qs4vOgyyo+D7qs4vOgyyo+D7qs4vOoIc81ZRWfRw15rimr+DxqWMk1ZZXOo3Qj+Gpl1WKneAYLuqxis6A7g82C7gs2C7qsYrOgyyo2C7qsYrOgyyo2C3q6ZbPQlFV8HvR0y+dBT7d8HnRZxedBl1V8HnRZxedBl1V8HnRZxedBl1V8HjXkuaas4vOoIc81ZRWfRw0ruaas0nmU7rdbraxabMjLYEGXVWwWdGewWdB9wWZBl1VsFnRZxWZBl1VsFnRZxWZBT7dsFpqyis+Dnm75POjpls+DLqv4POiyis+DLqv4POiyis+DLqv4POiyis+jhjzXlFV8HjXkuaas4vOoYSXXlFU6j9JtDauVVYt9Dxks6LKKzYLuDDYLui/YLOiyis2CLqvYLOiyis2CLqvYLOjpls1Cu9kal4dutyouD91GVlweuj2uuDx0219xeej2fOPy0G0Hx+Wh2ymOy0O3iRyXRw15rt16jsujhjzXbljH5VHDSq4pq1Ye36vs8Lrc0VkciUjer3aQLTaObaR342axA2zpVrGrbaFTmb2PZ5GfNrrtpnCcblN01G9ut9p2sw85xtNu177f9zI5jpP58UOQLrZVfrr+CntP5wLniS+Ti5na5bjyiYpj/pLjk/TSWSIXGGqj5mW7b3jfb4QRRhhhhBFGGGGEEUYYYYQRRhhhhBFGGGGEEUYYYYQRRhhhhBFGGGGEEUYYYYQRRhhhhBFGGGGEEUYYYYQRRhhhhBFGGGGE/1bhuR3fySQJfPnJUw/WOnb7Lz6vqh6NTV8+Gnspk0Cmy8drrebqAeJpGGd2GESy9BHZ9LXndMufrE3t4tXz0zj0siCOcigrzeS0dS1HcSKtak8+f5RjGfkvL2jxWaPXboqOenK5rR5kVj+sUI4yBVYivZK1B2OZnUaZap/cYjSLhgVpY1v8USKxIpRPZ1+VPsutjmAkGtkkSO206JVqRup4dpKdt9+pN5w0/gtsqrbCV4+O5+xL3cE0TgMleJJ/XOVqVoeSeYUqie/NkFZYQeRLlQ8tp2l49uq4WffEUSBDNd4ayzZd5Mk4iWdT6Yuffxb/WH7+YA8mXrp8/l0l2Pbz6PzVaN4gtjcenykPO5TROJuId8IV/yes4zC0xOHLb6RhMJSNlrN91f6+XZpvf7qSOBGNm/xS2r+Im9xmOVSXvuqzf+YzjnkHqUMN46Xe1c13+4eci6Ojo0XjradYqC67/cb0UlfHdSK9H+uc/Gh4jun3VXstr+5IDWs1GJYjpdjIwR54aRqMI+n31RYR6VXRkt/Xa8pVR09n6aSxbl/kXXq46M/1MykMD6tcpa2+ua5LmiXxD1nNZ/HddZ3iqTcMsnk1q+WX176qwmJlta7KaiJ5Oa2skx7Gk486Vun8cuIRLeGYqpmkW3XWx2axqlb6/mNZTaGOnR3x5fev4j/nv1+Iy/OLr799/lV8PP/1t774cHpxWk3gLJ+15YOnSjSRxSKNk0xEs9t8HAxFsaVJKrx0mBcvQTSuoLhqe6XzbGX2muK6+uSSyGyWRGLqJak8C2Mva3hqyt/Ou/LZZ9fFZ5Uas7xEe2a7vIQy4cfN7vTyVH8W6V4ke2PLlyNvFmZimsT5HCa3mmLrp/39fv/0dGvDG88ABzjAAQ5wgAMc4AAHOMABzt8TR6Sz2/yfwMKX6kPhe3NFlEgfNKABDWhAAxrQgAY0oAENaECjp7kvbs36H5rrcCaBAxzgAAc4wAEOcIADHOAABzjr4Dy9N9BR7w28nFHvDew4xV/Yjo93dw8OQApSkIIUpCAFKUhBClKQghSkIAXp2yB1C1Ivo0jbBWmn47r7PZCCFKQgBSlIQQpSkIIUpCAFKUhB+jZIO4r0LAkIUvegIHWcvb1OB6QgBSlIQQpSkIIUpCAFKUhBClKQvg3SXUX6dTKjSPcL0oP86L4HKUhBClKQghSkIAUpSEEKUpCCFKRvg7SrSP8tfYp0ryA9Oen39/ZAClKQghSkIAUpSEEKUpCCFKQgBenbIO0V/zMxkxRpryDt93s9kIIUpCAFKUhBClKQghSkIAUpSEH6Vkj3FOmnmNpZ0O0WpPv7rtvtghSkIAUpSEEKUpCCFKQgBSlIQQrS2khXKH7i3TdKxR7sLMhCeTnxptLO5EPW2PoQz5K0HGP+5zNPglsZpUEchTItFEokdnbEse8LTxRK4j7IJiKNb6XwOyVnpndj25tOZeQ3LOVtbZecsDpsL8uShvVgNUWvbXjSPD/JrX5Sms1DucBredFwEif5+VYoRwa0S41RHGWtexmMJ5nSuI5Dv7rGom8up61PszAb9MN8jA7cwZfYHziDb5/zH2cfLwaOuJynrY44C5NW/vtw0joRH76Ew9usFcVJ3i/fPovPp/336muZvBUd8eXymzgfDtV3t7Z1Pf1uJx0mwTT7F/mddzt+cPd6mDyHFsu1ROAfWUOVBv285bwgksnAcTqWKNrzyPKDdBp688MgCvNY6zqMhz9+sWjAXHVxDSKbT/PzVZPu3Hh33uJT7ZnquPMSNWTFkfCD22ko7UjeX96NG9ZPr0A2xW67XfwozUGl63uZlwtf/WGF3rUMrUPLlyMv72oxTeJREEqruYgMHqxDx243rTsvnMnl70M1VeXn5LNPv396aj02K+m4TDodJp1dJp0uk06PSWePSWefSeeAScdpcwlxjWiHa0g7XGPa4RrUDteodriGtcM1rh2uge1wjWyXa2S7bHM118h2uUa2azSyRTq7vX3x7upKK1oifQMZso3MZMgWMpMh28dMhsx7Mxky681kyJw3kyEz3kyGzHczGXohM9RhGsf0MmaowzSS6UXMUIdpLNNLmKEO02imFzBDHabxTC9fhjpc8zLTeKbXLkOd6uP5Pogy82XrWn1UXYdsHkMdsnkMdcjmMdQh091Qh0x3Qx0y3Q11yHQ31CHT3VCHXr9MhbhGNL2CmQpxjWl6DTMV4hrV9CpmKsQ1rul1zFSIa2TTK5mpENtczTWy6cXMVKj6yH76Y0bpy4apZa794h96i7cRM1i4m7fobN5id/MW3c1b9DZvsbd5i/3NWxxs3uLFyr4pjxry26khwZ0aMtypIcWdGnLcqSHJnRqy3KkhzZ0a8tytIc/dOtbxGvLcrSHP3fXyvPSdjtXKqsVLHxks6N5gs6A7g82C7gs2C3rKZbOgZ1w2C3rCZbOg51s2C3q6ZbPQlFV8HjXkt6as4vOoIcM1ZRWfRw05rimr+DxqyHJNWcXnUUOea8oqPo861vEa8lxTVvF5rJfnpa/OqlZWLd6txWBB9wabBd0ZbBZ0X7BZ0FMumwU947JZ0BMumwU937JZ0NMtm4XmhkA+D/qOKj4P+mYrPg/6Piw+D/oWLT4P+r5EPg/6lkU+D/puRj4P+kZHPo8a8lxzeySfRw15rrmpks+jhpVcU1bpPErfUFKtrFq8woTBgi6r2CzozmCzoPuCzYIuq9gs6LKKzYIuq9gs6LKKzYKebtksNGUVnwc93fJ50NMtnwddVvF50GUVnwddVvF50GUVnwddVvF50GUVn0cNea4pq/g8ashzTVnF51HDSq4pq3QepRvBVyurFjvFM1jQZRWbBd0ZbBZ0X7BZ0GUVmwVdVrFZ0GUVmwVdVrFZ0NMtm4WmrOLzoKdbPg96uuXzoMsqPg+6rOLzoMsqPg+6rOLzoMsqPg+6rOLzqCHPNWUVn0cNea4pq/g8aljJNWWVzqN0v91qZdViQ14GC7qsYrOgO4PNgu4LNgu6rGKzoMsqNgu6rGKzoMsqNgt6umWz0JRVfB70dMvnQU+3fB50WcXnQZdVfB50WcXnQZdVfB50WcXnQZdVfB415LmmrOLzqCHPNWUVn0cNK7mmrNJ5lG5rWK2sWux7yGBBl1VsFnRnsFnQfcFmQZdVbBZ0WcVmQZdVbBZ0WcVmQU+3bBbazda4PHS7VXF56Day4vLQ7XHF5aHb/orLQ7fnG5eHbjs4Lg/dTnFcHrpN5Lg8ashz7dZzXB415Ll2wzoujxpWck1ZtfL4XmWH1+WOzuJIRPJ+tYNssXFsI70bN4sdYEu3il1tC53K7H08i/y00W03heN0m6KjfnO71babfcgxnna79v2+l8lxnMyPH4J0sa3y0/VX2Hs6FzhPfJlczNQux5VPVBzzlxyfpJfOErnAUBs1L9t9w/t+I4wwwggjjDDCCCOMMMIII4wwwggjjDDCCCOMMMIII4wwwggjjDDCCCOMMMIII4wwwggjjDDCCCOMMMIII4wwwggjjDDCCCP8twrP7fhOJkngy0+eerDWsdt/8XlV9Whs+vLR2EuZBDJdPl5rNVcPEE/DOLPDIJKlj8imrz2nW/5kbWoXr56fxqGXBXGUQ1lpJqetazmKE2lVe/L5oxzLyH95QYvPGr12U3TUk8tt9SCz+mGFcpQpsBLplaw9GMvsNMpU++QWo1k0LEgb2+KPEokVoXw6+6r0WW51BCPRyCZBaqdFr1QzUsezk+y8/U694aTxX2BTtRW+enQ8Z1/qDqZxGijBk/zjKlezOpTMK1RJfG+GtMIKIl+qfGg5TcOzV8fNuieOAhmq8dZYtukiT8ZJPJtKX/z8s/jH8vMHezDx0uXz7yrBtp9H569G8waxvfH4THnYoYzG2US8E674P2Edh6ElDl9+Iw2DoWy0nO2r9vft0nz705XEiWjc5JfS/kXc5DbLobr0VZ/9M59xzDtIHWoYL/Wubr7bP+RcHB0dLRpvPcVCddntN6aXujquE+n9WOfkR8NzTL+v2mt5dUdqWKvBsBwpxUYO9sBL02AcSb+vtohIr4qW/L5eU646ejpLJ411+yLv0sNFf66fSWF4WOUqbfXNdV3SLIl/yGo+i++u6xRPvWGQzatZLb+89lUVFiurdVVWE8nLaWWd9DCefNSxSueXE49oCcdUzSTdqrM+NotVtdL3H8tqCnXs7Igvv38V/zn//UJcnl98/e3zr+Lj+a+/9cWH04vTagJn+awtHzxVooksFmmcZCKa3ebjYCiKLU1S4aXDvHgJonEFxVXbK51nK7PXFNfVJ5dEZrMkElMvSeVZGHtZw1NT/nbelc8+uy4+q9SY5SXaM9vlJZQJP252p5en+rNI9yLZG1u+HHmzMBPTJM7nMLnVFFs/7e/3+6enWxveeAY4wAEOcIADHOAABzjAAQ5w/p44Ip3d5v8EFr5UHwrfmyuiRPqgAQ1oQAMa0IAGNKABDWhAAxo9zX1xa9b/0FyHMwkc4AAHOMABDnCAAxzgAAc4wFkH5+m9gY56b+DljHpvYMcp/sJ2fLy7e3AAUpCCFKQgBSlIQQpSkIIUpCAFKUjfBqlbkHoZRdouSDsd193vgRSkIAUpSEEKUpCCFKQgBSlIQQrSt0HaUaRnSUCQugcFqePs7XU6IAUpSEEKUpCCFKQgBSlIQQpSkIL0bZDuKtKvkxlFul+QHuRH9z1IQQpSkIIUpCAFKUhBClKQghSkIH0bpF1F+m/pU6R7BenJSb+/twdSkIIUpCAFKUhBClKQghSkIAUpSN8Gaa/4n4mZpEh7BWm/3+uBFKQgBSlIQQpSkIIUpCAFKUhBCtK3QrqnSD/F1M6Cbrcg3d933W4XpCAFKUhBClKQghSkIAUpSEEKUpDWRrpC8RPvvlEq9mBnQRbKy4k3lXYmH7LG1od4lqTlGPM/n3kS3MooDeIolGmhUCKxsyOOfV94olAS90E2EWl8K4XfKTkzvRvb3nQqI79hKW9ru+SE1WF7WZY0rAerKXptw5Pm+Ulu9ZPSbB7KBV7Li4aTOMnPt0I5MqBdaoziKGvdy2A8yZTGdRz61TUWfXM5bX2ahdmgH+ZjdOAOvsR+/vPb54EzOPt4MXDE5TxtdcRZmLTy34eT1on48CUc3matKE7yfvn2WXw+7b9XX8vkreiIL5ffxPlwqL67ta3r6Xc76TAJptm/yO+82/GDu9fD5Dm0WK4lAv/IGqo06Oct5wWRTAaOs2uJoj2PLD9Ip6E3PwyiMI+1rsN4+OMXiwbMVRfXILL5ND9fNenOjXfnLT7VnqmOOy9RQ1YcCT+4nYbSjuT95d24Yf30CmRT7LbbxY/SHFS6vpd5ufDVH1boXcvQOrR8OfLyrhbTJB4FobSai8jgwTp07HbTuvPCmVz+PlRTVX5OPvv0+6en1mOzko7LpNNh0tll0uky6fSYdPaYdPaZdA6YdJw2lxDXiHa4hrTDNaYdrkHtcI1qh2tYO1zj2uEa2A7XyHa5RrbLNldzjWyXa2S7RiNbpLPb2xfvrq60oiXSN5Ah28hMhmwhMxmyfcxkyLw3kyGz3kyGzHkzGTLjzWTIfDeToRcyQx2mcUwvY4Y6TCOZXsQMdZjGMr2EGeowjWZ6ATPUYRrP9PJlqMM1LzONZ3rtMtSpPp7vgygzX7au1UfVdcjmMdQhm8dQh2weQx0y3Q11yHQ31CHT3VCHTHdDHTLdDXXo9ctUiGtE0yuYqRDXmKbXMFMhrlFNr2KmQlzjml7HTIW4Rja9kpkKsc3VXCObXsxMhaqP7Kc/ZpS+bJha5tov/qG3eBsxg4W7eYvO5i12N2/R3bxFb/MWe5u32N+8xcHmLV6s7JvyqCG/nRoS3Kkhw50aUtypIcedGpLcqSHLnRrS3Kkhz90a8tytYx2vIc/dGvLcXS/PS9/pWK2sWrz0kcGC7g02C7oz2CzovmCzoKdcNgt6xmWzoCdcNgt6vmWzoKdbNgtNWcXnUUN+a8oqPo8aMlxTVvF51JDjmrKKz6OGLNeUVXweNeS5pqzi86hjHa8hzzVlFZ/Henle+uqsamXV4t1aDBZ0b7BZ0J3BZkH3BZsFPeWyWdAzLpsFPeGyWdDzLZsFPd2yWWhuCOTzoO+o4vOgb7bi86Dvw+LzoG/R4vOg70vk86BvWeTzoO9m5POgb3Tk86ghzzW3R/J51JDnmpsq+TxqWMk1ZZXOo/QNJdXKqsUrTBgs6LKKzYLuDDYLui/YLOiyis2CLqvYLOiyis2CLqvYLOjpls1CU1bxedDTLZ8HPd3yedBlFZ8HXVbxedBlFZ8HXVbxedBlFZ8HXVbxedSQ55qyis+jhjzXlFV8HjWs5JqySudRuhF8tbJqsVM8gwVdVrFZ0J3BZkH3BZsFXVaxWdBlFZsFXVaxWdBlFZsFPd2yWWjKKj4Perrl86CnWz4Puqzi86DLKj4Puqzi86DLKj4Puqzi86DLKj6PGvJcU1bxedSQ55qyis+jhpVcU1bpPEr3261WVi025GWwoMsqNgu6M9gs6L5gs6DLKjYLuqxis6DLKjYLuqxis6CnWzYLTVnF50FPt3we9HTL50GXVXwedFnF50GXVXwedFnF50GXVXwedFnF51FDnmvKKj6PGvJcU1bxedSwkmvKKp1H6baG1cqqxb6HDBZ0WcVmQXcGmwXdF2wWdFnFZkGXVWwWdFnFZkGXVWwW9HTLZqHdbI3LQ7dbFZeHbiMrLg/dHldcHrrtr7g8dHu+cXnotoPj8tDtFMflodtEjsujhjzXbj3H5VFDnms3rOPyqGEl15RVK4/vVXZ4Xe7oLI5EJO9XO8gWG8c20rtxs9gBtnSr2NW20KnM3sezyE8b3XZTOE63KTrqN7dbbbvZhxzjabdr3+97mRzHyfz4IUgX2yo/XX+FvadzgfPEl8nFTO1yXPlExTF/yfFJeukskQsMtVHzst03vO83wggjjDDCCCOMMMIII4wwwggjjDDCCCOMMMIII4wwwggjjDDCCCOMMMIII4wwwggjjDDCCCOMMMIII4wwwggjjDDCCCOMMMJ/q/Dcju9kkgS+/OSpB2sdu/0Xn1dVj8amLx+NvZRJINPl47VWc/UA8TSMMzsMIln6iGz62nO65U/Wpnbx6vlpHHpZEEc5lJVmctq6lqM4kVa1J58/yrGM/JcXtPis0Ws3RUc9udxWDzKrH1YoR5kCK5FeydqDscxOo0y1T24xmkXDgrSxLf4okVgRyqezr0qf5VZHMBKNbBKkdlr0SjUjdTw7yc7b79QbThr/BTZVW+GrR8dz9qXuYBqngRI8yT+ucjWrQ8m8QpXE92ZIK6wg8qXKh5bTNDx7ddyse+IokKEab41lmy7yZJzEs6n0xc8/i38sP3+wBxMvXT7/rhJs+3l0/mo0bxDbG4/PlIcdymicTcQ74Yr/E9ZxGFri8OU30jAYykbL2b5qf98uzbc/XUmciMZNfintX8RNbrMcqktf9dk/8xnHvIPUoYbxUu/q5rv9Q87F0dHRovHWUyxUl91+Y3qpq+M6kd6PdU5+NDzH9PuqvZZXd6SGtRoMy5FSbORgD7w0DcaR9Ptqi4j0qmjJ7+s15aqjp7N00li3L/IuPVz05/qZFIaHVa7SVt9c1yXNkviHrOaz+O66TvHUGwbZvJrV8strX1VhsbJaV2U1kbycVtZJD+PJRx2rdH458YiWcEzVTNKtOutjs1hVK33/saymUMfOjvjy+1fxn/PfL8Tl+cXX3z7/Kj6e//pbX3w4vTitJnCWz9rywVMlmshikcZJJqLZbT4OhqLY0iQVXjrMi5cgGldQXLW90nm2MntNcV19cklkNksiMfWSVJ6FsZc1PDXlb+dd+eyz6+KzSo1ZXqI9s11eQpnw42Z3enmqP4t0L5K9seXLkTcLMzFN4nwOk1tNsfXT/n6/f3q6teGNZ4ADHOAABzjAAQ5wgAMc4ADn74kj0tlt/k9g4Uv1ofC9uSJKpA8a0IAGNKABDWhAAxrQgAY0oNHT3Be3Zv0PzXU4k8ABDnCAAxzgAAc4wAEOcIADnHVwnt4b6Kj3Bl7OqPcGdpziL2zHx7u7BwcgBSlIQQpSkIIUpCAFKUhBClKQgvRtkLoFqZdRpO2CtNNx3f0eSEEKUpCCFKQgBSlIQQpSkIIUpCB9G6QdRXqWBASpe1CQOs7eXqcDUpCCFKQgBSlIQQpSkIIUpCAFKUjfBumuIv06mVGk+wXpQX5034MUpCAFKUhBClKQghSkIAUpSEEK0rdB2lWk/5Y+RbpXkJ6c9Pt7eyAFKUhBClKQghSkIAUpSEEKUpCC9G2Q9or/mZhJirRXkPb7vR5IQQpSkIIUpCAFKUhBClKQghSkIH0rpHuK9FNM7SzodgvS/X3X7XZBClKQghSkIAUpSEEKUpCCFKQgBWltpCsUP/HuG6ViD3YWZKG8nHhTaWfyIWtsfYhnSVqOMf/zmSfBrYzSII5CmRYKJRI7O+LY94UnCiVxH2QTkca3UvidkjPTu7HtTacy8huW8ra2S05YHbaXZUnDerCaotc2PGmen+RWPynN5qFc4LW8aDiJk/x8K5QjA9qlxiiOsta9DMaTTGlcx6FfXWPRN5fT1qdZmA36YT5GB+7gS+wPOoNvnwfO4OzjxcARl/O01RFnYdLKfx9OWifiw5dweJu1ojjJ++XbZ/H5tP9efS2Tt6Ijvlx+E+fDofru1raup9/tpMMkmGb/Ir/zbscP7l4Pk+fQYrmWCPwja6jSoJ+3nBdEMhk4TtcSRXseWX6QTkNvfhhEYR5rXYfx8McvFg2Yqy6uQWTzaX6+atKdG+/OW3yqPVMdd16ihqw4En5wOw2lHcn7y7txw/rpFcim2G23ix+lOah0fS/zcuGrP6zQu5ahdWj5cuTlXS2mSTwKQmk1F5HBg3Xo2O2mdeeFM7n8faimqvycfPbp909PrcdmJR2XSafDpLPLpNNl0ukx6ewx6ewz6Rww6ThtLiGuEe1wDWmHa0w7XIPa4RrVDtewdrjGtcM1sB2uke1yjWyXba7mGtku18h2jUa2SGe3ty/eXV1pRUukbyBDtpGZDNlCZjJk+5jJkHlvJkNmvZkMmfNmMmTGm8mQ+W4mQy9khjpM45hexgx1mEYyvYgZ6jCNZXoJM9RhGs30AmaowzSe6eXLUIdrXmYaz/TaZahTfTzfB1Fmvmxdq4+q65DNY6hDNo+hDtk8hjpkuhvqkOluqEOmu6EOme6GOmS6G+rQ65epENeIplcwUyGuMU2vYaZCXKOaXsVMhbjGNb2OmQpxjWx6JTMVYpuruUY2vZiZClUf2U9/zCh92TC1zLVf/ENv8TZiBgt38xadzVvsbt6iu3mL3uYt9jZvsb95i4PNW7xY2TflUUN+OzUkuFNDhjs1pLhTQ447NSS5U0OWOzWkuVNDnrs15LlbxzpeQ567NeS5u16el77TsVpZtXjpI4MF3RtsFnRnsFnQfcFmQU+5bBb0jMtmQU+4bBb0fMtmQU+3bBaasorPo4b81pRVfB41ZLimrOLzqCHHNWUVn0cNWa4pq/g8ashzTVnF51HHOl5DnmvKKj6P9fK89NVZ1cqqxbu1GCzo3mCzoDuDzYLuCzYLespls6BnXDYLesJls6DnWzYL+t4oNgvNDYF8HvQdVXwe9M1WfB70fVh8HvQtWnwe9H2JfB70LYt8HvTdjHwe9I2OfB415LmmrOLzqGMdr2Eh15RVfB7rLeWlbyipVlYtXmHCYEH3BpsF3RlsFnRfsFnQZRWbBV1WsVnQZRWbBV1WsVnQ0y2bhaas4vOgyyo+D7qs4vOgyyo+D7qs4vOgyyo+D7qs4vOgyyo+D7qs4vOoIc81ZRWfRx3reA0Luaas4vNYbykv3Qi+Wlm12CmewYLuDTYLujPYLOi+YLOgyyo2C7qsYrOgyyo2C7qsYrOgp1s2C01ZxedBl1V8HnRZxedBl1V8HnRZxedBl1V8HnRZxedBl1V8HnRZxedRQ55ryio+jzrW8RoWck1Zxeex3lJeut9utbJqsSEvgwXdG2wWdGewWdB9wWZBl1VsFnRZxWZBl1VsFnRZxWZBT7dsFpqyis+DLqv4POiyis+DLqv4POiyis+DLqv4POiyis+DLqv4POiyis+jhjzXlFV8HnWs4zUs5Jqyis9jvaW8dFvDamXVYt9DBgu6N9gs6M5gs6D7gs2CLqvYLOiyis2CLqvYLOiyis1Ct+8Uk4V2szUuD91uVVweuo2suDx0e1xxeei2v+Ly0O35xuWh2w6Oy0O3UxyXh24TOS6PGvJcU1bxedSxjtewkGvKKj6P8qX8e5UdXpc7OosjEcn71Q6yxcaxjfRu3Cx2gC3dKna1LXQqs/fxLPLTRrfdFI7TbYqO+s3tVttu9iHHeNrt2vf7XibHcTI/fgjSxbbKT9dfYe/pXOA88WVyMVO7HFc+UXHMX3J8kl46S+QCQ23UvGz3De/7jTDCCCOMMMIII4wwwggjjDDCCCOMMMIII4wwwggjjDDCCCOMMMIII4wwwggjjDDCCCOMMMIII4wwwggjjDDCCCOMMMIII4zw3yo8t+M7mSSBLz956sFax27/xedV1aOx6ctHYy9lEsh0+Xit1Vw9QDwN48wOg0iWPiKbvvacbvmTtaldvHp+GodeFsRRDmWlmZy2ruUoTqRV7cnnj3IsI//lBS0+a/TaTdFRTy631YPM6ocVylGmwEqkV7L2YCyz0yhT7ZNbjGbRsCBtbIs/SiRWhPLp7KvSZ7nVEYxEI5sEqZ0WvVLNSB3PTrLz9jv1hpPGf4FN1Vb46tHxnH2pO5jGaaAET/KPq1zN6lAyr1Al8b0Z0goriHyp8qHlNA3PXh036544CmSoxltj2aaLPBkn8WwqffHzz+Ify88f7MHES5fPv6sE234enb8azRvE9sbjM+VhhzIaZxPxTrji/4R1HIaWOHz5jTQMhrLRcrav2t+3S/PtT1cSJ6Jxk19K+xdxk9ssh+rSV332z3zGMe8gdahhvNS7uvlu/5BzcXR0tGi89RQL1WW335he6uq4TqT3Y52THw3PMf2+aq/l1R2pYa0Gw3KkFBs52AMvTYNxJP2+2iIivSpa8vt6Tbnq6OksnTTW7Yu8Sw8X/bl+JoXhYZWrtNU313VJsyT+Iav5LL67rlM89YZBNq9mtfzy2ldVWKys1lVZTSQvp5V10sN48lHHKp1fTjyiJRxTNZN0q8762CxW1UrffyyrKdSxsyO+/P5V/Of89wtxeX7x9bfPv4qP57/+1hcfTi9Oqwmc5bO2fPBUiSayWKRxkolodpuPg6EotjRJhZcO8+IliMYVFFdtr3SercxeU1xXn1wSmc2SSEy9JJVnYexlDU9N+dt5Vz777Lr4rFJjlpdoz2yXl1Am/LjZnV6e6s8i3Ytkb2z5cuTNwkxMkzifw+RWU2z9tL/f75+ebm144xngAAc4wAEOcIADHOAABzjA+XviiHR2m/8TWPhSfSh8b66IEumDBjSgAQ1oQAMa0IAGNKABDWj0NPfFrVn/Q3MdziRwgAMc4AAHOMABDnCAAxzgAGcdnKf3BjrqvYGXM+q9gR2n+Avb8fHu7sEBSEEKUpCCFKQgBSlIQQpSkIIUpCB9G6RuQeplFGm7IO10XHe/B1KQghSkIAUpSEEKUpCCFKQgBSlI3wZpR5GeJQFB6h4UpI6zt9fpgBSkIAUpSEEKUpCCFKQgBSlIQQrSt0G6q0i/TmYU6X5BepAf3fcgBSlIQQpSkIIUpCAFKUhBClKQgvRtkHYV6b+lT5HuFaQnJ/3+3h5IQQpSkIIUpCAFKUhBClKQghSkIH0bpL3ifyZmkiLtFaT9fq8HUpCCFKQgBSlIQQpSkIIUpCAFKUjfCumeIv0UUzsLut2CdH/fdbtdkIIUpCAFKUhBClKQghSkIAUpSEFaG+kKxU+8+0ap2IOdBVkoLyfeVNqZfMgaWx/iWZKWY8z/fOZJcCujNIijUKaFQonEzo449n3hiUJJ3AfZRKTxrRR+p+TM9G5se9OpjPyGpbyt7ZITVoftZVnSsB6spui1DU+a5ye51U9Ks3koF3gtLxpO4iQ/3wrlyIB2qTGKo6x1L4PxJFMa13HoV9dY9M3ltHU+GgVDmQ6+fR44g7OPFwNHXM7TVkechUkr/304aR2LD1/C4W3Wkl6aiW+fxefT/nv1rUzeio74cvlNnA+H6qtb27refbeTDpNgmv2L/M67HT+4ez1MnkOL5Voi8I+soRr6/by1vCCSycBxepYo2vDI8oN0GnrzwyAK81jrOoyHP36xaMBcdXENIptP8/NVM+7ceHfe4lPtmeq48xI1TMWR8IPbaSjtSN5f3o0b1k+vQDbFbrtd/CjNO6Xre5mXC1/9YYXetQytQ8uXI28WZmKaxKMglFZzERk8WIeO3W5ad144k9Zh78A+eHbsHzStoZqscoV8/un3T0+tx2YlVXcjqp2NqO5uRLW7EdXeRlT3NqK6vxHVg42oOu3NyG4mu5zNpJezmfxyNpNgzmYyzNlMijmbyTFnM0nmbCbL3M1kmbuhNWwzWeZuJsvcv5BlIp3d3r54//caFUIifQPRim1rJlqxZc1EK7armWjFuctMtOLMZSZacd4yE604a5mJVpyzzESrFgaGqhvJqaplgaHqRrKqalFgqLqRvKpaEhiqbiSzqhYEhqobya2q5YCh6mbWq43kVtVawFB13dy6D6Lsr5YB1+oL1VUrNquhasVmNVSt2KyGqhWnLEPVilOWoWrFKctQteKUZahaccoyVK1aD5jKbia7qlYEprKbya+qNYGp7GYyrGpVYCq7mRyrWheYym4my6pWBqayG1rDNpNlVYsDU1mjLPte5Q8Oyz8qiiMRyfvVHzSKv2M00rtxs/iDxP+3c4Y/jdtgGP++v8LjwynV2lxTxrGxsYndtXcn3Y2J4zRNCKG0cdtAmlR2slFN/O/zmzpdC2RNYuug2uMPtORNHv/svLYjHJ6tOxfFzqTk6S9JFgfSOei2mecdtNk+fesdVNv9uFUYqw3XIHjtp3ySiMXJbSiXO3urrqiw/akETkXAxVlGG22VLySOxSbHR+7LTPAlBu0V6ltguqGbbyRtVvWJi5BLjatq0jdkHiWpS7tbW6uUj7V7O6l087ybJ5GfhkmsoPZkyuedIR8ngu9Vy6QPfMLjYLNBy2POK5UF+5QJtBnm0Q+9X7p1K7mQda8mPO3HKfWPqmKcxaOc1GmxvytsmBIhX119sXVsUAnHzEmnoVR5TddVq4jK2kWu6r++P5o6/wLXVSvw9d6g1r2aJzIkwTfqcJXWFIVkHqESyV/1kAqsMA44DdyO1655dVGum144DnlE+eboPl2Ok4lIsjkP2IsX7Gt9/Na9mvpSzyc0wFrr0cWjUdUhrj+ZDKgON+LxJJ2yH1mP/cz2TqJojx1tniGjcMSdjte66F62to63By1JBHOuVVO6P7BrVY1OVV0vHfvmmHn1bxAVSmOtd3F96d5wNb0dHy87r5lirqpv+3XdphZlKLh/0+Tiu5rX1D2f+ku37pjSmpJBZ0q+MLpXy5eBeJC/DiQv8p68bNaVxY2eZ3LqNL0X6pYeLe9n85EURUdVWunSmU1rkalIbni1epbnNq0pmfujMF1Uq0qf3LhVeRVFVU1Violkc1ppMjxqTz5UiuG8OfGwDvPqqtUZbtVZ79r5qlrp/LttzxRUXr5kv30+Z3+cfj5jn07Pzt//+pZ9OH37/jV71z/rVxMYqFmb3/r0iMbShMlEPUjH2UzlwYjlj4iS+XKkHl7CeFJBseh70llbmf02G1afXARPMxGzuS8kH0SJnzo+TfktdSvXjg3zY5U6c/sj2lq1ugnbhO+e4KXNexuw+s1M2lB9kndIgQMc4AAHOMABDnCAAxzgAGfncR6+4EJEggegAQ1oQAMa0IAGNKABDWhAA5r/pnnwSiDR0Ct+wAEOcIADHOAABzjAAQ5wgAOcJ7RKPOezORd+mgnOnEELZonPyizxd58y7h3PP05mw5DHKaNbRs6HPMhU/3fYYXewIyaIh7tggnj4xUwQ8389bWrCZEln35LOt5Z0DizpvLKkc2hJ5ztLOt9b0tlwFzASspXRnq2U9mzltGcrqT1bWe3ZSmvPVl57thLbs5XZPVuZ3bM2V9vK7J6tzO7Vyuzqpn0bUs1t+gxkSnuouRWfgUzpuG9ut2cgUzrmm1vqGciUjncD2zwTHUt5XL6MGZjhmehYSuXyNczA4s5Ex1I2ly9gBsZ1JvOgpXwuX70M7OhMdCzlc/nS1dxkbkPGwFbORKe0ewys40x0Soe7gT2ciU7pcDewgDPRKR3uJjZvRkK2Mrp8BTMxbzMSspXU5YuYiSWbkZCtvC5fx0yM1oxmRluZXb6UmdinGQnZyuzy1QymaDthioYwwggjjDDCCCOMMMIII4wwwggjjPBzCi/c5E8uRBjwjz79ocpzuzDFX2sJTPFXBab4tQpM8WGKX6PAFP9+gSn+/QJT/JoFpvgwxX+0wBQfOMABDnCAAxzgAAc4wAEOcICzC5aSoAENaEADGtCABjSgAQ1oQLM7NP8bK0vgAAc4wAEOcIADHOAABzjAaV7fE5jivwlnPJZhEkdcSljiPy9L/ETcsP54HI5CHo8WKyP8L2uBr8++F1n/vfi+/Fyp6y+rj2ESLOhzms6in776B9a/OWI="
               },
               {
                  "name" : "annual_peak_electric_demand",
                  "units" : "kW",
                  "value" : 888.5060400000001
               },
               {
                  "name" : "first_year_capital_cost",
                  "units" : "$",
                  "value" : 0
               },
               {
                  "name" : "annual_utility_cost",
                  "units" : "$",
                  "value" : 0
               },
               {
                  "name" : "total_lifecycle_cost",
                  "units" : "$",
                  "value" : 0
               }
            ],
            "step_warnings" : [ "A table in Annual Overview section returned false and was skipped." ]
         }
      }
   ],
   "updated_at" : "20170710T193847Z",
   "weather_file" : "USA_CO_Denver.Intl.AP.725650_TMY3.epw"
}
