{
   "completed_at" : "20170710T183336Z",
   "completed_status" : "Success",
   "created_at" : "2017-07-10 18:31:31 +0000",
   "current_step" : 5,
   "description" : "",
   "eplusout_err" : "Program Version,EnergyPlus, Version 8.7.0-78a111df4a, YMD=2017.07.10 18:32,IDD_Version 8.7.0\n   ************* IDF Context for following error/warning message:\n   ************* Note -- lines truncated at 300 characters, if necessary...\n   *************      5 Building,\n   ************* indicated Name=NECB 2011-SmallOffice-NECB HDD Method-CAN_ON_North.Bay.717310_CWEC.epw created: 2017-07-10 18:31:37 +0000\n   ************* Only last 1 lines before error line shown.....\n   *************      6   NECB 2011-SmallOffice-NECB HDD Method-CAN_ON_North.Bay.717310_CWEC.epw created: 2017-07-10 18:31:37 +0000, !- Name\n   ** Warning ** IP: IDF line~6 Alpha Argument length exceeds maximum, will be truncated=  NECB 2011-SmallOffice-NECB HDD Method-CAN_ON_North.Bay.717310_CWEC.epw created: 2017-07-10 18:31:37 +000\n   **   ~~~   ** Will be processed as Alpha=NECB 2011-SMALLOFFICE-NECB HDD METHOD-CAN_ON_NORTH.BAY.717310_CWEC.EPW CREATED: 2017-07-10 18:31:37 +0000\n   ************* Beginning Zone Sizing Calculations\n   ** Warning ** ProcessScheduleInput: Schedule:Day:Interval=\"ECONOMIZER MAX OA FRACTION 100 PCT DEFAULT\", Blank Schedule Type Limits Name input -- will not be validated.\n   ** Warning ** ProcessScheduleInput: Schedule:Day:Interval=\"SCHEDULE DAY 1\", Blank Schedule Type Limits Name input -- will not be validated.\n   ** Warning ** ProcessScheduleInput: Schedule:Day:Interval=\"SCHEDULE DAY 10\", Blank Schedule Type Limits Name input -- will not be validated.\n   ** Warning ** ProcessScheduleInput: Schedule:Day:Interval=\"SCHEDULE DAY 11\", Blank Schedule Type Limits Name input -- will not be validated.\n   ** Warning ** ProcessScheduleInput: Schedule:Day:Interval=\"SCHEDULE DAY 12\", Blank Schedule Type Limits Name input -- will not be validated.\n   ** Warning ** ProcessScheduleInput: Schedule:Day:Interval=\"SCHEDULE DAY 13\", Blank Schedule Type Limits Name input -- will not be validated.\n   ** Warning ** ProcessScheduleInput: Schedule:Day:Interval=\"SCHEDULE DAY 14\", Blank Schedule Type Limits Name input -- will not be validated.\n   ** Warning ** ProcessScheduleInput: Schedule:Day:Interval=\"SCHEDULE DAY 15\", Blank Schedule Type Limits Name input -- will not be validated.\n   ** Warning ** ProcessScheduleInput: Schedule:Day:Interval=\"SCHEDULE DAY 16\", Blank Schedule Type Limits Name input -- will not be validated.\n   ** Warning ** ProcessScheduleInput: Schedule:Day:Interval=\"SCHEDULE DAY 17\", Blank Schedule Type Limits Name input -- will not be validated.\n   ** Warning ** ProcessScheduleInput: Schedule:Day:Interval=\"SCHEDULE DAY 18\", Blank Schedule Type Limits Name input -- will not be validated.\n   ** Warning ** ProcessScheduleInput: Schedule:Day:Interval=\"SCHEDULE DAY 19\", Blank Schedule Type Limits Name input -- will not be validated.\n   ** Warning ** ProcessScheduleInput: Schedule:Day:Interval=\"SCHEDULE DAY 2\", Blank Schedule Type Limits Name input -- will not be validated.\n   ** Warning ** ProcessScheduleInput: Schedule:Day:Interval=\"SCHEDULE DAY 5\", Blank Schedule Type Limits Name input -- will not be validated.\n   ** Warning ** ProcessScheduleInput: Schedule:Day:Interval=\"SCHEDULE DAY 6\", Blank Schedule Type Limits Name input -- will not be validated.\n   ** Warning ** ProcessScheduleInput: Schedule:Day:Interval=\"SCHEDULE DAY 7\", Blank Schedule Type Limits Name input -- will not be validated.\n   ** Warning ** ProcessScheduleInput: Schedule:Day:Interval=\"SCHEDULE DAY 8\", Blank Schedule Type Limits Name input -- will not be validated.\n   ** Warning ** ProcessScheduleInput: Schedule:Day:Interval=\"SCHEDULE DAY 9\", Blank Schedule Type Limits Name input -- will not be validated.\n   ** Warning ** ProcessScheduleInput: Schedule:Year=\"ECONOMIZER MAX OA FRACTION 100 PCT\", Blank Schedule Type Limits Name input -- will not be validated.\n   ** Warning ** ProcessScheduleInput: Schedule:Year=\"SCHEDULE RULESET 10\", Blank Schedule Type Limits Name input -- will not be validated.\n   ** Warning ** ProcessScheduleInput: Schedule:Year=\"SCHEDULE RULESET 11\", Blank Schedule Type Limits Name input -- will not be validated.\n   ** Warning ** ProcessScheduleInput: Schedule:Year=\"SCHEDULE RULESET 12\", Blank Schedule Type Limits Name input -- will not be validated.\n   ** Warning ** ProcessScheduleInput: Schedule:Year=\"SCHEDULE RULESET 13\", Blank Schedule Type Limits Name input -- will not be validated.\n   ** Warning ** ProcessScheduleInput: Schedule:Year=\"SCHEDULE RULESET 14\", Blank Schedule Type Limits Name input -- will not be validated.\n   ** Warning ** ProcessScheduleInput: Schedule:Year=\"SCHEDULE RULESET 15\", Blank Schedule Type Limits Name input -- will not be validated.\n   ** Warning ** ProcessScheduleInput: Schedule:Year=\"SCHEDULE RULESET 16\", Blank Schedule Type Limits Name input -- will not be validated.\n   ** Warning ** ProcessScheduleInput: Schedule:Year=\"SCHEDULE RULESET 17\", Blank Schedule Type Limits Name input -- will not be validated.\n   ** Warning ** ProcessScheduleInput: Schedule:Year=\"SCHEDULE RULESET 3\", Blank Schedule Type Limits Name input -- will not be validated.\n   ** Warning ** ProcessScheduleInput: Schedule:Year=\"SCHEDULE RULESET 4\", Blank Schedule Type Limits Name input -- will not be validated.\n   ** Warning ** ProcessScheduleInput: Schedule:Year=\"SCHEDULE RULESET 5\", Blank Schedule Type Limits Name input -- will not be validated.\n   ** Warning ** ProcessScheduleInput: Schedule:Year=\"SCHEDULE RULESET 6\", Blank Schedule Type Limits Name input -- will not be validated.\n   ** Warning ** ProcessScheduleInput: Schedule:Year=\"SCHEDULE RULESET 7\", Blank Schedule Type Limits Name input -- will not be validated.\n   ** Warning ** ProcessScheduleInput: Schedule:Year=\"SCHEDULE RULESET 8\", Blank Schedule Type Limits Name input -- will not be validated.\n   ** Warning ** ProcessScheduleInput: Schedule:Year=\"SCHEDULE RULESET 9\", Blank Schedule Type Limits Name input -- will not be validated.\n   ** Warning ** ProcessScheduleInput: Schedule:Constant=\"ALWAYS OFF DISCRETE\", Blank Schedule Type Limits Name input -- will not be validated.\n   ** Warning ** ProcessScheduleInput: Schedule:Constant=\"ALWAYS ON CONTINUOUS\", Blank Schedule Type Limits Name input -- will not be validated.\n   ** Warning ** CheckUsedConstructions: There are 22 nominally unused constructions in input.\n   **   ~~~   ** For explicit details on each unused construction, use Output:Diagnostics,DisplayExtraWarnings;\n   ************* Beginning System Sizing Calculations\n   ************* Beginning Plant Sizing Calculations\n   ** Warning ** GetDXCoils: Coil:Cooling:DX:SingleSpeed=\"COIL COOLING DX SINGLE SPEED 5 16KBTU/HR 14.0SEER\", invalid\n   **   ~~~   ** ...Part Load Fraction Correlation Curve Name = DXCOOL-NECB2011-REF-COOLPLFFPLR 4 has out of range value.\n   **   ~~~   ** ...Curve maximum must be <= 1.0, curve max at PLR = 0.99 is 1.015\n   **   ~~~   ** ...Setting curve maximum to 1.0 and simulation continues.\n   ** Warning ** GetDXCoils: Coil:Cooling:DX:SingleSpeed=\"COIL COOLING DX SINGLE SPEED 4 16KBTU/HR 14.0SEER\", invalid\n   **   ~~~   ** ...Part Load Fraction Correlation Curve Name = DXCOOL-NECB2011-REF-COOLPLFFPLR 3 has out of range value.\n   **   ~~~   ** ...Curve maximum must be <= 1.0, curve max at PLR = 0.99 is 1.015\n   **   ~~~   ** ...Setting curve maximum to 1.0 and simulation continues.\n   ** Warning ** GetDXCoils: Coil:Cooling:DX:SingleSpeed=\"COIL COOLING DX SINGLE SPEED 2 17KBTU/HR 14.0SEER\", invalid\n   **   ~~~   ** ...Part Load Fraction Correlation Curve Name = DXCOOL-NECB2011-REF-COOLPLFFPLR 1 has out of range value.\n   **   ~~~   ** ...Curve maximum must be <= 1.0, curve max at PLR = 0.99 is 1.015\n   **   ~~~   ** ...Setting curve maximum to 1.0 and simulation continues.\n   ** Warning ** GetDXCoils: Coil:Cooling:DX:SingleSpeed=\"COIL COOLING DX SINGLE SPEED 1 14KBTU/HR 14.0SEER\", invalid\n   **   ~~~   ** ...Part Load Fraction Correlation Curve Name = DXCOOL-NECB2011-REF-COOLPLFFPLR has out of range value.\n   **   ~~~   ** ...Curve maximum must be <= 1.0, curve max at PLR = 0.99 is 1.015\n   **   ~~~   ** ...Setting curve maximum to 1.0 and simulation continues.\n   ** Warning ** GetDXCoils: Coil:Cooling:DX:SingleSpeed=\"COIL COOLING DX SINGLE SPEED 3 18KBTU/HR 14.0SEER\", invalid\n   **   ~~~   ** ...Part Load Fraction Correlation Curve Name = DXCOOL-NECB2011-REF-COOLPLFFPLR 2 has out of range value.\n   **   ~~~   ** ...Curve maximum must be <= 1.0, curve max at PLR = 0.99 is 1.015\n   **   ~~~   ** ...Setting curve maximum to 1.0 and simulation continues.\n   ** Warning ** The Standard Ratings is calculated for Coil:Cooling:DX:SingleSpeed = COIL COOLING DX SINGLE SPEED 5 16KBTU/HR 14.0SEER but not at the AHRI test condition due to curve out of bound.\n   **   ~~~   **  Review the Standard Ratings calculations in the Engineering Reference for this coil type. Also, use Output:Diagnostics, DisplayExtraWarnings for further guidance.\n   ** Warning ** The Standard Ratings is calculated for Coil:Cooling:DX:SingleSpeed = COIL COOLING DX SINGLE SPEED 4 16KBTU/HR 14.0SEER but not at the AHRI test condition due to curve out of bound.\n   **   ~~~   **  Review the Standard Ratings calculations in the Engineering Reference for this coil type. Also, use Output:Diagnostics, DisplayExtraWarnings for further guidance.\n   ** Warning ** The Standard Ratings is calculated for Coil:Cooling:DX:SingleSpeed = COIL COOLING DX SINGLE SPEED 2 17KBTU/HR 14.0SEER but not at the AHRI test condition due to curve out of bound.\n   **   ~~~   **  Review the Standard Ratings calculations in the Engineering Reference for this coil type. Also, use Output:Diagnostics, DisplayExtraWarnings for further guidance.\n   ** Warning ** The Standard Ratings is calculated for Coil:Cooling:DX:SingleSpeed = COIL COOLING DX SINGLE SPEED 1 14KBTU/HR 14.0SEER but not at the AHRI test condition due to curve out of bound.\n   **   ~~~   **  Review the Standard Ratings calculations in the Engineering Reference for this coil type. Also, use Output:Diagnostics, DisplayExtraWarnings for further guidance.\n   ** Warning ** The Standard Ratings is calculated for Coil:Cooling:DX:SingleSpeed = COIL COOLING DX SINGLE SPEED 3 18KBTU/HR 14.0SEER but not at the AHRI test condition due to curve out of bound.\n   **   ~~~   **  Review the Standard Ratings calculations in the Engineering Reference for this coil type. Also, use Output:Diagnostics, DisplayExtraWarnings for further guidance.\n   ** Warning ** Check input. Pump nominal power or motor efficiency is set to 0, for pump=SERVICE WATER LOOP PUMP\n   ** Warning ** Output:Meter: invalid Name=\"DISTRICTCOOLING:FACILITY\" - not found.\n   ** Warning ** Output:Meter: invalid Name=\"DISTRICTHEATING:FACILITY\" - not found.\n   ** Warning ** Output:Meter:MeterFileOnly requested for \"Electricity:Facility\" (TimeStep), already on \"Output:Meter\". Will report to both eplusout.eso and eplusout.mtr\n   ************* Testing Individual Branch Integrity\n   ************* All Branches passed integrity testing\n   ************* Testing Individual Supply Air Path Integrity\n   ************* All Supply Air Paths passed integrity testing\n   ************* Testing Individual Return Air Path Integrity\n   ************* All Return Air Paths passed integrity testing\n   ************* No node connection errors were found.\n   ************* Beginning Simulation\n   ** Warning ** CalcDoe2DXCoil: Coil:Cooling:DX:SingleSpeed \"COIL COOLING DX SINGLE SPEED 4 16KBTU/HR 14.0SEER\" - Air-cooled condenser inlet dry-bulb temperature below 0 C. Outdoor dry-bulb temperature = -12.35\n   **   ~~~   **  ... Occurrence info = RUN PERIOD 1, 01/01 12:30 - 12:45\n   **   ~~~   ** ... Operation at low ambient temperatures may require special performance curves.\n   ** Warning ** CalcDoe2DXCoil: Coil:Cooling:DX:SingleSpeed \"COIL COOLING DX SINGLE SPEED 4 16KBTU/HR 14.0SEER\" - Full load outlet air dry-bulb temperature < 2C. This indicates the possibility of coil frost/freeze. Outlet temperature = -0.80 C.\n   **   ~~~   **  ...Occurrence info = RUN PERIOD 1, 01/01 12:30 - 12:45\n   **   ~~~   ** ... Possible reasons for low outlet air dry-bulb temperatures are: This DX coil\n   **   ~~~   **    1) may have a low inlet air dry-bulb temperature. Inlet air temperature = 13.081 C.\n   **   ~~~   **    2) may have a low air flow rate per watt of cooling capacity. Check inputs.\n   **   ~~~   **    3) is used as part of a HX assisted cooling coil which uses a high sensible effectiveness. Check inputs.\n   ** Warning ** CalcDoe2DXCoil: Coil:Cooling:DX:SingleSpeed \"COIL COOLING DX SINGLE SPEED 2 17KBTU/HR 14.0SEER\" - Air-cooled condenser inlet dry-bulb temperature below 0 C. Outdoor dry-bulb temperature = -11.55\n   **   ~~~   **  ... Occurrence info = RUN PERIOD 1, 01/02 06:03 - 06:05\n   **   ~~~   ** ... Operation at low ambient temperatures may require special performance curves.\n   ** Warning ** CalcDoe2DXCoil: Coil:Cooling:DX:SingleSpeed \"COIL COOLING DX SINGLE SPEED 1 14KBTU/HR 14.0SEER\" - Air-cooled condenser inlet dry-bulb temperature below 0 C. Outdoor dry-bulb temperature = -11.55\n   **   ~~~   **  ... Occurrence info = RUN PERIOD 1, 01/02 06:03 - 06:05\n   **   ~~~   ** ... Operation at low ambient temperatures may require special performance curves.\n   ** Warning ** CalcDoe2DXCoil: Coil:Cooling:DX:SingleSpeed \"COIL COOLING DX SINGLE SPEED 1 14KBTU/HR 14.0SEER\" - Full load outlet air dry-bulb temperature < 2C. This indicates the possibility of coil frost/freeze. Outlet temperature = -0.41 C.\n   **   ~~~   **  ...Occurrence info = RUN PERIOD 1, 01/02 06:03 - 06:05\n   **   ~~~   ** ... Possible reasons for low outlet air dry-bulb temperatures are: This DX coil\n   **   ~~~   **    1) may have a low inlet air dry-bulb temperature. Inlet air temperature = 13.758 C.\n   **   ~~~   **    2) may have a low air flow rate per watt of cooling capacity. Check inputs.\n   **   ~~~   **    3) is used as part of a HX assisted cooling coil which uses a high sensible effectiveness. Check inputs.\n   ** Warning ** CalcDoe2DXCoil: Coil:Cooling:DX:SingleSpeed \"COIL COOLING DX SINGLE SPEED 3 18KBTU/HR 14.0SEER\" - Air-cooled condenser inlet dry-bulb temperature below 0 C. Outdoor dry-bulb temperature = -11.55\n   **   ~~~   **  ... Occurrence info = RUN PERIOD 1, 01/02 06:03 - 06:05\n   **   ~~~   ** ... Operation at low ambient temperatures may require special performance curves.\n   ** Warning ** CalcDoe2DXCoil: Coil:Cooling:DX:SingleSpeed \"COIL COOLING DX SINGLE SPEED 5 16KBTU/HR 14.0SEER\" - Air-cooled condenser inlet dry-bulb temperature below 0 C. Outdoor dry-bulb temperature = -12.50\n   **   ~~~   **  ... Occurrence info = RUN PERIOD 1, 01/02 21:15 - 21:17\n   **   ~~~   ** ... Operation at low ambient temperatures may require special performance curves.\n   ** Warning ** CalcDoe2DXCoil: Coil:Cooling:DX:SingleSpeed \"COIL COOLING DX SINGLE SPEED 5 16KBTU/HR 14.0SEER\" - Full load outlet air dry-bulb temperature < 2C. This indicates the possibility of coil frost/freeze. Outlet temperature = -2.19 C.\n   **   ~~~   **  ...Occurrence info = RUN PERIOD 1, 01/02 21:15 - 21:17\n   **   ~~~   ** ... Possible reasons for low outlet air dry-bulb temperatures are: This DX coil\n   **   ~~~   **    1) may have a low inlet air dry-bulb temperature. Inlet air temperature = 12.316 C.\n   **   ~~~   **    2) may have a low air flow rate per watt of cooling capacity. Check inputs.\n   **   ~~~   **    3) is used as part of a HX assisted cooling coil which uses a high sensible effectiveness. Check inputs.\n   ** Warning ** CalcDoe2DXCoil: Coil:Cooling:DX:SingleSpeed \"COIL COOLING DX SINGLE SPEED 2 17KBTU/HR 14.0SEER\" - Full load outlet air dry-bulb temperature < 2C. This indicates the possibility of coil frost/freeze. Outlet temperature = 1.61 C.\n   **   ~~~   **  ...Occurrence info = RUN PERIOD 1, 01/13 21:30 - 21:35\n   **   ~~~   ** ... Possible reasons for low outlet air dry-bulb temperatures are: This DX coil\n   **   ~~~   **    1) may have a low inlet air dry-bulb temperature. Inlet air temperature = 14.770 C.\n   **   ~~~   **    2) may have a low air flow rate per watt of cooling capacity. Check inputs.\n   **   ~~~   **    3) is used as part of a HX assisted cooling coil which uses a high sensible effectiveness. Check inputs.\n   ** Warning ** CalcDoe2DXCoil: Coil:Cooling:DX:SingleSpeed \"COIL COOLING DX SINGLE SPEED 3 18KBTU/HR 14.0SEER\" - Full load outlet air dry-bulb temperature < 2C. This indicates the possibility of coil frost/freeze. Outlet temperature = 1.95 C.\n   **   ~~~   **  ...Occurrence info = RUN PERIOD 1, 01/18 21:30 - 21:35\n   **   ~~~   ** ... Possible reasons for low outlet air dry-bulb temperatures are: This DX coil\n   **   ~~~   **    1) may have a low inlet air dry-bulb temperature. Inlet air temperature = 15.117 C.\n   **   ~~~   **    2) may have a low air flow rate per watt of cooling capacity. Check inputs.\n   **   ~~~   **    3) is used as part of a HX assisted cooling coil which uses a high sensible effectiveness. Check inputs.\n   ************* Simulation Error Summary *************\n   ************* There are 9 unused schedules in input.\n   ************* There are 9 unused week schedules in input.\n   ************* There are 12 unused day schedules in input.\n   ************* Use Output:Diagnostics,DisplayUnusedSchedules; to see them.\n   *************\n   ************* ===== Recurring Error Summary =====\n   ************* The following recurring error messages occurred.\n   *************\n   *************  ** Warning ** CalcDoe2DXCoil: Coil:Cooling:DX:SingleSpeed=\"COIL COOLING DX SINGLE SPEED 4 16KBTU/HR 14.0SEER\" - Low condenser dry-bulb temperature error continues...\n   *************  **   ~~~   **   This error occurred 1238 total times;\n   *************  **   ~~~   **   during Warmup 0 times;\n   *************  **   ~~~   **   during Sizing 0 times.\n   *************  **   ~~~   **   Max=-2.775558E-017 [C]  Min=-27.65 [C]\n   *************\n   *************  ** Warning ** CalcDoe2DXCoil: Coil:Cooling:DX:SingleSpeed=\"COIL COOLING DX SINGLE SPEED 4 16KBTU/HR 14.0SEER\" - Full load outlet temperature indicates a possibility of frost/freeze error continues. Outlet air temperature statistics follow:\n   *************  **   ~~~   **   This error occurred 425 total times;\n   *************  **   ~~~   **   during Warmup 0 times;\n   *************  **   ~~~   **   during Sizing 0 times.\n   *************  **   ~~~   **   Max=1.997004  Min=-2.122857\n   *************\n   *************  ** Warning ** CalcDoe2DXCoil: Coil:Cooling:DX:SingleSpeed=\"COIL COOLING DX SINGLE SPEED 2 17KBTU/HR 14.0SEER\" - Low condenser dry-bulb temperature error continues...\n   *************  **   ~~~   **   This error occurred 751 total times;\n   *************  **   ~~~   **   during Warmup 0 times;\n   *************  **   ~~~   **   during Sizing 0 times.\n   *************  **   ~~~   **   Max=-2.500000E-002 [C]  Min=-27.2 [C]\n   *************\n   *************  ** Warning ** CalcDoe2DXCoil: Coil:Cooling:DX:SingleSpeed=\"COIL COOLING DX SINGLE SPEED 1 14KBTU/HR 14.0SEER\" - Low condenser dry-bulb temperature error continues...\n   *************  **   ~~~   **   This error occurred 457 total times;\n   *************  **   ~~~   **   during Warmup 0 times;\n   *************  **   ~~~   **   during Sizing 0 times.\n   *************  **   ~~~   **   Max=-2.500000E-002 [C]  Min=-21.975 [C]\n   *************\n   *************  ** Warning ** CalcDoe2DXCoil: Coil:Cooling:DX:SingleSpeed=\"COIL COOLING DX SINGLE SPEED 1 14KBTU/HR 14.0SEER\" - Full load outlet temperature indicates a possibility of frost/freeze error continues. Outlet air temperature statistics follow:\n   *************  **   ~~~   **   This error occurred 373 total times;\n   *************  **   ~~~   **   during Warmup 0 times;\n   *************  **   ~~~   **   during Sizing 0 times.\n   *************  **   ~~~   **   Max=1.994544  Min=-2.457649\n   *************\n   *************  ** Warning ** CalcDoe2DXCoil: Coil:Cooling:DX:SingleSpeed=\"COIL COOLING DX SINGLE SPEED 3 18KBTU/HR 14.0SEER\" - Low condenser dry-bulb temperature error continues...\n   *************  **   ~~~   **   This error occurred 829 total times;\n   *************  **   ~~~   **   during Warmup 0 times;\n   *************  **   ~~~   **   during Sizing 0 times.\n   *************  **   ~~~   **   Max=-2.775558E-017 [C]  Min=-27.2 [C]\n   *************\n   *************  ** Warning ** CalcDoe2DXCoil: Coil:Cooling:DX:SingleSpeed=\"COIL COOLING DX SINGLE SPEED 5 16KBTU/HR 14.0SEER\" - Low condenser dry-bulb temperature error continues...\n   *************  **   ~~~   **   This error occurred 401 total times;\n   *************  **   ~~~   **   during Warmup 0 times;\n   *************  **   ~~~   **   during Sizing 0 times.\n   *************  **   ~~~   **   Max=-2.500000E-002 [C]  Min=-15.375 [C]\n   *************\n   *************  ** Warning ** CalcDoe2DXCoil: Coil:Cooling:DX:SingleSpeed=\"COIL COOLING DX SINGLE SPEED 5 16KBTU/HR 14.0SEER\" - Full load outlet temperature indicates a possibility of frost/freeze error continues. Outlet air temperature statistics follow:\n   *************  **   ~~~   **   This error occurred 413 total times;\n   *************  **   ~~~   **   during Warmup 0 times;\n   *************  **   ~~~   **   during Sizing 0 times.\n   *************  **   ~~~   **   Max=1.977685  Min=-2.822927\n   *************\n   *************  ** Warning ** CalcDoe2DXCoil: Coil:Cooling:DX:SingleSpeed=\"COIL COOLING DX SINGLE SPEED 2 17KBTU/HR 14.0SEER\" - Full load outlet temperature indicates a possibility of frost/freeze error continues. Outlet air temperature statistics follow:\n   *************  **   ~~~   **   This error occurred 23 total times;\n   *************  **   ~~~   **   during Warmup 0 times;\n   *************  **   ~~~   **   during Sizing 0 times.\n   *************  **   ~~~   **   Max=1.995684  Min=1.208077\n   *************\n   *************  ** Warning ** CalcDoe2DXCoil: Coil:Cooling:DX:SingleSpeed=\"COIL COOLING DX SINGLE SPEED 3 18KBTU/HR 14.0SEER\" - Full load outlet temperature indicates a possibility of frost/freeze error continues. Outlet air temperature statistics follow:\n   *************  **   ~~~   **   This error occurred 3 total times;\n   *************  **   ~~~   **   during Warmup 0 times;\n   *************  **   ~~~   **   during Sizing 0 times.\n   *************  **   ~~~   **   Max=1.951269  Min=1.874998\n   *************\n   *************\n   ************* ===== Final Error Summary =====\n   ************* The following error categories occurred.  Consider correcting or noting.\n   ************* Nominally Unused Constructions\n   ************* ..The nominally unused constructions warning is provided to alert you to potential conditions that can cause\n   ************* ..extra time during simulation. Each construction is calculated by the algorithm indicated in the HeatBalanceAlgorithm\n   ************* ..object. You may remove the constructions indicated (when you use the DisplayExtraWarnings option).\n   *************\n   ************* EnergyPlus Warmup Error Summary. During Warmup: 0 Warning; 0 Severe Errors.\n   ************* EnergyPlus Sizing Error Summary. During Sizing: 37 Warning; 0 Severe Errors.\n   ************* EnergyPlus Completed Successfully-- 4965 Warning; 0 Severe Errors; Elapsed Time=00hr 00min 40.11sec\n",
   "file_format_version" : "0.0.1",
   "file_paths" : [ "../weather", "../seeds", "../seed" ],
   "hash" : "C86F2E90",
   "measure_paths" : [ "../measures" ],
   "name" : "LHS Autogenerated 240",
   "osa_id" : "4fef0e0f-5396-4c55-a6e1-2cd6803db3ab",
   "osd_id" : "5f022e2c-493b-4e89-8daf-a3b98acf9d2c",
   "run_directory" : "./run",
   "seed_file" : "seed.osm",
   "started_at" : "20170710T183134Z",
   "steps" : [
      {
         "arguments" : {
            "__SKIP__" : false,
            "building_type" : "SmallOffice",
            "climate_zone" : "NECB HDD Method",
            "epw_file" : "CAN_ON_North.Bay.717310_CWEC.epw",
            "template" : "NECB 2011"
         },
         "measure_dir_name" : "create_prototype_building",
         "name" : "create_prototype_building",
         "result" : {
            "completed_at" : "20170710T183224Z",
            "measure_class_name" : "CreatePrototypeBuilding",
            "measure_display_name" : "Create Prototype Building",
            "measure_name" : "create_prototype_building",
            "measure_taxonomy" : "Whole Building.Space Types",
            "measure_type" : "ModelMeasure",
            "measure_uid" : "ae90fsd7-a651-467a-bc8d-29d310b0f937",
            "measure_version_id" : "c6ec5c18-5595-459f-a082-09a19c8c869c",
            "measure_version_modified" : "20170519T182315Z",
            "measure_xml_checksum" : "057E8D9D",
            "started_at" : "20170710T183136Z",
            "stderr" : "",
            "stdout" : "[OpenStudio.Measure] <0> OSArgumentVector is deprecated, use OpenStudio::Measure::OSArgumentVector instead.\n[openstudio.EpwFile] <0> Successive data points (1965-Jan-31 to 1982-Feb-01, ending on line 753) are greater than 1 day apart in EPW file '/usr/local/bundle/bundler/gems/openstudio-standards-f448df66933d/openstudio-standards/data/weather/CAN_ON_North.Bay.717310_CWEC.epw'. Data will be treated as typical (TMY)\n[openstudio.setFileExtension] <0> Path p, '/usr/local/bundle/bundler/gems/openstudio-standards-f448df66933d/openstudio-standards/data/weather/CAN_ON_North.Bay.717310_CWEC.ddy', has an unexpected file extension. Was expecting 'idf'.\n[openstudio.model.YearDescription] <1> 'UseWeatherFile' is not yet a supported option for YearDescription\n[openstudio.model.YearDescription] <1> 'UseWeatherFile' is not yet a supported option for YearDescription\n[openstudio.setFileExtension] <0> Path p, '/usr/local/bundle/bundler/gems/openstudio-standards-f448df66933d/openstudio-standards/data/weather/CAN_ON_North.Bay.717310_CWEC.ddy', has an unexpected file extension. Was expecting 'idf'.\n[openstudio.model.YearDescription] <1> 'UseWeatherFile' is not yet a supported option for YearDescription\n[openstudio.model.YearDescription] <1> 'UseWeatherFile' is not yet a supported option for YearDescription\n[openstudio.EpwFile] <0> Successive data points (1965-Jan-31 to 1982-Feb-01, ending on line 753) are greater than 1 day apart in EPW file '/usr/local/bundle/bundler/gems/openstudio-standards-f448df66933d/openstudio-standards/data/weather/CAN_ON_North.Bay.717310_CWEC.epw'. Data will be treated as typical (TMY)\n[openstudio.weather.Model] <0> Could not find ground temperatures; will use generic temperatures, which will skew results.\n[openstudio.setFileExtension] <0> Path p, '/usr/local/bundle/bundler/gems/openstudio-standards-f448df66933d/openstudio-standards/data/weather/CAN_ON_North.Bay.717310_CWEC.ddy', has an unexpected file extension. Was expecting 'idf'.\n[openstudio.model.YearDescription] <1> 'UseWeatherFile' is not yet a supported option for YearDescription\n[openstudio.model.YearDescription] <1> 'UseWeatherFile' is not yet a supported option for YearDescription\n[openstudio.EpwFile] <0> Successive data points (1965-Jan-31 to 1982-Feb-01, ending on line 753) are greater than 1 day apart in EPW file '/usr/local/bundle/bundler/gems/openstudio-standards-f448df66933d/openstudio-standards/data/weather/CAN_ON_North.Bay.717310_CWEC.epw'. Data will be treated as typical (TMY)\n[openstudio.setFileExtension] <0> Path p, '/usr/local/bundle/bundler/gems/openstudio-standards-f448df66933d/openstudio-standards/data/weather/CAN_ON_North.Bay.717310_CWEC.ddy', has an unexpected file extension. Was expecting 'idf'.\n[openstudio.model.YearDescription] <1> 'UseWeatherFile' is not yet a supported option for YearDescription\n[openstudio.model.YearDescription] <1> 'UseWeatherFile' is not yet a supported option for YearDescription\n[openstudio.setFileExtension] <0> Path p, '/usr/local/bundle/bundler/gems/openstudio-standards-f448df66933d/openstudio-standards/data/weather/CAN_ON_North.Bay.717310_CWEC.ddy', has an unexpected file extension. Was expecting 'idf'.\n[openstudio.model.YearDescription] <1> 'UseWeatherFile' is not yet a supported option for YearDescription\n[openstudio.model.YearDescription] <1> 'UseWeatherFile' is not yet a supported option for YearDescription\n[openstudio.EpwFile] <0> Successive data points (1965-Jan-31 to 1982-Feb-01, ending on line 753) are greater than 1 day apart in EPW file '/usr/local/bundle/bundler/gems/openstudio-standards-f448df66933d/openstudio-standards/data/weather/CAN_ON_North.Bay.717310_CWEC.epw'. Data will be treated as typical (TMY)\n[openstudio.setFileExtension] <0> Path p, '/usr/local/bundle/bundler/gems/openstudio-standards-f448df66933d/openstudio-standards/data/weather/CAN_ON_North.Bay.717310_CWEC.ddy', has an unexpected file extension. Was expecting 'idf'.\n[openstudio.model.YearDescription] <1> 'UseWeatherFile' is not yet a supported option for YearDescription\n[openstudio.model.YearDescription] <1> 'UseWeatherFile' is not yet a supported option for YearDescription\n[openstudio.setFileExtension] <0> Path p, '/usr/local/bundle/bundler/gems/openstudio-standards-f448df66933d/openstudio-standards/data/weather/CAN_ON_North.Bay.717310_CWEC.ddy', has an unexpected file extension. Was expecting 'idf'.\n[openstudio.model.YearDescription] <1> 'UseWeatherFile' is not yet a supported option for YearDescription\n[openstudio.model.YearDescription] <1> 'UseWeatherFile' is not yet a supported option for YearDescription\n[utilities.idf.WorkspaceObject] <0> Object of type 'Schedule:Constant' and named 'Always Off Discrete', points to an object named OnOff 1 from field 1, but that object cannot be located.\n[utilities.idf.WorkspaceObject] <0> Object of type 'Schedule:Constant' and named 'Always On Continuous', points to an object named Fractional 1 from field 1, but that object cannot be located.\n[utilities.idf.WorkspaceObject] <0> Object of type 'Schedule:Constant' and named 'Always Off Discrete', points to an object named OnOff 1 from field 1, but that object cannot be located.\n[utilities.idf.WorkspaceObject] <0> Object of type 'Schedule:Constant' and named 'Always On Continuous', points to an object named Fractional 1 from field 1, but that object cannot be located.\n[openstudio.standards.Fan] <0> For Fan Constant Volume 1, there is no greater nominal HP.  Use the efficiency of the largest motor category.\n[openstudio.standards.Fan] <0> For Fan Constant Volume 2, there is no greater nominal HP.  Use the efficiency of the largest motor category.\n[openstudio.standards.Fan] <0> For Fan Constant Volume 3, there is no greater nominal HP.  Use the efficiency of the largest motor category.\n[openstudio.standards.Fan] <0> For Fan Constant Volume 4, there is no greater nominal HP.  Use the efficiency of the largest motor category.\n[openstudio.standards.Fan] <0> For Fan Constant Volume 5, there is no greater nominal HP.  Use the efficiency of the largest motor category.\n[openstudio.EpwFile] <0> Successive data points (1965-Jan-31 to 1982-Feb-01, ending on line 753) are greater than 1 day apart in EPW file '/usr/local/bundle/bundler/gems/openstudio-standards-f448df66933d/openstudio-standards/data/weather/CAN_ON_North.Bay.717310_CWEC.epw'. Data will be treated as typical (TMY)\n[openstudio.setFileExtension] <0> Path p, '/usr/local/bundle/bundler/gems/openstudio-standards-f448df66933d/openstudio-standards/data/weather/CAN_ON_North.Bay.717310_CWEC.ddy', has an unexpected file extension. Was expecting 'idf'.\n[openstudio.model.YearDescription] <1> 'UseWeatherFile' is not yet a supported option for YearDescription\n[openstudio.model.YearDescription] <1> 'UseWeatherFile' is not yet a supported option for YearDescription\n[openstudio.setFileExtension] <0> Path p, '/usr/local/bundle/bundler/gems/openstudio-standards-f448df66933d/openstudio-standards/data/weather/CAN_ON_North.Bay.717310_CWEC.ddy', has an unexpected file extension. Was expecting 'idf'.\n[openstudio.model.YearDescription] <1> 'UseWeatherFile' is not yet a supported option for YearDescription\n[openstudio.model.YearDescription] <1> 'UseWeatherFile' is not yet a supported option for YearDescription\n[openstudio.EpwFile] <0> Successive data points (1965-Jan-31 to 1982-Feb-01, ending on line 753) are greater than 1 day apart in EPW file '/usr/local/bundle/bundler/gems/openstudio-standards-f448df66933d/openstudio-standards/data/weather/CAN_ON_North.Bay.717310_CWEC.epw'. Data will be treated as typical (TMY)\n[openstudio.setFileExtension] <0> Path p, '/usr/local/bundle/bundler/gems/openstudio-standards-f448df66933d/openstudio-standards/data/weather/CAN_ON_North.Bay.717310_CWEC.ddy', has an unexpected file extension. Was expecting 'idf'.\n[openstudio.model.YearDescription] <1> 'UseWeatherFile' is not yet a supported option for YearDescription\n[openstudio.model.YearDescription] <1> 'UseWeatherFile' is not yet a supported option for YearDescription\n[openstudio.setFileExtension] <0> Path p, '/usr/local/bundle/bundler/gems/openstudio-standards-f448df66933d/openstudio-standards/data/weather/CAN_ON_North.Bay.717310_CWEC.ddy', has an unexpected file extension. Was expecting 'idf'.\n[openstudio.model.YearDescription] <1> 'UseWeatherFile' is not yet a supported option for YearDescription\n[openstudio.model.YearDescription] <1> 'UseWeatherFile' is not yet a supported option for YearDescription\n[openstudio.EpwFile] <0> Successive data points (1965-Jan-31 to 1982-Feb-01, ending on line 753) are greater than 1 day apart in EPW file '/usr/local/bundle/bundler/gems/openstudio-standards-f448df66933d/openstudio-standards/data/weather/CAN_ON_North.Bay.717310_CWEC.epw'. Data will be treated as typical (TMY)\n[openstudio.setFileExtension] <0> Path p, '/usr/local/bundle/bundler/gems/openstudio-standards-f448df66933d/openstudio-standards/data/weather/CAN_ON_North.Bay.717310_CWEC.ddy', has an unexpected file extension. Was expecting 'idf'.\n[openstudio.model.YearDescription] <1> 'UseWeatherFile' is not yet a supported option for YearDescription\n[openstudio.model.YearDescription] <1> 'UseWeatherFile' is not yet a supported option for YearDescription\n[openstudio.setFileExtension] <0> Path p, '/usr/local/bundle/bundler/gems/openstudio-standards-f448df66933d/openstudio-standards/data/weather/CAN_ON_North.Bay.717310_CWEC.ddy', has an unexpected file extension. Was expecting 'idf'.\n[openstudio.model.YearDescription] <1> 'UseWeatherFile' is not yet a supported option for YearDescription\n[openstudio.model.YearDescription] <1> 'UseWeatherFile' is not yet a supported option for YearDescription\n[openstudio.EpwFile] <0> Successive data points (1965-Jan-31 to 1982-Feb-01, ending on line 753) are greater than 1 day apart in EPW file '/usr/local/bundle/bundler/gems/openstudio-standards-f448df66933d/openstudio-standards/data/weather/CAN_ON_North.Bay.717310_CWEC.epw'. Data will be treated as typical (TMY)\n[openstudio.setFileExtension] <0> Path p, '/usr/local/bundle/bundler/gems/openstudio-standards-f448df66933d/openstudio-standards/data/weather/CAN_ON_North.Bay.717310_CWEC.ddy', has an unexpected file extension. Was expecting 'idf'.\n[openstudio.model.YearDescription] <1> 'UseWeatherFile' is not yet a supported option for YearDescription\n[openstudio.model.YearDescription] <1> 'UseWeatherFile' is not yet a supported option for YearDescription\n[openstudio.setFileExtension] <0> Path p, '/usr/local/bundle/bundler/gems/openstudio-standards-f448df66933d/openstudio-standards/data/weather/CAN_ON_North.Bay.717310_CWEC.ddy', has an unexpected file extension. Was expecting 'idf'.\n[openstudio.model.YearDescription] <1> 'UseWeatherFile' is not yet a supported option for YearDescription\n[openstudio.model.YearDescription] <1> 'UseWeatherFile' is not yet a supported option for YearDescription\n[openstudio.EpwFile] <0> Successive data points (1965-Jan-31 to 1982-Feb-01, ending on line 753) are greater than 1 day apart in EPW file '/usr/local/bundle/bundler/gems/openstudio-standards-f448df66933d/openstudio-standards/data/weather/CAN_ON_North.Bay.717310_CWEC.epw'. Data will be treated as typical (TMY)\n[openstudio.setFileExtension] <0> Path p, '/usr/local/bundle/bundler/gems/openstudio-standards-f448df66933d/openstudio-standards/data/weather/CAN_ON_North.Bay.717310_CWEC.ddy', has an unexpected file extension. Was expecting 'idf'.\n[openstudio.model.YearDescription] <1> 'UseWeatherFile' is not yet a supported option for YearDescription\n[openstudio.model.YearDescription] <1> 'UseWeatherFile' is not yet a supported option for YearDescription\n[openstudio.setFileExtension] <0> Path p, '/usr/local/bundle/bundler/gems/openstudio-standards-f448df66933d/openstudio-standards/data/weather/CAN_ON_North.Bay.717310_CWEC.ddy', has an unexpected file extension. Was expecting 'idf'.\n[openstudio.model.YearDescription] <1> 'UseWeatherFile' is not yet a supported option for YearDescription\n[openstudio.model.YearDescription] <1> 'UseWeatherFile' is not yet a supported option for YearDescription\n[openstudio.standards.Fan] <0> For Fan Constant Volume 1, there is no greater nominal HP.  Use the efficiency of the largest motor category.\n[openstudio.standards.Fan] <0> For Fan Constant Volume 2, there is no greater nominal HP.  Use the efficiency of the largest motor category.\n[openstudio.standards.Fan] <0> For Fan Constant Volume 3, there is no greater nominal HP.  Use the efficiency of the largest motor category.\n[openstudio.standards.Fan] <0> For Fan Constant Volume 4, there is no greater nominal HP.  Use the efficiency of the largest motor category.\n[openstudio.standards.Fan] <0> For Fan Constant Volume 5, there is no greater nominal HP.  Use the efficiency of the largest motor category.\n",
            "step_errors" : [],
            "step_files" : [],
            "step_info" : [
               "Started adding geometry",
               "Finished adding geometry",
               "Started adding weather file for climate zone: NECB HDD Method.",
               "Template =",
               "Setting Attic to Space Function.- undefined -",
               "Setting Core_ZN to Space Function.Office - enclosed",
               "Setting Perimeter_ZN_1 to Space Function.Office - enclosed",
               "Setting Perimeter_ZN_2 to Space Function.Office - enclosed",
               "Setting Perimeter_ZN_3 to Space Function.Office - enclosed",
               "Setting Perimeter_ZN_4 to Space Function.Office - enclosed",
               "Started applying space types (loads)",
               "Space Function - undefined - had no ventilation specification, one has been created.",
               "Space Function - undefined - had no infiltration objects, one has been created.",
               "Space Function - undefined - set infiltration to 0.0 per ft^2 exterior surface area.",
               "Space Function - undefined - set infiltration schedule to Always On.",
               "Space Function Office - enclosed had no people, one has been created.",
               "Space Function Office - enclosed set occupancy to 4.65 people/1000 ft^2.",
               "Space Function Office - enclosed had no lights, one has been created.",
               "Space Function Office - enclosed set LPD to 1.105536975 W/ft^2.",
               "Space Function Office - enclosed had no electric equipment, one has been created.",
               "Space Function Office - enclosed set electric EPD to 0.696767001 W/ft^2.",
               "Space Function Office - enclosed had no ventilation specification, one has been created.",
               "Space Function Office - enclosed set ventilation per area to 0.085 cfm/ft^2.",
               "Space Function Office - enclosed had no infiltration objects, one has been created.",
               "Space Function Office - enclosed set infiltration to 0.0 per ft^2 exterior surface area.",
               "Space Function Office - enclosed set occupancy schedule to NECB-A-Occupancy.",
               "Space Function Office - enclosed set occupant activity schedule to NECB-Activity.",
               "Space Function Office - enclosed set lighting schedule to NECB-A-Lighting.",
               "Space Function Office - enclosed set electric equipment schedule to NECB-A-Electric-Equipment.",
               "Space Function Office - enclosed set infiltration schedule to Always On.",
               "Space Function Office - enclosed set heating setpoint schedule to NECB-A-Thermostat Setpoint-Heating.",
               "Space Function Office - enclosed set cooling setpoint schedule to NECB-A-Thermostat Setpoint-Cooling.",
               "Finished applying space types (loads)",
               "For NECB 2011, no exterior wall area was found, no infiltration will be added.",
               "Started applying constructions",
               "Adding construction set: NECB 2011-NECB HDD Method-Office--is_residentialNo",
               "Adding construction Typical Insulated Exterior Mass Floor R-15.63.",
               "Adding construction Typical Insulated Exterior Mass Wall R-12.5.",
               "Adding construction Typical Insulated Metal Building Roof R-20.41.",
               "Adding construction Typical Interior Floor.",
               "Adding construction Typical Interior Wall.",
               "Adding construction Typical Interior Ceiling.",
               "Adding construction Typical Insulated Carpeted 6in Slab Floor.",
               "Adding construction U 0.55 SHGC 0.31 Dbl Ref-D Tint 6mm/6mm Air.",
               "Adding construction Typical Insulated Metal Door R-1.43.",
               "Adding construction U 0.35 SHGC 0.35 Dbl LoE (e2-.1) Tint 6mm/13mm Air.",
               "Adding construction Typical Overhead Door R-2.0.",
               "Adding construction U 0.48 SHGC 0.40 Dbl Ref-D Clr 6mm/13mm.",
               "Adding construction Typical Interior Window.",
               "Adding construction Typical Interior Door.",
               "Adding construction Typical Interior Partition.",
               "Finished applying constructions",
               "WWR NonRes = 0%; window = 0 ft2, wall = 0 ft2.",
               "WWR Res = 0%; window = 0 ft2, wall = 0 ft2.",
               "WWR Semiheated = 0%; window = 0 ft2, wall = 0 ft2.",
               "The skylight to roof ratios (SRRs) are: NonRes: 0%, Res: 0%.",
               "Started creating thermal zones",
               "Finished creating thermal zones",
               "Running simulation /mnt/openstudio/analysis_4fef0e0f-5396-4c55-a6e1-2cd6803db3ab/data_point_5f022e2c-493b-4e89-8daf-a3b98acf9d2c/run/000_create_prototype_building/output/SmallOffice-NECB 2011-NECB HDD Method-CAN_ON_North.Bay.717310_CWEC.epw/SR0.",
               "Finished run.",
               "Started Adding HVAC",
               "Finished adding HVAC",
               "Started Adding Service Water Heating",
               "Adding service water loop.",
               "Adding water heater.",
               "Template =",
               "Finished adding Service Water Heating",
               "Set sizing factors to 1.3 for heating and 1.3 for cooling.",
               "Running simulation /mnt/openstudio/analysis_4fef0e0f-5396-4c55-a6e1-2cd6803db3ab/data_point_5f022e2c-493b-4e89-8daf-a3b98acf9d2c/run/000_create_prototype_building/output/SmallOffice-NECB 2011-NECB HDD Method-CAN_ON_North.Bay.717310_CWEC.epw/SR1.",
               "Finished run.",
               "Started applying multizone vav OA sizing.",
               "Finished applying multizone vav OA sizing.",
               "Started applying prototype HVAC assumptions.",
               "For Fan Constant Volume 1: allowed_hp = 1.01HP; motor eff = 61.5%; total fan eff = 40% based on 532 cfm.",
               "For Fan Constant Volume 2: allowed_hp = 1.01HP; motor eff = 61.5%; total fan eff = 40% based on 623 cfm.",
               "For Fan Constant Volume 3: allowed_hp = 1.01HP; motor eff = 61.5%; total fan eff = 40% based on 691 cfm.",
               "For Fan Constant Volume 4: allowed_hp = 1.01HP; motor eff = 61.5%; total fan eff = 40% based on 608 cfm.",
               "For Fan Constant Volume 5: allowed_hp = 1.01HP; motor eff = 61.5%; total fan eff = 40% based on 576 cfm.",
               "Sp-Perimeter_ZN_3 Sys-3 Flr-1 Sch-A HPlcmt-north ZN NECB System 3 PSZ does not require an economizer because the total cooling capacity of 14177 Btu/hr is less than the minimum capacity of 68243 Btu/hr.",
               "Sp-Perimeter_ZN_1 Sys-3 Flr-1 Sch-A HPlcmt-south ZN NECB System 3 PSZ does not require an economizer because the total cooling capacity of 16214 Btu/hr is less than the minimum capacity of 68243 Btu/hr.",
               "Sp-Perimeter_ZN_4 Sys-3 Flr-1 Sch-A HPlcmt-west ZN NECB System 3 PSZ does not require an economizer because the total cooling capacity of 18422 Btu/hr is less than the minimum capacity of 68243 Btu/hr.",
               "Sp-Core_ZN Sys-3 Flr-1 Sch-A HPlcmt-core ZN NECB System 3 PSZ does not require an economizer because the total cooling capacity of 15723 Btu/hr is less than the minimum capacity of 68243 Btu/hr.",
               "Sp-Perimeter_ZN_2 Sys-3 Flr-1 Sch-A HPlcmt-east ZN NECB System 3 PSZ does not require an economizer because the total cooling capacity of 16596 Btu/hr is less than the minimum capacity of 68243 Btu/hr.",
               "Finished applying prototype HVAC assumptions.",
               "Started applying HVAC efficiency standards.",
               "For Sp-Core_ZN Sys-3 Flr-1 Sch-A HPlcmt-core ZN NECB System 3 PSZ, ERV not required based on 0% OA flow, design supply air flow of 576cfm, and climate zone NECB HDD Method.",
               "For Sp-Core_ZN Sys-3 Flr-1 Sch-A HPlcmt-core ZN NECB System 3 PSZ, ERV not required based on exhaust heat content.",
               "For NECB 2011 NECB HDD Method:  Sp-Core_ZN Sys-3 Flr-1 Sch-A HPlcmt-core ZN NECB System 3 PSZ: DCV is not required for any system.",
               "For Sp-Core_ZN Sys-3 Flr-1 Sch-A HPlcmt-core ZN NECB System 3 PSZ: Unoccupied fan shutoff not required because system fan HP of 0.58 HP is less than the minimum threshold of 0.75 HP.",
               "For Sp-Core_ZN Sys-3 Flr-1 Sch-A HPlcmt-core ZN NECB System 3 PSZ: Setting motorized OA damper schedule to Always On Discrete.",
               "For Sp-Perimeter_ZN_1 Sys-3 Flr-1 Sch-A HPlcmt-south ZN NECB System 3 PSZ, ERV not required based on 0% OA flow, design supply air flow of 608cfm, and climate zone NECB HDD Method.",
               "For Sp-Perimeter_ZN_1 Sys-3 Flr-1 Sch-A HPlcmt-south ZN NECB System 3 PSZ, ERV not required based on exhaust heat content.",
               "For NECB 2011 NECB HDD Method:  Sp-Perimeter_ZN_1 Sys-3 Flr-1 Sch-A HPlcmt-south ZN NECB System 3 PSZ: DCV is not required for any system.",
               "For Sp-Perimeter_ZN_1 Sys-3 Flr-1 Sch-A HPlcmt-south ZN NECB System 3 PSZ: Unoccupied fan shutoff not required because system fan HP of 0.62 HP is less than the minimum threshold of 0.75 HP.",
               "For Sp-Perimeter_ZN_1 Sys-3 Flr-1 Sch-A HPlcmt-south ZN NECB System 3 PSZ: Setting motorized OA damper schedule to Always On Discrete.",
               "For Sp-Perimeter_ZN_2 Sys-3 Flr-1 Sch-A HPlcmt-east ZN NECB System 3 PSZ, ERV not required based on 0% OA flow, design supply air flow of 623cfm, and climate zone NECB HDD Method.",
               "For Sp-Perimeter_ZN_2 Sys-3 Flr-1 Sch-A HPlcmt-east ZN NECB System 3 PSZ, ERV not required based on exhaust heat content.",
               "For NECB 2011 NECB HDD Method:  Sp-Perimeter_ZN_2 Sys-3 Flr-1 Sch-A HPlcmt-east ZN NECB System 3 PSZ: DCV is not required for any system.",
               "For Sp-Perimeter_ZN_2 Sys-3 Flr-1 Sch-A HPlcmt-east ZN NECB System 3 PSZ: Unoccupied fan shutoff not required because system fan HP of 0.63 HP is less than the minimum threshold of 0.75 HP.",
               "For Sp-Perimeter_ZN_2 Sys-3 Flr-1 Sch-A HPlcmt-east ZN NECB System 3 PSZ: Setting motorized OA damper schedule to Always On Discrete.",
               "For Sp-Perimeter_ZN_3 Sys-3 Flr-1 Sch-A HPlcmt-north ZN NECB System 3 PSZ, ERV not required based on 0% OA flow, design supply air flow of 532cfm, and climate zone NECB HDD Method.",
               "For Sp-Perimeter_ZN_3 Sys-3 Flr-1 Sch-A HPlcmt-north ZN NECB System 3 PSZ, ERV not required based on exhaust heat content.",
               "For NECB 2011 NECB HDD Method:  Sp-Perimeter_ZN_3 Sys-3 Flr-1 Sch-A HPlcmt-north ZN NECB System 3 PSZ: DCV is not required for any system.",
               "For Sp-Perimeter_ZN_3 Sys-3 Flr-1 Sch-A HPlcmt-north ZN NECB System 3 PSZ: Unoccupied fan shutoff not required because system fan HP of 0.54 HP is less than the minimum threshold of 0.75 HP.",
               "For Sp-Perimeter_ZN_3 Sys-3 Flr-1 Sch-A HPlcmt-north ZN NECB System 3 PSZ: Setting motorized OA damper schedule to Always On Discrete.",
               "For Sp-Perimeter_ZN_4 Sys-3 Flr-1 Sch-A HPlcmt-west ZN NECB System 3 PSZ, ERV not required based on 0% OA flow, design supply air flow of 691cfm, and climate zone NECB HDD Method.",
               "For Sp-Perimeter_ZN_4 Sys-3 Flr-1 Sch-A HPlcmt-west ZN NECB System 3 PSZ, ERV not required based on exhaust heat content.",
               "For NECB 2011 NECB HDD Method:  Sp-Perimeter_ZN_4 Sys-3 Flr-1 Sch-A HPlcmt-west ZN NECB System 3 PSZ: DCV is not required for any system.",
               "For Sp-Perimeter_ZN_4 Sys-3 Flr-1 Sch-A HPlcmt-west ZN NECB System 3 PSZ: Unoccupied fan shutoff not required because system fan HP of 0.7 HP is less than the minimum threshold of 0.75 HP.",
               "For Sp-Perimeter_ZN_4 Sys-3 Flr-1 Sch-A HPlcmt-west ZN NECB System 3 PSZ: Setting motorized OA damper schedule to Always On Discrete.",
               "For Fan Constant Volume 1: motor nameplate = 0.33127663075694225HP, motor eff = 61.5%.",
               "For Fan Constant Volume 2: motor nameplate = 0.387800307334255HP, motor eff = 61.5%.",
               "For Fan Constant Volume 3: motor nameplate = 0.4304772905964174HP, motor eff = 61.5%.",
               "For Fan Constant Volume 4: motor nameplate = 0.3788781685987739HP, motor eff = 61.5%.",
               "For Fan Constant Volume 5: motor nameplate = 0.35853000590132844HP, motor eff = 61.5%.",
               "For Service Water Loop Pump: brake hp = 0.0HP, motor nameplate = 0.1HP, motor eff = 70.0%.",
               "For Pump Variable Speed 1: brake hp = 0.11HP, motor nameplate = 1.0HP, motor eff = 85.5%.",
               "For NECB 2011: Coil Cooling DX Single Speed 1: AirCooled All Other Single Package Capacity = 14kBtu/hr; SEER = 14.0",
               "For NECB 2011: Coil Cooling DX Single Speed 2: AirCooled All Other Single Package Capacity = 17kBtu/hr; SEER = 14.0",
               "For NECB 2011: Coil Cooling DX Single Speed 3: AirCooled All Other Single Package Capacity = 18kBtu/hr; SEER = 14.0",
               "For NECB 2011: Coil Cooling DX Single Speed 4: AirCooled All Other Single Package Capacity = 16kBtu/hr; SEER = 14.0",
               "For NECB 2011: Coil Cooling DX Single Speed 5: AirCooled All Other Single Package Capacity = 16kBtu/hr; SEER = 14.0",
               "For NECB 2011: Primary Boiler: Gas Hot Water Capacity = 84kBtu/hr; AFUE = 0.85",
               "For NECB 2011: Secondary Boiler: Gas Hot Water Capacity = 0kBtu/hr; AFUE = 0.85",
               "For NECB 2011: 40.0gal NaturalGas Water Heater - 40kBtu/hr 0.82 Therm Eff; thermal efficiency = 0.82, skin-loss UA = 6Btu/hr",
               "Finished applying HVAC efficiency standards.",
               "Started adding daylighting controls.",
               "For Attic, daylighting control not applicable because no exterior fenestration is present.",
               "For Core_ZN, daylighting control not applicable because no exterior fenestration is present.",
               "Finished adding daylighting controls.",
               "Total Time = 48sec."
            ],
            "step_result" : "Success",
            "step_values" : [
               {
                  "name" : "building_type",
                  "value" : "SmallOffice"
               },
               {
                  "name" : "template",
                  "value" : "NECB 2011"
               },
               {
                  "name" : "climate_zone",
                  "value" : "NECB HDD Method"
               },
               {
                  "name" : "epw_file",
                  "value" : "CAN_ON_North.Bay.717310_CWEC.epw"
               }
            ],
            "step_warnings" : [
               "[openstudio.EpwFile] Successive data points (1965-Jan-31 to 1982-Feb-01, ending on line 753) are greater than 1 day apart in EPW file '/usr/local/bundle/bundler/gems/openstudio-standards-f448df66933d/openstudio-standards/data/weather/CAN_ON_North.Bay.717310_CWEC.epw'. Data will be treated as typical (TMY)",
               "[openstudio.EpwFile] Successive data points (1965-Jan-31 to 1982-Feb-01, ending on line 753) are greater than 1 day apart in EPW file '/usr/local/bundle/bundler/gems/openstudio-standards-f448df66933d/openstudio-standards/data/weather/CAN_ON_North.Bay.717310_CWEC.epw'. Data will be treated as typical (TMY)",
               "[openstudio.weather.Model] Could not find ground temperatures; will use generic temperatures, which will skew results.",
               "[openstudio.EpwFile] Successive data points (1965-Jan-31 to 1982-Feb-01, ending on line 753) are greater than 1 day apart in EPW file '/usr/local/bundle/bundler/gems/openstudio-standards-f448df66933d/openstudio-standards/data/weather/CAN_ON_North.Bay.717310_CWEC.epw'. Data will be treated as typical (TMY)",
               "[openstudio.EpwFile] Successive data points (1965-Jan-31 to 1982-Feb-01, ending on line 753) are greater than 1 day apart in EPW file '/usr/local/bundle/bundler/gems/openstudio-standards-f448df66933d/openstudio-standards/data/weather/CAN_ON_North.Bay.717310_CWEC.epw'. Data will be treated as typical (TMY)",
               "[openstudio.standards.Fan] For Fan Constant Volume 1, there is no greater nominal HP.  Use the efficiency of the largest motor category.",
               "[openstudio.standards.Fan] For Fan Constant Volume 2, there is no greater nominal HP.  Use the efficiency of the largest motor category.",
               "[openstudio.standards.Fan] For Fan Constant Volume 3, there is no greater nominal HP.  Use the efficiency of the largest motor category.",
               "[openstudio.standards.Fan] For Fan Constant Volume 4, there is no greater nominal HP.  Use the efficiency of the largest motor category.",
               "[openstudio.standards.Fan] For Fan Constant Volume 5, there is no greater nominal HP.  Use the efficiency of the largest motor category.",
               "[openstudio.EpwFile] Successive data points (1965-Jan-31 to 1982-Feb-01, ending on line 753) are greater than 1 day apart in EPW file '/usr/local/bundle/bundler/gems/openstudio-standards-f448df66933d/openstudio-standards/data/weather/CAN_ON_North.Bay.717310_CWEC.epw'. Data will be treated as typical (TMY)",
               "[openstudio.EpwFile] Successive data points (1965-Jan-31 to 1982-Feb-01, ending on line 753) are greater than 1 day apart in EPW file '/usr/local/bundle/bundler/gems/openstudio-standards-f448df66933d/openstudio-standards/data/weather/CAN_ON_North.Bay.717310_CWEC.epw'. Data will be treated as typical (TMY)",
               "[openstudio.EpwFile] Successive data points (1965-Jan-31 to 1982-Feb-01, ending on line 753) are greater than 1 day apart in EPW file '/usr/local/bundle/bundler/gems/openstudio-standards-f448df66933d/openstudio-standards/data/weather/CAN_ON_North.Bay.717310_CWEC.epw'. Data will be treated as typical (TMY)",
               "[openstudio.EpwFile] Successive data points (1965-Jan-31 to 1982-Feb-01, ending on line 753) are greater than 1 day apart in EPW file '/usr/local/bundle/bundler/gems/openstudio-standards-f448df66933d/openstudio-standards/data/weather/CAN_ON_North.Bay.717310_CWEC.epw'. Data will be treated as typical (TMY)",
               "[openstudio.EpwFile] Successive data points (1965-Jan-31 to 1982-Feb-01, ending on line 753) are greater than 1 day apart in EPW file '/usr/local/bundle/bundler/gems/openstudio-standards-f448df66933d/openstudio-standards/data/weather/CAN_ON_North.Bay.717310_CWEC.epw'. Data will be treated as typical (TMY)",
               "[openstudio.standards.Fan] For Fan Constant Volume 1, there is no greater nominal HP.  Use the efficiency of the largest motor category.",
               "[openstudio.standards.Fan] For Fan Constant Volume 2, there is no greater nominal HP.  Use the efficiency of the largest motor category.",
               "[openstudio.standards.Fan] For Fan Constant Volume 3, there is no greater nominal HP.  Use the efficiency of the largest motor category.",
               "[openstudio.standards.Fan] For Fan Constant Volume 4, there is no greater nominal HP.  Use the efficiency of the largest motor category.",
               "[openstudio.standards.Fan] For Fan Constant Volume 5, there is no greater nominal HP.  Use the efficiency of the largest motor category."
            ]
         }
      },
      {
         "arguments" : {
            "__SKIP__" : false
         },
         "measure_dir_name" : "view_model",
         "name" : "view_model",
         "result" : {
            "completed_at" : "20170710T183225Z",
            "measure_class_name" : "ViewModel",
            "measure_display_name" : "ViewModel",
            "measure_name" : "view_model",
            "measure_taxonomy" : "Reporting.QAQC",
            "measure_type" : "ModelMeasure",
            "measure_uid" : "f4669f10-fda5-489d-8e1c-7ca3c2d40378",
            "measure_version_id" : "f4975c5f-7c25-42a2-927b-02d99b4427ef",
            "measure_version_modified" : "20170526T150340Z",
            "measure_xml_checksum" : "1E1F8B97",
            "started_at" : "20170710T183224Z",
            "stderr" : "",
            "stdout" : "[OpenStudio.Measure] <0> OSArgumentVector is deprecated, use OpenStudio::Measure::OSArgumentVector instead.\n",
            "step_errors" : [],
            "step_files" : [
               "/mnt/openstudio/analysis_4fef0e0f-5396-4c55-a6e1-2cd6803db3ab/data_point_5f022e2c-493b-4e89-8daf-a3b98acf9d2c/run/001_view_model/report.html",
               "/mnt/openstudio/analysis_4fef0e0f-5396-4c55-a6e1-2cd6803db3ab/data_point_5f022e2c-493b-4e89-8daf-a3b98acf9d2c/run/001_view_model/report.json"
            ],
            "step_final_condition" : "Report written to <a href='file:////mnt/openstudio/analysis_4fef0e0f-5396-4c55-a6e1-2cd6803db3ab/data_point_5f022e2c-493b-4e89-8daf-a3b98acf9d2c/run/001_view_model/report.html'>report.html</a>.",
            "step_info" : [ "No changes made to the model." ],
            "step_result" : "NA",
            "step_values" : [
               {
                  "name" : "view_model_html_zip",
[...]
DzHvZj4oSsAf40/VmnNogiYR1gF/p0epQUt1xtwEQ/bVkvz7kW5LnrjlcvHwt+a8z5N42QY+NMJH7Aff2T/mH9+374YOeF8/Z4IsK3l2tmjtXGHtJ3h8JWw0R5zbxiN2Etms3+xxsl43GBHq1eEY7fPm9vW1qfO563ceFtriR+w5nXclM5P7Do2M3fVuV3x2T/jEUf/AYki3HiO9+n6c/sLn7Hj4+O084ohJqjzx36t29RFuQy486XIzV8179G9XvTXvHXHwq2FM8w9JVmI2r5Ijx7gg1OxxDX8lPTk52JduXjQk2k4ahZ9FvEjPUqfZ/FIGo+PVFrZFlcWtRJGgf+Fq9lJry1qyZ84fTeaqZmaX1y4VYmJhamiKIuBZHVYKRIe2oOPKItwXh142DazdNF0wk2d69dWklWVrv+aN6cQZWeH/fHnR/af939+YOfvP3z8/d1v7M37334/Za/PPpypAbyKR21+74gpGot8FvpBxLzpTewHfZYsyQ6ZE/bjyYvrDRUQF30vcJYys9Nil+qDS8CjaeCxiROE/NXYd6KmI4b8rfhRLn12mXym1Jn5U7Qls/Mm5AF/fYIjYr7R2U7OfklVtJ/kxBrQAR3QAR3QAR3QAR3QAR3QAZ2Np7N+LoRgFPAB2IAN2IAN2IAN2IAN2IAN2IAN2GSzWTuZSLAR5w6BDuiADuiADuiADuiADuiADuiAThE66qeYJb+wpWeUgSmYgimYgimYgimYgimYgimYgimYgulmMM09XjNhmh6eCaZgCqZgCqZgCqZgCqZgCqZgCqZgCqabwVTrjOOEdXqCMViDNViDNViDNViDNViDNViDNViDNViD9ROyXtAaBM5dMxfsvh250Zifj5wJb0f8Pmq+eO1PgzCfxmz9zl/dG+6Fru+NeZgg5EDs7LCTwYA5LEFid240YqF/w9mgm3NneDtsO5OJOE6kIWw3tnJuWJS2E0VBs3HfaLG9juZNs4Y4tET5pjCaiVNXBL1tx+uP/KDxcNSJJsaV70Xbd9wdjiKBcemPB+oY6bN5d3b6y/bJ9vt+fzqJ2cxebGU9nZc7YT9wJ9HP0mte7gzc28erpffIwWIs5g6OG33huqdxax3X48GFddhgSRccNwZuOBk7syPXE2ffbF+O/f6XnxpyfjFo2gQWzSbx/aIXdq6dWyf9NPNOUZIDeW6H7Hhx7o7H785vh83GD+scW2xXHGMT/5EbNUuHt3z6a34iz1HjG9m+RiutubhvHFntTquRCMg3jjrtTq/V6IuRJr5pLuzX+NpSArKpgLpUQLtUQD0qoD0qoH0qoIMVIKswzuEKTnE+VocKaNWxD4sD2VRAXSqgXSqgHhXQHhXQqmPvFwc6oPKjVc/uFh8fVz3bLg5kUQHZVEBkQ7atN2avqyeppbaADzRw5JlND0feS3o48j7Sw5GnNT0ceVbTw5EnNT0caU7Tg5GmND0YeUbTxJEmNE0caT7TxJGmM00caTbTxJEmM00caS7TxJGmMk0caSbTxJEmMs3RUJrHNHGkaUwTR5rFNHGohueMHLYGtCZLoZa/hHCFBpA8gWkCybtIE0jeRZpA8hymCSRPYppA8iymCSRNY5o40jymiSNPZLpA0kymCyRNZbpA0lymCyRNZrpA0mymCyRNZ7pA0nymCyRNaLpA0oymOz5KU5oukDSn6QJJk5ouENmQnZHW1pDUd2YqvopM924S2Mh4S0lmI+PbMJmNjO/JZDYyXnuS2ch4I0pmI+NlKZmNgwpsHFZg45skX5KRKiLdqiLUrSpi3aoi2K0qot2qItytKuLdqiLgrSoi3q4i4u1KcnsVEZ/1rpvOSMGIz90YozjdSrfOENjIeCJkNjIeCJmNjOdBZiNjACazkTH+ktnIGH7JbGSMvmQ2MgZfMhtZ0y06I1VEetZ0i85IFbGeNd2iM1JFtGdNt+iMVBHvWdMtOiNVRHzWdIvOSCW5vYqIz5pu0RkpGPFaa3AVp17pKl1iexlPqhR7GQ+tFHsZz68UexmDdyn2MsbxUuxlDOml2JOvQizFnHyxYinmMtY0lmNPvvSxHHvyFZLl2JMvpCzHnny9ZTn25Msyy7EnX71Zjj35Is9y7MnXgpZjT75ktJzsLl9ZWo49+QLUcuzJ16mWY6/q6UvW/HNh8LPKzo/53ix2zDx+t9hYkuwnaYa3w1ayMyR3C8lig1fIo1/8qTcIm71Oi1lWr8W64m92T20byn1M42EP22Bw6kR86Aezk3s3TDdIPXSAwi6yGOB9MODBh6nYr6R8o+AxW+XxljvhNOApDbHlat7xJe/mQzWqUY1qVKMa1ahGNapRjWpUoxrVqEY1qlGNalSjGtWoRjWqUY1qVKMa1ahGNao3uHrW9m95ELgD/tYRC4OsdsdwvU0ioLu6tOecBy4P58uDGq3FAqjJ2I/aQtU3d4lP+Ng6o/yVQWE7Ec6Y+GMncn0vJtUIIz7ZvuRXfsAbaiu33vAh9warDUo/a+51WqwrVl4JFWBL/DGXec5VwF7Ati+GPDrzItE/sYmrqddPmDa32F85EAuG/OHuT7lr0URxr1gzGrlhO0yeipohUZZuasf9d+b0R82/CeuiLejPRZHnuBcTP3QF4K/xxyqtWRQB8wirwL/To7Sg5XoDLuJh22pp3r0o10VvvHL5WPhbc96naZwMA3864QP244/sH/PP79sXIyecr98TAba1XDt7tDbukLYzHL4SNtpj7g2jEXvJbPYv1jgZjxvsaPWKcOz2eXPb2vrU+byVG29rLfED1ryOm9L5iV3HZuauOrcrPvtnPOLoPyBRhBvP8T5df25/4TN2fHycdl4xxAR1/tivdZu6KJcBd74Uufmr5j2614v+mrfuWLi1cIa5pyQLUdsX6XkGfHAqlriGn5Ke/FysKxcPejINR82izyJ+pEfp8yweSePxkUor2+LKolbCKPC/cDU76bVFLfkTp+9GMzVT84sLtyoxsTBVFGUxkKwOK0XCQ3vwEWURzqsDD9tmli6aTripc/3aSrKq0vVf8+YUouzssD/+/Mj+8/7PD+z8/YePv7/7jb15/9vvp+z12YczNYBX8ajN7x0xRWORz0I/iJg3vYn9oM+SJdkhc8J+PHlxvaEC4qLvBc5SZnZa7FJ9cAl4NA08NnGCkL8a+07UdMSQvxU/yqXPLpPPlDozf4q2ZHbehDzgr09w7sw3mt3JgTKpIPeTHIMDOqADOqADOqADOqADOqADOqCz8XTWj5YQjAI+ABuwARuwARuwARuwARuwARuwAZtsNmtnGgk24sAi0AEd0AEd0AEd0AEd0AEd0AEd0ClCR/2cs+QXtvQQMzAFUzAFUzAFUzAFUzAFUzAFUzAFUzDdDKa5B20mTNNTNMEUTMEUTMEUTMEUTMEUTMEUTMEUTMF0M5hqHXKcsE5PMAZrsAZrsAZrsAZrsAZrsAZrsAZrsAZrsH5C1gtag8C5a+aC3bcjNxrz85Ez4e2I30fNF6/9aRDm05it3/mre8O90PW9MQ8ThByInR12MhgwhyVI7M6NRiz0bzgbdHPuDG+HbWcyEceJNITtxlbODYvSdqIoaDbuGy2219G8adYQh5Yo3xRGM3HqiqC37Xj9kR80Ho460cS48r1o+467w1EkMC798UAdI302785Of9k+2T7nwa3b5+zfjthu85o7kesNX2xlPamXO2E/cCfRz9JrXu4M3NvHq6X3yMFiLOYOjht94canccsd1+PBhd1psKQ7jhsDN5yMndmR64lzcLYvx37/y08NOb8YNG0Ci2aT+H7RIzvXzq2Tfpp5pyjJ4Ty3Q3a8OIPH43fnt8Nm44d1ji22K460if/IjaClg1w+/TU/neeo8Y2EX6OV1lzcN46sdqfVSMTkG0eHu+3D5dJtNfpiCIoR5op/ja8tJVS7FNRuKai7paD2SkHdKwV1fwl1v9e2aFAPSkE9LAXV6pQDa5UDa5cD2y0Hdrcc2F45sHvlwJYTY1Y5QWaVE2V2OVFmlxNldjlJzC4ni9kGaWxdkKrADCHgAw1Qxb7VA1XsWT1QxX7VA1WcHeiBKk4O9EAVxy09UMVRSw9UcczSA1WdGGiiKo5YmqiK0wJNVMVZgSaq4qRAE1VxTqCJqjgl0EQtJbJUJwSaqKXElup0QBO1lNhSnQxoopaSsVSnAmuoa4IpBaYBQl9FA1WxWzVRFbtVE1WxWzVRFacCmqiKcwFNVMUhSxNVccjSRFUcsjRRVecDurCKg5YurOKMQBdWcUqgC6s4J9CFVZwU6MIqzgp0YcuJMdV5gS5sOVGmOjPQhS0nylTnBrqw5WQx1dnBGqz61usivy+kO7UJDKq+tSEzqPo+h8yg6pseMoOqv2WQGVT9mYPM4H7VBg+qNnhYtcGVmVI1Fisfa6zKBxur8tHGqny4sSofb6zKBxyr8hHHqnzIsSofc+zKxxy7+vlN5WOO8i9WdBYpxpzcHYNFpqnpBkMCg6pPkcyg6kMkM6j6DMkMqqYNMoOqWYPMoGrSIDOomjPIDKqmDDKDytNUOouVjzXK01Q6i5WPNsrTVDqLlY83ytNUOouVjzjK01Q6i5WPOcrTVDqL1c9vKh9zlKepdBYpxhytTR1FpqzpHhBi46pPtxTjqg+6FOOqz7wU46oppxTjqtmnFOOq62dLMa66yrYU46prcUsxrrwwvhzrqit7y7Guusy+HOuqq/HLsa66aL8c66pr+8uxrroFoBzrTzrSKW8oKMf6k451ytsTyrH+pGOd8nS9HOtPOqNTnsYvrH9W2YU53zPNjpnH7xabPJO9nc3wdthKdmnmbudcbLwOefSLP/UGYbPXaTHL6rVYV/zN7qltCb2PaTzsLR8MTp2ID/1gdnLvhunG5YfeUNjdHQO8DwY8+DAV+4iVbxQ8Zqs83nInnAY8pSG2Qs+fgul+9WRz7aqpcx64PJzTjS3NH8hk7EdtseM312T4WLvzmYbtZDHOxB87ket7MalGGPHJ9iW/8gPeUPOkN3zIvcFqg9LPmnuxF3SFJ4gdwpb4Y74dPHen/AK2fTHk0ZkXif6JTVxNvX7CtLnF/lLYDy4Y8oe7P+XGhijuFWtGIzeM/Vrcp2ZIlKWb2nH/nTn9UfNvwrpoC/rzDdNz3IuJH7oC8Nf4Y5XWLIqAeYRV4N/pUVrQcr0BF4G7bbU0716U66I3Xrl8LPytOe/TNE6GgT+d8AH78Uf2j/nn9+2LkRPOxxMRYFvLtbNHa+MOaTvD4Sthoz3m3jAasZfMZv9ijZPxuMGOVq8Ix26fN7etrU+dz1u58bbWEj9gzeu4KZ2f2HVsZu6qc7vis38eM0v/AYki3HiO9+n6c/sLj4e34+O084ohJqjzx36t29RFuQy486XIzV8179G9XvTXvHXHwq2FM8w9JUmM7YtU94QPTkXKDT8lPfm5WFcuHvRkGo6aRZ9F/EiP0udZPJLG4yOVVrbFlUWthFHgf+FqdtJri1ryJ04/nm2pmZpfXLhViYmFqaIoi4FkdVgpEh7ag48oi3BeHXjiuaqli6YTbupcv7aSrKp0/de8OYUoOzvsjz8/sv+8//MDO3//4ePv735jb97/9vspe3324UwN4FU8avN7R0zRWOSz0I8n0t70JvaDPkumiCFzwn48eXG9oQLiou8FzlJmdlrsUn1wCXg0DTw2cYKQvxr7TtR0xJC/FT/Kpc8uk8+UOjN/irZkdt6EPOCvT6BP9c2u9ER4Kt1l/iRyWaADOqADOqADOqADOqADOqADOhtPZ131QzAK+ABswAZswAZswAZswAZswAZswAZsstms6SQJNkL3CHRAB3RAB3RAB3RAB3RAB3RAB3SK0FHXAEt+YUs1vcAUTMEUTMEUTMEUTMEUTMEUTMEUTMF0M5jmiikmTFNxRDAFUzAFUzAFUzAFUzAFUzAFUzAFUzDdDKZaCqwJ61RRFazBGqzBGqzBGqzBGqzBGqzBGqzBGqzB+glZL2gNAueumQt2347caMzPR86EtyN+HzVfvPanQZhPY7Z+50d+M+GBE00DzpqvtgRGDsjODjsZDJjDEix250YjFvo3nA26OXeGt8O2M5mIA0UawnpjK+eGRWk7URSkR8jsdTRvEge+2Oo3hdFMnLsi6G07Xn/kB42Hw040Ma58L9q+4+5wFAmMS388UMdIn867s9Nftk+2P454cOOHkROxcx5NfDcGPvX9sesNX2xlPa+XO2E/cCfRz9JrXu4M3NvHq6X3yMFiLOYOjht94c6ncfsd1+PBhW01WNIpx42BG07GzuzI9cR5ONuXY7//5aeGnF8MmjaBRbNJfL/ol51r59ZJP828U5TkkJ7bITtenMXj8bvz22Gz8cM6xxbbFUfbxH/kRtLSgS6f/j4l6hspP9k5qnu77a7s9KdU+W/l7KkMVLsU1G4pqLuloPZKQd0rBXX5zL29ffkJYHqoK2fpWe3eMupuYdTDUlBXD/qkg7XKgbXLge2WA7tbDmyvHNi9cmD3y4EtJ8iscqLMLifK7HKizC4nidnlZDHbII2tC1MVmCEEfKABqti3eqCKPasHqtiveqCKswM9UMXJgR6o4txAD1Rx1NIDVRyz9EBVJwaaqIojliaq4rRAE1VxVqCJqjgp0ERVnBNooipOCTRRFWcEmqilhJbqfEAzB5QSW6qzAU3UUhKW6lxAE7VoyloTTikwDRA6Kxqoit2qiarYrZqoit2qiao4FdBEVZwLaKIqTgY0URWHLE1UxSFLE1V1PqALqzho6cIqzgh0YRWnBLqwinMCXVjFSYEurOKsQBdWcVqgC1tOkKlODHSzQjlRpjo10IUtJ4mpTg50YYumMfUt2EV+X0h3bBMYVH1rQ2ZQ9X0OmUHVNz1kBlV/yyAzqPozB5nB/aoNHlRt8LBqgyszpWosVj7WWJUPNlblo41V+XBjVT7eWJUPOFblI45V+ZBjVT7m2JWPOXb185vKxxzlX6zoLFKMObk7B4tMU9ONhgQGVZ8imUHVh0hmUPUZkhlUTRtkBlWzBplB1aRBZlA1Z5AZVE0ZZAaVp6l0Fisfa5SnqXQWKx9tlKepdBYrH2+Up6l0FisfcZSnqXQWKx9zlKepdBarn99UPuYoT1PpLFKMOVqbO4pMWdO9IMTGVZ9uKcZVH3QpxlWfeSnGVVNOKcZVs08pxlXXqJdiXHWVbSnGVdfilmJceWF8OdZVV/aWY111mX051lVX45djXXXRfjnWVdf2l2NddQtAOdZVdwqUY/1JhzrlfQflzGmedKxT3sVQjvUnndApT93Lsa47pfussgtzvneaHTOP3y02eSZ7O5vh7bCV7NLM3c652IAd8ugXf+oNwmav02KW1Wuxrvib3VPbEnof03jYYz4YnDoRH/rB7OTeDdPtyw+9obDLOwZ4Hwx48GEqdhMr3yh4zFZ5vOVOOA14SkNsiJ4/BdN968nm2lVT5zxweTinG1uaP5DJ2I/aYsdvrsnwsXbnMw3byWKciT92Itf3YlKNMOKT7Ut+5Qe8oeZJb/iQe4PVBqWfNfdiL+gKTxA7hC3xx3xTeO5++QVs+2LIozMvEv0Tm7iaev2EaXOL/aWwK1ww5A93f8qNDVHcK9aMRm4Y+7W4T82QKEs3teP+O3P6o+bfhHXRFvTnG6bnuBcTP3QF4K/xxyqtWRQB8wirwL/To7Sg5XoDLgJ322pp3r0o10VvvHL5WPhbc96naZwMA3864QP244/sH/PP79sXIyecjyciwLaWa2eP1sYd0naGw1fCRnvMvWE0Yi+Zzf7FGifjcYMdrV4Rjt0+b25bW586n7dy422tJX7AmtdxUzo/sevYzNxV53bFZ/88Zpb+AxJFuPEc79P15/YXHg9vx8dp5xVDTFDnj/1at6mLchlw50uRm79q3qN7veiveeuOhVsLZ5h7SpIY2xep/gkfnIqUG35KevJzsa5cPOjJNBw1iz6L+JEepc+zeCSNx0cqrWyLK4taCaPA/8LV7KTXFrXkT5x+PNtSMzW/uHCrEhMLU0VRFgPJ6rBSJDy0Bx9RFuG8OvDEc1VLF00n3NS5fm0lWVXp+q95cwpRdnbYH39+ZP95/+cHdv7+w8ff3/3G3rz/7fdT9vrsw5kawKt41Ob3jpiischnoR9PpL3pTewHfZZMEUPmhP148uJ6QwXERd8LnKXM7LTYpfrgEvBoGnhs4gQhfzX2najpiCF/K36US59dJp8pdWb+FG3J7LwJecBfn0Cn6ptd6YkAVbrL/Elks0AHdEAHdEAHdEAHdEAHdEAHdDaezrrqh2AU8AHYgA3YgA3YgA3YgA3YgA3YgA3YZLNZ00kSbITuEeiADuiADuiADuiADuiADuiADugUoaOuAZb8wpZqeoEpmIIpmIIpmIIpmIIpmIIpmIIpmILpZjDNFVNMmKbiiGAKpmAKpmAKpmAKpmAKpmAKpmAKpmC6GUy1FFgT1qmiKliDNViDNViDNViDNViDNViDNViDNViD9ROyXtAaBM5dMxfsvh250Zifj5wJb0f8Pmq+eO1PgzCfxmz9zo/8ZsIDJ5oGnDVfbQmMHJCdHXYyGDCHJVjszo1GLPRvOBt0c+4Mb4dtZzIRB4o0hPXGVs4Ni9J2oihIj5DZ62jeJA58sdVvCqOZOHdF0Nt2vP7IDxoPh51oYlz5XrR9x93hKBIYl/54oI6RPp13Z6e/bJ9sfxzx4MYPIydi5zya+G4M/Jo7kesNX2xlPa+XO2E/cCfRz9JrXu4M3NvHq6X3yMFiLOYOjht94c6ncfsd1+PBhW03WNIpx42BG07GzuzI9cR5ONuXY7//5aeGnF8MmjaBRbNJfL/ol51r59ZJP828U5TkkJ7bITtenMXj8bvz22Gz8cM6xxbbFUfbxH/kRtLSgS6f/j4l6hspP9k5qlY3OQOsL4YfceJTqva3ct5UBpJNhtQlQ9olQ+qRIe2RIe2TIR2QIR2SIa0cvmkIReflFp2bW3R+btE5ukXn6Radq1t0vm7RObtF5+02nbfbhGM6nbfbdN5ua3r7uvCSYgYM+EADKKOv9IAyekoPKKOf9IAyxgQ9oIwRQQ8oYzzQA8oYDfSAMsYCPaCsxKeJRObbWWlPE4nMu7OSniYSmX9npTxNJDIPz0p4mkhkPp6V7jSR6MZvMh/PynWaSDo+viZ8oZjmhDaGBlJGN2kiZXSTJlJGN2kiZQwFmkgZQ4EmUsZQoImUMRRoImUMBZpIWflOF4rOy7Myni4UnZ9n5TxdKDpPz8p6ulB0vp6V93Sh6Lw9K/PpQhGO6XTenpX8dKFyvR2H0eMw+jmQwm04jH6t4DB6FVo4jB6H0RcpOIxeFBxGj8Pok4LD6LOvxGH0+QCi4DD6zTizEXRAB3RAB3RAB3RAB3RAB3RAZ+PpPLOjHMEGbMAGbMAGbMAGbMAGbMAGbDaHzfM6sxF0QAd0QAd0QAd0QAd0QAd0QOdZ0XlCcbaTfuTeutHsDb/lY9b8N+TZnqM82/whbYYSW3cDlNi6lSmxddqdHokQmxFQlwpolwqoRwW0RwW0TwV0QAV0SAW0si/fDInMty0y57bIvNsic2+LzL8tMge3yDzcInNxi8zHbTIft+nGbzIft8l83NbzcXXFtVWs4oJrJjjyXiout2aCIx8FioutmeDIR4DiUmsmOPLoNxBaMwKi8uiM9GagsmYEROXUGbnNQGLNCIjKrzMSm4G+mtHISOXZGVnNQFzNCIjKszNSWnFltVUcA2E1IyB5FxnIqhkByYPfQFTNCEge/AaSakZA8uA3EVQzQyLz7YzMZqKmZoZE5t4Zyc1ESs0MiczDM/KbiY6a2VhJ5uMZKc5ERM0MiczHM7IcFNSgoAYFtTWGUFATBQpqUFCDglpGgYIaFNS0WgUFtRX7GtdDQW25QEHtoZSwYOuZCQ2ADuiADuiADuiADuiADuiADuhsPJ1npj8ANmADNmADNmADNmADNmADNmCzOWy+G90D0AEd0AEd0AEd0AEd0AEd0AGd4vaeQEENgmnPSjDtvD/ig2ncy2I7VMgjZnU2QzZtdwNk03Yrk03bSzaFFpW4oQLqUgHtUgH1qID2qID2qYAOqIAOqYBWdt+bIZH5tkXm3BaZd1tk7m2R+bdF5uAWmYdbZC5ukfm4TebjNt34TebjNpmP23o+ri6btopVXDbNBEfeS8Vl00xw5KNAcdk0Exz5CFBcNs0ERx79BrJpRkBUHp2R3gxk04yAqJw6I7cZyKYZAVH5dUZiM5BNMxoZqTw7I6sZyKYZAVF5dkZKKy6btopjIJtmBCTvIgPZNCMgefAbyKYZAcmD30A2zQhIHvwmsmlmSGS+nZHZTGTTzJDI3DsjuZnIppkhkXl4Rn4zkU0zGyvJfDwjxZnIppkhkfl4RpaDbBpk0yCbtsYQsmmiQDYNsmmQTcsokE2DbJpWqyCbtmJf43rIpi0XyKY9lBJWaT0zdQHQAR3QAR3QAR3QAR3QAR3QAZ2Np/PMRAfABmzABmzABmzABmzABmzABmw2h813I3YAOqADOqADOqADOqADOqADOqBT3B5k0+YFsmkPsmnWZsim9TZANq1XmWxap22TqKaZ4HSJcHaJcHpEOHtEOPtEOAdEOIdEOCub7o2AqDzaonJpi8qnLSqntqi82qJya4vKry0qx7aoPNum8mybbKym8mybyrNtLc9Wl0dbgSqujmYAI+2h4tpoBjDSuC+ujGYAI4354rpoBjDSeDdQRTPBIfJjeRozkEQzwSFyZXkOM9BDM8Eh8mZ5AjMQQzMZB4n8WZ69DJTQTHCI/FmeuorLoK3AGKigmeBIu8dAA80ERxruBgpoJjjScDfQPzPBkYa7ifqZERCVR8szmIn0mREQlVPLk5iJ7pkREJVfy/OYieiZ0chI5dnyVGaieGYEROXZ8mwGuTPInUHubI0h5M5EgdwZ5M4gd5ZRIHcGuTOtVkHubMW+xvWQO1sukDt7KCWsrnpmqgCgAzqgAzqgAzqgAzqgAzqgAzobT+eZiQWADdiADdiADdiADdiADdiADdhsDpvvRqQAdEAHdEAHdEAHdEAHdEAHdECnuD3Inc0L5M4e5M7szZA729sAubO9CuXOOj0ivTMDoC4V0C4VUI8KaI8KaJ8K6IAK6JAK6Jvt9iZIZL5tkTm3RebdFpl7W2T+bZE5uEXm4RaZi1tkPm6T+bhNN36T+bhN5uO2no/ryKAtY5nooBXHkfeSiRJacRz5KGCihVYcRz4CmKihFceRR7+RHpoBEJVHZ6Q3I0k0AyAqp87IbUaqaAZAVH6dkdiMhNEMRkYqz87IakbaaAZAVJ6dkdJM5NGWcYz00QyA5F1kpJBmACQPfiONNAMgefAbqaQZAMmD30wnzQSJzLczMpuZVJoJEpl7ZyQ3M7U0EyQyD8/Ib2aCaSZjJZmPZ6Q4M800EyQyH8/IcpBNg2waZNPWGEI2TRTIpkE2DbJpGQWyaZBN02oVZNNW7GtcD9m05QLZtIdSwiqtZ6YuADqgAzqgAzqgAzqgAzqgAzqgs/F0npnoANiADdiADdiADdiADdiADdiAzeaw+W7EDkAHdEAHdEAHdEAHdEAHdEAHdIrbg2zavEA27UE2rbsZsmn7GyCbtl+ZbNpesim0qMQNFVCXCmiXCqhHBbRHBbRPBXRABXRIBbSy+94Micy3LTLntsi82yJzb4vMvy0yB7fIPNwic3GLzMdtMh+36cZvMh+3yXzc1vNxddm0VazismkmOPJeKi6bZoIjHwWKy6aZ4MhHgOKyaSY48ug3kE0zAqLy6Iz0ZiCbZgRE5dQZuc1ANs0IiMqvMxKbgWya0chI5dkZWc1ANs0IiMqzM1Jacdm0VRwD2TQjIHkXGcimGQHJg99ANs0ISB78BrJpRkDy4DeRTTNDIvPtjMxmIptmhkTm3hnJzUQ2zQyJzMMz8puJbJrZWEnm4xkpzkQ2zQyJzMczshxk0yCbBtm0NYaQTRMFsmmQTYNsWkaBbBpk07RaBdm0Ffsa10M2bblANu2hlLBK65mpC4AO6IAO6IAO6IAO6IAO6IAO6Gw8nWcmOgA2YAM2YAM2YAM2YAM2YAM2YLM5bL4bsQPQAR3QAR3QAR3QAR3QAR3QAZ3i9iCbNi+QTXuQTdvdDNm0gw2QTTuoTDat07ZJVNNMcLpEOLtEOD0inD0inH0inAMinEMinJVN90ZAVB5tUbm0ReXTFpVTW1RebVG5tUXl1xaVY1tUnm1TebZNNlZTebZN5dm2lmery6OtQBVXRzOAkfZQcW00Axhp3BdXRjOAkcZ8cV00AxhpvBuoopngEPmxPI0ZSKKZ4BC5sjyHGeihmeAQebM8gRmIoZmMg0T+LM9eBkpoJjhE/ixPXcVl0FZgDFTQTHCk3WOggWaCIw13AwU0ExxpuBvon5ngSMPdRP3MCIjKo+UZzET6zAiIyqnlScxE98wIiMqv5XnMRPTMaGSk8mx5KjNRPDMCovJseTaD3BnkziB3tsYQcmeiQO4McmeQO8sokDuD3JlWqyB3tmJf43rInS0XyJ09lBJWVz0zVQDQAR3QAR3QAR3QAR3QAR3QAZ2Np/PMxALABmzABmzABmzABmzABmzABmw2h813I1IAOqADOqADOqADOqADOqADOqBT3B7kzuYFcmcPcme9zZA7O9wAubPDCuXOOj0ivTMDoC4V0C4VUI8KaI8KaJ8K6IAK6JAK6Jvt9iZIZL5tkTm3RebdFpl7W2T+bZE5uEXm4RaZi1tkPm6T+bhNN36T+bhN5uO2no/ryKAtY5nooBXHkfeSiRJacRz5KGCihVYcRz4CmKihFceRR7+RHpoBEJVHZ6Q3I0k0AyAqp87IbUaqaAZAVH6dkdiMhNEMRkYqz87IakbaaAZAVJ6dkdJM5NGWcYz00QyA5F1kpJBmACQPfiONNAMgefAbqaQZAMmD30wnzQSJzLczMpuZVJoJEpl7ZyQ3M7U0EyQyD8/Ib2aCaSZjJZmPZ6Q4M800EyQyH8/IcpBNg2waZNPWGEI2TRTIpkE2DbJpGQWyaZBN02oVZNNW7GtcD9m05QLZtIdSwiqtZ6YuADqgAzqgAzqgAzqgAzqgAzqgs/F0npnoANiADdiADdiADdiADdiADdiAzeaw+W7EDkAHdEAHdEAHdEAHdEAHdEAHdIrbg2zavEA27UE2bW8jZNO6necvmxZzrEo2bS/ZFFpU4oYKqEsFtEsF1KMC2qMC2qcCOqACOqQCWtl9b4ZE5tsWmXNbZN5tkbm3RebfFpmDW2QebpG5uEXm4zaZj9t04zeZj9tkPm7r+bi6bNoqVnHZNBMceS8Vl00zwZGPAsVl00xw5CNAcdk0Exx59BvIphkBUXl0RnozkE0zAqJy6ozcZiCbZgRE5dcZic1ANs1oZKTy7IysZiCbZgRE5dkZKa24bNoqjoFsmhGQvIsMZNOMgOTBbyCbZgQkD34D2TQjIHnwm8immSGR+XZGZjORTTNDInPvjORmIptmhkTm4Rn5zUQ2zWysJPPxjBRnIptmhkTm4xlZDrJpkE2DbNoaQ8imiQLZNMimQTYto0A2DbJpWq2CbNqKfY3rIZu2XCCb9lBKWKX1zNQFQAd0QAd0QAd0QAd0QAd0QAd0Np7OMxMdABuwARuwARuwARuwARuwARuw2Rw2343YAeiADuiADuiADuiADuiADuiATnF7kE2bF8imPcim7W+GbJq1AbJpVmWyaZ22TaKaZoLTJcLZJcLpEeHsEeHsE+EcEOEcEuGsbLo3AqLyaIvKpS0qn7aonNqi8mqLyq0tKr+2qBzbovJsm8qzbbKxmsqzbSrPtrU8W10ebQWquDqaAYy0h4proxnASOO+uDKaAYw05ovrohnASOPdQBXNBIfIj+VpzEASzQSHyJXlOcxAD80Eh8ib5QnMQAzNZBwk8md59jJQQjPBIfJneeoqLoO2AmOggmaCI+0eAw00ExxpuBsooJngSMPdQP/MBEca7ibqZ0ZAVB4tz2Am0mdGQFROLU9iJrpnRkBUfi3PYyaiZ0YjI5Vny1OZieKZERCVZ8uzGeTOIHcGubM1hpA7EwVyZ5A7g9xZRoHcGeTOtFoFubMV+xrXQ+5suUDu7KGUsLrqmakCgA7ogA7ogA7ogA7ogA7ogA7obDydZyYWADZgAzZgAzZgAzZgAzZgAzZgszlsvhuRAtABHdABHdABHdABHdABHdABneL2IHc2L5A7W8iddTdD7czeALUzu0K1s06PSO7MAKhLBbRLBdSjAtqjAtqnAjqgAjqkAvpmt70JEplvW2TObZF5t0Xm3haZf1tkDm6RebhF5uIWmY/bZD5u043fZD5uk/m4refjOipoy1gmMmjFceS9ZCKEVhxHPgqYSKEVx5GPACZiaMVx5NFvJIdmAETl0RnpzUgRzQCIyqkzcpuRKJoBEJVfZyQ2I100g5GRyrMzspqRNJoBEJVnZ6Q0E3W0ZRwjeTQDIHkXGQmkGQDJg99IIs0ASB78RiJpBkDy4DeTSTNBIvPtjMxmppRmgkTm3hnJzUwszQSJzMMz8puZXprJWEnm4xkpzkwyzQSJzMczshxU06CaBtW0NYZQTRMFqmlQTYNqWkaBahpU07RaBdW0Ffsa10M1bblANe2hlLBI65mJC4AO6IAO6IAO6IAO6IAO6IAO6Gw8nWemOQA2YAM2YAM2YAM2YAM2YAM2YLM5bL4brQPQAR3QAR3QAR3QAR3QAR3QAZ3i9qCaNi9QTVuopu1uhmpadwNU07qVqabtJXtCiyrcUAF1qYB2qYB6VEB7VED7VEAHVECHVEArm+/NkMh82yJzbovMuy0y97bI/Nsic3CLzMMtMhe3yHzcJvNxm278JvNxm8zHbT0fV1dNW8UqrppmgiPvpeKqaSY48lGguGqaCY58BCiummaCI49+A9U0IyAqj85IbwaqaUZAVE6dkdsMVNOMgKj8OiOxGaimGY2MVJ6dkdUMVNOMgKg8OyOlFVdNW8UxUE0zApJ3kYFqmhGQPPgNVNOMgOTBb6CaZgQkD34T1TQzJDLfzshsJqppZkhk7p2R3ExU08yQyDw8I7+ZqKaZjZVkPp6R4kxU08yQyHw8I8tBNQ2qaVBNW2MI1TRRoJoG1TSopmUUqKZBNU2rVVBNW7GvcT1U05YLVNMeSgmLtJ6ZuADogA7ogA7ogA7ogA7ogA7ogM7G03lmmgNgAzZgAzZgAzZgAzZgAzZgAzabw+a70ToAHdABHdABHdABHdABHdABHdApbg+qafMC1bSFalpvM1TTdjdANW23MtW0TtsmEU0zwekS4ewS4fSIcPaIcPaJcA6IcA6JcFb23BsBUXm0ReXSFpVPW1RObVF5tUXl1haVX1tUjm1RebZN5dk22VhN5dk2lWfbWp6tro62AlVcHM0ARtpDxaXRDGCkcV9cGM0ARhrzxWXRDGCk8W4gimaCQ+TH8jRmoIhmgkPkyvIcZiCHZoJD5M3yBGaghWYyDhL5szx7GQihmeAQ+bM8dRVXQVuBMRBBM8GRdo+BBJoJjjTcDQTQTHCk4W4gf2aCIw13E/EzIyAqj5ZnMBPlMyMgKqeWJzET2TMjICq/lucxE80zo5GRyrPlqcxE8MwIiMqz5dkMamdQO4Pa2RpDqJ2JArUzqJ1B7SyjQO0MamdarYLa2Yp9jeuhdrZcoHb2UEpYXPXMRAFAB3RAB3RAB3RAB3RAB3RAB3Q2ns4z0woAG7ABG7ABG7ABG7ABG7ABG7DZHDbfjUYB6IAO6IAO6IAO6IAO6IAO6IBOcXtQO5sXqJ0t1M72NkPtrLcBame9CtXOOj0iuTMDoC4V0C4VUI8KaI8KaJ8K6IAK6JAK6Jvd9iZIZL5tkTm3RebdFpl7W2T+bZE5uEXm4RaZi1tkPm6T+bhNN36T+bhN5uO2no/rqKAtY5nIoBXHkfeSiRBacRz5KGAihVYcRz4CmIihFceRR7+RHJoBEJVHZ6Q3I0U0AyAqp87IbUaiaAZAVH6dkdiMdNEMRkYqz87IakbSaAZAVJ6dkdJM1NGWcYzk0QyA5F1kJJBmACQPfiOJNAMgefAbiaQZAMmD30wmzQSJzLczMpuZUpoJEpl7ZyQ3M7E0EyQyD8/Ib2Z6aSZjJZmPZ6Q4M8k0EyQyH8/IclBNg2oaVNPWGEI1TRSopkE1DappGQWqaVBN02oVVNNW7GtcD9W05QLVtIdSwiKtZyYuADqgAzqgAzqgAzqgAzqgAzqgs/F0npnmANiADdiADdiADdiADdiADdiAzeaw+W60DkAHdEAHdEAHdEAHdEAHdEAHdIrbg2ravEA1baGatr8Zqml7G6CatleZatpesie0qMINFVCXCmiXCqhHBbRHBbRPBXRABXRIBbSy+d4Micy3LTLntsi82yJzb4vMvy0yB7fIPNwic3GLzMdtMh+36cZvMh+3yXzc1vNxddW0VaziqmkmOPJeKq6aZoIjHwWKq6aZ4MhHgOKqaSY48ug3UE0zAqLy6Iz0ZqCaZgRE5dQZuc1ANc0IiMqvMxKbgWqa0chI5dkZWc1ANc0IiMqzM1JacdW0VRwD1TQjIHkXGaimGQHJg99ANc0ISB78BqppRkDy4DdRTTNDIvPtjMxmoppmhkTm3hnJzUQ1zQyJzMMz8puJaprZWEnm4xkpzkQ1zQyJzMczshxU06CaBtW0NYZQTRMFqmlQTYNqWkaBahpU07RaBdW0Ffsa10M1bblANe2hlLBI65mJC4AO6IAO6IAO6IAO6IAO6IAO6Gw8nWemOQA2YAM2YAM2YAM2YAM2YAM2YLM5bL4brQPQAR3QAR3QAR3QAR3QAR3QAZ3i9qCaNi9QTVuoph1shmra/gaopu1XpprWadskomkmOF0inF0inB4Rzh4Rzj4RzgERziERzsqeeyMgKo+2qFzaovJpi8qpLSqvtqjc2qLya4vKsS0qz7apPNsmG6upPNum8mxby7PV1dFWoIqLoxnASHuouDSaAYw07osLoxnASGO+uCyaAYw03g1E0UxwiPxYnsYMFNFMcIhcWZ7DDOTQTHCIvFmewAy00EzGQSJ/lmcvAyE0Exwif5anruIqaCswBiJoJjjS7jGQQDPBkYa7gQCaCY403A3kz0xwpOFuIn5mBETl0fIMZqJ8ZgRE5dTyJGYie2YEROXX8jxmonlmNDJSebY8lZkInhkBUXm2PJtB7QxqZ1A7W2MItTNRoHYGtTOonWUUqJ1B7UyrVVA7W7GvcT3UzpYL1M4eSgmLq56ZKADogA7ogA7ogA7ogA7ogA7ogM7G03lmWgFgAzZgAzZgAzZgAzZgAzZgAzabw+a70SgAHdABHdABHdABHdABHdABHdApbg9qZ/MCtbOF2tnhZqidHWyA2tlBZWpn1m6n3Vkq1i6J+BkhbLcc2N1yYHvlwO6VA7tfDuxBObCH5cCu7PWnxC0pzqySAs0qKdKskkLNKinWrJKCzSop2qySws0qKd7skuLNLiuvlRRvdknxZpvEm7qqXBZycZE5OlTV3i0uQUeHqjqSFReoo0NVHcWKy9fRoaqOYAbidoSw5USX8nTBQAmPELacAFOeKxjI5hHClhNjyhMFA409wqxQTpQpzxIMBPkIYcuJMuUpQnH1vixUAzE/QljVrjWQ+iOEVR3ADIQACWFVBzADmUBCWNUBzEREkBK3pDhTnimYKA5S4pYUasqTBRN5QkrckqJNeb5gomVImSdKijflKYOJ8CElbknxpjxrgEoiVBKhkrjGECqJokAlESqJUEnMKFBJhEqiVqugkrhiX+N6qCQuF6gkPpQSFmU+MzER0AEd0AEd0AEd0AEd0AEd0AGdjafzzDRGwAZswAZswAZswAZswAZswAZsNofNd6NtAjqgAzqgAzqgAzqgAzqgAzqgU9zeE6gkfuQ3Ex440TTgrPlqC6KJz0s0kQe3bp+zfzvC8974/oSJBybWOe92Xm2GgOLhBggoHlYmoLh32D5cKgeHJPqJdKjdUlB3S0HtlYK6VwrqfimoB6WgHpaCuiJvQAhbTnRZ5YSXVU58WeUEmFVOhFnlhJhVToxZ5QSZVU6U2eVEmV1SDisnyuxyosw2iDJ1ocQM4OI6iWSgij1bXCWRDFRx7CqukUgGqjhuFVdIJANVHLMM9BHpUEuJKdVpgYE4Ih1qKWGlOicwUEakQy0lslQnBAayiHQ5oJTYUp0NGGgi0qGWEluqU4HigogZoAZ6iHSoit1qoIZIh6o4ZBloIdKhKg5ZBkqIdKiKQ5aJDiIhbDnRpTojMBFBJIQtJ8BUJwUmCoiEsOXEmOq8wET+kDArlBNlqlMDE+1DQthyokx1dgDhQwgfQvhwjSGED0WB8CGEDyF8mFEgfAjhQ61WQfhwxb7G9RA+XC4QPnwoJayzfGb6IKADOqADOqADOqADOqADOqADOhtP55nJhoAN2IAN2IAN2IAN2IAN2IAN2GwOm+9GrgR0QAd0QAd0QAd0QAd0QAd0QKe4PQgfPl6+W+HDVPDwNU/+d3Jz6XIvSqUPz/sjPpjG/b/N9jdEAnG38/wlEGOOVUkgJhtPi0owEeF0iXB2iXB6RDh7RDj7RDgHRDiHRDgr2gJGQFQebVG5tEXl0xaVU1tUXm1RubVF5dcWlWNbVJ5tU3m2TTZWU3m2TeXZtpZnq0v2rUAVF+kzgJH2UHEhPgMYadwXF9szgJHGfHFBPQMYabwbiOaZ4BD5sTyNGUjhmeAQubI8hxkI3JngEHmzPIEZyNaZjINE/izPXgZidCY4RP4sT13FJeZWYAxE5UxwpN1jIBxngiMNdwNxOBMcabgbCMCZ4EjD3UTkzQiIyqPlGcxEus0IiMqp5UnMRJDNCIjKr+V5zERmzWhkpPJseSozEU8zAqLybHk2gyTaRkiioRrVqEY1qlGNalSjGtWoRjWqUY1qVKP6OVXP2v4tDwJ3wN864kWV1e5AEn+pJZDEfyiQxNcqkMSHJL5GgST+twWS+N8WSOJrFkjiQxL/0QJJfNABHdABHdABHdABHdABHdABHdDZBEFJsAEbsAEbsAEbsAEbsAEbsAGbzWHz3QhZgg7ogA7ogA7ogA7ogA7ogA7oFLf3BJL4v7o33Atd3xvzMIQg/vMSxPeDL+zs6srtu9zrzx5k8KsVwJ9f/U3N8r8Xf0///4A+/8vD/y79wUz8fxTdjH/+r/8PA77cYg=="
               },
               {
                  "name" : "annual_peak_electric_demand",
                  "units" : "kW",
                  "value" : 16.544689999999999
               },
               {
                  "name" : "first_year_capital_cost",
                  "units" : "$",
                  "value" : 0
               },
               {
                  "name" : "annual_utility_cost",
                  "units" : "$",
                  "value" : 9171.4300000000003
               },
               {
                  "name" : "total_lifecycle_cost",
                  "units" : "$",
                  "value" : 155821.39999999999
               }
            ],
            "step_warnings" : []
         }
      }
   ],
   "updated_at" : "20170710T183336Z",
   "weather_file" : "USA_CO_Denver.Intl.AP.725650_TMY3.epw"
}
