{
   "completed_at" : "20170710T191453Z",
   "completed_status" : "Success",
   "created_at" : "2017-07-10 19:07:42 +0000",
   "current_step" : 5,
   "description" : "",
   "eplusout_err" : "Program Version,EnergyPlus, Version 8.7.0-78a111df4a, YMD=2017.07.10 19:11,IDD_Version 8.7.0\n   ************* IDF Context for following error/warning message:\n   ************* Note -- lines truncated at 300 characters, if necessary...\n   *************      5 Building,\n   ************* indicated Name=NECB 2011-PrimarySchool-NECB HDD Method-CAN_BC_Victoria.717990_CWEC.epw created: 2017-07-10 19:07:49 +0000\n   ************* Only last 1 lines before error line shown.....\n   *************      6   NECB 2011-PrimarySchool-NECB HDD Method-CAN_BC_Victoria.717990_CWEC.epw created: 2017-07-10 19:07:49 +0000, !- Name\n   ** Warning ** IP: IDF line~6 Alpha Argument length exceeds maximum, will be truncated=  NECB 2011-PrimarySchool-NECB HDD Method-CAN_BC_Victoria.717990_CWEC.epw created: 2017-07-10 19:07:49 +000\n   **   ~~~   ** Will be processed as Alpha=NECB 2011-PRIMARYSCHOOL-NECB HDD METHOD-CAN_BC_VICTORIA.717990_CWEC.EPW CREATED: 2017-07-10 19:07:49 +0000\n   ************* IDF Context for following error/warning message:\n   ************* Note -- lines truncated at 300 characters, if necessary...\n   *************   1058 Schedule:Week:Daily,\n   ************* indicated Name=Schedule:Week:Daily {6f0dbeb7-c1b9-4436-aae0-73f2e75959b4}\n   ************* Only last 10 lines before error line shown.....\n   *************   1059   Schedule:Week:Daily {6f0dbeb7-c1b9-4436-aae0-73f2e75959b4}, !- Name\n   *************   1060   Sp-Cafeteria_ZN_1_FLR_1 Sys-3 Flr-1 Sch-C HPlcmt-north ZN NECB System 3 PSZ Occ Sch Sunday, !- Sunday Schedule:Day Name\n   *************   1061   Sp-Cafeteria_ZN_1_FLR_1 Sys-3 Flr-1 Sch-C HPlcmt-north ZN NECB System 3 PSZ Occ Sch Monday, !- Monday Schedule:Day Name\n   *************   1062   Sp-Cafeteria_ZN_1_FLR_1 Sys-3 Flr-1 Sch-C HPlcmt-north ZN NECB System 3 PSZ Occ Sch Tuesday, !- Tuesday Schedule:Day Name\n   *************   1063   Sp-Cafeteria_ZN_1_FLR_1 Sys-3 Flr-1 Sch-C HPlcmt-north ZN NECB System 3 PSZ Occ Sch Wednesday, !- Wednesday Schedule:Day Name\n   *************   1064   Sp-Cafeteria_ZN_1_FLR_1 Sys-3 Flr-1 Sch-C HPlcmt-north ZN NECB System 3 PSZ Occ Sch Thursday, !- Thursday Schedule:Day Name\n   *************   1065   Sp-Cafeteria_ZN_1_FLR_1 Sys-3 Flr-1 Sch-C HPlcmt-north ZN NECB System 3 PSZ Occ Sch Friday, !- Friday Schedule:Day Name\n   *************   1066   Sp-Cafeteria_ZN_1_FLR_1 Sys-3 Flr-1 Sch-C HPlcmt-north ZN NECB System 3 PSZ Occ Sch Saturday, !- Saturday Schedule:Day Name\n   *************   1067   Sp-Cafeteria_ZN_1_FLR_1 Sys-3 Flr-1 Sch-C HPlcmt-north ZN NECB System 3 PSZ Occ Sch Default, !- Holiday Schedule:Day Name\n   *************   1068   Sp-Cafeteria_ZN_1_FLR_1 Sys-3 Flr-1 Sch-C HPlcmt-north ZN NECB System 3 PSZ Occ Sch Summer Design Day, !- SummerDesignDay Schedule:Day Name\n   ** Warning ** IP: IDF line~1068 Alpha Argument length exceeds maximum, will be truncated=  Sp-Cafeteria_ZN_1_FLR_1 Sys-3 Flr-1 Sch-C HPlcmt-north ZN NECB System 3 PSZ Occ Sch Summer Design Da\n   **   ~~~   ** Will be processed as Alpha=SP-CAFETERIA_ZN_1_FLR_1 SYS-3 FLR-1 SCH-C HPLCMT-NORTH ZN NECB SYSTEM 3 PSZ OCC SCH SUMMER DESIGN DAY\n   ************* IDF Context for following error/warning message:\n   ************* Note -- lines truncated at 300 characters, if necessary...\n   *************   1058 Schedule:Week:Daily,\n   ************* indicated Name=Schedule:Week:Daily {6f0dbeb7-c1b9-4436-aae0-73f2e75959b4}\n   ************* Only last 10 lines before error line shown.....\n   *************   1060   Sp-Cafeteria_ZN_1_FLR_1 Sys-3 Flr-1 Sch-C HPlcmt-north ZN NECB System 3 PSZ Occ Sch Sunday, !- Sunday Schedule:Day Name\n   *************   1061   Sp-Cafeteria_ZN_1_FLR_1 Sys-3 Flr-1 Sch-C HPlcmt-north ZN NECB System 3 PSZ Occ Sch Monday, !- Monday Schedule:Day Name\n   *************   1062   Sp-Cafeteria_ZN_1_FLR_1 Sys-3 Flr-1 Sch-C HPlcmt-north ZN NECB System 3 PSZ Occ Sch Tuesday, !- Tuesday Schedule:Day Name\n   *************   1063   Sp-Cafeteria_ZN_1_FLR_1 Sys-3 Flr-1 Sch-C HPlcmt-north ZN NECB System 3 PSZ Occ Sch Wednesday, !- Wednesday Schedule:Day Name\n   *************   1064   Sp-Cafeteria_ZN_1_FLR_1 Sys-3 Flr-1 Sch-C HPlcmt-north ZN NECB System 3 PSZ Occ Sch Thursday, !- Thursday Schedule:Day Name\n   *************   1065   Sp-Cafeteria_ZN_1_FLR_1 Sys-3 Flr-1 Sch-C HPlcmt-north ZN NECB System 3 PSZ Occ Sch Friday, !- Friday Schedule:Day Name\n   *************   1066   Sp-Cafeteria_ZN_1_FLR_1 Sys-3 Flr-1 Sch-C HPlcmt-north ZN NECB System 3 PSZ Occ Sch Saturday, !- Saturday Schedule:Day Name\n   *************   1067   Sp-Cafeteria_ZN_1_FLR_1 Sys-3 Flr-1 Sch-C HPlcmt-north ZN NECB System 3 PSZ Occ Sch Default, !- Holiday Schedule:Day Name\n   *************   1068   Sp-Cafeteria_ZN_1_FLR_1 Sys-3 Flr-1 Sch-C HPlcmt-north ZN NECB System 3 PSZ Occ Sch Summer Design Day, !- SummerDesignDay Schedule:Day Name\n   *************   1069   Sp-Cafeteria_ZN_1_FLR_1 Sys-3 Flr-1 Sch-C HPlcmt-north ZN NECB System 3 PSZ Occ Sch Winter Design Day, !- WinterDesignDay Schedule:Day Name\n   ** Warning ** IP: IDF line~1069 Alpha Argument length exceeds maximum, will be truncated=  Sp-Cafeteria_ZN_1_FLR_1 Sys-3 Flr-1 Sch-C HPlcmt-north ZN NECB System 3 PSZ Occ Sch Winter Design Da\n   **   ~~~   ** Will be processed as Alpha=SP-CAFETERIA_ZN_1_FLR_1 SYS-3 FLR-1 SCH-C HPLCMT-NORTH ZN NECB SYSTEM 3 PSZ OCC SCH WINTER DESIGN DAY\n   ************* IDF Context for following error/warning message:\n   ************* Note -- lines truncated at 300 characters, if necessary...\n   *************   1089 Schedule:Day:Interval,\n   ************* indicated Name=Sp-Cafeteria_ZN_1_FLR_1 Sys-3 Flr-1 Sch-C HPlcmt-north ZN NECB System 3 PSZ Occ Sch Summer Design Day\n   ************* Only last 1 lines before error line shown.....\n   *************   1090   Sp-Cafeteria_ZN_1_FLR_1 Sys-3 Flr-1 Sch-C HPlcmt-north ZN NECB System 3 PSZ Occ Sch Summer Design Day, !- Name\n   ** Warning ** IP: IDF line~1090 Alpha Argument length exceeds maximum, will be truncated=  Sp-Cafeteria_ZN_1_FLR_1 Sys-3 Flr-1 Sch-C HPlcmt-north ZN NECB System 3 PSZ Occ Sch Summer Design Da\n   **   ~~~   ** Will be processed as Alpha=SP-CAFETERIA_ZN_1_FLR_1 SYS-3 FLR-1 SCH-C HPLCMT-NORTH ZN NECB SYSTEM 3 PSZ OCC SCH SUMMER DESIGN DAY\n   ************* IDF Context for following error/warning message:\n   ************* Note -- lines truncated at 300 characters, if necessary...\n   *************   1096 Schedule:Day:Interval,\n   ************* indicated Name=Sp-Cafeteria_ZN_1_FLR_1 Sys-3 Flr-1 Sch-C HPlcmt-north ZN NECB System 3 PSZ Occ Sch Winter Design Day\n   ************* Only last 1 lines before error line shown.....\n   *************   1097   Sp-Cafeteria_ZN_1_FLR_1 Sys-3 Flr-1 Sch-C HPlcmt-north ZN NECB System 3 PSZ Occ Sch Winter Design Day, !- Name\n   ** Warning ** IP: IDF line~1097 Alpha Argument length exceeds maximum, will be truncated=  Sp-Cafeteria_ZN_1_FLR_1 Sys-3 Flr-1 Sch-C HPlcmt-north ZN NECB System 3 PSZ Occ Sch Winter Design Da\n   **   ~~~   ** Will be processed as Alpha=SP-CAFETERIA_ZN_1_FLR_1 SYS-3 FLR-1 SCH-C HPLCMT-NORTH ZN NECB SYSTEM 3 PSZ OCC SCH WINTER DESIGN DAY\n   ************* IDF Context for following error/warning message:\n   ************* Note -- lines truncated at 300 characters, if necessary...\n   *************   1450 Schedule:Week:Daily,\n   ************* indicated Name=Schedule:Week:Daily {28c2f1e5-35e0-43da-bb8e-43ff69ca9f59}\n   ************* Only last 10 lines before error line shown.....\n   *************   1451   Schedule:Week:Daily {28c2f1e5-35e0-43da-bb8e-43ff69ca9f59}, !- Name\n   *************   1452   Sp-Computer_Class_ZN_1_FLR_1 Sys-3 Flr-1 Sch-D HPlcmt-north ZN NECB System 3 PSZ Occ Sch Sunday, !- Sunday Schedule:Day Name\n   *************   1453   Sp-Computer_Class_ZN_1_FLR_1 Sys-3 Flr-1 Sch-D HPlcmt-north ZN NECB System 3 PSZ Occ Sch Monday, !- Monday Schedule:Day Name\n   *************   1454   Sp-Computer_Class_ZN_1_FLR_1 Sys-3 Flr-1 Sch-D HPlcmt-north ZN NECB System 3 PSZ Occ Sch Tuesday, !- Tuesday Schedule:Day Name\n   *************   1455   Sp-Computer_Class_ZN_1_FLR_1 Sys-3 Flr-1 Sch-D HPlcmt-north ZN NECB System 3 PSZ Occ Sch Wednesday, !- Wednesday Schedule:Day Name\n   *************   1456   Sp-Computer_Class_ZN_1_FLR_1 Sys-3 Flr-1 Sch-D HPlcmt-north ZN NECB System 3 PSZ Occ Sch Thursday, !- Thursday Schedule:Day Name\n   *************   1457   Sp-Computer_Class_ZN_1_FLR_1 Sys-3 Flr-1 Sch-D HPlcmt-north ZN NECB System 3 PSZ Occ Sch Friday, !- Friday Schedule:Day Name\n   *************   1458   Sp-Computer_Class_ZN_1_FLR_1 Sys-3 Flr-1 Sch-D HPlcmt-north ZN NECB System 3 PSZ Occ Sch Saturday, !- Saturday Schedule:Day Name\n   *************   1459   Sp-Computer_Class_ZN_1_FLR_1 Sys-3 Flr-1 Sch-D HPlcmt-north ZN NECB System 3 PSZ Occ Sch Default, !- Holiday Schedule:Day Name\n   *************   1460   Sp-Computer_Class_ZN_1_FLR_1 Sys-3 Flr-1 Sch-D HPlcmt-north ZN NECB System 3 PSZ Occ Sch Summer Design Day, !- SummerDesignDay Schedule:Day Name\n   ** Warning ** IP: IDF line~1460 Alpha Argument length exceeds maximum, will be truncated=  Sp-Computer_Class_ZN_1_FLR_1 Sys-3 Flr-1 Sch-D HPlcmt-north ZN NECB System 3 PSZ Occ Sch Summer Design Da\n   **   ~~~   ** Will be processed as Alpha=SP-COMPUTER_CLASS_ZN_1_FLR_1 SYS-3 FLR-1 SCH-D HPLCMT-NORTH ZN NECB SYSTEM 3 PSZ OCC SCH SUMMER DESIGN DAY\n   ************* IDF Context for following error/warning message:\n   ************* Note -- lines truncated at 300 characters, if necessary...\n   *************   1450 Schedule:Week:Daily,\n   ************* indicated Name=Schedule:Week:Daily {28c2f1e5-35e0-43da-bb8e-43ff69ca9f59}\n   ************* Only last 10 lines before error line shown.....\n   *************   1452   Sp-Computer_Class_ZN_1_FLR_1 Sys-3 Flr-1 Sch-D HPlcmt-north ZN NECB System 3 PSZ Occ Sch Sunday, !- Sunday Schedule:Day Name\n   *************   1453   Sp-Computer_Class_ZN_1_FLR_1 Sys-3 Flr-1 Sch-D HPlcmt-north ZN NECB System 3 PSZ Occ Sch Monday, !- Monday Schedule:Day Name\n   *************   1454   Sp-Computer_Class_ZN_1_FLR_1 Sys-3 Flr-1 Sch-D HPlcmt-north ZN NECB System 3 PSZ Occ Sch Tuesday, !- Tuesday Schedule:Day Name\n   *************   1455   Sp-Computer_Class_ZN_1_FLR_1 Sys-3 Flr-1 Sch-D HPlcmt-north ZN NECB System 3 PSZ Occ Sch Wednesday, !- Wednesday Schedule:Day Name\n   *************   1456   Sp-Computer_Class_ZN_1_FLR_1 Sys-3 Flr-1 Sch-D HPlcmt-north ZN NECB System 3 PSZ Occ Sch Thursday, !- Thursday Schedule:Day Name\n   *************   1457   Sp-Computer_Class_ZN_1_FLR_1 Sys-3 Flr-1 Sch-D HPlcmt-north ZN NECB System 3 PSZ Occ Sch Friday, !- Friday Schedule:Day Name\n   *************   1458   Sp-Computer_Class_ZN_1_FLR_1 Sys-3 Flr-1 Sch-D HPlcmt-north ZN NECB System 3 PSZ Occ Sch Saturday, !- Saturday Schedule:Day Name\n   *************   1459   Sp-Computer_Class_ZN_1_FLR_1 Sys-3 Flr-1 Sch-D HPlcmt-north ZN NECB System 3 PSZ Occ Sch Default, !- Holiday Schedule:Day Name\n   *************   1460   Sp-Computer_Class_ZN_1_FLR_1 Sys-3 Flr-1 Sch-D HPlcmt-north ZN NECB System 3 PSZ Occ Sch Summer Design Day, !- SummerDesignDay Schedule:Day Name\n   *************   1461   Sp-Computer_Class_ZN_1_FLR_1 Sys-3 Flr-1 Sch-D HPlcmt-north ZN NECB System 3 PSZ Occ Sch Winter Design Day, !- WinterDesignDay Schedule:Day Name\n   ** Warning ** IP: IDF line~1461 Alpha Argument length exceeds maximum, will be truncated=  Sp-Computer_Class_ZN_1_FLR_1 Sys-3 Flr-1 Sch-D HPlcmt-north ZN NECB System 3 PSZ Occ Sch Winter Design Da\n   **   ~~~   ** Will be processed as Alpha=SP-COMPUTER_CLASS_ZN_1_FLR_1 SYS-3 FLR-1 SCH-D HPLCMT-NORTH ZN NECB SYSTEM 3 PSZ OCC SCH WINTER DESIGN DAY\n   ************* IDF Context for following error/warning message:\n   ************* Note -- lines truncated at 300 characters, if necessary...\n   *************   1481 Schedule:Day:Interval,\n   ************* indicated Name=Sp-Computer_Class_ZN_1_FLR_1 Sys-3 Flr-1 Sch-D HPlcmt-north ZN NECB System 3 PSZ Occ Sch Summer Design Day\n   ************* Only last 1 lines before error line shown.....\n   *************   1482   Sp-Computer_Class_ZN_1_FLR_1 Sys-3 Flr-1 Sch-D HPlcmt-north ZN NECB System 3 PSZ Occ Sch Summer Design Day, !- Name\n   ** Warning ** IP: IDF line~1482 Alpha Argument length exceeds maximum, will be truncated=  Sp-Computer_Class_ZN_1_FLR_1 Sys-3 Flr-1 Sch-D HPlcmt-north ZN NECB System 3 PSZ Occ Sch Summer Design Da\n   **   ~~~   ** Will be processed as Alpha=SP-COMPUTER_CLASS_ZN_1_FLR_1 SYS-3 FLR-1 SCH-D HPLCMT-NORTH ZN NECB SYSTEM 3 PSZ OCC SCH SUMMER DESIGN DAY\n   ************* IDF Context for following error/warning message:\n   ************* Note -- lines truncated at 300 characters, if necessary...\n   *************   1488 Schedule:Day:Interval,\n   ************* indicated Name=Sp-Computer_Class_ZN_1_FLR_1 Sys-3 Flr-1 Sch-D HPlcmt-north ZN NECB System 3 PSZ Occ Sch Winter Design Day\n   ************* Only last 1 lines before error line shown.....\n   *************   1489   Sp-Computer_Class_ZN_1_FLR_1 Sys-3 Flr-1 Sch-D HPlcmt-north ZN NECB System 3 PSZ Occ Sch Winter Design Day, !- Name\n   ** Warning ** IP: IDF line~1489 Alpha Argument length exceeds maximum, will be truncated=  Sp-Computer_Class_ZN_1_FLR_1 Sys-3 Flr-1 Sch-D HPlcmt-north ZN NECB System 3 PSZ Occ Sch Winter Design Da\n   **   ~~~   ** Will be processed as Alpha=SP-COMPUTER_CLASS_ZN_1_FLR_1 SYS-3 FLR-1 SCH-D HPLCMT-NORTH ZN NECB SYSTEM 3 PSZ OCC SCH WINTER DESIGN DAY\n   ************* IDF Context for following error/warning message:\n   ************* Note -- lines truncated at 300 characters, if necessary...\n   *************   1769 Schedule:Day:Interval,\n   ************* indicated Name=Sp-Corner_Class_1_Pod_1_ZN_1_FLR_1 Sys-3 Flr-1 Sch-D HPlcmt-south ZN NECB System 3 PSZ Occ Sch Sunday\n   ************* Only last 1 lines before error line shown.....\n   *************   1770   Sp-Corner_Class_1_Pod_1_ZN_1_FLR_1 Sys-3 Flr-1 Sch-D HPlcmt-south ZN NECB System 3 PSZ Occ Sch Sunday, !- Name\n   ** Warning ** IP: IDF line~1770 Alpha Argument length exceeds maximum, will be truncated=  Sp-Corner_Class_1_Pod_1_ZN_1_FLR_1 Sys-3 Flr-1 Sch-D HPlcmt-south ZN NECB System 3 PSZ Occ Sch Sunda\n   **   ~~~   ** Will be processed as Alpha=SP-CORNER_CLASS_1_POD_1_ZN_1_FLR_1 SYS-3 FLR-1 SCH-D HPLCMT-SOUTH ZN NECB SYSTEM 3 PSZ OCC SCH SUNDAY\n   ************* IDF Context for following error/warning message:\n   ************* Note -- lines truncated at 300 characters, if necessary...\n   *************   1776 Schedule:Day:Interval,\n   ************* indicated Name=Sp-Corner_Class_1_Pod_1_ZN_1_FLR_1 Sys-3 Flr-1 Sch-D HPlcmt-south ZN NECB System 3 PSZ Occ Sch Monday\n   ************* Only last 1 lines before error line shown.....\n   *************   1777   Sp-Corner_Class_1_Pod_1_ZN_1_FLR_1 Sys-3 Flr-1 Sch-D HPlcmt-south ZN NECB System 3 PSZ Occ Sch Monday, !- Name\n   ** Warning ** IP: IDF line~1777 Alpha Argument length exceeds maximum, will be truncated=  Sp-Corner_Class_1_Pod_1_ZN_1_FLR_1 Sys-3 Flr-1 Sch-D HPlcmt-south ZN NECB System 3 PSZ Occ Sch Monda\n   **   ~~~   ** Will be processed as Alpha=SP-CORNER_CLASS_1_POD_1_ZN_1_FLR_1 SYS-3 FLR-1 SCH-D HPLCMT-SOUTH ZN NECB SYSTEM 3 PSZ OCC SCH MONDAY\n   ************* IDF Context for following error/warning message:\n   ************* Note -- lines truncated at 300 characters, if necessary...\n   *************   1791 Schedule:Day:Interval,\n   ************* indicated Name=Sp-Corner_Class_1_Pod_1_ZN_1_FLR_1 Sys-3 Flr-1 Sch-D HPlcmt-south ZN NECB System 3 PSZ Occ Sch Tuesday\n   ************* Only last 1 lines before error line shown.....\n   *************   1792   Sp-Corner_Class_1_Pod_1_ZN_1_FLR_1 Sys-3 Flr-1 Sch-D HPlcmt-south ZN NECB System 3 PSZ Occ Sch Tuesday, !- Name\n   ** Warning ** IP: IDF line~1792 Alpha Argument length exceeds maximum, will be truncated=  Sp-Corner_Class_1_Pod_1_ZN_1_FLR_1 Sys-3 Flr-1 Sch-D HPlcmt-south ZN NECB System 3 PSZ Occ Sch Tuesda\n   **   ~~~   ** Will be processed as Alpha=SP-CORNER_CLASS_1_POD_1_ZN_1_FLR_1 SYS-3 FLR-1 SCH-D HPLCMT-SOUTH ZN NECB SYSTEM 3 PSZ OCC SCH TUESDAY\n   ************* IDF Context for following error/warning message:\n   ************* Note -- lines truncated at 300 characters, if necessary...\n   *************   1806 Schedule:Day:Interval,\n   ************* indicated Name=Sp-Corner_Class_1_Pod_1_ZN_1_FLR_1 Sys-3 Flr-1 Sch-D HPlcmt-south ZN NECB System 3 PSZ Occ Sch Wednesday\n   ************* Only last 1 lines before error line shown.....\n   *************   1807   Sp-Corner_Class_1_Pod_1_ZN_1_FLR_1 Sys-3 Flr-1 Sch-D HPlcmt-south ZN NECB System 3 PSZ Occ Sch Wednesday, !- Name\n   ** Warning ** IP: IDF line~1807 Alpha Argument length exceeds maximum, will be truncated=  Sp-Corner_Class_1_Pod_1_ZN_1_FLR_1 Sys-3 Flr-1 Sch-D HPlcmt-south ZN NECB System 3 PSZ Occ Sch Wednesda\n   **   ~~~   ** Will be processed as Alpha=SP-CORNER_CLASS_1_POD_1_ZN_1_FLR_1 SYS-3 FLR-1 SCH-D HPLCMT-SOUTH ZN NECB SYSTEM 3 PSZ OCC SCH WEDNESDAY\n   ************* IDF Context for following error/warning message:\n   ************* Note -- lines truncated at 300 characters, if necessary...\n   *************   1821 Schedule:Day:Interval,\n   ************* indicated Name=Sp-Corner_Class_1_Pod_1_ZN_1_FLR_1 Sys-3 Flr-1 Sch-D HPlcmt-south ZN NECB System 3 PSZ Occ Sch Thursday\n   ************* Only last 1 lines before error line shown.....\n   *************   1822   Sp-Corner_Class_1_Pod_1_ZN_1_FLR_1 Sys-3 Flr-1 Sch-D HPlcmt-south ZN NECB System 3 PSZ Occ Sch Thursday, !- Name\n   ** Warning ** IP: IDF line~1822 Alpha Argument length exceeds maximum, will be truncated=  Sp-Corner_Class_1_Pod_1_ZN_1_FLR_1 Sys-3 Flr-1 Sch-D HPlcmt-south ZN NECB System 3 PSZ Occ Sch Thursda\n   **   ~~~   ** Will be processed as Alpha=SP-CORNER_CLASS_1_POD_1_ZN_1_FLR_1 SYS-3 FLR-1 SCH-D HPLCMT-SOUTH ZN NECB SYSTEM 3 PSZ OCC SCH THURSDAY\n   ************* IDF Context for following error/warning message:\n   ************* Note -- lines truncated at 300 characters, if necessary...\n   *************   1836 Schedule:Day:Interval,\n   ************* indicated Name=Sp-Corner_Class_1_Pod_1_ZN_1_FLR_1 Sys-3 Flr-1 Sch-D HPlcmt-south ZN NECB System 3 PSZ Occ Sch Friday\n   ************* Only last 1 lines before error line shown.....\n   *************   1837   Sp-Corner_Class_1_Pod_1_ZN_1_FLR_1 Sys-3 Flr-1 Sch-D HPlcmt-south ZN NECB System 3 PSZ Occ Sch Friday, !- Name\n   ** Warning ** IP: IDF line~1837 Alpha Argument length exceeds maximum, will be truncated=  Sp-Corner_Class_1_Pod_1_ZN_1_FLR_1 Sys-3 Flr-1 Sch-D HPlcmt-south ZN NECB System 3 PSZ Occ Sch Frida\n   **   ~~~   ** Will be processed as Alpha=SP-CORNER_CLASS_1_POD_1_ZN_1_FLR_1 SYS-3 FLR-1 SCH-D HPLCMT-SOUTH ZN NECB SYSTEM 3 PSZ OCC SCH FRIDAY\n   ************* IDF Context for following error/warning message:\n   ************* Note -- lines truncated at 300 characters, if necessary...\n   *************   1851 Schedule:Day:Interval,\n   ************* indicated Name=Sp-Corner_Class_1_Pod_1_ZN_1_FLR_1 Sys-3 Flr-1 Sch-D HPlcmt-south ZN NECB System 3 PSZ Occ Sch Saturday\n   ************* Only last 1 lines before error line shown.....\n   *************   1852   Sp-Corner_Class_1_Pod_1_ZN_1_FLR_1 Sys-3 Flr-1 Sch-D HPlcmt-south ZN NECB System 3 PSZ Occ Sch Saturday, !- Name\n   ** Warning ** IP: IDF line~1852 Alpha Argument length exceeds maximum, will be truncated=  Sp-Corner_Class_1_Pod_1_ZN_1_FLR_1 Sys-3 Flr-1 Sch-D HPlcmt-south ZN NECB System 3 PSZ Occ Sch Saturda\n   **   ~~~   ** Will be processed as Alpha=SP-CORNER_CLASS_1_POD_1_ZN_1_FLR_1 SYS-3 FLR-1 SCH-D HPLCMT-SOUTH ZN NECB SYSTEM 3 PSZ OCC SCH SATURDAY\n   ************* IDF Context for following error/warning message:\n   ************* Note -- lines truncated at 300 characters, if necessary...\n   *************   1858 Schedule:Week:Daily,\n   ************* indicated Name=Schedule:Week:Daily {c63e990a-5a7b-4524-a46f-ac306c824142}\n   ************* Only last 2 lines before error line shown.....\n   *************   1859   Schedule:Week:Daily {c63e990a-5a7b-4524-a46f-ac306c824142}, !- Name\n   *************   1860   Sp-Corner_Class_1_Pod_1_ZN_1_FLR_1 Sys-3 Flr-1 Sch-D HPlcmt-south ZN NECB System 3 PSZ Occ Sch Sunday, !- Sunday Schedule:Day Name\n   ** Warning ** IP: IDF line~1860 Alpha Argument length exceeds maximum, will be truncated=  Sp-Corner_Class_1_Pod_1_ZN_1_FLR_1 Sys-3 Flr-1 Sch-D HPlcmt-south ZN NECB System 3 PSZ Occ Sch Sunda\n   **   ~~~   ** Will be processed as Alpha=SP-CORNER_CLASS_1_POD_1_ZN_1_FLR_1 SYS-3 FLR-1 SCH-D HPLCMT-SOUTH ZN NECB SYSTEM 3 PSZ OCC SCH SUNDAY\n   ************* IDF Context for following error/warning message:\n   ************* Note -- lines truncated at 300 characters, if necessary...\n   *************   1858 Schedule:Week:Daily,\n   ************* indicated Name=Schedule:Week:Daily {c63e990a-5a7b-4524-a46f-ac306c824142}\n   ************* Only last 3 lines before error line shown.....\n   *************   1859   Schedule:Week:Daily {c63e990a-5a7b-4524-a46f-ac306c824142}, !- Name\n   *************   1860   Sp-Corner_Class_1_Pod_1_ZN_1_FLR_1 Sys-3 Flr-1 Sch-D HPlcmt-south ZN NECB System 3 PSZ Occ Sch Sunday, !- Sunday Schedule:Day Name\n   *************   1861   Sp-Corner_Class_1_Pod_1_ZN_1_FLR_1 Sys-3 Flr-1 Sch-D HPlcmt-south ZN NECB System 3 PSZ Occ Sch Monday, !- Monday Schedule:Day Name\n   ** Warning ** IP: IDF line~1861 Alpha Argument length exceeds maximum, will be truncated=  Sp-Corner_Class_1_Pod_1_ZN_1_FLR_1 Sys-3 Flr-1 Sch-D HPlcmt-south ZN NECB System 3 PSZ Occ Sch Monda\n   **   ~~~   ** Will be processed as Alpha=SP-CORNER_CLASS_1_POD_1_ZN_1_FLR_1 SYS-3 FLR-1 SCH-D HPLCMT-SOUTH ZN NECB SYSTEM 3 PSZ OCC SCH MONDAY\n   ************* IDF Context for following error/warning message:\n   ************* Note -- lines truncated at 300 characters, if necessary...\n   *************   1858 Schedule:Week:Daily,\n   ************* indicated Name=Schedule:Week:Daily {c63e990a-5a7b-4524-a46f-ac306c824142}\n   ************* Only last 4 lines before error line shown.....\n   *************   1859   Schedule:Week:Daily {c63e990a-5a7b-4524-a46f-ac306c824142}, !- Name\n   *************   1860   Sp-Corner_Class_1_Pod_1_ZN_1_FLR_1 Sys-3 Flr-1 Sch-D HPlcmt-south ZN NECB System 3 PSZ Occ Sch Sunday, !- Sunday Schedule:Day Name\n   *************   1861   Sp-Corner_Class_1_Pod_1_ZN_1_FLR_1 Sys-3 Flr-1 Sch-D HPlcmt-south ZN NECB System 3 PSZ Occ Sch Monday, !- Monday Schedule:Day Name\n   *************   1862   Sp-Corner_Class_1_Pod_1_ZN_1_FLR_1 Sys-3 Flr-1 Sch-D HPlcmt-south ZN NECB System 3 PSZ Occ Sch Tuesday, !- Tuesday Schedule:Day Name\n   ** Warning ** IP: IDF line~1862 Alpha Argument length exceeds maximum, will be truncated=  Sp-Corner_Class_1_Pod_1_ZN_1_FLR_1 Sys-3 Flr-1 Sch-D HPlcmt-south ZN NECB System 3 PSZ Occ Sch Tuesda\n   **   ~~~   ** Will be processed as Alpha=SP-CORNER_CLASS_1_POD_1_ZN_1_FLR_1 SYS-3 FLR-1 SCH-D HPLCMT-SOUTH ZN NECB SYSTEM 3 PSZ OCC SCH TUESDAY\n   ************* IDF Context for following error/warning message:\n   ************* Note -- lines truncated at 300 characters, if necessary...\n   *************   1858 Schedule:Week:Daily,\n   ************* indicated Name=Schedule:Week:Daily {c63e990a-5a7b-4524-a46f-ac306c824142}\n   ************* Only last 5 lines before error line shown.....\n   *************   1859   Schedule:Week:Daily {c63e990a-5a7b-4524-a46f-ac306c824142}, !- Name\n   *************   1860   Sp-Corner_Class_1_Pod_1_ZN_1_FLR_1 Sys-3 Flr-1 Sch-D HPlcmt-south ZN NECB System 3 PSZ Occ Sch Sunday, !- Sunday Schedule:Day Name\n   *************   1861   Sp-Corner_Class_1_Pod_1_ZN_1_FLR_1 Sys-3 Flr-1 Sch-D HPlcmt-south ZN NECB System 3 PSZ Occ Sch Monday, !- Monday Schedule:Day Name\n   *************   1862   Sp-Corner_Class_1_Pod_1_ZN_1_FLR_1 Sys-3 Flr-1 Sch-D HPlcmt-south ZN NECB System 3 PSZ Occ Sch Tuesday, !- Tuesday Schedule:Day Name\n   *************   1863   Sp-Corner_Class_1_Pod_1_ZN_1_FLR_1 Sys-3 Flr-1 Sch-D HPlcmt-south ZN NECB System 3 PSZ Occ Sch Wednesday, !- Wednesday Schedule:Day Name\n   ** Warning ** IP: IDF line~1863 Alpha Argument length exceeds maximum, will be truncated=  Sp-Corner_Class_1_Pod_1_ZN_1_FLR_1 Sys-3 Flr-1 Sch-D HPlcmt-south ZN NECB System 3 PSZ Occ Sch Wednesda\n   **   ~~~   ** Will be processed as Alpha=SP-CORNER_CLASS_1_POD_1_ZN_1_FLR_1 SYS-3 FLR-1 SCH-D HPLCMT-SOUTH ZN NECB SYSTEM 3 PSZ OCC SCH WEDNESDAY\n   ************* IDF Context for following error/warning message:\n   ************* Note -- lines truncated at 300 characters, if necessary...\n   *************   1858 Schedule:Week:Daily,\n   ************* indicated Name=Schedule:Week:Daily {c63e990a-5a7b-4524-a46f-ac306c824142}\n   ************* Only last 6 lines before error line shown.....\n   *************   1859   Schedule:Week:Daily {c63e990a-5a7b-4524-a46f-ac306c824142}, !- Name\n   *************   1860   Sp-Corner_Class_1_Pod_1_ZN_1_FLR_1 Sys-3 Flr-1 Sch-D HPlcmt-south ZN NECB System 3 PSZ Occ Sch Sunday, !- Sunday Schedule:Day Name\n   *************   1861   Sp-Corner_Class_1_Pod_1_ZN_1_FLR_1 Sys-3 Flr-1 Sch-D HPlcmt-south ZN NECB System 3 PSZ Occ Sch Monday, !- Monday Schedule:Day Name\n   *************   1862   Sp-Corner_Class_1_Pod_1_ZN_1_FLR_1 Sys-3 Flr-1 Sch-D HPlcmt-south ZN NECB System 3 PSZ Occ Sch Tuesday, !- Tuesday Schedule:Day Name\n   *************   1863   Sp-Corner_Class_1_Pod_1_ZN_1_FLR_1 Sys-3 Flr-1 Sch-D HPlcmt-south ZN NECB System 3 PSZ Occ Sch Wednesday, !- Wednesday Schedule:Day Name\n   *************   1864   Sp-Corner_Class_1_Pod_1_ZN_1_FLR_1 Sys-3 Flr-1 Sch-D HPlcmt-south ZN NECB System 3 PSZ Occ Sch Thursday, !- Thursday Schedule:Day Name\n   ** Warning ** IP: IDF line~1864 Alpha Argument length exceeds maximum, will be truncated=  Sp-Corner_Class_1_Pod_1_ZN_1_FLR_1 Sys-3 Flr-1 Sch-D HPlcmt-south ZN NECB System 3 PSZ Occ Sch Thursda\n   **   ~~~   ** Will be processed as Alpha=SP-CORNER_CLASS_1_POD_1_ZN_1_FLR_1 SYS-3 FLR-1 SCH-D HPLCMT-SOUTH ZN NECB SYSTEM 3 PSZ OCC SCH THURSDAY\n   ************* IDF Context for following error/warning message:\n   ************* Note -- lines truncated at 300 characters, if necessary...\n   *************   1858 Schedule:Week:Daily,\n   ************* indicated Name=Schedule:Week:Daily {c63e990a-5a7b-4524-a46f-ac306c824142}\n   ************* Only last 7 lines before error line shown.....\n   *************   1859   Schedule:Week:Daily {c63e990a-5a7b-4524-a46f-ac306c824142}, !- Name\n   *************   1860   Sp-Corner_Class_1_Pod_1_ZN_1_FLR_1 Sys-3 Flr-1 Sch-D HPlcmt-south ZN NECB System 3 PSZ Occ Sch Sunday, !- Sunday Schedule:Day Name\n   *************   1861   Sp-Corner_Class_1_Pod_1_ZN_1_FLR_1 Sys-3 Flr-1 Sch-D HPlcmt-south ZN NECB System 3 PSZ Occ Sch Monday, !- Monday Schedule:Day Name\n   *************   1862   Sp-Corner_Class_1_Pod_1_ZN_1_FLR_1 Sys-3 Flr-1 Sch-D HPlcmt-south ZN NECB System 3 PSZ Occ Sch Tuesday, !- Tuesday Schedule:Day Name\n   *************   1863   Sp-Corner_Class_1_Pod_1_ZN_1_FLR_1 Sys-3 Flr-1 Sch-D HPlcmt-south ZN NECB System 3 PSZ Occ Sch Wednesday, !- Wednesday Schedule:Day Name\n   *************   1864   Sp-Corner_Class_1_Pod_1_ZN_1_FLR_1 Sys-3 Flr-1 Sch-D HPlcmt-south ZN NECB System 3 PSZ Occ Sch Thursday, !- Thursday Schedule:Day Name\n   *************   1865   Sp-Corner_Class_1_Pod_1_ZN_1_FLR_1 Sys-3 Flr-1 Sch-D HPlcmt-south ZN NECB System 3 PSZ Occ Sch Friday, !- Friday Schedule:Day Name\n   ** Warning ** IP: IDF line~1865 Alpha Argument length exceeds maximum, will be truncated=  Sp-Corner_Class_1_Pod_1_ZN_1_FLR_1 Sys-3 Flr-1 Sch-D HPlcmt-south ZN NECB System 3 PSZ Occ Sch Frida\n   **   ~~~   ** Will be processed as Alpha=SP-CORNER_CLASS_1_POD_1_ZN_1_FLR_1 SYS-3 FLR-1 SCH-D HPLCMT-SOUTH ZN NECB SYSTEM 3 PSZ OCC SCH FRIDAY\n   ************* IDF Context for following error/warning message:\n   ************* Note -- lines truncated at 300 characters, if necessary...\n   *************   1858 Schedule:Week:Daily,\n   ************* indicated Name=Schedule:Week:Daily {c63e990a-5a7b-4524-a46f-ac306c824142}\n   ************* Only last 8 lines before error line shown.....\n   *************   1859   Schedule:Week:Daily {c63e990a-5a7b-4524-a46f-ac306c824142}, !- Name\n   *************   1860   Sp-Corner_Class_1_Pod_1_ZN_1_FLR_1 Sys-3 Flr-1 Sch-D HPlcmt-south ZN NECB System 3 PSZ Occ Sch Sunday, !- Sunday Schedule:Day Name\n   *************   1861   Sp-Corner_Class_1_Pod_1_ZN_1_FLR_1 Sys-3 Flr-1 Sch-D HPlcmt-south ZN NECB System 3 PSZ Occ Sch Monday, !- Monday Schedule:Day Name\n   *************   1862   Sp-Corner_Class_1_Pod_1_ZN_1_FLR_1 Sys-3 Flr-1 Sch-D HPlcmt-south ZN NECB System 3 PSZ Occ Sch Tuesday, !- Tuesday Schedule:Day Name\n   *************   1863   Sp-Corner_Class_1_Pod_1_ZN_1_FLR_1 Sys-3 Flr-1 Sch-D HPlcmt-south ZN NECB System 3 PSZ Occ Sch Wednesday, !- Wednesday Schedule:Day Name\n   *************   1864   Sp-Corner_Class_1_Pod_1_ZN_1_FLR_1 Sys-3 Flr-1 Sch-D HPlcmt-south ZN NECB System 3 PSZ Occ Sch Thursday, !- Thursday Schedule:Day Name\n   *************   1865   Sp-Corner_Class_1_Pod_1_ZN_1_FLR_1 Sys-3 Flr-1 Sch-D HPlcmt-south ZN NECB System 3 PSZ Occ Sch Friday, !- Friday Schedule:Day Name\n   *************   1866   Sp-Corner_Class_1_Pod_1_ZN_1_FLR_1 Sys-3 Flr-1 Sch-D HPlcmt-south ZN NECB System 3 PSZ Occ Sch Saturday, !- Saturday Schedule:Day Name\n   ** Warning ** IP: IDF line~1866 Alpha Argument length exceeds maximum, will be truncated=  Sp-Corner_Class_1_Pod_1_ZN_1_FLR_1 Sys-3 Flr-1 Sch-D HPlcmt-south ZN NECB System 3 PSZ Occ Sch Saturda\n   **   ~~~   ** Will be processed as Alpha=SP-CORNER_CLASS_1_POD_1_ZN_1_FLR_1 SYS-3 FLR-1 SCH-D HPLCMT-SOUTH ZN NECB SYSTEM 3 PSZ OCC SCH SATURDAY\n   ************* IDF Context for following error/warning message:\n   ************* Note -- lines truncated at 300 characters, if necessary...\n   *************   1858 Schedule:Week:Daily,\n   ************* indicated Name=Schedule:Week:Daily {c63e990a-5a7b-4524-a46f-ac306c824142}\n   ************* Only last 9 lines before error line shown.....\n   *************   1859   Schedule:Week:Daily {c63e990a-5a7b-4524-a46f-ac306c824142}, !- Name\n   *************   1860   Sp-Corner_Class_1_Pod_1_ZN_1_FLR_1 Sys-3 Flr-1 Sch-D HPlcmt-south ZN NECB System 3 PSZ Occ Sch Sunday, !- Sunday Schedule:Day Name\n   *************   1861   Sp-Corner_Class_1_Pod_1_ZN_1_FLR_1 Sys-3 Flr-1 Sch-D HPlcmt-south ZN NECB System 3 PSZ Occ Sch Monday, !- Monday Schedule:Day Name\n   *************   1862   Sp-Corner_Class_1_Pod_1_ZN_1_FLR_1 Sys-3 Flr-1 Sch-D HPlcmt-south ZN NECB System 3 PSZ Occ Sch Tuesday, !- Tuesday Schedule:Day Name\n   *************   1863   Sp-Corner_Class_1_Pod_1_ZN_1_FLR_1 Sys-3 Flr-1 Sch-D HPlcmt-south ZN NECB System 3 PSZ Occ Sch Wednesday, !- Wednesday Schedule:Day Name\n   *************   1864   Sp-Corner_Class_1_Pod_1_ZN_1_FLR_1 Sys-3 Flr-1 Sch-D HPlcmt-south ZN NECB System 3 PSZ Occ Sch Thursday, !- Thursday Schedule:Day Name\n   *************   1865   Sp-Corner_Class_1_Pod_1_ZN_1_FLR_1 Sys-3 Flr-1 Sch-D HPlcmt-south ZN NECB System 3 PSZ Occ Sch Friday, !- Friday Schedule:Day Name\n   *************   1866   Sp-Corner_Class_1_Pod_1_ZN_1_FLR_1 Sys-3 Flr-1 Sch-D HPlcmt-south ZN NECB System 3 PSZ Occ Sch Saturday, !- Saturday Schedule:Day Name\n   *************   1867   Sp-Corner_Class_1_Pod_1_ZN_1_FLR_1 Sys-3 Flr-1 Sch-D HPlcmt-south ZN NECB System 3 PSZ Occ Sch Default, !- Holiday Schedule:Day Name\n   ** Warning ** IP: IDF line~1867 Alpha Argument length exceeds maximum, will be truncated=  Sp-Corner_Class_1_Pod_1_ZN_1_FLR_1 Sys-3 Flr-1 Sch-D HPlcmt-south ZN NECB System 3 PSZ Occ Sch Defaul\n   **   ~~~   ** Will be processed as Alpha=SP-CORNER_CLASS_1_POD_1_ZN_1_FLR_1 SYS-3 FLR-1 SCH-D HPLCMT-SOUTH ZN NECB SYSTEM 3 PSZ OCC SCH DEFAULT\n   ************* IDF Context for following error/warning message:\n   ************* Note -- lines truncated at 300 characters, if necessary...\n   *************   1858 Schedule:Week:Daily,\n   ************* indicated Name=Schedule:Week:Daily {c63e990a-5a7b-4524-a46f-ac306c824142}\n   ************* Only last 10 lines before error line shown.....\n   *************   1859   Schedule:Week:Daily {c63e990a-5a7b-4524-a46f-ac306c824142}, !- Name\n   *************   1860   Sp-Corner_Class_1_Pod_1_ZN_1_FLR_1 Sys-3 Flr-1 Sch-D HPlcmt-south ZN NECB System 3 PSZ Occ Sch Sunday, !- Sunday Schedule:Day Name\n   *************   1861   Sp-Corner_Class_1_Pod_1_ZN_1_FLR_1 Sys-3 Flr-1 Sch-D HPlcmt-south ZN NECB System 3 PSZ Occ Sch Monday, !- Monday Schedule:Day Name\n   *************   1862   Sp-Corner_Class_1_Pod_1_ZN_1_FLR_1 Sys-3 Flr-1 Sch-D HPlcmt-south ZN NECB System 3 PSZ Occ Sch Tuesday, !- Tuesday Schedule:Day Name\n   *************   1863   Sp-Corner_Class_1_Pod_1_ZN_1_FLR_1 Sys-3 Flr-1 Sch-D HPlcmt-south ZN NECB System 3 PSZ Occ Sch Wednesday, !- Wednesday Schedule:Day Name\n   *************   1864   Sp-Corner_Class_1_Pod_1_ZN_1_FLR_1 Sys-3 Flr-1 Sch-D HPlcmt-south ZN NECB System 3 PSZ Occ Sch Thursday, !- Thursday Schedule:Day Name\n   *************   1865   Sp-Corner_Class_1_Pod_1_ZN_1_FLR_1 Sys-3 Flr-1 Sch-D HPlcmt-south ZN NECB System 3 PSZ Occ Sch Friday, !- Friday Schedule:Day Name\n   *************   1866   Sp-Corner_Class_1_Pod_1_ZN_1_FLR_1 Sys-3 Flr-1 Sch-D HPlcmt-south ZN NECB System 3 PSZ Occ Sch Saturday, !- Saturday Schedule:Day Name\n   *************   1867   Sp-Corner_Class_1_Pod_1_ZN_1_FLR_1 Sys-3 Flr-1 Sch-D HPlcmt-south ZN NECB System 3 PSZ Occ Sch Default, !- Holiday Schedule:Day Name\n   *************   1868   Sp-Corner_Class_1_Pod_1_ZN_1_FLR_1 Sys-3 Flr-1 Sch-D HPlcmt-south ZN NECB System 3 PSZ Occ Sch Summer Design Day, !- SummerDesignDay Schedule:Day Name\n   ** Warning ** IP: IDF line~1868 Alpha Argument length exceeds maximum, will be truncated=  Sp-Corner_Class_1_Pod_1_ZN_1_FLR_1 Sys-3 Flr-1 Sch-D HPlcmt-south ZN NECB System 3 PSZ Occ Sch Summer Design Da\n   **   ~~~   ** Will be processed as Alpha=SP-CORNER_CLASS_1_POD_1_ZN_1_FLR_1 SYS-3 FLR-1 SCH-D HPLCMT-SOUTH ZN NECB SYSTEM 3 PSZ OCC SCH SUMMER DESIGN DAY\n   ************* IDF Context for following error/warning message:\n   ************* Note -- lines truncated at 300 characters, if necessary...\n   *************   1858 Schedule:Week:Daily,\n   ************* indicated Name=Schedule:Week:Daily {c63e990a-5a7b-4524-a46f-ac306c824142}\n   ************* Only last 10 lines before error line shown.....\n   *************   1860   Sp-Corner_Class_1_Pod_1_ZN_1_FLR_1 Sys-3 Flr-1 Sch-D HPlcmt-south ZN NECB System 3 PSZ Occ Sch Sunday, !- Sunday Schedule:Day Name\n   *************   1861   Sp-Corner_Class_1_Pod_1_ZN_1_FLR_1 Sys-3 Flr-1 Sch-D HPlcmt-south ZN NECB System 3 PSZ Occ Sch Monday, !- Monday Schedule:Day Name\n   *************   1862   Sp-Corner_Class_1_Pod_1_ZN_1_FLR_1 Sys-3 Flr-1 Sch-D HPlcmt-south ZN NECB System 3 PSZ Occ Sch Tuesday, !- Tuesday Schedule:Day Name\n   *************   1863   Sp-Corner_Class_1_Pod_1_ZN_1_FLR_1 Sys-3 Flr-1 Sch-D HPlcmt-south ZN NECB System 3 PSZ Occ Sch Wednesday, !- Wednesday Schedule:Day Name\n   *************   1864   Sp-Corner_Class_1_Pod_1_ZN_1_FLR_1 Sys-3 Flr-1 Sch-D HPlcmt-south ZN NECB System 3 PSZ Occ Sch Thursday, !- Thursday Schedule:Day Name\n   *************   1865   Sp-Corner_Class_1_Pod_1_ZN_1_FLR_1 Sys-3 Flr-1 Sch-D HPlcmt-south ZN NECB System 3 PSZ Occ Sch Friday, !- Friday Schedule:Day Name\n   *************   1866   Sp-Corner_Class_1_Pod_1_ZN_1_FLR_1 Sys-3 Flr-1 Sch-D HPlcmt-south ZN NECB System 3 PSZ Occ Sch Saturday, !- Saturday Schedule:Day Name\n   *************   1867   Sp-Corner_Class_1_Pod_1_ZN_1_FLR_1 Sys-3 Flr-1 Sch-D HPlcmt-south ZN NECB System 3 PSZ Occ Sch Default, !- Holiday Schedule:Day Name\n   *************   1868   Sp-Corner_Class_1_Pod_1_ZN_1_FLR_1 Sys-3 Flr-1 Sch-D HPlcmt-south ZN NECB System 3 PSZ Occ Sch Summer Design Day, !- SummerDesignDay Schedule:Day Name\n   *************   1869   Sp-Corner_Class_1_Pod_1_ZN_1_FLR_1 Sys-3 Flr-1 Sch-D HPlcmt-south ZN NECB System 3 PSZ Occ Sch Winter Design Day, !- WinterDesignDay Schedule:Day Name\n   ** Warning ** IP: IDF line~1869 Alpha Argument length exceeds maximum, will be truncated=  Sp-Corner_Class_1_Pod_1_ZN_1_FLR_1 Sys-3 Flr-1 Sch-D HPlcmt-south ZN NECB System 3 PSZ Occ Sch Winter Design Da\n   **   ~~~   ** Will be processed as Alpha=SP-CORNER_CLASS_1_POD_1_ZN_1_FLR_1 SYS-3 FLR-1 SCH-D HPLCMT-SOUTH ZN NECB SYSTEM 3 PSZ OCC SCH WINTER DESIGN DAY\n   ************* IDF Context for following error/warning message:\n   ************* Note -- lines truncated at 300 characters, if necessary...\n   *************   1858 Schedule:Week:Daily,\n   ************* indicated Name=Schedule:Week:Daily {c63e990a-5a7b-4524-a46f-ac306c824142}\n   ************* Only last 10 lines before error line shown.....\n   *************   1861   Sp-Corner_Class_1_Pod_1_ZN_1_FLR_1 Sys-3 Flr-1 Sch-D HPlcmt-south ZN NECB System 3 PSZ Occ Sch Monday, !- Monday Schedule:Day Name\n   *************   1862   Sp-Corner_Class_1_Pod_1_ZN_1_FLR_1 Sys-3 Flr-1 Sch-D HPlcmt-south ZN NECB System 3 PSZ Occ Sch Tuesday, !- Tuesday Schedule:Day Name\n   *************   1863   Sp-Corner_Class_1_Pod_1_ZN_1_FLR_1 Sys-3 Flr-1 Sch-D HPlcmt-south ZN NECB System 3 PSZ Occ Sch Wednesday, !- Wednesday Schedule:Day Name\n   *************   1864   Sp-Corner_Class_1_Pod_1_ZN_1_FLR_1 Sys-3 Flr-1 Sch-D HPlcmt-south ZN NECB System 3 PSZ Occ Sch Thursday, !- Thursday Schedule:Day Name\n   *************   1865   Sp-Corner_Class_1_Pod_1_ZN_1_FLR_1 Sys-3 Flr-1 Sch-D HPlcmt-south ZN NECB System 3 PSZ Occ Sch Friday, !- Friday Schedule:Day Name\n   *************   1866   Sp-Corner_Class_1_Pod_1_ZN_1_FLR_1 Sys-3 Flr-1 Sch-D HPlcmt-south ZN NECB System 3 PSZ Occ Sch Saturday, !- Saturday Schedule:Day Name\n   *************   1867   Sp-Corner_Class_1_Pod_1_ZN_1_FLR_1 Sys-3 Flr-1 Sch-D HPlcmt-south ZN NECB System 3 PSZ Occ Sch Default, !- Holiday Schedule:Day Name\n   *************   1868   Sp-Corner_Class_1_Pod_1_ZN_1_FLR_1 Sys-3 Flr-1 Sch-D HPlcmt-south ZN NECB System 3 PSZ Occ Sch Summer Design Day, !- SummerDesignDay Schedule:Day Name\n   *************   1869   Sp-Corner_Class_1_Pod_1_ZN_1_FLR_1 Sys-3 Flr-1 Sch-D HPlcmt-south ZN NECB System 3 PSZ Occ Sch Winter Design Day, !- WinterDesignDay Schedule:Day Name\n   *************   1870   Sp-Corner_Class_1_Pod_1_ZN_1_FLR_1 Sys-3 Flr-1 Sch-D HPlcmt-south ZN NECB System 3 PSZ Occ Sch Default, !- CustomDay1 Schedule:Day Name\n   ** Warning ** IP: IDF line~1870 Alpha Argument length exceeds maximum, will be truncated=  Sp-Corner_Class_1_Pod_1_ZN_1_FLR_1 Sys-3 Flr-1 Sch-D HPlcmt-south ZN NECB System 3 PSZ Occ Sch Defaul\n   **   ~~~   ** Will be processed as Alpha=SP-CORNER_CLASS_1_POD_1_ZN_1_FLR_1 SYS-3 FLR-1 SCH-D HPLCMT-SOUTH ZN NECB SYSTEM 3 PSZ OCC SCH DEFAULT\n   ************* IDF Context for following error/warning message:\n   ************* Note -- lines truncated at 300 characters, if necessary...\n   *************   1858 Schedule:Week:Daily,\n   ************* indicated Name=Schedule:Week:Daily {c63e990a-5a7b-4524-a46f-ac306c824142}\n   ************* Only last 10 lines before error line shown.....\n   *************   1862   Sp-Corner_Class_1_Pod_1_ZN_1_FLR_1 Sys-3 Flr-1 Sch-D HPlcmt-south ZN NECB System 3 PSZ Occ Sch Tuesday, !- Tuesday Schedule:Day Name\n   *************   1863   Sp-Corner_Class_1_Pod_1_ZN_1_FLR_1 Sys-3 Flr-1 Sch-D HPlcmt-south ZN NECB System 3 PSZ Occ Sch Wednesday, !- Wednesday Schedule:Day Name\n   *************   1864   Sp-Corner_Class_1_Pod_1_ZN_1_FLR_1 Sys-3 Flr-1 Sch-D HPlcmt-south ZN NECB System 3 PSZ Occ Sch Thursday, !- Thursday Schedule:Day Name\n   *************   1865   Sp-Corner_Class_1_Pod_1_ZN_1_FLR_1 Sys-3 Flr-1 Sch-D HPlcmt-south ZN NECB System 3 PSZ Occ Sch Friday, !- Friday Schedule:Day Name\n   *************   1866   Sp-Corner_Class_1_Pod_1_ZN_1_FLR_1 Sys-3 Flr-1 Sch-D HPlcmt-south ZN NECB System 3 PSZ Occ Sch Saturday, !- Saturday Schedule:Day Name\n   *************   1867   Sp-Corner_Class_1_Pod_1_ZN_1_FLR_1 Sys-3 Flr-1 Sch-D HPlcmt-south ZN NECB System 3 PSZ Occ Sch Default, !- Holiday Schedule:Day Name\n   *************   1868   Sp-Corner_Class_1_Pod_1_ZN_1_FLR_1 Sys-3 Flr-1 Sch-D HPlcmt-south ZN NECB System 3 PSZ Occ Sch Summer Design Day, !- SummerDesignDay Schedule:Day Name\n   *************   1869   Sp-Corner_Class_1_Pod_1_ZN_1_FLR_1 Sys-3 Flr-1 Sch-D HPlcmt-south ZN NECB System 3 PSZ Occ Sch Winter Design Day, !- WinterDesignDay Schedule:Day Name\n   *************   1870   Sp-Corner_Class_1_Pod_1_ZN_1_FLR_1 Sys-3 Flr-1 Sch-D HPlcmt-south ZN NECB System 3 PSZ Occ Sch Default, !- CustomDay1 Schedule:Day Name\n   *************   1871   Sp-Corner_Class_1_Pod_1_ZN_1_FLR_1 Sys-3 Flr-1 Sch-D HPlcmt-south ZN NECB System 3 PSZ Occ Sch Default; !- CustomDay2 Schedule:Day Name\n   ** Warning ** IP: IDF line~1871 Alpha Argument length exceeds maximum, will be truncated=  Sp-Corner_Class_1_Pod_1_ZN_1_FLR_1 Sys-3 Flr-1 Sch-D HPlcmt-south ZN NECB System 3 PSZ Occ Sch Defaul\n   **   ~~~   ** Will be processed as Alpha=SP-CORNER_CLASS_1_POD_1_ZN_1_FLR_1 SYS-3 FLR-1 SCH-D HPLCMT-SOUTH ZN NECB SYSTEM 3 PSZ OCC SCH DEFAULT\n   ************* IDF Context for following error/warning message:\n   ************* Note -- lines truncated at 300 characters, if necessary...\n   *************   1882 Schedule:Day:Interval,\n   ************* indicated Name=Sp-Corner_Class_1_Pod_1_ZN_1_FLR_1 Sys-3 Flr-1 Sch-D HPlcmt-south ZN NECB System 3 PSZ Occ Sch Default\n   ************* Only last 1 lines before error line shown.....\n   *************   1883   Sp-Corner_Class_1_Pod_1_ZN_1_FLR_1 Sys-3 Flr-1 Sch-D HPlcmt-south ZN NECB System 3 PSZ Occ Sch Default, !- Name\n   ** Warning ** IP: IDF line~1883 Alpha Argument length exceeds maximum, will be truncated=  Sp-Corner_Class_1_Pod_1_ZN_1_FLR_1 Sys-3 Flr-1 Sch-D HPlcmt-south ZN NECB System 3 PSZ Occ Sch Defaul\n   **   ~~~   ** Will be processed as Alpha=SP-CORNER_CLASS_1_POD_1_ZN_1_FLR_1 SYS-3 FLR-1 SCH-D HPLCMT-SOUTH ZN NECB SYSTEM 3 PSZ OCC SCH DEFAULT\n   ************* IDF Context for following error/warning message:\n   ************* Note -- lines truncated at 300 characters, if necessary...\n   *************   1889 Schedule:Day:Interval,\n   ************* indicated Name=Sp-Corner_Class_1_Pod_1_ZN_1_FLR_1 Sys-3 Flr-1 Sch-D HPlcmt-south ZN NECB System 3 PSZ Occ Sch Summer Design Day\n   ************* Only last 1 lines before error line shown.....\n   *************   1890   Sp-Corner_Class_1_Pod_1_ZN_1_FLR_1 Sys-3 Flr-1 Sch-D HPlcmt-south ZN NECB System 3 PSZ Occ Sch Summer Design Day, !- Name\n   ** Warning ** IP: IDF line~1890 Alpha Argument length exceeds maximum, will be truncated=  Sp-Corner_Class_1_Pod_1_ZN_1_FLR_1 Sys-3 Flr-1 Sch-D HPlcmt-south ZN NECB System 3 PSZ Occ Sch Summer Design Da\n   **   ~~~   ** Will be processed as Alpha=SP-CORNER_CLASS_1_POD_1_ZN_1_FLR_1 SYS-3 FLR-1 SCH-D HPLCMT-SOUTH ZN NECB SYSTEM 3 PSZ OCC SCH SUMMER DESIGN DAY\n   ************* IDF Context for following error/warning message:\n   ************* Note -- lines truncated at 300 characters, if necessary...\n   *************   1896 Schedule:Day:Interval,\n   ************* indicated Name=Sp-Corner_Class_1_Pod_1_ZN_1_FLR_1 Sys-3 Flr-1 Sch-D HPlcmt-south ZN NECB System 3 PSZ Occ Sch Winter Design Day\n   ************* Only last 1 lines before error line shown.....\n   *************   1897   Sp-Corner_Class_1_Pod_1_ZN_1_FLR_1 Sys-3 Flr-1 Sch-D HPlcmt-south ZN NECB System 3 PSZ Occ Sch Winter Design Day, !- Name\n   ** Warning ** IP: IDF line~1897 Alpha Argument length exceeds maximum, will be truncated=  Sp-Corner_Class_1_Pod_1_ZN_1_FLR_1 Sys-3 Flr-1 Sch-D HPlcmt-south ZN NECB System 3 PSZ Occ Sch Winter Design Da\n   **   ~~~   ** Will be processed as Alpha=SP-CORNER_CLASS_1_POD_1_ZN_1_FLR_1 SYS-3 FLR-1 SCH-D HPLCMT-SOUTH ZN NECB SYSTEM 3 PSZ OCC SCH WINTER DESIGN DAY\n   ************* IDF Context for following error/warning message:\n   ************* Note -- lines truncated at 300 characters, if necessary...\n   *************   2169 Schedule:Day:Interval,\n   ************* indicated Name=Sp-Corner_Class_1_Pod_2_ZN_1_FLR_1 Sys-3 Flr-1 Sch-D HPlcmt-south ZN NECB System 3 PSZ Occ Sch Sunday\n   ************* Only last 1 lines before error line shown.....\n   *************   2170   Sp-Corner_Class_1_Pod_2_ZN_1_FLR_1 Sys-3 Flr-1 Sch-D HPlcmt-south ZN NECB System 3 PSZ Occ Sch Sunday, !- Name\n   ** Warning ** IP: IDF line~2170 Alpha Argument length exceeds maximum, will be truncated=  Sp-Corner_Class_1_Pod_2_ZN_1_FLR_1 Sys-3 Flr-1 Sch-D HPlcmt-south ZN NECB System 3 PSZ Occ Sch Sunda\n   **   ~~~   ** Will be processed as Alpha=SP-CORNER_CLASS_1_POD_2_ZN_1_FLR_1 SYS-3 FLR-1 SCH-D HPLCMT-SOUTH ZN NECB SYSTEM 3 PSZ OCC SCH SUNDAY\n   ************* IDF Context for following error/warning message:\n   ************* Note -- lines truncated at 300 characters, if necessary...\n   *************   2176 Schedule:Day:Interval,\n   ************* indicated Name=Sp-Corner_Class_1_Pod_2_ZN_1_FLR_1 Sys-3 Flr-1 Sch-D HPlcmt-south ZN NECB System 3 PSZ Occ Sch Monday\n   ************* Only last 1 lines before error line shown.....\n   *************   2177   Sp-Corner_Class_1_Pod_2_ZN_1_FLR_1 Sys-3 Flr-1 Sch-D HPlcmt-south ZN NECB System 3 PSZ Occ Sch Monday, !- Name\n   ** Warning ** IP: IDF line~2177 Alpha Argument length exceeds maximum, will be truncated=  Sp-Corner_Class_1_Pod_2_ZN_1_FLR_1 Sys-3 Flr-1 Sch-D HPlcmt-south ZN NECB System 3 PSZ Occ Sch Monda\n   **   ~~~   ** Will be processed as Alpha=SP-CORNER_CLASS_1_POD_2_ZN_1_FLR_1 SYS-3 FLR-1 SCH-D HPLCMT-SOUTH ZN NECB SYSTEM 3 PSZ OCC SCH MONDAY\n   ************* IDF Context for following error/warning message:\n   ************* Note -- lines truncated at 300 characters, if necessary...\n   *************   2191 Schedule:Day:Interval,\n   ************* indicated Name=Sp-Corner_Class_1_Pod_2_ZN_1_FLR_1 Sys-3 Flr-1 Sch-D HPlcmt-south ZN NECB System 3 PSZ Occ Sch Tuesday\n   ************* Only last 1 lines before error line shown.....\n   *************   2192   Sp-Corner_Class_1_Pod_2_ZN_1_FLR_1 Sys-3 Flr-1 Sch-D HPlcmt-south ZN NECB System 3 PSZ Occ Sch Tuesday, !- Name\n   ** Warning ** IP: IDF line~2192 Alpha Argument length exceeds maximum, will be truncated=  Sp-Corner_Class_1_Pod_2_ZN_1_FLR_1 Sys-3 Flr-1 Sch-D HPlcmt-south ZN NECB System 3 PSZ Occ Sch Tuesda\n   **   ~~~   ** Will be processed as Alpha=SP-CORNER_CLASS_1_POD_2_ZN_1_FLR_1 SYS-3 FLR-1 SCH-D HPLCMT-SOUTH ZN NECB SYSTEM 3 PSZ OCC SCH TUESDAY\n   ************* IDF Context for following error/warning message:\n   ************* Note -- lines truncated at 300 characters, if necessary...\n   *************   2206 Schedule:Day:Interval,\n   ************* indicated Name=Sp-Corner_Class_1_Pod_2_ZN_1_FLR_1 Sys-3 Flr-1 Sch-D HPlcmt-south ZN NECB System 3 PSZ Occ Sch Wednesday\n   ************* Only last 1 lines before error line shown.....\n   *************   2207   Sp-Corner_Class_1_Pod_2_ZN_1_FLR_1 Sys-3 Flr-1 Sch-D HPlcmt-south ZN NECB System 3 PSZ Occ Sch Wednesday, !- Name\n   ** Warning ** IP: IDF line~2207 Alpha Argument length exceeds maximum, will be truncated=  Sp-Corner_Class_1_Pod_2_ZN_1_FLR_1 Sys-3 Flr-1 Sch-D HPlcmt-south ZN NECB System 3 PSZ Occ Sch Wednesda\n   **   ~~~   ** Will be processed as Alpha=SP-CORNER_CLASS_1_POD_2_ZN_1_FLR_1 SYS-3 FLR-1 SCH-D HPLCMT-SOUTH ZN NECB SYSTEM 3 PSZ OCC SCH WEDNESDAY\n   ************* IDF Context for following error/warning message:\n   ************* Note -- lines truncated at 300 characters, if necessary...\n   *************   2221 Schedule:Day:Interval,\n   ************* indicated Name=Sp-Corner_Class_1_Pod_2_ZN_1_FLR_1 Sys-3 Flr-1 Sch-D HPlcmt-south ZN NECB System 3 PSZ Occ Sch Thursday\n   ************* Only last 1 lines before error line shown.....\n   *************   2222   Sp-Corner_Class_1_Pod_2_ZN_1_FLR_1 Sys-3 Flr-1 Sch-D HPlcmt-south ZN NECB System 3 PSZ Occ Sch Thursday, !- Name\n   ** Warning ** IP: IDF line~2222 Alpha Argument length exceeds maximum, will be truncated=  Sp-Corner_Class_1_Pod_2_ZN_1_FLR_1 Sys-3 Flr-1 Sch-D HPlcmt-south ZN NECB System 3 PSZ Occ Sch Thursda\n   **   ~~~   ** Will be processed as Alpha=SP-CORNER_CLASS_1_POD_2_ZN_1_FLR_1 SYS-3 FLR-1 SCH-D HPLCMT-SOUTH ZN NECB SYSTEM 3 PSZ OCC SCH THURSDAY\n   ************* IDF Context for following error/warning message:\n   ************* Note -- lines truncated at 300 characters, if necessary...\n   *************   2236 Schedule:Day:Interval,\n   ************* indicated Name=Sp-Corner_Class_1_Pod_2_ZN_1_FLR_1 Sys-3 Flr-1 Sch-D HPlcmt-south ZN NECB System 3 PSZ Occ Sch Friday\n   ************* Only last 1 lines before error line shown.....\n   *************   2237   Sp-Corner_Class_1_Pod_2_ZN_1_FLR_1 Sys-3 Flr-1 Sch-D HPlcmt-south ZN NECB System 3 PSZ Occ Sch Friday, !- Name\n   ** Warning ** IP: IDF line~2237 Alpha Argument length exceeds maximum, will be truncated=  Sp-Corner_Class_1_Pod_2_ZN_1_FLR_1 Sys-3 Flr-1 Sch-D HPlcmt-south ZN NECB System 3 PSZ Occ Sch Frida\n   **   ~~~   ** Will be processed as Alpha=SP-CORNER_CLASS_1_POD_2_ZN_1_FLR_1 SYS-3 FLR-1 SCH-D HPLCMT-SOUTH ZN NECB SYSTEM 3 PSZ OCC SCH FRIDAY\n   ************* IDF Context for following error/warning message:\n   ************* Note -- lines truncated at 300 characters, if necessary...\n   *************   2251 Schedule:Day:Interval,\n   ************* indicated Name=Sp-Corner_Class_1_Pod_2_ZN_1_FLR_1 Sys-3 Flr-1 Sch-D HPlcmt-south ZN NECB System 3 PSZ Occ Sch Saturday\n   ************* Only last 1 lines before error line shown.....\n   *************   2252   Sp-Corner_Class_1_Pod_2_ZN_1_FLR_1 Sys-3 Flr-1 Sch-D HPlcmt-south ZN NECB System 3 PSZ Occ Sch Saturday, !- Name\n   ** Warning ** IP: IDF line~2252 Alpha Argument length exceeds maximum, will be truncated=  Sp-Corner_Class_1_Pod_2_ZN_1_FLR_1 Sys-3 Flr-1 Sch-D HPlcmt-south ZN NECB System 3 PSZ Occ Sch Saturda\n   **   ~~~   ** Will be processed as Alpha=SP-CORNER_CLASS_1_POD_2_ZN_1_FLR_1 SYS-3 FLR-1 SCH-D HPLCMT-SOUTH ZN NECB SYSTEM 3 PSZ OCC SCH SATURDAY\n   ************* IDF Context for following error/warning message:\n   ************* Note -- lines truncated at 300 characters, if necessary...\n   *************   2258 Schedule:Week:Daily,\n   ************* indicated Name=Schedule:Week:Daily {c214c7f3-7fc3-4723-88d3-0238b9e4a0da}\n   ************* Only last 2 lines before error line shown.....\n   *************   2259   Schedule:Week:Daily {c214c7f3-7fc3-4723-88d3-0238b9e4a0da}, !- Name\n   *************   2260   Sp-Corner_Class_1_Pod_2_ZN_1_FLR_1 Sys-3 Flr-1 Sch-D HPlcmt-south ZN NECB System 3 PSZ Occ Sch Sunday, !- Sunday Schedule:Day Name\n   ** Warning ** IP: IDF line~2260 Alpha Argument length exceeds maximum, will be truncated=  Sp-Corner_Class_1_Pod_2_ZN_1_FLR_1 Sys-3 Flr-1 Sch-D HPlcmt-south ZN NECB System 3 PSZ Occ Sch Sunda\n   **   ~~~   ** Will be processed as Alpha=SP-CORNER_CLASS_1_POD_2_ZN_1_FLR_1 SYS-3 FLR-1 SCH-D HPLCMT-SOUTH ZN NECB SYSTEM 3 PSZ OCC SCH SUNDAY\n   ************* IDF Context for following error/warning message:\n   ************* Note -- lines truncated at 300 characters, if necessary...\n   *************   2258 Schedule:Week:Daily,\n   ************* indicated Name=Schedule:Week:Daily {c214c7f3-7fc3-4723-88d3-0238b9e4a0da}\n   ************* Only last 3 lines before error line shown.....\n   *************   2259   Schedule:Week:Daily {c214c7f3-7fc3-4723-88d3-0238b9e4a0da}, !- Name\n   *************   2260   Sp-Corner_Class_1_Pod_2_ZN_1_FLR_1 Sys-3 Flr-1 Sch-D HPlcmt-south ZN NECB System 3 PSZ Occ Sch Sunday, !- Sunday Schedule:Day Name\n   *************   2261   Sp-Corner_Class_1_Pod_2_ZN_1_FLR_1 Sys-3 Flr-1 Sch-D HPlcmt-south ZN NECB System 3 PSZ Occ Sch Monday, !- Monday Schedule:Day Name\n   ** Warning ** IP: IDF line~2261 Alpha Argument length exceeds maximum, will be truncated=  Sp-Corner_Class_1_Pod_2_ZN_1_FLR_1 Sys-3 Flr-1 Sch-D HPlcmt-south ZN NECB System 3 PSZ Occ Sch Monda\n   **   ~~~   ** Will be processed as Alpha=SP-CORNER_CLASS_1_POD_2_ZN_1_FLR_1 SYS-3 FLR-1 SCH-D HPLCMT-SOUTH ZN NECB SYSTEM 3 PSZ OCC SCH MONDAY\n   ************* IDF Context for following error/warning message:\n   ************* Note -- lines truncated at 300 characters, if necessary...\n   *************   2258 Schedule:Week:Daily,\n   ************* indicated Name=Schedule:Week:Daily {c214c7f3-7fc3-4723-88d3-0238b9e4a0da}\n   ************* Only last 4 lines before error line shown.....\n   *************   2259   Schedule:Week:Daily {c214c7f3-7fc3-4723-88d3-0238b9e4a0da}, !- Name\n   *************   2260   Sp-Corner_Class_1_Pod_2_ZN_1_FLR_1 Sys-3 Flr-1 Sch-D HPlcmt-south ZN NECB System 3 PSZ Occ Sch Sunday, !- Sunday Schedule:Day Name\n   *************   2261   Sp-Corner_Class_1_Pod_2_ZN_1_FLR_1 Sys-3 Flr-1 Sch-D HPlcmt-south ZN NECB System 3 PSZ Occ Sch Monday, !- Monday Schedule:Day Name\n   *************   2262   Sp-Corner_Class_1_Pod_2_ZN_1_FLR_1 Sys-3 Flr-1 Sch-D HPlcmt-south ZN NECB System 3 PSZ Occ Sch Tuesday, !- Tuesday Schedule:Day Name\n   ** Warning ** IP: IDF line~2262 Alpha Argument length exceeds maximum, will be truncated=  Sp-Corner_Class_1_Pod_2_ZN_1_FLR_1 Sys-3 Flr-1 Sch-D HPlcmt-south ZN NECB System 3 PSZ Occ Sch Tuesda\n   **   ~~~   ** Will be processed as Alpha=SP-CORNER_CLASS_1_POD_2_ZN_1_FLR_1 SYS-3 FLR-1 SCH-D HPLCMT-SOUTH ZN NECB SYSTEM 3 PSZ OCC SCH TUESDAY\n   ************* IDF Context for following error/warning message:\n   ************* Note -- lines truncated at 300 characters, if necessary...\n   *************   2258 Schedule:Week:Daily,\n   ************* indicated Name=Schedule:Week:Daily {c214c7f3-7fc3-4723-88d3-0238b9e4a0da}\n   ************* Only last 5 lines before error line shown.....\n   *************   2259   Schedule:Week:Daily {c214c7f3-7fc3-4723-88d3-0238b9e4a0da}, !- Name\n   *************   2260   Sp-Corner_Class_1_Pod_2_ZN_1_FLR_1 Sys-3 Flr-1 Sch-D HPlcmt-south ZN NECB System 3 PSZ Occ Sch Sunday, !- Sunday Schedule:Day Name\n   *************   2261   Sp-Corner_Class_1_Pod_2_ZN_1_FLR_1 Sys-3 Flr-1 Sch-D HPlcmt-south ZN NECB System 3 PSZ Occ Sch Monday, !- Monday Schedule:Day Name\n   *************   2262   Sp-Corner_Class_1_Pod_2_ZN_1_FLR_1 Sys-3 Flr-1 Sch-D HPlcmt-south ZN NECB System 3 PSZ Occ Sch Tuesday, !- Tuesday Schedule:Day Name\n   *************   2263   Sp-Corner_Class_1_Pod_2_ZN_1_FLR_1 Sys-3 Flr-1 Sch-D HPlcmt-south ZN NECB System 3 PSZ Occ Sch Wednesday, !- Wednesday Schedule:Day Name\n   ** Warning ** IP: IDF line~2263 Alpha Argument length exceeds maximum, will be truncated=  Sp-Corner_Class_1_Pod_2_ZN_1_FLR_1 Sys-3 Flr-1 Sch-D HPlcmt-south ZN NECB System 3 PSZ Occ Sch Wednesda\n   **   ~~~   ** Will be processed as Alpha=SP-CORNER_CLASS_1_POD_2_ZN_1_FLR_1 SYS-3 FLR-1 SCH-D HPLCMT-SOUTH ZN NECB SYSTEM 3 PSZ OCC SCH WEDNESDAY\n   ************* IDF Context for following error/warning message:\n   ************* Note -- lines truncated at 300 characters, if necessary...\n   *************   2258 Schedule:Week:Daily,\n   ************* indicated Name=Schedule:Week:Daily {c214c7f3-7fc3-4723-88d3-0238b9e4a0da}\n   ************* Only last 6 lines before error line shown.....\n   *************   2259   Schedule:Week:Daily {c214c7f3-7fc3-4723-88d3-0238b9e4a0da}, !- Name\n   *************   2260   Sp-Corner_Class_1_Pod_2_ZN_1_FLR_1 Sys-3 Flr-1 Sch-D HPlcmt-south ZN NECB System 3 PSZ Occ Sch Sunday, !- Sunday Schedule:Day Name\n   *************   2261   Sp-Corner_Class_1_Pod_2_ZN_1_FLR_1 Sys-3 Flr-1 Sch-D HPlcmt-south ZN NECB System 3 PSZ Occ Sch Monday, !- Monday Schedule:Day Name\n   *************   2262   Sp-Corner_Class_1_Pod_2_ZN_1_FLR_1 Sys-3 Flr-1 Sch-D HPlcmt-south ZN NECB System 3 PSZ Occ Sch Tuesday, !- Tuesday Schedule:Day Name\n   *************   2263   Sp-Corner_Class_1_Pod_2_ZN_1_FLR_1 Sys-3 Flr-1 Sch-D HPlcmt-south ZN NECB System 3 PSZ Occ Sch Wednesday, !- Wednesday Schedule:Day Name\n   *************   2264   Sp-Corner_Class_1_Pod_2_ZN_1_FLR_1 Sys-3 Flr-1 Sch-D HPlcmt-south ZN NECB System 3 PSZ Occ Sch Thursday, !- Thursday Schedule:Day Name\n   ** Warning ** IP: IDF line~2264 Alpha Argument length exceeds maximum, will be truncated=  Sp-Corner_Class_1_Pod_2_ZN_1_FLR_1 Sys-3 Flr-1 Sch-D HPlcmt-south ZN NECB System 3 PSZ Occ Sch Thursda\n   **   ~~~   ** Will be processed as Alpha=SP-CORNER_CLASS_1_POD_2_ZN_1_FLR_1 SYS-3 FLR-1 SCH-D HPLCMT-SOUTH ZN NECB SYSTEM 3 PSZ OCC SCH THURSDAY\n   ************* IDF Context for following error/warning message:\n   ************* Note -- lines truncated at 300 characters, if necessary...\n   *************   2258 Schedule:Week:Daily,\n   ************* indicated Name=Schedule:Week:Daily {c214c7f3-7fc3-4723-88d3-0238b9e4a0da}\n   ************* Only last 7 lines before error line shown.....\n   *************   2259   Schedule:Week:Daily {c214c7f3-7fc3-4723-88d3-0238b9e4a0da}, !- Name\n   *************   2260   Sp-Corner_Class_1_Pod_2_ZN_1_FLR_1 Sys-3 Flr-1 Sch-D HPlcmt-south ZN NECB System 3 PSZ Occ Sch Sunday, !- Sunday Schedule:Day Name\n   *************   2261   Sp-Corner_Class_1_Pod_2_ZN_1_FLR_1 Sys-3 Flr-1 Sch-D HPlcmt-south ZN NECB System 3 PSZ Occ Sch Monday, !- Monday Schedule:Day Name\n   *************   2262   Sp-Corner_Class_1_Pod_2_ZN_1_FLR_1 Sys-3 Flr-1 Sch-D HPlcmt-south ZN NECB System 3 PSZ Occ Sch Tuesday, !- Tuesday Schedule:Day Name\n   *************   2263   Sp-Corner_Class_1_Pod_2_ZN_1_FLR_1 Sys-3 Flr-1 Sch-D HPlcmt-south ZN NECB System 3 PSZ Occ Sch Wednesday, !- Wednesday Schedule:Day Name\n   *************   2264   Sp-Corner_Class_1_Pod_2_ZN_1_FLR_1 Sys-3 Flr-1 Sch-D HPlcmt-south ZN NECB System 3 PSZ Occ Sch Thursday, !- Thursday Schedule:Day Name\n   *************   2265   Sp-Corner_Class_1_Pod_2_ZN_1_FLR_1 Sys-3 Flr-1 Sch-D HPlcmt-south ZN NECB System 3 PSZ Occ Sch Friday, !- Friday Schedule:Day Name\n   ** Warning ** IP: IDF line~2265 Alpha Argument length exceeds maximum, will be truncated=  Sp-Corner_Class_1_Pod_2_ZN_1_FLR_1 Sys-3 Flr-1 Sch-D HPlcmt-south ZN NECB System 3 PSZ Occ Sch Frida\n   **   ~~~   ** Will be processed as Alpha=SP-CORNER_CLASS_1_POD_2_ZN_1_FLR_1 SYS-3 FLR-1 SCH-D HPLCMT-SOUTH ZN NECB SYSTEM 3 PSZ OCC SCH FRIDAY\n   ************* IDF Context for following error/warning message:\n   ************* Note -- lines truncated at 300 characters, if necessary...\n   *************   2258 Schedule:Week:Daily,\n   ************* indicated Name=Schedule:Week:Daily {c214c7f3-7fc3-4723-88d3-0238b9e4a0da}\n   ************* Only last 8 lines before error line shown.....\n   *************   2259   Schedule:Week:Daily {c214c7f3-7fc3-4723-88d3-0238b9e4a0da}, !- Name\n   *************   2260   Sp-Corner_Class_1_Pod_2_ZN_1_FLR_1 Sys-3 Flr-1 Sch-D HPlcmt-south ZN NECB System 3 PSZ Occ Sch Sunday, !- Sunday Schedule:Day Name\n   *************   2261   Sp-Corner_Class_1_Pod_2_ZN_1_FLR_1 Sys-3 Flr-1 Sch-D HPlcmt-south ZN NECB System 3 PSZ Occ Sch Monday, !- Monday Schedule:Day Name\n   *************   2262   Sp-Corner_Class_1_Pod_2_ZN_1_FLR_1 Sys-3 Flr-1 Sch-D HPlcmt-south ZN NECB System 3 PSZ Occ Sch Tuesday, !- Tuesday Schedule:Day Name\n   *************   2263   Sp-Corner_Class_1_Pod_2_ZN_1_FLR_1 Sys-3 Flr-1 Sch-D HPlcmt-south ZN NECB System 3 PSZ Occ Sch Wednesday, !- Wednesday Schedule:Day Name\n   *************   2264   Sp-Corner_Class_1_Pod_2_ZN_1_FLR_1 Sys-3 Flr-1 Sch-D HPlcmt-south ZN NECB System 3 PSZ Occ Sch Thursday, !- Thursday Schedule:Day Name\n   *************   2265   Sp-Corner_Class_1_Pod_2_ZN_1_FLR_1 Sys-3 Flr-1 Sch-D HPlcmt-south ZN NECB System 3 PSZ Occ Sch Friday, !- Friday Schedule:Day Name\n   *************   2266   Sp-Corner_Class_1_Pod_2_ZN_1_FLR_1 Sys-3 Flr-1 Sch-D HPlcmt-south ZN NECB System 3 PSZ Occ Sch Saturday, !- Saturday Schedule:Day Name\n   ** Warning ** IP: IDF line~2266 Alpha Argument length exceeds maximum, will be truncated=  Sp-Corner_Class_1_Pod_2_ZN_1_FLR_1 Sys-3 Flr-1 Sch-D HPlcmt-south ZN NECB System 3 PSZ Occ Sch Saturda\n   **   ~~~   ** Will be processed as Alpha=SP-CORNER_CLASS_1_POD_2_ZN_1_FLR_1 SYS-3 FLR-1 SCH-D HPLCMT-SOUTH ZN NECB SYSTEM 3 PSZ OCC SCH SATURDAY\n   ************* IDF Context for following error/warning message:\n   ************* Note -- lines truncated at 300 characters, if necessary...\n   *************   2258 Schedule:Week:Daily,\n   ************* indicated Name=Schedule:Week:Daily {c214c7f3-7fc3-4723-88d3-0238b9e4a0da}\n   ************* Only last 9 lines before error line shown.....\n   *************   2259   Schedule:Week:Daily {c214c7f3-7fc3-4723-88d3-0238b9e4a0da}, !- Name\n   *************   2260   Sp-Corner_Class_1_Pod_2_ZN_1_FLR_1 Sys-3 Flr-1 Sch-D HPlcmt-south ZN NECB System 3 PSZ Occ Sch Sunday, !- Sunday Schedule:Day Name\n   *************   2261   Sp-Corner_Class_1_Pod_2_ZN_1_FLR_1 Sys-3 Flr-1 Sch-D HPlcmt-south ZN NECB System 3 PSZ Occ Sch Monday, !- Monday Schedule:Day Name\n   *************   2262   Sp-Corner_Class_1_Pod_2_ZN_1_FLR_1 Sys-3 Flr-1 Sch-D HPlcmt-south ZN NECB System 3 PSZ Occ Sch Tuesday, !- Tuesday Schedule:Day Name\n   *************   2263   Sp-Corner_Class_1_Pod_2_ZN_1_FLR_1 Sys-3 Flr-1 Sch-D HPlcmt-south ZN NECB System 3 PSZ Occ Sch Wednesday, !- Wednesday Schedule:Day Name\n   *************   2264   Sp-Corner_Class_1_Pod_2_ZN_1_FLR_1 Sys-3 Flr-1 Sch-D HPlcmt-south ZN NECB System 3 PSZ Occ Sch Thursday, !- Thursday Schedule:Day Name\n   *************   2265   Sp-Corner_Class_1_Pod_2_ZN_1_FLR_1 Sys-3 Flr-1 Sch-D HPlcmt-south ZN NECB System 3 PSZ Occ Sch Friday, !- Friday Schedule:Day Name\n   *************   2266   Sp-Corner_Class_1_Pod_2_ZN_1_FLR_1 Sys-3 Flr-1 Sch-D HPlcmt-south ZN NECB System 3 PSZ Occ Sch Saturday, !- Saturday Schedule:Day Name\n   *************   2267   Sp-Corner_Class_1_Pod_2_ZN_1_FLR_1 Sys-3 Flr-1 Sch-D HPlcmt-south ZN NECB System 3 PSZ Occ Sch Default, !- Holiday Schedule:Day Name\n   ** Warning ** IP: IDF line~2267 Alpha Argument length exceeds maximum, will be truncated=  Sp-Corner_Class_1_Pod_2_ZN_1_FLR_1 Sys-3 Flr-1 Sch-D HPlcmt-south ZN NECB System 3 PSZ Occ Sch Defaul\n   **   ~~~   ** Will be processed as Alpha=SP-CORNER_CLASS_1_POD_2_ZN_1_FLR_1 SYS-3 FLR-1 SCH-D HPLCMT-SOUTH ZN NECB SYSTEM 3 PSZ OCC SCH DEFAULT\n   ************* IDF Context for following error/warning message:\n   ************* Note -- lines truncated at 300 characters, if necessary...\n   *************   2258 Schedule:Week:Daily,\n   ************* indicated Name=Schedule:Week:Daily {c214c7f3-7fc3-4723-88d3-0238b9e4a0da}\n   ************* Only last 10 lines before error line shown.....\n   *************   2259   Schedule:Week:Daily {c214c7f3-7fc3-4723-88d3-0238b9e4a0da}, !- Name\n   *************   2260   Sp-Corner_Class_1_Pod_2_ZN_1_FLR_1 Sys-3 Flr-1 Sch-D HPlcmt-south ZN NECB System 3 PSZ Occ Sch Sunday, !- Sunday Schedule:Day Name\n   *************   2261   Sp-Corner_Class_1_Pod_2_ZN_1_FLR_1 Sys-3 Flr-1 Sch-D HPlcmt-south ZN NECB System 3 PSZ Occ Sch Monday, !- Monday Schedule:Day Name\n   *************   2262   Sp-Corner_Class_1_Pod_2_ZN_1_FLR_1 Sys-3 Flr-1 Sch-D HPlcmt-south ZN NECB System 3 PSZ Occ Sch Tuesday, !- Tuesday Schedule:Day Name\n   *************   2263   Sp-Corner_Class_1_Pod_2_ZN_1_FLR_1 Sys-3 Flr-1 Sch-D HPlcmt-south ZN NECB System 3 PSZ Occ Sch Wednesday, !- Wednesday Schedule:Day Name\n   *************   2264   Sp-Corner_Class_1_Pod_2_ZN_1_FLR_1 Sys-3 Flr-1 Sch-D HPlcmt-south ZN NECB System 3 PSZ Occ Sch Thursday, !- Thursday Schedule:Day Name\n   *************   2265   Sp-Corner_Class_1_Pod_2_ZN_1_FLR_1 Sys-3 Flr-1 Sch-D HPlcmt-south ZN NECB System 3 PSZ Occ Sch Friday, !- Friday Schedule:Day Name\n   *************   2266   Sp-Corner_Class_1_Pod_2_ZN_1_FLR_1 Sys-3 Flr-1 Sch-D HPlcmt-south ZN NECB System 3 PSZ Occ Sch Saturday, !- Saturday Schedule:Day Name\n   *************   2267   Sp-Corner_Class_1_Pod_2_ZN_1_FLR_1 Sys-3 Flr-1 Sch-D HPlcmt-south ZN NECB System 3 PSZ Occ Sch Default, !- Holiday Schedule:Day Name\n   *************   2268   Sp-Corner_Class_1_Pod_2_ZN_1_FLR_1 Sys-3 Flr-1 Sch-D HPlcmt-south ZN NECB System 3 PSZ Occ Sch Summer Design Day, !- SummerDesignDay Schedule:Day Name\n   ** Warning ** IP: IDF line~2268 Alpha Argument length exceeds maximum, will be truncated=  Sp-Corner_Class_1_Pod_2_ZN_1_FLR_1 Sys-3 Flr-1 Sch-D HPlcmt-south ZN NECB System 3 PSZ Occ Sch Summer Design Da\n   **   ~~~   ** Will be processed as Alpha=SP-CORNER_CLASS_1_POD_2_ZN_1_FLR_1 SYS-3 FLR-1 SCH-D HPLCMT-SOUTH ZN NECB SYSTEM 3 PSZ OCC SCH SUMMER DESIGN DAY\n   ************* IDF Context for following error/warning message:\n   ************* Note -- lines truncated at 300 characters, if necessary...\n   *************   2258 Schedule:Week:Daily,\n   ************* indicated Name=Schedule:Week:Daily {c214c7f3-7fc3-4723-88d3-0238b9e4a0da}\n   ************* Only last 10 lines before error line shown.....\n   *************   2260   Sp-Corner_Class_1_Pod_2_ZN_1_FLR_1 Sys-3 Flr-1 Sch-D HPlcmt-south ZN NECB System 3 PSZ Occ Sch Sunday, !- Sunday Schedule:Day Name\n   *************   2261   Sp-Corner_Class_1_Pod_2_ZN_1_FLR_1 Sys-3 Flr-1 Sch-D HPlcmt-south ZN NECB System 3 PSZ Occ Sch Monday, !- Monday Schedule:Day Name\n   *************   2262   Sp-Corner_Class_1_Pod_2_ZN_1_FLR_1 Sys-3 Flr-1 Sch-D HPlcmt-south ZN NECB System 3 PSZ Occ Sch Tuesday, !- Tuesday Schedule:Day Name\n   *************   2263   Sp-Corner_Class_1_Pod_2_ZN_1_FLR_1 Sys-3 Flr-1 Sch-D HPlcmt-south ZN NECB System 3 PSZ Occ Sch Wednesday, !- Wednesday Schedule:Day Name\n   *************   2264   Sp-Corner_Class_1_Pod_2_ZN_1_FLR_1 Sys-3 Flr-1 Sch-D HPlcmt-south ZN NECB System 3 PSZ Occ Sch Thursday, !- Thursday Schedule:Day Name\n   *************   2265   Sp-Corner_Class_1_Pod_2_ZN_1_FLR_1 Sys-3 Flr-1 Sch-D HPlcmt-south ZN NECB System 3 PSZ Occ Sch Friday, !- Friday Schedule:Day Name\n   *************   2266   Sp-Corner_Class_1_Pod_2_ZN_1_FLR_1 Sys-3 Flr-1 Sch-D HPlcmt-south ZN NECB System 3 PSZ Occ Sch Saturday, !- Saturday Schedule:Day Name\n   *************   2267   Sp-Corner_Class_1_Pod_2_ZN_1_FLR_1 Sys-3 Flr-1 Sch-D HPlcmt-south ZN NECB System 3 PSZ Occ Sch Default, !- Holiday Schedule:Day Name\n   *************   2268   Sp-Corner_Class_1_Pod_2_ZN_1_FLR_1 Sys-3 Flr-1 Sch-D HPlcmt-south ZN NECB System 3 PSZ Occ Sch Summer Design Day, !- SummerDesignDay Schedule:Day Name\n   *************   2269   Sp-Corner_Class_1_Pod_2_ZN_1_FLR_1 Sys-3 Flr-1 Sch-D HPlcmt-south ZN NECB System 3 PSZ Occ Sch Winter Design Day, !- WinterDesignDay Schedule:Day Name\n   ** Warning ** IP: IDF line~2269 Alpha Argument length exceeds maximum, will be truncated=  Sp-Corner_Class_1_Pod_2_ZN_1_FLR_1 Sys-3 Flr-1 Sch-D HPlcmt-south ZN NECB System 3 PSZ Occ Sch Winter Design Da\n   **   ~~~   ** Will be processed as Alpha=SP-CORNER_CLASS_1_POD_2_ZN_1_FLR_1 SYS-3 FLR-1 SCH-D HPLCMT-SOUTH ZN NECB SYSTEM 3 PSZ OCC SCH WINTER DESIGN DAY\n   ************* IDF Context for following error/warning message:\n   ************* Note -- lines truncated at 300 characters, if necessary...\n   *************   2258 Schedule:Week:Daily,\n   ************* indicated Name=Schedule:Week:Daily {c214c7f3-7fc3-4723-88d3-0238b9e4a0da}\n   ************* Only last 10 lines before error line shown.....\n   *************   2261   Sp-Corner_Class_1_Pod_2_ZN_1_FLR_1 Sys-3 Flr-1 Sch-D HPlcmt-south ZN NECB System 3 PSZ Occ Sch Monday, !- Monday Schedule:Day Name\n   *************   2262   Sp-Corner_Class_1_Pod_2_ZN_1_FLR_1 Sys-3 Flr-1 Sch-D HPlcmt-south ZN NECB System 3 PSZ Occ Sch Tuesday, !- Tuesday Schedule:Day Name\n   *************   2263   Sp-Corner_Class_1_Pod_2_ZN_1_FLR_1 Sys-3 Flr-1 Sch-D HPlcmt-south ZN NECB System 3 PSZ Occ Sch Wednesday, !- Wednesday Schedule:Day Name\n   *************   2264   Sp-Corner_Class_1_Pod_2_ZN_1_FLR_1 Sys-3 Flr-1 Sch-D HPlcmt-south ZN NECB System 3 PSZ Occ Sch Thursday, !- Thursday Schedule:Day Name\n   *************   2265   Sp-Corner_Class_1_Pod_2_ZN_1_FLR_1 Sys-3 Flr-1 Sch-D HPlcmt-south ZN NECB System 3 PSZ Occ Sch Friday, !- Friday Schedule:Day Name\n   *************   2266   Sp-Corner_Class_1_Pod_2_ZN_1_FLR_1 Sys-3 Flr-1 Sch-D HPlcmt-south ZN NECB System 3 PSZ Occ Sch Saturday, !- Saturday Schedule:Day Name\n   *************   2267   Sp-Corner_Class_1_Pod_2_ZN_1_FLR_1 Sys-3 Flr-1 Sch-D HPlcmt-south ZN NECB System 3 PSZ Occ Sch Default, !- Holiday Schedule:Day Name\n   *************   2268   Sp-Corner_Class_1_Pod_2_ZN_1_FLR_1 Sys-3 Flr-1 Sch-D HPlcmt-south ZN NECB System 3 PSZ Occ Sch Summer Design Day, !- SummerDesignDay Schedule:Day Name\n   *************   2269   Sp-Corner_Class_1_Pod_2_ZN_1_FLR_1 Sys-3 Flr-1 Sch-D HPlcmt-south ZN NECB System 3 PSZ Occ Sch Winter Design Day, !- WinterDesignDay Schedule:Day Name\n   *************   2270   Sp-Corner_Class_1_Pod_2_ZN_1_FLR_1 Sys-3 Flr-1 Sch-D HPlcmt-south ZN NECB System 3 PSZ Occ Sch Default, !- CustomDay1 Schedule:Day Name\n   ** Warning ** IP: IDF line~2270 Alpha Argument length exceeds maximum, will be truncated=  Sp-Corner_Class_1_Pod_2_ZN_1_FLR_1 Sys-3 Flr-1 Sch-D HPlcmt-south ZN NECB System 3 PSZ Occ Sch Defaul\n   **   ~~~   ** Will be processed as Alpha=SP-CORNER_CLASS_1_POD_2_ZN_1_FLR_1 SYS-3 FLR-1 SCH-D HPLCMT-SOUTH ZN NECB SYSTEM 3 PSZ OCC SCH DEFAULT\n   ************* IDF Context for following error/warning message:\n   ************* Note -- lines truncated at 300 characters, if necessary...\n   *************   2258 Schedule:Week:Daily,\n   ************* indicated Name=Schedule:Week:Daily {c214c7f3-7fc3-4723-88d3-0238b9e4a0da}\n   ************* Only last 10 lines before error line shown.....\n   *************   2262   Sp-Corner_Class_1_Pod_2_ZN_1_FLR_1 Sys-3 Flr-1 Sch-D HPlcmt-south ZN NECB System 3 PSZ Occ Sch Tuesday, !- Tuesday Schedule:Day Name\n   *************   2263   Sp-Corner_Class_1_Pod_2_ZN_1_FLR_1 Sys-3 Flr-1 Sch-D HPlcmt-south ZN NECB System 3 PSZ Occ Sch Wednesday, !- Wednesday Schedule:Day Name\n   *************   2264   Sp-Corner_Class_1_Pod_2_ZN_1_FLR_1 Sys-3 Flr-1 Sch-D HPlcmt-south ZN NECB System 3 PSZ Occ Sch Thursday, !- Thursday Schedule:Day Name\n   *************   2265   Sp-Corner_Class_1_Pod_2_ZN_1_FLR_1 Sys-3 Flr-1 Sch-D HPlcmt-south ZN NECB System 3 PSZ Occ Sch Friday, !- Friday Schedule:Day Name\n   *************   2266   Sp-Corner_Class_1_Pod_2_ZN_1_FLR_1 Sys-3 Flr-1 Sch-D HPlcmt-south ZN NECB System 3 PSZ Occ Sch Saturday, !- Saturday Schedule:Day Name\n   *************   2267   Sp-Corner_Class_1_Pod_2_ZN_1_FLR_1 Sys-3 Flr-1 Sch-D HPlcmt-south ZN NECB System 3 PSZ Occ Sch Default, !- Holiday Schedule:Day Name\n   *************   2268   Sp-Corner_Class_1_Pod_2_ZN_1_FLR_1 Sys-3 Flr-1 Sch-D HPlcmt-south ZN NECB System 3 PSZ Occ Sch Summer Design Day, !- SummerDesignDay Schedule:Day Name\n   *************   2269   Sp-Corner_Class_1_Pod_2_ZN_1_FLR_1 Sys-3 Flr-1 Sch-D HPlcmt-south ZN NECB System 3 PSZ Occ Sch Winter Design Day, !- WinterDesignDay Schedule:Day Name\n   *************   2270   Sp-Corner_Class_1_Pod_2_ZN_1_FLR_1 Sys-3 Flr-1 Sch-D HPlcmt-south ZN NECB System 3 PSZ Occ Sch Default, !- CustomDay1 Schedule:Day Name\n   *************   2271   Sp-Corner_Class_1_Pod_2_ZN_1_FLR_1 Sys-3 Flr-1 Sch-D HPlcmt-south ZN NECB System 3 PSZ Occ Sch Default; !- CustomDay2 Schedule:Day Name\n   ** Warning ** IP: IDF line~2271 Alpha Argument length exceeds maximum, will be truncated=  Sp-Corner_Class_1_Pod_2_ZN_1_FLR_1 Sys-3 Flr-1 Sch-D HPlcmt-south ZN NECB System 3 PSZ Occ Sch Defaul\n   **   ~~~   ** Will be processed as Alpha=SP-CORNER_CLASS_1_POD_2_ZN_1_FLR_1 SYS-3 FLR-1 SCH-D HPLCMT-SOUTH ZN NECB SYSTEM 3 PSZ OCC SCH DEFAULT\n   ************* IDF Context for following error/warning message:\n   ************* Note -- lines truncated at 300 characters, if necessary...\n   *************   2282 Schedule:Day:Interval,\n   ************* indicated Name=Sp-Corner_Class_1_Pod_2_ZN_1_FLR_1 Sys-3 Flr-1 Sch-D HPlcmt-south ZN NECB System 3 PSZ Occ Sch Default\n   ************* Only last 1 lines before error line shown.....\n   *************   2283   Sp-Corner_Class_1_Pod_2_ZN_1_FLR_1 Sys-3 Flr-1 Sch-D HPlcmt-south ZN NECB System 3 PSZ Occ Sch Default, !- Name\n   ** Warning ** IP: IDF line~2283 Alpha Argument length exceeds maximum, will be truncated=  Sp-Corner_Class_1_Pod_2_ZN_1_FLR_1 Sys-3 Flr-1 Sch-D HPlcmt-south ZN NECB System 3 PSZ Occ Sch Defaul\n   **   ~~~   ** Will be processed as Alpha=SP-CORNER_CLASS_1_POD_2_ZN_1_FLR_1 SYS-3 FLR-1 SCH-D HPLCMT-SOUTH ZN NECB SYSTEM 3 PSZ OCC SCH DEFAULT\n   ************* IDF Context for following error/warning message:\n   ************* Note -- lines truncated at 300 characters, if necessary...\n   *************   2289 Schedule:Day:Interval,\n   ************* indicated Name=Sp-Corner_Class_1_Pod_2_ZN_1_FLR_1 Sys-3 Flr-1 Sch-D HPlcmt-south ZN NECB System 3 PSZ Occ Sch Summer Design Day\n   ************* Only last 1 lines before error line shown.....\n   *************   2290   Sp-Corner_Class_1_Pod_2_ZN_1_FLR_1 Sys-3 Flr-1 Sch-D HPlcmt-south ZN NECB System 3 PSZ Occ Sch Summer Design Day, !- Name\n   ** Warning ** IP: IDF line~2290 Alpha Argument length exceeds maximum, will be truncated=  Sp-Corner_Class_1_Pod_2_ZN_1_FLR_1 Sys-3 Flr-1 Sch-D HPlcmt-south ZN NECB System 3 PSZ Occ Sch Summer Design Da\n   **   ~~~   ** Will be processed as Alpha=SP-CORNER_CLASS_1_POD_2_ZN_1_FLR_1 SYS-3 FLR-1 SCH-D HPLCMT-SOUTH ZN NECB SYSTEM 3 PSZ OCC SCH SUMMER DESIGN DAY\n   ************* IDF Context for following error/warning message:\n   ************* Note -- lines truncated at 300 characters, if necessary...\n   *************   2296 Schedule:Day:Interval,\n   ************* indicated Name=Sp-Corner_Class_1_Pod_2_ZN_1_FLR_1 Sys-3 Flr-1 Sch-D HPlcmt-south ZN NECB System 3 PSZ Occ Sch Winter Design Day\n   ************* Only last 1 lines before error line shown.....\n   *************   2297   Sp-Corner_Class_1_Pod_2_ZN_1_FLR_1 Sys-3 Flr-1 Sch-D HPlcmt-south ZN NECB System 3 PSZ Occ Sch Winter Design Day, !- Name\n   ** Warning ** IP: IDF line~2297 Alpha Argument length exceeds maximum, will be truncated=  Sp-Corner_Class_1_Pod_2_ZN_1_FLR_1 Sys-3 Flr-1 Sch-D HPlcmt-south ZN NECB System 3 PSZ Occ Sch Winter Design Da\n   **   ~~~   ** Will be processed as Alpha=SP-CORNER_CLASS_1_POD_2_ZN_1_FLR_1 SYS-3 FLR-1 SCH-D HPLCMT-SOUTH ZN NECB SYSTEM 3 PSZ OCC SCH WINTER DESIGN DAY\n   ************* IDF Context for following error/warning message:\n   ************* Note -- lines truncated at 300 characters, if necessary...\n   *************   2569 Schedule:Day:Interval,\n   ************* indicated Name=Sp-Corner_Class_1_Pod_3_ZN_1_FLR_1 Sys-3 Flr-1 Sch-D HPlcmt-south ZN NECB System 3 PSZ Occ Sch Sunday\n   ************* Only last 1 lines before error line shown.....\n   *************   2570   Sp-Corner_Class_1_Pod_3_ZN_1_FLR_1 Sys-3 Flr-1 Sch-D HPlcmt-south ZN NECB System 3 PSZ Occ Sch Sunday, !- Name\n   ** Warning ** IP: IDF line~2570 Alpha Argument length exceeds maximum, will be truncated=  Sp-Corner_Class_1_Pod_3_ZN_1_FLR_1 Sys-3 Flr-1 Sch-D HPlcmt-south ZN NECB System 3 PSZ Occ Sch Sunda\n   **   ~~~   ** Will be processed as Alpha=SP-CORNER_CLASS_1_POD_3_ZN_1_FLR_1 SYS-3 FLR-1 SCH-D HPLCMT-SOUTH ZN NECB SYSTEM 3 PSZ OCC SCH SUNDAY\n   ************* IDF Context for following error/warning message:\n   ************* Note -- lines truncated at 300 characters, if necessary...\n   *************   2576 Schedule:Day:Interval,\n   ************* indicated Name=Sp-Corner_Class_1_Pod_3_ZN_1_FLR_1 Sys-3 Flr-1 Sch-D HPlcmt-south ZN NECB System 3 PSZ Occ Sch Monday\n   ************* Only last 1 lines before error line shown.....\n   *************   2577   Sp-Corner_Class_1_Pod_3_ZN_1_FLR_1 Sys-3 Flr-1 Sch-D HPlcmt-south ZN NECB System 3 PSZ Occ Sch Monday, !- Name\n   ** Warning ** IP: IDF line~2577 Alpha Argument length exceeds maximum, will be truncated=  Sp-Corner_Class_1_Pod_3_ZN_1_FLR_1 Sys-3 Flr-1 Sch-D HPlcmt-south ZN NECB System 3 PSZ Occ Sch Monda\n   **   ~~~   ** Will be processed as Alpha=SP-CORNER_CLASS_1_POD_3_ZN_1_FLR_1 SYS-3 FLR-1 SCH-D HPLCMT-SOUTH ZN NECB SYSTEM 3 PSZ OCC SCH MONDAY\n   ************* IDF Context for following error/warning message:\n   ************* Note -- lines truncated at 300 characters, if necessary...\n   *************   2591 Schedule:Day:Interval,\n   ************* indicated Name=Sp-Corner_Class_1_Pod_3_ZN_1_FLR_1 Sys-3 Flr-1 Sch-D HPlcmt-south ZN NECB System 3 PSZ Occ Sch Tuesday\n   ************* Only last 1 lines before error line shown.....\n   *************   2592   Sp-Corner_Class_1_Pod_3_ZN_1_FLR_1 Sys-3 Flr-1 Sch-D HPlcmt-south ZN NECB System 3 PSZ Occ Sch Tuesday, !- Name\n   ** Warning ** IP: IDF line~2592 Alpha Argument length exceeds maximum, will be truncated=  Sp-Corner_Class_1_Pod_3_ZN_1_FLR_1 Sys-3 Flr-1 Sch-D HPlcmt-south ZN NECB System 3 PSZ Occ Sch Tuesda\n   **   ~~~   ** Will be processed as Alpha=SP-CORNER_CLASS_1_POD_3_ZN_1_FLR_1 SYS-3 FLR-1 SCH-D HPLCMT-SOUTH ZN NECB SYSTEM 3 PSZ OCC SCH TUESDAY\n   ************* IDF Context for following error/warning message:\n   ************* Note -- lines truncated at 300 characters, if necessary...\n   *************   2606 Schedule:Day:Interval,\n   ************* indicated Name=Sp-Corner_Class_1_Pod_3_ZN_1_FLR_1 Sys-3 Flr-1 Sch-D HPlcmt-south ZN NECB System 3 PSZ Occ Sch Wednesday\n   ************* Only last 1 lines before error line shown.....\n   *************   2607   Sp-Corner_Class_1_Pod_3_ZN_1_FLR_1 Sys-3 Flr-1 Sch-D HPlcmt-south ZN NECB System 3 PSZ Occ Sch Wednesday, !- Name\n   ** Warning ** IP: IDF line~2607 Alpha Argument length exceeds maximum, will be truncated=  Sp-Corner_Class_1_Pod_3_ZN_1_FLR_1 Sys-3 Flr-1 Sch-D HPlcmt-south ZN NECB System 3 PSZ Occ Sch Wednesda\n   **   ~~~   ** Will be processed as Alpha=SP-CORNER_CLASS_1_POD_3_ZN_1_FLR_1 SYS-3 FLR-1 SCH-D HPLCMT-SOUTH ZN NECB SYSTEM 3 PSZ OCC SCH WEDNESDAY\n   ************* IDF Context for following error/warning message:\n   ************* Note -- lines truncated at 300 characters, if necessary...\n   *************   2621 Schedule:Day:Interval,\n   ************* indicated Name=Sp-Corner_Class_1_Pod_3_ZN_1_FLR_1 Sys-3 Flr-1 Sch-D HPlcmt-south ZN NECB System 3 PSZ Occ Sch Thursday\n   ************* Only last 1 lines before error line shown.....\n   *************   2622   Sp-Corner_Class_1_Pod_3_ZN_1_FLR_1 Sys-3 Flr-1 Sch-D HPlcmt-south ZN NECB System 3 PSZ Occ Sch Thursday, !- Name\n   ** Warning ** IP: IDF line~2622 Alpha Argument length exceeds maximum, will be truncated=  Sp-Corner_Class_1_Pod_3_ZN_1_FLR_1 Sys-3 Flr-1 Sch-D HPlcmt-south ZN NECB System 3 PSZ Occ Sch Thursda\n   **   ~~~   ** Will be processed as Alpha=SP-CORNER_CLASS_1_POD_3_ZN_1_FLR_1 SYS-3 FLR-1 SCH-D HPLCMT-SOUTH ZN NECB SYSTEM 3 PSZ OCC SCH THURSDAY\n   ************* IDF Context for following error/warning message:\n   ************* Note -- lines truncated at 300 characters, if necessary...\n   *************   2636 Schedule:Day:Interval,\n   ************* indicated Name=Sp-Corner_Class_1_Pod_3_ZN_1_FLR_1 Sys-3 Flr-1 Sch-D HPlcmt-south ZN NECB System 3 PSZ Occ Sch Friday\n   ************* Only last 1 lines before error line shown.....\n   *************   2637   Sp-Corner_Class_1_Pod_3_ZN_1_FLR_1 Sys-3 Flr-1 Sch-D HPlcmt-south ZN NECB System 3 PSZ Occ Sch Friday, !- Name\n   ** Warning ** IP: IDF line~2637 Alpha Argument length exceeds maximum, will be truncated=  Sp-Corner_Class_1_Pod_3_ZN_1_FLR_1 Sys-3 Flr-1 Sch-D HPlcmt-south ZN NECB System 3 PSZ Occ Sch Frida\n   **   ~~~   ** Will be processed as Alpha=SP-CORNER_CLASS_1_POD_3_ZN_1_FLR_1 SYS-3 FLR-1 SCH-D HPLCMT-SOUTH ZN NECB SYSTEM 3 PSZ OCC SCH FRIDAY\n   ************* IDF Context for following error/warning message:\n   ************* Note -- lines truncated at 300 characters, if necessary...\n   *************   2651 Schedule:Day:Interval,\n   ************* indicated Name=Sp-Corner_Class_1_Pod_3_ZN_1_FLR_1 Sys-3 Flr-1 Sch-D HPlcmt-south ZN NECB System 3 PSZ Occ Sch Saturday\n   ************* Only last 1 lines before error line shown.....\n   *************   2652   Sp-Corner_Class_1_Pod_3_ZN_1_FLR_1 Sys-3 Flr-1 Sch-D HPlcmt-south ZN NECB System 3 PSZ Occ Sch Saturday, !- Name\n   ** Warning ** IP: IDF line~2652 Alpha Argument length exceeds maximum, will be truncated=  Sp-Corner_Class_1_Pod_3_ZN_1_FLR_1 Sys-3 Flr-1 Sch-D HPlcmt-south ZN NECB System 3 PSZ Occ Sch Saturda\n   **   ~~~   ** Will be processed as Alpha=SP-CORNER_CLA
[...]
ToG+24tOg78Pi06Bv0eLToO9L5NOgb1nk06DvZuTToG905NOooc41t0fyadRQ55qbKvk0aljJNbZKp1H6hpJqtmrxChMGCdpWsUnQncEmQfcFmwRtq9gkaFvFJkHbKjYJ2laxSdDTLZuExlbxadDTLZ8GPd3yadC2ik+DtlV8GrSt4tOgbRWfBm2r+DRoW8WnUUOda2wVn0YNda6xVXwaNazkGlul0yjdCL6arVrsFM8gQdsqNgm6M9gk6L5gk6BtFZsEbavYJGhbxSZB2yo2CXq6ZZPQ2Co+DXq65dOgp1s+DdpW8WnQtopPg7ZVfBq0reLToG0VnwZtq/g0aqhzja3i06ihzjW2ik+jhpVcY6t0GqX77VazVYsNeRkkaFvFJkF3BpsE3RdsErStYpOgbRWbBG2r2CRoW8UmQU+3bBIaW8WnQU+3fBr0dMunQdsqPg3aVvFp0LaKT4O2VXwatK3i06BtFZ9GDXWusVV8GjXUucZW8WnUsJJrbJVOo3Rbw2q2arHvIYMEbavYJOjOYJOg+4JNgrZVbBK0rWKToG0VmwRtq9gk6OmWTUK72RqXhm63Ki4N3UZWXBq6Pa64NHTbX3Fp6PZ849LQbQfHpaHbKY5LQ7eJHJdGDXWu3XqOS6OGOtduWMelUcNKrrFVK43vVXZ4Xe7oLI5FJO9XO8gWG8c20rtxs9gBtnSr2NW20KnM3sezyE8b3XZTOE63KTrqJ7dbbbvZhxzjabdr3+95mRzHyfzkIUgX2yo/XX+FvafzBBeJL5PLmdrluPKJimP+kuOT9NJZIhcYaqPmZbtveN9vhBFGGGGEEUYYYYQRRhhhhBFGGGGEEUYYYYQRRhhhhBFGGGGEEUYYYYQRRhhhhBFGGGGEEUYYYYQRRhhhhBFGGGGEEUYYYYT/UuG5Hd/JJAl8+clTD9Y6dvt/fF5VPRqbvnw09komgUyXj9dazdUDxNMwzuwwiGTpI7Lpa8/plj9Zm9rFq+encehlQRzlUFaayWlrIEdxIq1qTz5/lGMZ+S8vaPFZY6/dFB315HJbPcis/rFCOcoUWEnqVVq7P5bZWZSp9sklRrNoWJA2tsUfJSlWhPLp7OvSZ7nVEYxEI5sEqZ0WvVJNSB3PTrLz9jvzhpPGf4BNs63w1aPjOfsyb38ap4FKeJp/XOVqVodK8wpVEt+bIa2wgsiXqh5aTtPw7NVxs+6Jo0CGarw1lm26qJNxEs+m0hc//yz+tvz8we5PvHT5/LsqsO3n0fmr0bxBbG88PlcadiijcTYR74Qr/imskzC0xNHLb6RhMJSNlrN93f6+XVpvf7qSOBGNm/xS2r+Im1xmOVSXuuqzv+czjnkHqUMN42W+65vv9g85F8fHx4vGWy9jkXXZ7Teml7o6Bon0fqxz8qPhOabfV+21vLpjNazVYFiOlGIjB7vvpWkwjqTfU1tEpNdFS35frylXHT2dpZPGun2Rd+nRoj/Xr6QwPKpylbb65roqaZbEP2Q1ncV311WKp94wyObVpJZfXvuqComV1LpZVhPJy2llnfIwnnzUsSrnlxOPaAnHNJtJuVVnfWwWq2ql7z+WeQp17OyIL79/Ff+++P1SXF1cfv3t86/i48Wvv/XEh7PLs2oJzvNZWz54yqKJLBZpnGQimt3m42Aoii1NUuGlw9y8BNG4QsZV26s8z1ZmrykG1SeXRGazJBJTL0nleRh7WcNTU/523pXPPhsUn1VqzHKL9kx2eQlliR83u9PLk/8syr0o9saWL0feLMzENInzOUxuNcXWTwcHvd7Z2daGN54BDnCAAxzgAAc4wAEOcIADnL8mjkhnt/l/gYUv1YfC9+aKKJE+aEADGtCABjSgAQ1oQAMa0IBGT3Nf3Jr1XzSDcCaBAxzgAAc4wAEOcIADHOAABzjr4Dy9N9BR7w28mlHvDew4xV/YTk52dw8PQQpSkIIUpCAFKUhBClKQghSkIAXp2yB1C1Ivo0jbBWmn47oHeyAFKUhBClKQghSkIAUpSEEKUpCC9G2QdhTpeRIQpO5hQeo4+/udDkhBClKQghSkIAUpSEEKUpCCFKQgfRuku4r062RGkR4UpIf50X0PUpCCFKQgBSlIQQpSkIIUpCAFKUjfBmlXkf5L+hTpfkF6etrr7e+DFKQgBSlIQQpSkIIUpCAFKUhBCtK3QbpX/GZiJinSvYK019vbAylIQQpSkIIUpCAFKUhBClKQghSkb4V0X5F+iqmdBd1uQXpw4LrdLkhBClKQghSkIAUpSEEKUpCCFKQgrY10heIn3n2jNNmDnQVZKK8m3lTamXzIGlsf4lmSlmPM/3zmaXArozSIo1CmRYaSFDs74sT3hSeKTOI+yCYijW+l8DslZ6Z3Y9ubTmXkNyylbW2XnLA6bC/Lkob1YDXFXtvwpHl+klv9pDSbh3KB1/Ki4SRO8vOtUI4MaJc5RnGUte5lMJ5kKscgDv3qORZ9czVtfZqFWb8X5mO07/S/xH6/0//2Of/x/ONl3xFX87TVEedh0sp/Hk5ap+LDl3B4m7XSeJb3y7fP4vNZ7736WiZvRUd8ufomLoZD9d2tbV1Pv9tJh0kwzf5Bfufdjh/cvR4mz6GT5blE4B9bQ1UGvbzlvCCSSd9xupYo2vPY8oN0GnrzoyAK81hrEMbDH79YNGCedXENIptP8/NVk+7ceHfe4lPtmeq48xI1ZMWx8IPbaSjtSN5f3Y0b1k+vQDbFbrtd/FNagyqv72Venvj6Dyv0BjK0jixfjry8q8U0iUdBKK3mItJ/sI4cu9207rxwJpc/D9VUlZ+Tzz693tmZ9dislMdlytNhyrPLlKfLlGePKc8+U54DpjyHTHmcNlcirhHtcA1ph2tMO1yD2uEa1Q7XsHa4xrXDNbAdrpHtco1sl22u5hrZLtfIdo1Gtkhnt7cv3l1daUVLpG+QhmwjszRkC5mlIdvHLA1Z92ZpyKo3S0PWvFkasuLN0pD1bpaGXsgM8zCNY3oZM8zDNJLpRcwwD9NYppcwwzxMo5lewAzzMI1nevkyzMM1LzONZ3rtMsxTfTzfB1FmvmwN1EfV85DNY5iHbB7DPGTzGOYhy90wD1nuhnnIcjfMQ5a7YR6y3A3z0OuXaSKuEU2vYKaJuMY0vYaZJuIa1fQqZpqIa1zT65hpIq6RTa9kponY5mqukU0vZqaJqo/spz9mlL5smFrm2i/+o7d4GzGDhLt5ic7mJXY3L9HdvMTe5iX2Ny9xsHmJw81LvFjZN6VRQ307NRS4U0OFOzWUuFNDjTs1FLlTQ5U7NZS5U0OduzXUuVvHOl5Dnbs11Lm7Xp2XvtOxmq1avPSRQYLuDTYJujPYJOi+YJOgp1w2CXrGZZOgJ1w2CXq+ZZOgp1s2CY2t4tOoob41topPo4YK19gqPo0aalxjq/g0aqhyja3i06ihzjW2ik+jjnW8hjrX2Co+jfXqvPTVWdVs1eLdWgwSdG+wSdCdwSZB9wWbBD3lsknQMy6bBD3hsknQ8y2bBD3dsklobgjk06DvqOLToG+24tOg78Pi06Bv0eLToO9L5NOgb1nk06DvZuTToG905NOooc41t0fyadRQ55qbKvk0aljJNbZKp1H6hpJqtmrxChMGCdpWsUnQncEmQfcFmwRtq9gkaFvFJkHbKjYJ2laxSdDTLZuExlbxadDTLZ8GPd3yadC2ik+DtlV8GrSt4tOgbRWfBm2r+DRoW8WnUUOda2wVn0YNda6xVXwaNazkGlul0yjdCL6arVrsFM8gQdsqNgm6M9gk6L5gk6BtFZsEbavYJGhbxSZB2yo2CXq6ZZPQ2Co+DXq65dOgp1s+DdpW8WnQtopPg7ZVfBq0reLToG0VnwZtq/g0aqhzja3i06ihzjW2ik+jhpVcY6t0GqX77VazVYsNeRkkaFvFJkF3BpsE3RdsErStYpOgbRWbBG2r2CRoW8UmQU+3bBIaW8WnQU+3fBr0dMunQdsqPg3aVvFp0LaKT4O2VXwatK3i06BtFZ9GDXWusVV8GjXUucZW8WnUsJJrbJVOo3Rbw2q2arHvIYMEbavYJOjOYJOg+4JNgrZVbBK0rWKToG0VmwRtq9gk6OmWTUK72RqXhm63Ki4N3UZWXBq6Pa64NHTbX3Fp6PZ849LQbQfHpaHbKY5LQ7eJHJdGDXWu3XqOS6OGOtduWMelUcNKrrFVK43vVXZ4Xe7oLI5FJO9XO8gWG8c20rtxs9gBtnSr2NW20KnM3sezyE8b3XZTOE63KTrqJ7dbbbvZhxzjabdr3+95mRzHyfzkIUgX2yo/XX+FvafzBBeJL5PLmdrluPKJimP+kuOT9NJZIhcYaqPmZbtveN9vhBFGGGGEEUYYYYQRRhhhhBFGGGGEEUYYYYQRRhhhhBFGGGGEEUYYYYQRRhhhhBFGGGGEEUYYYYQRRhhhhBFGGGGEEUYYYYT/UuG5Hd/JJAl8+clTD9Y6dvt/fF5VPRqbvnw09komgUyXj9dazdUDxNMwzuwwiGTpI7Lpa8/plj9Zm9rFq+encehlQRzlUFaayWlrIEdxIq1qTz5/lGMZ+S8vaPFZY6/dFB315HJbPcis/rFCOcoUWEnqVVq7P5bZWZSp9sklRrNoWJA2tsUfJSlWhPLp7OvSZ7nVEYxEI5sEqZ0WvVJNSB3PTrLz9jvzhpPGf4BNs63w1aPjOfsyb38ap4FKeJp/XOVqVodK8wpVEt+bIa2wgsiXqh5aTtPw7NVxs+6Jo0CGarw1lm26qJNxEs+m0hc//yz+tvz8we5PvHT5/LsqsO3n0fmr0bxBbG88PlcadiijcTYR74Qr/imskzC0xNHLb6RhMJSNlrN93f6+XVpvf7qSOBGNm/xS2r+Im1xmOVSXuuqzv+czjnkHqUMN42W+65vv9g85F8fHx4vGWy9jkXXZ7Teml7o6Bon0fqxz8qPhOabfV+21vLpjNazVYFiOlGIjB7vvpWkwjqTfU1tEpNdFS35frylXHT2dpZPGun2Rd+nRoj/Xr6QwPKpylbb65roqaZbEP2Q1ncV311WKp94wyObVpJZfXvuqComV1LpZVhPJy2llnfIwnnzUsSrnlxOPaAnHNJtJuVVnfWwWq2ql7z+WeQp17OyIL79/Ff+++P1SXF1cfv3t86/i48Wvv/XEh7PLs2oJzvNZWz54yqKJLBZpnGQimt3m42Aoii1NUuGlw9y8BNG4QsZV26s8z1ZmrykG1SeXRGazJBJTL0nleRh7WcNTU/523pXPPhsUn1VqzHKL9kx2eQlliR83u9PLk/8syr0o9saWL0feLMzENInzOUxuNcXWTwcHvd7Z2daGN54BDnCAAxzgAAc4wAEOcIADnL8mjkhnt/l/gYUv1YfC9+aKKJE+aEADGtCABjSgAQ1oQAMa0IBGT3Nf3Jr1XzSDcCaBAxzgAAc4wAEOcIADHOAABzjr4Dy9N9BR7w28mlHvDew4xV/YTk52dw8PQQpSkIIUpCAFKUhBClKQghSkIAXp2yB1C1Ivo0jbBWmn47oHeyAFKUhBClKQghSkIAUpSEEKUpCC9G2QdhTpeRIQpO5hQeo4+/udDkhBClKQghSkIAUpSEEKUpCCFKQgfRuku4r062RGkR4UpIf50X0PUpCCFKQgBSlIQQpSkIIUpCAFKUjfBmlXkf5L+hTpfkF6etrr7e+DFKQgBSlIQQpSkIIUpCAFKUhBCtK3QbpX/GZiJinSvYK019vbAylIQQpSkIIUpCAFKUhBClKQghSkb4V0X5F+iqmdBd1uQXpw4LrdLkhBClKQghSkIAUpSEEKUpCCFKQgrY10heIn3n2jNNmDnQVZKK8m3lTamXzIGlsf4lmSlmPM/3zmaXArozSIo1CmRYaSFDs74sT3hSeKTOI+yCYijW+l8DslZ6Z3Y9ubTmXkNyylbW2XnLA6bC/Lkob1YDXFXtvwpHl+klv9pDSbh3KB1/Ki4SRO8vOtUI4MaJc5RnGUte5lMJ5kKscgDv3qORZ9czVtfZqFWb8X5mO07/a/xH7f6X/7nP9z/vGy74iredrqiPMwaeU/DyetU/HhSzi8zVpRnOT98u2z+HzWe6++lslb0RFfrr6Ji+FQfXdrW9fT73bSYRJMs3+Q33m34wd3r4fJc+hkeS4R+MfWUJVBL285L4hk0necPUsU7Xls+UE6Db35URCFeaw1COPhj18sGjDPurgGkc2n+fmqSXduvDtv8an2THXceYkasuJY+MHtNJR2JO+v7sYN66dXIJtit90u/imtQZXX9zIvT3z9hxV6AxlaR5YvR17e1WKaxKMglFZzEek/WEeO3W5ad144k8ufh2qqys/JZ59e7+zMemxWyuMy5ekw5dllytNlyrPHlGefKc8BU55DpjxOmysR14h2uIa0wzWmHa5B7XCNaodrWDtc49rhGtgO18h2uUa2yzZXc41sl2tku0YjW6Sz29sX766utKIl0jdIQ7aRWRqyhczSkO1jloase7M0ZNWbpSFr3iwNWfFmach6N0tDL2SGeZjGMb2MGeZhGsn0ImaYh2ks00uYYR6m0UwvYIZ5mMYzvXwZ5uGal5nGM712GeapPp7vgygzX7YG6qPqecjmMcxDNo9hHrJ5DPOQ5W6Yhyx3wzxkuRvmIcvdMA9Z7oZ56PXLNBHXiKZXMNNEXGOaXsNME3GNanoVM03ENa7pdcw0EdfIplcy00RsczXXyKYXM9NE1Uf20x8zSl82TC1z7Rf/0Vu8jZhBwt28RGfzErubl+huXmJv8xL7m5c42LzE4eYlXqzsm9Koob6dGgrcqaHCnRpK3Kmhxp0aitypocqdGsrcqaHO3Rrq3K1jHa+hzt0a6txdr85L3+lYzVYtXvrIIEH3BpsE3RlsEnRfsEnQUy6bBD3jsknQEy6bBD3fsknQ0y2bhMZW8WnUUN8aW8WnUUOFa2wVn0YNNa6xVXwaNVS5xlbxadRQ5xpbxadRxzpeQ51rbBWfxnp1XvrqrGq2avFuLQYJujfYJOjOYJOg+4JNgp5y2SToGZdNgp5w2STo+ZZNgp5u2SQ0NwTyadB3VPFp0Ddb8WnQ92HxadC3aPFp0Pcl8mnQtyzyadB3M/Jp0Dc68mnUUOea2yP5NGqoc81NlXwaNazkGlul0yh9Q0k1W7V4hQmDBG2r2CTozmCToPuCTYK2VWwStK1ik6BtFZsEbavYJOjplk1CY6v4NOjplk+Dnm75NGhbxadB2yo+DdpW8WnQtopPg7ZVfBq0reLTqKHONbaKT6OGOtfYKj6NGlZyja3SaZRuBF/NVi12imeQoG0VmwTdGWwSdF+wSdC2ik2CtlVsErStYpOgbRWbBD3dsklobBWfBj3d8mnQ0y2fBm2r+DRoW8WnQdsqPg3aVvFp0LaKT4O2VXwaNdS5xlbxadRQ5xpbxadRw0qusVU6jdL9dqvZqsWGvAwStK1ik6A7g02C7gs2CdpWsUnQtopNgrZVbBK0rWKToKdbNgmNreLToKdbPg16uuXToG0VnwZtq/g0aFvFp0HbKj4N2lbxadC2ik+jhjrX2Co+jRrqXGOr+DRqWMk1tkqnUbqtYTVbtdj3kEGCtlVsEnRnsEnQfcEmQdsqNgnaVrFJ0LaKTYK2VWwS9HTLJqHdbI1LQ7dbFZeGbiMrLg3dHldcGrrtr7g0dHu+cWnotoPj0tDtFMelodtEjkujhjrXbj3HpVFDnWs3rOPSqGEl19iqlcb3Kju8Lnd0FscikverHWSLjWMb6d24WewAW7pV7Gpb6FRm7+NZ5KeNbrspHKfbFB31k9uttt3sQ47xtNu17/e8TI7jZH7yEKSLbZWfrr/C3tN5govEl8nlTO1yXPlExTF/yfFJeukskQsMtVHzst03vO83wggjjDDCCCOMMMIII4wwwggjjDDCCCOMMMIII4wwwggjjDDCCCOMMMIII4wwwggjjDDCCCOMMMIII4wwwggjjDDCCCOMMMJ/qfDcju9kkgS+/OSpB2sdu/0/Pq+qHo1NXz4aeyWTQKbLx2ut5uoB4mkYZ3YYRLL0Edn0ted0y5+sTe3i1fPTOPSyII5yKCvN5LQ1kKM4kVa1J58/yrGM/JcXtPissdduio56crmtHmRW/1ihHGUKrCT1Kq3dH8vsLMpU++QSo1k0LEgb2+KPkhQrQvl09nXps9zqCEaikU2C1E6LXqkmpI5nJ9l5+515w0njP8Cm2Vb46tHxnH2Ztz+N00AlPM0/rnI1q0OleYUqie/NkFZYQeRLVQ8tp2l49uq4WffEUSBDNd4ayzZd1Mk4iWdT6YuffxZ/W37+YPcnXrp8/l0V2Pbz6PzVaN4gtjcenysNO5TROJuId8IV/xTWSRha4ujlN9IwGMpGy9m+bn/fLq23P11JnIjGTX4p7V/ETS6zHKpLXfXZ3/MZx7yD1KGG8TLf9c13+4eci+Pj40XjrZexyLrs9hvTS10dg0R6P9Y5+dHwHNPvq/ZaXt2xGtZqMCxHSrGRg9330jQYR9LvqS0i0uuiJb+v15Srjp7O0klj3b7Iu/Ro0Z/rV1IYHlW5Slt9c12VNEviH7KazuK76yrFU28YZPNqUssvr31VhcRKat0sq4nk5bSyTnkYTz7qWJXzy4lHtIRjms2k3KqzPjaLVbXS9x/LPIU6dnbEl9+/in9f/H4pri4uv/72+Vfx8eLX33riw9nlWbUE5/msLR88ZdFEFos0TjIRzW7zcTAUxZYmqfDSYW5egmhcIeOq7VWeZyuz1xSD6pNLIrNZEompl6TyPIy9rOGpKX8778pnnw2Kzyo1ZrlFeya7vISyxI+b3enlyX8W5V4Ue2PLlyNvFmZimsT5HCa3mmLrp4ODXu/sbGvDG88ABzjAAQ5wgAMc4AAHOMABzl8TR6Sz2/y/wMKX6kPhe3NFlEgfNKABDWhAAxrQgAY0oAENaECjp7kvbs36L5pBOJPAAQ5wgAMc4AAHOMABDnCAA5x1cJ7eG+io9wZezaj3Bnac4i9sJye7u4eHIAUpSEEKUpCCFKQgBSlIQQpSkIL0bZC6BamXUaTtgrTTcd2DPZCCFKQgBSlIQQpSkIIUpCAFKUhB+jZIO4r0PAkIUvewIHWc/f1OB6QgBSlIQQpSkIIUpCAFKUhBClKQvg3SXUX6dTKjSA8K0sP86L4HKUhBClKQghSkIAUpSEEKUpCCFKRvg7SrSP8lfYp0vyA9Pe319vdBClKQghSkIAUpSEEKUpCCFKQgBenbIN0rfjMxkxTpXkHa6+3tgRSkIAUpSEEKUpCCFKQgBSlIQQrSt0K6r0g/xdTOgm63ID04cN1uF6QgBSlIQQpSkIIUpCAFKUhBClKQ1ka6QvET775RmuzBzoIslFcTbyrtTD5kja0P8SxJyzHmfz7zNLiVURrEUSjTIkNJip0dceL7whNFJnEfZBORxrdS+J2SM9O7se1NpzLyG5bStrZLTlgdtpdlScN6sJpir2140jw/ya1+UprNQ7nAa3nRcBIn+flWKEcGtMscozjKWvcyGE8ylWMQh371HIu+uZq2Pv1/e+fb27aRdfH3z6eYZYFGRiVZpPy/cReOYjcFkjiwUyw2RiDQ4kiiQ5ECSdkWCn/35VCU12p8SY50ya77HL5wHF3xnB9n5s7cRORo5sX9npeM0b7V/xQ4yc8vH/tm/+z9Rd8Ul/Oo1RVnXthKfh+MW2/Fu0/eYBK3/CBM+uXLR/HxtPdGvS2WE9EVny6/iPPBQL331VZeT7/ejgahO41/Id/zettxb58Pk+fQYomWcJ1jY6DSoJe0nO36Muyb5r4h0vY8Nhw3mnr2/Mj1vSTWuvaCwbefDRowUV1cg4jn0+R81aTbN/atvXg190x13NqhGrLiWDjuZOrJti/vLm9HDeOHZyCbYqfTSX8U5qDSdezYToSv/jA8+1p6xpHhyKGddLWYhsHQ9aTRXET698aR2e40jVvbm8ns94GaqpJzktmn1zs9NR6apXQsJp0uk84Ok84uk84ek84+k84Bk84hk47Z4RLiGtEm15A2uca0yTWoTa5RbXINa5NrXJtcA9vkGtkW18i22OZqrpFtcY1sS2tki2g2max8d3WpFS2UjoYM2UZ6MmQL6cmQ7aMnQ+a9ngyZ9XoyZM7ryZAZrydD5rueDL2QaeowjWN6GdPUYRrJ9CKmqcM0luklTFOHaTTTC5imDtN4ppcvTR2ueZlpPNNrl6ZO+fF85/qx/rJ1rV4qr0M2j6YO2TyaOmTzaOqQ6a6pQ6a7pg6Z7po6ZLpr6pDprqlDr1+6Qlwjml7BdIW4xjS9hukKcY1qehXTFeIa1/Q6pivENbLplUxXiG2u5hrZ9GKmK1R+ZD9+mFH4ZcPUMtdZ+Yfe4tuIGSys6i261VvsVG+xW73FXvUW+9VbHFRvcVi9xcrKXpVHDflt1pDgZg0ZbtaQ4mYNOW7WkORmDVlu1pDmZg15btWQ51Yd63gNeW7VkOfWenle+J2O5cqqxZc+MljQvcFmQXcGmwXdF2wW9JTLZkHPuGwW9ITLZkHPt2wW9HTLZpFTVvF51JDfOWUVn0cNGZ5TVvF51JDjOWUVn0cNWZ5TVvF51JDnOWUVn0cd63gNeZ5TVvF5rJfnhV+dVa6sWny3FoMF3RtsFnRnsFnQfcFmQU+5bBb0jMtmQU+4bBb0fMtmQU+3bBY5NwTyedB3VPF50Ddb8XnQ92HxedC3aPF50Pcl8nnQtyzyedB3M/J50Dc68nnUkOc5t0fyedSQ5zk3VfJ51LCS55RVeR6F31BSrqxafIUJgwVdVrFZ0J3BZkH3BZsFXVaxWdBlFZsFXVaxWdBlFZsFPd2yWeSUVXwe9HTL50FPt3wedFnF50GXVXwedFnF50GXVXwedFnF50GXVXweNeR5TlnF51FDnueUVXweNazkOWVVnkfhRvDlyqrFTvEMFnRZxWZBdwabBd0XbBZ0WcVmQZdVbBZ0WcVmQZdVbBb0dMtmkVNW8XnQ0y2fBz3d8nnQZRWfB11W8XnQZRWfB11W8XnQZRWfB11W8XnUkOc5ZRWfRw15nlNW8XnUsJLnlFV5HoX77ZYrqxYb8jJY0GUVmwXdGWwWdF+wWdBlFZsFXVaxWdBlFZsFXVaxWdDTLZtFTlnF50FPt3we9HTL50GXVXwedFnF50GXVXwedFnF50GXVXwedFnF51FDnueUVXweNeR5TlnF51HDSp5TVuV5FG5rWK6sWux7yGBBl1VsFnRnsFnQfcFmQZdVbBZ0WcVmQZdVbBZ0WcVmQU+3bBa5m61xeeTtVsXlkbeRFZdH3h5XXB55219xeeTt+cblkbcdHJdH3k5xXB55m8hxedSQ57lbz3F51JDnuRvWcXnUsJLnlFVLj69ldnjNdnQWx8KXd8sdZNONYxvR7aiZ7gBbuFXsclvoSMZvgpnvRI3dTlOY5m5TdNVv1m657WbvE4zH3a4dp2fHchSE85N7N1psq/x4/SX2nk4EzkNHhhcztctx6RMVx3yV44O0o1koFxhqo+as3Sve9xthhBFGGGGEEUYYYYQRRhhhhBFGGGGEEUYYYYQRRhhhhBFGGGGEEUYYYYQRRhhhhBFGGGGEEUYYYYQRRhhhhBFGGGGEEUYY4b9VeN4ObmUYuo78YKsHa812Z8PnVdWjsdHqo7GXMnRllD1eazSXDxBPvSBue64vCx+RjZ57Trf4ydqonX71/DTw7NgN/ATKiGI5bV3LYRBKo9yTz+/lSPrO6gUtXmvsdZqiq55c7qgHmdUPw5PDWIEVSC9l2/2RjE/9WLVPYjGc+YOUtLEl/iiQWBLKx7OvCp/lVoc7FI147EbtKO2VckbqeHJSO2m/U3swbvwXWFdtia8eHU/YM93+NIhcJfg2ebnM1SwPJfMMVRjc6SEtsVzfkSofWmZT8+zlcbPuiUNXemq8NbI2XeTJKAxmU+mIH38U/8hev2/3x3aUPf+uEmzraXT+bDRpkLY9Gp0pj7Yn/VE8Fq+FJf4pjBPPM8TR6jsizx3IRsvcuup83SrMt++uJAhF4ya5lM7P4iaxyYZq5qte+ymZcfQ7SB1qGGd6Vzdf29/kXBwfHy8abz3FVDXr9hvdS10e16G0v61z8oPmObrvV+2VXd2xGtZqMGQjJd3Iod23o8gd+dLpqS0ioqu0Jb+u15TLjp7OonFj3b5IuvRo0Z/rZ5LnHZW5yrZ657ouURwG32Q5n8V713UKpvbAjeflrLI3r31VqcXSal2V5USyOq2skx7ak486lum8OvGIljB11XTSrTzrQzNdVUu9/6GoplDH9rb49Ptn8e/z3y/E5fnF598+/iren//6W0+8O704LSdwlsza8t5WJZqIAxEFYSz82SQZBwORbmkSCTsaJMWL649KKC7bXuk8WZntprguP7mEMp6FvpjaYSTPvMCOG7aa8reSrnzy2nX6WqnGLC7Rnthml1Ak/FDtTi+P9Wea7mmyN145cmjPvFhMwyCZw+Srpnj1w8FBr3d6+qrijWeAAxzgAAc4wAEOcIADHOAA5++JI6LZJPknsHCkelE49lwRhdIBDWhAAxrQgAY0oAENaEADGtDk09ylt2b9iebam0ngAAc4wAEOcIADHOAABzjAAc46OI/fG2iq7w28nFHfG9g100/YTk52dg4PQQpSkIIUpCAFKUhBClKQghSkIAXpyyC1UlI7pkg7KWm3a1kHeyAFKUhBClKQghSkIAUpSEEKUpCC9GWQdhXpWegSpNZhSmqa+/vdLkhBClKQghSkIAUpSEEKUpCCFKQgfRmkO4r083hGkR6kpIfJsfsGpCAFKUhBClKQghSkIAUpSEEKUpC+DNJdRfov6VCk+ynp27e93v4+SEEKUpCCFKQgBSlIQQpSkIIUpCB9GaR76f9MzCRFupeS9np7eyAFKUhBClKQghSkIAUpSEEKUpCC9KWQ7ivSDwG1s6C1m5IeHFjW7i5IQQpSkIIUpCAFKUhBClKQghSkIK2NdInihPZdo1Dsvh27sScvx/ZUtmN5HzdevQtmYVSMMf/+zLfuRPqRG/iejFKFAontbXHiOMIWqZK4c+OxiIKJFE634MzodtS2p1PpOw1DeRtbBScsj7Ydx2HDuDeaYq+jedI8Ockqf1IUzz25wGvZ/mAchMn5hieHGrSZxjDw49addEfjWGlcB55TXmPRN5fT1oeZF/d7XjJG+1b/U+D0u/0vH/tm/+z9Rd8Ul/Oo1RVnXthKfh+MW2/Fu0/eYBK3/CBM+uXLR/HxtPdGvS2WE9EVny6/iPPBQL331VZeT7/ejgahO41/Id/zettxb58Pk+fQYomWcJ1jY6DSoJe0nO36Muyb5oEh0vY8Nhw3mnr2/Mj1vSTWuvaCwbefDRowUV1cg4jn0+R81aTbN/atvXg190x13NqhGrLiWDjuZOrJti/vLm9HDeOHZyCbYqfTSX8U5qDSdezYToSv/jA8+1p6xpHhyKGddLWYhsHQ9aTRXET698aR2e40jVvbm8ns94GaqpJzktmn1zs9NR6apXQsJp0uk84Ok84uk84ek84+k84Bk84hk47Z4RLiGtEm15A2uca0yTWoTa5RbXINa5NrXJtcA9vkGtkW18i22OZqrpFtcY1sS2tki2g2max8d3WpFS2UjoYM2UZ6MmQL6cmQ7aMnQ+a9ngyZ9XoyZM7ryZAZrydD5rueDL2QaeowjWN6GdPUYRrJ9CKmqcM0luklTFOHaTTTC5imDtN4ppcvTR2ueZlpPNNrl6ZO+fF85/qx/rJ1rV4qr0M2j6YO2TyaOmTzaOqQ6a6pQ6a7pg6Z7po6ZLpr6pDprqlDr1+6Qlwjml7BdIW4xjS9hukKcY1qehXTFeIa1/Q6pivENbLplUxXiG2u5hrZ9GKmK1R+ZD9+mFH4ZcPUMtdZ+Yfe4tuIGSys6i261VvsVG+xW73FXvUW+9VbHFRvcVi9xcrKXpVHDflt1pDgZg0ZbtaQ4mYNOW7WkORmDVlu1pDmZg15btWQ51Yd63gNeW7VkOfWenle+J2O5cqqxZc+MljQvcFmQXcGmwXdF2wW9JTLZkHPuGwW9ITLZkHPt2wW9HTLZpFTVvF51JDfOWUVn0cNGZ5TVvF51JDjOWUVn0cNWZ5TVvF51JDnOWUVn0cd63gNeZ5TVvF5rJfnhV+dVa6sWny3FoMF3RtsFnRnsFnQfcFmQU+5bBb0jMtmQU+4bBb0fMtmQd8bxWaRc0Mgnwd9RxWfB32zFZ8HfR8Wnwd9ixafB31fIp8Hfcsinwd9NyOfB32jI59HDXmeU1bxedSxjtewkOeUVXwe6y3lhd9QUq6sWnyFCYMF3RtsFnRnsFnQfcFmQZdVbBZ0WcVmQZdVbBZ0WcVmQU+3bBY5ZRWfB11W8XnQZRWfB11W8XnQZRWfB11W8XnQZRWfB11W8XnQZRWfRw15nlNW8XnUsY7XsJDnlFV8Hust5YUbwZcrqxY7xTNY0L3BZkF3BpsF3RdsFnRZxWZBl1VsFnRZxWZBl1VsFvR0y2aRU1bxedBlFZ8HXVbxedBlFZ8HXVbxedBlFZ8HXVbxedBlFZ8HXVbxedSQ5zllFZ9HHet4DQt5TlnF57HeUl643265smqxIS+DBd0bbBZ0Z7BZ0H3BZkGXVWwWdFnFZkGXVWwWdFnFZkFPt2wWOWUVnwddVvF50GUVnwddVvF50GUVnwddVvF50GUVnwddVvF50GUVn0cNeZ5TVvF51LGO17CQ55RVfB7rLeWF2xqWK6sW+x4yWNC9wWZBdwabBd0XbBZ0WcVmQZdVbBZ0WcVmQZdVbBZ5+04xWeRutsblkbdbFZdH3kZWXB55e1xxeeRtf8XlkbfnG5dH3nZwXB55O8VxeeRtIsflUUOe55RVfB51rOM1LOQ5ZRWfR/FS/rXMDq/Zjs7iWPjybrmDbLpxbCO6HTXTHWALt4pdbgsdyfhNMPOdqLHbaQrT3G2KrvrN2i233ex9gvG427Xj9OxYjoJwfnLvRottlR+vv8Te04nAeejI8GKmdjkufaLimK9yfJB2NAvlAkNt1Jy1e8X7fiOMMMIII4wwwggjjDDCCCOMMMIII4wwwggjjDDCCCOMMMIII4wwwggjjDDCCCOMMMIII4wwwggjjDDCCCOMMMIII4wwwggj/LcKz9vBrQxD15EfbPVgrdnubPi8qno0Nlp9NPZShq6MssdrjebyAeKpF8Rtz/Vl4SOy0XPP6RY/WRu106+enwaeHbuBn0AZUSynrWs5DEJplHvy+b0cSd9ZvaDFa429TlN01ZPLHfUgs/pheHIYK7AC6aVsuz+S8akfq/ZJLIYzf5CSNrbEHwUSS0L5ePZV4bPc6nCHohGP3agdpb1SzkgdT05qJ+13ag/Gjf8C66ot8dWj4wl7ptufBpGrBN8mL5e5muWhZJ6hCoM7PaQllus7UuVDy2xqnr08btY9cehKT423RtamizwZhcFsKh3x44/iH9nr9+3+2I6y599Vgm09jc6fjSYN0rZHozPl0fakP4rH4rWwxD+FceJ5hjhafUfkuQPZaJlbV52vW4X59t2VBKFo3CSX0vlZ3CQ22VDNfNVrPyUzjn4HqUMN40zv6uZr+5uci+Pj40XjraeYqmbdfqN7qcvjOpT2t3VOftA8R/f9qr2yqztWw1oNhmykpBs5tPt2FLkjXzo9tUVEdJW25Nf1mnLZ0dNZNG6s2xdJlx4t+nP9TPK8ozJX2VbvXNclisPgmyzns3jvuk7B1B648bycVfbmta8qtVharauynEhWp5V10kN78lHHMp1XJx7REqaumk66lWd9aKaraqn3PxTVFOrY3haffv8s/n3++4W4PL/4/NvHX8X7819/64l3pxen5QTOkllb3tuqRBNxIKIgjIU/myTjYCDSLU0iYUeDpHhx/VEJxWXbK50nK7PdFNflJ5dQxrPQF1M7jOSZF9hxw1ZT/lbSlU9eu05fK9WYxSXaE9vsEoqEH6rd6eWx/kzTPU32xitHDu2ZF4tpGCRzmHzVFK9+ODjo9U5PX1W88QxwgAMc4AAHOMABDnCAAxzg/D1xRDSbJP8EFo5ULwrHniuiUDqgAQ1oQAMa0IAGNKABDWhAA5p8mrv01qw/0Vx7Mwkc4AAHOMABDnCAAxzgAAc4wFkH5/F7A031vYGXM+p7A7tm+gnbycnOzuEhSEEKUpCCFKQgBSlIQQpSkIIUpCB9GaRWSmrHFGknJe12LetgD6QgBSlIQQpSkIIUpCAFKUhBClKQvgzSriI9C12C1DpMSU1zf7/bBSlIQQpSkIIUpCAFKUhBClKQghSkL4N0R5F+Hs8o0oOU9DA5dt+AFKQgBSlIQQpSkIIUpCAFKUhBCtKXQbqrSP8lHYp0PyV9+7bX298HKUhBClKQghSkIAUpSEEKUpCCFKQvg3Qv/Z+JmaRI91LSXm9vD6QgBSlIQQpSkIIUpCAFKUhBClKQvhTSfUX6IaB2FrR2U9KDA8va3QUpSEEKUpCCFKQgBSlIQQpSkIIUpLWRLlGc0L5rFIrdt2M39uTl2J7Kdizv48ard8EsjIox5t+f+dadSD9yA9+TUapQILG9LU4cR9giVRJ3bjwWUTCRwukWnBndjtr2dCp9p2Eob2Or4ITl0bbjOGwY90ZT7HU0T5onJ1nlT4riuScXeC3bH4yDMDnf8ORQgzbTGAZ+3LqT7mgcK43rwHPKayz65nLaOh8O3YGM+l8+9s3+2fuLviku51GrK868sJX8Phi3TsS7T95gErekHcXiy0fx8bT3Rr0rlhPRFZ8uv4jzwUC99dVWXu++3o4GoTuNfyHf83rbcW+fD5Pn0GKJlnCdY2Oghn4vaS3b9WXYN81DQ6RteGw4bjT17PmR63tJrHXtBYNvPxs0YKK6uAYRz6fJ+aoZt2/sW3vxau6Z6ri1QzVMxbFw3MnUk21f3l3ejhrGD89ANsVOp5P+KMw7pevYsZ0IX/1hePa19Iwjw5FDe+bFYhoGQ9eTRnMR6d8bR2a70zRubW8mjaO9w/bhk+PgsGkM1GSVKCTzT693emo8NEupWpWoditR3alEdbcS1b1KVPcrUT2oRPWwElWzU41sNdllVpNeZjX5ZVaTYGY1GWZWk2JmNTlmVpNkZjVZZlWTZVZFa1g1WWZVk2XWBlkmotlksvL932tUCKF0NERLtq2eaMmW1RMt2a56oiXnLj3RkjOXnmjJeUtPtOSspSdacs7SEy1bGGiqVpJTZcsCTdVKsqpsUaCpWklelS0JNFUryayyBYGmaiW5VbYc0FStZr2qJLfK1gKaquvm1p3rx5uWAdfqDeVVSzarpmrJZtVULdmsmqolpyxN1ZJTlqZqySlLU7XklKWpWnLK0lQtWw/oylaTXWUrAl3ZavKrbE2gK1tNhpWtCnRlq8mxsnWBrmw1WVa2MtCVrWgNqybLyhYHurJaWfa1zAcO2YeK4lj48m75gUb6OUYjuh010w8kCj+5WH4yGcn4TTDznaix22kK09xtiq76zdot9+nHfYLx+IGr4/TsWI6CcH5y70aLT/Yem6LEx5+JwHnoyPBipj5oK32i4pivcnyQdjQL5QJDfVaYdcGmH+imHyStWl3K0JVRhps4ZR0y9YK4rT7dKrSMnrvuYtKonY67aeDZsRv4CZQRxXLaupbDIJRGuZH0Xo6k76xe0OK1xl4yCrpqJKgPw0z1I/u8tPCj5KVsuz+S8akfq/ZJLIYzf5CSNrbEHyU+MFWE8vHsq8LcUIc7FI147EbJuFbnlTNSx5OT2kn7ndqDceO/wLpqS/zss8FMtz8NIlcJvk1eLnM1y0PJPEMVBnd6SEss13ekStyW2dQ8e3ncrHvi0JWeGm+NrE0XeTIKg9lUOuLHH8U/stfv2/2xHWXziUqwrafR+bPRpEHa9mh0pjzanvRH8Vi8Fpb4pzBOPM8QR6vviDx3IBstc+uq83WrMN++u5IgFI2b5FI6P4ubxCYbqpmveu2nY2Hqd5A61DDO9K5uvra/yWR6Oz5eNN56iqlq1u03upe6PK5DaX9b5+QHzXN036/aK7u6YzWs1WDIRkq6MLb7i5uBpJPeDhRdpS35db2mXHb0dBaNG+v2RdKlR4v+XD+TPO+ozFW21TvXdYniMPgmy/ks3ruuUzC1B248L2eVvXntq0otllbrqiwnktVpZZ300J581LFM59WJR7SEqaumk27lWR+a6apa6v0PRTWFOra3xaffP4t/n/9+IS7PLz7/9vFX8f7819964t3pxWk5gbNk1pb3tirRRByIKEgKaX82ScbBQKQlYiTsaJAUL64/KqG4bHul82RltpviuvzkEsp4FvpiaoeRPPMCO27YasrfSrryyWvX6WulGrO4RHtim11CkfDDX3DT5p8+gM3uzFQfqP4l95ACBzjAAQ5wgAMc4AAHOMABzovH+f4GF0UUSgc0oAENaEADGtCABjSgAQ1oQJNP890tgYpG3eIHHOAABzjAAQ5wgAMc4AAHOMD5C7dK/CwnUxna8SyUonG2hc0S/6c2S/yXrUbcO5n+cTK5dqUfC9VlaudD6cyS9m+J/c7Zy9gE0eq8gE0QE8i6NkFMHz1ddxMmJp0uk84Ok84uk84ek84+k84Bk84hk87K7gIbCXGNaJNrSJtcY9rkGtQm16g2uYa1yTWuTa6BbXKNbItrZFtsczXXyLa4RralNbLLb9q3IrX+Nn0byJAttP5WfBvIkHm//nZ7G8iQOb/+lnobyJD5vsG2eZvoMI1jehnbYDO8TXSYhjK9hm2wxd0mOkyjmV7ANti4bpN5kGk806vXBtvRbaLDNJ7ppWv9TeZWZDbYVm4THbJ5Ntg6bhMdMt032B5uEx0y3TfYAm4THTLdN9nmbSMhrhFNr2CbbN62kRDXoKYXsU22ZNtIiGtc0+vYJhutbTQzco1seinbZPu0jYS4Rja9mmFTtBexKRrCCCOMMMIII4wwwggjjDDCCCOMMML/S+F5O7iVYeg68oOt/qPKbHewKf6TK8Gm+I8HNsXXOrApPjbF1ziwKf6fD2yK/+cDm+JrHtgUH5viP3tgU3zgAAc4wAEOcIADHOAABzjAAc5L2FISNKABDWhAAxrQgAY0oAENaF4Ozf+brSyBAxzgAAc4wAEOcIADHOAAZ32/v2BT/LfuRPqRG/iejCJsif+/tSV+EH4Tp8OhO3ClP5g/boRf7xb42bv/FHn69+Xviz8f1bNfHv+4Dpy5+nMcT7xf/u8/Zf/DFw=="
               },
               {
                  "name" : "annual_peak_electric_demand",
                  "units" : "kW",
                  "value" : 226.31454000000002
               },
               {
                  "name" : "first_year_capital_cost",
                  "units" : "$",
                  "value" : 0
               },
               {
                  "name" : "annual_utility_cost",
                  "units" : "$",
                  "value" : 0
               },
               {
                  "name" : "total_lifecycle_cost",
                  "units" : "$",
                  "value" : 0
               }
            ],
            "step_warnings" : []
         }
      }
   ],
   "updated_at" : "20170710T191453Z",
   "weather_file" : "USA_CO_Denver.Intl.AP.725650_TMY3.epw"
}
