{
   "completed_at" : "20170710T184922Z",
   "completed_status" : "Success",
   "created_at" : "2017-07-10 18:47:16 +0000",
   "current_step" : 5,
   "description" : "",
   "eplusout_err" : "Program Version,EnergyPlus, Version 8.7.0-78a111df4a, YMD=2017.07.10 18:48,IDD_Version 8.7.0\n   ************* IDF Context for following error/warning message:\n   ************* Note -- lines truncated at 300 characters, if necessary...\n   *************      5 Building,\n   ************* indicated Name=NECB 2011-SmallOffice-NECB HDD Method-CAN_SK_Estevan.718620_CWEC.epw created: 2017-07-10 18:47:22 +0000\n   ************* Only last 1 lines before error line shown.....\n   *************      6   NECB 2011-SmallOffice-NECB HDD Method-CAN_SK_Estevan.718620_CWEC.epw created: 2017-07-10 18:47:22 +0000, !- Name\n   ** Warning ** IP: IDF line~6 Alpha Argument length exceeds maximum, will be truncated=  NECB 2011-SmallOffice-NECB HDD Method-CAN_SK_Estevan.718620_CWEC.epw created: 2017-07-10 18:47:22 +000\n   **   ~~~   ** Will be processed as Alpha=NECB 2011-SMALLOFFICE-NECB HDD METHOD-CAN_SK_ESTEVAN.718620_CWEC.EPW CREATED: 2017-07-10 18:47:22 +0000\n   ************* Beginning Zone Sizing Calculations\n   ** Warning ** ProcessScheduleInput: Schedule:Day:Interval=\"ECONOMIZER MAX OA FRACTION 100 PCT DEFAULT\", Blank Schedule Type Limits Name input -- will not be validated.\n   ** Warning ** ProcessScheduleInput: Schedule:Day:Interval=\"SCHEDULE DAY 1\", Blank Schedule Type Limits Name input -- will not be validated.\n   ** Warning ** ProcessScheduleInput: Schedule:Day:Interval=\"SCHEDULE DAY 10\", Blank Schedule Type Limits Name input -- will not be validated.\n   ** Warning ** ProcessScheduleInput: Schedule:Day:Interval=\"SCHEDULE DAY 11\", Blank Schedule Type Limits Name input -- will not be validated.\n   ** Warning ** ProcessScheduleInput: Schedule:Day:Interval=\"SCHEDULE DAY 12\", Blank Schedule Type Limits Name input -- will not be validated.\n   ** Warning ** ProcessScheduleInput: Schedule:Day:Interval=\"SCHEDULE DAY 13\", Blank Schedule Type Limits Name input -- will not be validated.\n   ** Warning ** ProcessScheduleInput: Schedule:Day:Interval=\"SCHEDULE DAY 14\", Blank Schedule Type Limits Name input -- will not be validated.\n   ** Warning ** ProcessScheduleInput: Schedule:Day:Interval=\"SCHEDULE DAY 15\", Blank Schedule Type Limits Name input -- will not be validated.\n   ** Warning ** ProcessScheduleInput: Schedule:Day:Interval=\"SCHEDULE DAY 16\", Blank Schedule Type Limits Name input -- will not be validated.\n   ** Warning ** ProcessScheduleInput: Schedule:Day:Interval=\"SCHEDULE DAY 17\", Blank Schedule Type Limits Name input -- will not be validated.\n   ** Warning ** ProcessScheduleInput: Schedule:Day:Interval=\"SCHEDULE DAY 18\", Blank Schedule Type Limits Name input -- will not be validated.\n   ** Warning ** ProcessScheduleInput: Schedule:Day:Interval=\"SCHEDULE DAY 19\", Blank Schedule Type Limits Name input -- will not be validated.\n   ** Warning ** ProcessScheduleInput: Schedule:Day:Interval=\"SCHEDULE DAY 2\", Blank Schedule Type Limits Name input -- will not be validated.\n   ** Warning ** ProcessScheduleInput: Schedule:Day:Interval=\"SCHEDULE DAY 20\", Blank Schedule Type Limits Name input -- will not be validated.\n   ** Warning ** ProcessScheduleInput: Schedule:Day:Interval=\"SCHEDULE DAY 21\", Blank Schedule Type Limits Name input -- will not be validated.\n   ** Warning ** ProcessScheduleInput: Schedule:Day:Interval=\"SCHEDULE DAY 22\", Blank Schedule Type Limits Name input -- will not be validated.\n   ** Warning ** ProcessScheduleInput: Schedule:Day:Interval=\"SCHEDULE DAY 23\", Blank Schedule Type Limits Name input -- will not be validated.\n   ** Warning ** ProcessScheduleInput: Schedule:Day:Interval=\"SCHEDULE DAY 5\", Blank Schedule Type Limits Name input -- will not be validated.\n   ** Warning ** ProcessScheduleInput: Schedule:Day:Interval=\"SCHEDULE DAY 6\", Blank Schedule Type Limits Name input -- will not be validated.\n   ** Warning ** ProcessScheduleInput: Schedule:Day:Interval=\"SCHEDULE DAY 7\", Blank Schedule Type Limits Name input -- will not be validated.\n   ** Warning ** ProcessScheduleInput: Schedule:Day:Interval=\"SCHEDULE DAY 8\", Blank Schedule Type Limits Name input -- will not be validated.\n   ** Warning ** ProcessScheduleInput: Schedule:Day:Interval=\"SCHEDULE DAY 9\", Blank Schedule Type Limits Name input -- will not be validated.\n   ** Warning ** ProcessScheduleInput: Schedule:Year=\"ECONOMIZER MAX OA FRACTION 100 PCT\", Blank Schedule Type Limits Name input -- will not be validated.\n   ** Warning ** ProcessScheduleInput: Schedule:Year=\"SCHEDULE RULESET 10\", Blank Schedule Type Limits Name input -- will not be validated.\n   ** Warning ** ProcessScheduleInput: Schedule:Year=\"SCHEDULE RULESET 11\", Blank Schedule Type Limits Name input -- will not be validated.\n   ** Warning ** ProcessScheduleInput: Schedule:Year=\"SCHEDULE RULESET 12\", Blank Schedule Type Limits Name input -- will not be validated.\n   ** Warning ** ProcessScheduleInput: Schedule:Year=\"SCHEDULE RULESET 13\", Blank Schedule Type Limits Name input -- will not be validated.\n   ** Warning ** ProcessScheduleInput: Schedule:Year=\"SCHEDULE RULESET 14\", Blank Schedule Type Limits Name input -- will not be validated.\n   ** Warning ** ProcessScheduleInput: Schedule:Year=\"SCHEDULE RULESET 15\", Blank Schedule Type Limits Name input -- will not be validated.\n   ** Warning ** ProcessScheduleInput: Schedule:Year=\"SCHEDULE RULESET 16\", Blank Schedule Type Limits Name input -- will not be validated.\n   ** Warning ** ProcessScheduleInput: Schedule:Year=\"SCHEDULE RULESET 17\", Blank Schedule Type Limits Name input -- will not be validated.\n   ** Warning ** ProcessScheduleInput: Schedule:Year=\"SCHEDULE RULESET 3\", Blank Schedule Type Limits Name input -- will not be validated.\n   ** Warning ** ProcessScheduleInput: Schedule:Year=\"SCHEDULE RULESET 4\", Blank Schedule Type Limits Name input -- will not be validated.\n   ** Warning ** ProcessScheduleInput: Schedule:Year=\"SCHEDULE RULESET 5\", Blank Schedule Type Limits Name input -- will not be validated.\n   ** Warning ** ProcessScheduleInput: Schedule:Year=\"SCHEDULE RULESET 6\", Blank Schedule Type Limits Name input -- will not be validated.\n   ** Warning ** ProcessScheduleInput: Schedule:Year=\"SCHEDULE RULESET 7\", Blank Schedule Type Limits Name input -- will not be validated.\n   ** Warning ** ProcessScheduleInput: Schedule:Year=\"SCHEDULE RULESET 8\", Blank Schedule Type Limits Name input -- will not be validated.\n   ** Warning ** ProcessScheduleInput: Schedule:Year=\"SCHEDULE RULESET 9\", Blank Schedule Type Limits Name input -- will not be validated.\n   ** Warning ** ProcessScheduleInput: Schedule:Constant=\"ALWAYS OFF DISCRETE\", Blank Schedule Type Limits Name input -- will not be validated.\n   ** Warning ** ProcessScheduleInput: Schedule:Constant=\"ALWAYS ON CONTINUOUS\", Blank Schedule Type Limits Name input -- will not be validated.\n   ** Warning ** CheckUsedConstructions: There are 22 nominally unused constructions in input.\n   **   ~~~   ** For explicit details on each unused construction, use Output:Diagnostics,DisplayExtraWarnings;\n   ************* Beginning System Sizing Calculations\n   ************* Beginning Plant Sizing Calculations\n   ** Warning ** GetDXCoils: Coil:Cooling:DX:SingleSpeed=\"COIL COOLING DX SINGLE SPEED 5 16KBTU/HR 14.0SEER\", invalid\n   **   ~~~   ** ...Part Load Fraction Correlation Curve Name = DXCOOL-NECB2011-REF-COOLPLFFPLR 4 has out of range value.\n   **   ~~~   ** ...Curve maximum must be <= 1.0, curve max at PLR = 0.99 is 1.015\n   **   ~~~   ** ...Setting curve maximum to 1.0 and simulation continues.\n   ** Warning ** GetDXCoils: Coil:Cooling:DX:SingleSpeed=\"COIL COOLING DX SINGLE SPEED 4 20KBTU/HR 14.0SEER\", invalid\n   **   ~~~   ** ...Part Load Fraction Correlation Curve Name = DXCOOL-NECB2011-REF-COOLPLFFPLR 3 has out of range value.\n   **   ~~~   ** ...Curve maximum must be <= 1.0, curve max at PLR = 0.99 is 1.015\n   **   ~~~   ** ...Setting curve maximum to 1.0 and simulation continues.\n   ** Warning ** GetDXCoils: Coil:Cooling:DX:SingleSpeed=\"COIL COOLING DX SINGLE SPEED 2 19KBTU/HR 14.0SEER\", invalid\n   **   ~~~   ** ...Part Load Fraction Correlation Curve Name = DXCOOL-NECB2011-REF-COOLPLFFPLR 1 has out of range value.\n   **   ~~~   ** ...Curve maximum must be <= 1.0, curve max at PLR = 0.99 is 1.015\n   **   ~~~   ** ...Setting curve maximum to 1.0 and simulation continues.\n   ** Warning ** GetDXCoils: Coil:Cooling:DX:SingleSpeed=\"COIL COOLING DX SINGLE SPEED 1 16KBTU/HR 14.0SEER\", invalid\n   **   ~~~   ** ...Part Load Fraction Correlation Curve Name = DXCOOL-NECB2011-REF-COOLPLFFPLR has out of range value.\n   **   ~~~   ** ...Curve maximum must be <= 1.0, curve max at PLR = 0.99 is 1.015\n   **   ~~~   ** ...Setting curve maximum to 1.0 and simulation continues.\n   ** Warning ** GetDXCoils: Coil:Cooling:DX:SingleSpeed=\"COIL COOLING DX SINGLE SPEED 3 20KBTU/HR 14.0SEER\", invalid\n   **   ~~~   ** ...Part Load Fraction Correlation Curve Name = DXCOOL-NECB2011-REF-COOLPLFFPLR 2 has out of range value.\n   **   ~~~   ** ...Curve maximum must be <= 1.0, curve max at PLR = 0.99 is 1.015\n   **   ~~~   ** ...Setting curve maximum to 1.0 and simulation continues.\n   ** Warning ** The Standard Ratings is calculated for Coil:Cooling:DX:SingleSpeed = COIL COOLING DX SINGLE SPEED 5 16KBTU/HR 14.0SEER but not at the AHRI test condition due to curve out of bound.\n   **   ~~~   **  Review the Standard Ratings calculations in the Engineering Reference for this coil type. Also, use Output:Diagnostics, DisplayExtraWarnings for further guidance.\n   ** Warning ** The Standard Ratings is calculated for Coil:Cooling:DX:SingleSpeed = COIL COOLING DX SINGLE SPEED 4 20KBTU/HR 14.0SEER but not at the AHRI test condition due to curve out of bound.\n   **   ~~~   **  Review the Standard Ratings calculations in the Engineering Reference for this coil type. Also, use Output:Diagnostics, DisplayExtraWarnings for further guidance.\n   ** Warning ** The Standard Ratings is calculated for Coil:Cooling:DX:SingleSpeed = COIL COOLING DX SINGLE SPEED 2 19KBTU/HR 14.0SEER but not at the AHRI test condition due to curve out of bound.\n   **   ~~~   **  Review the Standard Ratings calculations in the Engineering Reference for this coil type. Also, use Output:Diagnostics, DisplayExtraWarnings for further guidance.\n   ** Warning ** The Standard Ratings is calculated for Coil:Cooling:DX:SingleSpeed = COIL COOLING DX SINGLE SPEED 1 16KBTU/HR 14.0SEER but not at the AHRI test condition due to curve out of bound.\n   **   ~~~   **  Review the Standard Ratings calculations in the Engineering Reference for this coil type. Also, use Output:Diagnostics, DisplayExtraWarnings for further guidance.\n   ** Warning ** The Standard Ratings is calculated for Coil:Cooling:DX:SingleSpeed = COIL COOLING DX SINGLE SPEED 3 20KBTU/HR 14.0SEER but not at the AHRI test condition due to curve out of bound.\n   **   ~~~   **  Review the Standard Ratings calculations in the Engineering Reference for this coil type. Also, use Output:Diagnostics, DisplayExtraWarnings for further guidance.\n   ** Warning ** Check input. Pump nominal power or motor efficiency is set to 0, for pump=SERVICE WATER LOOP PUMP\n   ** Warning ** Output:Meter: invalid Name=\"DISTRICTCOOLING:FACILITY\" - not found.\n   ** Warning ** Output:Meter: invalid Name=\"DISTRICTHEATING:FACILITY\" - not found.\n   ** Warning ** Output:Meter:MeterFileOnly requested for \"Electricity:Facility\" (TimeStep), already on \"Output:Meter\". Will report to both eplusout.eso and eplusout.mtr\n   ************* Testing Individual Branch Integrity\n   ************* All Branches passed integrity testing\n   ************* Testing Individual Supply Air Path Integrity\n   ************* All Supply Air Paths passed integrity testing\n   ************* Testing Individual Return Air Path Integrity\n   ************* All Return Air Paths passed integrity testing\n   ************* No node connection errors were found.\n   ************* Beginning Simulation\n   ** Warning ** CalcDoe2DXCoil: Coil:Cooling:DX:SingleSpeed \"COIL COOLING DX SINGLE SPEED 4 20KBTU/HR 14.0SEER\" - Air-cooled condenser inlet dry-bulb temperature below 0 C. Outdoor dry-bulb temperature = -9.30\n   **   ~~~   **  ... Occurrence info = RUN PERIOD 1, 01/02 06:03 - 06:05\n   **   ~~~   ** ... Operation at low ambient temperatures may require special performance curves.\n   ** Warning ** CalcDoe2DXCoil: Coil:Cooling:DX:SingleSpeed \"COIL COOLING DX SINGLE SPEED 1 16KBTU/HR 14.0SEER\" - Air-cooled condenser inlet dry-bulb temperature below 0 C. Outdoor dry-bulb temperature = -9.30\n   **   ~~~   **  ... Occurrence info = RUN PERIOD 1, 01/02 06:03 - 06:05\n   **   ~~~   ** ... Operation at low ambient temperatures may require special performance curves.\n   ** Warning ** CalcDoe2DXCoil: Coil:Cooling:DX:SingleSpeed \"COIL COOLING DX SINGLE SPEED 1 16KBTU/HR 14.0SEER\" - Full load outlet air dry-bulb temperature < 2C. This indicates the possibility of coil frost/freeze. Outlet temperature = 0.86 C.\n   **   ~~~   **  ...Occurrence info = RUN PERIOD 1, 01/02 06:03 - 06:05\n   **   ~~~   ** ... Possible reasons for low outlet air dry-bulb temperatures are: This DX coil\n   **   ~~~   **    1) may have a low inlet air dry-bulb temperature. Inlet air temperature = 15.001 C.\n   **   ~~~   **    2) may have a low air flow rate per watt of cooling capacity. Check inputs.\n   **   ~~~   **    3) is used as part of a HX assisted cooling coil which uses a high sensible effectiveness. Check inputs.\n   ** Warning ** CalcDoe2DXCoil: Coil:Cooling:DX:SingleSpeed \"COIL COOLING DX SINGLE SPEED 3 20KBTU/HR 14.0SEER\" - Air-cooled condenser inlet dry-bulb temperature below 0 C. Outdoor dry-bulb temperature = -9.30\n   **   ~~~   **  ... Occurrence info = RUN PERIOD 1, 01/02 06:03 - 06:05\n   **   ~~~   ** ... Operation at low ambient temperatures may require special performance curves.\n   ** Warning ** CalcDoe2DXCoil: Coil:Cooling:DX:SingleSpeed \"COIL COOLING DX SINGLE SPEED 5 16KBTU/HR 14.0SEER\" - Air-cooled condenser inlet dry-bulb temperature below 0 C. Outdoor dry-bulb temperature = -5.40\n   **   ~~~   **  ... Occurrence info = RUN PERIOD 1, 01/02 21:15 - 21:18\n   **   ~~~   ** ... Operation at low ambient temperatures may require special performance curves.\n   ** Warning ** CalcDoe2DXCoil: Coil:Cooling:DX:SingleSpeed \"COIL COOLING DX SINGLE SPEED 5 16KBTU/HR 14.0SEER\" - Full load outlet air dry-bulb temperature < 2C. This indicates the possibility of coil frost/freeze. Outlet temperature = 0.25 C.\n   **   ~~~   **  ...Occurrence info = RUN PERIOD 1, 01/02 21:15 - 21:18\n   **   ~~~   ** ... Possible reasons for low outlet air dry-bulb temperatures are: This DX coil\n   **   ~~~   **    1) may have a low inlet air dry-bulb temperature. Inlet air temperature = 14.766 C.\n   **   ~~~   **    2) may have a low air flow rate per watt of cooling capacity. Check inputs.\n   **   ~~~   **    3) is used as part of a HX assisted cooling coil which uses a high sensible effectiveness. Check inputs.\n   ** Warning ** CalcDoe2DXCoil: Coil:Cooling:DX:SingleSpeed \"COIL COOLING DX SINGLE SPEED 2 19KBTU/HR 14.0SEER\" - Air-cooled condenser inlet dry-bulb temperature below 0 C. Outdoor dry-bulb temperature = -5.40\n   **   ~~~   **  ... Occurrence info = RUN PERIOD 1, 01/02 21:15 - 21:18\n   **   ~~~   ** ... Operation at low ambient temperatures may require special performance curves.\n   ** Warning ** CalcDoe2DXCoil: Coil:Cooling:DX:SingleSpeed \"COIL COOLING DX SINGLE SPEED 2 19KBTU/HR 14.0SEER\" - Full load outlet air dry-bulb temperature < 2C. This indicates the possibility of coil frost/freeze. Outlet temperature = 1.75 C.\n   **   ~~~   **  ...Occurrence info = RUN PERIOD 1, 01/09 21:15 - 21:18\n   **   ~~~   ** ... Possible reasons for low outlet air dry-bulb temperatures are: This DX coil\n   **   ~~~   **    1) may have a low inlet air dry-bulb temperature. Inlet air temperature = 15.257 C.\n   **   ~~~   **    2) may have a low air flow rate per watt of cooling capacity. Check inputs.\n   **   ~~~   **    3) is used as part of a HX assisted cooling coil which uses a high sensible effectiveness. Check inputs.\n   ** Warning ** CalcDoe2DXCoil: Coil:Cooling:DX:SingleSpeed \"COIL COOLING DX SINGLE SPEED 4 20KBTU/HR 14.0SEER\" - Full load outlet air dry-bulb temperature < 2C. This indicates the possibility of coil frost/freeze. Outlet temperature = 1.77 C.\n   **   ~~~   **  ...Occurrence info = RUN PERIOD 1, 03/02 13:00 - 13:15\n   **   ~~~   ** ... Possible reasons for low outlet air dry-bulb temperatures are: This DX coil\n   **   ~~~   **    1) may have a low inlet air dry-bulb temperature. Inlet air temperature = 15.661 C.\n   **   ~~~   **    2) may have a low air flow rate per watt of cooling capacity. Check inputs.\n   **   ~~~   **    3) is used as part of a HX assisted cooling coil which uses a high sensible effectiveness. Check inputs.\n   ************* Simulation Error Summary *************\n   ************* There are 9 unused schedules in input.\n   ************* There are 9 unused week schedules in input.\n   ************* There are 16 unused day schedules in input.\n   ************* Use Output:Diagnostics,DisplayUnusedSchedules; to see them.\n   *************\n   ************* ===== Recurring Error Summary =====\n   ************* The following recurring error messages occurred.\n   *************\n   *************  ** Warning ** CalcDoe2DXCoil: Coil:Cooling:DX:SingleSpeed=\"COIL COOLING DX SINGLE SPEED 4 20KBTU/HR 14.0SEER\" - Low condenser dry-bulb temperature error continues...\n   *************  **   ~~~   **   This error occurred 718 total times;\n   *************  **   ~~~   **   during Warmup 0 times;\n   *************  **   ~~~   **   during Sizing 0 times.\n   *************  **   ~~~   **   Max=-2.500000E-002 [C]  Min=-36.225 [C]\n   *************\n   *************  ** Warning ** CalcDoe2DXCoil: Coil:Cooling:DX:SingleSpeed=\"COIL COOLING DX SINGLE SPEED 1 16KBTU/HR 14.0SEER\" - Low condenser dry-bulb temperature error continues...\n   *************  **   ~~~   **   This error occurred 408 total times;\n   *************  **   ~~~   **   during Warmup 0 times;\n   *************  **   ~~~   **   during Sizing 0 times.\n   *************  **   ~~~   **   Max=-7.500000E-002 [C]  Min=-31.375 [C]\n   *************\n   *************  ** Warning ** CalcDoe2DXCoil: Coil:Cooling:DX:SingleSpeed=\"COIL COOLING DX SINGLE SPEED 1 16KBTU/HR 14.0SEER\" - Full load outlet temperature indicates a possibility of frost/freeze error continues. Outlet air temperature statistics follow:\n   *************  **   ~~~   **   This error occurred 242 total times;\n   *************  **   ~~~   **   during Warmup 0 times;\n   *************  **   ~~~   **   during Sizing 0 times.\n   *************  **   ~~~   **   Max=1.997762  Min=-2.06732\n   *************\n   *************  ** Warning ** CalcDoe2DXCoil: Coil:Cooling:DX:SingleSpeed=\"COIL COOLING DX SINGLE SPEED 3 20KBTU/HR 14.0SEER\" - Low condenser dry-bulb temperature error continues...\n   *************  **   ~~~   **   This error occurred 320 total times;\n   *************  **   ~~~   **   during Warmup 0 times;\n   *************  **   ~~~   **   during Sizing 0 times.\n   *************  **   ~~~   **   Max=-7.500000E-002 [C]  Min=-36.225 [C]\n   *************\n   *************  ** Warning ** CalcDoe2DXCoil: Coil:Cooling:DX:SingleSpeed=\"COIL COOLING DX SINGLE SPEED 5 16KBTU/HR 14.0SEER\" - Low condenser dry-bulb temperature error continues...\n   *************  **   ~~~   **   This error occurred 386 total times;\n   *************  **   ~~~   **   during Warmup 0 times;\n   *************  **   ~~~   **   during Sizing 0 times.\n   *************  **   ~~~   **   Max=-7.500000E-002 [C]  Min=-18.9 [C]\n   *************\n   *************  ** Warning ** CalcDoe2DXCoil: Coil:Cooling:DX:SingleSpeed=\"COIL COOLING DX SINGLE SPEED 5 16KBTU/HR 14.0SEER\" - Full load outlet temperature indicates a possibility of frost/freeze error continues. Outlet air temperature statistics follow:\n   *************  **   ~~~   **   This error occurred 385 total times;\n   *************  **   ~~~   **   during Warmup 0 times;\n   *************  **   ~~~   **   during Sizing 0 times.\n   *************  **   ~~~   **   Max=1.989399  Min=-2.848887\n   *************\n   *************  ** Warning ** CalcDoe2DXCoil: Coil:Cooling:DX:SingleSpeed=\"COIL COOLING DX SINGLE SPEED 2 19KBTU/HR 14.0SEER\" - Low condenser dry-bulb temperature error continues...\n   *************  **   ~~~   **   This error occurred 645 total times;\n   *************  **   ~~~   **   during Warmup 0 times;\n   *************  **   ~~~   **   during Sizing 0 times.\n   *************  **   ~~~   **   Max=-7.500000E-002 [C]  Min=-30.35 [C]\n   *************\n   *************  ** Warning ** CalcDoe2DXCoil: Coil:Cooling:DX:SingleSpeed=\"COIL COOLING DX SINGLE SPEED 2 19KBTU/HR 14.0SEER\" - Full load outlet temperature indicates a possibility of frost/freeze error continues. Outlet air temperature statistics follow:\n   *************  **   ~~~   **   This error occurred 21 total times;\n   *************  **   ~~~   **   during Warmup 0 times;\n   *************  **   ~~~   **   during Sizing 0 times.\n   *************  **   ~~~   **   Max=1.955177  Min=0.81125\n   *************\n   *************  ** Warning ** CalcDoe2DXCoil: Coil:Cooling:DX:SingleSpeed=\"COIL COOLING DX SINGLE SPEED 4 20KBTU/HR 14.0SEER\" - Full load outlet temperature indicates a possibility of frost/freeze error continues. Outlet air temperature statistics follow:\n   *************  **   ~~~   **   This error occurred 2 total times;\n   *************  **   ~~~   **   during Warmup 0 times;\n   *************  **   ~~~   **   during Sizing 0 times.\n   *************  **   ~~~   **   Max=1.957015  Min=1.771829\n   *************\n   *************\n   ************* ===== Final Error Summary =====\n   ************* The following error categories occurred.  Consider correcting or noting.\n   ************* Nominally Unused Constructions\n   ************* ..The nominally unused constructions warning is provided to alert you to potential conditions that can cause\n   ************* ..extra time during simulation. Each construction is calculated by the algorithm indicated in the HeatBalanceAlgorithm\n   ************* ..object. You may remove the constructions indicated (when you use the DisplayExtraWarnings option).\n   *************\n   ************* EnergyPlus Warmup Error Summary. During Warmup: 0 Warning; 0 Severe Errors.\n   ************* EnergyPlus Sizing Error Summary. During Sizing: 41 Warning; 0 Severe Errors.\n   ************* EnergyPlus Completed Successfully-- 3183 Warning; 0 Severe Errors; Elapsed Time=00hr 00min 40.18sec\n",
   "file_format_version" : "0.0.1",
   "file_paths" : [ "../weather", "../seeds", "../seed" ],
   "hash" : "0C6DAFB1",
   "measure_paths" : [ "../measures" ],
   "name" : "LHS Autogenerated 403",
   "osa_id" : "4fef0e0f-5396-4c55-a6e1-2cd6803db3ab",
   "osd_id" : "5fab7c8a-71a8-45c1-bd92-71599d5a197d",
   "run_directory" : "./run",
   "seed_file" : "seed.osm",
   "started_at" : "20170710T184719Z",
   "steps" : [
      {
         "arguments" : {
            "__SKIP__" : false,
            "building_type" : "SmallOffice",
            "climate_zone" : "NECB HDD Method",
            "epw_file" : "CAN_SK_Estevan.718620_CWEC.epw",
            "template" : "NECB 2011"
         },
         "measure_dir_name" : "create_prototype_building",
         "name" : "create_prototype_building",
         "result" : {
            "completed_at" : "20170710T184812Z",
            "measure_class_name" : "CreatePrototypeBuilding",
            "measure_display_name" : "Create Prototype Building",
            "measure_name" : "create_prototype_building",
            "measure_taxonomy" : "Whole Building.Space Types",
            "measure_type" : "ModelMeasure",
            "measure_uid" : "ae90fsd7-a651-467a-bc8d-29d310b0f937",
            "measure_version_id" : "c6ec5c18-5595-459f-a082-09a19c8c869c",
            "measure_version_modified" : "20170519T182315Z",
            "measure_xml_checksum" : "057E8D9D",
            "started_at" : "20170710T184721Z",
            "stderr" : "",
            "stdout" : "[OpenStudio.Measure] <0> OSArgumentVector is deprecated, use OpenStudio::Measure::OSArgumentVector instead.\n[openstudio.EpwFile] <0> Successive data points (1985-Jan-31 to 1970-Feb-01, ending on line 753) are greater than 1 day apart in EPW file '/usr/local/bundle/bundler/gems/openstudio-standards-f448df66933d/openstudio-standards/data/weather/CAN_SK_Estevan.718620_CWEC.epw'. Data will be treated as typical (TMY)\n[openstudio.setFileExtension] <0> Path p, '/usr/local/bundle/bundler/gems/openstudio-standards-f448df66933d/openstudio-standards/data/weather/CAN_SK_Estevan.718620_CWEC.ddy', has an unexpected file extension. Was expecting 'idf'.\n[openstudio.setFileExtension] <0> Path p, '/usr/local/bundle/bundler/gems/openstudio-standards-f448df66933d/openstudio-standards/data/weather/CAN_SK_Estevan.718620_CWEC.ddy', has an unexpected file extension. Was expecting 'idf'.\n[openstudio.EpwFile] <0> Successive data points (1985-Jan-31 to 1970-Feb-01, ending on line 753) are greater than 1 day apart in EPW file '/usr/local/bundle/bundler/gems/openstudio-standards-f448df66933d/openstudio-standards/data/weather/CAN_SK_Estevan.718620_CWEC.epw'. Data will be treated as typical (TMY)\n[openstudio.weather.Model] <0> Could not find ground temperatures; will use generic temperatures, which will skew results.\n[openstudio.setFileExtension] <0> Path p, '/usr/local/bundle/bundler/gems/openstudio-standards-f448df66933d/openstudio-standards/data/weather/CAN_SK_Estevan.718620_CWEC.ddy', has an unexpected file extension. Was expecting 'idf'.\n[openstudio.EpwFile] <0> Successive data points (1985-Jan-31 to 1970-Feb-01, ending on line 753) are greater than 1 day apart in EPW file '/usr/local/bundle/bundler/gems/openstudio-standards-f448df66933d/openstudio-standards/data/weather/CAN_SK_Estevan.718620_CWEC.epw'. Data will be treated as typical (TMY)\n[openstudio.setFileExtension] <0> Path p, '/usr/local/bundle/bundler/gems/openstudio-standards-f448df66933d/openstudio-standards/data/weather/CAN_SK_Estevan.718620_CWEC.ddy', has an unexpected file extension. Was expecting 'idf'.\n[openstudio.setFileExtension] <0> Path p, '/usr/local/bundle/bundler/gems/openstudio-standards-f448df66933d/openstudio-standards/data/weather/CAN_SK_Estevan.718620_CWEC.ddy', has an unexpected file extension. Was expecting 'idf'.\n[openstudio.EpwFile] <0> Successive data points (1985-Jan-31 to 1970-Feb-01, ending on line 753) are greater than 1 day apart in EPW file '/usr/local/bundle/bundler/gems/openstudio-standards-f448df66933d/openstudio-standards/data/weather/CAN_SK_Estevan.718620_CWEC.epw'. Data will be treated as typical (TMY)\n[openstudio.setFileExtension] <0> Path p, '/usr/local/bundle/bundler/gems/openstudio-standards-f448df66933d/openstudio-standards/data/weather/CAN_SK_Estevan.718620_CWEC.ddy', has an unexpected file extension. Was expecting 'idf'.\n[openstudio.setFileExtension] <0> Path p, '/usr/local/bundle/bundler/gems/openstudio-standards-f448df66933d/openstudio-standards/data/weather/CAN_SK_Estevan.718620_CWEC.ddy', has an unexpected file extension. Was expecting 'idf'.\n[utilities.idf.WorkspaceObject] <0> Object of type 'Schedule:Constant' and named 'Always Off Discrete', points to an object named OnOff 1 from field 1, but that object cannot be located.\n[utilities.idf.WorkspaceObject] <0> Object of type 'Schedule:Constant' and named 'Always On Continuous', points to an object named Fractional 1 from field 1, but that object cannot be located.\n[utilities.idf.WorkspaceObject] <0> Object of type 'Schedule:Constant' and named 'Always Off Discrete', points to an object named OnOff 1 from field 1, but that object cannot be located.\n[utilities.idf.WorkspaceObject] <0> Object of type 'Schedule:Constant' and named 'Always On Continuous', points to an object named Fractional 1 from field 1, but that object cannot be located.\n[openstudio.standards.Fan] <0> For Fan Constant Volume 1, there is no greater nominal HP.  Use the efficiency of the largest motor category.\n[openstudio.standards.Fan] <0> For Fan Constant Volume 2, there is no greater nominal HP.  Use the efficiency of the largest motor category.\n[openstudio.standards.Fan] <0> For Fan Constant Volume 3, there is no greater nominal HP.  Use the efficiency of the largest motor category.\n[openstudio.standards.Fan] <0> For Fan Constant Volume 4, there is no greater nominal HP.  Use the efficiency of the largest motor category.\n[openstudio.standards.Fan] <0> For Fan Constant Volume 5, there is no greater nominal HP.  Use the efficiency of the largest motor category.\n[openstudio.EpwFile] <0> Successive data points (1985-Jan-31 to 1970-Feb-01, ending on line 753) are greater than 1 day apart in EPW file '/usr/local/bundle/bundler/gems/openstudio-standards-f448df66933d/openstudio-standards/data/weather/CAN_SK_Estevan.718620_CWEC.epw'. Data will be treated as typical (TMY)\n[openstudio.setFileExtension] <0> Path p, '/usr/local/bundle/bundler/gems/openstudio-standards-f448df66933d/openstudio-standards/data/weather/CAN_SK_Estevan.718620_CWEC.ddy', has an unexpected file extension. Was expecting 'idf'.\n[openstudio.setFileExtension] <0> Path p, '/usr/local/bundle/bundler/gems/openstudio-standards-f448df66933d/openstudio-standards/data/weather/CAN_SK_Estevan.718620_CWEC.ddy', has an unexpected file extension. Was expecting 'idf'.\n[openstudio.EpwFile] <0> Successive data points (1985-Jan-31 to 1970-Feb-01, ending on line 753) are greater than 1 day apart in EPW file '/usr/local/bundle/bundler/gems/openstudio-standards-f448df66933d/openstudio-standards/data/weather/CAN_SK_Estevan.718620_CWEC.epw'. Data will be treated as typical (TMY)\n[openstudio.setFileExtension] <0> Path p, '/usr/local/bundle/bundler/gems/openstudio-standards-f448df66933d/openstudio-standards/data/weather/CAN_SK_Estevan.718620_CWEC.ddy', has an unexpected file extension. Was expecting 'idf'.\n[openstudio.setFileExtension] <0> Path p, '/usr/local/bundle/bundler/gems/openstudio-standards-f448df66933d/openstudio-standards/data/weather/CAN_SK_Estevan.718620_CWEC.ddy', has an unexpected file extension. Was expecting 'idf'.\n[openstudio.EpwFile] <0> Successive data points (1985-Jan-31 to 1970-Feb-01, ending on line 753) are greater than 1 day apart in EPW file '/usr/local/bundle/bundler/gems/openstudio-standards-f448df66933d/openstudio-standards/data/weather/CAN_SK_Estevan.718620_CWEC.epw'. Data will be treated as typical (TMY)\n[openstudio.setFileExtension] <0> Path p, '/usr/local/bundle/bundler/gems/openstudio-standards-f448df66933d/openstudio-standards/data/weather/CAN_SK_Estevan.718620_CWEC.ddy', has an unexpected file extension. Was expecting 'idf'.\n[openstudio.setFileExtension] <0> Path p, '/usr/local/bundle/bundler/gems/openstudio-standards-f448df66933d/openstudio-standards/data/weather/CAN_SK_Estevan.718620_CWEC.ddy', has an unexpected file extension. Was expecting 'idf'.\n[openstudio.EpwFile] <0> Successive data points (1985-Jan-31 to 1970-Feb-01, ending on line 753) are greater than 1 day apart in EPW file '/usr/local/bundle/bundler/gems/openstudio-standards-f448df66933d/openstudio-standards/data/weather/CAN_SK_Estevan.718620_CWEC.epw'. Data will be treated as typical (TMY)\n[openstudio.setFileExtension] <0> Path p, '/usr/local/bundle/bundler/gems/openstudio-standards-f448df66933d/openstudio-standards/data/weather/CAN_SK_Estevan.718620_CWEC.ddy', has an unexpected file extension. Was expecting 'idf'.\n[openstudio.setFileExtension] <0> Path p, '/usr/local/bundle/bundler/gems/openstudio-standards-f448df66933d/openstudio-standards/data/weather/CAN_SK_Estevan.718620_CWEC.ddy', has an unexpected file extension. Was expecting 'idf'.\n[openstudio.EpwFile] <0> Successive data points (1985-Jan-31 to 1970-Feb-01, ending on line 753) are greater than 1 day apart in EPW file '/usr/local/bundle/bundler/gems/openstudio-standards-f448df66933d/openstudio-standards/data/weather/CAN_SK_Estevan.718620_CWEC.epw'. Data will be treated as typical (TMY)\n[openstudio.setFileExtension] <0> Path p, '/usr/local/bundle/bundler/gems/openstudio-standards-f448df66933d/openstudio-standards/data/weather/CAN_SK_Estevan.718620_CWEC.ddy', has an unexpected file extension. Was expecting 'idf'.\n[openstudio.setFileExtension] <0> Path p, '/usr/local/bundle/bundler/gems/openstudio-standards-f448df66933d/openstudio-standards/data/weather/CAN_SK_Estevan.718620_CWEC.ddy', has an unexpected file extension. Was expecting 'idf'.\n[openstudio.standards.Fan] <0> For Fan Constant Volume 1, there is no greater nominal HP.  Use the efficiency of the largest motor category.\n[openstudio.standards.Fan] <0> For Fan Constant Volume 2, there is no greater nominal HP.  Use the efficiency of the largest motor category.\n[openstudio.standards.Fan] <0> For Fan Constant Volume 3, there is no greater nominal HP.  Use the efficiency of the largest motor category.\n[openstudio.standards.Fan] <0> For Fan Constant Volume 4, there is no greater nominal HP.  Use the efficiency of the largest motor category.\n[openstudio.standards.Fan] <0> For Fan Constant Volume 5, there is no greater nominal HP.  Use the efficiency of the largest motor category.\n",
            "step_errors" : [],
            "step_files" : [],
            "step_info" : [
               "Started adding geometry",
               "Finished adding geometry",
               "Started adding weather file for climate zone: NECB HDD Method.",
               "Template =",
               "Setting Attic to Space Function.- undefined -",
               "Setting Core_ZN to Space Function.Office - enclosed",
               "Setting Perimeter_ZN_1 to Space Function.Office - enclosed",
               "Setting Perimeter_ZN_2 to Space Function.Office - enclosed",
               "Setting Perimeter_ZN_3 to Space Function.Office - enclosed",
               "Setting Perimeter_ZN_4 to Space Function.Office - enclosed",
               "Started applying space types (loads)",
               "Space Function - undefined - had no ventilation specification, one has been created.",
               "Space Function - undefined - had no infiltration objects, one has been created.",
               "Space Function - undefined - set infiltration to 0.0 per ft^2 exterior surface area.",
               "Space Function - undefined - set infiltration schedule to Always On.",
               "Space Function Office - enclosed had no people, one has been created.",
               "Space Function Office - enclosed set occupancy to 4.65 people/1000 ft^2.",
               "Space Function Office - enclosed had no lights, one has been created.",
               "Space Function Office - enclosed set LPD to 1.105536975 W/ft^2.",
               "Space Function Office - enclosed had no electric equipment, one has been created.",
               "Space Function Office - enclosed set electric EPD to 0.696767001 W/ft^2.",
               "Space Function Office - enclosed had no ventilation specification, one has been created.",
               "Space Function Office - enclosed set ventilation per area to 0.085 cfm/ft^2.",
               "Space Function Office - enclosed had no infiltration objects, one has been created.",
               "Space Function Office - enclosed set infiltration to 0.0 per ft^2 exterior surface area.",
               "Space Function Office - enclosed set occupancy schedule to NECB-A-Occupancy.",
               "Space Function Office - enclosed set occupant activity schedule to NECB-Activity.",
               "Space Function Office - enclosed set lighting schedule to NECB-A-Lighting.",
               "Space Function Office - enclosed set electric equipment schedule to NECB-A-Electric-Equipment.",
               "Space Function Office - enclosed set infiltration schedule to Always On.",
               "Space Function Office - enclosed set heating setpoint schedule to NECB-A-Thermostat Setpoint-Heating.",
               "Space Function Office - enclosed set cooling setpoint schedule to NECB-A-Thermostat Setpoint-Cooling.",
               "Finished applying space types (loads)",
               "For NECB 2011, no exterior wall area was found, no infiltration will be added.",
               "Started applying constructions",
               "Adding construction set: NECB 2011-NECB HDD Method-Office--is_residentialNo",
               "Adding construction Typical Insulated Exterior Mass Floor R-15.63.",
               "Adding construction Typical Insulated Exterior Mass Wall R-12.5.",
               "Adding construction Typical Insulated Metal Building Roof R-20.41.",
               "Adding construction Typical Interior Floor.",
               "Adding construction Typical Interior Wall.",
               "Adding construction Typical Interior Ceiling.",
               "Adding construction Typical Insulated Carpeted 6in Slab Floor.",
               "Adding construction U 0.55 SHGC 0.31 Dbl Ref-D Tint 6mm/6mm Air.",
               "Adding construction Typical Insulated Metal Door R-1.43.",
               "Adding construction U 0.35 SHGC 0.35 Dbl LoE (e2-.1) Tint 6mm/13mm Air.",
               "Adding construction Typical Overhead Door R-2.0.",
               "Adding construction U 0.48 SHGC 0.40 Dbl Ref-D Clr 6mm/13mm.",
               "Adding construction Typical Interior Window.",
               "Adding construction Typical Interior Door.",
               "Adding construction Typical Interior Partition.",
               "Finished applying constructions",
               "WWR NonRes = 0%; window = 0 ft2, wall = 0 ft2.",
               "WWR Res = 0%; window = 0 ft2, wall = 0 ft2.",
               "WWR Semiheated = 0%; window = 0 ft2, wall = 0 ft2.",
               "The skylight to roof ratios (SRRs) are: NonRes: 0%, Res: 0%.",
               "Started creating thermal zones",
               "Finished creating thermal zones",
               "Running simulation /mnt/openstudio/analysis_4fef0e0f-5396-4c55-a6e1-2cd6803db3ab/data_point_5fab7c8a-71a8-45c1-bd92-71599d5a197d/run/000_create_prototype_building/output/SmallOffice-NECB 2011-NECB HDD Method-CAN_SK_Estevan.718620_CWEC.epw/SR0.",
               "Finished run.",
               "Started Adding HVAC",
               "Finished adding HVAC",
               "Started Adding Service Water Heating",
               "Adding service water loop.",
               "Adding water heater.",
               "Template =",
               "Finished adding Service Water Heating",
               "Set sizing factors to 1.3 for heating and 1.3 for cooling.",
               "Running simulation /mnt/openstudio/analysis_4fef0e0f-5396-4c55-a6e1-2cd6803db3ab/data_point_5fab7c8a-71a8-45c1-bd92-71599d5a197d/run/000_create_prototype_building/output/SmallOffice-NECB 2011-NECB HDD Method-CAN_SK_Estevan.718620_CWEC.epw/SR1.",
               "Finished run.",
               "Started applying multizone vav OA sizing.",
               "Finished applying multizone vav OA sizing.",
               "Started applying prototype HVAC assumptions.",
               "For Fan Constant Volume 1: allowed_hp = 1.01HP; motor eff = 61.5%; total fan eff = 40% based on 617 cfm.",
               "For Fan Constant Volume 2: allowed_hp = 1.01HP; motor eff = 61.5%; total fan eff = 40% based on 695 cfm.",
               "For Fan Constant Volume 3: allowed_hp = 1.01HP; motor eff = 61.5%; total fan eff = 40% based on 744 cfm.",
               "For Fan Constant Volume 4: allowed_hp = 1.01HP; motor eff = 61.5%; total fan eff = 40% based on 749 cfm.",
               "For Fan Constant Volume 5: allowed_hp = 1.01HP; motor eff = 61.5%; total fan eff = 40% based on 618 cfm.",
               "Sp-Perimeter_ZN_1 Sys-3 Flr-1 Sch-A HPlcmt-south ZN NECB System 3 PSZ does not require an economizer because the total cooling capacity of 19960 Btu/hr is less than the minimum capacity of 68243 Btu/hr.",
               "Sp-Perimeter_ZN_3 Sys-3 Flr-1 Sch-A HPlcmt-north ZN NECB System 3 PSZ does not require an economizer because the total cooling capacity of 16439 Btu/hr is less than the minimum capacity of 68243 Btu/hr.",
               "Sp-Perimeter_ZN_4 Sys-3 Flr-1 Sch-A HPlcmt-west ZN NECB System 3 PSZ does not require an economizer because the total cooling capacity of 19840 Btu/hr is less than the minimum capacity of 68243 Btu/hr.",
               "Sp-Core_ZN Sys-3 Flr-1 Sch-A HPlcmt-core ZN NECB System 3 PSZ does not require an economizer because the total cooling capacity of 16471 Btu/hr is less than the minimum capacity of 68243 Btu/hr.",
               "Sp-Perimeter_ZN_2 Sys-3 Flr-1 Sch-A HPlcmt-east ZN NECB System 3 PSZ does not require an economizer because the total cooling capacity of 18514 Btu/hr is less than the minimum capacity of 68243 Btu/hr.",
               "Finished applying prototype HVAC assumptions.",
               "Started applying HVAC efficiency standards.",
               "For Sp-Core_ZN Sys-3 Flr-1 Sch-A HPlcmt-core ZN NECB System 3 PSZ, ERV not required based on 0% OA flow, design supply air flow of 618cfm, and climate zone NECB HDD Method.",
               "For Sp-Core_ZN Sys-3 Flr-1 Sch-A HPlcmt-core ZN NECB System 3 PSZ, ERV not required based on exhaust heat content.",
               "For NECB 2011 NECB HDD Method:  Sp-Core_ZN Sys-3 Flr-1 Sch-A HPlcmt-core ZN NECB System 3 PSZ: DCV is not required for any system.",
               "For Sp-Core_ZN Sys-3 Flr-1 Sch-A HPlcmt-core ZN NECB System 3 PSZ: Unoccupied fan shutoff not required because system fan HP of 0.63 HP is less than the minimum threshold of 0.75 HP.",
               "For Sp-Core_ZN Sys-3 Flr-1 Sch-A HPlcmt-core ZN NECB System 3 PSZ: Setting motorized OA damper schedule to Always On Discrete.",
               "For Sp-Perimeter_ZN_1 Sys-3 Flr-1 Sch-A HPlcmt-south ZN NECB System 3 PSZ, ERV not required based on 0% OA flow, design supply air flow of 749cfm, and climate zone NECB HDD Method.",
               "For Sp-Perimeter_ZN_1 Sys-3 Flr-1 Sch-A HPlcmt-south ZN NECB System 3 PSZ, ERV not required based on exhaust heat content.",
               "For NECB 2011 NECB HDD Method:  Sp-Perimeter_ZN_1 Sys-3 Flr-1 Sch-A HPlcmt-south ZN NECB System 3 PSZ: DCV is not required for any system.",
               "For Sp-Perimeter_ZN_1 Sys-3 Flr-1 Sch-A HPlcmt-south ZN NECB System 3 PSZ: Annual occupied hours = 2860 hr/yr, assuming a 0.15 occupancy threshold.  This schedule will be used as the HVAC operation schedule.",
               "For Sp-Perimeter_ZN_1 Sys-3 Flr-1 Sch-A HPlcmt-south ZN NECB System 3 PSZ: Setting motorized OA damper schedule to Sp-Perimeter_ZN_1 Sys-3 Flr-1 Sch-A HPlcmt-south ZN NECB System 3 PSZ Occ Sch.",
               "For Sp-Perimeter_ZN_2 Sys-3 Flr-1 Sch-A HPlcmt-east ZN NECB System 3 PSZ, ERV not required based on 0% OA flow, design supply air flow of 695cfm, and climate zone NECB HDD Method.",
               "For Sp-Perimeter_ZN_2 Sys-3 Flr-1 Sch-A HPlcmt-east ZN NECB System 3 PSZ, ERV not required based on exhaust heat content.",
               "For NECB 2011 NECB HDD Method:  Sp-Perimeter_ZN_2 Sys-3 Flr-1 Sch-A HPlcmt-east ZN NECB System 3 PSZ: DCV is not required for any system.",
               "For Sp-Perimeter_ZN_2 Sys-3 Flr-1 Sch-A HPlcmt-east ZN NECB System 3 PSZ: Unoccupied fan shutoff not required because system fan HP of 0.7 HP is less than the minimum threshold of 0.75 HP.",
               "For Sp-Perimeter_ZN_2 Sys-3 Flr-1 Sch-A HPlcmt-east ZN NECB System 3 PSZ: Setting motorized OA damper schedule to Always On Discrete.",
               "For Sp-Perimeter_ZN_3 Sys-3 Flr-1 Sch-A HPlcmt-north ZN NECB System 3 PSZ, ERV not required based on 0% OA flow, design supply air flow of 617cfm, and climate zone NECB HDD Method.",
               "For Sp-Perimeter_ZN_3 Sys-3 Flr-1 Sch-A HPlcmt-north ZN NECB System 3 PSZ, ERV not required based on exhaust heat content.",
               "For NECB 2011 NECB HDD Method:  Sp-Perimeter_ZN_3 Sys-3 Flr-1 Sch-A HPlcmt-north ZN NECB System 3 PSZ: DCV is not required for any system.",
               "For Sp-Perimeter_ZN_3 Sys-3 Flr-1 Sch-A HPlcmt-north ZN NECB System 3 PSZ: Unoccupied fan shutoff not required because system fan HP of 0.62 HP is less than the minimum threshold of 0.75 HP.",
               "For Sp-Perimeter_ZN_3 Sys-3 Flr-1 Sch-A HPlcmt-north ZN NECB System 3 PSZ: Setting motorized OA damper schedule to Always On Discrete.",
               "For Sp-Perimeter_ZN_4 Sys-3 Flr-1 Sch-A HPlcmt-west ZN NECB System 3 PSZ, ERV not required based on 0% OA flow, design supply air flow of 744cfm, and climate zone NECB HDD Method.",
               "For Sp-Perimeter_ZN_4 Sys-3 Flr-1 Sch-A HPlcmt-west ZN NECB System 3 PSZ, ERV not required based on exhaust heat content.",
               "For NECB 2011 NECB HDD Method:  Sp-Perimeter_ZN_4 Sys-3 Flr-1 Sch-A HPlcmt-west ZN NECB System 3 PSZ: DCV is not required for any system.",
               "For Sp-Perimeter_ZN_4 Sys-3 Flr-1 Sch-A HPlcmt-west ZN NECB System 3 PSZ: Annual occupied hours = 2860 hr/yr, assuming a 0.15 occupancy threshold.  This schedule will be used as the HVAC operation schedule.",
               "For Sp-Perimeter_ZN_4 Sys-3 Flr-1 Sch-A HPlcmt-west ZN NECB System 3 PSZ: Setting motorized OA damper schedule to Sp-Perimeter_ZN_4 Sys-3 Flr-1 Sch-A HPlcmt-west ZN NECB System 3 PSZ Occ Sch.",
               "For Fan Constant Volume 1: motor nameplate = 0.3841335835222998HP, motor eff = 61.5%.",
               "For Fan Constant Volume 2: motor nameplate = 0.4326208746350574HP, motor eff = 61.5%.",
               "For Fan Constant Volume 3: motor nameplate = 0.46361839037964375HP, motor eff = 61.5%.",
               "For Fan Constant Volume 4: motor nameplate = 0.4664146969028219HP, motor eff = 61.5%.",
               "For Fan Constant Volume 5: motor nameplate = 0.38488602199200184HP, motor eff = 61.5%.",
               "For Service Water Loop Pump: brake hp = 0.0HP, motor nameplate = 0.1HP, motor eff = 70.0%.",
               "For Pump Variable Speed 1: brake hp = 0.13HP, motor nameplate = 1.0HP, motor eff = 85.5%.",
               "For NECB 2011: Coil Cooling DX Single Speed 1: AirCooled All Other Single Package Capacity = 16kBtu/hr; SEER = 14.0",
               "For NECB 2011: Coil Cooling DX Single Speed 2: AirCooled All Other Single Package Capacity = 19kBtu/hr; SEER = 14.0",
               "For NECB 2011: Coil Cooling DX Single Speed 3: AirCooled All Other Single Package Capacity = 20kBtu/hr; SEER = 14.0",
               "For NECB 2011: Coil Cooling DX Single Speed 4: AirCooled All Other Single Package Capacity = 20kBtu/hr; SEER = 14.0",
               "For NECB 2011: Coil Cooling DX Single Speed 5: AirCooled All Other Single Package Capacity = 16kBtu/hr; SEER = 14.0",
               "For NECB 2011: Primary Boiler: Gas Hot Water Capacity = 98kBtu/hr; AFUE = 0.85",
               "For NECB 2011: Secondary Boiler: Gas Hot Water Capacity = 0kBtu/hr; AFUE = 0.85",
               "For NECB 2011: 40.0gal NaturalGas Water Heater - 40kBtu/hr 0.82 Therm Eff; thermal efficiency = 0.82, skin-loss UA = 6Btu/hr",
               "Finished applying HVAC efficiency standards.",
               "Started adding daylighting controls.",
               "For Attic, daylighting control not applicable because no exterior fenestration is present.",
               "For Core_ZN, daylighting control not applicable because no exterior fenestration is present.",
               "Finished adding daylighting controls.",
               "Total Time = 50sec."
            ],
            "step_result" : "Success",
            "step_values" : [
               {
                  "name" : "building_type",
                  "value" : "SmallOffice"
               },
               {
                  "name" : "template",
                  "value" : "NECB 2011"
               },
               {
                  "name" : "climate_zone",
                  "value" : "NECB HDD Method"
               },
               {
                  "name" : "epw_file",
                  "value" : "CAN_SK_Estevan.718620_CWEC.epw"
               }
            ],
            "step_warnings" : [
               "[openstudio.EpwFile] Successive data points (1985-Jan-31 to 1970-Feb-01, ending on line 753) are greater than 1 day apart in EPW file '/usr/local/bundle/bundler/gems/openstudio-standards-f448df66933d/openstudio-standards/data/weather/CAN_SK_Estevan.718620_CWEC.epw'. Data will be treated as typical (TMY)",
               "[openstudio.EpwFile] Successive data points (1985-Jan-31 to 1970-Feb-01, ending on line 753) are greater than 1 day apart in EPW file '/usr/local/bundle/bundler/gems/openstudio-standards-f448df66933d/openstudio-standards/data/weather/CAN_SK_Estevan.718620_CWEC.epw'. Data will be treated as typical (TMY)",
               "[openstudio.weather.Model] Could not find ground temperatures; will use generic temperatures, which will skew results.",
               "[openstudio.EpwFile] Successive data points (1985-Jan-31 to 1970-Feb-01, ending on line 753) are greater than 1 day apart in EPW file '/usr/local/bundle/bundler/gems/openstudio-standards-f448df66933d/openstudio-standards/data/weather/CAN_SK_Estevan.718620_CWEC.epw'. Data will be treated as typical (TMY)",
               "[openstudio.EpwFile] Successive data points (1985-Jan-31 to 1970-Feb-01, ending on line 753) are greater than 1 day apart in EPW file '/usr/local/bundle/bundler/gems/openstudio-standards-f448df66933d/openstudio-standards/data/weather/CAN_SK_Estevan.718620_CWEC.epw'. Data will be treated as typical (TMY)",
               "[openstudio.standards.Fan] For Fan Constant Volume 1, there is no greater nominal HP.  Use the efficiency of the largest motor category.",
               "[openstudio.standards.Fan] For Fan Constant Volume 2, there is no greater nominal HP.  Use the efficiency of the largest motor category.",
               "[openstudio.standards.Fan] For Fan Constant Volume 3, there is no greater nominal HP.  Use the efficiency of the largest motor category.",
               "[openstudio.standards.Fan] For Fan Constant Volume 4, there is no greater nominal HP.  Use the efficiency of the largest motor category.",
               "[openstudio.standards.Fan] For Fan Constant Volume 5, there is no greater nominal HP.  Use the efficiency of the largest motor category.",
               "[openstudio.EpwFile] Successive data points (1985-Jan-31 to 1970-Feb-01, ending on line 753) are greater than 1 day apart in EPW file '/usr/local/bundle/bundler/gems/openstudio-standards-f448df66933d/openstudio-standards/data/weather/CAN_SK_Estevan.718620_CWEC.epw'. Data will be treated as typical (TMY)",
               "[openstudio.EpwFile] Successive data points (1985-Jan-31 to 1970-Feb-01, ending on line 753) are greater than 1 day apart in EPW file '/usr/local/bundle/bundler/gems/openstudio-standards-f448df66933d/openstudio-standards/data/weather/CAN_SK_Estevan.718620_CWEC.epw'. Data will be treated as typical (TMY)",
               "[openstudio.EpwFile] Successive data points (1985-Jan-31 to 1970-Feb-01, ending on line 753) are greater than 1 day apart in EPW file '/usr/local/bundle/bundler/gems/openstudio-standards-f448df66933d/openstudio-standards/data/weather/CAN_SK_Estevan.718620_CWEC.epw'. Data will be treated as typical (TMY)",
               "[openstudio.EpwFile] Successive data points (1985-Jan-31 to 1970-Feb-01, ending on line 753) are greater than 1 day apart in EPW file '/usr/local/bundle/bundler/gems/openstudio-standards-f448df66933d/openstudio-standards/data/weather/CAN_SK_Estevan.718620_CWEC.epw'. Data will be treated as typical (TMY)",
               "[openstudio.EpwFile] Successive data points (1985-Jan-31 to 1970-Feb-01, ending on line 753) are greater than 1 day apart in EPW file '/usr/local/bundle/bundler/gems/openstudio-standards-f448df66933d/openstudio-standards/data/weather/CAN_SK_Estevan.718620_CWEC.epw'. Data will be treated as typical (TMY)",
               "[openstudio.standards.Fan] For Fan Constant Volume 1, there is no greater nominal HP.  Use the efficiency of the largest motor category.",
               "[openstudio.standards.Fan] For Fan Constant Volume 2, there is no greater nominal HP.  Use the efficiency of the largest motor category.",
               "[openstudio.standards.Fan] For Fan Constant Volume 3, there is no greater nominal HP.  Use the efficiency of the largest motor category.",
               "[openstudio.standards.Fan] For Fan Constant Volume 4, there is no greater nominal HP.  Use the efficiency of the largest motor category.",
               "[openstudio.standards.Fan] For Fan Constant Volume 5, there is no greater nominal HP.  Use the efficiency of the largest motor category."
            ]
         }
      },
      {
         "arguments" : {
            "__SKIP__" : false
         },
         "measure_dir_name" : "view_model",
         "name" : "view_model",
         "result" : {
            "completed_at" : "20170710T184812Z",
            "measure_class_name" : "ViewModel",
            "measure_display_name" : "ViewModel",
            "measure_name" : "view_model",
            "measure_taxonomy" : "Reporting.QAQC",
            "measure_type" : "ModelMeasure",
            "measure_uid" : "f4669f10-fda5-489d-8e1c-7ca3c2d40378",
            "measure_version_id" : "f4975c5f-7c25-42a2-927b-02d99b4427ef",
            "measure_version_modified" : "20170526T150340Z",
            "measure_xml_checksum" : "1E1F8B97",
            "started_at" : "20170710T184812Z",
            "stderr" : "",
            "stdout" : "[OpenStudio.Measure] <0> OSArgumentVector is deprecated, use OpenStudio::Measure::OSArgumentVector instead.\n",
            "step_errors" : [],
            "step_files" : [
               "/mnt/openstudio/analysis_4fef0e0f-5396-4c55-a6e1-2cd6803db3ab/data_point_5fab7c8a-71a8-45c1-bd92-71599d5a197d/run/001_view_model/report.html",
               "/mnt/openstudio/analysis_4fef0e0f-5396-4c55-a6e1-2cd6803db3ab/data_point_5fab7c8a-71a8-45c1-bd92-71599d5a197d/run/001_view_model/report.json"
            ],
            "step_final_condition" : "Report written to <a href='file:////mnt/openstudio/analysis_4fef0e0f-5396-4c55-a6e1-2cd6803db3ab/data_point_5fab7c8a-71a8-45c1-bd92-71599d5a197d/run/001_view_model/report.html'>report.html</a>.",
            "step_info" : [ "No changes made to the model." ],
            "step_result" : "NA",
            "step_values" : [
               {
                  "name" : "view_model_html_zip",
[...]
lZrfDztUHl5DHs9BnUzeM+MtJ4MZtVwz5W8mjXPrsPP1MqTOLp2hLZudNKAL++gg6Vd/sSk8FqLJd5o8imwU6oAM6oAM6oAM6oAM6oAM6oLPxdNZVPwSjkI/ABmzABmzABmzABmzABmzABmzAJp/Nmk6SYCN0j0AHdEAHdEAHdEAHdEAHdEAHdECnDB11DbD0F7ZM0wtMwRRMwRRMwRRMwRRMwRRMwRRMwRRMN4NpoZhiyjQTRwRTMAVTMAVTMAVTMAVTMAVTMAVTMAXTzWCqpcCass4UVcEarMEarMEarMEarMEarMEarMEarMEarB+R9YLWKHRv2oVgt1bsxRN+eulOuRXz27j97FUwC6NiGnfrd37gV1MeuvEs5Kz9cktgFIDs7LAXoxFzWYrFbrz4kkXBFWejXsGd0fXYcqdTcaBIS1hvbRXcsCiWG8dhdoTMoKt5kzjwxVG/KYrvxLkrgt626w8vg7B1f9iJJsZF4MfbN9wbX8YC4zyYjNQxsqfz9uT45+0X2x8ueXgVRLEbs1MeTwMvAX7F3djzx8+28p7X851oGHrT+CfpNc93Rt71w9XSe+RgCRbzRketoXDn46T9rufz8MxxWiztlKPWyIumE/fu0PPFeTjb55Ng+OXHlpxfApo1gcV30+R+0S87n91rN/s0905R0kN6rsfsaHEWj89vTq/H7dbf1zl22K442ib5pzCSlg50+fjXKVHfSPnJzlG1e+kZYEMx/IgTnzK1v5XzpnKQHDKkHhnSLhlSnwxpQIa0R4a0T4Z0QIa0cvimIRSdl9t0bm7T+blN5+g2nafbdK5u0/m6TefsNp23O3Te7hCO6XTe7tB5u6Pp7evCS4oZMOQjDaCcvtIDyukpPaCcftIDyhkT9IByRgQ9oJzxQA8oZzTQA8oZC/SA8hKfJhKZb+elPU0kMu/OS3qaSGT+nZfyNJHIPDwv4Wkikfl4XrrTRKIbv8l8PC/XaSLp+Pia8IVimhPaGBpIOd2kiZTTTZpIOd2kiZQzFGgi5QwFmkg5Q4EmUs5QoImUMxRoIuXlO10oOi/Py3i6UHR+npfzdKHoPD0v6+lC0fl6Xt7ThaLz9rzMpwtFOKbTeXte8tOFKvR2HEaPw+jnQAq34TD6tYLD6FVo4TB6HEZfpuAwelFwGD0Oo08LDqPPvxKH0RcDiILD6DfjzEbQAR3QAR3QAR3QAR3QAR3QAZ2Np/PEjnIEG7ABG7ABG7ABG7ABG7ABG7DZHDZP68xG0AEd0AEd0AEd0AEd0AEd0AGdJ0XnEcXZXgxj79qL717zaz5h7X9Dnu0pyrPNH9JmKLH1NkCJrVebElvX6vZJhNiMgHpUQLtUQH0qoAEV0B4V0D4V0AEV0Mq+fDMkMt+2yZzbJvNum8y9bTL/tskc3CbzcJvMxW0yH3fIfNyhG7/JfNwh83FHz8fVFddWscoLrpngyHupvNyaCY58FCgvtmaCIx8BykutmeDIo99AaM0IiMqjc9KbgcqaERCVU+fkNgOJNSMgKr/OSWwG+mpGIyOVZ+dkNQNxNSMgKs/OSWnlldVWcQyE1YyA5F1kIKtmBCQPfgNRNSMgefAbSKoZAcmD30RQzQyJzLdzMpuJmpoZEpl75yQ3Eyk1MyQyD8/JbyY6amZjJZmP56Q4ExE1MyQyH8/JclBQg4IaFNTWGEJBTRQoqEFBDQpqOQUKalBQ02oVFNRW7GtcDwW15QIFtftSwYKtJyY0ADqgAzqgAzqgAzqgAzqgAzqgs/F0npj+ANiADdiADdiADdiADdiADdiAzeaw+W50D0AHdEAHdEAHdEAHdEAHdEAHdMrbewQFNQimPSnBtNPhJR/Nkl4W26EiHjO7uxmyabsbIJu2W5ts2iDdFFpW4oYKqEcFtEsF1KcCGlAB7VEB7VMBHVABrey+N0Mi822bzLltMu+2ydzbJvNvm8zBbTIPt8lc3CbzcYfMxx268ZvMxx0yH3f0fFxdNm0Vq7xsmgmOvJfKy6aZ4MhHgfKyaSY48hGgvGyaCY48+g1k04yAqDw6J70ZyKYZAVE5dU5uM5BNMwKi8uucxGYgm2Y0MlJ5dk5WM5BNMwKi8uyclFZeNm0Vx0A2zQhI3kUGsmlGQPLgN5BNMwKSB7+BbJoRkDz4TWTTzJDIfDsns5nIppkhkbl3TnIzkU0zQyLz8Jz8ZiKbZjZWkvl4ToozkU0zQyLz8ZwsB9k0yKZBNm2NIWTTRIFsGmTTIJuWUyCbBtk0rVZBNm3Fvsb1kE1bLpBNuy8VrNJ6YuoCoAM6oAM6oAM6oAM6oAM6oAM6G0/niYkOgA3YgA3YgA3YgA3YgA3YgA3YbA6b70bsAHRAB3RAB3RAB3RAB3RAB3RAp7w9yKbNC2TT7mXT7M2QTetvgGxavzbZtK7lkKimmeD0iHB2iXD6RDgDIpw9Ipx9IpwDIpyVTfdGQFQebVO5tE3l0zaVU9tUXm1TubVN5dc2lWPbVJ7tUHm2QzZWU3m2Q+XZjpZnq8ujrUCVV0czgJH2UHltNAMYadyXV0YzgJHGfHldNAMYabwbqKKZ4BD5sTyNGUiimeAQubI8hxnooZngEHmzPIEZiKGZjINE/izPXgZKaCY4RP4sT13lZdBWYAxU0ExwpN1joIFmgiMNdwMFNBMcabgb6J+Z4EjD3UT9zAiIyqPlGcxE+swIiMqp5UnMRPfMCIjKr+V5zET0zGhkpPJseSozUTwzAqLybHk2g9wZ5M4gd7bGEHJnokDuDHJnkDvLKZA7g9yZVqsgd7ZiX+N6yJ0tF8id3ZcKVlc9MVUA0AEd0AEd0AEd0AEd0AEd0AGdjafzxMQCwAZswAZswAZswAZswAZswAZsNofNdyNSADqgAzqgAzqgAzqgAzqgAzqgU94e5M7mBXJn93JnzmbInQ02QO5sUKPcWbdPpHdmANSjAtqlAupTAQ2ogPaogPapgA6ogL7Zbm+CRObbNplz22TebZO5t03m3zaZg9tkHm6TubhN5uMOmY87dOM3mY87ZD7u6Pm4jgzaMpaJDlp5HHkvmSihlceRjwImWmjlceQjgIkaWnkcefQb6aEZAFF5dE56M5JEMwCicuqc3GakimYAROXXOYnNSBjNYGSk8uycrGakjWYAROXZOSnNRB5tGcdIH80ASN5FRgppBkDy4DfSSDMAkge/kUqaAZA8+M100kyQyHw7J7OZSaWZIJG5d05yM1NLM0Ei8/Cc/GYmmGYyVpL5eE6KM9NMM0Ei8/GcLAfZNMimQTZtjSFk00SBbBpk0yCbllMgmwbZNK1WQTZtxb7G9ZBNWy6QTbsvFazSemLqAqADOqADOqADOqADOqADOqADOhtP54mJDoAN2IAN2IAN2IAN2IAN2IAN2GwOm+9G7AB0QAd0QAd0QAd0QAd0QAd0QKe8PcimzQtk0+5l03qbIZu2twGyaXu1yaYN0k2hZSVuqIB6VEC7VEB9KqABFdAeFdA+FdABFdDK7nszJDLftsmc2ybzbpvMvW0y/7bJHNwm83CbzMVtMh93yHzcoRu/yXzcIfNxR8/H1WXTVrHKy6aZ4Mh7qbxsmgmOfBQoL5tmgiMfAcrLppngyKPfQDbNCIjKo3PSm4FsmhEQlVPn5DYD2TQjICq/zklsBrJpRiMjlWfnZDUD2TQjICrPzklp5WXTVnEMZNOMgORdZCCbZgQkD34D2TQjIHnwG8imGQHJg99ENs0Micy3czKbiWyaGRKZe+ckNxPZNDMkMg/PyW8msmlmYyWZj+ekOBPZNDMkMh/PyXKQTYNsGmTT1hhCNk0UyKZBNg2yaTkFsmmQTdNqFWTTVuxrXA/ZtOUC2bT7UsEqrSemLgA6oAM6oAM6oAM6oAM6oAM6oLPxdJ6Y6ADYgA3YgA3YgA3YgA3YgA3YgM3msPluxA5AB3RAB3RAB3RAB3RAB3RAB3TK24Ns2rxANu1eNm13M2TT9jdANm2/Ntm0ruWQqKaZ4PSIcHaJcPpEOAMinD0inH0inAMinJVN90ZAVB5tU7m0TeXTNpVT21RebVO5tU3l1zaVY9tUnu1QebZDNlZTebZD5dmOlmery6OtQJVXRzOAkfZQeW00Axhp3JdXRjOAkcZ8eV00AxhpvBuoopngEPmxPI0ZSKKZ4BC5sjyHGeihmeAQebM8gRmIoZmMg0T+LM9eBkpoJjhE/ixPXeVl0FZgDFTQTHCk3WOggWaCIw13AwU0ExxpuBvon5ngSMPdRP3MCIjKo+UZzET6zAiIyqnlScxE98wIiMqv5XnMRPTMaGSk8mx5KjNRPDMCovJseTaD3BnkziB3tsYQcmeiQO4McmeQO8spkDuD3JlWqyB3tmJf43rInS0XyJ3dlwpWVz0xVQDQAR3QAR3QAR3QAR3QAR3QAZ2Np/PExALABmzABmzABmzABmzABmzABmw2h813I1IAOqADOqADOqADOqADOqADOqBT3h7kzuYFcmf3cmf9zZA7O9gAubODGuXOun0ivTMDoB4V0C4VUJ8KaEAFtEcFtE8FdEAF9M12exMkMt+2yZzbJvNum8y9bTL/tskc3CbzcJvMxW0yH3fIfNyhG7/JfNwh83FHz8d1ZNCWsUx00MrjyHvJRAmtPI58FDDRQiuPIx8BTNTQyuPIo99ID80AiMqjc9KbkSSaARCVU+fkNiNVNAMgKr/OSWxGwmgGIyOVZ+dkNSNtNAMgKs/OSWkm8mjLOEb6aAZA8i4yUkgzAJIHv5FGmgGQPPiNVNIMgOTBb6aTZoJE5ts5mc1MKs0Eicy9c5KbmVqaCRKZh+fkNzPBNJOxkszHc1KcmWaaCRKZj+dkOcimQTYNsmlrDCGbJgpk0yCbBtm0nALZNMimabUKsmkr9jWuh2zacoFs2n2pYJXWE1MXAB3QAR3QAR3QAR3QAR3QAR3Q2Xg6T0x0AGzABmzABmzABmzABmzABmzAZnPYfDdiB6ADOqADOqADOqADOqADOqADOuXtQTZtXiCbdi+bNtgI2bRe9+nLpiUc65JNG6SbQstK3FAB9aiAdqmA+lRAAyqgPSqgfSqgAyqgld33Zkhkvm2TObdN5t02mXvbZP5tkzm4TebhNpmL22Q+7pD5uEM3fpP5uEPm446ej6vLpq1ilZdNM8GR91J52TQTHPkoUF42zQRHPgKUl00zwZFHv4FsmhEQlUfnpDcD2TQjICqnzsltBrJpRkBUfp2T2Axk04xGRirPzslqBrJpRkBUnp2T0srLpq3iGMimGQHJu8hANs0ISB78BrJpRkDy4DeQTTMCkge/iWyaGRKZb+dkNhPZNDMkMvfOSW4msmlmSGQenpPfTGTTzMZKMh/PSXEmsmlmSGQ+npPlIJsG2TTIpq0xhGyaKJBNg2waZNNyCmTTIJum1SrIpq3Y17gesmnLBbJp96WCVVpPTF0AdEAHdEAHdEAHdEAHdEAHdEBn4+k8MdEBsAEbsAEbsAEbsAEbsAEbsAGbzWHz3YgdgA7ogA7ogA7ogA7ogA7ogA7olLcH2bR5gWzavWza3mbIptkbIJtm1yab1rUcEtU0E5weEc4uEU6fCGdAhLNHhLNPhHNAhLOy6d4IiMqjbSqXtql82qZyapvKq20qt7ap/NqmcmybyrMdKs92yMZqKs92qDzb0fJsdXm0Fajy6mgGMNIeKq+NZgAjjfvyymgGMNKYL6+LZgAjjXcDVTQTHCI/lqcxA0k0ExwiV5bnMAM9NBMcIm+WJzADMTSTcZDIn+XZy0AJzQSHyJ/lqau8DNoKjIEKmgmOtHsMNNBMcKThbqCAZoIjDXcD/TMTHGm4m6ifGQFRebQ8g5lInxkBUTm1PImZ6J4ZAVH5tTyPmYieGY2MVJ4tT2UmimdGQFSeLc9mkDuD3BnkztYYQu5MFMidQe4Mcmc5BXJnkDvTahXkzlbsa1wPubPlArmz+1LB6qonpgoAOqADOqADOqADOqADOqADOqCz8XSemFgA2IAN2IAN2IAN2IAN2IAN2IDN5rD5bkQKQAd0QAd0QAd0QAd0QAd0QAd0ytuD3Nm8QO5sIXfW2wy1M2cD1M6cGtXOun0iuTMDoB4V0C4VUJ8KaEAFtEcFtE8FdEAF9M1uexMkMt+2yZzbJvNum8y9bTL/tskc3CbzcJvMxW0yH3fIfNyhG7/JfNwh83FHz8d1VNCWsUxk0MrjyHvJRAitPI58FDCRQiuPIx8BTMTQyuPIo99IDs0AiMqjc9KbkSKaARCVU+fkNiNRNAMgKr/OSWxGumgGIyOVZ+dkNSNpNAMgKs/OSWkm6mjLOEbyaAZA8i4yEkgzAJIHv5FEmgGQPPiNRNIMgOTBbyaTZoJE5ts5mc1MKc0Eicy9c5KbmViaCRKZh+fkNzO9NJOxkszHc1KcmWSaCRKZj+dkOaimQTUNqmlrDKGaJgpU06CaBtW0nALVNKimabUKqmkr9jWuh2racoFq2n2pYJHWExMXAB3QAR3QAR3QAR3QAR3QAR3Q2Xg6T0xzAGzABmzABmzABmzABmzABmzAZnPYfDdaB6ADOqADOqADOqADOqADOqADOuXtQTVtXqCatlBN290M1bTeBqim9WpTTRuke0LLKtxQAfWogHapgPpUQAMqoD0qoH0qoAMqoJXN92ZIZL5tkzm3TebdNpl722T+bZM5uE3m4TaZi9tkPu6Q+bhDN36T+bhD5uOOno+rq6atYpVXTTPBkfdSedU0Exz5KFBeNc0ERz4ClFdNM8GRR7+BapoREJVH56Q3A9U0IyAqp87JbQaqaUZAVH6dk9gMVNOMRkYqz87JagaqaUZAVJ6dk9LKq6at4hiophkBybvIQDXNCEge/AaqaUZA8uA3UE0zApIHv4lqmhkSmW/nZDYT1TQzJDL3zkluJqppZkhkHp6T30xU08zGSjIfz0lxJqppZkhkPp6T5aCaBtU0qKatMYRqmihQTYNqGlTTcgpU06CaptUqqKat2Ne4HqppywWqafelgkVaT0xcAHRAB3RAB3RAB3RAB3RAB3RAZ+PpPDHNAbABG7ABG7ABG7ABG7ABG7ABm81h891oHYAO6IAO6IAO6IAO6IAO6IAO6JS3B9W0eYFq2kI1rb8Zqmm7G6CatlubalrXckhE00xwekQ4u0Q4fSKcARHOHhHOPhHOARHOyp57IyAqj7apXNqm8mmbyqltKq+2qdzapvJrm8qxbSrPdqg82yEbq6k826HybEfLs9XV0VagyoujGcBIe6i8NJoBjDTuywujGcBIY768LJoBjDTeDUTRTHCI/FiexgwU0UxwiFxZnsMM5NBMcIi8WZ7ADLTQTMZBIn+WZy8DITQTHCJ/lqeu8ipoKzAGImgmONLuMZBAM8GRhruBAJoJjjTcDeTPTHCk4W4ifmYEROXR8gxmonxmBETl1PIkZiJ7ZgRE5dfyPGaieWY0MlJ5tjyVmQieGQFRebY8m0HtDGpnUDtbYwi1M1Ggdga1M6id5RSonUHtTKtVUDtbsa9xPdTOlgvUzu5LBYurnpgoAOiADuiADuiADuiADuiADuiAzsbTeWJaAWADNmADNmADNmADNmADNmADNpvD5rvRKAAd0AEd0AEd0AEd0AEd0AEd0ClvD2pn8wK1s4Xa2WAz1M76G6B21q9R7azbJ5I7MwDqUQHtUgH1qYAGVEB7VED7VEAHVEDf7LY3QSLzbZvMuW0y77bJ3Nsm82+bzMFtMg+3yVzcJvNxh8zHHbrxm8zHHTIfd/R8XEcFbRnLRAatPI68l0yE0MrjyEcBEym08jjyEcBEDK08jjz6jeTQDICoPDonvRkpohkAUTl1Tm4zEkUzAKLy65zEZqSLZjAyUnl2TlYzkkYzAKLy7JyUZqKOtoxjJI9mACTvIiOBNAMgefAbSaQZAMmD30gkzQBIHvxmMmkmSGS+nZPZzJTSTJDI3DsnuZmJpZkgkXl4Tn4z00szGSvJfDwnxZlJppkgkfl4TpaDahpU06CatsYQqmmiQDUNqmlQTcspUE2DappWq6CatmJf43qopi0XqKbdlwoWaT0xcQHQAR3QAR3QAR3QAR3QAR3QAZ2Np/PENAfABmzABmzABmzABmzABmzABmw2h813o3UAOqADOqADOqADOqADOqADOqBT3h5U0+YFqmkL1bS9zVBNG2yAatqgNtW0QbontKzCDRVQjwpolwqoTwU0oALaowLapwI6oAJa2XxvhkTm2zaZc9tk3m2TubdN5t82mYPbZB5uk7m4TebjDpmPO3TjN5mPO2Q+7uj5uLpq2ipWedU0Exx5L5VXTTPBkY8C5VXTTHDkI0B51TQTHHn0G6imGQFReXROejNQTTMConLqnNxmoJpmBETl1zmJzUA1zWhkpPLsnKxmoJpmBETl2Tkprbxq2iqOgWqaEZC8iwxU04yA5MFvoJpmBCQPfgPVNCMgefCbqKaZIZH5dk5mM1FNM0Mic++c5GaimmaGRObhOfnNRDXNbKwk8/GcFGeimmaGRObjOVkOqmlQTYNq2hpDqKaJAtU0qKZBNS2nQDUNqmlarYJq2op9jeuhmrZcoJp2XypYpPXExAVAB3RAB3RAB3RAB3RAB3RAB3Q2ns4T0xwAG7ABG7ABG7ABG7ABG7ABG7DZHDbfjdYB6IAO6IAO6IAO6IAO6IAO6IBOeXtQTZsXqKYtVNP2N0M1bW8DVNP2alNN61oOiWiaCU6PCGeXCKdPhDMgwtkjwtknwjkgwlnZc28EROXRNpVL21Q+bVM5tU3l1TaVW9tUfm1TObZN5dkOlWc7ZGM1lWc7VJ7taHm2ujraClR5cTQDGGkPlZdGM4CRxn15YTQDGGnMl5dFM4CRxruBKJoJDpEfy9OYgSKaCQ6RK8tzmIEcmgkOkTfLE5iBFprJOEjkz/LsZSCEZoJD5M/y1FVeBW0FxkAEzQRH2j0GEmgmONJwNxBAM8GRhruB/JkJjjTcTcTPjICoPFqewUyUz4yAqJxansRMZM+MgKj8Wp7HTDTPjEZGKs+WpzITwTMjICrPlmczqJ1B7QxqZ2sMoXYmCtTOoHYGtbOcArUzqJ1ptQpqZyv2Na6H2tlygdrZfalgcdUTEwUAHdABHdABHdABHdABHdABHdDZeDpPTCsAbMAGbMAGbMAGbMAGbMAGbMBmc9h8NxoFoAM6oAM6oAM6oAM6oAM6oAM65e1B7WxeoHa2UDs72Ay1s/0NUDvbr03tzN7tWt2lYu+SiJ8Rwvaqgd2tBrZfDeygGti9amD3q4E9qAZ2Za8/JW5FcWZXFGh2RZFmVxRqdkWxZlcUbHZF0WZXFG52RfHmVBRvTlV5raJ4cyqKN8ck3tRV5fKQy4vM0aGq9m55CTo6VNWRrLxAHR2q6ihWXr6ODlV1BDMQtyOErSa6lKcLBkp4hLDVBJjyXMFANo8QtpoYU54oGGjsEWaFaqJMeZZgIMhHCFtNlClPEcqr9+WhGoj5EcKqdq2B1B8hrOoAZiAESAirOoAZyAQSwqoOYCYigpS4FcWZ8kzBRHGQEreiUFOeLJjIE1LiVhRtyvMFEy1DyjxRUbwpTxlMhA8pcSuKN+VZA1QSoZIIlcQ1hlBJFAUqiVBJhEpiToFKIlQStVoFlcQV+xrXQyVxuUAl8b5UsCjziYmJgA7ogA7ogA7ogA7ogA7ogA7obDydJ6YxAjZgAzZgAzZgAzZgAzZgAzZgszlsvhttE9ABHdABHdABHdABHdABHdABnfL2HkEl8QO/mvLQjWchZ+2XWxBNfFqiiTy89oac/dsVnvc6CKZMPDCxznm3+3IzBBQPNkBA8aA+AUXxd1mlJiKcHhHOLhFOnwhnQISzR4SzT4RzQISzKjBgAkTl0TaVS9tUPm1TObVN5dU2lVvbVH5tUzm2TeXZDpVnO2RjNZVnO1Se7Wh5toaw3zKUgZJfeRhpDxlo9ZWHkca9gRpfeRhpzBvo7ZWHkca7iaKeAQ6RH8vTmIlIngEOkSvLc5iJ7p0BDpE3yxOYiZSdwThI5M/y7GWiTmeAQ+TP8tRlIDi3DGOiMGeAI+0eEw05AxxpuJuoxBngSMPdRAfOAEca7kZKbyZAVB4tz2BG4m0mQFROLU9iRnpsJkBUfi3PY0YSayYjI5Vny1OZkWqaCRCVZ8uz2RrQ76EXhF58x2y2zdqnM39LSFINtv/X9be79nb69y98uN2zZWmuu/JF78WL3d2DAwITTvUmetWb2K3eRL96E4PqTexVb2K/ehMH1ZtYyexV2aghvu0aAtyuIcLtGkLcriHG7RqC3K4hyu0awtyuIc6dGuLcqSOP1xDnTg1x7pSLcye14cYyG121aVWv5zj7AwIT8qdBZkL+MMhMyJ8FmQn5kEtmQj7ikpmQD7hkJuTjLZkJ+XBLZiJnWkVno4b4zplW0dmoIcJzplV0NmqI8ZxpFZ2NGqI8Z1pFZ6OGOM+ZVtHZqCOP1xDnOdMqOhvl4rwnbLwMPYkN50BtWmXbe3u9HoEJ+dMgMyF/GGQm5M+CzIR8yCUzIR9xyUzIB1wyE/LxlsyEfG0UmYmcBYF0NuQrquhsyBdb0dmQr8OisyFfokVnQ74ukc6GfMkinQ35akY6G/KFjnQ2aojznGkVnY068ngNiTxnWkVno1wq3xU2PlzOZDb21aZVB0np/0xgQv40yEzIHwaZCfmzIDMhn1aRmZBPq8hMyKdVZCbk0yoyE/LhlsxEzrSKzoZ8WkVnQz6torMhn1bR2ZBPq+hsyKdVdDbk0yo6G/JpFZ0N+bSKzkYNcZ4zraKzUUceryGR50yr6GyUS+V9YePffCSzsac2rfrll+PjvT0CE/KnQWZC/jDITMifBZkJ+bSKzIR8WkVmQj6tIjMhn1aRmZAPt2QmcqZVdDbk0yo6G/JpFZ0N+bSKzoZ8WkVnQz6torMhn1bR2ZBPq+hsyKdVdDZqiPOcaRWdjTryeA2JPGdaRWejXCofpFO3GZfZGKhNq46PBwMSE/KnQWZC/jDITMifBZkJ+bSKzIR8WkVmQj6tIjMhn1aRmZAPt2QmcqZVdDbk0yo6G/JpFZ0N+bSKzoZ8WkVnQz6torMhn1bR2ZBPq+hsyKdVdDZqiPOcaRWdjTryeA2JPGdaRWejXCrfEzbeBLJl8U5fbVq1v+84/T6BCfnTIDMhfxhkJuTPgsyEfFpFZkI+rSIzIZ9WkZmQT6vITOTpThGZyBVbo7KRp1ZFZSNPyIrKRp7GFZWNPPkrKht5mm9UNvLk4Khs5CnFUdnIE5GjslFDnOdMq+hs1JHHa0jkOdMqOhvFqfyTisLrXJOZHTGf3ywEZFPd2HZ0Pe6kCrCFUrELYeeIxz8HM38UtfvdDrPtfof1xF9OX01u9jahcS9KPRoduzEfB+Hdi1svymSR79uvoB6dALwLRzx8PxMqxco3Ch53qzzecDeahTyjIYSW5/1esTw3qlGNalSjGtWoRjWqUY1qVKMa1ahGNapRjWpUoxrVqEY1qlGNalSjGtWoRjWqUY1qVKMa1ahGNapRjWpUoxrVqEY1qlGNalSjGtWoRjWqG1V9ZwXX/7+98+1t2+ba+PvnU3Aa0DiYrVh2/q/ZkLpOW6BtiqTFsAZFIFu0rUSWDElOYgz57rcoS1nchhYpH3nLnksv0lRHvM5PJA95WlnHPAxdh3+wxYu1ltlc8X1V8WpstPhq7DkPXR5lr9ca9fwF4okXxKbn+rzwFdnoqfd0i9+sjcz0q+cngWfHbuAnUEYU80mjxwdByA21N5/f8yH3ncUbmp+r7TbrrC3eXG6KF5nFD8Pjg1iAFUjnsublkMddPxb9k7gYTP1+SlrbZH8VSOSE/KH1ReG73OJwB6wWj9zIjNJRUXMkjkeNzKT/unZ/VPsbWFctxxevjifsme7lJIhcIfg6Oa1yN/khZJ6gCoNbPaQcy/UdLuKhYdU1W+fHVdmGA5d7Yr7Vsj6dx8kwDKYT7rAXL9hP2fk783JkR9n77yLANh9bZ09akw4x7eHwRPgwPe4P4xF7yVrsd2Yce57BDheviDy3z2sNa/Oi+W2zMN5+uJMgZLWr5Faav7KrxE02VTO/4twvyYqjP0DiENM407u4+mZe8xk7Ojqad145xVQ1G/Yr3VvNj17I7esyje812+heL/oru7sjMa3FZMhmSlrIwby0o8gd+tzpiBIR0UXak9/KdWU+0JNpNKqVHYtkSA/n41k+kjzvUOUuTXFlWS9RHAbXXM3P/NqynoKJ3XfjmZqr7OLSd5W6yF2VVckXksVlpUx4aC8+4sjDeXHhYQ1m6arphJs663093VWVrr8vyinEsbXFPn35zP48/XLGzk/PPr/7+Ia9P33zrsPeds+6agInyarN72yRorE4YFEQxsyfjpN50GdpSZOI2VE/SV5cf6igmPe90Hm0M9t11lNfXEIeT0OfTeww4ideYMc1Wyz5m8lQPjrXS88pdWZxivbIbXYLRcL31VZ6ecg/03BPg7224fCBPfViNgmDZA3jG3W28fP+fqfT7W5UXHgGOMABDnCAAxzgAAc4wAEOcP6bOCyajpN/AjOHi5PMsWeCKOQOaEADGtCABjSgAQ1oQAMa0IBmOc1t+tGs72h63pQDBzjAAQ5wgAMc4AAHOMABDnDK4Dx8b6AlvjfwfCr73sC2lT5hOz7e3j44AClIQQpSkIIUpCAFKUhBClKQghSkz4O0lZLasYy0mZK2263W/i5IQQpSkIIUpCAFKUhBClKQghSkIH0epG1BehK6EtLWQUpqWXt77TZIQQpSkIIUpCAFKUhBClKQghSkIH0epNuC9PNoKiPdT0kPkmPnFUhBClKQghSkIAUpSEEKUpCCFKQgfR6kO4L0D+7ISPdS0tevO529PZCCFKQgBSlIQQpSkIIUpCAFKUhB+jxId9P/mZhyGeluStrp7O6CFKQgBSlIQQpSkIIUpCAFKUhBCtLnQronSD8EssqCrZ2UdH+/1drZASlIQQpSkIIUpCAFKUhBClKQghSkayPNUZzQvq0Vit2ZsRt7/HxkT7gZ87u4tvE2mIZRMcbsx5av3TH3IzfwPR6lCgUSW1vs2HGYzVIlduvGIxYFY86cdkHL6GZo2pMJ952aIXwbmwUN8sO04zisGXdGne02NRvNkkYt9UZRPPP4HK9h+/1RECbtDY8PNGgzjUHgx41b7g5HsdDoBZ6jrjEfm/NJ4xMPkwGKeXj59eOlxc5nUaPNTrywkfzeHzWO2dtPXn8cN6JgmgzE14/sY7fzSlwW8zFrs0/nX9lpvy+u3dhcNrQvt6J+6E7i36TXvNxy3JunzdI2crFEi7nOkdEX876TdJXt+slNbjcNlvbfkeG40cSzZ4eu7yWmRs8L+te/GnK+RHR+CyyeTZL2ogu3ruwbe352aUtx3NihmKLsiDnueOJx0+e35zfDmvHzj4x1tt1spj8KQ07IOnZsJ7oXfxme3eOecWg4fGBPvZhNwmDgetyozy2Xd8ahZTbrxo3tTXn2e1+sTEmbZLHpdLpd476upNMi0mkT6WwT6ewQ6ewS6ewR6ewT6RwQ6VhNKiGqGW1RTWmLak5bVJPaoprVFtW0tqjmtUU1sS2qmd2imtktsrWaama3qGZ2S2tms2g6Hi98VbXSjhZyR0NG2kd6MtIe0pOR9o+ejDTu9WSkUa8nI415PRlpxOvJSONdT0a+kWnqEM1j+TamqUM0k+WbmKYO0VyWb2GaOkSzWb6BaeoQzWf59qWpQ7UuE81n+d6lqaM+n29dP9bftnrilLqOtHs0daTdo6kj7R5NHWm4a+pIw11TRxrumjrScNfUkYa7po58/9IVoprR8h1MV4hqTsv3MF0hqlkt38V0hajmtXwf0xWimtnynUxXiGytpprZ8s1MV0h9Zj88uyj8bmHZNtdc+Ife/MuHCVy0qnfRrt7FdvUudqp3sVu9i73qXexX7+KgehcLO3tVPtYQ39YaAtxaQ4Rbawhxaw0xbq0hyK01RLm1hjC31hDnrTXEeWsd+/ga4ry1hjhvlYvzwq9wVEur5t/xSOBCPhpkLuSDQeZCPhZkLuRLLpkL+YpL5kK+4JK5kK+3ZC7kyy2ZiyVpFZ2PNcT3krSKzscaInxJWkXnYw0xviStovOxhihfklbR+VhDnC9Jq+h8rGMfX0OcL0mr6HyUi/PCb8pSS6vmX6VF4EI+GmQu5INB5kI+FmQu5EsumQv5ikvmQr7gkrmQr7dkLuSfjSJzseQDgXQ+5J+oovMh/7AVnQ/557DofMg/okXnQ/65RDof8o8s0vmQf5qRzof8g450PtYQ50vSKjof69jH17CRL0mr6HyU28oLv5BELa2af2MJgQv5aJC5kA8GmQv5WJC5kKdVZC7kaRWZC3laReZCnlaRuZAvt2QulqRVdD7kaRWdD3laRedDnlbR+ZCnVXQ+5GkVnQ95WkXnQ55W0fmQp1V0PtYQ50vSKjof69jH17CRL0mr6HyU28oL676rpVXzwvAELuSjQeZCPhhkLuRjQeZCnlaRuZCnVWQu5GkVmQt5WkXmQr7ckrlYklbR+ZCnVXQ+5GkVnQ95WkXnQ55W0fmQp1V0PuRpFZ0PeVpF50OeVtH5WEOcL0mr6HysYx9fw0a+JK2i81FuKy8sr6uWVs3r7xK4kI8GmQv5YJC5kI8FmQt5WkXmQp5WkbmQp1VkLuRpFZkL+XJL5mJJWkXnQ55W0fmQp1V0PuRpFZ0PeVpF50OeVtH5kKdVdD7kaRWdD3laRedjDXG+JK2i87GOfXwNG/mStIrOR7mtvLCKoVpaNS9zSOBCPhpkLuSDQeZCPhZkLuRpFZkLeVpF5kKeVpG5kKdVZC6W1Z0icrG02BqVj2XVqqh8LCtkReVjWY0rKh/Lyl9R+VhW843Kx7JycFQ+llWKo/KxrIgclY81xPmStIrOxzr28TVs5EvSKjofxVv5N5UKr1kBZ3bEfH6bF5BN68bWopthPa0AW1gqNq8CHfH4VTD1nai206wzy9qps7b4rbWjVm72LsF4KG7tOB075sMgnB3fudG8ivLD/SuUmk4ETkOHh2dTUdRYuaHgmC1yfOB2NA35HEPUZc76veIy3zDDDDPMMMMMM8wwwwwzzDDDDDPMMMMMM8wwwwwzzDDDDDPMMMMMM8wwwwwzzDDDDDPMMMMMM8wwwwwzzDDDDDPMMMMMM8ww/6fMMzO44WHoOvyDLV6stczmiu+rildjo8VXY8956PIoe73WqOcvEE+8IDY91+eFr8hGT72nW/xmbWSmXz0/CTw7dgM/gTKimE8aPT4IQm6ovfn8ng+57yze0PxcbbdZZ23x5nJTvMgsfhgeH8QCrEA6lzUvhzzu+rHon8TFYOr3U9LaJvurQCIn5A+tLwrf5RaHO2C1eORGZpSOipojcTxqZCb917X7o9rfwLpqOb54dTxhz3QvJ0HkCsHXyWmVu8kPIfMEVRjc6iHlWK7vcBEPDauu2To/rso2HLjcE/OtlvXpPE6GYTCdcIe9eMF+ys7fmZcjO8refxcBtvnYOnvSmnSIaQ+HJ8KH6XF/GI/YS9ZivzPj2PMMdrh4ReS5fV5rWJsXzW+bhfH2w50EIatdJbfS/JVdJW6yqZr5Fed+SVYc/QESh5jGmd7F1Tfzms/Y0dHRvPPKKaaq2bBf6d5qfvRCbl+XaXyv2Ub3etFf2d0diWktJkM2U9JCDualHUXu0OdOR5SIiC7SnvxWrivzgZ5Mo1Gt7FgkQ3o4H8/ykeR5hyp3aYory3qJ4jC45mp+5teW9RRM7L4bz9RcZReXvqvURe6qrEq+kCwuK2XCQ3vxEUcezosLD2swS1dNJ9zUWe/r6a6qdP19UU4hjq0t9unLZ/bn6Zczdn569vndxzfs/embdx32tnvWVRM4SVZtfmeLFI3FAYuCMGb+dJzMgz5LS5pEzI76SfLi+kMFxbzvhc6jndmus5764hLyeBr6bGKHET/xAjuu2WLJ30yG8tG5XnpOqTOLU7RHbrNbKBK+r7bSy0P+mYZ7Guy1DYcP7KkXs0kYJGsY36izjZ/39zudbnej4sIzwAEOcIADHOAABzjAAQ5wgPPfxGHRdJz8E5g5XJxkjj0TRCF3QAMa0IAGNKABDWhAAxrQgAY0y2lu049mfUfT86YcOMABDnCAAxzgAAc4wAEOcIBTBufhewMt8b2B51PZ9wa2rfQJ2/Hx9vbBAUhBClKQghSkIAUpSEEKUpCCFKQgfR6krZTUjmWkzZS03W619ndBClKQghSkIAUpSEEKUpCCFKQgBenzIG0L0pPQlZC2DlJSy9rba7dBClKQghSkIAUpSEEKUpCCFKQgBenzIN0WpJ9HUxnpfkp6kBw7r0AKUpCCFKQgBSlIQQpSkIIUpCAF6fMg3RGkf3BHRrqXkr5+3ens7YEUpCAFKUhBClKQghSkIAUpSEEK0udBupv+z8SUy0h3U9JOZ3cXpCAFKUhBClKQghSkIAUpSEEKUpA+F9I9QfohkFUWbO2kpPv7rdbODkhBClKQghSkIAUpSEEKUpCCFKQgXRtpjuKE9m2tUOzOjN3Y4+cje8LNmN/FtY23wTSMijFmP7Z87Y65H7mB7/EoVSiQ2Npix47DbJYqsVs3HrEoGHPmtAtaRjdD055MuO/UDOHb2CxokB+mHcdhzbgz6my3qdloljRqqTeK4pnH53gN2++PgjBpb3h8oEGbaQwCP27ccnc4ioVGL/AcdY352JxPGp94mAxQzMPLrx8vt9n5LGq02YkXNix23h81jtnbT15/LBxFMfv6kX3sdl6Jq2I+Zm326fwrO+33xaUbm8tG9uVW1A/dSfyb9JqXW45787RZ2kYulmgx1zky+mLad5Kesl0/ucdty2Bp9x0ZjhtNPHt26PpeYmr0vKB//ash50tE57fA4tkkaS96cOvKvrHnZ5e2FMeNHYoZyo6Y444nHjd9fnt+M6wZP//IWGfbzWb6ozDihKxjx3aie/GX4dk97hmHhsMH9tSL2SQMBq7HjfrccnlnHFpms27c2N6UG4e7B+bBo2P/oG70xTKVKCQrT6fT7Rr3dSXVViWq7UpUtytR3alEdbcS1b1KVPcrUT2oRNVqViNbTXRZ1YSXVU18WdUEmFVNhFnVhJhVTYxZ1QSZVU2UtaqJslZFe1g1UdaqJspaK0QZi6bj8cI3f5fIEELuaIgq9q2eqGLP6okq9queqOLapSequHLpiSquW3qiiquWnqjimqUnqpoYaKpWElOqaYGmaiVRpZoUaKpWEleqKYGmaiWRpZoQaKpWEluq6YCmajX7VSWxpZoLaKqWja1b149XTQN64gJ1VcVu1VRV7FZNVcVu1VRVXLI0VRWXLE1VxSVLU1VxydJUVVyyNFVV8wFd2WqiSzUj0JWtJr5UcwJd2WoiTDUr0JWtJsZU8wJd2WqiTDUz0JWtaA+rJspUkwNdWa0o+6bywCF7nMiOmM9v8+cZ6WOMWnQzrKcPJAqfXOTPJCMevwqmvhPVdpp1Zlk7ddYWv7V21J5+3CUYD49aHadjx3wYhLPjOzeaP9N76AqFB5+JwGno8PBsKh6xKTcUHLNFjg/cjqYhn2OIp4TZEKz6KDd9jrTo6pyHLo8y3MRTNiATL4hN8XCr0GX01H0Xk0ZmOu8mgWfHbuAnUEYU80mjxwdByA21mfSeD7nvLN7Q/FxtN5kFbTETxMMwS/zInpQWPkTOZc3LIY+7fiz6J3ExmPr9lLS2yf5SeFQqCPlD64vC2BCHO2C1eORGybwW7dQcieNRIzPpv67dH9X+BtZVy/GzZ4OZ7uUkiFwh+Do5rXI3+SFknqAKg1s9pBzL9R0uArdh1TVb58dV2YYDl3tivtWyPp3HyTAMphPusBcv2E/Z+TvzcmRH2XoiAmzzsXX2pDXpENMeDk+ED9Pj/jAesZesxX5nxrHnGexw8YrIc/u81rA2L5rfNgvj7Yc7CUJWu0pupfkru0rcZFM18yvO/XLELP0BEoeYxpnexdU385ony9vR0bzzyimmqtmwX+nean70Qm5fl2l8r9lG93rRX9ndHYlpLSZDNlPSjdG8nH8MiDvpB4Gii7Qnv5XrynygJ9NoVCs7FsmQHs7Hs3wked6hyl2a4sqyXqI4DK65mp/5tWU9BRO778YzNVfZxaXvKnWRuyqrki8ki8tKmfDQXnzEkYfz4sLDGszSVdMJN3XW+3q6qypdf1+UU4hja4t9+vKZ/Xn65Yydn559fvfxDXt/+uZdh73tnnXVBE6SVZvf2SJFY3HAoiBJpP3pOJkHfZamiBGzo36SvLj+UEEx73uh82hntuusp764hDyehj6b2GHET7zAjmu2WPI3k6F8dK6XnlPqzOIU7ZHb7BaKhO//gY9rfvcANvtMpnig+o98ehQ4wAEOcIADHOAABzjAAQ5wnj3Ojx9wEUQhd0ADGtCABjSgAQ1oQAMa0IAGNMtpfvhIoKARH/EDDnCAAxzgAAc4wAEOcIADHOD8g0USP/PxhId2PA05q51sokziv6pM4h+2mHFvefrH8bjncj9mYshE3UPuTJP+b7C95snzKIHYegYlEFtrK4GYvnhatgQTkU6bSGebSGeHSGeXSGePSGefSOeASGehtsBKQlQz2qKa0hbVnLaoJrVFNastqmltUc1ri2piW1Qzu0U1s1tkazXVzG5RzeyW1sxWL9m3IFW+SN8KMtIeKl+IbwUZadyXL7a3gow05ssX1FtBRhrvKxTNW0WHaB7Lt7EVSuGtokM0leV72AoF7lbRIZrN8g1shbJ1q6yDRPNZvnutUIxuFR2i+SzfusqXmFuQWaGo3Co60u5ZoXDcKjrScF+hONwqOtJwX6EA3Co60nBfpcjbSkJUM1q+g61Sum0lIapJLd/EVinItpIQ1byW72OrlFlbaWWkmtnyrWyV4mkrCVHNbPluhpJoz6IkGswwwwwzzDDDDDPMMMMMM8wwwwwzzP8m88wMbngYug7/YIv/qLLMJkriP7oTlMR/OFASX+tASXyUxNc4UBL/+wMl8b8/UBJf80BJfJTEf/JASXzgAAc4wAEOcIADHOAABzjAAc5zKCgJGtCABjSgAQ1oQAMa0IAGNM+H5v9NIUvgAAc4wAEOcIADHOAABzjAKe/vHyiJ/9odcz9yA9/jUYSC+P+ugvhBeM26g4Hbd7nfnz2UwV9vAfzs6u8sj/+e/z7/80E9++Xhj17gzMSfo3js/fZ//wMRovVn"
               },
               {
                  "name" : "annual_peak_electric_demand",
                  "units" : "kW",
                  "value" : 18.005009999999999
               },
               {
                  "name" : "first_year_capital_cost",
                  "units" : "$",
                  "value" : 0
               },
               {
                  "name" : "annual_utility_cost",
                  "units" : "$",
                  "value" : 7208.6899999999996
               },
               {
                  "name" : "total_lifecycle_cost",
                  "units" : "$",
                  "value" : 122037.5
               }
            ],
            "step_warnings" : []
         }
      }
   ],
   "updated_at" : "20170710T184922Z",
   "weather_file" : "USA_CO_Denver.Intl.AP.725650_TMY3.epw"
}
