{
   "completed_at" : "20170710T190615Z",
   "completed_status" : "Success",
   "created_at" : "2017-07-10 18:59:57 +0000",
   "current_step" : 5,
   "description" : "",
   "eplusout_err" : "Program Version,EnergyPlus, Version 8.7.0-78a111df4a, YMD=2017.07.10 19:02,IDD_Version 8.7.0\n   ************* IDF Context for following error/warning message:\n   ************* Note -- lines truncated at 300 characters, if necessary...\n   *************      5 Building,\n   ************* indicated Name=NECB 2011-LargeHotel-NECB HDD Method-CAN_BC_Vancouver.718920_CWEC.epw created: 2017-07-10 19:00:04 +0000\n   ************* Only last 1 lines before error line shown.....\n   *************      6   NECB 2011-LargeHotel-NECB HDD Method-CAN_BC_Vancouver.718920_CWEC.epw created: 2017-07-10 19:00:04 +0000, !- Name\n   ** Warning ** IP: IDF line~6 Alpha Argument length exceeds maximum, will be truncated=  NECB 2011-LargeHotel-NECB HDD Method-CAN_BC_Vancouver.718920_CWEC.epw created: 2017-07-10 19:00:04 +000\n   **   ~~~   ** Will be processed as Alpha=NECB 2011-LARGEHOTEL-NECB HDD METHOD-CAN_BC_VANCOUVER.718920_CWEC.EPW CREATED: 2017-07-10 19:00:04 +0000\n   ************* Beginning Zone Sizing Calculations\n   ** Warning ** ProcessScheduleInput: Schedule:Day:Interval=\"ECONOMIZER MAX OA FRACTION 100 PCT DEFAULT\", Blank Schedule Type Limits Name input -- will not be validated.\n   ** Warning ** ProcessScheduleInput: Schedule:Day:Interval=\"SCHEDULE DAY 1\", Blank Schedule Type Limits Name input -- will not be validated.\n   ** Warning ** ProcessScheduleInput: Schedule:Day:Interval=\"SCHEDULE DAY 10\", Blank Schedule Type Limits Name input -- will not be validated.\n   ** Warning ** ProcessScheduleInput: Schedule:Day:Interval=\"SCHEDULE DAY 11\", Blank Schedule Type Limits Name input -- will not be validated.\n   ** Warning ** ProcessScheduleInput: Schedule:Day:Interval=\"SCHEDULE DAY 12\", Blank Schedule Type Limits Name input -- will not be validated.\n   ** Warning ** ProcessScheduleInput: Schedule:Day:Interval=\"SCHEDULE DAY 13\", Blank Schedule Type Limits Name input -- will not be validated.\n   ** Warning ** ProcessScheduleInput: Schedule:Day:Interval=\"SCHEDULE DAY 14\", Blank Schedule Type Limits Name input -- will not be validated.\n   ** Warning ** ProcessScheduleInput: Schedule:Day:Interval=\"SCHEDULE DAY 15\", Blank Schedule Type Limits Name input -- will not be validated.\n   ** Warning ** ProcessScheduleInput: Schedule:Day:Interval=\"SCHEDULE DAY 16\", Blank Schedule Type Limits Name input -- will not be validated.\n   ** Warning ** ProcessScheduleInput: Schedule:Day:Interval=\"SCHEDULE DAY 17\", Blank Schedule Type Limits Name input -- will not be validated.\n   ** Warning ** ProcessScheduleInput: Schedule:Day:Interval=\"SCHEDULE DAY 18\", Blank Schedule Type Limits Name input -- will not be validated.\n   ** Warning ** ProcessScheduleInput: Schedule:Day:Interval=\"SCHEDULE DAY 19\", Blank Schedule Type Limits Name input -- will not be validated.\n   ** Warning ** ProcessScheduleInput: Schedule:Day:Interval=\"SCHEDULE DAY 2\", Blank Schedule Type Limits Name input -- will not be validated.\n   ** Warning ** ProcessScheduleInput: Schedule:Day:Interval=\"SCHEDULE DAY 20\", Blank Schedule Type Limits Name input -- will not be validated.\n   ** Warning ** ProcessScheduleInput: Schedule:Day:Interval=\"SCHEDULE DAY 21\", Blank Schedule Type Limits Name input -- will not be validated.\n   ** Warning ** ProcessScheduleInput: Schedule:Day:Interval=\"SCHEDULE DAY 22\", Blank Schedule Type Limits Name input -- will not be validated.\n   ** Warning ** ProcessScheduleInput: Schedule:Day:Interval=\"SCHEDULE DAY 23\", Blank Schedule Type Limits Name input -- will not be validated.\n   ** Warning ** ProcessScheduleInput: Schedule:Day:Interval=\"SCHEDULE DAY 24\", Blank Schedule Type Limits Name input -- will not be validated.\n   ** Warning ** ProcessScheduleInput: Schedule:Day:Interval=\"SCHEDULE DAY 25\", Blank Schedule Type Limits Name input -- will not be validated.\n   ** Warning ** ProcessScheduleInput: Schedule:Day:Interval=\"SCHEDULE DAY 26\", Blank Schedule Type Limits Name input -- will not be validated.\n   ** Warning ** ProcessScheduleInput: Schedule:Day:Interval=\"SCHEDULE DAY 27\", Blank Schedule Type Limits Name input -- will not be validated.\n   ** Warning ** ProcessScheduleInput: Schedule:Day:Interval=\"SCHEDULE DAY 28\", Blank Schedule Type Limits Name input -- will not be validated.\n   ** Warning ** ProcessScheduleInput: Schedule:Day:Interval=\"SCHEDULE DAY 29\", Blank Schedule Type Limits Name input -- will not be validated.\n   ** Warning ** ProcessScheduleInput: Schedule:Day:Interval=\"SCHEDULE DAY 30\", Blank Schedule Type Limits Name input -- will not be validated.\n   ** Warning ** ProcessScheduleInput: Schedule:Day:Interval=\"SCHEDULE DAY 31\", Blank Schedule Type Limits Name input -- will not be validated.\n   ** Warning ** ProcessScheduleInput: Schedule:Day:Interval=\"SCHEDULE DAY 32\", Blank Schedule Type Limits Name input -- will not be validated.\n   ** Warning ** ProcessScheduleInput: Schedule:Day:Interval=\"SCHEDULE DAY 33\", Blank Schedule Type Limits Name input -- will not be validated.\n   ** Warning ** ProcessScheduleInput: Schedule:Day:Interval=\"SCHEDULE DAY 34\", Blank Schedule Type Limits Name input -- will not be validated.\n   ** Warning ** ProcessScheduleInput: Schedule:Day:Interval=\"SCHEDULE DAY 35\", Blank Schedule Type Limits Name input -- will not be validated.\n   ** Warning ** ProcessScheduleInput: Schedule:Day:Interval=\"SCHEDULE DAY 36\", Blank Schedule Type Limits Name input -- will not be validated.\n   ** Warning ** ProcessScheduleInput: Schedule:Day:Interval=\"SCHEDULE DAY 37\", Blank Schedule Type Limits Name input -- will not be validated.\n   ** Warning ** ProcessScheduleInput: Schedule:Day:Interval=\"SCHEDULE DAY 38\", Blank Schedule Type Limits Name input -- will not be validated.\n   ** Warning ** ProcessScheduleInput: Schedule:Day:Interval=\"SCHEDULE DAY 39\", Blank Schedule Type Limits Name input -- will not be validated.\n   ** Warning ** ProcessScheduleInput: Schedule:Day:Interval=\"SCHEDULE DAY 40\", Blank Schedule Type Limits Name input -- will not be validated.\n   ** Warning ** ProcessScheduleInput: Schedule:Day:Interval=\"SCHEDULE DAY 41\", Blank Schedule Type Limits Name input -- will not be validated.\n   ** Warning ** ProcessScheduleInput: Schedule:Day:Interval=\"SCHEDULE DAY 42\", Blank Schedule Type Limits Name input -- will not be validated.\n   ** Warning ** ProcessScheduleInput: Schedule:Day:Interval=\"SCHEDULE DAY 43\", Blank Schedule Type Limits Name input -- will not be validated.\n   ** Warning ** ProcessScheduleInput: Schedule:Day:Interval=\"SCHEDULE DAY 44\", Blank Schedule Type Limits Name input -- will not be validated.\n   ** Warning ** ProcessScheduleInput: Schedule:Day:Interval=\"SCHEDULE DAY 45\", Blank Schedule Type Limits Name input -- will not be validated.\n   ** Warning ** ProcessScheduleInput: Schedule:Day:Interval=\"SCHEDULE DAY 46\", Blank Schedule Type Limits Name input -- will not be validated.\n   ** Warning ** ProcessScheduleInput: Schedule:Day:Interval=\"SCHEDULE DAY 47\", Blank Schedule Type Limits Name input -- will not be validated.\n   ** Warning ** ProcessScheduleInput: Schedule:Day:Interval=\"SCHEDULE DAY 48\", Blank Schedule Type Limits Name input -- will not be validated.\n   ** Warning ** ProcessScheduleInput: Schedule:Day:Interval=\"SCHEDULE DAY 49\", Blank Schedule Type Limits Name input -- will not be validated.\n   ** Warning ** ProcessScheduleInput: Schedule:Day:Interval=\"SCHEDULE DAY 50\", Blank Schedule Type Limits Name input -- will not be validated.\n   ** Warning ** ProcessScheduleInput: Schedule:Day:Interval=\"SCHEDULE DAY 51\", Blank Schedule Type Limits Name input -- will not be validated.\n   ** Warning ** ProcessScheduleInput: Schedule:Day:Interval=\"SCHEDULE DAY 52\", Blank Schedule Type Limits Name input -- will not be validated.\n   ** Warning ** ProcessScheduleInput: Schedule:Day:Interval=\"SCHEDULE DAY 53\", Blank Schedule Type Limits Name input -- will not be validated.\n   ** Warning ** ProcessScheduleInput: Schedule:Day:Interval=\"SCHEDULE DAY 54\", Blank Schedule Type Limits Name input -- will not be validated.\n   ** Warning ** ProcessScheduleInput: Schedule:Day:Interval=\"SCHEDULE DAY 55\", Blank Schedule Type Limits Name input -- will not be validated.\n   ** Warning ** ProcessScheduleInput: Schedule:Day:Interval=\"SCHEDULE DAY 56\", Blank Schedule Type Limits Name input -- will not be validated.\n   ** Warning ** ProcessScheduleInput: Schedule:Day:Interval=\"SCHEDULE DAY 57\", Blank Schedule Type Limits Name input -- will not be validated.\n   ** Warning ** ProcessScheduleInput: Schedule:Day:Interval=\"SCHEDULE DAY 58\", Blank Schedule Type Limits Name input -- will not be validated.\n   ** Warning ** ProcessScheduleInput: Schedule:Day:Interval=\"SCHEDULE DAY 59\", Blank Schedule Type Limits Name input -- will not be validated.\n   ** Warning ** ProcessScheduleInput: Schedule:Day:Interval=\"SCHEDULE DAY 60\", Blank Schedule Type Limits Name input -- will not be validated.\n   ** Warning ** ProcessScheduleInput: Schedule:Day:Interval=\"SCHEDULE DAY 61\", Blank Schedule Type Limits Name input -- will not be validated.\n   ** Warning ** ProcessScheduleInput: Schedule:Day:Interval=\"SCHEDULE DAY 62\", Blank Schedule Type Limits Name input -- will not be validated.\n   ** Warning ** ProcessScheduleInput: Schedule:Day:Interval=\"SCHEDULE DAY 63\", Blank Schedule Type Limits Name input -- will not be validated.\n   ** Warning ** ProcessScheduleInput: Schedule:Day:Interval=\"SCHEDULE DAY 64\", Blank Schedule Type Limits Name input -- will not be validated.\n   ** Warning ** ProcessScheduleInput: Schedule:Day:Interval=\"SCHEDULE DAY 65\", Blank Schedule Type Limits Name input -- will not be validated.\n   ** Warning ** ProcessScheduleInput: Schedule:Day:Interval=\"SCHEDULE DAY 66\", Blank Schedule Type Limits Name input -- will not be validated.\n   ** Warning ** ProcessScheduleInput: Schedule:Day:Interval=\"SCHEDULE DAY 67\", Blank Schedule Type Limits Name input -- will not be validated.\n   ** Warning ** ProcessScheduleInput: Schedule:Day:Interval=\"SCHEDULE DAY 68\", Blank Schedule Type Limits Name input -- will not be validated.\n   ** Warning ** ProcessScheduleInput: Schedule:Day:Interval=\"SCHEDULE DAY 69\", Blank Schedule Type Limits Name input -- will not be validated.\n   ** Warning ** ProcessScheduleInput: Schedule:Day:Interval=\"SCHEDULE DAY 70\", Blank Schedule Type Limits Name input -- will not be validated.\n   ** Warning ** ProcessScheduleInput: Schedule:Day:Interval=\"SCHEDULE DAY 71\", Blank Schedule Type Limits Name input -- will not be validated.\n   ** Warning ** ProcessScheduleInput: Schedule:Day:Interval=\"SCHEDULE DAY 72\", Blank Schedule Type Limits Name input -- will not be validated.\n   ** Warning ** ProcessScheduleInput: Schedule:Day:Interval=\"SCHEDULE DAY 73\", Blank Schedule Type Limits Name input -- will not be validated.\n   ** Warning ** ProcessScheduleInput: Schedule:Day:Interval=\"SCHEDULE DAY 74\", Blank Schedule Type Limits Name input -- will not be validated.\n   ** Warning ** ProcessScheduleInput: Schedule:Day:Interval=\"SCHEDULE DAY 75\", Blank Schedule Type Limits Name input -- will not be validated.\n   ** Warning ** ProcessScheduleInput: Schedule:Day:Interval=\"SCHEDULE DAY 76\", Blank Schedule Type Limits Name input -- will not be validated.\n   ** Warning ** ProcessScheduleInput: Schedule:Day:Interval=\"SCHEDULE DAY 77\", Blank Schedule Type Limits Name input -- will not be validated.\n   ** Warning ** ProcessScheduleInput: Schedule:Day:Interval=\"SCHEDULE DAY 78\", Blank Schedule Type Limits Name input -- will not be validated.\n   ** Warning ** ProcessScheduleInput: Schedule:Day:Interval=\"SCHEDULE DAY 8\", Blank Schedule Type Limits Name input -- will not be validated.\n   ** Warning ** ProcessScheduleInput: Schedule:Day:Interval=\"SCHEDULE DAY 9\", Blank Schedule Type Limits Name input -- will not be validated.\n   ** Warning ** ProcessScheduleInput: Schedule:Year=\"ECONOMIZER MAX OA FRACTION 100 PCT\", Blank Schedule Type Limits Name input -- will not be validated.\n   ** Warning ** ProcessScheduleInput: Schedule:Year=\"SCHEDULE RULESET 10\", Blank Schedule Type Limits Name input -- will not be validated.\n   ** Warning ** ProcessScheduleInput: Schedule:Year=\"SCHEDULE RULESET 11\", Blank Schedule Type Limits Name input -- will not be validated.\n   ** Warning ** ProcessScheduleInput: Schedule:Year=\"SCHEDULE RULESET 12\", Blank Schedule Type Limits Name input -- will not be validated.\n   ** Warning ** ProcessScheduleInput: Schedule:Year=\"SCHEDULE RULESET 13\", Blank Schedule Type Limits Name input -- will not be validated.\n   ** Warning ** ProcessScheduleInput: Schedule:Year=\"SCHEDULE RULESET 14\", Blank Schedule Type Limits Name input -- will not be validated.\n   ** Warning ** ProcessScheduleInput: Schedule:Year=\"SCHEDULE RULESET 15\", Blank Schedule Type Limits Name input -- will not be validated.\n   ** Warning ** ProcessScheduleInput: Schedule:Year=\"SCHEDULE RULESET 16\", Blank Schedule Type Limits Name input -- will not be validated.\n   ** Warning ** ProcessScheduleInput: Schedule:Year=\"SCHEDULE RULESET 17\", Blank Schedule Type Limits Name input -- will not be validated.\n   ** Warning ** ProcessScheduleInput: Schedule:Year=\"SCHEDULE RULESET 18\", Blank Schedule Type Limits Name input -- will not be validated.\n   ** Warning ** ProcessScheduleInput: Schedule:Year=\"SCHEDULE RULESET 19\", Blank Schedule Type Limits Name input -- will not be validated.\n   ** Warning ** ProcessScheduleInput: Schedule:Year=\"SCHEDULE RULESET 20\", Blank Schedule Type Limits Name input -- will not be validated.\n   ** Warning ** ProcessScheduleInput: Schedule:Year=\"SCHEDULE RULESET 21\", Blank Schedule Type Limits Name input -- will not be validated.\n   ** Warning ** ProcessScheduleInput: Schedule:Year=\"SCHEDULE RULESET 22\", Blank Schedule Type Limits Name input -- will not be validated.\n   ** Warning ** ProcessScheduleInput: Schedule:Year=\"SCHEDULE RULESET 23\", Blank Schedule Type Limits Name input -- will not be validated.\n   ** Warning ** ProcessScheduleInput: Schedule:Year=\"SCHEDULE RULESET 24\", Blank Schedule Type Limits Name input -- will not be validated.\n   ** Warning ** ProcessScheduleInput: Schedule:Year=\"SCHEDULE RULESET 25\", Blank Schedule Type Limits Name input -- will not be validated.\n   ** Warning ** ProcessScheduleInput: Schedule:Year=\"SCHEDULE RULESET 26\", Blank Schedule Type Limits Name input -- will not be validated.\n   ** Warning ** ProcessScheduleInput: Schedule:Year=\"SCHEDULE RULESET 27\", Blank Schedule Type Limits Name input -- will not be validated.\n   ** Warning ** ProcessScheduleInput: Schedule:Year=\"SCHEDULE RULESET 28\", Blank Schedule Type Limits Name input -- will not be validated.\n   ** Warning ** ProcessScheduleInput: Schedule:Year=\"SCHEDULE RULESET 29\", Blank Schedule Type Limits Name input -- will not be validated.\n   ** Warning ** ProcessScheduleInput: Schedule:Year=\"SCHEDULE RULESET 3\", Blank Schedule Type Limits Name input -- will not be validated.\n   ** Warning ** ProcessScheduleInput: Schedule:Year=\"SCHEDULE RULESET 30\", Blank Schedule Type Limits Name input -- will not be validated.\n   ** Warning ** ProcessScheduleInput: Schedule:Year=\"SCHEDULE RULESET 31\", Blank Schedule Type Limits Name input -- will not be validated.\n   ** Warning ** ProcessScheduleInput: Schedule:Year=\"SCHEDULE RULESET 32\", Blank Schedule Type Limits Name input -- will not be validated.\n   ** Warning ** ProcessScheduleInput: Schedule:Year=\"SCHEDULE RULESET 33\", Blank Schedule Type Limits Name input -- will not be validated.\n   ** Warning ** ProcessScheduleInput: Schedule:Year=\"SCHEDULE RULESET 34\", Blank Schedule Type Limits Name input -- will not be validated.\n   ** Warning ** ProcessScheduleInput: Schedule:Year=\"SCHEDULE RULESET 35\", Blank Schedule Type Limits Name input -- will not be validated.\n   ** Warning ** ProcessScheduleInput: Schedule:Year=\"SCHEDULE RULESET 36\", Blank Schedule Type Limits Name input -- will not be validated.\n   ** Warning ** ProcessScheduleInput: Schedule:Year=\"SCHEDULE RULESET 37\", Blank Schedule Type Limits Name input -- will not be validated.\n   ** Warning ** ProcessScheduleInput: Schedule:Year=\"SCHEDULE RULESET 38\", Blank Schedule Type Limits Name input -- will not be validated.\n   ** Warning ** ProcessScheduleInput: Schedule:Year=\"SCHEDULE RULESET 39\", Blank Schedule Type Limits Name input -- will not be validated.\n   ** Warning ** ProcessScheduleInput: Schedule:Year=\"SCHEDULE RULESET 4\", Blank Schedule Type Limits Name input -- will not be validated.\n   ** Warning ** ProcessScheduleInput: Schedule:Year=\"SCHEDULE RULESET 40\", Blank Schedule Type Limits Name input -- will not be validated.\n   ** Warning ** ProcessScheduleInput: Schedule:Year=\"SCHEDULE RULESET 41\", Blank Schedule Type Limits Name input -- will not be validated.\n   ** Warning ** ProcessScheduleInput: Schedule:Year=\"SCHEDULE RULESET 42\", Blank Schedule Type Limits Name input -- will not be validated.\n   ** Warning ** ProcessScheduleInput: Schedule:Year=\"SCHEDULE RULESET 43\", Blank Schedule Type Limits Name input -- will not be validated.\n   ** Warning ** ProcessScheduleInput: Schedule:Year=\"SCHEDULE RULESET 44\", Blank Schedule Type Limits Name input -- will not be validated.\n   ** Warning ** ProcessScheduleInput: Schedule:Year=\"SCHEDULE RULESET 45\", Blank Schedule Type Limits Name input -- will not be validated.\n   ** Warning ** ProcessScheduleInput: Schedule:Year=\"SCHEDULE RULESET 46\", Blank Schedule Type Limits Name input -- will not be validated.\n   ** Warning ** ProcessScheduleInput: Schedule:Year=\"SCHEDULE RULESET 47\", Blank Schedule Type Limits Name input -- will not be validated.\n   ** Warning ** ProcessScheduleInput: Schedule:Year=\"SCHEDULE RULESET 48\", Blank Schedule Type Limits Name input -- will not be validated.\n   ** Warning ** ProcessScheduleInput: Schedule:Year=\"SCHEDULE RULESET 49\", Blank Schedule Type Limits Name input -- will not be validated.\n   ** Warning ** ProcessScheduleInput: Schedule:Year=\"SCHEDULE RULESET 5\", Blank Schedule Type Limits Name input -- will not be validated.\n   ** Warning ** ProcessScheduleInput: Schedule:Year=\"SCHEDULE RULESET 50\", Blank Schedule Type Limits Name input -- will not be validated.\n   ** Warning ** ProcessScheduleInput: Schedule:Year=\"SCHEDULE RULESET 51\", Blank Schedule Type Limits Name input -- will not be validated.\n   ** Warning ** ProcessScheduleInput: Schedule:Year=\"SCHEDULE RULESET 52\", Blank Schedule Type Limits Name input -- will not be validated.\n   ** Warning ** ProcessScheduleInput: Schedule:Year=\"SCHEDULE RULESET 53\", Blank Schedule Type Limits Name input -- will not be validated.\n   ** Warning ** ProcessScheduleInput: Schedule:Year=\"SCHEDULE RULESET 54\", Blank Schedule Type Limits Name input -- will not be validated.\n   ** Warning ** ProcessScheduleInput: Schedule:Year=\"SCHEDULE RULESET 55\", Blank Schedule Type Limits Name input -- will not be validated.\n   ** Warning ** ProcessScheduleInput: Schedule:Year=\"SCHEDULE RULESET 56\", Blank Schedule Type Limits Name input -- will not be validated.\n   ** Warning ** ProcessScheduleInput: Schedule:Year=\"SCHEDULE RULESET 57\", Blank Schedule Type Limits Name input -- will not be validated.\n   ** Warning ** ProcessScheduleInput: Schedule:Year=\"SCHEDULE RULESET 58\", Blank Schedule Type Limits Name input -- will not be validated.\n   ** Warning ** ProcessScheduleInput: Schedule:Year=\"SCHEDULE RULESET 59\", Blank Schedule Type Limits Name input -- will not be validated.\n   ** Warning ** ProcessScheduleInput: Schedule:Year=\"SCHEDULE RULESET 6\", Blank Schedule Type Limits Name input -- will not be validated.\n   ** Warning ** ProcessScheduleInput: Schedule:Year=\"SCHEDULE RULESET 7\", Blank Schedule Type Limits Name input -- will not be validated.\n   ** Warning ** ProcessScheduleInput: Schedule:Year=\"SCHEDULE RULESET 8\", Blank Schedule Type Limits Name input -- will not be validated.\n   ** Warning ** ProcessScheduleInput: Schedule:Year=\"SCHEDULE RULESET 9\", Blank Schedule Type Limits Name input -- will not be validated.\n   ** Warning ** ProcessScheduleInput: Schedule:Constant=\"ALWAYS OFF DISCRETE\", Blank Schedule Type Limits Name input -- will not be validated.\n   ** Warning ** ProcessScheduleInput: Schedule:Constant=\"ALWAYS ON CONTINUOUS\", Blank Schedule Type Limits Name input -- will not be validated.\n   ** Warning ** CheckUsedConstructions: There are 23 nominally unused constructions in input.\n   **   ~~~   ** For explicit details on each unused construction, use Output:Diagnostics,DisplayExtraWarnings;\n   ** Warning ** GetInternalHeatGains: ElectricEquipment Combination of ZoneList and Object Name generate a name too long.\n   **   ~~~   ** Object Name=\"SPACE FUNCTION HOSPITAL - LAUNDRY/WASHING ELEC EQUIP\".\n   **   ~~~   ** ZoneList/Zone Name=\"SP-LAUNDRY_FLR_1 SYS-3 FLR-1 SCH-C HPLCMT-EAST ZN\".\n   **   ~~~   ** Item length=[101] > Maximum Length=[100]. You may need to shorten the names.\n   **   ~~~   ** Shortening the Object Name by [2] characters will assure uniqueness for this ZoneList.\n   **   ~~~   ** name that will be used (may be needed in reporting)=\"SP-LAUNDRY_FLR_1 SYS-3 FLR-1 SCH-C HPLCMT-EAST ZN SPACE FUNCTION HOSPITAL - LAUNDRY/WASHING ELEC EQUIP\".\n   ** Warning ** GetInternalHeatGains: ElectricEquipment Combination of ZoneList and Object Name generate a name too long.\n   **   ~~~   ** Object Name=\"SPACE FUNCTION HOTEL/MOTEL - ROOMS ELEC EQUIP\".\n   **   ~~~   ** ZoneList/Zone Name=\"SP-ROOM_3_MULT19_FLR_3 SYS-1 FLR-2 SCH-F HPLCMT-SOUTH ZN\".\n   **   ~~~   ** Item length=[101] > Maximum Length=[100]. You may need to shorten the names.\n   **   ~~~   ** Shortening the Object Name by [2] characters will assure uniqueness for this ZoneList.\n   **   ~~~   ** name that will be used (may be needed in reporting)=\"SP-ROOM_3_MULT19_FLR_3 SYS-1 FLR-2 SCH-F HPLCMT-SOUTH ZN SPACE FUNCTION HOTEL/MOTEL - ROOMS ELEC EQUIP\".\n   ** Warning ** GetInternalHeatGains: ElectricEquipment Combination of ZoneList and Object Name generate a name too long.\n   **   ~~~   ** Object Name=\"SPACE FUNCTION HOTEL/MOTEL - ROOMS ELEC EQUIP\".\n   **   ~~~   ** ZoneList/Zone Name=\"SP-ROOM_4_MULT19_FLR_3 SYS-1 FLR-2 SCH-F HPLCMT-NORTH ZN\".\n   **   ~~~   ** Item length=[101] > Maximum Length=[100]. You may need to shorten the names.\n   **   ~~~   ** Shortening the Object Name by [2] characters will assure uniqueness for this ZoneList.\n   **   ~~~   ** name that will be used (may be needed in reporting)=\"SP-ROOM_4_MULT19_FLR_3 SYS-1 FLR-2 SCH-F HPLCMT-NORTH ZN SPACE FUNCTION HOTEL/MOTEL - ROOMS ELEC EQUIP\".\n   ** Warning ** Calculated design heating load for zone=SP-BASEMENT SYS-4 FLR-3 SCH-E HPLCMT-NORTH ZN is zero.\n   **   ~~~   ** Check Sizing:Zone and ZoneControl:Thermostat inputs.\n   ** Warning ** Calculated design heating load for zone=SP-LOBBY_FLR_1 SYS-6 FLR-1 SCH-H HPLCMT-NORTH ZN is zero.\n   **   ~~~   ** Check Sizing:Zone and ZoneControl:Thermostat inputs.\n   ** Warning ** Calculated design heating load for zone=SP-MECH_FLR_1 SYS-6 FLR-1 SCH-E HPLCMT-NORTH ZN is zero.\n   **   ~~~   ** Check Sizing:Zone and ZoneControl:Thermostat inputs.\n   ** Warning ** Calculated design heating load for zone=SP-STORAGE_FLR_1 SYS-4 FLR-1 SCH-E HPLCMT-NORTH ZN is zero.\n   **   ~~~   ** Check Sizing:Zone and ZoneControl:Thermostat inputs.\n   ************* Beginning System Sizing Calculations\n   ** Warning ** Since Zone Minimum Air Flow Input Method = CONSTANT, input for Fixed Minimum Air Flow Rate will be ignored.\n   **   ~~~   ** Occurs in AirTerminal:SingleDuct:VAV:Reheat = AIR TERMINAL SINGLE DUCT VAV REHEAT 1\n   ** Warning ** Since Zone Minimum Air Flow Input Method = CONSTANT, input for Fixed Minimum Air Flow Rate will be ignored.\n   **   ~~~   ** Occurs in AirTerminal:SingleDuct:VAV:Reheat = AIR TERMINAL SINGLE DUCT VAV REHEAT 4\n   ** Warning ** Since Zone Minimum Air Flow Input Method = CONSTANT, input for Fixed Minimum Air Flow Rate will be ignored.\n   **   ~~~   ** Occurs in AirTerminal:SingleDuct:VAV:Reheat = AIR TERMINAL SINGLE DUCT VAV REHEAT 2\n   ** Warning ** Since Zone Minimum Air Flow Input Method = CONSTANT, input for Fixed Minimum Air Flow Rate will be ignored.\n   **   ~~~   ** Occurs in AirTerminal:SingleDuct:VAV:Reheat = AIR TERMINAL SINGLE DUCT VAV REHEAT 3\n   ** Warning ** Since Zone Minimum Air Flow Input Method = CONSTANT, input for Fixed Minimum Air Flow Rate will be ignored.\n   **   ~~~   ** Occurs in AirTerminal:SingleDuct:VAV:Reheat = AIR TERMINAL SINGLE DUCT VAV REHEAT 5\n   ** Warning ** GetDXCoils: Coil:Cooling:DX:SingleSpeed=\"COIL COOLING DX SINGLE SPEED 8 38KBTU/HR 9.3EER\", invalid\n   **   ~~~   ** ...Part Load Fraction Correlation Curve Name = DXCOOL-NECB2011-REF-COOLPLFFPLR 16 has out of range value.\n   **   ~~~   ** ...Curve maximum must be <= 1.0, curve max at PLR = 0.99 is 1.015\n   **   ~~~   ** ...Setting curve maximum to 1.0 and simulation continues.\n   ** Warning ** GetDXCoils: Coil:Cooling:DX:SingleSpeed=\"COIL COOLING DX SINGLE SPEED 5 16KBTU/HR 9.3EER\", invalid\n   **   ~~~   ** ...Part Load Fraction Correlation Curve Name = DXCOOL-NECB2011-REF-COOLPLFFPLR 13 has out of range value.\n   **   ~~~   ** ...Curve maximum must be <= 1.0, curve max at PLR = 0.99 is 1.015\n   **   ~~~   ** ...Setting curve maximum to 1.0 and simulation continues.\n   ** Warning ** GetDXCoils: Coil:Cooling:DX:SingleSpeed=\"COIL COOLING DX SINGLE SPEED 9 18KBTU/HR 9.3EER\", invalid\n   **   ~~~   ** ...Part Load Fraction Correlation Curve Name = DXCOOL-NECB2011-REF-COOLPLFFPLR 17 has out of range value.\n   **   ~~~   ** ...Curve maximum must be <= 1.0, curve max at PLR = 0.99 is 1.015\n   **   ~~~   ** ...Setting curve maximum to 1.0 and simulation continues.\n   ** Warning ** GetDXCoils: Coil:Cooling:DX:SingleSpeed=\"COIL COOLING DX SINGLE SPEED 6 15KBTU/HR 9.4EER\", invalid\n   **   ~~~   ** ...Part Load Fraction Correlation Curve Name = DXCOOL-NECB2011-REF-COOLPLFFPLR 14 has out of range value.\n   **   ~~~   ** ...Curve maximum must be <= 1.0, curve max at PLR = 0.99 is 1.015\n   **   ~~~   ** ...Setting curve maximum to 1.0 and simulation continues.\n   ** Warning ** GetDXCoils: Coil:Cooling:DX:SingleSpeed=\"COIL COOLING DX SINGLE SPEED 10 17KBTU/HR 9.3EER\", invalid\n   **   ~~~   ** ...Part Load Fraction Correlation Curve Name = DXCOOL-NECB2011-REF-COOLPLFFPLR 1 has out of range value.\n   **   ~~~   ** ...Curve maximum must be <= 1.0, curve max at PLR = 0.99 is 1.015\n   **   ~~~   ** ...Setting curve maximum to 1.0 and simulation continues.\n   ** Warning ** GetDXCoils: Coil:Cooling:DX:SingleSpeed=\"COIL COOLING DX SINGLE SPEED 7 6KBTU/HR 11.0EER\", invalid\n   **   ~~~   ** ...Part Load Fraction Correlation Curve Name = DXCOOL-NECB2011-REF-COOLPLFFPLR 15 has out of range value.\n   **   ~~~   ** ...Curve maximum must be <= 1.0, curve max at PLR = 0.99 is 1.015\n   **   ~~~   ** ...Setting curve maximum to 1.0 and simulation continues.\n   ** Warning ** GetDXCoils: Coil:Cooling:DX:SingleSpeed=\"COIL COOLING DX SINGLE SPEED 11 11KBTU/HR 10.2EER\", invalid\n   **   ~~~   ** ...Part Load Fraction Correlation Curve Name = DXCOOL-NECB2011-REF-COOLPLFFPLR 2 has out of range value.\n   **   ~~~   ** ...Curve maximum must be <= 1.0, curve max at PLR = 0.99 is 1.015\n   **   ~~~   ** ...Setting curve maximum to 1.0 and simulation continues.\n   ** Warning ** GetDXCoils: Coil:Cooling:DX:SingleSpeed=\"COIL COOLING DX SINGLE SPEED 2 1KBTU/HR 11.0EER\", invalid\n   **   ~~~   ** ...Part Load Fraction Correlation Curve Name = DXCOOL-NECB2011-REF-COOLPLFFPLR 10 has out of range value.\n   **   ~~~   ** ...Curve maximum must be <= 1.0, curve max at PLR = 0.99 is 1.015\n   **   ~~~   ** ...Setting curve maximum to 1.0 and simulation continues.\n   ** Warning ** GetDXCoils: Coil:Cooling:DX:SingleSpeed=\"COIL COOLING DX SINGLE SPEED 4 15KBTU/HR 9.3EER\", invalid\n   **   ~~~   ** ...Part Load Fraction Correlation Curve Name = DXCOOL-NECB2011-REF-COOLPLFFPLR 12 has out of range value.\n   **   ~~~   ** ...Curve maximum must be <= 1.0, curve max at PLR = 0.99 is 1.015\n   **   ~~~   ** ...Setting curve maximum to 1.0 and simulation continues.\n   ** Warning ** GetDXCoils: Coil:Cooling:DX:SingleSpeed=\"COIL COOLING DX SINGLE SPEED 3 14KBTU/HR 9.5EER\", invalid\n   **   ~~~   ** ...Part Load Fraction Correlation Curve Name = DXCOOL-NECB2011-REF-COOLPLFFPLR 11 has out of range value.\n   **   ~~~   ** ...Curve maximum must be <= 1.0, curve max at PLR = 0.99 is 1.015\n   **   ~~~   ** ...Setting curve maximum to 1.0 and simulation continues.\n   ** Warning ** GetDXCoils: Coil:Cooling:DX:SingleSpeed=\"COIL COOLING DX SINGLE SPEED 1 186KBTU/HR 9.7EER\", invalid\n   **   ~~~   ** ...Part Load Fraction Correlation Curve Name = DXCOOL-NECB2011-REF-COOLPLFFPLR has out of range value.\n   **   ~~~   ** ...Curve maximum must be <= 1.0, curve max at PLR = 0.99 is 1.015\n   **   ~~~   ** ...Setting curve maximum to 1.0 and simulation continues.\n   ** Warning ** GetDXCoils: Coil:Cooling:DX:SingleSpeed=\"COIL COOLING DX SINGLE SPEED 14 76KBTU/HR 9.7EER\", invalid\n   **   ~~~   ** ...Part Load Fraction Correlation Curve Name = DXCOOL-NECB2011-REF-COOLPLFFPLR 5 has out of range value.\n   **   ~~~   ** ...Curve maximum must be <= 1.0, curve max at PLR = 0.99 is 1.015\n   **   ~~~   ** ...Setting curve maximum to 1.0 and simulation continues.\n   ** Warning ** GetDXCoils: Coil:Cooling:DX:SingleSpeed=\"COIL COOLING DX SINGLE SPEED 18 73KBTU/HR 9.7EER\", invalid\n   **   ~~~   ** ...Part Load Fraction Correlation Curve Name = DXCOOL-NECB2011-REF-COOLPLFFPLR 9 has out of range value.\n   **   ~~~   ** ...Curve maximum must be <= 1.0, curve max at PLR = 0.99 is 1.015\n   **   ~~~   ** ...Setting curve maximum to 1.0 and simulation continues.\n   ** Warning ** GetDXCoils: Coil:Cooling:DX:SingleSpeed=\"COIL COOLING DX SINGLE SPEED 13 53KBTU/HR 14.0SEER\", invalid\n   **   ~~~   ** ...Part Load Fraction Correlation Curve Name = DXCOOL-NECB2011-REF-COOLPLFFPLR 4 has out of range value.\n   **   ~~~   ** ...Curve maximum must be <= 1.0, curve max at PLR = 0.99 is 1.015\n   **   ~~~   ** ...Setting curve maximum to 1.0 and simulation continues.\n   ** Warning ** GetDXCoils: Coil:Cooling:DX:SingleSpeed=\"COIL COOLING DX SINGLE SPEED 15 75KBTU/HR 9.7EER\", invalid\n   **   ~~~   ** ...Part Load Fraction Correlation Curve Name = DXCOOL-NECB2011-REF-COOLPLFFPLR 6 has out of range value.\n   **   ~~~   ** ...Curve maximum must be <= 1.0, curve max at PLR = 0.99 is 1.015\n   **   ~~~   ** ...Setting curve maximum to 1.0 and simulation continues.\n   ** Warning ** GetDXCoils: Coil:Cooling:DX:SingleSpeed=\"COIL COOLING DX SINGLE SPEED 16 37KBTU/HR 14.0SEER\", invalid\n   **   ~~~   ** ...Part Load Fraction Correlation Curve Name = DXCOOL-NECB2011-REF-COOLPLFFPLR 7 has out of range value.\n   **   ~~~   ** ...Curve maximum must be <= 1.0, curve max at PLR = 0.99 is 1.015\n   **   ~~~   ** ...Setting curve maximum to 1.0 and simulation continues.\n   ** Warning ** GetDXCoils: Coil:Cooling:DX:SingleSpeed=\"COIL COOLING DX SINGLE SPEED 12 13KBTU/HR 14.0SEER\", invalid\n   **   ~~~   ** ...Part Load Fraction Correlation Curve Name = DXCOOL-NECB2011-REF-COOLPLFFPLR 3 has out of range value.\n   **   ~~~   ** ...Curve maximum must be <= 1.0, curve max at PLR = 0.99 is 1.015\n   **   ~~~   ** ...Setting curve maximum to 1.0 and simulation continues.\n   ** Warning ** GetDXCoils: Coil:Cooling:DX:SingleSpeed=\"COIL COOLING DX SINGLE SPEED 17 6KBTU/HR 14.0SEER\", invalid\n   **   ~~~   ** ...Part Load Fraction Correlation Curve Name = DXCOOL-NECB2011-REF-COOLPLFFPLR 8 has out of range value.\n   **   ~~~   ** ...Curve maximum must be <= 1.0, curve max at PLR = 0.99 is 1.015\n   **   ~~~   ** ...Setting curve maximum to 1.0 and simulation continues.\n   ************* Beginning Plant Sizing Calculations\n   ** Warning ** The Standard Ratings is calculated for Coil:Cooling:DX:SingleSpeed = COIL COOLING DX SINGLE SPEED 8 38KBTU/HR 9.3EER but not at the AHRI test condition due to curve out of bound.\n   **   ~~~   **  Review the Standard Ratings calculations in the Engineering Reference for this coil type. Also, use Output:Diagnostics, DisplayExtraWarnings for further guidance.\n   ** Warning ** The Standard Ratings is calculated for Coil:Cooling:DX:SingleSpeed = COIL COOLING DX SINGLE SPEED 5 16KBTU/HR 9.3EER but not at the AHRI test condition due to curve out of bound.\n   **   ~~~   **  Review the Standard Ratings calculations in the Engineering Reference for this coil type. Also, use Output:Diagnostics, DisplayExtraWarnings for further guidance.\n   ** Warning ** The Standard Ratings is calculated for Coil:Cooling:DX:SingleSpeed = COIL COOLING DX SINGLE SPEED 9 18KBTU/HR 9.3EER but not at the AHRI test condition due to curve out of bound.\n   **   ~~~   **  Review the Standard Ratings calculations in the Engineering Reference for this coil type. Also, use Output:Diagnostics, DisplayExtraWarnings for further guidance.\n   ** Warning ** The Standard Ratings is calculated for Coil:Cooling:DX:SingleSpeed = COIL COOLING DX SINGLE SPEED 6 15KBTU/HR 9.4EER but not at the AHRI test condition due to curve out of bound.\n   **   ~~~   **  Review the Standard Ratings calculations in the Engineering Reference for this coil type. Also, use Output:Diagnostics, DisplayExtraWarnings for further guidance.\n   ** Warning ** The Standard Ratings is calculated for Coil:Cooling:DX:SingleSpeed = COIL COOLING DX SINGLE SPEED 10 17KBTU/HR 9.3EER but not at the AHRI test condition due to curve out of bound.\n   **   ~~~   **  Review the Standard Ratings calculations in the Engineering Reference for this coil type. Also, use Output:Diagnostics, DisplayExtraWarnings for further guidance.\n   ** Warning ** The Standard Ratings is calculated for Coil:Cooling:DX:SingleSpeed = COIL COOLING DX SINGLE SPEED 7 6KBTU/HR 11.0EER but not at the AHRI test condition due to curve out of bound.\n   **   ~~~   **  Review the Standard Ratings calculations in the Engineering Reference for this coil type. Also, use Output:Diagnostics, DisplayExtraWarnings for further guidance.\n   ** Warning ** The Standard Ratings is calculated for Coil:Cooling:DX:SingleSpeed = COIL COOLING DX SINGLE SPEED 11 11KBTU/HR 10.2EER but not at the AHRI test condition due to curve out of bound.\n   **   ~~~   **  Review the Standard Ratings calculations in the Engineering Reference for this coil type. Also, use Output:Diagnostics, DisplayExtraWarnings for further guidance.\n   ** Warning ** The Standard Ratings is calculated for Coil:Cooling:DX:SingleSpeed = COIL COOLING DX SINGLE SPEED 2 1KBTU/HR 11.0EER but not at the AHRI test condition due to curve out of bound.\n   **   ~~~   **  Review the Standard Ratings calculations in the Engineering Reference for this coil type. Also, use Output:Diagnostics, DisplayExtraWarnings for further guidance.\n   ** Warning ** The Standard Ratings is calculated for Coil:Cooling:DX:SingleSpeed = COIL COOLING DX SINGLE SPEED 4 15KBTU/HR 9.3EER but not at the AHRI test condition due to curve out of bound.\n   **   ~~~   **  Review the Standard Ratings calculations in the Engineering Reference for this coil type. Also, use Output:Diagnostics, DisplayExtraWarnings for further guidance.\n   ** Warning ** The Standard Ratings is calculated for Coil:Cooling:DX:SingleSpeed = COIL COOLING DX SINGLE SPEED 3 14KBTU/HR 9.5EER but not at the AHRI test condition due to curve out of bound.\n   **   ~~~   **  Review the Standard Ratings calculations in the Engineering Reference for this coil type. Also, use Output:Diagnostics, DisplayExtraWarnings for further guidance.\n   ** Warning ** The Standard Ratings is calculated for Coil:Cooling:DX:SingleSpeed = COIL COOLING DX SINGLE SPEED 1 186KBTU/HR 9.7EER but not at the AHRI test condition due to curve out of bound.\n   **   ~~~   **  Review the Standard Ratings calculations in the Engineering Reference for this coil type. Also, use Output:Diagnostics, DisplayExtraWarnings for further guidance.\n   ** Warning ** The Standard Ratings is calculated for Coil:Cooling:DX:SingleSpeed = COIL COOLING DX SINGLE SPEED 14 76KBTU/HR 9.7EER but not at the AHRI test condition due to curve out of bound.\n   **   ~~~   **  Review the Standard Ratings calculations in the Engineering Reference for this coil type. Also, use Output:Diagnostics, DisplayExtraWarnings for further guidance.\n   ** Warning ** The Standard Ratings is calculated for Coil:Cooling:DX:SingleSpeed = COIL COOLING DX SINGLE SPEED 18 73KBTU/HR 9.7EER but not at the AHRI test condition due to curve out of bound.\n   **   ~~~   **  Review the Standard Ratings calculations in the Engineering Reference for this coil type. Also, use Output:Diagnostics, DisplayExtraWarnings for further guidance.\n   ** Warning ** The Standard Ratings is calculated for Coil:Cooling:DX:SingleSpeed = COIL COOLING DX SINGLE SPEED 13 53KBTU/HR 14.0SEER but not at the AHRI test condition due to curve out of bound.\n   **   ~~~   **  Review the Standard Ratings calculations in the Engineering Reference for this coil type. Also, use Output:Diagnostics, DisplayExtraWarnings for further guidance.\n   ** Warning ** The Standard Ratings is calculated for Coil:Cooling:DX:SingleSpeed = COIL COOLING DX SINGLE SPEED 15 75KBTU/HR 9.7EER but not at the AHRI test condition due to curve out of bound.\n   **   ~~~   **  Review the Standard Ratings calculations in the Engineering Reference for this coil type. Also, use Output:Diagnostics, DisplayExtraWarnings for further guidance.\n   ** Warning ** The Standard Ratings is calculated for Coil:Cooling:DX:SingleSpeed = COIL COOLING DX SINGLE SPEED 16 37KBTU/HR 14.0SEER but not at the AHRI test condition due to curve out of bound.\n   **   ~~~   **  Review the Standard Ratings calculations in the Engineering Reference for this coil type. Also, use Output:Diagnostics, DisplayExtraWarnings for further guidance.\n   ** Warning ** The Standard Ratings is calculated for Coil:Cooling:DX:SingleSpeed = COIL COOLING DX SINGLE SPEED 12 13KBTU/HR 14.0SEER but not at the AHRI test condition due to curve out of bound.\n   **   ~~~   **  Review the Standard Ratings calculations in the Engineering Reference for this coil type. Also, use Output:Diagnostics, DisplayExtraWarnings for further guidance.\n   ** Warning ** The Standard Ratings is calculated for Coil:Cooling:DX:SingleSpeed = COIL COOLING DX SINGLE SPEED 17 6KBTU/HR 14.0SEER but not at the AHRI test condition due to curve out of bound.\n   **   ~~~   **  Review the Standard Ratings calculations in the Engineering Reference for this coil type. Also, use Output:Diagnostics, DisplayExtraWarnings for further guidance.\n   ** Warning ** Missing temperature setpoint for LeavingSetpointModulated mode chiller named PRIMARY CHILLER WATERCOOLED SCROLL 31TONS 0.8KW/TON\n   **   ~~~   **   A temperature setpoint is needed at the outlet node of a chiller in variable flow mode, use a SetpointManager\n   **   ~~~   **   The overall loop setpoint will be assumed for chiller. The simulation continues ... \n   ** Warning ** Missing temperature setpoint for LeavingSetpointModulated mode chiller named SECONDARY CHILLER WATERCOOLED SCROLL 0TONS 0.8KW/TON\n   **   ~~~   **   A temperature setpoint is needed at the outlet node of a chiller in variable flow mode, use a SetpointManager\n   **   ~~~   **   The overall loop setpoint will be assumed for chiller. The simulation continues ... \n   ** Warning ** Missing temperature setpoint for LeavingSetpointModulated mode Boiler named PRIMARY BOILER 1861KBTU/HR 0.83 THERMAL EFF\n   **   ~~~   **   A temperature setpoint is needed at the outlet node of a boiler in variable flow mode, use a SetpointManager\n   **   ~~~   **   The overall loop setpoint will be assumed for Boiler. The simulation continues ... \n   ** Warning ** Output:Meter: invalid Name=\"DISTRICTCOOLING:FACILITY\" - not found.\n   ** Warning ** Output:Meter: invalid Name=\"DISTRICTHEATING:FACILITY\" - not found.\n   ** Warning ** Output:Meter:MeterFileOnly requested for \"Electricity:Facility\" (TimeStep), already on \"Output:Meter\". Will report to both eplusout.eso and eplusout.mtr\n   ************* Testing Individual Branch Integrity\n   ************* All Branches passed integrity testing\n   ************* Testing Individual Supply Air Path Integrity\n   ************* All Supply Air Paths passed integrity testing\n   ************* Testing Individual Return Air Path Integrity\n   ************* All Return Air Paths passed integrity testing\n   ************* No node connection errors were found.\n   ************* Beginning Simulation\n   ** Warning ** CalcDoe2DXCoil: Coil:Cooling:DX:SingleSpeed \"COIL COOLING DX SINGLE SPEED 16 37KBTU/HR 14.0SEER\" - Air-cooled condenser inlet dry-bulb temperature below 0 C. Outdoor dry-bulb temperature = -2.50E-002\n   **   ~~~   **  ... Occurrence info = RUN PERIOD 1, 01/01 09:02 - 09:05\n   **   ~~~   ** ... Operation at low ambient temperatures may require special performance curves.\n   ** Warning ** CalcDoe2DXCoil: Coil:Cooling:DX:SingleSpeed \"COIL COOLING DX SINGLE SPEED 17 6KBTU/HR 14.0SEER\" - Full load outlet air dry-bulb temperature < 2C. This indicates the possibility of coil frost/freeze. Outlet temperature = 1.71 C.\n   **   ~~~   **  ...Occurrence info = RUN PERIOD 1, 01/03 08:06 - 08:09\n   **   ~~~   ** ... Possible reasons for low outlet air dry-bulb temperatures are: This DX coil\n   **   ~~~   **    1) may have a low inlet air dry-bulb temperature. Inlet air temperature = 14.598 C.\n   **   ~~~   **    2) may have a low air flow rate per watt of cooling capacity. Check inputs.\n   **   ~~~   **    3) is used as part of a HX assisted cooling coil which uses a high sensible effectiveness. Check inputs.\n   ** Warning ** CalcDoe2DXCoil: Coil:Cooling:DX:SingleSpeed \"COIL COOLING DX SINGLE SPEED 7 6KBTU/HR 11.0EER\" - Air-cooled condenser inlet dry-bulb temperature below 0 C. Outdoor dry-bulb temperature = -0.55\n   **   ~~~   **  ... Occurrence info = RUN PERIOD 1, 01/03 20:15 - 20:22\n   **   ~~~   ** ... Operation at low ambient temperatures may require special performance curves.\n   ** Warning ** CalcDoe2DXCoil: Coil:Cooling:DX:SingleSpeed \"COIL COOLING DX SINGLE SPEED 13 53KBTU/HR 14.0SEER\" - Air-cooled condenser inlet dry-bulb temperature below 0 C. Outdoor dry-bulb temperature = -2.80\n   **   ~~~   **  ... Occurrence info = RUN PERIOD 1, 01/04 07:02 - 07:04\n   **   ~~~   ** ... Operation at low ambient temperatures may require special performance curves.\n   ** Warning ** CalcDoe2DXCoil: Coil:Cooling:DX:SingleSpeed \"COIL COOLING DX SINGLE SPEED 17 6KBTU/HR 14.0SEER\" - Air-cooled condenser inlet dry-bulb temperature below 0 C. Outdoor dry-bulb temperature = -2.53\n   **   ~~~   **  ... Occurrence info = RUN PERIOD 1, 01/04 08:06 - 08:09\n   **   ~~~   ** ... Operation at low ambient temperatures may require special performance curves.\n   ** Warning ** CalcDoe2DXCoil: Coil:Cooling:DX:SingleSpeed \"COIL COOLING DX SINGLE SPEED 11 11KBTU/HR 10.2EER\" - Air-cooled condenser inlet dry-bulb temperature below 0 C. Outdoor dry-bulb temperature = -0.83\n   **   ~~~   **  ... Occurrence info = RUN PERIOD 1, 01/15 10:06 - 10:09\n   **   ~~~   ** ... Operation at low ambient temperatures may require special performance curves.\n   ** Warning ** CalcDoe2DXCoil: Coil:Cooling:DX:SingleSpeed \"COIL COOLING DX SINGLE SPEED 2 1KBTU/HR 11.0EER\" - Full load outlet air dry-bulb temperature < 2C. This indicates the possibility of coil frost/freeze. Outlet temperature = 1.97 C.\n   **   ~~~   **  ...Occurrence info = RUN PERIOD 1, 02/06 21:30 - 21:35\n   **   ~~~   ** ... Possible reasons for low outlet air dry-bulb temperatures are: This DX coil\n   **   ~~~   **    1) may have a low inlet air dry-bulb temperature. Inlet air temperature = 12.299 C.\n   **   ~~~   **    2) may have a low air flow rate per watt of cooling capacity. Check inputs.\n   **   ~~~   **    3) is used as part of a HX assisted cooling coil which uses a high sensible effectiveness. Check inputs.\n   ** Warning ** CalcDoe2DXCoil: Coil:Cooling:DX:SingleSpeed \"COIL COOLING DX SINGLE SPEED 2 1KBTU/HR 11.0EER\" - Air-cooled condenser inlet dry-bulb temperature below 0 C. Outdoor dry-bulb temperature = -1.10\n   **   ~~~   **  ... Occurrence info = RUN PERIOD 1, 03/03 22:45 - 23:00\n   **   ~~~   ** ... Operation at low ambient temperatures may require special performance curves.\n   ** Warning ** CalcDoe2DXCoil: Coil:Cooling:DX:SingleSpeed \"COIL COOLING DX SINGLE SPEED 12 13KBTU/HR 14.0SEER\" - Full load outlet air dry-bulb temperature < 2C. This indicates the possibility of coil frost/freeze. Outlet temperature = 1.80 C.\n   **   ~~~   **  ...Occurrence info = RUN PERIOD 1, 03/26 10:03 - 10:04\n   **   ~~~   ** ... Possible reasons for low outlet air dry-bulb temperatures are: This DX coil\n   **   ~~~   **    1) may have a low inlet air dry-bulb temperature. Inlet air temperature = 12.718 C.\n   **   ~~~   **    2) may have a low air flow rate per watt of cooling capacity. Check inputs.\n   **   ~~~   **    3) is used as part of a HX assisted cooling coil which uses a high sensible effectiveness. Check inputs.\n   ** Warning ** CalcDoe2DXCoil: Coil:Cooling:DX:SingleSpeed \"COIL COOLING DX SINGLE SPEED 18 73KBTU/HR 9.7EER\" - Full load outlet air dry-bulb temperature < 2C. This indicates the possibility of coil frost/freeze. Outlet temperature = 0.97 C.\n   **   ~~~   **  ...Occurrence info = RUN PERIOD 1, 10/07 13:15 - 13:20\n   **   ~~~   ** ... Possible reasons for low outlet air dry-bulb temperatures are: This DX coil\n   **   ~~~   **    1) may have a low inlet air dry-bulb temperature. Inlet air temperature = 12.850 C.\n   **   ~~~   **    2) may have a low air flow rate per watt of cooling capacity. Check inputs.\n   **   ~~~   **    3) is used as part of a HX assisted cooling coil which uses a high sensible effectiveness. Check inputs.\n   ** Warning ** CalcDoe2DXCoil: Coil:Cooling:DX:SingleSpeed \"COIL COOLING DX SINGLE SPEED 4 15KBTU/HR 9.3EER\" - Air-cooled condenser inlet dry-bulb temperature below 0 C. Outdoor dry-bulb temperature = -1.93\n   **   ~~~   **  ... Occurrence info = RUN PERIOD 1, 11/21 10:05 - 10:10\n   **   ~~~   ** ... Operation at low ambient temperatures may require special performance curves.\n   ** Warning ** CalcDoe2DXCoil: Coil:Cooling:DX:SingleSpeed \"COIL COOLING DX SINGLE SPEED 5 16KBTU/HR 9.3EER\" - Air-cooled condenser inlet dry-bulb temperature below 0 C. Outdoor dry-bulb temperature = -1.10\n   **   ~~~   **  ... Occurrence info = RUN PERIOD 1, 11/21 11:15 - 11:22\n   **   ~~~   ** ... Operation at low ambient temperatures may require special performance curves.\n   ** Warning ** CalcDoe2DXCoil: Coil:Cooling:DX:SingleSpeed \"COIL COOLING DX SINGLE SPEED 9 18KBTU/HR 9.3EER\" - Air-cooled condenser inlet dry-bulb temperature below 0 C. Outdoor dry-bulb temperature = -1.10\n   **   ~~~   **  ... Occurrence info = RUN PERIOD 1, 11/21 11:38 - 11:45\n   **   ~~~   ** ... Operation at low ambient temperatures may require special performance curves.\n   ** Warning ** CalcDoe2DXCoil: Coil:Cooling:DX:SingleSpeed \"COIL COOLING DX SINGLE SPEED 6 15KBTU/HR 9.4EER\" - Air-cooled condenser inlet dry-bulb temperature below 0 C. Outdoor dry-bulb temperature = -0.60\n   **   ~~~   **  ... Occurrence info = RUN PERIOD 1, 11/21 14:38 - 14:45\n   **   ~~~   ** ... Operation at low ambient temperatures may require special performance curves.\n   ** Warning ** CalcDoe2DXCoil: Coil:Cooling:DX:SingleSpeed \"COIL COOLING DX SINGLE SPEED 10 17KBTU/HR 9.3EER\" - Air-cooled condenser inlet dry-bulb temperature below 0 C. Outdoor dry-bulb temperature = -0.60\n   **   ~~~   **  ... Occurrence info = RUN PERIOD 1, 11/21 14:38 - 14:45\n   **   ~~~   ** ... Operation at low ambient temperatures may require special performance curves.\n   ************* Simulation Error Summary *************\n   ************* There are 9 unused schedules in input.\n   ************* There are 9 unused week schedules in input.\n   ************* There are 35 unused day schedules in input.\n   ************* Use Output:Diagnostics,DisplayUnusedSchedules; to see them.\n   *************\n   ************* ===== Recurring Error Summary =====\n   ************* The following recurring error messages occurred.\n   *************\n   *************  ** Warning ** CalcDoe2DXCoil: Coil:Cooling:DX:SingleSpeed=\"COIL COOLING DX SINGLE SPEED 16 37KBTU/HR 14.0SEER\" - Low condenser dry-bulb temperature error continues...\n   *************  **   ~~~   **   This error occurred 42 total times;\n   *************  **   ~~~   **   during Warmup 0 times;\n   *************  **   ~~~   **   during Sizing 0 times.\n   *************  **   ~~~   **   Max=-2.500000E-002 [C]  Min=-4.45 [C]\n   *************\n   *************  ** Warning ** CalcDoe2DXCoil: Coil:Cooling:DX:SingleSpeed=\"COIL COOLING DX SINGLE SPEED 17 6KBTU/HR 14.0SEER\" - Full load outlet temperature indicates a possibility of frost/freeze error continues. Outlet air temperature statistics follow:\n   *************  **   ~~~   **   This error occurred 87 total times;\n   *************  **   ~~~   **   during Warmup 0 times;\n   *************  **   ~~~   **   during Sizing 0 times.\n   *************  **   ~~~   **   Max=1.974521  Min=-1.10148\n   *************\n   *************  ** Warning ** CalcDoe2DXCoil: Coil:Cooling:DX:SingleSpeed=\"COIL COOLING DX SINGLE SPEED 7 6KBTU/HR 11.0EER\" - Low condenser dry-bulb temperature error continues...\n   *************  **   ~~~   **   This error occurred 551 total times;\n   *************  **   ~~~   **   during Warmup 0 times;\n   *************  **   ~~~   **   during Sizing 0 times.\n   *************  **   ~~~   **   Max=-2.500000E-002 [C]  Min=-7.2 [C]\n   *************\n   *************  ** Warning ** CalcDoe2DXCoil: Coil:Cooling:DX:SingleSpeed=\"COIL COOLING DX SINGLE SPEED 13 53KBTU/HR 14.0SEER\" - Low condenser dry-bulb temperature error continues...\n   *************  **   ~~~   **   This error occurred 27 total times;\n   *************  **   ~~~   **   during Warmup 0 times;\n   *************  **   ~~~   **   during Sizing 0 times.\n   *************  **   ~~~   **   Max=-0.175 [C]  Min=-4.175 [C]\n   *************\n   *************  ** Warning ** CalcDoe2DXCoil: Coil:Cooling:DX:SingleSpeed=\"COIL COOLING DX SINGLE SPEED 17 6KBTU/HR 14.0SEER\" - Low condenser dry-bulb temperature error continues...\n   *************  **   ~~~   **   This error occurred 39 total times;\n   *************  **   ~~~   **   during Warmup 0 times;\n   *************  **   ~~~   **   during Sizing 0 times.\n   *************  **   ~~~   **   Max=-0.25 [C]  Min=-4.45 [C]\n   *************\n   *************  ** Warning ** CalcDoe2DXCoil: Coil:Cooling:DX:SingleSpeed=\"COIL COOLING DX SINGLE SPEED 11 11KBTU/HR 10.2EER\" - Low condenser dry-bulb temperature error continues...\n   *************  **   ~~~   **   This error occurred 129 total times;\n   *************  **   ~~~   **   during Warmup 0 times;\n   *************  **   ~~~   **   during Sizing 0 times.\n   *************  **   ~~~   **   Max=-0.15 [C]  Min=-2.25 [C]\n   *************\n   *************  ** Warning ** CalcDoe2DXCoil: Coil:Cooling:DX:SingleSpeed=\"COIL COOLING DX SINGLE SPEED 2 1KBTU/HR 11.0EER\" - Full load outlet temperature indicates a possibility of frost/freeze error continues. Outlet air temperature statistics follow:\n   *************  **   ~~~   **   This error occurred 305 total times;\n   *************  **   ~~~   **   during Warmup 0 times;\n   *************  **   ~~~   **   during Sizing 0 times.\n   *************  **   ~~~   **   Max=1.984868  Min=-1.203006\n   *************\n   *************  ** Warning ** CalcDoe2DXCoil: Coil:Cooling:DX:SingleSpeed=\"COIL COOLING DX SINGLE SPEED 2 1KBTU/HR 11.0EER\" - Low condenser dry-bulb temperature error continues...\n   *************  **   ~~~   **   This error occurred 1 total times;\n   *************  **   ~~~   **   during Warmup 0 times;\n   *************  **   ~~~   **   during Sizing 0 times.\n   *************  **   ~~~   **   Max=-1.1 [C]  Min=-1.1 [C]\n   *************\n   *************  ** Warning ** CalcDoe2DXCoil: Coil:Cooling:DX:SingleSpeed=\"COIL COOLING DX SINGLE SPEED 12 13KBTU/HR 14.0SEER\" - Full load outlet temperature indicates a possibility of frost/freeze error continues. Outlet air temperature statistics follow:\n   *************  **   ~~~   **   This error occurred 23 total times;\n   *************  **   ~~~   **   during Warmup 0 times;\n   *************  **   ~~~   **   during Sizing 0 times.\n   *************  **   ~~~   **   Max=1.984996  Min=-1.593583\n   *************\n   *************  ** Warning ** CalcDoe2DXCoil: Coil:Cooling:DX:SingleSpeed=\"COIL COOLING DX SINGLE SPEED 18 73KBTU/HR 9.7EER\" - Full load outlet temperature indicates a possibility of frost/freeze error continues. Outlet air temperature statistics follow:\n   *************  **   ~~~   **   This error occurred 3 total times;\n   *************  **   ~~~   **   during Warmup 0 times;\n   *************  **   ~~~   **   during Sizing 0 times.\n   *************  **   ~~~   **   Max=1.120562  Min=0.971321\n   *************\n   *************  ** Warning ** CalcDoe2DXCoil: Coil:Cooling:DX:SingleSpeed=\"COIL COOLING DX SINGLE SPEED 4 15KBTU/HR 9.3EER\" - Low condenser dry-bulb temperature error continues...\n   *************  **   ~~~   **   This error occurred 66 total times;\n   *************  **   ~~~   **   during Warmup 0 times;\n   *************  **   ~~~   **   during Sizing 0 times.\n   *************  **   ~~~   **   Max=-0.15 [C]  Min=-1.925 [C]\n   *************\n   *************  ** Warning ** CalcDoe2DXCoil: Coil:Cooling:DX:SingleSpeed=\"COIL COOLING DX SINGLE SPEED 5 16KBTU/HR 9.3EER\" - Low condenser dry-bulb temperature error continues...\n   *************  **   ~~~   **   This error occurred 60 total times;\n   *************  **   ~~~   **   during Warmup 0 times;\n   *************  **   ~~~   **   during Sizing 0 times.\n   *************  **   ~~~   **   Max=-0.6 [C]  Min=-2.075 [C]\n   *************\n   *************  ** Warning ** CalcDoe2DXCoil: Coil:Cooling:DX:SingleSpeed=\"COIL COOLING DX SINGLE SPEED 9 18KBTU/HR 9.3EER\" - Low condenser dry-bulb temperature error continues...\n   *************  **   ~~~   **   This error occurred 53 total times;\n   *************  **   ~~~   **   during Warmup 0 times;\n   *************  **   ~~~   **   during Sizing 0 times.\n   *************  **   ~~~   **   Max=-0.6 [C]  Min=-1.95 [C]\n   *************\n   *************  ** Warning ** CalcDoe2DXCoil: Coil:Cooling:DX:SingleSpeed=\"COIL COOLING DX SINGLE SPEED 6 15KBTU/HR 9.4EER\" - Low condenser dry-bulb temperature error continues...\n   *************  **   ~~~   **   This error occurred 10 total times;\n   *************  **   ~~~   **   during Warmup 0 times;\n   *************  **   ~~~   **   during Sizing 0 times.\n   *************  **   ~~~   **   Max=-0.6 [C]  Min=-1.825 [C]\n   *************\n   *************  ** Warning ** CalcDoe2DXCoil: Coil:Cooling:DX:SingleSpeed=\"COIL COOLING DX SINGLE SPEED 10 17KBTU/HR 9.3EER\" - Low condenser dry-bulb temperature error continues...\n   *************  **   ~~~   **   This error occurred 9 total times;\n   *************  **   ~~~   **   during Warmup 0 times;\n   *************  **   ~~~   **   during Sizing 0 times.\n   *************  **   ~~~   **   Max=-0.6 [C]  Min=-1.7 [C]\n   *************\n   *************\n   ************* ===== Final Error Summary =====\n   ************* The following error categories occurred.  Consider correcting or noting.\n   ************* Nominally Unused Constructions\n   ************* ..The nominally unused constructions warning is provided to alert you to potential conditions that can cause\n   ************* ..extra time during simulation. Each construction is calculated by the algorithm indicated in the HeatBalanceAlgorithm\n   ************* ..object. You may remove the constructions indicated (when you use the DisplayExtraWarnings option).\n   *************\n   ************* EnergyPlus Warmup Error Summary. During Warmup: 0 Warning; 0 Severe Errors.\n   ************* EnergyPlus Sizing Error Summary. During Sizing: 165 Warning; 0 Severe Errors.\n   ************* EnergyPlus Completed Successfully-- 1595 Warning; 0 Severe Errors; Elapsed Time=00hr 03min 30.04sec\n",
   "file_format_version" : "0.0.1",
   "file_paths" : [ "../weather", "../seeds", "../seed" ],
   "hash" : "FD5B783E",
   "measure_paths" : [ "../measures" ],
   "name" : "LHS Autogenerated 582",
   "osa_id" : "4fef0e0f-5396-4c55-a6e1-2cd6803db3ab",
   "osd_id" : "62e3c07e-0abf-4df3-b89e-d95a6768ef73",
   "run_directory" : "./run",
   "seed_file" : "seed.osm",
   "started_at" : "20170710T190000Z",
   "steps" : [
      {
         "arguments" : {
            "__SKIP__" : false,
            "building_type" : "LargeHotel",
            "climate_zone" : "NECB HDD Method",
            "epw_file" : "CAN_BC_Vancouver.718920_CWEC.epw",
            "template" : "NECB 2011"
         },
         "measure_dir_name" : "create_prototype_building",
         "name" : "create_prototype_building",
         "result" : {
            "completed_at" : "20170710T190147Z",
            "measure_class_name" : "CreatePrototypeBuilding",
            "measure_display_name" : "Create Prototype Building",
            "measure_name" : "create_prototype_building",
            "measure_taxonomy" : "Whole Building.Space Types",
            "measure_type" : "ModelMeasure",
            "measure_uid" : "ae90fsd7-a651-467a-bc8d-29d310b0f937",
            "measure_version_id" : "c6ec5c18-5595-459f-a082-09a19c8c869c",
            "measure_version_modified" : "20170519T182315Z",
            "measure_xml_checksum" : "057E8D9D",
            "started_at" : "20170710T190002Z",
            "stderr" : "",
            "stdout" : "[OpenStudio.Measure] <0> OSArgumentVector is deprecated, use OpenStudio::Measure::OSArgumentVector instead.\n[openstudio.EpwFile] <0> Successive data points (1970-Jan-31 to 1967-Feb-01, ending on line 753) are greater than 1 day apart in EPW file '/usr/local/bundle/bundler/gems/openstudio-standards-f448df66933d/openstudio-standards/data/weather/CAN_BC_Vancouver.718920_CWEC.epw'. Data will be treated as typical (TMY)\n[openstudio.setFileExtension] <0> Path p, '/usr/local/bundle/bundler/gems/openstudio-standards-f448df66933d/openstudio-standards/data/weather/CAN_BC_Vancouver.718920_CWEC.ddy', has an unexpected file extension. Was expecting 'idf'.\n[openstudio.model.YearDescription] <1> 'UseWeatherFile' is not yet a supported option for YearDescription\n[openstudio.model.YearDescription] <1> 'UseWeatherFile' is not yet a supported option for YearDescription\n[openstudio.setFileExtension] <0> Path p, '/usr/local/bundle/bundler/gems/openstudio-standards-f448df66933d/openstudio-standards/data/weather/CAN_BC_Vancouver.718920_CWEC.ddy', has an unexpected file extension. Was expecting 'idf'.\n[openstudio.model.YearDescription] <1> 'UseWeatherFile' is not yet a supported option for YearDescription\n[openstudio.model.YearDescription] <1> 'UseWeatherFile' is not yet a supported option for YearDescription\n[openstudio.EpwFile] <0> Successive data points (1970-Jan-31 to 1967-Feb-01, ending on line 753) are greater than 1 day apart in EPW file '/usr/local/bundle/bundler/gems/openstudio-standards-f448df66933d/openstudio-standards/data/weather/CAN_BC_Vancouver.718920_CWEC.epw'. Data will be treated as typical (TMY)\n[openstudio.weather.Model] <0> Could not find ground temperatures; will use generic temperatures, which will skew results.\n[openstudio.setFileExtension] <0> Path p, '/usr/local/bundle/bundler/gems/openstudio-standards-f448df66933d/openstudio-standards/data/weather/CAN_BC_Vancouver.718920_CWEC.ddy', has an unexpected file extension. Was expecting 'idf'.\n[openstudio.model.YearDescription] <1> 'UseWeatherFile' is not yet a supported option for YearDescription\n[openstudio.model.YearDescription] <1> 'UseWeatherFile' is not yet a supported option for YearDescription\n[openstudio.EpwFile] <0> Successive data points (1970-Jan-31 to 1967-Feb-01, ending on line 753) are greater than 1 day apart in EPW file '/usr/local/bundle/bundler/gems/openstudio-standards-f448df66933d/openstudio-standards/data/weather/CAN_BC_Vancouver.718920_CWEC.epw'. Data will be treated as typical (TMY)\n[openstudio.setFileExtension] <0> Path p, '/usr/local/bundle/bundler/gems/openstudio-standards-f448df66933d/openstudio-standards/data/weather/CAN_BC_Vancouver.718920_CWEC.ddy', has an unexpected file extension. Was expecting 'idf'.\n[openstudio.model.YearDescription] <1> 'UseWeatherFile' is not yet a supported option for YearDescription\n[openstudio.model.YearDescription] <1> 'UseWeatherFile' is not yet a supported option for YearDescription\n[openstudio.setFileExtension] <0> Path p, '/usr/local/bundle/bundler/gems/openstudio-standards-f448df66933d/openstudio-standards/data/weather/CAN_BC_Vancouver.718920_CWEC.ddy', has an unexpected file extension. Was expecting 'idf'.\n[openstudio.model.YearDescription] <1> 'UseWeatherFile' is not yet a supported option for YearDescription\n[openstudio.model.YearDescription] <1> 'UseWeatherFile' is not yet a supported option for YearDescription\n[openstudio.EpwFile] <0> Successive data points (1970-Jan-31 to 1967-Feb-01, ending on line 753) are greater than 1 day apart in EPW file '/usr/local/bundle/bundler/gems/openstudio-standards-f448df66933d/openstudio-standards/data/weather/CAN_BC_Vancouver.718920_CWEC.epw'. Data will be treated as typical (TMY)\n[openstudio.setFileExtension] <0> Path p, '/usr/local/bundle/bundler/gems/openstudio-standards-f448df66933d/openstudio-standards/data/weather/CAN_BC_Vancouver.718920_CWEC.ddy', has an unexpected file extension. Was expecting 'idf'.\n[openstudio.model.YearDescription] <1> 'UseWeatherFile' is not yet a supported option for YearDescription\n[openstudio.model.YearDescription] <1> 'UseWeatherFile' is not yet a supported option for YearDescription\n[openstudio.setFileExtension] <0> Path p, '/usr/local/bundle/bundler/gems/openstudio-standards-f448df66933d/openstudio-standards/data/weather/CAN_BC_Vancouver.718920_CWEC.ddy', has an unexpected file extension. Was expecting 'idf'.\n[openstudio.model.YearDescription] <1> 'UseWeatherFile' is not yet a supported option for YearDescription\n[openstudio.model.YearDescription] <1> 'UseWeatherFile' is not yet a supported option for YearDescription\n[utilities.idf.WorkspaceObject] <0> Object of type 'Schedule:Constant' and named 'Always Off Discrete', points to an object named OnOff 1 from field 1, but that object cannot be located.\n[utilities.idf.WorkspaceObject] <0> Object of type 'Schedule:Constant' and named 'Always On Continuous', points to an object named Fractional 1 from field 1, but that object cannot be located.\n[utilities.idf.WorkspaceObject] <0> Object of type 'Schedule:Constant' and named 'Always Off Discrete', points to an object named OnOff 1 from field 1, but that object cannot be located.\n[utilities.idf.WorkspaceObject] <0> Object of type 'Schedule:Constant' and named 'Always On Continuous', points to an object named Fractional 1 from field 1, but that object cannot be located.\n[openstudio.standards.Fan] <0> For Fan Constant Volume 1, there is no greater nominal HP.  Use the efficiency of the largest motor category.\n[openstudio.standards.Fan] <0> For Fan Constant Volume 12, there is no greater nominal HP.  Use the efficiency of the largest motor category.\n[openstudio.standards.Fan] <0> For Fan Constant Volume 13, there is no greater nominal HP.  Use the efficiency of the largest motor category.\n[openstudio.standards.Fan] <0> For Fan Constant Volume 14, there is no greater nominal HP.  Use the efficiency of the largest motor category.\n[openstudio.standards.Fan] <0> For Fan Constant Volume 15, there is no greater nominal HP.  Use the efficiency of the largest motor category.\n[openstudio.standards.Fan] <0> For Fan Constant Volume 16, there is no greater nominal HP.  Use the efficiency of the largest motor category.\n[openstudio.standards.Fan] <0> For Fan Constant Volume 17, there is no greater nominal HP.  Use the efficiency of the largest motor category.\n[openstudio.standards.Fan] <0> For Fan Constant Volume 18, there is no greater nominal HP.  Use the efficiency of the largest motor category.\n[openstudio.standards.Fan] <0> For Fan Variable Volume 1, there is no greater nominal HP.  Use the efficiency of the largest motor category.\n[openstudio.EpwFile] <0> Successive data points (1970-Jan-31 to 1967-Feb-01, ending on line 753) are greater than 1 day apart in EPW file '/usr/local/bundle/bundler/gems/openstudio-standards-f448df66933d/openstudio-standards/data/weather/CAN_BC_Vancouver.718920_CWEC.epw'. Data will be treated as typical (TMY)\n[openstudio.setFileExtension] <0> Path p, '/usr/local/bundle/bundler/gems/openstudio-standards-f448df66933d/openstudio-standards/data/weather/CAN_BC_Vancouver.718920_CWEC.ddy', has an unexpected file extension. Was expecting 'idf'.\n[openstudio.model.YearDescription] <1> 'UseWeatherFile' is not yet a supported option for YearDescription\n[openstudio.model.YearDescription] <1> 'UseWeatherFile' is not yet a supported option for YearDescription\n[openstudio.setFileExtension] <0> Path p, '/usr/local/bundle/bundler/gems/openstudio-standards-f448df66933d/openstudio-standards/data/weather/CAN_BC_Vancouver.718920_CWEC.ddy', has an unexpected file extension. Was expecting 'idf'.\n[openstudio.model.YearDescription] <1> 'UseWeatherFile' is not yet a supported option for YearDescription\n[openstudio.model.YearDescription] <1> 'UseWeatherFile' is not yet a supported option for YearDescription\n[openstudio.EpwFile] <0> Successive data points (1970-Jan-31 to 1967-Feb-01, ending on line 753) are greater than 1 day apart in EPW file '/usr/local/bundle/bundler/gems/openstudio-standards-f448df66933d/openstudio-standards/data/weather/CAN_BC_Vancouver.718920_CWEC.epw'. Data will be treated as typical (TMY)\n[openstudio.setFileExtension] <0> Path p, '/usr/local/bundle/bundler/gems/openstudio-standards-f448df66933d/openstudio-standards/data/weather/CAN_BC_Vancouver.718920_CWEC.ddy', has an unexpected file extension. Was expecting 'idf'.\n[openstudio.model.YearDescription] <1> 'UseWeatherFile' is not yet a supported option for YearDescription\n[openstudio.model.YearDescription] <1> 'UseWeatherFile' is not yet a supported option for YearDescription\n[openstudio.setFileExtension] <0> Path p, '/usr/local/bundle/bundler/gems/openstudio-standards-f448df66933d/openstudio-standards/data/weather/CAN_BC_Vancouver.718920_CWEC.ddy', has an unexpected file extension. Was expecting 'idf'.\n[openstudio.model.YearDescription] <1> 'UseWeatherFile' is not yet a supported option for YearDescription\n[openstudio.model.YearDescription] <1> 'UseWeatherFile' is not yet a supported option for YearDescription\n[openstudio.EpwFile] <0> Successive data points (1970-Jan-31 to 1967-Feb-01, ending on line 753) are greater than 1 day apart in EPW file '/usr/local/bundle/bundler/gems/openstudio-standards-f448df66933d/openstudio-standards/data/weather/CAN_BC_Vancouver.718920_CWEC.epw'. Data will be treated as typical (TMY)\n[openstudio.setFileExtension] <0> Path p, '/usr/local/bundle/bundler/gems/openstudio-standards-f448df66933d/openstudio-standards/data/weather/CAN_BC_Vancouver.718920_CWEC.ddy', has an unexpected file extension. Was expecting 'idf'.\n[openstudio.model.YearDescription] <1> 'UseWeatherFile' is not yet a supported option for YearDescription\n[openstudio.model.YearDescription] <1> 'UseWeatherFile' is not yet a supported option for YearDescription\n[openstudio.setFileExtension] <0> Path p, '/usr/local/bundle/bundler/gems/openstudio-standards-f448df66933d/openstudio-standards/data/weather/CAN_BC_Vancouver.718920_CWEC.ddy', has an unexpected file extension. Was expecting 'idf'.\n[openstudio.model.YearDescription] <1> 'UseWeatherFile' is not yet a supported option for YearDescription\n[openstudio.model.YearDescription] <1> 'UseWeatherFile' is not yet a supported option for YearDescription\n[openstudio.EpwFile] <0> Successive data points (1970-Jan-31 to 1967-Feb-01, ending on line 753) are greater than 1 day apart in EPW file '/usr/local/bundle/bundler/gems/openstudio-standards-f448df66933d/openstudio-standards/data/weather/CAN_BC_Vancouver.718920_CWEC.epw'. Data will be treated as typical (TMY)\n[openstudio.setFileExtension] <0> Path p, '/usr/local/bundle/bundler/gems/openstudio-standards-f448df66933d/openstudio-standards/data/weather/CAN_BC_Vancouver.718920_CWEC.ddy', has an unexpected file extension. Was expecting 'idf'.\n[openstudio.model.YearDescription] <1> 'UseWeatherFile' is not yet a supported option for YearDescription\n[openstudio.model.YearDescription] <1> 'UseWeatherFile' is not yet a supported option for YearDescription\n[openstudio.setFileExtension] <0> Path p, '/usr/local/bundle/bundler/gems/openstudio-standards-f448df66933d/openstudio-standards/data/weather/CAN_BC_Vancouver.718920_CWEC.ddy', has an unexpected file extension. Was expecting 'idf'.\n[openstudio.model.YearDescription] <1> 'UseWeatherFile' is not yet a supported option for YearDescription\n[openstudio.model.YearDescription] <1> 'UseWeatherFile' is not yet a supported option for YearDescription\n[openstudio.EpwFile] <0> Successive data points (1970-Jan-31 to 1967-Feb-01, ending on line 753) are greater than 1 day apart in EPW file '/usr/local/bundle/bundler/gems/openstudio-standards-f448df66933d/openstudio-standards/data/weather/CAN_BC_Vancouver.718920_CWEC.epw'. Data will be treated as typical (TMY)\n[openstudio.setFileExtension] <0> Path p, '/usr/local/bundle/bundler/gems/openstudio-standards-f448df66933d/openstudio-standards/data/weather/CAN_BC_Vancouver.718920_CWEC.ddy', has an unexpected file extension. Was expecting 'idf'.\n[openstudio.model.YearDescription] <1> 'UseWeatherFile' is not yet a supported option for YearDescription\n[openstudio.model.YearDescription] <1> 'UseWeatherFile' is not yet a supported option for YearDescription\n[openstudio.setFileExtension] <0> Path p, '/usr/local/bundle/bundler/gems/openstudio-standards-f448df66933d/openstudio-standards/data/weather/CAN_BC_Vancouver.718920_CWEC.ddy', has an unexpected file extension. Was expecting 'idf'.\n[openstudio.model.YearDescription] <1> 'UseWeatherFile' is not yet a supported option for YearDescription\n[openstudio.model.YearDescription] <1> 'UseWeatherFile' is not yet a supported option for YearDescription\n[openstudio.EpwFile] <0> Successive data points (1970-Jan-31 to 1967-Feb-01, ending on line 753) are greater than 1 day apart in EPW file '/usr/local/bundle/bundler/gems/openstudio-standards-f448df66933d/openstudio-standards/data/weather/CAN_BC_Vancouver.718920_CWEC.epw'. Data will be treated as typical (TMY)\n[openstudio.setFileExtension] <0> Path p, '/usr/local/bundle/bundler/gems/openstudio-standards-f448df66933d/openstudio-standards/data/weather/CAN_BC_Vancouver.718920_CWEC.ddy', has an unexpected file extension. Was expecting 'idf'.\n[openstudio.model.YearDescription] <1> 'UseWeatherFile' is not yet a supported option for YearDescription\n[openstudio.model.YearDescription] <1> 'UseWeatherFile' is not yet a supported option for YearDescription\n[openstudio.setFileExtension] <0> Path p, '/usr/local/bundle/bundler/gems/openstudio-standards-f448df66933d/openstudio-standards/data/weather/CAN_BC_Vancouver.718920_CWEC.ddy', has an unexpected file extension. Was expecting 'idf'.\n[openstudio.model.YearDescription] <1> 'UseWeatherFile' is not yet a supported option for YearDescription\n[openstudio.model.YearDescription] <1> 'UseWeatherFile' is not yet a supported option for YearDescription\n[openstudio.EpwFile] <0> Successive data points (1970-Jan-31 to 1967-Feb-01, ending on line 753) are greater than 1 day apart in EPW file '/usr/local/bundle/bundler/gems/openstudio-standards-f448df66933d/openstudio-standards/data/weather/CAN_BC_Vancouver.718920_CWEC.epw'. Data will be treated as typical (TMY)\n[openstudio.setFileExtension] <0> Path p, '/usr/local/bundle/bundler/gems/openstudio-standards-f448df66933d/openstudio-standards/data/weather/CAN_BC_Vancouver.718920_CWEC.ddy', has an unexpected file extension. Was expecting 'idf'.\n[openstudio.model.YearDescription] <1> 'UseWeatherFile' is not yet a supported option for YearDescription\n[openstudio.model.YearDescription] <1> 'UseWeatherFile' is not yet a supported option for YearDescription\n[openstudio.setFileExtension] <0> Path p, '/usr/local/bundle/bundler/gems/openstudio-standards-f448df66933d/openstudio-standards/data/weather/CAN_BC_Vancouver.718920_CWEC.ddy', has an unexpected file extension. Was expecting 'idf'.\n[openstudio.model.YearDescription] <1> 'UseWeatherFile' is not yet a supported option for YearDescription\n[openstudio.model.YearDescription] <1> 'UseWeatherFile' is not yet a supported option for YearDescription\n[openstudio.EpwFile] <0> Successive data points (1970-Jan-31 to 1967-Feb-01, ending on line 753) are greater than 1 day apart in EPW file '/usr/local/bundle/bundler/gems/openstudio-standards-f448df66933d/openstudio-standards/data/weather/CAN_BC_Vancouver.718920_CWEC.epw'. Data will be treated as typical (TMY)\n[openstudio.setFileExtension] <0> Path p, '/usr/local/bundle/bundler/gems/openstudio-standards-f448df66933d/openstudio-standards/data/weather/CAN_BC_Vancouver.718920_CWEC.ddy', has an unexpected file extension. Was expecting 'idf'.\n[openstudio.model.YearDescription] <1> 'UseWeatherFile' is not yet a supported option for YearDescription\n[openstudio.model.YearDescription] <1> 'UseWeatherFile' is not yet a supported option for YearDescription\n[openstudio.setFileExtension] <0> Path p, '/usr/local/bundle/bundler/gems/openstudio-standards-f448df66933d/openstudio-standards/data/weather/CAN_BC_Vancouver.718920_CWEC.ddy', has an unexpected file extension. Was expecting 'idf'.\n[openstudio.model.YearDescription] <1> 'UseWeatherFile' is not yet a supported option for YearDescription\n[openstudio.model.YearDescription] <1> 'UseWeatherFile' is not yet a supported option for YearDescription\n[openstudio.EpwFile] <0> Successive data points (1970-Jan-31 to 1967-Feb-01, ending on line 753) are greater than 1 day apart in EPW file '/usr/local/bundle/bundler/gems/openstudio-standards-f448df66933d/openstudio-standards/data/weather/CAN_BC_Vancouver.718920_CWEC.epw'. Data will be treated as typical (TMY)\n[openstudio.setFileExtension] <0> Path p, '/usr/local/bundle/bundler/gems/openstudio-standards-f448df66933d/openstudio-standards/data/weather/CAN_BC_Vancouver.718920_CWEC.ddy', has an unexpected file extension. Was expecting 'idf'.\n[openstudio.model.YearDescription] <1> 'UseWeatherFile' is not yet a supported option for YearDescription\n[openstudio.model.YearDescription] <1> 'UseWeatherFile' is not yet a supported option for YearDescription\n[openstudio.setFileExtension] <0> Path p, '/usr/local/bundle/bundler/gems/openstudio-standards-f448df66933d/openstudio-standards/data/weather/CAN_BC_Vancouver.718920_CWEC.ddy', has an unexpected file extension. Was expecting 'idf'.\n[openstudio.model.YearDescription] <1> 'UseWeatherFile' is not yet a supported option for YearDescription\n[openstudio.model.YearDescription] <1> 'UseWeatherFile' is not yet a supported option for YearDescription\n[openstudio.standards.Fan] <0> For Fan Variable Volume 1, there is no greater nominal HP.  Use the efficiency of the largest motor category.\n[openstudio.standards.Fan] <0> For Fan Constant Volume 1, there is no greater nominal HP.  Use the efficiency of the largest motor category.\n[openstudio.standards.Fan] <0> For Fan Constant Volume 12, there is no greater nominal HP.  Use the efficiency of the largest motor category.\n[openstudio.standards.Fan] <0> For Fan Constant Volume 13, there is no greater nominal HP.  Use the efficiency of the largest motor category.\n[openstudio.standards.Fan] <0> For Fan Constant Volume 14, there is no greater nominal HP.  Use the efficiency of the largest motor category.\n[openstudio.standards.Fan] <0> For Fan Constant Volume 15, there is no greater nominal HP.  Use the efficiency of the largest motor category.\n[openstudio.standards.Fan] <0> For Fan Constant Volume 16, there is no greater nominal HP.  Use the efficiency of the largest motor category.\n[openstudio.standards.Fan] <0> For Fan Constant Volume 17, there is no greater nominal HP.  Use the efficiency of the largest motor category.\n[openstudio.standards.Fan] <0> For Fan Constant Volume 18, there is no greater nominal HP.  Use the efficiency of the largest motor category.\n[openstudio.standards.CoolingTower] <0> For Cooling Tower Single Speed 1, cannot find heat rejection properties, cannot apply standard efficiencies or curves.\n",
            "step_errors" : [],
            "step_files" : [],
            "step_info" : [
               "Started adding geometry",
               "Finished adding geometry",
               "Intersection of 'Room_1_Flr_6_Wall_East' with 'Room_3_Mult9_Flr_6_Wall_West' results in (Room_1_Flr_6_Wall_East), (Room_3_Mult9_Flr_6_Wall_West),",
               "Intersection of 'Surface 1' with 'Corridor_Flr_6_Wall_2_West' results in (Surface 1), (Corridor_Flr_6_Wall_2_West),",
               "Intersection of 'Corridor_Flr_3_Wall_3_North' with 'Room_4_Mult19_Flr_3_Wall_South' results in (Corridor_Flr_3_Wall_3_North), (Room_4_Mult19_Flr_3_Wall_South),",
               "Intersection of 'Corridor_Flr_3_Wall_1_East' with 'Room_4_Mult19_Flr_3_Wall_West' results in (Corridor_Flr_3_Wall_1_East), (Room_4_Mult19_Flr_3_Wall_West),",
               "Intersection of 'Corridor_Flr_3_Wall_2_East' with 'Room_3_Mult19_Flr_3_Wall_West' results in (Corridor_Flr_3_Wall_2_East), (Room_3_Mult19_Flr_3_Wall_West),",
               "Intersection of 'Corridor_Flr_3_Wall_3_South' with 'Room_3_Mult19_Flr_3_Wall_North' results in (Corridor_Flr_3_Wall_3_South), (Room_3_Mult19_Flr_3_Wall_North),",
               "Intersection of 'Room_3_Mult9_Flr_6_Wall_West' with 'Room_1_Flr_6_Wall_East' results in (Room_3_Mult9_Flr_6_Wall_West), (Room_1_Flr_6_Wall_East),",
               "Intersection of 'Room_3_Mult9_Flr_6_Wall_North' with 'Corridor_Flr_6_Wall_1_South' results in (Room_3_Mult9_Flr_6_Wall_North), (Corridor_Flr_6_Wall_1_South),",
               "Intersection of 'Kitchen_Flr_6_Wall_2_South' with 'Corridor_Flr_6_Wall_4_North' results in (Kitchen_Flr_6_Wall_2_South), (Corridor_Flr_6_Wall_4_North),",
               "Intersection of 'Corridor_Flr_6_Wall_2_West' with 'Surface 1' results in (Corridor_Flr_6_Wall_2_West), (Surface 1),",
               "Intersection of 'Corridor_Flr_6_Wall_1_South' with 'Room_3_Mult9_Flr_6_Wall_North' results in (Corridor_Flr_6_Wall_1_South), (Room_3_Mult9_Flr_6_Wall_North),",
               "Intersection of 'Corridor_Flr_6_Wall_4_North' with 'Kitchen_Flr_6_Wall_2_South' results in (Corridor_Flr_6_Wall_4_North), (Kitchen_Flr_6_Wall_2_South),",
               "Intersection of 'Surface 2' with 'Room_2_Flr_6_Wall_East' results in (Surface 2), (Room_2_Flr_6_Wall_East),",
               "Intersection of 'Surface 6' with 'Dining_Flr_6_Wall_South' results in (Surface 6), (Dining_Flr_6_Wall_South),",
               "Intersection of 'Room_4_Mult19_Flr_3_Wall_West' with 'Corridor_Flr_3_Wall_1_East' results in (Room_4_Mult19_Flr_3_Wall_West), (Corridor_Flr_3_Wall_1_East),",
[...]
05q8WTa7+q3GJpVVdluZCsLit1pkflxcccy+m8uvCoXeVUVasy3cqzfu7ku2qp539e11OY4+lT9etv79S/3/z2Vp2+efvup19+UD+/+eGnY/XjyduTcgKvslVb33qmRVNppJIoTtVkdpXVwUjlkSaJ8pJR1rwEk3EJxeW1NzoPdmavo87LLy6xTmfxRE29ONGvwshL255Z8neyW/ngsfP8sVIXc32L9sB28RLWCX/ebNLLff+ZT/d8sref+PrCm4WpmsZRtobpJx315JuDg+Pjk5MnGw6eIQ5xiEMc4hCHOMQhDnGIQ5w/J45KZlfZP4GVr82DyvfuDFGsfdKQhjSkIQ1pSEMa0pCGNKQhTTHNTf6nWX+gOQ9nmjjEIQ5xiEMc4hCHOMQhDnGIUwfn/nsDHfO9gacz6XsD+07+Dtvz53t7h4ckJSlJSUpSkpKUpCQlKUlJSlKSknQ7SN2c1Esl0l5O2u+77sGQpCQlKUlJSlKSkpSkJCUpSUlKUpJuB2nfkL6KA4HUPcxJHWd/v98nKUlJSlKSkpSkJCUpSUlKUpKSlKTbQbpnSN9dziTSg5z0MDsGL0hKUpKSlKQkJSlJSUpSkpKUpCQl6XaQDgzpv7Qvke7npC9fHh/v75OUpCQlKUlJSlKSkpSkJCUpSUlK0u0gHea/mZhpiXSYkx4fD4ckJSlJSUpSkpKUpCQlKUlJSlKSknRbSPcN6etIShZ0BznpwYHrDgYkJSlJSUpSkpKUpCQlKUlJSlKSkrQx0iWKH3s37bVit900SEN9eulNdTfVt2n7yY/RLE7WY9x9eebL4EpPkiCahDrJFdZIPH2qnvu+8lSupG6C9FIl0ZVWfn/Nmcn1uOtNp3rit1vGu7Wz5oTl0fXSNG63blsdNexVPOkuO8ktf1KS3oV6jrfrTUaXUZyd3wr1RQXahcZFNEl3b3QwvkyNxnkU+uU15vfmdLr7wkt0doNSdXqX7O6pV2G821eno8vdE/Xjr+HoKt2dRHF2C/7zi/rl5PiFeVqqr9Se+vX0P+rNaGSe+2Sn6KZ+/zQZxcE0/Yf4nO+f+sH114fFc2SxTEsF/lFrZCr+OLtIXjDR8Znj9Foqv3RHLT9IpqF39yyYhNnY7nkYjT5915IBM9X5a1Dp3TQ731y9px+9a2/+aOGZ5rj2YlOd6kj5wdU01N2Jvjm9Hrdb33wFsqP2er38P2unm9H1vdTLhN//3gq9cx22nrV8feHNwlRN4+giCHWrMx85u209c7q9TuvaC2d68fPIrErZOdlCc3x8ctL63Cml44J0+iCdPZDOAKQzBOnsg3QOQDqHIB2nhxJCVbSDKmkHVdMOqqgdVFU7qLJ2UHXtoArbQVW2i6psF7ZWoyrbRVW2W6myVTK7ulr5mupSO1qs/Qoy4jWqJiNeoWoy4vWpJiPO+2oy4qyvJiPO+Woy4oyvJiPO92oy8kZWUQdUx/I2VlEHVMnyJlZRB1TL8hZWUQdUzfIGVlEHVM/y9lVRB7Uug+pZ3rsq6pSv55tgklbfts7NQ+V1xMtTUUe8PBV1xMtTUUec7hV1xOleUUec7hV1xOleUUec7hV15P2rqhCqouUdrKoQqqblPayqEKqq5V2sqhCqruV9rKoQqrLlnayqEGytRlW2vJlVFSpf2ffvW6z9XmFpm+ut/ENv/sXDAAt38xb9zVvsbd5isHmL4eYt9jdvcbB5i8PNW6zs7JvyaGB+Ow1McKeBGe40MMWdBua408AkdxqY5U4D09xpYJ67Dcxzt4l9vIF57jYwz91683zt1zeWa6vm3+8IsJDvBsxCvhkwC/lewCzkJRdmIa+4MAt5wYVZyOstzEJebmEWBe9c4zzkt/5wHvK7gjgP+Q1DnEcDU7ygrcJ5NDDJC9oqnEcD07ygrcLtf3JbhfNoYh9vYCMvaKtwHvXm+dpvySrXVs2/RgtgId8NmIV8M2AW8r2AWchLLsxCXnFhFvKCC7OQ11uYhfy3UTCLgrYK5yG3VTgPua3CechtFc5D/hMtnIf8d4k4D/lPFnEe8l8z4jzkP3TEeTQwzwvaKpxHE/t4Axt5QVuF86i3la/9MpJybdX820oAFvLdgFnINwNmId8LmIXcVsEs5LYKZiG3VTALua2CWcjLLcyioK3CechtFc5DbqtwHnJbhfOQ2yqch9xW4TzktgrnIbdVOA+5rcJ5NDDPC9oqnEcT+3gDG3lBW4XzqLeVr818L9dWzUPhARby3YBZyDcDZiHfC5iF3FbBLOS2CmYht1UwC7mtglnIyy3MoqCtwnnIbRXOQ26rcB5yW4XzkNsqnIfcVuE85LYK5yG3VTgPua3CeTQwzwvaKpxHE/t4Axt5QVuF86i3la+N1i3XVs2zdwEW8t2AWcg3A2Yh3wuYhdxWwSzktgpmIbdVMAu5rYJZyMstzKKgrcJ5yG0VzkNuq3AecluF85DbKpyH3FbhPOS2Cucht1U4D7mtwnk0MM8L2iqcRxP7eAMbeUFbhfOot5WvTTAs11bNIw4BFvLdgFnINwNmId8LmIXcVsEs5LYKZiG3VTALua2CWRTlToEsCsPWUB5FaVUoj6IgK5RHUcYVyqMo/grlUZT5hvIoioNDeRQlxaE8ikLkUB4NzPOCtgrn0cQ+3sBGXtBW4TzWb+UfyiS8LsKb1ZGa6JtlgmweHNtOrsedPAF2bVTsMgE60emLaDbxk/ag11GOM+iovvnJHZSLm73NMO6DrX3/2Ev1OIrvnt8GyTxB+f71l4iZzgTexL6O385MoHHpEw3H3SrHa+0ls1jPMUwm8+K6bzjim8Mc5jCHOcxhDnOYwxzmMIc5zGEOc5jDHOYwhznMYQ5zmMMc5jCHOcxhDnOYwxzmMIc5zGEOc5jDHOYwhznMYQ5zmMMc5jCHOcxhDnOYw3+q4btudK3jOPD1a898sNbp9iw/r2o+GpusfjT2VMeBThYfr211lh8gnoZR2g2DiV77Ednka5/TXf/J2qSbf/X8NAq9NIgmGVQrSfV091xfRLFulfvk8896rCf+6guaP9Ye9jqqbz653DMfZDb/aYX6IjVga6SXst2zsU5PJqm5PpnFxWwyyknbO+r3NRJLQn1/9vu1n+U2R3Ch2ullkHST/K6UMzLHg5O62fU78UaX7f8CV1Vb4puPjmfsC92zaZQERvBl9nCZV7M8jMxXqOLophrSEiuY+NrMh12nU/Hs5fGx7okXgQ5NvbUX13Q+T8ZxNJtqX337rfrb4vHb7tmllyw+/24m2M7D0buvjmYXpOuNx6+MRzfUk3F6qb5Xrvqnaj0Pw5Z6tvqMJAxGur3r7LzvfdhZO9++eCVRrNofs5fS+059zGwWpbrwNY/9PVtxqt8gc5gyXui9//ih+0nfqaOjo/nFq6eYqy5u+8eqL3V5nMfa+1Tn5M8Vz6n6fHO9Fq/uyJS1KYZFpeRBDt0zL0mC8UT7xyYiInmfX8kP9S7l8kZPZ8llu+69yG7ps/n9rD+TwvBZmVfZNc+s65KkcfRJl/OZP7euUzT1RkF6V85q8eTaryq3WFrVVVkuJKvLSp3pUXnxMcdyOq8uPGpXOVXVqky38qyfO/muWur5n9f1FOZ4+lT9+ts79e83v71Vp2/evvvplx/Uz29++OlY/Xjy9qScwKts1da3nmnRVBqpJIpTNZldZXUwUnmkSaK8ZJQ1L8FkXEJxee2NzoOd2euo8/KLS6zTWTxRUy9O9Ksw8tK2Z5b8nexWPnjsPH+s1MVc36I9sF28hHXCnzeb9HLff+bTPZ/s7Se+vvBmYaqmcZStYfpJRz355uDg+Pjk5MmGg2eIQxziEIc4xCEOcYhDHOIQ58+Jo5LZVfZPYOVr86DyvTtDFGufNKQhDWlIQxrSkIY0pCENaUhTTHOT/2nWH2jOw5kmDnGIQxziEIc4xCEOcYhDHOLUwbn/3kDHfG/g6Uz63sC+k7/D9vz53t7hIUlJSlKSkpSkJCUpSUlKUpKSlKQk3Q5SNyf1Uom0l5P2+657MCQpSUlKUpKSlKQkJSlJSUpSkpKUpNtB2jekr+JAIHUPc1LH2d/v90lKUpKSlKQkJSlJSUpSkpKUpCQl6XaQ7hnSd5czifQgJz3MjsELkpKUpCQlKUlJSlKSkpSkJCUpSUm6HaQDQ/ov7Uuk+znpy5fHx/v7JCUpSUlKUpKSlKQkJSlJSUpSkpJ0O0iH+W8mZloiHeakx8fDIUlJSlKSkpSkJCUpSUlKUpKSlKQk3RbSfUP6OpKSBd1BTnpw4LqDAUlJSlKSkpSkJCUpSUlKUpKSlKQkbYx0ieLH3k17rdhtNw3SUJ9eelPdTfVt2n7yYzSLk/UYd1+e+TK40pMkiCahTnKFNRJPn6rnvq88lSupmyC9VEl0pZXfX3Nmcj3uetOpnvjtlvFu7aw5YXl0vTSN263bVkcNexVPustOcsuflKR3oZ7j7XqT0WUUZ+e3Qn1RgXahcRFN0t0bHYwvU6NxHoV+eY35vTmd7h5HcRz4UXz2KozPhur0Ltntq+zn3T11OrrcPVE//hqOrtLdJJplN+I/v6hfTo5fmKel+kr11a+n/1FvRiPz3Cc7Rbf2+6fJKA6m6T/E53z/1A+uvz4sniOLZVoq8I9aI1P3x9ml8oKJjs8cx2mp/AIetfwgmYbe3bNgEmZju+dhNPr0XUsGzFTnr0Gld9PsfHMNn370rr35o4VnmuPai02NqiPlB1fTUHcn+ub0etxuffMVyI7a6/Xy/6yddEbX91IvE37/eyv0znXYetby9YU3C1M1jaOLINStznzk7Lb1zOn2Oq1rL5zpxc8jszZl52TLzfHxyUnrc6eUjgvS6YN09kA6A5DOEKSzD9I5AOkcgnScHkoIVdEOqqQdVE07qKJ2UFXtoMraQdW1gypsB1XZLqqyXdhajapsF1XZbqXKVsns6mrly6pL7Wix9ivIiNeomox4harJiNenmow476vJiLO+mow456vJiDO+mow436vJyBtZRR1QHcvbWEUdUCXLm1hFHVAty1tYRR1QNcsbWEUdUD3L21dFHdS6DKpnee+qqFO+nm+CSVp92zo3D5XXES9PRR3x8lTUES9PRR1xulfUEad7RR1xulfUEad7RR1xulfUkfevqkKoipZ3sKpCqJqW97CqQqiqlnexqkKoupb3sapCqMqWd7KqQrC1GlXZ8mZWVah8Zd+/e7H224Wlba638g+9+dcPAyzkf93CLPqbfxV7m7cYbN5iuHmL/c1bHGze4nDzFis7+6Y8GpjfBb+YxXnIv9nCeci/9MJ5yL/pxXnIvwTGeci/H8Z5yL86xnnIv1XG7X/yL5xxHvLvonEeDczzgt9g4zzqbeVrv8Sx3Nu48295BFjIdwNmIbdVMAv5XsAs5LYKZiG3VTALua2CWchtFcxCbqtgFgVtFc6jgfld0FbhPOTlFucht1U4D7mtwnnIbRXOQ26rcB5yW4XzkNsq3P4nt1U4jyb28QbmeUFbhfOoN8/XfldWubZq/mVaAAtX3D1gFnJbBbOQ2yqYhdxWwSzktgpmIbdVMAu5rYJZyG0VzKKgrcJ5NDC/C9oqnIe83OI85OUW5yG3VTgPua3CechtFc5DbqtwHnJbhdv/5LYK59HEPt7APC9oq3Ae9eb52q8kKddWzb+zBGAht1UwC7mtglnIbRXMQm6rYBZyWwWzkNsqmIXcVsEs5LYKZlHQVuE8GpjfBW0VzkNebnEe8nKL85DbKpyH3FbhPOS2Cucht1U4D7mtwu1/cluF82hiH29gnhe0VTiPevN8bfJ7ubZqHg0PsJDbKpiF3FbBLOS2CmYht1UwC7mtglnIbRXMQm6rYBZyWwWzKGircB4NzO+CtgrnIS+3OA95ucV5yG0VzkNuq3AecluF85DbKpyH3Fbh9j+5rcJ5NLGPNzDPC9oqnEe9eb42YLdcWzVP4AVYyG0VzEJuq2AWclsFs5DbKpiF3FbBLOS2CmYht1UwC7mtglkUtFU4jwbmd0FbhfOQl1uch7zc4jzktgrnIbdVOA+5rcJ5yG0VzkNuq3D7n9xW4Tya2McbmOcFbRXOo948X5tjWK6tmgcdAizktgpmIbdVMAu5rYJZyG0VzEJuq2AWclsFs5DbKpiF3FbBLAraKpxHA/O7MKIN5VGUcYXyKIq/QnkUZb6hPIri4FAeRUlxKI+iEDmUR1G+HGr/K4qeQ3k0sY83MM8Ls+xQHuvn+YcyCa+LCGd1pCb6ZpkgmwfHtpPrcSdPgF0bFbvMgU50+iKaTfykPeh1lOMMOqpvfnIH5eJmbzOM+3hr3z/2Uj2O4rvnt0Eyz1G+f/0lwqYzgTexr+O3MxNrXPpEw3G3yvFae8ks1nMMk8y8uO4bDvrmMIc5zGEOc5jDHOYwhznMYQ5zmMMc5jCHOcxhDnOYwxzmMIc5zGEOc5jDHOYwhznMYQ5zmMMc5jCHOcxhDnOYwxzmMIc5zGEOc5jDHObwn2r4rhtd6zgOfP3aMx+sdbo9y8+rmo/GJqsfjT3VcaCTxcdrW53lB4inYZR2w2Ci135ENvna53TXf7I26eZfPT+NQi8NokkG1UpSPd091xdRrFvlPvn8sx7rib/6guaPtYe9juqbTy73zAeZzX9aob5IDdga6aVs92ys05NJaq5PZnExm4xy0vaO+n2NxJJQ35/9fu1nuc0RXKh2ehkk3SS/K+WMzPHgpG52/U680WX7v8BV1Zb45qPjGftC92waJYERfJk9XObVLA8j8xWqOLqphrTECia+NvNh1+lUPHt5fKx74kWgQ1Nv7cU1nc+TcRzNptpX336r/rZ4/LZ7dukli8+/mwm283D07quj2QXpeuPxK+PRDfVknF6q75Wr/qlaz8OwpZ6tPiMJg5Fu7zo773sfdtbOty9eSRSr9sfspfS+Ux8zm0WpLnzNY3/PVpzqN8gcpowXeu8/fuh+0nfq6OhofvHqKeaqi9v+sepLXR7nsfY+1Tn5c8Vzqj7fXK/FqzsyZW2KYVEpeZBD98xLkmA80f6xiYhI3udX8kO9S7m80dNZctmuey+yW/psfj/rz6QwfFbmVXbNM+u6JGkcfdLlfObPresUTb1RkN6Vs1o8ufaryi2WVnVVlgvJ6rJSZ3pUXnzMsZzOqwuP2lVOVbUq06086+dOvquWev7ndT2FOZ4+Vb/+9k79+81vb9Xpm7fvfvrlB/Xzmx9+OlY/nrw9KSfwKlu19a1nWjSVRiqJ4lRNZldZHYxUHmmSKC8ZZc1LMBmXUFxee6PzYGf2Ouq8/OIS63QWT9TUixP9Koy8tO2ZJX8nu5UPHjvPHyt1Mde3aA9sFy9hnfDnzSa93Pef+XTPJ3v7ia8vvFmYqmkcZWuYftJRT745ODg+Pjl5suHgGeIQhzjEIQ5xiEMc4hCHOMT5c+KoZHaV/RNY+do8qHzvzhDF2icNaUhDGtKQhjSkIQ1pSEMa0hTT3OR/mvUHmvNwpolDHOIQhzjEIQ5xiEMc4hCHOHVw7r830DHfG3g6k743sO/k77A9f763d3hIUpKSlKQkJSlJSUpSkpKUpCQlKUm3g9TNSb1UIu3lpP2+6x4MSUpSkpKUpCQlKUlJSlKSkpSkJCXpdpD2DemrOBBI3cOc1HH29/t9kpKUpCQlKUlJSlKSkpSkJCUpSUm6HaR7hvTd5UwiPchJD7Nj8IKkJCUpSUlKUpKSlKQkJSlJSUpSkm4H6cCQ/kv7Eul+Tvry5fHx/j5JSUpSkpKUpCQlKUlJSlKSkpSkJN0O0mH+m4mZlkiHOenx8XBIUpKSlKQkJSlJSUpSkpKUpCQlKUm3hXTfkL6OpGRBd5CTHhy47mBAUpKSlKQkJSlJSUpSkpKUpCQlKUkbI12i+LF3014rdttNgzTUp5feVHdTfZu2n/wYzeJkPcbdl2e+DK70JAmiSaiTXGGNxNOn6rnvK0/lSuomSC9VEl1p5ffXnJlcj7vedKonfrtlvFs7a05YHl0vTeN267bVUcNexZPuspPc8icl6V2o53i73mR0GcXZ+a1QX1SgXWhcRJN090YH48vUaJxHoV9eY35vTqe7L4NJMBmfvQrjs6E6vUt2+yr7eXdPnY4ud1+oH38NR1fp7iSKs9vwn1/ULyfHL8zTUn2l+urX0/+oN6ORee6TnaIb+/3TZBQH0/Qf4nO+f+oH118fFs+RxTItFfhHrZGp+uPsQnnBRMdnjuO2VH75jlp+kExD7+5ZMAmzsd3zMBp9+q4lA2aq89eg0rtpdr65gk8/etfe/NHCM81x7cWmQtWR8oOraai7E31zej1ut775CmRH7fV6+X/WTjmj63uplwm//70Veuc6bD1r+frCm4WpmsbRRRDqVmc+cnbbeuZ0e53WtRfO9OLnkVmZsnOyxeb4+OSk9blTSscF6fRBOnsgnQFIZwjS2QfpHIB0DkE6Tg8lhKpoB1XSDqqmHVRRO6iqdlBl7aDq2kEVtoOqbBdV2S5srUZVtouqbLdSZatkdnW18lXVpXa0WPsVZMRrVE1GvELVZMTrU01GnPfVZMRZX01GnPPVZMQZX01GnO/VZOSNrKIOqI7lbayiDqiS5U2sog6oluUtrKIOqJrlDayiDqie5e2rog5qXQbVs7x3VdQpX883wSStvm2dm4fK64iXp6KOeHkq6oiXp6KOON0r6ojTvaKOON0r6ojTvaKOON0r6sj7V1UhVEXLO1hVIVRNy3tYVSFUVcu7WFUhVF3L+1hVIVRlyztZVSHYWo2qbHkzqypUvrLv37tY+93C0jbXW/mH3vzLhwEW8r9uYRb9zb+Kvc1bDDZvMdy8xf7mLQ42b3G4eYuVnX1THg3M74JfzOI85N9s4TzkX3rhPOTf9OI85F8C4zzk3w/jPORfHeM85N8q4/Y/+RfOOA/5d9E4jwbmecFvsHEe9bbytV/hWO5t3Pl3PAIs5LsBs5DbKpiFfC9gFnJbBbOQ2yqYhdxWwSzktgpmIbdVMIuCtgrn0cD8LmircB7ycovzkNsqnIfcVuE85LYK5yG3VTgPua3CechtFW7/k9sqnEcT+3gD87ygrcJ51Jvna78pq1xbNf8qLYCFK+4eMAu5rYJZyG0VzEJuq2AWclsFs5DbKpiF3FbBLOS2CmZR0FbhPBqY3wVtFc5DXm5xHvJyi/OQ2yqch9xW4TzktgrnIbdVOA+5rcLtf3JbhfNoYh9vYJ4XtFU4j3rzfO0XkpRrq+bfWAKwkNsqmIXcVsEs5LYKZiG3VTALua2CWchtFcxCbqtgFnJbBbMoaKtwHg3M74K2CuchL7c4D3m5xXnIbRXOQ26rcB5yW4XzkNsqnIfcVuH2P7mtwnk0sY83MM8L2iqcR715vjb3vVxbNQ+GB1jIbRXMQm6rYBZyWwWzkNsqmIXcVsEs5LYKZiG3VTALua2CWRS0VTiPBuZ3QVuF85CXW5yHvNziPOS2Cucht1U4D7mtwnnIbRXOQ26rcPuf3FbhPJrYxxuY5wVtFc6j3jxfG69brq2a5+8CLOS2CmYht1UwC7mtglnIbRXMQm6rYBZyWwWzkNsqmIXcVsEsCtoqnEcD87ugrcJ5yMstzkNebnEecluF85DbKpyH3FbhPOS2Cucht1W4/U9uq3AeTezjDczzgrYK51Fvnq9NMSzXVs1jDgEWclsFs5DbKpiF3FbBLOS2CmYht1UwC7mtglnIbRXMQm6rYBYFbRXOo4H5XRjRhvIoyrhCeRTFX6E8ijLfUB5FcXAoj6KkOJRHUYgcyqMoXw61/xVFz6E8mtjHG5jnhVl2KI/18/xDmYTXRYCzOlITfbNMkM2DY9vJ9biTJ8CujYpdpkAnOn0RzSZ+0h70OspxBh3VNz+5g3Jxs7cZxn24te8fe6keR/Hd89sgmaco37/+ElHTmcCb2Nfx25kJNS59ouG4W+V4rb1kFus5hsllXlz3Dcd8c5jDHOYwhznMYQ5zmMMc5jCHOcxhDnOYwxzmMIc5zGEOc5jDHOYwhznMYQ5zmMMc5jCHOcxhDnOYwxzmMIc5zGEOc5jDHOYwhznMYQ5z+E81fNeNrnUcB75+7ZkP1jrdnuXnVc1HY5PVj8ae6jjQyeLjta3O8gPE0zBKu2Ew0Ws/Ipt87XO66z9Zm3Tzr56fRqGXBtEkg2olqZ7unuuLKNatcp98/lmP9cRffUHzx9rDXkf1zSeXe+aDzOY/rVBfpAZsjfRStns21unJJDXXJ7O4mE1GOWl7R/2+RmJJqO/Pfr/2s9zmCC5UO70Mkm6S35VyRuZ4cFI3u34n3uiy/V/gqmpLfPPR8Yx9oXs2jZLACL7MHi7zapaHkfkKVRzdVENaYgUTX5v5sOt0Kp69PD7WPfEi0KGpt/bims7nyTiOZlPtq2+/VX9bPH7bPbv0ksXn380E23k4evfV0eyCdL3x+JXx6IZ6Mk4v1ffKVf9Uredh2FLPVp+RhMFIt3ednfe9Dztr59sXrySKVftj9lJ636mPmc2iVBe+5rG/ZytO9RtkDlPGC733Hz90P+k7dXR0NL949RRz1cVt/1j1pS6P81h7n+qc/LniOVWfb67X4tUdmbI2xbColDzIoXvmJUkwnmj/2EREJO/zK/mh3qVc3ujpLLls170X2S19Nr+f9WdSGD4r8yq75pl1XZI0jj7pcj7z59Z1iqbeKEjvylktnlz7VeUWS6u6KsuFZHVZqTM9Ki8+5lhO59WFR+0qp6palelWnvVzJ99VSz3/87qewhxPn6pff3un/v3mt7fq9M3bdz/98oP6+c0PPx2rH0/enpQTeJWt2vrWMy2aSiOVRHGqJrOrrA5GKo80SZSXjLLmJZiMSygur73RebAzex11Xn5xiXU6iydq6sWJfhVGXtr2zJK/k93KB4+d54+VupjrW7QHtouXsE7482aTXu77z3y655O9/cTXF94sTNU0jrI1TD/pqCffHBwcH5+cPNlw8AxxiEMc4hCHOMQhDnGIQxzi/DlxVDK7yv4JrHxtHlS+d2eIYu2ThjSkIQ1pSEMa0pCGNKQhDWmKaW7yP836A815ONPEIQ5xiEMc4hCHOMQhDnGIQ5w6OPffG+iY7w08nUnfG9h38nfYnj/f2zs8JClJSUpSkpKUpCQlKUlJSlKSkpSk20Hq5qReKpH2ctJ+33UPhiQlKUlJSlKSkpSkJCUpSUlKUpKSdDtI+4b0VRwIpO5hTuo4+/v9PklJSlKSkpSkJCUpSUlKUpKSlKQk3Q7SPUP67nImkR7kpIfZMXhBUpKSlKQkJSlJSUpSkpKUpCQlKUm3g3RgSP+lfYl0Pyd9+fL4eH+fpCQlKUlJSlKSkpSkJCUpSUlKUpJuB+kw/83ETEukw5z0+Hg4JClJSUpSkpKUpCQlKUlJSlKSkpSk20K6b0hfR1KyoDvISQ8OXHcwIClJSUpSkpKUpCQlKUlJSlKSkpSkjZEuUfzYu2mvFbvtpkEa6tNLb6q7qb5N209+jGZxsh7j7sszXwZXepIE0STUSa6wRuLpU/Xc95WnciV1E6SXKomutPL7a85MrsddbzrVE7/dMt6tnTUnLI+ul6Zxu3Xb6qhhr+JJd9lJbvmTkvQu1HO8XW8yuozi7PxWqC8q0C40LqJJunujg/FlajTOo9AvrzG/N6fT3f8vSEeXenL2KozPhur0Ltntq+zn3T11OrrcfaF+/DUcXaW72ktS9Z9f1C8nxy/Ms1J9pfrq19P/qDejkXnqk52iG/v902QUB9P0H+Jzvn/qB9dfHxbPkcUyLRX4R62Rqfrj7EJ5wUTHZ47Tb6n88h21/CCZht7ds2ASZmO752E0+vRdSwbMVOevQaV30+x8cwWffvSuvfmjhWea49qLTYWqI+UHV9NQdyf65vR63G598xXIjtrr9fL/rJ1yRtf3Ui8Tfv97K/TOddh61vL1hTcLUzWNo4sg1K3OfOTstvXM6fY6rWsvnOnWs8Gg2z98cPQHndbILFSZRLb2HB+fnLQ+d0rJupuR7W9Gdm8zsoPNyA43I7u/GdmDzcgebkbW6W1Id0PzzNnQRHM2NNOcDU01Z0NzzdnQZHM2NNucDU03Z0Pzzd3QfHM3ta9taL65G5pvrs18U8ns6mrlK8HrdA6x9iuolr2+1VTLXt1qqmWvbTXVsitZNdWy61g11bKrWDXVsmtYNdWyK1g11dINQ0XZzcyu0u1CRdnNzK/SzUJF2c3MsNKtQkXZzcyx0o1CRdnNzLLSbUJF2Q3tYZuZZaV7hIqytWfZTTBJrduDc/OM8rJlL21F2bKXtqJs2UtbUbbsAlZRtuwCVlG27AJWUbbsAlZRtuwCVlG2dJ9QVXdD86x0p1BVd0MzrXSvUFV3Q3OtdLdQVXdDs610v1BVd0PzrXTHUFV3U/vahuZb6aahqm61+fahzBsXi/cl1ZGa6JvlGyP5+yHt5Hrcyd/YWPsOyPLNzUSnL6LZxE/ag15HOc6go/rmJ3dQ7l2U2wzj/j1b3z/2Uj2O4rvnt0Eyf3Pw/lqUeAc1E3gT+zp+OzPv1ZU+0XDcrXK81l4yi/Ucw7zduLgHtu8J529IrVqd6jjQyQI3c1rckGkYpV3zLtlay+Rrr3s9adLNC28ahV4aRJMMqpWkerp7ri+iWLfKVdLPeqwn/uoLmj/WHmZV0DeVYN5Uc8x/Fm+5rn03einbPRvr9GSSmuuTWVzMJqOctL2jfi/xnqsh1Pdnv187N8wRXKh2ehkkWV2b88oZmePBSd3s+p14o8v2f4Grqi3xF+8xLnTPplESGMGX2cNlXs3yMDJfoYqjm2pIS6xg4mszcXedTsWzl8fHuideBDo09dZeXNP5PBnH0WyqffXtt+pvi8dvu2eXXrJYT8wE23k4evfV0eyCdL3x+JXx6IZ6Mk4v1ffKVf9Uredh2FLPVp+RhMFIt3ednfe9Dztr59sXrySKVftj9lJ636mPmc2iVBe+5rG/Hymn+g0yhynjhd77jx+6n3S2vB0dzS9ePcVcdXHbP1Z9qcvjPNbepzonf654TtXnm+u1eHVHpqxNMSwqJd8Yu2fzvyfSfv4XRcn7/Ep+qHcplzd6Oksu23XvRXZLn83vZ/2ZFIbPyrzKrnlmXZckjaNPupzP/Ll1naKpNwrSu3JWiyfXflW5xdKqrspyIVldVupMj8qLjzmW03l14VG7yqmqVmW6lWf93Ml31VLP/7yupzDH06fq19/eqX+/+e2tOn3z9t1Pv/ygfn7zw0/H6seTtyflBF5lq7a+9UyLptJIJVHWSE9mV1kdjFTeIibKS0ZZ8xJMxiUUl9fe6DzYmb2OOi+/uMQ6ncUTNfXiRL8KIy9te2bJ38lu5YPHzvPHSl3M9S3aA9vFS1gn/Pl/8Heff3jHdvHHneYN2P/Jn6EShzjEIQ5xiEMc4hCHOMQhztbjfPmXL4Yo1j5pSEMa0pCGNKQhDWlIQxrSkKaY5ou/CTQ05k/8iEMc4hCHOMQhDnGIQxziEIc4/8O0xXf6aqpjL53FWrVf7TBv8XHlLc6m0/BOPQ9iZW7UlmQm7m1DZuJeY5mJ+c91w5lAOn2Qzh5IZwDSGYJ09kE6ByCdQ5DOSqaAlRCqoh1USTuomnZQRe2gqtpBlbWDqmsHVdgOqrJdVGW7sLUaVdkuqrLdSpVdPstvRap+eJ+FjHiF6sfzWciI875+AJ+FjDjn60fsWciI890iRM9GB1TH8jZmkYtnowMqZXkPs4i6s9EBVbO8gVmk19msg6B6lncvi0A6Gx1QPctbV/2MuRUZi1A5Gx3x8ljExtnoiNPdIhjORkec7hbRbzY64nS3CXezEkJVtLyD2eS1WQmhilrexGwi2KyEUHUt72M2qWpWKyOqsuWtzCYozUoIVdnybvaF0P33PTnm+55OZ9L3PfWdcr9vfP58b+/wEGAh/+sWZiH/uxdmIf+LGGYh/xYIZiH/fghmIf/mCGYh/04JZiH/tglmUfArVpxHA/O74BezOI8GZnjBr3NxHg3M8YJfAuM8GpjlBb86xnk0MM8LfuGM82hiH29gnhf8BhvnUW+eu7mHl0oevXJtVb/vugdDgIV8N2AW8s2AWcj3AmYhL7kwC3nFhVnICy7MQl5vYRbycguzKGircB4NzO+Ctgrn0cAML2ircB4NzPGCtgrn0cAsL2ircB4NzPOCtgrn0cQ+3sA8L2ircB715nnfeLyKA+nbyQ/LtVWOs7/f7wMs5LsBs5BvBsxCvhcwC3nJhVnIKy7MQl5wYRbyeguzkJdbmEVBW4XzaGB+F7RVOI8GZnhBW4XzaGCOF7RVOI8GZnlBW4XzaGCeF7RVOI8m9vEG5nlBW4XzqDfP94zHu8uZ5HFQrq0y37g0eAGwkO8GzEK+GTAL+V7ALOQlF2Yhr7gwC3nBhVnI6y3MQl5uYRYFbRXOo4H5XdBW4TwamOEFbRXOo4E5XtBW4TwamOUFbRXOo4F5XtBW4Tya2McbmOcFbRXOo948HxiPf2lf8tgv11a9fHl8vL8PsJDvBsxCvhkwC/lewCzkJRdmIa+4MAt5wYVZyOstzEJebmEWBW0VzqOB+V3QVuE8GpjhBW0VzqOBOV7QVuE8GpjlBW0VzqOBeV7QVuE8mtjHG5jnBW0VzqPePB/mrdtMSx7Dcm3V8fFwCLGQ7wbMQr4ZMAv5XsAs5CUXZiGvuDALecGFWcjrLcxCXm5hFgVtFc6jgfld0FbhPBqY4QVtFc6jgTle0FbhPBqY5QVtFc6jgXle0FbhPJrYxxuY5wVtFc6j3jzfNx6vI+nP4t1Bubbq4MB1BwOARVHODciiKAEHZFGUjQOyKMqDAlkUJUWBLIoypEAWRelSIIui3CmQRWHYGsqjgfldGNGG8mhghhcGu6E8GpjjhXFwKI8GZnlhiBzKo4F5Xhg9h/JoYh9vYJ4XZtmhPNbP8w9lEl4XMczqSE30zTJBNg+ObSfX406eALs2KnaZ5Zzo9EU0m/hJe9DrKMcZdFTf/OQOysXN3mYY9znUvn/spXocxXfPb4NknoR8//pLBEZnAm9iX8dvZyaYuPSJhuNuleO19pJZrOcYJlt5cd03nMjNYQ5zmMMc5jCHOcxhDnOYwxzmMIc5zGEOc5jDHOYwhznMYQ5zmMMc5jCHOcxhDnOYwxzmMIc5zGEOc5jDHOYwhznMYQ5zmMMc5jCHOczhP9XwXTe61nEc+Pq1Zz5Y63R7lp9XNR+NTVY/Gnuq40Ani4/XtjrLDxBPwyjthsFEr/2IbPK1z+mu/2Rt0s2/en4ahV4aRJMMqpWkerp7ri+iWLfKffL5Zz3WE3/1Bc0faw97HdU3n1zumQ8ym/+0Qn2RGrA10kvZ7tlYpyeT1FyfzOJiNhnlpO0d9fsaiSWhvj/7/drPcpsjuFDt9DJIukl+V8oZmePBSd3s+p14o8v2f4Grqi3xzUfHM/aF7tk0SgIj+DJ7uMyrWR5G5itUcXRTDWmJFUx8bebDrtOpePby+Fj3xItAh6be2otrOp8n4ziaTbWvvv1W/W3x+G337NJLFp9/NxNs5+Ho3VdHswvS9cbjV8ajG+rJOL1U3ytX/VO1nodhSz1bfUYSBiPd3nV23vc+7Kydb1+8kihW7Y/ZS+l9pz5mNotSXfiax/6erTjVb5A5TBkv9N5//ND9pO/U0dHR/OLVU8xVF7f9Y9WXujzOY+19qnPy54rnVH2+uV6LV3dkytoUw6JS8iCH7pmXJMF4ov1jExGRvM+v5Id6l3J5o6ez5LJd915kt/TZ/H7Wn0lh+KzMq+yaZ9Z1SdI4+qTL+cyfW9cpmnqjIL0rZ7V4cu1XlVssreqqLBeS1WWlzvSovPiYYzmdVxcetaucqmpVplt51s+dfFct9fzP63oKczx9qn797Z3695vf3qrTN2/f/fTLD+rnNz/8dKx+PHl7Uk7gVbZq61vPtGgqjVQSxamazK6yOhipPNIkUV4yypqXYDIuobi89kbnwc7sddR5+cUl1uksnqipFyf6VRh5adszS/5OdisfPHaeP1bqYq5v0R7YLl7COuHPm016ue8/8+meT/b2E19feLMwVdM4ytYw/aSjnnxzcHB8fHLyZMPBM8QhDnGIQxziEIc4xCEOcYjz58RRyewq+yew8rV5UPnenSGKtU8a0pCGNKQhDWlIQxrSkIY0pCmmucn/NOsPNOfhTBOHOMQhDnGIQxziEIc4xCEOcerg3H9voGO+N/B0Jn1vYN/J32F7/nxv7/CQpCQlKUlJSlKSkpSkJCUpSUlKUpJuB6mbk3qpRNrLSft91z0YkpSkJCUpSUlKUpKSlKQkJSlJSUrS7SDtG9JXcSCQuoc5qePs7/f7JCUpSUlKUpKSlKQkJSlJSUpSkpJ0O0j3DOm7y5lEepCTHmbH4AVJSUpSkpKUpCQlKUlJSlKSkpSkJN0O0oEh/Zf2JdL9nPTly+Pj/X2SkpSkJCUpSUlKUpKSlKQkJSlJSbodpMP8NxMzLZEOc9Lj4+GQpCQlKUlJSlKSkpSkJCUpSUlKUpJuC+m+IX0dScmC7iAnPThw3cGApCQlKUlJSlKSkpSkJCUpSUlKUpI2RrpE8WPvpr1W7LabBmmoTy+9qe6m+jZtP/kxmsXJeoy7L898GVzpSRJEk1AnucIaiadP1XPfV57KldRNkF6qJLrSyu+vOTO5Hne96VRP/HbLeLd21pywPLpemsbt1m2ro4a9iifdZSe55U9K0rtQz/F2vcnoMoqz81uhvqhAu9C4iCbp7o0Oxpep0TiPQr+8xvze/J/n/2d+gd/qS+2l6s1opE5Hl092im7S90+TURxM03+Iz/n+qR9cf31YPEcWy7RU4B+1RqaCj7MX7QUTHZ85zqCl8ktx1PKDZBp6d8+CSZiN7Z6H0ejTdy0ZMFOdvwaV3k2z883VePrRu/bmjxaeaY5rLzbVpo6UH1xNQ92d6JvT63G79c1XIDtqr9fL/7N2+hhd30u9TPj9763QO9dh61nL1xfeLEzVNI4uglC3OvORs9vWM6fb67SuvXCmW8+Gh93DB8fBYac1MmtOppAtI8fHJyetz51Squ5GVPsbUd3biOpgI6rDjajub0T1YCOqhxtRdXqbkd3M7HI2M72czcwvZzMTzNnMDHM2M8WczcwxZzOTzNnMLHM3M8vcDe1hm5ll7mZmmWsxy1Qyu7pa+RrvGh1CrP0KoiWvbTXRkle2mmjJ61pNtOTaVU205MpVTbTkulVNtOSqVU205JpVTbRsY1BRdSNzqmxbUFF1I7OqbFNQUXUj86psS1BRdSMzq2xDUFF1I3OrbDtQUXUz+9VG5lbZXqCiat25dRNMUts24Nw8obxqyctaUbXkZa2oWvKyVlQtuWRVVC25ZFVULblkVVQtuWRVVC25ZFVULdsPVJXdzOwq2xFUld3M/CrbE1SV3cwMK9sVVJXdzBwr2xdUld3MLCvbGVSV3dAetplZVrY5qCpbaZZ9KPOGw+K9QXWkJvpm+YZG/j5GO7ked/I3JNa+c7F8gzHR6YtoNvGT9qDXUY4z6Ki++ckdlHv34zbDuH/f1PePvVSPo/ju+W2QzN+gu78UJd7FzATexL6O387M+2WlTzQcd6scr7WXzGI9xzBv+S1uge37svkbSatWpzoOdLLAzZwWN2QaRmnXvLu11jL52uteT5p087qbRqGXBtEkg2olqZ7unuuLKNatcpX0sx7rib/6guaPtYdZFfRNJZg3wxzzn8XbnmvfEV7Kds/GOj2ZpOb6ZBYXs8koJ23vqN9LvO9pCPX92e/Xzg1zBBeqnV4GSVbX5rxyRuZ4cFI3u34n3uiy/V/gqmpL/MV7gwvds2mUBEbwZfZwmVezPIzMV6ji6KYa0hIrmPjaTNxdp1Px7OXxse6JF4EOTb21F9d0Pk/GcTSbal99+6362+Lx2+7ZpZcs1hMzwXYejt59dTS7IF1vPH5lPLqhnozTS/W9ctU/Vet5GLbUs9VnJGEw0u1dZ+d978PO2vn2xSuJYtX+mL2U3nfqY2azKNWFr3ns70fKqX6DzGHKeKH3/uOH7iedLW9HR/OLV08xV13c9o9VX+ryOI+196nOyZ8rnlP1+eZ6LV7dkSlrUwyLSsk3xu7Z/G96tJ//VU/yPr+SH+pdyuWNns6Sy3bde5Hd0mfz+1l/JoXhszKvsmueWdclSePoky7nM39uXado6o2C9K6c1eLJtV9VbrG0qquyXEhWl5U606Py4mOO5XReXXjUrnKqqlWZbuVZP3fyXbXU8z+v6ynM8fSp+vW3d+rfb357q07fvH330y8/qJ/f/PDTsfrx5O1JOYFX2aqtbz3Toqk0UkmUNdKT2VVWByOVt4iJ8pJR1rwEk3EJxeW1NzoPdmavo87LLy6xTmfxRE29ONGvwshL255Z8neyW/ngsfP8sVIXc32L9sB28RLWCX/+H/zt5R/egF38gaV5Q/V/8qegxCEOcYhDHOIQhzjEIQ5xiLP1OF/+gYshirVPGtKQhjSkIQ1pSEMa0pCGNKQppvniTwINjfkTP+IQhzjEIQ5xiEMc4hCHOMQhzv8w8fCdvprq2EtnsVbtVzvMPHxUmYf/8kzF/ajz/3l+dR7oSarMLTPJh9qfZdd/V+33Xm1JCOJwG0IQh42FIOYfPa0bwgTS6YN09kA6A5DOEKSzD9I5AOkcgnRW0gWshFAV7aBK2kHVtIMqagdV1Q6qrB1UXTuownZQle2iKtuFrdWoynZRle1WquzyoX0rUvVj+ixkxCtUP4rPQkac9/Xj9ixkxDlfP1LPQkac7xaxeTY6oDqWtzGLMDwbHVApy3uYRcSdjQ6omuUNzCK4zmYdBNWzvHtZxNHZ6IDqWd666ofMrchYxMrZ6IiXxyI6zkZHnO4W8XA2OuJ0t4iAs9ERp7tNzJuVEKqi5R3MJrzNSghV1PImZhPJZiWEqmt5H7MJWrNaGVGVLW9lNvFpVkKoypZ3M4aibUUoGoc5zGEOc5jDHOYwhznMYQ5zmMMc5jCHH9PwXTe61nEc+Pq1Z35R5XR7DMV/8EoYin9/MBS/0sFQfIbiVzgYiv/Hg6H4fzwYil/xYCg+Q/G/ejAUnzjEIQ5xiEMc4hCHOMQhDnGIsw2RkqQhDWlIQxrSkIY0pCENaUizPTR/mShL4hCHOMQhDnGIQxziEIc4xKnv9z8IxX8ZXOlJEkSTUCcJI/EfVyR+FH9SJxcXwSjQk9HdfRB+sxH4i2f/YeTh/1/+PP/fe/XFD/f/cx75d+Z/L9Or8B//z/8PoXa1kg=="
               },
               {
                  "name" : "annual_peak_electric_demand",
                  "units" : "kW",
                  "value" : 233.51503
               },
               {
                  "name" : "first_year_capital_cost",
                  "units" : "$",
                  "value" : 0
               },
               {
                  "name" : "annual_utility_cost",
                  "units" : "$",
                  "value" : 0
               },
               {
                  "name" : "total_lifecycle_cost",
                  "units" : "$",
                  "value" : 0
               }
            ],
            "step_warnings" : []
         }
      }
   ],
   "updated_at" : "20170710T190615Z",
   "weather_file" : "USA_CO_Denver.Intl.AP.725650_TMY3.epw"
}
