{
   "completed_at" : "20170710T193544Z",
   "completed_status" : "Success",
   "created_at" : "2017-07-10 19:30:59 +0000",
   "current_step" : 5,
   "description" : "",
   "eplusout_err" : "Program Version,EnergyPlus, Version 8.7.0-78a111df4a, YMD=2017.07.10 19:32,IDD_Version 8.7.0\n   ************* IDF Context for following error/warning message:\n   ************* Note -- lines truncated at 300 characters, if necessary...\n   *************      5 Building,\n   ************* indicated Name=NECB 2011-MidriseApartment-NECB HDD Method-CAN_NB_Fredericton.717000_CWEC.epw created: 2017-07-10 19:31:06 +0000\n   ************* Only last 1 lines before error line shown.....\n   *************      6   NECB 2011-MidriseApartment-NECB HDD Method-CAN_NB_Fredericton.717000_CWEC.epw created: 2017-07-10 19:31:06 +0000, !- Name\n   ** Warning ** IP: IDF line~6 Alpha Argument length exceeds maximum, will be truncated=  NECB 2011-MidriseApartment-NECB HDD Method-CAN_NB_Fredericton.717000_CWEC.epw created: 2017-07-10 19:31:06 +000\n   **   ~~~   ** Will be processed as Alpha=NECB 2011-MIDRISEAPARTMENT-NECB HDD METHOD-CAN_NB_FREDERICTON.717000_CWEC.EPW CREATED: 2017-07-10 19:31:06 +0000\n   ************* Beginning Zone Sizing Calculations\n   ** Warning ** ProcessScheduleInput: Schedule:Day:Interval=\"ECONOMIZER MAX OA FRACTION 100 PCT DEFAULT\", Blank Schedule Type Limits Name input -- will not be validated.\n   ** Warning ** ProcessScheduleInput: Schedule:Day:Interval=\"SCHEDULE DAY 1\", Blank Schedule Type Limits Name input -- will not be validated.\n   ** Warning ** ProcessScheduleInput: Schedule:Day:Interval=\"SCHEDULE DAY 10\", Blank Schedule Type Limits Name input -- will not be validated.\n   ** Warning ** ProcessScheduleInput: Schedule:Day:Interval=\"SCHEDULE DAY 11\", Blank Schedule Type Limits Name input -- will not be validated.\n   ** Warning ** ProcessScheduleInput: Schedule:Day:Interval=\"SCHEDULE DAY 12\", Blank Schedule Type Limits Name input -- will not be validated.\n   ** Warning ** ProcessScheduleInput: Schedule:Day:Interval=\"SCHEDULE DAY 13\", Blank Schedule Type Limits Name input -- will not be validated.\n   ** Warning ** ProcessScheduleInput: Schedule:Day:Interval=\"SCHEDULE DAY 14\", Blank Schedule Type Limits Name input -- will not be validated.\n   ** Warning ** ProcessScheduleInput: Schedule:Day:Interval=\"SCHEDULE DAY 15\", Blank Schedule Type Limits Name input -- will not be validated.\n   ** Warning ** ProcessScheduleInput: Schedule:Day:Interval=\"SCHEDULE DAY 16\", Blank Schedule Type Limits Name input -- will not be validated.\n   ** Warning ** ProcessScheduleInput: Schedule:Day:Interval=\"SCHEDULE DAY 17\", Blank Schedule Type Limits Name input -- will not be validated.\n   ** Warning ** ProcessScheduleInput: Schedule:Day:Interval=\"SCHEDULE DAY 18\", Blank Schedule Type Limits Name input -- will not be validated.\n   ** Warning ** ProcessScheduleInput: Schedule:Day:Interval=\"SCHEDULE DAY 19\", Blank Schedule Type Limits Name input -- will not be validated.\n   ** Warning ** ProcessScheduleInput: Schedule:Day:Interval=\"SCHEDULE DAY 2\", Blank Schedule Type Limits Name input -- will not be validated.\n   ** Warning ** ProcessScheduleInput: Schedule:Day:Interval=\"SCHEDULE DAY 20\", Blank Schedule Type Limits Name input -- will not be validated.\n   ** Warning ** ProcessScheduleInput: Schedule:Day:Interval=\"SCHEDULE DAY 21\", Blank Schedule Type Limits Name input -- will not be validated.\n   ** Warning ** ProcessScheduleInput: Schedule:Day:Interval=\"SCHEDULE DAY 22\", Blank Schedule Type Limits Name input -- will not be validated.\n   ** Warning ** ProcessScheduleInput: Schedule:Day:Interval=\"SCHEDULE DAY 23\", Blank Schedule Type Limits Name input -- will not be validated.\n   ** Warning ** ProcessScheduleInput: Schedule:Day:Interval=\"SCHEDULE DAY 24\", Blank Schedule Type Limits Name input -- will not be validated.\n   ** Warning ** ProcessScheduleInput: Schedule:Day:Interval=\"SCHEDULE DAY 25\", Blank Schedule Type Limits Name input -- will not be validated.\n   ** Warning ** ProcessScheduleInput: Schedule:Day:Interval=\"SCHEDULE DAY 26\", Blank Schedule Type Limits Name input -- will not be validated.\n   ** Warning ** ProcessScheduleInput: Schedule:Day:Interval=\"SCHEDULE DAY 27\", Blank Schedule Type Limits Name input -- will not be validated.\n   ** Warning ** ProcessScheduleInput: Schedule:Day:Interval=\"SCHEDULE DAY 28\", Blank Schedule Type Limits Name input -- will not be validated.\n   ** Warning ** ProcessScheduleInput: Schedule:Day:Interval=\"SCHEDULE DAY 29\", Blank Schedule Type Limits Name input -- will not be validated.\n   ** Warning ** ProcessScheduleInput: Schedule:Day:Interval=\"SCHEDULE DAY 30\", Blank Schedule Type Limits Name input -- will not be validated.\n   ** Warning ** ProcessScheduleInput: Schedule:Day:Interval=\"SCHEDULE DAY 31\", Blank Schedule Type Limits Name input -- will not be validated.\n   ** Warning ** ProcessScheduleInput: Schedule:Day:Interval=\"SCHEDULE DAY 32\", Blank Schedule Type Limits Name input -- will not be validated.\n   ** Warning ** ProcessScheduleInput: Schedule:Day:Interval=\"SCHEDULE DAY 33\", Blank Schedule Type Limits Name input -- will not be validated.\n   ** Warning ** ProcessScheduleInput: Schedule:Day:Interval=\"SCHEDULE DAY 34\", Blank Schedule Type Limits Name input -- will not be validated.\n   ** Warning ** ProcessScheduleInput: Schedule:Day:Interval=\"SCHEDULE DAY 35\", Blank Schedule Type Limits Name input -- will not be validated.\n   ** Warning ** ProcessScheduleInput: Schedule:Day:Interval=\"SCHEDULE DAY 36\", Blank Schedule Type Limits Name input -- will not be validated.\n   ** Warning ** ProcessScheduleInput: Schedule:Day:Interval=\"SCHEDULE DAY 37\", Blank Schedule Type Limits Name input -- will not be validated.\n   ** Warning ** ProcessScheduleInput: Schedule:Day:Interval=\"SCHEDULE DAY 38\", Blank Schedule Type Limits Name input -- will not be validated.\n   ** Warning ** ProcessScheduleInput: Schedule:Day:Interval=\"SCHEDULE DAY 39\", Blank Schedule Type Limits Name input -- will not be validated.\n   ** Warning ** ProcessScheduleInput: Schedule:Day:Interval=\"SCHEDULE DAY 40\", Blank Schedule Type Limits Name input -- will not be validated.\n   ** Warning ** ProcessScheduleInput: Schedule:Day:Interval=\"SCHEDULE DAY 41\", Blank Schedule Type Limits Name input -- will not be validated.\n   ** Warning ** ProcessScheduleInput: Schedule:Day:Interval=\"SCHEDULE DAY 42\", Blank Schedule Type Limits Name input -- will not be validated.\n   ** Warning ** ProcessScheduleInput: Schedule:Day:Interval=\"SCHEDULE DAY 43\", Blank Schedule Type Limits Name input -- will not be validated.\n   ** Warning ** ProcessScheduleInput: Schedule:Day:Interval=\"SCHEDULE DAY 44\", Blank Schedule Type Limits Name input -- will not be validated.\n   ** Warning ** ProcessScheduleInput: Schedule:Day:Interval=\"SCHEDULE DAY 45\", Blank Schedule Type Limits Name input -- will not be validated.\n   ** Warning ** ProcessScheduleInput: Schedule:Day:Interval=\"SCHEDULE DAY 46\", Blank Schedule Type Limits Name input -- will not be validated.\n   ** Warning ** ProcessScheduleInput: Schedule:Day:Interval=\"SCHEDULE DAY 47\", Blank Schedule Type Limits Name input -- will not be validated.\n   ** Warning ** ProcessScheduleInput: Schedule:Day:Interval=\"SCHEDULE DAY 48\", Blank Schedule Type Limits Name input -- will not be validated.\n   ** Warning ** ProcessScheduleInput: Schedule:Day:Interval=\"SCHEDULE DAY 49\", Blank Schedule Type Limits Name input -- will not be validated.\n   ** Warning ** ProcessScheduleInput: Schedule:Day:Interval=\"SCHEDULE DAY 50\", Blank Schedule Type Limits Name input -- will not be validated.\n   ** Warning ** ProcessScheduleInput: Schedule:Day:Interval=\"SCHEDULE DAY 51\", Blank Schedule Type Limits Name input -- will not be validated.\n   ** Warning ** ProcessScheduleInput: Schedule:Day:Interval=\"SCHEDULE DAY 52\", Blank Schedule Type Limits Name input -- will not be validated.\n   ** Warning ** ProcessScheduleInput: Schedule:Day:Interval=\"SCHEDULE DAY 53\", Blank Schedule Type Limits Name input -- will not be validated.\n   ** Warning ** ProcessScheduleInput: Schedule:Day:Interval=\"SCHEDULE DAY 54\", Blank Schedule Type Limits Name input -- will not be validated.\n   ** Warning ** ProcessScheduleInput: Schedule:Day:Interval=\"SCHEDULE DAY 55\", Blank Schedule Type Limits Name input -- will not be validated.\n   ** Warning ** ProcessScheduleInput: Schedule:Day:Interval=\"SCHEDULE DAY 56\", Blank Schedule Type Limits Name input -- will not be validated.\n   ** Warning ** ProcessScheduleInput: Schedule:Day:Interval=\"SCHEDULE DAY 57\", Blank Schedule Type Limits Name input -- will not be validated.\n   ** Warning ** ProcessScheduleInput: Schedule:Day:Interval=\"SCHEDULE DAY 58\", Blank Schedule Type Limits Name input -- will not be validated.\n   ** Warning ** ProcessScheduleInput: Schedule:Day:Interval=\"SCHEDULE DAY 59\", Blank Schedule Type Limits Name input -- will not be validated.\n   ** Warning ** ProcessScheduleInput: Schedule:Day:Interval=\"SCHEDULE DAY 6\", Blank Schedule Type Limits Name input -- will not be validated.\n   ** Warning ** ProcessScheduleInput: Schedule:Day:Interval=\"SCHEDULE DAY 60\", Blank Schedule Type Limits Name input -- will not be validated.\n   ** Warning ** ProcessScheduleInput: Schedule:Day:Interval=\"SCHEDULE DAY 61\", Blank Schedule Type Limits Name input -- will not be validated.\n   ** Warning ** ProcessScheduleInput: Schedule:Day:Interval=\"SCHEDULE DAY 62\", Blank Schedule Type Limits Name input -- will not be validated.\n   ** Warning ** ProcessScheduleInput: Schedule:Day:Interval=\"SCHEDULE DAY 63\", Blank Schedule Type Limits Name input -- will not be validated.\n   ** Warning ** ProcessScheduleInput: Schedule:Day:Interval=\"SCHEDULE DAY 64\", Blank Schedule Type Limits Name input -- will not be validated.\n   ** Warning ** ProcessScheduleInput: Schedule:Day:Interval=\"SCHEDULE DAY 65\", Blank Schedule Type Limits Name input -- will not be validated.\n   ** Warning ** ProcessScheduleInput: Schedule:Day:Interval=\"SCHEDULE DAY 66\", Blank Schedule Type Limits Name input -- will not be validated.\n   ** Warning ** ProcessScheduleInput: Schedule:Day:Interval=\"SCHEDULE DAY 67\", Blank Schedule Type Limits Name input -- will not be validated.\n   ** Warning ** ProcessScheduleInput: Schedule:Day:Interval=\"SCHEDULE DAY 68\", Blank Schedule Type Limits Name input -- will not be validated.\n   ** Warning ** ProcessScheduleInput: Schedule:Day:Interval=\"SCHEDULE DAY 69\", Blank Schedule Type Limits Name input -- will not be validated.\n   ** Warning ** ProcessScheduleInput: Schedule:Day:Interval=\"SCHEDULE DAY 7\", Blank Schedule Type Limits Name input -- will not be validated.\n   ** Warning ** ProcessScheduleInput: Schedule:Day:Interval=\"SCHEDULE DAY 70\", Blank Schedule Type Limits Name input -- will not be validated.\n   ** Warning ** ProcessScheduleInput: Schedule:Day:Interval=\"SCHEDULE DAY 71\", Blank Schedule Type Limits Name input -- will not be validated.\n   ** Warning ** ProcessScheduleInput: Schedule:Day:Interval=\"SCHEDULE DAY 72\", Blank Schedule Type Limits Name input -- will not be validated.\n   ** Warning ** ProcessScheduleInput: Schedule:Day:Interval=\"SCHEDULE DAY 73\", Blank Schedule Type Limits Name input -- will not be validated.\n   ** Warning ** ProcessScheduleInput: Schedule:Day:Interval=\"SCHEDULE DAY 74\", Blank Schedule Type Limits Name input -- will not be validated.\n   ** Warning ** ProcessScheduleInput: Schedule:Day:Interval=\"SCHEDULE DAY 75\", Blank Schedule Type Limits Name input -- will not be validated.\n   ** Warning ** ProcessScheduleInput: Schedule:Day:Interval=\"SCHEDULE DAY 76\", Blank Schedule Type Limits Name input -- will not be validated.\n   ** Warning ** ProcessScheduleInput: Schedule:Day:Interval=\"SCHEDULE DAY 77\", Blank Schedule Type Limits Name input -- will not be validated.\n   ** Warning ** ProcessScheduleInput: Schedule:Day:Interval=\"SCHEDULE DAY 78\", Blank Schedule Type Limits Name input -- will not be validated.\n   ** Warning ** ProcessScheduleInput: Schedule:Day:Interval=\"SCHEDULE DAY 79\", Blank Schedule Type Limits Name input -- will not be validated.\n   ** Warning ** ProcessScheduleInput: Schedule:Day:Interval=\"SCHEDULE DAY 8\", Blank Schedule Type Limits Name input -- will not be validated.\n   ** Warning ** ProcessScheduleInput: Schedule:Day:Interval=\"SCHEDULE DAY 9\", Blank Schedule Type Limits Name input -- will not be validated.\n   ** Warning ** ProcessScheduleInput: Schedule:Year=\"ECONOMIZER MAX OA FRACTION 100 PCT\", Blank Schedule Type Limits Name input -- will not be validated.\n   ** Warning ** ProcessScheduleInput: Schedule:Year=\"SCHEDULE RULESET 10\", Blank Schedule Type Limits Name input -- will not be validated.\n   ** Warning ** ProcessScheduleInput: Schedule:Year=\"SCHEDULE RULESET 11\", Blank Schedule Type Limits Name input -- will not be validated.\n   ** Warning ** ProcessScheduleInput: Schedule:Year=\"SCHEDULE RULESET 12\", Blank Schedule Type Limits Name input -- will not be validated.\n   ** Warning ** ProcessScheduleInput: Schedule:Year=\"SCHEDULE RULESET 13\", Blank Schedule Type Limits Name input -- will not be validated.\n   ** Warning ** ProcessScheduleInput: Schedule:Year=\"SCHEDULE RULESET 14\", Blank Schedule Type Limits Name input -- will not be validated.\n   ** Warning ** ProcessScheduleInput: Schedule:Year=\"SCHEDULE RULESET 15\", Blank Schedule Type Limits Name input -- will not be validated.\n   ** Warning ** ProcessScheduleInput: Schedule:Year=\"SCHEDULE RULESET 16\", Blank Schedule Type Limits Name input -- will not be validated.\n   ** Warning ** ProcessScheduleInput: Schedule:Year=\"SCHEDULE RULESET 17\", Blank Schedule Type Limits Name input -- will not be validated.\n   ** Warning ** ProcessScheduleInput: Schedule:Year=\"SCHEDULE RULESET 18\", Blank Schedule Type Limits Name input -- will not be validated.\n   ** Warning ** ProcessScheduleInput: Schedule:Year=\"SCHEDULE RULESET 19\", Blank Schedule Type Limits Name input -- will not be validated.\n   ** Warning ** ProcessScheduleInput: Schedule:Year=\"SCHEDULE RULESET 20\", Blank Schedule Type Limits Name input -- will not be validated.\n   ** Warning ** ProcessScheduleInput: Schedule:Year=\"SCHEDULE RULESET 21\", Blank Schedule Type Limits Name input -- will not be validated.\n   ** Warning ** ProcessScheduleInput: Schedule:Year=\"SCHEDULE RULESET 22\", Blank Schedule Type Limits Name input -- will not be validated.\n   ** Warning ** ProcessScheduleInput: Schedule:Year=\"SCHEDULE RULESET 23\", Blank Schedule Type Limits Name input -- will not be validated.\n   ** Warning ** ProcessScheduleInput: Schedule:Year=\"SCHEDULE RULESET 24\", Blank Schedule Type Limits Name input -- will not be validated.\n   ** Warning ** ProcessScheduleInput: Schedule:Year=\"SCHEDULE RULESET 25\", Blank Schedule Type Limits Name input -- will not be validated.\n   ** Warning ** ProcessScheduleInput: Schedule:Year=\"SCHEDULE RULESET 26\", Blank Schedule Type Limits Name input -- will not be validated.\n   ** Warning ** ProcessScheduleInput: Schedule:Year=\"SCHEDULE RULESET 27\", Blank Schedule Type Limits Name input -- will not be validated.\n   ** Warning ** ProcessScheduleInput: Schedule:Year=\"SCHEDULE RULESET 28\", Blank Schedule Type Limits Name input -- will not be validated.\n   ** Warning ** ProcessScheduleInput: Schedule:Year=\"SCHEDULE RULESET 29\", Blank Schedule Type Limits Name input -- will not be validated.\n   ** Warning ** ProcessScheduleInput: Schedule:Year=\"SCHEDULE RULESET 3\", Blank Schedule Type Limits Name input -- will not be validated.\n   ** Warning ** ProcessScheduleInput: Schedule:Year=\"SCHEDULE RULESET 30\", Blank Schedule Type Limits Name input -- will not be validated.\n   ** Warning ** ProcessScheduleInput: Schedule:Year=\"SCHEDULE RULESET 31\", Blank Schedule Type Limits Name input -- will not be validated.\n   ** Warning ** ProcessScheduleInput: Schedule:Year=\"SCHEDULE RULESET 32\", Blank Schedule Type Limits Name input -- will not be validated.\n   ** Warning ** ProcessScheduleInput: Schedule:Year=\"SCHEDULE RULESET 33\", Blank Schedule Type Limits Name input -- will not be validated.\n   ** Warning ** ProcessScheduleInput: Schedule:Year=\"SCHEDULE RULESET 34\", Blank Schedule Type Limits Name input -- will not be validated.\n   ** Warning ** ProcessScheduleInput: Schedule:Year=\"SCHEDULE RULESET 35\", Blank Schedule Type Limits Name input -- will not be validated.\n   ** Warning ** ProcessScheduleInput: Schedule:Year=\"SCHEDULE RULESET 36\", Blank Schedule Type Limits Name input -- will not be validated.\n   ** Warning ** ProcessScheduleInput: Schedule:Year=\"SCHEDULE RULESET 37\", Blank Schedule Type Limits Name input -- will not be validated.\n   ** Warning ** ProcessScheduleInput: Schedule:Year=\"SCHEDULE RULESET 38\", Blank Schedule Type Limits Name input -- will not be validated.\n   ** Warning ** ProcessScheduleInput: Schedule:Year=\"SCHEDULE RULESET 39\", Blank Schedule Type Limits Name input -- will not be validated.\n   ** Warning ** ProcessScheduleInput: Schedule:Year=\"SCHEDULE RULESET 4\", Blank Schedule Type Limits Name input -- will not be validated.\n   ** Warning ** ProcessScheduleInput: Schedule:Year=\"SCHEDULE RULESET 40\", Blank Schedule Type Limits Name input -- will not be validated.\n   ** Warning ** ProcessScheduleInput: Schedule:Year=\"SCHEDULE RULESET 41\", Blank Schedule Type Limits Name input -- will not be validated.\n   ** Warning ** ProcessScheduleInput: Schedule:Year=\"SCHEDULE RULESET 42\", Blank Schedule Type Limits Name input -- will not be validated.\n   ** Warning ** ProcessScheduleInput: Schedule:Year=\"SCHEDULE RULESET 43\", Blank Schedule Type Limits Name input -- will not be validated.\n   ** Warning ** ProcessScheduleInput: Schedule:Year=\"SCHEDULE RULESET 44\", Blank Schedule Type Limits Name input -- will not be validated.\n   ** Warning ** ProcessScheduleInput: Schedule:Year=\"SCHEDULE RULESET 45\", Blank Schedule Type Limits Name input -- will not be validated.\n   ** Warning ** ProcessScheduleInput: Schedule:Year=\"SCHEDULE RULESET 46\", Blank Schedule Type Limits Name input -- will not be validated.\n   ** Warning ** ProcessScheduleInput: Schedule:Year=\"SCHEDULE RULESET 47\", Blank Schedule Type Limits Name input -- will not be validated.\n   ** Warning ** ProcessScheduleInput: Schedule:Year=\"SCHEDULE RULESET 48\", Blank Schedule Type Limits Name input -- will not be validated.\n   ** Warning ** ProcessScheduleInput: Schedule:Year=\"SCHEDULE RULESET 49\", Blank Schedule Type Limits Name input -- will not be validated.\n   ** Warning ** ProcessScheduleInput: Schedule:Year=\"SCHEDULE RULESET 5\", Blank Schedule Type Limits Name input -- will not be validated.\n   ** Warning ** ProcessScheduleInput: Schedule:Year=\"SCHEDULE RULESET 50\", Blank Schedule Type Limits Name input -- will not be validated.\n   ** Warning ** ProcessScheduleInput: Schedule:Year=\"SCHEDULE RULESET 51\", Blank Schedule Type Limits Name input -- will not be validated.\n   ** Warning ** ProcessScheduleInput: Schedule:Year=\"SCHEDULE RULESET 52\", Blank Schedule Type Limits Name input -- will not be validated.\n   ** Warning ** ProcessScheduleInput: Schedule:Year=\"SCHEDULE RULESET 53\", Blank Schedule Type Limits Name input -- will not be validated.\n   ** Warning ** ProcessScheduleInput: Schedule:Year=\"SCHEDULE RULESET 54\", Blank Schedule Type Limits Name input -- will not be validated.\n   ** Warning ** ProcessScheduleInput: Schedule:Year=\"SCHEDULE RULESET 55\", Blank Schedule Type Limits Name input -- will not be validated.\n   ** Warning ** ProcessScheduleInput: Schedule:Year=\"SCHEDULE RULESET 56\", Blank Schedule Type Limits Name input -- will not be validated.\n   ** Warning ** ProcessScheduleInput: Schedule:Year=\"SCHEDULE RULESET 57\", Blank Schedule Type Limits Name input -- will not be validated.\n   ** Warning ** ProcessScheduleInput: Schedule:Year=\"SCHEDULE RULESET 58\", Blank Schedule Type Limits Name input -- will not be validated.\n   ** Warning ** ProcessScheduleInput: Schedule:Year=\"SCHEDULE RULESET 59\", Blank Schedule Type Limits Name input -- will not be validated.\n   ** Warning ** ProcessScheduleInput: Schedule:Year=\"SCHEDULE RULESET 6\", Blank Schedule Type Limits Name input -- will not be validated.\n   ** Warning ** ProcessScheduleInput: Schedule:Year=\"SCHEDULE RULESET 60\", Blank Schedule Type Limits Name input -- will not be validated.\n   ** Warning ** ProcessScheduleInput: Schedule:Year=\"SCHEDULE RULESET 61\", Blank Schedule Type Limits Name input -- will not be validated.\n   ** Warning ** ProcessScheduleInput: Schedule:Year=\"SCHEDULE RULESET 62\", Blank Schedule Type Limits Name input -- will not be validated.\n   ** Warning ** ProcessScheduleInput: Schedule:Year=\"SCHEDULE RULESET 63\", Blank Schedule Type Limits Name input -- will not be validated.\n   ** Warning ** ProcessScheduleInput: Schedule:Year=\"SCHEDULE RULESET 64\", Blank Schedule Type Limits Name input -- will not be validated.\n   ** Warning ** ProcessScheduleInput: Schedule:Year=\"SCHEDULE RULESET 65\", Blank Schedule Type Limits Name input -- will not be validated.\n   ** Warning ** ProcessScheduleInput: Schedule:Year=\"SCHEDULE RULESET 66\", Blank Schedule Type Limits Name input -- will not be validated.\n   ** Warning ** ProcessScheduleInput: Schedule:Year=\"SCHEDULE RULESET 67\", Blank Schedule Type Limits Name input -- will not be validated.\n   ** Warning ** ProcessScheduleInput: Schedule:Year=\"SCHEDULE RULESET 68\", Blank Schedule Type Limits Name input -- will not be validated.\n   ** Warning ** ProcessScheduleInput: Schedule:Year=\"SCHEDULE RULESET 69\", Blank Schedule Type Limits Name input -- will not be validated.\n   ** Warning ** ProcessScheduleInput: Schedule:Year=\"SCHEDULE RULESET 7\", Blank Schedule Type Limits Name input -- will not be validated.\n   ** Warning ** ProcessScheduleInput: Schedule:Year=\"SCHEDULE RULESET 70\", Blank Schedule Type Limits Name input -- will not be validated.\n   ** Warning ** ProcessScheduleInput: Schedule:Year=\"SCHEDULE RULESET 71\", Blank Schedule Type Limits Name input -- will not be validated.\n   ** Warning ** ProcessScheduleInput: Schedule:Year=\"SCHEDULE RULESET 72\", Blank Schedule Type Limits Name input -- will not be validated.\n   ** Warning ** ProcessScheduleInput: Schedule:Year=\"SCHEDULE RULESET 73\", Blank Schedule Type Limits Name input -- will not be validated.\n   ** Warning ** ProcessScheduleInput: Schedule:Year=\"SCHEDULE RULESET 74\", Blank Schedule Type Limits Name input -- will not be validated.\n   ** Warning ** ProcessScheduleInput: Schedule:Year=\"SCHEDULE RULESET 8\", Blank Schedule Type Limits Name input -- will not be validated.\n   ** Warning ** ProcessScheduleInput: Schedule:Year=\"SCHEDULE RULESET 9\", Blank Schedule Type Limits Name input -- will not be validated.\n   ** Warning ** ProcessScheduleInput: Schedule:Constant=\"ALWAYS OFF DISCRETE\", Blank Schedule Type Limits Name input -- will not be validated.\n   ** Warning ** ProcessScheduleInput: Schedule:Constant=\"ALWAYS ON CONTINUOUS\", Blank Schedule Type Limits Name input -- will not be validated.\n   ** Warning ** CheckUsedConstructions: There are 26 nominally unused constructions in input.\n   **   ~~~   ** For explicit details on each unused construction, use Output:Diagnostics,DisplayExtraWarnings;\n   ************* Beginning System Sizing Calculations\n   ** Warning ** GetDXCoils: Coil:Cooling:DX:SingleSpeed=\"COIL COOLING DX SINGLE SPEED 24 6KBTU/HR 11.0EER\", invalid\n   **   ~~~   ** ...Part Load Fraction Correlation Curve Name = DXCOOL-NECB2011-REF-COOLPLFFPLR 16 has out of range value.\n   **   ~~~   ** ...Curve maximum must be <= 1.0, curve max at PLR = 0.99 is 1.015\n   **   ~~~   ** ...Setting curve maximum to 1.0 and simulation continues.\n   ** Warning ** GetDXCoils: Coil:Cooling:DX:SingleSpeed=\"COIL COOLING DX SINGLE SPEED 22 5KBTU/HR 11.0EER\", invalid\n   **   ~~~   ** ...Part Load Fraction Correlation Curve Name = DXCOOL-NECB2011-REF-COOLPLFFPLR 14 has out of range value.\n   **   ~~~   ** ...Curve maximum must be <= 1.0, curve max at PLR = 0.99 is 1.015\n   **   ~~~   ** ...Setting curve maximum to 1.0 and simulation continues.\n   ** Warning ** GetDXCoils: Coil:Cooling:DX:SingleSpeed=\"COIL COOLING DX SINGLE SPEED 21 5KBTU/HR 11.0EER\", invalid\n   **   ~~~   ** ...Part Load Fraction Correlation Curve Name = DXCOOL-NECB2011-REF-COOLPLFFPLR 13 has out of range value.\n   **   ~~~   ** ...Curve maximum must be <= 1.0, curve max at PLR = 0.99 is 1.015\n   **   ~~~   ** ...Setting curve maximum to 1.0 and simulation continues.\n   ** Warning ** GetDXCoils: Coil:Cooling:DX:SingleSpeed=\"COIL COOLING DX SINGLE SPEED 23 9KBTU/HR 10.6EER\", invalid\n   **   ~~~   ** ...Part Load Fraction Correlation Curve Name = DXCOOL-NECB2011-REF-COOLPLFFPLR 15 has out of range value.\n   **   ~~~   ** ...Curve maximum must be <= 1.0, curve max at PLR = 0.99 is 1.015\n   **   ~~~   ** ...Setting curve maximum to 1.0 and simulation continues.\n   ** Warning ** GetDXCoils: Coil:Cooling:DX:SingleSpeed=\"COIL COOLING DX SINGLE SPEED 20 8KBTU/HR 10.7EER\", invalid\n   **   ~~~   ** ...Part Load Fraction Correlation Curve Name = DXCOOL-NECB2011-REF-COOLPLFFPLR 12 has out of range value.\n   **   ~~~   ** ...Curve maximum must be <= 1.0, curve max at PLR = 0.99 is 1.015\n   **   ~~~   ** ...Setting curve maximum to 1.0 and simulation continues.\n   ** Warning ** GetDXCoils: Coil:Cooling:DX:SingleSpeed=\"COIL COOLING DX SINGLE SPEED 25 7KBTU/HR 11.0EER\", invalid\n   **   ~~~   ** ...Part Load Fraction Correlation Curve Name = DXCOOL-NECB2011-REF-COOLPLFFPLR 17 has out of range value.\n   **   ~~~   ** ...Curve maximum must be <= 1.0, curve max at PLR = 0.99 is 1.015\n   **   ~~~   ** ...Setting curve maximum to 1.0 and simulation continues.\n   ** Warning ** GetDXCoils: Coil:Cooling:DX:SingleSpeed=\"COIL COOLING DX SINGLE SPEED 26 7KBTU/HR 11.0EER\", invalid\n   **   ~~~   ** ...Part Load Fraction Correlation Curve Name = DXCOOL-NECB2011-REF-COOLPLFFPLR 18 has out of range value.\n   **   ~~~   ** ...Curve maximum must be <= 1.0, curve max at PLR = 0.99 is 1.015\n   **   ~~~   ** ...Setting curve maximum to 1.0 and simulation continues.\n   ** Warning ** GetDXCoils: Coil:Cooling:DX:SingleSpeed=\"COIL COOLING DX SINGLE SPEED 27 9KBTU/HR 10.5EER\", invalid\n   **   ~~~   ** ...Part Load Fraction Correlation Curve Name = DXCOOL-NECB2011-REF-COOLPLFFPLR 19 has out of range value.\n   **   ~~~   ** ...Curve maximum must be <= 1.0, curve max at PLR = 0.99 is 1.015\n   **   ~~~   ** ...Setting curve maximum to 1.0 and simulation continues.\n   ** Warning ** GetDXCoils: Coil:Cooling:DX:SingleSpeed=\"COIL COOLING DX SINGLE SPEED 6 6KBTU/HR 11.0EER\", invalid\n   **   ~~~   ** ...Part Load Fraction Correlation Curve Name = DXCOOL-NECB2011-REF-COOLPLFFPLR 24 has out of range value.\n   **   ~~~   ** ...Curve maximum must be <= 1.0, curve max at PLR = 0.99 is 1.015\n   **   ~~~   ** ...Setting curve maximum to 1.0 and simulation continues.\n   ** Warning ** GetDXCoils: Coil:Cooling:DX:SingleSpeed=\"COIL COOLING DX SINGLE SPEED 4 5KBTU/HR 11.0EER\", invalid\n   **   ~~~   ** ...Part Load Fraction Correlation Curve Name = DXCOOL-NECB2011-REF-COOLPLFFPLR 22 has out of range value.\n   **   ~~~   ** ...Curve maximum must be <= 1.0, curve max at PLR = 0.99 is 1.015\n   **   ~~~   ** ...Setting curve maximum to 1.0 and simulation continues.\n   ** Warning ** GetDXCoils: Coil:Cooling:DX:SingleSpeed=\"COIL COOLING DX SINGLE SPEED 3 5KBTU/HR 11.0EER\", invalid\n   **   ~~~   ** ...Part Load Fraction Correlation Curve Name = DXCOOL-NECB2011-REF-COOLPLFFPLR 21 has out of range value.\n   **   ~~~   ** ...Curve maximum must be <= 1.0, curve max at PLR = 0.99 is 1.015\n   **   ~~~   ** ...Setting curve maximum to 1.0 and simulation continues.\n   ** Warning ** GetDXCoils: Coil:Cooling:DX:SingleSpeed=\"COIL COOLING DX SINGLE SPEED 2 9KBTU/HR 10.5EER\", invalid\n   **   ~~~   ** ...Part Load Fraction Correlation Curve Name = DXCOOL-NECB2011-REF-COOLPLFFPLR 11 has out of range value.\n   **   ~~~   ** ...Curve maximum must be <= 1.0, curve max at PLR = 0.99 is 1.015\n   **   ~~~   ** ...Setting curve maximum to 1.0 and simulation continues.\n   ** Warning ** GetDXCoils: Coil:Cooling:DX:SingleSpeed=\"COIL COOLING DX SINGLE SPEED 5 10KBTU/HR 10.5EER\", invalid\n   **   ~~~   ** ...Part Load Fraction Correlation Curve Name = DXCOOL-NECB2011-REF-COOLPLFFPLR 23 has out of range value.\n   **   ~~~   ** ...Curve maximum must be <= 1.0, curve max at PLR = 0.99 is 1.015\n   **   ~~~   ** ...Setting curve maximum to 1.0 and simulation continues.\n   ** Warning ** GetDXCoils: Coil:Cooling:DX:SingleSpeed=\"COIL COOLING DX SINGLE SPEED 7 7KBTU/HR 10.9EER\", invalid\n   **   ~~~   ** ...Part Load Fraction Correlation Curve Name = DXCOOL-NECB2011-REF-COOLPLFFPLR 25 has out of range value.\n   **   ~~~   ** ...Curve maximum must be <= 1.0, curve max at PLR = 0.99 is 1.015\n   **   ~~~   ** ...Setting curve maximum to 1.0 and simulation continues.\n   ** Warning ** GetDXCoils: Coil:Cooling:DX:SingleSpeed=\"COIL COOLING DX SINGLE SPEED 9 7KBTU/HR 10.9EER\", invalid\n   **   ~~~   ** ...Part Load Fraction Correlation Curve Name = DXCOOL-NECB2011-REF-COOLPLFFPLR 27 has out of range value.\n   **   ~~~   ** ...Curve maximum must be <= 1.0, curve max at PLR = 0.99 is 1.015\n   **   ~~~   ** ...Setting curve maximum to 1.0 and simulation continues.\n   ** Warning ** GetDXCoils: Coil:Cooling:DX:SingleSpeed=\"COIL COOLING DX SINGLE SPEED 8 9KBTU/HR 10.5EER\", invalid\n   **   ~~~   ** ...Part Load Fraction Correlation Curve Name = DXCOOL-NECB2011-REF-COOLPLFFPLR 26 has out of range value.\n   **   ~~~   ** ...Curve maximum must be <= 1.0, curve max at PLR = 0.99 is 1.015\n   **   ~~~   ** ...Setting curve maximum to 1.0 and simulation continues.\n   ** Warning ** GetDXCoils: Coil:Cooling:DX:SingleSpeed=\"COIL COOLING DX SINGLE SPEED 10 11KBTU/HR 10.2EER\", invalid\n   **   ~~~   ** ...Part Load Fraction Correlation Curve Name = DXCOOL-NECB2011-REF-COOLPLFFPLR 1 has out of range value.\n   **   ~~~   ** ...Curve maximum must be <= 1.0, curve max at PLR = 0.99 is 1.015\n   **   ~~~   ** ...Setting curve maximum to 1.0 and simulation continues.\n   ** Warning ** GetDXCoils: Coil:Cooling:DX:SingleSpeed=\"COIL COOLING DX SINGLE SPEED 15 10KBTU/HR 10.3EER\", invalid\n   **   ~~~   ** ...Part Load Fraction Correlation Curve Name = DXCOOL-NECB2011-REF-COOLPLFFPLR 6 has out of range value.\n   **   ~~~   ** ...Curve maximum must be <= 1.0, curve max at PLR = 0.99 is 1.015\n   **   ~~~   ** ...Setting curve maximum to 1.0 and simulation continues.\n   ** Warning ** GetDXCoils: Coil:Cooling:DX:SingleSpeed=\"COIL COOLING DX SINGLE SPEED 12 9KBTU/HR 10.6EER\", invalid\n   **   ~~~   ** ...Part Load Fraction Correlation Curve Name = DXCOOL-NECB2011-REF-COOLPLFFPLR 3 has out of range value.\n   **   ~~~   ** ...Curve maximum must be <= 1.0, curve max at PLR = 0.99 is 1.015\n   **   ~~~   ** ...Setting curve maximum to 1.0 and simulation continues.\n   ** Warning ** GetDXCoils: Coil:Cooling:DX:SingleSpeed=\"COIL COOLING DX SINGLE SPEED 13 9KBTU/HR 10.6EER\", invalid\n   **   ~~~   ** ...Part Load Fraction Correlation Curve Name = DXCOOL-NECB2011-REF-COOLPLFFPLR 4 has out of range value.\n   **   ~~~   ** ...Curve maximum must be <= 1.0, curve max at PLR = 0.99 is 1.015\n   **   ~~~   ** ...Setting curve maximum to 1.0 and simulation continues.\n   ** Warning ** GetDXCoils: Coil:Cooling:DX:SingleSpeed=\"COIL COOLING DX SINGLE SPEED 14 11KBTU/HR 10.1EER\", invalid\n   **   ~~~   ** ...Part Load Fraction Correlation Curve Name = DXCOOL-NECB2011-REF-COOLPLFFPLR 5 has out of range value.\n   **   ~~~   ** ...Curve maximum must be <= 1.0, curve max at PLR = 0.99 is 1.015\n   **   ~~~   ** ...Setting curve maximum to 1.0 and simulation continues.\n   ** Warning ** GetDXCoils: Coil:Cooling:DX:SingleSpeed=\"COIL COOLING DX SINGLE SPEED 11 12KBTU/HR 10.0EER\", invalid\n   **   ~~~   ** ...Part Load Fraction Correlation Curve Name = DXCOOL-NECB2011-REF-COOLPLFFPLR 2 has out of range value.\n   **   ~~~   ** ...Curve maximum must be <= 1.0, curve max at PLR = 0.99 is 1.015\n   **   ~~~   ** ...Setting curve maximum to 1.0 and simulation continues.\n   ** Warning ** GetDXCoils: Coil:Cooling:DX:SingleSpeed=\"COIL COOLING DX SINGLE SPEED 16 10KBTU/HR 10.3EER\", invalid\n   **   ~~~   ** ...Part Load Fraction Correlation Curve Name = DXCOOL-NECB2011-REF-COOLPLFFPLR 7 has out of range value.\n   **   ~~~   ** ...Curve maximum must be <= 1.0, curve max at PLR = 0.99 is 1.015\n   **   ~~~   ** ...Setting curve maximum to 1.0 and simulation continues.\n   ** Warning ** GetDXCoils: Coil:Cooling:DX:SingleSpeed=\"COIL COOLING DX SINGLE SPEED 19 10KBTU/HR 10.3EER\", invalid\n   **   ~~~   ** ...Part Load Fraction Correlation Curve Name = DXCOOL-NECB2011-REF-COOLPLFFPLR 10 has out of range value.\n   **   ~~~   ** ...Curve maximum must be <= 1.0, curve max at PLR = 0.99 is 1.015\n   **   ~~~   ** ...Setting curve maximum to 1.0 and simulation continues.\n   ** Warning ** GetDXCoils: Coil:Cooling:DX:SingleSpeed=\"COIL COOLING DX SINGLE SPEED 18 12KBTU/HR 10.0EER\", invalid\n   **   ~~~   ** ...Part Load Fraction Correlation Curve Name = DXCOOL-NECB2011-REF-COOLPLFFPLR 9 has out of range value.\n   **   ~~~   ** ...Curve maximum must be <= 1.0, curve max at PLR = 0.99 is 1.015\n   **   ~~~   ** ...Setting curve maximum to 1.0 and simulation continues.\n   ** Warning ** GetDXCoils: Coil:Cooling:DX:SingleSpeed=\"COIL COOLING DX SINGLE SPEED 17 13KBTU/HR 9.7EER\", invalid\n   **   ~~~   ** ...Part Load Fraction Correlation Curve Name = DXCOOL-NECB2011-REF-COOLPLFFPLR 8 has out of range value.\n   **   ~~~   ** ...Curve maximum must be <= 1.0, curve max at PLR = 0.99 is 1.015\n   **   ~~~   ** ...Setting curve maximum to 1.0 and simulation continues.\n   ** Warning ** GetDXCoils: Coil:Cooling:DX:SingleSpeed=\"COIL COOLING DX SINGLE SPEED 1 88KBTU/HR 9.7EER\", invalid\n   **   ~~~   ** ...Part Load Fraction Correlation Curve Name = DXCOOL-NECB2011-REF-COOLPLFFPLR has out of range value.\n   **   ~~~   ** ...Curve maximum must be <= 1.0, curve max at PLR = 0.99 is 1.015\n   **   ~~~   ** ...Setting curve maximum to 1.0 and simulation continues.\n   ** Warning ** GetDXCoils: Coil:Cooling:DX:SingleSpeed=\"COIL COOLING DX SINGLE SPEED 28 19KBTU/HR 14.0SEER\", invalid\n   **   ~~~   ** ...Part Load Fraction Correlation Curve Name = DXCOOL-NECB2011-REF-COOLPLFFPLR 20 has out of range value.\n   **   ~~~   ** ...Curve maximum must be <= 1.0, curve max at PLR = 0.99 is 1.015\n   **   ~~~   ** ...Setting curve maximum to 1.0 and simulation continues.\n   ************* Beginning Plant Sizing Calculations\n   ** Warning ** The Standard Ratings is calculated for Coil:Cooling:DX:SingleSpeed = COIL COOLING DX SINGLE SPEED 24 6KBTU/HR 11.0EER but not at the AHRI test condition due to curve out of bound.\n   **   ~~~   **  Review the Standard Ratings calculations in the Engineering Reference for this coil type. Also, use Output:Diagnostics, DisplayExtraWarnings for further guidance.\n   ** Warning ** The Standard Ratings is calculated for Coil:Cooling:DX:SingleSpeed = COIL COOLING DX SINGLE SPEED 22 5KBTU/HR 11.0EER but not at the AHRI test condition due to curve out of bound.\n   **   ~~~   **  Review the Standard Ratings calculations in the Engineering Reference for this coil type. Also, use Output:Diagnostics, DisplayExtraWarnings for further guidance.\n   ** Warning ** The Standard Ratings is calculated for Coil:Cooling:DX:SingleSpeed = COIL COOLING DX SINGLE SPEED 21 5KBTU/HR 11.0EER but not at the AHRI test condition due to curve out of bound.\n   **   ~~~   **  Review the Standard Ratings calculations in the Engineering Reference for this coil type. Also, use Output:Diagnostics, DisplayExtraWarnings for further guidance.\n   ** Warning ** The Standard Ratings is calculated for Coil:Cooling:DX:SingleSpeed = COIL COOLING DX SINGLE SPEED 23 9KBTU/HR 10.6EER but not at the AHRI test condition due to curve out of bound.\n   **   ~~~   **  Review the Standard Ratings calculations in the Engineering Reference for this coil type. Also, use Output:Diagnostics, DisplayExtraWarnings for further guidance.\n   ** Warning ** The Standard Ratings is calculated for Coil:Cooling:DX:SingleSpeed = COIL COOLING DX SINGLE SPEED 20 8KBTU/HR 10.7EER but not at the AHRI test condition due to curve out of bound.\n   **   ~~~   **  Review the Standard Ratings calculations in the Engineering Reference for this coil type. Also, use Output:Diagnostics, DisplayExtraWarnings for further guidance.\n   ** Warning ** The Standard Ratings is calculated for Coil:Cooling:DX:SingleSpeed = COIL COOLING DX SINGLE SPEED 25 7KBTU/HR 11.0EER but not at the AHRI test condition due to curve out of bound.\n   **   ~~~   **  Review the Standard Ratings calculations in the Engineering Reference for this coil type. Also, use Output:Diagnostics, DisplayExtraWarnings for further guidance.\n   ** Warning ** The Standard Ratings is calculated for Coil:Cooling:DX:SingleSpeed = COIL COOLING DX SINGLE SPEED 26 7KBTU/HR 11.0EER but not at the AHRI test condition due to curve out of bound.\n   **   ~~~   **  Review the Standard Ratings calculations in the Engineering Reference for this coil type. Also, use Output:Diagnostics, DisplayExtraWarnings for further guidance.\n   ** Warning ** The Standard Ratings is calculated for Coil:Cooling:DX:SingleSpeed = COIL COOLING DX SINGLE SPEED 27 9KBTU/HR 10.5EER but not at the AHRI test condition due to curve out of bound.\n   **   ~~~   **  Review the Standard Ratings calculations in the Engineering Reference for this coil type. Also, use Output:Diagnostics, DisplayExtraWarnings for further guidance.\n   ** Warning ** The Standard Ratings is calculated for Coil:Cooling:DX:SingleSpeed = COIL COOLING DX SINGLE SPEED 6 6KBTU/HR 11.0EER but not at the AHRI test condition due to curve out of bound.\n   **   ~~~   **  Review the Standard Ratings calculations in the Engineering Reference for this coil type. Also, use Output:Diagnostics, DisplayExtraWarnings for further guidance.\n   ** Warning ** The Standard Ratings is calculated for Coil:Cooling:DX:SingleSpeed = COIL COOLING DX SINGLE SPEED 4 5KBTU/HR 11.0EER but not at the AHRI test condition due to curve out of bound.\n   **   ~~~   **  Review the Standard Ratings calculations in the Engineering Reference for this coil type. Also, use Output:Diagnostics, DisplayExtraWarnings for further guidance.\n   ** Warning ** The Standard Ratings is calculated for Coil:Cooling:DX:SingleSpeed = COIL COOLING DX SINGLE SPEED 3 5KBTU/HR 11.0EER but not at the AHRI test condition due to curve out of bound.\n   **   ~~~   **  Review the Standard Ratings calculations in the Engineering Reference for this coil type. Also, use Output:Diagnostics, DisplayExtraWarnings for further guidance.\n   ** Warning ** The Standard Ratings is calculated for Coil:Cooling:DX:SingleSpeed = COIL COOLING DX SINGLE SPEED 2 9KBTU/HR 10.5EER but not at the AHRI test condition due to curve out of bound.\n   **   ~~~   **  Review the Standard Ratings calculations in the Engineering Reference for this coil type. Also, use Output:Diagnostics, DisplayExtraWarnings for further guidance.\n   ** Warning ** The Standard Ratings is calculated for Coil:Cooling:DX:SingleSpeed = COIL COOLING DX SINGLE SPEED 5 10KBTU/HR 10.5EER but not at the AHRI test condition due to curve out of bound.\n   **   ~~~   **  Review the Standard Ratings calculations in the Engineering Reference for this coil type. Also, use Output:Diagnostics, DisplayExtraWarnings for further guidance.\n   ** Warning ** The Standard Ratings is calculated for Coil:Cooling:DX:SingleSpeed = COIL COOLING DX SINGLE SPEED 7 7KBTU/HR 10.9EER but not at the AHRI test condition due to curve out of bound.\n   **   ~~~   **  Review the Standard Ratings calculations in the Engineering Reference for this coil type. Also, use Output:Diagnostics, DisplayExtraWarnings for further guidance.\n   ** Warning ** The Standard Ratings is calculated for Coil:Cooling:DX:SingleSpeed = COIL COOLING DX SINGLE SPEED 9 7KBTU/HR 10.9EER but not at the AHRI test condition due to curve out of bound.\n   **   ~~~   **  Review the Standard Ratings calculations in the Engineering Reference for this coil type. Also, use Output:Diagnostics, DisplayExtraWarnings for further guidance.\n   ** Warning ** The Standard Ratings is calculated for Coil:Cooling:DX:SingleSpeed = COIL COOLING DX SINGLE SPEED 8 9KBTU/HR 10.5EER but not at the AHRI test condition due to curve out of bound.\n   **   ~~~   **  Review the Standard Ratings calculations in the Engineering Reference for this coil type. Also, use Output:Diagnostics, DisplayExtraWarnings for further guidance.\n   ** Warning ** The Standard Ratings is calculated for Coil:Cooling:DX:SingleSpeed = COIL COOLING DX SINGLE SPEED 10 11KBTU/HR 10.2EER but not at the AHRI test condition due to curve out of bound.\n   **   ~~~   **  Review the Standard Ratings calculations in the Engineering Reference for this coil type. Also, use Output:Diagnostics, DisplayExtraWarnings for further guidance.\n   ** Warning ** The Standard Ratings is calculated for Coil:Cooling:DX:SingleSpeed = COIL COOLING DX SINGLE SPEED 15 10KBTU/HR 10.3EER but not at the AHRI test condition due to curve out of bound.\n   **   ~~~   **  Review the Standard Ratings calculations in the Engineering Reference for this coil type. Also, use Output:Diagnostics, DisplayExtraWarnings for further guidance.\n   ** Warning ** The Standard Ratings is calculated for Coil:Cooling:DX:SingleSpeed = COIL COOLING DX SINGLE SPEED 12 9KBTU/HR 10.6EER but not at the AHRI test condition due to curve out of bound.\n   **   ~~~   **  Review the Standard Ratings calculations in the Engineering Reference for this coil type. Also, use Output:Diagnostics, DisplayExtraWarnings for further guidance.\n   ** Warning ** The Standard Ratings is calculated for Coil:Cooling:DX:SingleSpeed = COIL COOLING DX SINGLE SPEED 13 9KBTU/HR 10.6EER but not at the AHRI test condition due to curve out of bound.\n   **   ~~~   **  Review the Standard Ratings calculations in the Engineering Reference for this coil type. Also, use Output:Diagnostics, DisplayExtraWarnings for further guidance.\n   ** Warning ** The Standard Ratings is calculated for Coil:Cooling:DX:SingleSpeed = COIL COOLING DX SINGLE SPEED 14 11KBTU/HR 10.1EER but not at the AHRI test condition due to curve out of bound.\n   **   ~~~   **  Review the Standard Ratings calculations in the Engineering Reference for this coil type. Also, use Output:Diagnostics, DisplayExtraWarnings for further guidance.\n   ** Warning ** The Standard Ratings is calculated for Coil:Cooling:DX:SingleSpeed = COIL COOLING DX SINGLE SPEED 11 12KBTU/HR 10.0EER but not at the AHRI test condition due to curve out of bound.\n   **   ~~~   **  Review the Standard Ratings calculations in the Engineering Reference for this coil type. Also, use Output:Diagnostics, DisplayExtraWarnings for further guidance.\n   ** Warning ** The Standard Ratings is calculated for Coil:Cooling:DX:SingleSpeed = COIL COOLING DX SINGLE SPEED 16 10KBTU/HR 10.3EER but not at the AHRI test condition due to curve out of bound.\n   **   ~~~   **  Review the Standard Ratings calculations in the Engineering Reference for this coil type. Also, use Output:Diagnostics, DisplayExtraWarnings for further guidance.\n   ** Warning ** The Standard Ratings is calculated for Coil:Cooling:DX:SingleSpeed = COIL COOLING DX SINGLE SPEED 19 10KBTU/HR 10.3EER but not at the AHRI test condition due to curve out of bound.\n   **   ~~~   **  Review the Standard Ratings calculations in the Engineering Reference for this coil type. Also, use Output:Diagnostics, DisplayExtraWarnings for further guidance.\n   ** Warning ** The Standard Ratings is calculated for Coil:Cooling:DX:SingleSpeed = COIL COOLING DX SINGLE SPEED 18 12KBTU/HR 10.0EER but not at the AHRI test condition due to curve out of bound.\n   **   ~~~   **  Review the Standard Ratings calculations in the Engineering Reference for this coil type. Also, use Output:Diagnostics, DisplayExtraWarnings for further guidance.\n   ** Warning ** The Standard Ratings is calculated for Coil:Cooling:DX:SingleSpeed = COIL COOLING DX SINGLE SPEED 17 13KBTU/HR 9.7EER but not at the AHRI test condition due to curve out of bound.\n   **   ~~~   **  Review the Standard Ratings calculations in the Engineering Reference for this coil type. Also, use Output:Diagnostics, DisplayExtraWarnings for further guidance.\n   ** Warning ** The Standard Ratings is calculated for Coil:Cooling:DX:SingleSpeed = COIL COOLING DX SINGLE SPEED 1 88KBTU/HR 9.7EER but not at the AHRI test condition due to curve out of bound.\n   **   ~~~   **  Review the Standard Ratings calculations in the Engineering Reference for this coil type. Also, use Output:Diagnostics, DisplayExtraWarnings for further guidance.\n   ** Warning ** The Standard Ratings is calculated for Coil:Cooling:DX:SingleSpeed = COIL COOLING DX SINGLE SPEED 28 19KBTU/HR 14.0SEER but not at the AHRI test condition due to curve out of bound.\n   **   ~~~   **  Review the Standard Ratings calculations in the Engineering Reference for this coil type. Also, use Output:Diagnostics, DisplayExtraWarnings for further guidance.\n   ** Warning ** Output:Meter: invalid Name=\"DISTRICTCOOLING:FACILITY\" - not found.\n   ** Warning ** Output:Meter: invalid Name=\"DISTRICTHEATING:FACILITY\" - not found.\n   ** Warning ** Output:Meter:MeterFileOnly requested for \"Electricity:Facility\" (TimeStep), already on \"Output:Meter\". Will report to both eplusout.eso and eplusout.mtr\n   ************* Testing Individual Branch Integrity\n   ************* All Branches passed integrity testing\n   ************* Testing Individual Supply Air Path Integrity\n   ************* All Supply Air Paths passed integrity testing\n   ************* Testing Individual Return Air Path Integrity\n   ************* All Return Air Paths passed integrity testing\n   ************* No node connection errors were found.\n   ************* Beginning Simulation\n   ** Warning ** CalcDoe2DXCoil: Coil:Cooling:DX:SingleSpeed \"COIL COOLING DX SINGLE SPEED 25 7KBTU/HR 11.0EER\" - Air-cooled condenser inlet dry-bulb temperature below 0 C. Outdoor dry-bulb temperature = -11.98\n   **   ~~~   **  ... Occurrence info = RUN PERIOD 1, 01/01 10:35 - 10:40\n   **   ~~~   ** ... Operation at low ambient temperatures may require special performance curves.\n   ** Warning ** CalcDoe2DXCoil: Coil:Cooling:DX:SingleSpeed \"COIL COOLING DX SINGLE SPEED 25 7KBTU/HR 11.0EER\" - Full load outlet air dry-bulb temperature < 2C. This indicates the possibility of coil frost/freeze. Outlet temperature = -0.38 C.\n   **   ~~~   **  ...Occurrence info = RUN PERIOD 1, 01/01 10:35 - 10:40\n   **   ~~~   ** ... Possible reasons for low outlet air dry-bulb temperatures are: This DX coil\n   **   ~~~   **    1) may have a low inlet air dry-bulb temperature. Inlet air temperature = 13.547 C.\n   **   ~~~   **    2) may have a low air flow rate per watt of cooling capacity. Check inputs.\n   **   ~~~   **    3) is used as part of a HX assisted cooling coil which uses a high sensible effectiveness. Check inputs.\n   ** Warning ** CalcDoe2DXCoil: Coil:Cooling:DX:SingleSpeed \"COIL COOLING DX SINGLE SPEED 26 7KBTU/HR 11.0EER\" - Air-cooled condenser inlet dry-bulb temperature below 0 C. Outdoor dry-bulb temperature = -11.98\n   **   ~~~   **  ... Occurrence info = RUN PERIOD 1, 01/01 10:35 - 10:40\n   **   ~~~   ** ... Operation at low ambient temperatures may require special performance curves.\n   ** Warning ** CalcDoe2DXCoil: Coil:Cooling:DX:SingleSpeed \"COIL COOLING DX SINGLE SPEED 26 7KBTU/HR 11.0EER\" - Full load outlet air dry-bulb temperature < 2C. This indicates the possibility of coil frost/freeze. Outlet temperature = 0.11 C.\n   **   ~~~   **  ...Occurrence info = RUN PERIOD 1, 01/01 10:35 - 10:40\n   **   ~~~   ** ... Possible reasons for low outlet air dry-bulb temperatures are: This DX coil\n   **   ~~~   **    1) may have a low inlet air dry-bulb temperature. Inlet air temperature = 13.898 C.\n   **   ~~~   **    2) may have a low air flow rate per watt of cooling capacity. Check inputs.\n   **   ~~~   **    3) is used as part of a HX assisted cooling coil which uses a high sensible effectiveness. Check inputs.\n   ** Warning ** CalcDoe2DXCoil: Coil:Cooling:DX:SingleSpeed \"COIL COOLING DX SINGLE SPEED 8 9KBTU/HR 10.5EER\" - Air-cooled condenser inlet dry-bulb temperature below 0 C. Outdoor dry-bulb temperature = -11.98\n   **   ~~~   **  ... Occurrence info = RUN PERIOD 1, 01/01 10:40 - 10:45\n   **   ~~~   ** ... Operation at low ambient temperatures may require special performance curves.\n   ** Warning ** CalcDoe2DXCoil: Coil:Cooling:DX:SingleSpeed \"COIL COOLING DX SINGLE SPEED 27 9KBTU/HR 10.5EER\" - Air-cooled condenser inlet dry-bulb temperature below 0 C. Outdoor dry-bulb temperature = -11.40\n   **   ~~~   **  ... Occurrence info = RUN PERIOD 1, 01/01 10:45 - 10:50\n   **   ~~~   ** ... Operation at low ambient temperatures may require special performance curves.\n   ** Warning ** CalcDoe2DXCoil: Coil:Cooling:DX:SingleSpeed \"COIL COOLING DX SINGLE SPEED 7 7KBTU/HR 10.9EER\" - Air-cooled condenser inlet dry-bulb temperature below 0 C. Outdoor dry-bulb temperature = -11.40\n   **   ~~~   **  ... Occurrence info = RUN PERIOD 1, 01/01 10:45 - 10:50\n   **   ~~~   ** ... Operation at low ambient temperatures may require special performance curves.\n   ** Warning ** CalcDoe2DXCoil: Coil:Cooling:DX:SingleSpeed \"COIL COOLING DX SINGLE SPEED 7 7KBTU/HR 10.9EER\" - Full load outlet air dry-bulb temperature < 2C. This indicates the possibility of coil frost/freeze. Outlet temperature = 1.21 C.\n   **   ~~~   **  ...Occurrence info = RUN PERIOD 1, 01/01 10:45 - 10:50\n   **   ~~~   ** ... Possible reasons for low outlet air dry-bulb temperatures are: This DX coil\n   **   ~~~   **    1) may have a low inlet air dry-bulb temperature. Inlet air temperature = 14.833 C.\n   **   ~~~   **    2) may have a low air flow rate per watt of cooling capacity. Check inputs.\n   **   ~~~   **    3) is used as part of a HX assisted cooling coil which uses a high sensible effectiveness. Check inputs.\n   ** Warning ** CalcDoe2DXCoil: Coil:Cooling:DX:SingleSpeed \"COIL COOLING DX SINGLE SPEED 9 7KBTU/HR 10.9EER\" - Air-cooled condenser inlet dry-bulb temperature below 0 C. Outdoor dry-bulb temperature = -11.40\n   **   ~~~   **  ... Occurrence info = RUN PERIOD 1, 01/01 10:45 - 10:50\n   **   ~~~   ** ... Operation at low ambient temperatures may require special performance curves.\n   ** Warning ** CalcDoe2DXCoil: Coil:Cooling:DX:SingleSpeed \"COIL COOLING DX SINGLE SPEED 9 7KBTU/HR 10.9EER\" - Full load outlet air dry-bulb temperature < 2C. This indicates the possibility of coil frost/freeze. Outlet temperature = 1.42 C.\n   **   ~~~   **  ...Occurrence info = RUN PERIOD 1, 01/01 10:45 - 10:50\n   **   ~~~   ** ... Possible reasons for low outlet air dry-bulb temperatures are: This DX coil\n   **   ~~~   **    1) may have a low inlet air dry-bulb temperature. Inlet air temperature = 14.994 C.\n   **   ~~~   **    2) may have a low air flow rate per watt of cooling capacity. Check inputs.\n   **   ~~~   **    3) is used as part of a HX assisted cooling coil which uses a high sensible effectiveness. Check inputs.\n   ** Warning ** CalcDoe2DXCoil: Coil:Cooling:DX:SingleSpeed \"COIL COOLING DX SINGLE SPEED 18 12KBTU/HR 10.0EER\" - Air-cooled condenser inlet dry-bulb temperature below 0 C. Outdoor dry-bulb temperature = -11.40\n   **   ~~~   **  ... Occurrence info = RUN PERIOD 1, 01/01 10:45 - 10:50\n   **   ~~~   ** ... Operation at low ambient temperatures may require special performance curves.\n   ** Warning ** CalcDoe2DXCoil: Coil:Cooling:DX:SingleSpeed \"COIL COOLING DX SINGLE SPEED 19 10KBTU/HR 10.3EER\" - Air-cooled condenser inlet dry-bulb temperature below 0 C. Outdoor dry-bulb temperature = -11.40\n   **   ~~~   **  ... Occurrence info = RUN PERIOD 1, 01/01 10:55 - 11:00\n   **   ~~~   ** ... Operation at low ambient temperatures may require special performance curves.\n   ** Warning ** CalcDoe2DXCoil: Coil:Cooling:DX:SingleSpeed \"COIL COOLING DX SINGLE SPEED 16 10KBTU/HR 10.3EER\" - Air-cooled condenser inlet dry-bulb temperature below 0 C. Outdoor dry-bulb temperature = -10.63\n   **   ~~~   **  ... Occurrence info = RUN PERIOD 1, 01/01 11:00 - 11:05\n   **   ~~~   ** ... Operation at low ambient temperatures may require special performance curves.\n   ** Warning ** CalcDoe2DXCoil: Coil:Cooling:DX:SingleSpeed \"COIL COOLING DX SINGLE SPEED 10 11KBTU/HR 10.2EER\" - Air-cooled condenser inlet dry-bulb temperature below 0 C. Outdoor dry-bulb temperature = -10.63\n   **   ~~~   **  ... Occurrence info = RUN PERIOD 1, 01/01 11:10 - 11:15\n   **   ~~~   ** ... Operation at low ambient temperatures may require special performance curves.\n   ** Warning ** CalcDoe2DXCoil: Coil:Cooling:DX:SingleSpeed \"COIL COOLING DX SINGLE SPEED 17 13KBTU/HR 9.7EER\" - Air-cooled condenser inlet dry-bulb temperature below 0 C. Outdoor dry-bulb temperature = -10.63\n   **   ~~~   **  ... Occurrence info = RUN PERIOD 1, 01/01 11:10 - 11:15\n   **   ~~~   ** ... Operation at low ambient temperatures may require special performance curves.\n   ** Warning ** CalcDoe2DXCoil: Coil:Cooling:DX:SingleSpeed \"COIL COOLING DX SINGLE SPEED 6 6KBTU/HR 11.0EER\" - Air-cooled condenser inlet dry-bulb temperature below 0 C. Outdoor dry-bulb temperature = -0.15\n   **   ~~~   **  ... Occurrence info = RUN PERIOD 1, 02/07 15:00 - 15:15\n   **   ~~~   ** ... Operation at low ambient temperatures may require special performance curves.\n   ** Warning ** CalcDoe2DXCoil: Coil:Cooling:DX:SingleSpeed \"COIL COOLING DX SINGLE SPEED 28 19KBTU/HR 14.0SEER\" - Full load outlet air dry-bulb temperature < 2C. This indicates the possibility of coil frost/freeze. Outlet temperature = -1.15 C.\n   **   ~~~   **  ...Occurrence info = RUN PERIOD 1, 03/12 10:02 - 10:05\n   **   ~~~   ** ... Possible reasons for low outlet air dry-bulb temperatures are: This DX coil\n   **   ~~~   **    1) may have a low inlet air dry-bulb temperature. Inlet air temperature = 12.564 C.\n   **   ~~~   **    2) may have a low air flow rate per watt of cooling capacity. Check inputs.\n   **   ~~~   **    3) is used as part of a HX assisted cooling coil which uses a high sensible effectiveness. Check inputs.\n   ** Warning ** CalcDoe2DXCoil: Coil:Cooling:DX:SingleSpeed \"COIL COOLING DX SINGLE SPEED 20 8KBTU/HR 10.7EER\" - Air-cooled condenser inlet dry-bulb temperature below 0 C. Outdoor dry-bulb temperature = -1.20\n   **   ~~~   **  ... Occurrence info = RUN PERIOD 1, 03/15 16:45 - 16:52\n   **   ~~~   ** ... Operation at low ambient temperatures may require special performance curves.\n   ** Warning ** CalcDoe2DXCoil: Coil:Cooling:DX:SingleSpeed \"COIL COOLING DX SINGLE SPEED 4 5KBTU/HR 11.0EER\" - Air-cooled condenser inlet dry-bulb temperature below 0 C. Outdoor dry-bulb temperature = -0.10\n   **   ~~~   **  ... Occurrence info = RUN PERIOD 1, 03/18 23:15 - 23:30\n   **   ~~~   ** ... Operation at low ambient temperatures may require special performance curves.\n   ** Warning ** CalcDoe2DXCoil: Coil:Cooling:DX:SingleSpeed \"COIL COOLING DX SINGLE SPEED 3 5KBTU/HR 11.0EER\" - Air-cooled condenser inlet dry-bulb temperature below 0 C. Outdoor dry-bulb temperature = -0.10\n   **   ~~~   **  ... Occurrence info = RUN PERIOD 1, 03/18 23:15 - 23:30\n   **   ~~~   ** ... Operation at low ambient temperatures may require special performance curves.\n   ** Warning ** CalcDoe2DXCoil: Coil:Cooling:DX:SingleSpeed \"COIL COOLING DX SINGLE SPEED 2 9KBTU/HR 10.5EER\" - Air-cooled condenser inlet dry-bulb temperature below 0 C. Outdoor dry-bulb temperature = -5.55E-017\n   **   ~~~   **  ... Occurrence info = RUN PERIOD 1, 03/19 10:10 - 10:12\n   **   ~~~   ** ... Operation at low ambient temperatures may require special performance curves.\n   ** Warning ** CalcDoe2DXCoil: Coil:Cooling:DX:SingleSpeed \"COIL COOLING DX SINGLE SPEED 4 5KBTU/HR 11.0EER\" - Full load outlet air dry-bulb temperature < 2C. This indicates the possibility of coil frost/freeze. Outlet temperature = 1.99 C.\n   **   ~~~   **  ...Occurrence info = RUN PERIOD 1, 03/19 22:45 - 23:00\n   **   ~~~   ** ... Possible reasons for low outlet air dry-bulb temperatures are: This DX coil\n   **   ~~~   **    1) may have a low inlet air dry-bulb temperature. Inlet air temperature = 14.953 C.\n   **   ~~~   **    2) may have a low air flow rate per watt of cooling capacity. Check inputs.\n   **   ~~~   **    3) is used as part of a HX assisted cooling coil which uses a high sensible effectiveness. Check inputs.\n   ** Warning ** CalcDoe2DXCoil: Coil:Cooling:DX:SingleSpeed \"COIL COOLING DX SINGLE SPEED 5 10KBTU/HR 10.5EER\" - Air-cooled condenser inlet dry-bulb temperature below 0 C. Outdoor dry-bulb temperature = -0.20\n   **   ~~~   **  ... Occurrence info = RUN PERIOD 1, 03/21 18:45 - 18:52\n   **   ~~~   ** ... Operation at low ambient temperatures may require special performance curves.\n   ** Warning ** CalcDoe2DXCoil: Coil:Cooling:DX:SingleSpeed \"COIL COOLING DX SINGLE SPEED 24 6KBTU/HR 11.0EER\" - Air-cooled condenser inlet dry-bulb temperature below 0 C. Outdoor dry-bulb temperature = -0.85\n   **   ~~~   **  ... Occurrence info = RUN PERIOD 1, 04/01 14:15 - 14:30\n   **   ~~~   ** ... Operation at low ambient temperatures may require special performance curves.\n   ** Warning ** CalcDoe2DXCoil: Coil:Cooling:DX:SingleSpeed \"COIL COOLING DX SINGLE SPEED 23 9KBTU/HR 10.6EER\" - Air-cooled condenser inlet dry-bulb temperature below 0 C. Outdoor dry-bulb temperature = -0.60\n   **   ~~~   **  ... Occurrence info = RUN PERIOD 1, 04/07 08:45 - 08:52\n   **   ~~~   ** ... Operation at low ambient temperatures may require special performance curves.\n   ** Warning ** CalcDoe2DXCoil: Coil:Cooling:DX:SingleSpeed \"COIL COOLING DX SINGLE SPEED 3 5KBTU/HR 11.0EER\" - Full load outlet air dry-bulb temperature < 2C. This indicates the possibility of coil frost/freeze. Outlet temperature = 1.97 C.\n   **   ~~~   **  ...Occurrence info = RUN PERIOD 1, 04/08 22:00 - 22:15\n   **   ~~~   ** ... Possible reasons for low outlet air dry-bulb temperatures are: This DX coil\n   **   ~~~   **    1) may have a low inlet air dry-bulb temperature. Inlet air temperature = 15.018 C.\n   **   ~~~   **    2) may have a low air flow rate per watt of cooling capacity. Check inputs.\n   **   ~~~   **    3) is used as part of a HX assisted cooling coil which uses a high sensible effectiveness. Check inputs.\n   ** Warning ** CalcDoe2DXCoil: Coil:Cooling:DX:SingleSpeed \"COIL COOLING DX SINGLE SPEED 1 88KBTU/HR 9.7EER\" - Full load outlet air dry-bulb temperature < 2C. This indicates the possibility of coil frost/freeze. Outlet temperature = 1.79 C.\n   **   ~~~   **  ...Occurrence info = RUN PERIOD 1, 05/23 16:45 - 17:00\n   **   ~~~   ** ... Possible reasons for low outlet air dry-bulb temperatures are: This DX coil\n   **   ~~~   **    1) may have a low inlet air dry-bulb temperature. Inlet air temperature = 20.000 C.\n   **   ~~~   **    2) may have a low air flow rate per watt of cooling capacity. Check inputs.\n   **   ~~~   **    3) is used as part of a HX assisted cooling coil which uses a high sensible effectiveness. Check inputs.\n   ** Warning ** Plant Loop: HOT WATER LOOP Demand Side is storing excess heat the majority of the time.\n   ** Warning ** Plant Loop: HOT WATER LOOP Supply Side is storing excess heat the majority of the time.\n   ************* Simulation Error Summary *************\n   ************* There are 9 unused schedules in input.\n   ************* There are 9 unused week schedules in input.\n   ************* There are 17 unused day schedules in input.\n   ************* Use Output:Diagnostics,DisplayUnusedSchedules; to see them.\n   *************\n   ************* ===== Recurring Error Summary =====\n   ************* The following recurring error messages occurred.\n   *************\n   *************  ** Warning ** CalcDoe2DXCoil: Coil:Cooling:DX:SingleSpeed=\"COIL COOLING DX SINGLE SPEED 25 7KBTU/HR 11.0EER\" - Low condenser dry-bulb temperature error continues...\n   *************  **   ~~~   **   This error occurred 2023 total times;\n   *************  **   ~~~   **   during Warmup 0 times;\n   *************  **   ~~~   **   during Sizing 0 times.\n   *************  **   ~~~   **   Max=-5.551115E-017 [C]  Min=-22.8 [C]\n   *************\n   *************  ** Warning ** CalcDoe2DXCoil: Coil:Cooling:DX:SingleSpeed=\"COIL COOLING DX SINGLE SPEED 25 7KBTU/HR 11.0EER\" - Full load outlet temperature indicates a possibility of frost/freeze error continues. Outlet air temperature statistics follow:\n   *************  **   ~~~   **   This error occurred 1341 total times;\n   *************  **   ~~~   **   during Warmup 0 times;\n   *************  **   ~~~   **   during Sizing 0 times.\n   *************  **   ~~~   **   Max=1.999297  Min=-3.754028\n   *************\n   *************  ** Warning ** CalcDoe2DXCoil: Coil:Cooling:DX:SingleSpeed=\"COIL COOLING DX SINGLE SPEED 26 7KBTU/HR 11.0EER\" - Low condenser dry-bulb temperature error continues...\n   *************  **   ~~~   **   This error occurred 1979 total times;\n   *************  **   ~~~   **   during Warmup 0 times;\n   *************  **   ~~~   **   during Sizing 0 times.\n   *************  **   ~~~   **   Max=-5.551115E-017 [C]  Min=-22.8 [C]\n   *************\n   *************  ** Warning ** CalcDoe2DXCoil: Coil:Cooling:DX:SingleSpeed=\"COIL COOLING DX SINGLE SPEED 26 7KBTU/HR 11.0EER\" - Full load outlet temperature indicates a possibility of frost/freeze error continues. Outlet air temperature statistics follow:\n   *************  **   ~~~   **   This error occurred 1035 total times;\n   *************  **   ~~~   **   during Warmup 0 times;\n   *************  **   ~~~   **   during Sizing 0 times.\n   *************  **   ~~~   **   Max=1.999721  Min=-2.997003\n   *************\n   *************  ** Warning ** CalcDoe2DXCoil: Coil:Cooling:DX:SingleSpeed=\"COIL COOLING DX SINGLE SPEED 8 9KBTU/HR 10.5EER\" - Low condenser dry-bulb temperature error continues...\n   *************  **   ~~~   **   This error occurred 2296 total times;\n   *************  **   ~~~   **   during Warmup 0 times;\n   *************  **   ~~~   **   during Sizing 0 times.\n   *************  **   ~~~   **   Max=-5.551115E-017 [C]  Min=-21.7 [C]\n   *************\n   *************  ** Warning ** CalcDoe2DXCoil: Coil:Cooling:DX:SingleSpeed=\"COIL COOLING DX SINGLE SPEED 27 9KBTU/HR 10.5EER\" - Low condenser dry-bulb temperature error continues...\n   *************  **   ~~~   **   This error occurred 1694 total times;\n   *************  **   ~~~   **   during Warmup 0 times;\n   *************  **   ~~~   **   during Sizing 0 times.\n   *************  **   ~~~   **   Max=-5.000000E-002 [C]  Min=-21.125 [C]\n   *************\n   *************  ** Warning ** CalcDoe2DXCoil: Coil:Cooling:DX:SingleSpeed=\"COIL COOLING DX SINGLE SPEED 7 7KBTU/HR 10.9EER\" - Low condenser dry-bulb temperature error continues...\n   *************  **   ~~~   **   This error occurred 3592 total times;\n   *************  **   ~~~   **   during Warmup 0 times;\n   *************  **   ~~~   **   during Sizing 0 times.\n   *************  **   ~~~   **   Max=-5.551115E-017 [C]  Min=-21.5 [C]\n   *************\n   *************  ** Warning ** CalcDoe2DXCoil: Coil:Cooling:DX:SingleSpeed=\"COIL COOLING DX SINGLE SPEED 7 7KBTU/HR 10.9EER\" - Full load outlet temperature indicates a possibility of frost/freeze error continues. Outlet air temperature statistics follow:\n   *************  **   ~~~   **   This error occurred 891 total times;\n   *************  **   ~~~   **   during Warmup 0 times;\n   *************  **   ~~~   **   during Sizing 0 times.\n   *************  **   ~~~   **   Max=1.998449  Min=-1.238941\n   *************\n   *************  ** Warning ** CalcDoe2DXCoil: Coil:Cooling:DX:SingleSpeed=\"COIL COOLING DX SINGLE SPEED 9 7KBTU/HR 10.9EER\" - Low condenser dry-bulb temperature error continues...\n   *************  **   ~~~   **   This error occurred 3580 total times;\n   *************  **   ~~~   **   during Warmup 0 times;\n   *************  **   ~~~   **   during Sizing 0 times.\n   *************  **   ~~~   **   Max=-5.551115E-017 [C]  Min=-21.4 [C]\n   *************\n   *************  ** Warning ** CalcDoe2DXCoil: Coil:Cooling:DX:SingleSpeed=\"COIL COOLING DX SINGLE SPEED 9 7KBTU/HR 10.9EER\" - Full load outlet temperature indicates a possibility of frost/freeze error continues. Outlet air temperature statistics follow:\n   *************  **   ~~~   **   This error occurred 800 total times;\n   *************  **   ~~~   **   during Warmup 0 times;\n   *************  **   ~~~   **   during Sizing 0 times.\n   *************  **   ~~~   **   Max=1.999913  Min=-1.078725\n   *************\n   *************  ** Warning ** CalcDoe2DXCoil: Coil:Cooling:DX:SingleSpeed=\"COIL COOLING DX SINGLE SPEED 18 12KBTU/HR 10.0EER\" - Low condenser dry-bulb temperature error continues...\n   *************  **   ~~~   **   This error occurred 1175 total times;\n   *************  **   ~~~   **   during Warmup 0 times;\n   *************  **   ~~~   **   during Sizing 0 times.\n   *************  **   ~~~   **   Max=-5.551115E-017 [C]  Min=-22. [C]\n   *************\n   *************  ** Warning ** CalcDoe2DXCoil: Coil:Cooling:DX:SingleSpeed=\"COIL COOLING DX SINGLE SPEED 19 10KBTU/HR 10.3EER\" - Low condenser dry-bulb temperature error continues...\n   *************  **   ~~~   **   This error occurred 1115 total times;\n   *************  **   ~~~   **   during Warmup 0 times;\n   *************  **   ~~~   **   during Sizing 0 times.\n   *************  **   ~~~   **   Max=-0.1 [C]  Min=-20.55 [C]\n   *************\n   *************  ** Warning ** CalcDoe2DXCoil: Coil:Cooling:DX:SingleSpeed=\"COIL COOLING DX SINGLE SPEED 16 10KBTU/HR 10.3EER\" - Low condenser dry-bulb temperature error continues...\n   *************  **   ~~~   **   This error occurred 1099 total times;\n   *************  **   ~~~   **   during Warmup 0 times;\n   *************  **   ~~~   **   during Sizing 0 times.\n   *************  **   ~~~   **   Max=-0.1 [C]  Min=-20.55 [C]\n   *************\n   *************  ** Warning ** CalcDoe2DXCoil: Coil:Cooling:DX:SingleSpeed=\"COIL COOLING DX SINGLE SPEED 10 11KBTU/HR 10.2EER\" - Low condenser dry-bulb temperature error continues...\n   *************  **   ~~~   **   This error occurred 2179 total times;\n   *************  **   ~~~   **   during Warmup 0 times;\n   *************  **   ~~~   **   during Sizing 0 times.\n   *************  **   ~~~   **   Max=-5.000000E-002 [C]  Min=-20. [C]\n   *************\n   *************  ** Warning ** CalcDoe2DXCoil: Coil:Cooling:DX:SingleSpeed=\"COIL COOLING DX SINGLE SPEED 17 13KBTU/HR 9.7EER\" - Low condenser dry-bulb temperature error continues...\n   *************  **   ~~~   **   This error occurred 1011 total times;\n   *************  **   ~~~   **   during Warmup 0 times;\n   *************  **   ~~~   **   during Sizing 0 times.\n   *************  **   ~~~   **   Max=-0.1 [C]  Min=-19.975 [C]\n   *************\n   *************  ** Warning ** CalcDoe2DXCoil: Coil:Cooling:DX:SingleSpeed=\"COIL COOLING DX SINGLE SPEED 6 6KBTU/HR 11.0EER\" - Low condenser dry-bulb temperature error continues...\n   *************  **   ~~~   **   This error occurred 567 total times;\n   *************  **   ~~~   **   during Warmup 0 times;\n   *************  **   ~~~   **   during Sizing 0 times.\n   *************  **   ~~~   **   Max=-2.500000E-002 [C]  Min=-10.3 [C]\n   *************\n   *************  ** Warning ** CalcDoe2DXCoil: Coil:Cooling:DX:SingleSpeed=\"COIL COOLING DX SINGLE SPEED 28 19KBTU/HR 14.0SEER\" - Full load outlet temperature indicates a possibility of frost/freeze error continues. Outlet air temperature statistics follow:\n   *************  **   ~~~   **   This error occurred 1014 total times;\n   *************  **   ~~~   **   during Warmup 0 times;\n   *************  **   ~~~   **   during Sizing 0 times.\n   *************  **   ~~~   **   Max=1.998638  Min=-5.781925\n   *************\n   *************  ** Warning ** CalcDoe2DXCoil: Coil:Cooling:DX:SingleSpeed=\"COIL COOLING DX SINGLE SPEED 20 8KBTU/HR 10.7EER\" - Low condenser dry-bulb temperature error continues...\n   *************  **   ~~~   **   This error occurred 31 total times;\n   *************  **   ~~~   **   during Warmup 0 times;\n   *************  **   ~~~   **   during Sizing 0 times.\n   *************  **   ~~~   **   Max=-0.15 [C]  Min=-1.7 [C]\n   *************\n   *************  ** Warning ** CalcDoe2DXCoil: Coil:Cooling:DX:SingleSpeed=\"COIL COOLING DX SINGLE SPEED 4 5KBTU/HR 11.0EER\" - Low condenser dry-bulb temperature error continues...\n   *************  **   ~~~   **   This error occurred 101 total times;\n   *************  **   ~~~   **   during Warmup 0 times;\n   *************  **   ~~~   **   during Sizing 0 times.\n   *************  **   ~~~   **   Max=-5.000000E-002 [C]  Min=-3.175 [C]\n   *************\n   *************  ** Warning ** CalcDoe2DXCoil: Coil:Cooling:DX:SingleSpeed=\"COIL COOLING DX SINGLE SPEED 3 5KBTU/HR 11.0EER\" - Low condenser dry-bulb temperature error continues...\n   *************  **   ~~~   **   This error occurred 83 total times;\n   *************  **   ~~~   **   during Warmup 0 times;\n   *************  **   ~~~   **   during Sizing 0 times.\n   *************  **   ~~~   **   Max=-5.000000E-002 [C]  Min=-3.175 [C]\n   *************\n   *************  ** Warning ** CalcDoe2DXCoil: Coil:Cooling:DX:SingleSpeed=\"COIL COOLING DX SINGLE SPEED 2 9KBTU/HR 10.5EER\" - Low condenser dry-bulb temperature error continues...\n   *************  **   ~~~   **   This error occurred 19 total times;\n   *************  **   ~~~   **   during Warmup 0 times;\n   *************  **   ~~~   **   during Sizing 0 times.\n   *************  **   ~~~   **   Max=-5.551115E-017 [C]  Min=-1.425 [C]\n   *************\n   *************  ** Warning ** CalcDoe2DXCoil: Coil:Cooling:DX:SingleSpeed=\"COIL COOLING DX SINGLE SPEED 4 5KBTU/HR 11.0EER\" - Full load outlet temperature indicates a possibility of frost/freeze error continues. Outlet air temperature statistics follow:\n   *************  **   ~~~   **   This error occurred 17 total times;\n   *************  **   ~~~   **   during Warmup 0 times;\n   *************  **   ~~~   **   during Sizing 0 times.\n   *************  **   ~~~   **   Max=1.992534  Min=1.364056\n   *************\n   *************  ** Warning ** CalcDoe2DXCoil: Coil:Cooling:DX:SingleSpeed=\"COIL COOLING DX SINGLE SPEED 5 10KBTU/HR 10.5EER\" - Low condenser dry-bulb temperature error continues...\n   *************  **   ~~~   **   This error occurred 84 total times;\n   *************  **   ~~~   **   during Warmup 0 times;\n   *************  **   ~~~   **   during Sizing 0 times.\n   *************  **   ~~~   **   Max=-5.000000E-002 [C]  Min=-3.9 [C]\n   *************\n   *************  ** Warning ** CalcDoe2DXCoil: Coil:Cooling:DX:SingleSpeed=\"COIL COOLING DX SINGLE SPEED 24 6KBTU/HR 11.0EER\" - Low condenser dry-bulb temperature error continues...\n   *************  **   ~~~   **   This error occurred 10 total times;\n   *************  **   ~~~   **   during Warmup 0 times;\n   *************  **   ~~~   **   during Sizing 0 times.\n   *************  **   ~~~   **   Max=-0.15 [C]  Min=-0.85 [C]\n   *************\n   *************  ** Warning ** CalcDoe2DXCoil: Coil:Cooling:DX:SingleSpeed=\"COIL COOLING DX SINGLE SPEED 23 9KBTU/HR 10.6EER\" - Low condenser dry-bulb temperature error continues...\n   *************  **   ~~~   **   This error occurred 16 total times;\n   *************  **   ~~~   **   during Warmup 0 times;\n   *************  **   ~~~   **   during Sizing 0 times.\n   *************  **   ~~~   **   Max=-0.3 [C]  Min=-1.525 [C]\n   *************\n   *************  ** Warning ** CalcDoe2DXCoil: Coil:Cooling:DX:SingleSpeed=\"COIL COOLING DX SINGLE SPEED 3 5KBTU/HR 11.0EER\" - Full load outlet temperature indicates a possibility of frost/freeze error continues. Outlet air temperature statistics follow:\n   *************  **   ~~~   **   This error occurred 21 total times;\n   *************  **   ~~~   **   during Warmup 0 times;\n   *************  **   ~~~   **   during Sizing 0 times.\n   *************  **   ~~~   **   Max=1.972602  Min=1.215377\n   *************\n   *************  ** Warning ** CalcDoe2DXCoil: Coil:Cooling:DX:SingleSpeed=\"COIL COOLING DX SINGLE SPEED 1 88KBTU/HR 9.7EER\" - Full load outlet temperature indicates a possibility of frost/freeze error continues. Outlet air temperature statistics follow:\n   *************  **   ~~~   **   This error occurred 20 total times;\n   *************  **   ~~~   **   during Warmup 0 times;\n   *************  **   ~~~   **   during Sizing 0 times.\n   *************  **   ~~~   **   Max=1.988044  Min=0.295988\n   *************\n   *************\n   ************* ===== Final Error Summary =====\n   ************* The following error categories occurred.  Consider correcting or noting.\n   ************* Nominally Unused Constructions\n   ************* ..The nominally unused constructions warning is provided to alert you to potential conditions that can cause\n   ************* ..extra time during simulation. Each construction is calculated by the algorithm indicated in the HeatBalanceAlgorithm\n   ************* ..object. You may remove the constructions indicated (when you use the DisplayExtraWarnings option).\n   *************\n   ************* EnergyPlus Warmup Error Summary. During Warmup: 0 Warning; 0 Severe Errors.\n   ************* EnergyPlus Sizing Error Summary. During Sizing: 181 Warning; 0 Severe Errors.\n   ************* EnergyPlus Completed Successfully-- 28008 Warning; 0 Severe Errors; Elapsed Time=00hr 02min 21.88sec\n",
   "file_format_version" : "0.0.1",
   "file_paths" : [ "../weather", "../seeds", "../seed" ],
   "hash" : "5BF4DBD8",
   "measure_paths" : [ "../measures" ],
   "name" : "LHS Autogenerated 1042",
   "osa_id" : "4fef0e0f-5396-4c55-a6e1-2cd6803db3ab",
   "osd_id" : "63c9b0d4-fb5a-4718-a204-2fc5d0d0e563",
   "run_directory" : "./run",
   "seed_file" : "seed.osm",
   "started_at" : "20170710T193102Z",
   "steps" : [
      {
         "arguments" : {
            "__SKIP__" : false,
            "building_type" : "MidriseApartment",
            "climate_zone" : "NECB HDD Method",
            "epw_file" : "CAN_NB_Fredericton.717000_CWEC.epw",
            "template" : "NECB 2011"
         },
         "measure_dir_name" : "create_prototype_building",
         "name" : "create_prototype_building",
         "result" : {
            "completed_at" : "20170710T193221Z",
            "measure_class_name" : "CreatePrototypeBuilding",
            "measure_display_name" : "Create Prototype Building",
            "measure_name" : "create_prototype_building",
            "measure_taxonomy" : "Whole Building.Space Types",
            "measure_type" : "ModelMeasure",
            "measure_uid" : "ae90fsd7-a651-467a-bc8d-29d310b0f937",
            "measure_version_id" : "c6ec5c18-5595-459f-a082-09a19c8c869c",
            "measure_version_modified" : "20170519T182315Z",
            "measure_xml_checksum" : "057E8D9D",
            "started_at" : "20170710T193104Z",
            "stderr" : "",
[...]
BbRoKSpV6sNuANg0FpXo9WGxAm4ZuxlSzB1sNaNNQUKrZg5U2r01b5gBtGgqqXxHQpqGg+vADbRoKqg8/0KahoPrwE20aS4p1e7DZiDaNJcXqPVhuRJvGkmINH+w3ok1jd2Ws44MVR7RpLCnW8cGWU5umNk1t2idCtWnvozZNbZratMGoTVObtuqvUpu2eP6Kz6tNexy1afd5wbe0NmYXEEccccQRRxxxxBFHHHHE2T3OxqQD0kgjjTTSSCONNNJII400+6H5NrIDccQRRxxxxBFHHHHEEUec+eepTfsYtWl3bVrbhzbtvANt2vnLtGlvP3rEmkZyDqGcYyjnFMo5h3IuoZxrKOcWyln86B4FpRrdUpVuqU63VKlbqtUtVeuW6nVLFbulmt1Tze6xuzrV7J5qdl/V7Of1aIuoeTsaiCnf0LwbDcSU537ejAZiyjM/70UDMeV5B1Y0khPqcb3GgBKN5ISqXO8w4EMjOaE21wsMyNDIPRjqc729gAmN5IT6XK+ueQ3aIgZY0EhO+XqAA43klMcdGNBITnncgf+M5JTHndjPUFCq0fUGI+ozFJQqdb3EiPcMBaV6Xe8xIj1DN2Oq2fUqI8YzFJRqdr3N1J2pO1N39olQ3dn7qDtTd6bubDDqztSdrfqr1J0tnr/i8+rOHkfd2X1e8O2qjVkBxBFHHHHEEUccccQRRxxxdo+zMVmANNJII4000kgjjTTSSCPNfmi+jaRAHHHEEUccccQRRxxxxBFn/nnqzj5G3dldd9b3oTu77EB3dvlC3dnbKeQ7A0GHVNAxFXRKBZ1TQZdU0DUVdEsF/fJze5IU63aLlbvF2t1i9W6xfrdYwVus4S1W8RbreI91vOfu71jHe6zjfV3H12jQHrOIB20+p35LxIQ2n1PfAsSFNp9T3wDEhjafU59+5EMDQalGD9YbUqKBoFSpB7sNWdFAUKrXg8WGxGjgZkw1e7DVkBsNBKWaPVhpRI/2mIP8aCCofkXIkAaC6sOPHGkgqD78yJIGgurDzzxpJCnW7cFmY6o0khSr92C5MVsaSYo1fLDfmDCN3JWxjg9WHHOmkaRYxwdbTm2a2jS1aZ8I1aa9j9o0tWlq0wajNk1t2qq/Sm3a4vkrPq827XHUpt3nBd/S2phdQBxxxBFHHHHEEUccccQRZ/c4G5MOSCONNNJII4000kgjjTTS7Ifm28gOxBFHHHHEEUccccQRRxxx5p+nNu1j1KbdtWmHfWjTrjvQpl2/TJt2/vmj0FnFTSrokAo6poJOqaBzKuiSCrqmgm6poMWv71lSrNstVu4Wa3eL1bvF+t1iBW+xhrdYxVus4z3W8Z67v2Md77GO93Udf16btsya16aRnPotzWvTSE59C8xr00hOfQPMa9NITn36gTYNBaUaPVhvQJuGglKlHuw2oE1DQaleDxYb0KahmzHV7MFWA9o0FJRq9mClzWvTljlAm4aC6lcEtGkoqD78QJuGgurDD7RpKKg+/ESbxpJi3R5sNqJNY0mxeg+WG9GmsaRYwwf7jWjT2F0Z6/hgxRFtGkuKdXyw5dSmqU1Tm/aJUG3a+6hNU5umNm0watPUpq36q9SmLZ6/4vNq0x5Hbdp9XvAtrY3ZBcQRRxxxxBFHHHHEEUcccXaPszHpgDTSSCONNNJII4000kgjzX5ovo3sQBxxxBFHHHHEEUccccQRZ/55atM+Rm3aXZt23Ic27bYDbdrty7Rpbz96xJpGcg6hnGMo5xTKOYdyLqGcayjnFspZ/OgeBaUa3VKVbqlOt1SpW6rVLVXrlup1SxW7pZrdU83usbs61eyeanZf1ezn9WiLqHk7Gogp39C8Gw3ElOd+3owGYsozP+9FAzHleQdWNJIT6nG9xoASjeSEqlzvMOBDIzmhNtcLDMjQyD0Y6nO9vYAJjeSE+lyvrnkN2iIGWNBITvl6gAON5JTHHRjQSE553IH/jOSUx53Yz1BQqtH1BiPqMxSUKnW9xIj3DAWlel3vMSI9Qzdjqtn1KiPGMxSUana9zdSdqTtTd/aJUN3Z+6g7U3em7mww6s7Una36q9SdLZ6/4vPqzh5H3dl9XvDtqo1ZAcQRRxxxxBFHHHHEEUcccXaPszFZgDTSSCONNNJII4000kgjzX5ovo2kQBxxxBFHHHHEEUccccQRZ/556s4+Rt3ZXXd22oXu7PK2fd3ZXxm/Tnf2dgr5zkDQIRV0TAWdUkHnVNAlFXRNBd1SQb/83J4kxbrdYuVusXa3WL1brN8tVvAWa3iLVbzFOt5jHe+5+zvW8R7reF/X8TUatMcs4kGbz6nfEjGhzefUtwBxoc3n1DcAsaHN59SnH/nQQFCq0YP1hpRoIChV6sFuQ1Y0EJTq9WCxITEauBlTzR5sNeRGA0GpZg9WGtGjPeYgPxoIql8RMqSBoPrwI0caCKoPP7KkgaD68DNPGkmKdXuw2ZgqjSTF6j1YbsyWRpJiDR/sNyZMI3dlrOODFcecaSQp1vHBllObpjZNbdonQrVp76M2TW2a2rTBqE1Tm7bqr1Kbtnj+is+rTXsctWn3ecG3tDZmFxBHHHHEEUccccQRRxxxxNk9zsakA9JII4000kgjjTTSSCONNPuh+TayA3HEEUccccQRRxxxxBFHnPnnqU37GLVpd23aeR/atLYDbVr7Mm3a+eePQmcVN6mgQyromAo6pYLOqaBLKuiaCrqlgha/vmdJsW63WLlbrN0tVu8W63eLFbzFGt5iFW+xjvdYx3vu/o51vMc63td1/Hlt2jJrXptGcuq3NK9NIzn1LTCvTSM59Q0wr00jOfXpB9o0FJRq9GC9AW0aCkqVerDbgDYNBaV6PVhsQJuGbsZUswdbDWjTUFCq2YOVNq9NW+YAbRoKql8R0KahoPrwA20aCqoPP9CmoaD68BNtGkuKdXuw2Yg2jSXF6j1YbkSbxpJiDR/sN6JNY3dlrOODFUe0aSwp1vHBllObpjZNbdonQrVp76M2TW2a2rTBqE1Tm7bqr1Kbtnj+is+rTXsctWn3ecG3tDZmFxBHHHHEEUccccQRRxxxxNk9zsakA9JII4000kgjjTTSSCONNPuh+TayA3HEEUccccQRRxxxxBFHnPnnqU37GLVpd23aZR/atL4DbVr/Mm3a248esaaRnEMo5xjKOYVyzqGcSyjnGsq5hXIWP7pHQalGt1SlW6rTLVXqlmp1S9W6pXrdUsVuqWb3VLN77K5ONbunmt1XNft5Pdoiat6OBmLKNzTvRgMx5bmfN6OBmPLMz3vRQEx53oEVjeSEelyvMaBEIzmhKtc7DPjQSE6ozfUCAzI0cg+G+lxvL2BCIzmhPtera16DtogBFjSSU74e4EAjOeVxBwY0klMed+A/IznlcSf2MxSUanS9wYj6DAWlSl0vMeI9Q0GpXtd7jEjP0M2Yana9yojxDAWlml1vM3Vn6s7UnX0iVHf2PurO1J2pOxuMujN1Z6v+KnVni+ev+Ly6s8dRd3afF3y7amNWAHHEEUccccQRRxxxxBFHnN3jbEwWII000kgjjTTSSCONNNJIsx+abyMpEEccccQRRxxxxBFHHHHEmX+eurOPUXd2151d96E7O+xAd3b4Qt3Z2ynkOwNBh1TQMRV0SgWdU0GXVNA1FXRLBf3yc3uSFOt2i5W7xdrdYvVusX63WMFbrOEtVvEW63iPdbzn7u9Yx3us431dx9do0B6ziAdtPqd+S8SENp9T3wLEhTafU98AxIY2n1OffuRDA0GpRg/WG1KigaBUqQe7DVnRQFCq14PFhsRo4GZMNXuw1ZAbDQSlmj1YaUSP9piD/GggqH5FyJAGgurDjxxpIKg+/MiSBoLqw888aSQp1u3BZmOqNJIUq/dguTFbGkmKNXyw35gwjdyVsY4PVhxzppGkWMcHW05tmto0tWmfCNWmvY/aNLVpatMGozZNbdqqv0pt2uL5Kz6vNu1x1Kbd5wXf0tqYXUAcccQRRxxxxBFHHHHEEWf3OBuTDkgjjTTSSCONNNJII4000uyH5tvIDsQRRxxxxBFHHHHEEUccceafpzbtY9Sm3bVpt31o04470KYdv0ybdv75o9BZxU0q6JAKOqaCTqmgcyrokgq6poJuqaDFr+9ZUqzbLVbuFmt3i9W7xfrdYgVvsYa3WMVbrOM91vGeu79jHe+xjvd1HX9em7bMmtemkZz6Lc1r00hOfQvMa9NITn0DzGvTSE59+oE2DQWlGj1Yb0CbhoJSpR7sNqBNQ0GpXg8WG9CmoZsx1ezBVgPaNBSUavZgpc1r05Y5QJuGgupXBLRpKKg+/ECbhoLqww+0aSioPvxEm8aSYt0ebDaiTWNJsXoPlhvRprGkWMMH+41o09hdGev4YMURbRpLinV8sOXUpqlNU5v2iVBt2vuoTVObpjZtMGrT1Kat+qvUpi2ev+LzatMeR23afV7wLa2N2QXEEUccccQRRxxxxBFHHHF2j7Mx6YA00kgjjTTSSCONNNJII81+aL6N7EAcccQRRxxxxBFHHHHEEWf+eWrTPkZt2u/atNM+rGmnHVjTTlrT5oK0pv1xkNa0p5K0pmlN05qmNU1rmtY0rWla07Sm/c2bUWvaHwdpTfvDIK1pWtO0pmlNiyVpTXsuSWtaDaM1TWvar6M17Xd8rWm/jta0Z0Zr2rrPa03Tmrbqr9Katnj+is9rTXscrWn3ecGXtDYmFxBHHHHEEUccccQRRxxxxNk9zsacA9JII4000kgjjTTSSCONNPuh+TauA3HEEUccccQRRxxxxBFHnPnnaU37GK1pd2va2z60aecdaNPOX6ZNe/vRI9Y0knMI5RxDOadQzjmUcwnlXEM5t1DO4kf3KCjV6JaqdEt1uqVK3VKtbqlat1SvW6rYLdXsnmp2j93VqWb3VLP7qmY/r0dbRM3b0UBM+Ybm3Wggpjz382Y0EFOe+XkvGogpzzuwopGcUI/rNQaUaCQnVOV6hwEfGskJtbleYECGRu7BUJ/r7QVMaCQn1Od6dc1r0BYxwIJGcsrXAxxoJKc87sCARnLK4w78ZySnPO7EfoaCUo2uNxhRn6GgVKnrJUa8Zygo1et6jxHpGboZU82uVxkxnqGgVLPrbabuTN2ZurNPhOrO3kfdmbozdWeDUXem7mzVX6XubPH8FZ9Xd/Y46s7u84JvV23MCiCOOOKII4444ogjjjjiiLN7nI3JAqSRRhpppJFGGmmkkUYaafZD820kBeKII4444ogjjjjiiCOOOPPPU3f2MerO7rqztg/d2WUHurPLF+rO3k4h3xkIOqSCjqmgUyronAq6pIKuqaBbKuiXn9uTpFi3W6zcLdbuFqt3i/W7xQreYg1vsYq3WMd7rOM9d3/HOt5jHe/rOr5Gg/aYRTxo8zn1WyImtPmc+hYgLrT5nPoGIDa0+Zz69CMfGghKNXqw3pASDQSlSj3YbciKBoJSvR4sNiRGAzdjqtmDrYbcaCAo1ezBSiN6tMcc5EcDQfUrQoY0EFQffuRIA0H14UeWNBBUH37mSSNJsW4PNhtTpZGkWL0Hy43Z0khSrOGD/caEaeSujHV8sOKYM40kxTo+2HJq09SmqU37RKg27X3UpqlNU5s2GLVpatNW/VVq0xbPX/F5tWmPozbtPi/4ltbG7ALiiCOOOOKII4444ogjjji7x9mYdEAaaaSRRhpppJFGGmmkkWY/NN9GdiCOOOKII4444ogjjjjiiDP/PLVpH6M27a5N6/vQpl13oE27fpk27fzzR6GziptU0CEVdEwFnVJB51TQJRV0TQXdUkGLX9+zpFi3W6zcLdbuFqt3i/W7xQreYg1vsYq3WMd7rOM9d3/HOt5jHe/rOv68Nm2ZNa9NIzn1W5rXppGc+haY16aRnPoGmNemkZz69ANtGgpKNXqw3oA2DQWlSj3YbUCbhoJSvR4sNqBNQzdjqtmDrQa0aSgo1ezBSpvXpi1zgDYNBdWvCGjTUFB9+IE2DQXVhx9o01BQffiJNo0lxbo92GxEm8aSYvUeLDeiTWNJsYYP9hvRprG7MtbxwYoj2jSWFOv4YMupTVObpjbtE6HatPdRm6Y2TW3aYNSmqU1b9VepTVs8f8Xn1aY9jtq0+7zgW1obswuII4444ogjjjjiiCOOOOLsHmdj0gFppJFGGmmkkUYaaaSRRpr90Hwb2YE44ogjjjjiiCOOOOKII87889SmfYzatLs27bAPbdptB9q025dp095+9Ig1jeQcQjnHUM4plHMO5VxCOddQzi2Us/jRPQpKNbqlKt1SnW6pUrdUq1uq1i3V65Yqdks1u6ea3WN3darZPdXsvqrZz+vRFlHzdjQQU76heTcaiCnP/bwZDcSUZ37eiwZiyvMOrGgkJ9Tjeo0BJRrJCVW53mHAh0ZyQm2uFxiQoZF7MNTnensBExrJCfW5Xl3zGrRFDLCgkZzy9QAHGskpjzswoJGc8rgD/xnJKY87sZ+hoFSj6w1G1GcoKFXqeokR7xkKSvW63mNEeoZuxlSz61VGjGcoKNXsepupO1N3pu7sE6G6s/dRd6buTN3ZYNSdqTtb9VepO1s8f8Xn1Z09jrqz+7zg21UbswKII4444ogjjjjiiCOOOOLsHmdjsgBppJFGGmmkkUYaaaSRRpr90HwbSYE44ogjjjjiiCOOOOKII87889SdfYy6s7vu7LgL3dn1bfu6s78yfp3u7O0U8p2BoEMq6JgKOqWCzqmgSyromgq6pYJ++bk9SYp1u8XK3WLtbrF6t1i/W6zgLdbwFqt4i3W8xzrec/d3rOM91vG+ruNrNGiPWcSDNp9TvyViQpvPqW8B4kKbz6lvAGJDm8+pTz/yoYGgVKMH6w0p0UBQqtSD3YasaCAo1evBYkNiNHAzppo92GrIjQaCUs0erDSiR3vMQX40EFS/ImRIA0H14UeONBBUH35kSQNB9eFnnjSSFOv2YLMxVRpJitV7sNyYLY0kxRo+2G9MmEbuyljHByuOOdNIUqzjgy2nNk1tmtq0T4Rq095HbZraNLVpg1GbpjZt1V+lNm3x/BWfV5v2OGrT7vOCb2ltzC4gjjjiiCOOOOKII4444oize5yNSQekkUYaaaSRRhpppJFGGmn2Q/NtZAfiiCOOOOKII4444ogjjjjzz1Ob9jFq0+7atNM+tGltB9q09mXatPPPH4XOKm5SQYdU0DEVdEoFnVNBl1TQNRV0SwUtfn3PkmLdbrFyt1i7W6zeLdbvFit4izW8xSreYh3vsY733P0d63iPdbyv6/jz2rRl1rw2jeTUb2lem0Zy6ltgXptGcuobYF6bRnLq0w+0aSgo1ejBegPaNBSUKvVgtwFtGgpK9Xqw2IA2Dd2MqWYPthrQpqGgVLMHK21em7bMAdo0FFS/IqBNQ0H14QfaNBRUH36gTUNB9eEn2jSWFOv2YLMRbRpLitV7sNyINo0lxRo+2G9Em8buyljHByuOaNNYUqzjgy2nNk1tmtq0T4Rq095HbZraNLVpg1GbpjZt1V+lNm3x/BWfV5v2OGrT7vOCb2ltzC4gjjjiiCOOOOKII4444oize5yNSQekkUYaaaSRRhpppJFGGmn2Q/NtZAfiiCOOOOKII4444ogjjjjzz1Ob9jFq0+7atPM+tGl9B9q0/mXatLcfPWJNIzmHUM4xlHMK5ZxDOZdQzjWUcwvlLH50j4JSjW6pSrdUp1uq1C3V6paqdUv1uqWK3VLN7qlm99hdnWp2TzW7r2r283q0RdS8HQ3ElG9o3o0GYspzP29GAzHlmZ/3ooGY8rwDKxrJCfW4XmNAiUZyQlWudxjwoZGcUJvrBQZkaOQeDPW53l7AhEZyQn2uV9e8Bm0RAyxoJKd8PcCBRnLK4w4MaCSnPO7Af0ZyyuNO7GcoKNXoeoMR9RkKSpW6XmLEe4aCUr2u9xiRnqGbMdXsepUR4xkKSjW73mbqztSdqTv7RKju7H3Unak7U3c2GHVn6s5W/VXqzhbPX/F5dWePo+7sPi/4dtXGrADiiCOOOOKII4444ogjjji7x9mYLEAaaaSRRhpppJFGGmmkkWY/NN9GUiCOOOKII4444ogjjjjiiDP/PHVnH6Pu7K47u+xDd3bYge7s8IW6s7dTyHcGgg6poGMq6JQKOqeCLqmgayrolgr65ef2JCnW7RYrd4u1u8Xq3WL9brGCt1jDW6ziLdbxHut4z93fsY73WMf7uo6v0aA9ZhEP2nxO/ZaICW0+p74FiAttPqe+AYgNbT6nPv3IhwaCUo0erDekRANBqVIPdhuyooGgVK8Hiw2J0cDNmGr2YKshNxoISjV7sNKIHu0xB/nRQFD9ipAhDQTVhx850kBQffiRJQ0E1YefedJIUqzbg83GVGkkKVbvwXJjtjSSFGv4YL8xYRq5K2MdH6w45kwjSbGOD7ac2jS1aWrTPhGqTXsftWlq09SmDUZtmtq0VX+V2rTF81d8Xm3a46hNu88LvqW1MbuAOOKII4444ogjjjjiiCPO7nE2Jh2QRhpppJFGGmmkkUYaaaTZD823kR2II4444ogjjjjiiCOOOOLMP09t2seoTbtr06770KYdd6BNO36ZNu3880ehs4qbVNAhFXRMBZ1SQedU0CUVdE0F3VJBi1/fs6RYt1us3C3W7hard4v1u8UK3mINb7GKt1jHe6zjPXd/xzreYx3v6zr+vDZtmTWvTSM59Vua16aRnPoWmNemkZz6BpjXppGc+vQDbRoKSjV6sN6ANg0FpUo92G1Am4aCUr0eLDagTUM3Y6rZg60GtGkoKNXswUqb16Ytc4A2DQXVrwho01BQffiBNg0F1YcfaNNQUH34iTaNJcW6PdhsRJvGkmL1Hiw3ok1jSbGGD/Yb0aaxuzLW8cGKI9o0lhTr+GDLqU1Tm6Y27ROh2rT3UZumNk1t2mDUpqlNW/VXqU1bPH/F59WmPY7atPu84FtaG7MLiCOOOOKII4444ogjjjji7B5nY9IBaaSRRhpppJFGGmmkkUaa/dB8G9mBOOKII4444ogjjjjiiCPO/PPUpn2M2rS7Nu22D23aaQfatNOXadPefvSINY3kHEI5x1DOKZRzDuVcQjnXUM4tlLP40T0KSjW6pSrdUp1uqVK3VKtbqtYt1euWKnZLNbunmt1jd3Wq2T3V7L6q2c/r0RZR83Y0EFO+oXk3Gogpz/28GQ3ElGd+3osGYsrzDqxoJCfU43qNASUayQlVud5hwIdGckJtrhcYkKGRezDU53p7ARMayQn1uV5d8xq0RQywoJGc8vUABxrJKY87MKCRnPK4A/8ZySmPO7GfoaBUo+sNRtRnKChV6nqJEe8ZCkr1ut5jRHqGbsZUs+tVRoxnKCjV7HqbqTtTd6bu7BOhurP3UXem7kzd2WDUnak7W/VXqTtbPH/F59WdPY66s/u84NtVG7MCiCOOOOKII4444ogjjjji7B5nY7IAaaSRRhpppJFGGmmkkUaa/dB8G0mBOOKII4444ogjjjjiiCPO/PPUnX2MurPfdWfnfdjOzjuwnZ21nWk7++Mf2Ws703am7Uzb2TNB2s60nWk703am7UzbmbYzbWerFpe2M21nTwVpO/vjIG1nfxyk7eyPg7SdVTDazrSd/Trazn7H13b262g7e2a0na37vLYzbWer/iptZ4vnr/i8trPH0XZ2nxd8uWpjUgBxxBFHHHHEEUccccQRR5zd42zMFSCNNNJII4000kgjjTTSSLMfmm/jKBBHHHHEEUccccQRRxxxxJl/nrazj9F2dredve1Dd3bZge7s8oW6s7dTyHcGgg6poGMq6JQKOqeCLqmgayrolgr65ef2JCnW7RYrd4u1u8Xq3WL9brGCt1jDW6ziLdbxHut4z93fsY73WMf7uo6v0aA9ZhEP2nxO/ZaICW0+p74FiAttPqe+AYgNbT6nPv3IhwaCUo0erDekRANBqVIPdhuyooGgVK8Hiw2J0cDNmGr2YKshNxoISjV7sNKIHu0xB/nRQFD9ipAhDQTVhx850kBQffiRJQ0E1YefedJIUqzbg83GVGkkKVbvwXJjtjSSFGv4YL8xYRq5K2MdH6w45kwjSbGOD7ac2jS1aWrTPhGqTXsftWlq09SmDUZtmtq0VX+V2rTF81d8Xm3a46hNu88LvqW1MbuAOOKII4444ogjjjjiiCPO7nE2Jh2QRhpppJFGGmmkkUYaaaTZD823kR2II4444ogjjjjiiCOOOOLMP09t2seoTbtr09o+tGnXHWjTrl+mTTv//FHorOImFXRIBR1TQadU0DkVdEkFXVNBt1TQ4tf3LCnW7RYrd4u1u8Xq3WL9brGCt1jDW6ziLdbxHut4z93fsY73WMf7uo4/r01bZs1r00hO/ZbmtWkkp74F5rVpJKe+Aea1aSSnPv1Am4aCUo0erDegTUNBqVIPdhvQpqGgVK8Hiw1o09DNmGr2YKsBbRoKSjV7sNLmtWnLHKBNQ0H1KwLaNBRUH36gTUNB9eEH2jQUVB9+ok1jSbFuDzYb0aaxpFi9B8uNaNNYUqzhg/1GtGnsrox1fLDiiDaNJcU6PthyatPUpqlN+0SoNu191KapTVObNhi1aWrTVv1VatMWz1/xebVpj6M27T4v+JbWxuwC4ogjjjjiiCOOOOKII444u8fZmHRAGmmkkUYaaaSRRhpppJFmPzTfRnYgjjjiiCOOOOKII4444ogz/zy1aR+jNu2uTev70KbddqBNu32ZNu3tR49Y00jOIZRzDOWcQjnnUM4llHMN5dxCOYsf3aOgVKNbqtIt1emWKnVLtbqlat1SvW6pYrdUs3uq2T12V6ea3VPN7qua/bwebRE1b0cDMeUbmnejgZjy3M+b0UBMeebnvWggpjzvwIpGckI9rtcYUKKRnFCV6x0GfGgkJ9TmeoEBGRq5B0N9rrcXMKGRnFCf69U1r0FbxAALGskpXw9woJGc8rgDAxrJKY878J+RnPK4E/sZCko1ut5gRH2GglKlrpcY8Z6hoFSv6z1GpGfoZkw1u15lxHiGglLNrreZujN1Z+rOPhGqO3sfdWfqztSdDUbdmbqzVX+VurPF81d8Xt3Z46g7u88Lvl21MSuAOOKII4444ogjjjjiiCPO7nE2JguQRhpppJFGGmmkkUYaaaTZD823kRSII4444ogjjjjiiCOOOOLMP0/d2ceoO7vrzg670J3d3ravO/sr49fpzt5OId8ZCDqkgo6poFMq6JwKuqSCrqmgWyrol5/bk6RYt1us3C3W7hard4v1u8UK3mINb7GKt1jHe6zjPXd/xzreYx3v6zq+RoP2mEU8aPM59VsiJrT5nPoWIC60+Zz6BiA2tPmc+vQjHxoISjV6sN6QEg0EpUo92G3IigaCUr0eLDYkRgM3Y6rZg62G3GggKNXswUojerTHHORHA0H1K0KGNBBUH37kSANB9eFHljQQVB9+5kkjSbFuDzYbU6WRpFi9B8uN2dJIUqzhg/3GhGnkrox1fLDimDONJMU6PthyatPUpqlN+0SoNu191KapTVObNhi1aWrTVv1VatMWz1/xebVpj6M27T4v+JbWxuwC4ogjjjjiiCOOOOKII444u8fZmHRAGmmkkUYaaaSRRhpppJFmPzTfRnYgjjjiiCOOOOKII4444ogz/zy1aR+jNu2uTTvuQ5vWdqBNa1+mTTv//FHorOImFXRIBR1TQadU0DkVdEkFXVNBt1TQ4tf3LCnW7RYrd4u1u8Xq3WL9brGCt1jDW6ziLdbxHut4z93fsY73WMf7uo4/r01bZs1r00hO/ZbmtWkkp74F5rVpJKe+Aea1aSSnPv1Am4aCUo0erDegTUNBqVIPdhvQpqGgVK8Hiw1o09DNmGr2YKsBbRoKSjV7sNLmtWnLHKBNQ0H1KwLaNBRUH36gTUNB9eEH2jQUVB9+ok1jSbFuDzYb0aaxpFi9B8uNaNNYUqzhg/1GtGnsrox1fLDiiDaNJcU6PthyatPUpqlN+0SoNu191KapTVObNhi1aWrTVv1VatMWz1/xebVpj6M27T4v+JbWxuwC4ogjjjjiiCOOOOKII444u8fZmHRAGmmkkUYaaaSRRhpppJFmPzTfRnYgjjjiiCOOOOKII4444ogz/zy1aR+jNu2uTTvtQ5vWd6BN61+mTXv70SPWNJJzCOUcQzmnUM45lHMJ5VxDObdQzuJH9ygo1eiWqnRLdbqlSt1SrW6pWrdUr1uq2C3V7J5qdo/d1alm91Sz+6pmP69HW0TN29FATPmG5t1oIKY89/NmNBBTnvl5LxqIKc87sKKRnFCP6zUGlGgkJ1TleocBHxrJCbW5XmBAhkbuwVCf6+0FTGgkJ9TnenXNa9AWMcCCRnLK1wMcaCSnPO7AgEZyyuMO/GckpzzuxH6GglKNrjcYUZ+hoFSp6yVGvGcoKNXreo8R6Rm6GVPNrlcZMZ6hoFSz622m7kzdmbqzT4Tqzt5H3Zm6M3Vng1F3pu5s1V+l7mzx/BWfV3f2OOrO7vOCb1dtzAogjjjiiCOOOOKII4444oize5yNyQKkkUYaaaSRRhpppJFGGmn2Q/NtJAXiiCOOOOKII4444ogjjjjzz1N39jHqzu66s/M+dGeHHejODl+oO3s7hXxnIOiQCjqmgk6poHMq6JIKuqaCbqmgX35uT5Ji3W6xcrdYu1us3i3W7xYreIs1vMUq3mId77GO99z9Het4j3W8r+v4Gg3aYxbxoM3n1G+JmNDmc+pbgLjQ5nPqG4DY0OZz6tOPfGggKNXowXpDSjQQlCr1YLchKxoISvV6sNiQGA3cjKlmD7YacqOBoFSzByuN6NEec5AfDQTVrwgZ0kBQffiRIw0E1YcfWdJAUH34mSeNJMW6PdhsTJVGkmL1Hiw3ZksjSbGGD/YbE6aRuzLW8cGKY840khTr+GDLqU1Tm6Y27ROh2rT3UZumNk1t2mDUpqlNW/VXqU1bPH/F59WmPY7atPu84FtaG7MLiCOOOOKII4444ogjjjji7B5nY9IBaaSRRhpppJFGGmmkkUaa/dB8G9mBOOKII4444ogjjjjiiCPO/PPUpn2M2rS7Nu2yD23acQfatOOXadPOP38UOqu4SQUdUkHHVNApFXROBV1SQddU0C0VtPj1PUuKdbvFyt1i7W6xerdYv1us4C3W8BareIt1vMc63nP3d6zjPdbxvq7jz2vTllnz2jSSU7+leW0ayalvgXltGsmpb4B5bRrJqU8/0KahoFSjB+sNaNNQUKrUg90GtGkoKNXrwWID2jR0M6aaPdhqQJuGglLNHqy0eW3aMgdo01BQ/YqANg0F1YcfaNNQUH34gTYNBdWHn2jTWFKs24PNRrRpLClW78FyI9o0lhRr+GC/EW0auytjHR+sOKJNY0mxjg+2nNo0tWlq0z4Rqk17H7VpatPUpg1GbZratFV/ldq0xfNXfF5t2uOoTbvPC76ltTG7gDjiiCOOOOKII4444ogjzu5xNiYdkEYaaaSRRhpppJFGGmmk2Q/Nt5EdiCOOOOKII4444ogjjjjizD9PbdrHqE27a9Ou+9CmnXagTTt9mTbt7UePWNNIziGUcwzlnEI551DOJZRzDeXcQjmLH92joFSjW6rSLdXplip1S7W6pWrdUr1uqWK3VLN7qtk9dlenmt1Tze6rmv28Hm0RNW9HAzHlG5p3o4GY8tzPm9FATHnm571oIKY878CKRnJCPa7XGFCikZxQlesdBnxoJCfU5nqBARkauQdDfa63FzChkZxQn+vVNa9BW8QACxrJKV8PcKCRnPK4AwMaySmPO/CfkZzyuBP7GQpKNbreYER9hoJSpa6XGPGeoaBUr+s9RqRn6GZMNbteZcR4hoJSza63mbozdWfqzj4Rqjt7H3Vn6s7UnQ1G3Zm6s1V/lbqzxfNXfF7d2eOoO7vPC75dtTErgDjiiCOOOOKII4444ogjzu5xNiYLkEYaaaSRRhpppJFGGmmk2Q/Nt5EUiCOOOOKII4444ogjjjjizD9P3dnHqDu7685u+9CdnXegOzt/oe7s7RTynYGgQyromAo6pYLOqaBLKuiaCrqlgn75uT1JinW7xcrdYu1usXq3WL9brOAt1vAWq3iLdbzHOt5z93es4z3W8b6u42s0aI9ZxIM2n1O/JWJCm8+pbwHiQpvPqW8AYkObz6lPP/KhgaBUowfrDSnRQFCq1IPdhqxoICjV68FiQ2I0cDOmmj3YasiNBoJSzR6sNKJHe8xBfjQQVL8iZEgDQfXhR440EFQffmRJA0H14WeeNJIU6/ZgszFVGkmK1Xuw3JgtjSTFGj7Yb0yYRu7KWMcHK44500hSrOODLac2TW2a2rRPhGrT3kdtmto0tWmDUZumNm3VX6U2bfH8FZ9Xm/Y4atPu84JvaW3MLiCOOOKII4444ogjjjjiiLN7nI1JB6SRRhpppJFGGmmkkUYaafZD821kB+KII4444ogjjjjiiCOOOPPPU5v2MWrTftemXfZhTbvswJp20Zo2F6Q17Y+DtKY9laQ1TWua1jStaVrTtKZpTdOapjXtb96MWtP+OEhr2h8GaU3TmqY1TWua1rSnkrSmjUZr2t+eZ/7v01rTxtFa037H15r262hNe2a0pq37vNY0rWmr/iqtaYvnr/i81rTH0Zp2nxd8SWtjcgFxxBFHHHHEEUccccQRR5zd42zMOSCNNNJII4000kgjjTTSSLMfmm/jOhBHHHHEEUccccQRRxxxxJl/nta0j9Gadremve1Dm3bdgTbt+mXatPPPH4XOKm5SQYdU0DEVdEoFnVNBl1TQNRV0SwUtfn3PkmLdbrFyt1i7W6zeLdbvFit4izW8xSreYh3vsY733P0d63iPdbyv6/jz2rRl1rw2jeTUb2lem0Zy6ltgXptGcuobYF6bRnLq0w+0aSgo1ejBegPaNBSUKvVgtwFtGgpK9Xqw2IA2Dd2MqWYPthrQpqGgVLMHK21em7bMAdo0FFS/IqBNQ0H14QfaNBRUH36gTUNB9eEn2jSWFOv2YLMRbRpLitV7sNyINo0lxRo+2G9Em8buyljHByuOaNNYUqzjgy2nNk1tmtq0T4Rq095HbZraNLVpg1GbpjZt1V+lNm3x/BWfV5v2OGrT7vOCb2ltzC4gjjjiiCOOOOKII4444oize5yNSQekkUYaaaSRRhpppJFGGmn2Q/NtZAfiiCOOOOKII4444ogjjjjzz1Ob9jFq0+7atLYPbdptB9q025dp095+9Ig1jeQcQjnHUM4plHMO5VxCOddQzi2Us/jRPQpKNbqlKt1SnW6pUrdUq1uq1i3V65Yqdks1u6ea3WN3darZPdXsvqrZz+vRFlHzdjQQU76heTcaiCnP/bwZDcSUZ37eiwZiyvMOrGgkJ9Tjeo0BJRrJCVW53mHAh0ZyQm2uFxiQoZF7MNTnensBExrJCfW5Xl3zGrRFDLCgkZzy9QAHGskpjzswoJGc8rgD/xnJKY87sZ+hoFSj6w1G1GcoKFXqeokR7xkKSvW63mNEeoZuxlSz61VGjGcoKNXsepupO1N3pu7sE6G6s/dRd6buTN3ZYNSdqTtb9VepO1s8f8Xn1Z09jrqz+7zg21UbswKII4444ogjjjjiiCOOOOLsHmdjsgBppJFGGmmkkUYaaaSRRpr90HwbSYE44ogjjjjiiCOOOOKII87889SdfYy6s7vurO9Cd9be3rbvO3uH/Drh2dspZDwDQYdU0DEVdEoFnVNBl1TQNRV0SwX98oN7khTrdouVu8Xa3WL1brF+t1jBW6zhLVbxFut4j3W85+7vWMd7rON9XcfXiNAes4gJbT6nfkvEhTafU98CxIY2n1PfAMSHNp9Tn35kRANBqUYP1huSooGgVKkHuw150UBQqteDxYbUaOBmTDV7sNWQHQ0EpZo9WGlEkPaYgwxpIKh+RciRBoLqw48saSCoPvzIkwaC6sPPTGkkKdbtwWZjsjSSFKv3YLkxXxpJijV8sN+YMo3clbGOD1Ycs6aRpFjHB1tOcZriNMVpnwgVp72P4jTFaYrTBqM4TXHaqr9Kcdri+Ss+rzjtcRSn3ecF39PamF9AHHHEEUccccQRRxxxxBFn9zgb0w5II4000kgjjTTSSCONNNLsh+bb6A7EEUccccQRRxxxxBFHHHHmn6c47WMUp93FaYediNPaHsRp7cvEaeefPwudldykgg6poGMq6JQKOqeCLqmgayrolgpa/P6eJcW63WLlbrF2t1i9W6zfLVbwFmt4i1W8xTreYx3vufs71vEe63hf1/HnxWnLrHlxGsmp39K8OI3k1LfAvDiN5NQ3wLw4jeTUpx+I01BQqtGD9QbEaSgoVerBbgPiNBSU6vVgsQFxGroZU80ebDUgTkNBqWYPVtq8OG2ZA8RpKKh+RUCchoLqww/EaSioPvxAnIaC6sNPxGksKdbtwWYj4jSWFKv3YLkRcRpLijV8sN+IOI3dlbGOD1YcEaexpFjHB1tOcZriNMVpnwgVp72P4jTFaYrTBqM4TXHaqr9Kcdri+Ss+rzjtcRSn3ecF39PamF9AHHHEEUccccQRRxxxxBFn9zgb0w5II4000kgjjTTSSCONNNLsh+bb6A7EEUccccQRRxxxxBFHHHHmn6c47WMUp93FacediNP6HsRpXXHaXJDitD8OUpz2VJLiNMVpitMUpylOU5ymOE1xmuK0v3kzKk774yDFaX8YpDhNcZriNMVpsSTFac8lKU6rYRSnKU77dRSn/Y6vOO3XUZz2zChOW/d5xWmK01b9VYrTFs9f8XnFaY+jOO0+L/ie1sb8AuKII4444ogjjjjiiCOOOLvH2Zh2QBpppJFGGmmkkUYaaaSRZj8030Z3II444ogjjjjiiCOOOOKIM/88xWkfozjtd3HadSfetMMevGmHL/Omvf3oEW0ayTmEco6hnFMo5xzKuYRyrqGcWyhn8at7FJRqdEtVuqU63VKlbqlWt1StW6rXLVXslmp2TzW7x+7qVLN7qtl9VbOf96Mtoub1aCCmfEPzcjQQU577eTUaiCnP/LwYDcSU5x1o0UhOqMf1GgNONJITqnK9w4AQjeSE2lwvMGBDI/dgqM/19gIqNJIT6nO9uuY9aIsYoEEjOeXrARI0klMed6BAIznlcQcCNJJTHneiP0NBqUbXG4y4z1BQqtT1EiPiMxSU6nW9x4j1DN2MqWbXq4woz1BQqtn1NtN3pu9M39knQn1n76PvTN+ZvrPB6DvTd7bqr9J3tnj+is/rO3scfWf3ecHXqzamBRBHHHHEEUccccQRRxxxxNk9zsZsAdJII4000kgjjTTSSCONNPuh+TaWAnHEEUccccQRRxxxxBFHnPnn6Tv7GH1nv/vObjvxnR334Ds7fpnvrB3ffrw9TDtG9GfB2MNrYo+viT29Jvb8mtjLa2Kvr4m9vSZ28Wv/ZO6Lzll70UFrLzpp7UVHrb3orLUXHbb2otPWXnTc2ovOW3/Reeuv2msvOm/9Reetk/P2vFdulDyvmculPvt25yV0udRnb7J5RV0u9dlbbF5gl0t99gYDertg7GtO19P/XAAuvGDsaw7Y0/9WAOK8YOxrztjT/1AAlr3gVnjNKXv6XwlAyReMfc0pe/qfCPP+vlEq0PkFY599tUD2F4x99gIDKsBg7LMXGBAFBmOfvcCIRjCZ+6Jz9vS/FIhzMJn7oqP29D8WiKAwmfui0/b0vxeIzTC5J1503p7+JwNRHyZzX3Tenv5Xg55EPYl6Ej8R6kl8Hz2JehL1JA5GT6KexFV/lZ7ExfNXfF5P4uPoSbzPC76WuTGdiDjiiCOOOOKII4444ogjzu5xNmYZkUYaaaSRRhpppJFGGmmk2Q/Nt7GbiCOOOOKII4444ogjjjjizD/vv4Mn8f/57R//y29/+ft/+a9/+e3v/sd/9z+pTdyWNvG3v/y3P/3Db3/3//79e/P+zz//+b/83fv/h71/z/n49u92olA87UGhePoyheL59uP2MNdbxKCYSz28JPX4ktTTS1LPL0m9vCT1+pLU20tSF4KDYOxrTld7zfFqrzlf7TUHrL3mhLXXHLH2mjPWXnPI2mtOWX/NKesv2mGvOWX9Naesg1P2vCpxEDxvSoyFPvlm5z2JsdAn7655S2Is9Ml7a96RGAt98s4ChsRc6kvO1LP/LAB6xFzqS47Vs/8mAG7EXOpLTtaz/yAAYsTcDnjJ2Xr2XwPAiphLfcnZevafAvNKxEEoMCLmUp98rcCHmEt98soCNsRc6pNXFnAh5lKfvLKICTEY+5rT9ey/CIgGMRj7mgP27D8KiAMxGPuaM/bsvwuIADG4FV5zyp79pwGxHwZjX3PKnv3XgepD1YeqDz8Rqj58H9WHqg9VHw5G9aHqw1V/lerDxfNXfF714eOoPrzPC75puTFDiDjiiCOOOOKII4444ogjzu5xNiYOkUYaaaSRRhpppJFGGmmk2Q/NtxGWiCOOOOKII4444ogjjjjizD9P9eHfnm+rPvw35eH/8dvP//G//uO//9Nv//Qv/yY//L//4T/99h/+61/f///8d5fdSBDPe5Agnr9Mgvjzp6ezEqZQziGUcwzlnEI551DOJZRzDeXcQjkLuwAKSjW6pSrdUp1uqVK3VKtbqtYt1euWKnZLNbunmt1jd3Wq2T3V7L6q2c9L+xZR85o+EFO+oXkVH4gpz/28bg/ElGd+XqkHYsrzDrR5JCfU43qNARkeyQlVud5hQHFHckJtrhcYENeRezDU53p7AR0dyQn1uV5d85K5RQzQypGc8vUAdRzJKY870MORnPK4AwUcySmPO9G8oaBUo+sNRuRtKChV6nqJESUbCkr1ut5jRLSGbsZUs+tVRvRpKCjV7HqbKUXbhRTN/+x/9j/7n/3P/mf/s//Z/+x/9j/7n/3P/mf/s//Z/7yl//yvP/783377y1/+9B9++7/+/v3/UNV+vCnFf/hLlOLfRyn+qlGKrxR/xSjF/3WU4v86SvFXjlJ8pfh/c5TiiyOOOOKII4444ogjjjjiiLMHpaQ00kgjjTTSSCONNNJII81+aL6NylIcccQRRxxxxBFHHHHEEWf+ef8dpPj/25/+8bd/+uc//fmf/vNv//zPKvG3pcT/81/+v7/73//jf/zTP/zpt3/6h3+9i/C/VoH/8elf/svj//v3//3f/uc9/eN/uf+Pf//n//Cv7//zP/3LP/7n/+V/+P8BO27NcQ=="
               },
               {
                  "name" : "annual_peak_electric_demand",
                  "units" : "kW",
                  "value" : 61.28454
               },
               {
                  "name" : "first_year_capital_cost",
                  "units" : "$",
                  "value" : 0
               },
               {
                  "name" : "annual_utility_cost",
                  "units" : "$",
                  "value" : 33788.879999999997
               },
               {
                  "name" : "total_lifecycle_cost",
                  "units" : "$",
                  "value" : 587621.30000000005
               }
            ],
            "step_warnings" : []
         }
      }
   ],
   "updated_at" : "20170710T193544Z",
   "weather_file" : "USA_CO_Denver.Intl.AP.725650_TMY3.epw"
}
