{
   "completed_at" : "20170710T191339Z",
   "completed_status" : "Success",
   "created_at" : "2017-07-10 19:05:49 +0000",
   "current_step" : 5,
   "description" : "",
   "eplusout_err" : "Program Version,EnergyPlus, Version 8.7.0-78a111df4a, YMD=2017.07.10 19:09,IDD_Version 8.7.0\n   ************* IDF Context for following error/warning message:\n   ************* Note -- lines truncated at 300 characters, if necessary...\n   *************      5 Building,\n   ************* indicated Name=NECB 2011-PrimarySchool-NECB HDD Method-CAN_BC_Fort.St.John.719430_CWEC.epw created: 2017-07-10 19:05:55 +0000\n   ************* Only last 1 lines before error line shown.....\n   *************      6   NECB 2011-PrimarySchool-NECB HDD Method-CAN_BC_Fort.St.John.719430_CWEC.epw created: 2017-07-10 19:05:55 +0000, !- Name\n   ** Warning ** IP: IDF line~6 Alpha Argument length exceeds maximum, will be truncated=  NECB 2011-PrimarySchool-NECB HDD Method-CAN_BC_Fort.St.John.719430_CWEC.epw created: 2017-07-10 19:05:55 +000\n   **   ~~~   ** Will be processed as Alpha=NECB 2011-PRIMARYSCHOOL-NECB HDD METHOD-CAN_BC_FORT.ST.JOHN.719430_CWEC.EPW CREATED: 2017-07-10 19:05:55 +0000\n   ************* IDF Context for following error/warning message:\n   ************* Note -- lines truncated at 300 characters, if necessary...\n   *************   1058 Schedule:Week:Daily,\n   ************* indicated Name=Schedule:Week:Daily {f09d0c4a-1ae1-457b-b4f8-9405f714fceb}\n   ************* Only last 10 lines before error line shown.....\n   *************   1059   Schedule:Week:Daily {f09d0c4a-1ae1-457b-b4f8-9405f714fceb}, !- Name\n   *************   1060   Sp-Cafeteria_ZN_1_FLR_1 Sys-3 Flr-1 Sch-C HPlcmt-north ZN NECB System 3 PSZ Occ Sch Sunday, !- Sunday Schedule:Day Name\n   *************   1061   Sp-Cafeteria_ZN_1_FLR_1 Sys-3 Flr-1 Sch-C HPlcmt-north ZN NECB System 3 PSZ Occ Sch Monday, !- Monday Schedule:Day Name\n   *************   1062   Sp-Cafeteria_ZN_1_FLR_1 Sys-3 Flr-1 Sch-C HPlcmt-north ZN NECB System 3 PSZ Occ Sch Tuesday, !- Tuesday Schedule:Day Name\n   *************   1063   Sp-Cafeteria_ZN_1_FLR_1 Sys-3 Flr-1 Sch-C HPlcmt-north ZN NECB System 3 PSZ Occ Sch Wednesday, !- Wednesday Schedule:Day Name\n   *************   1064   Sp-Cafeteria_ZN_1_FLR_1 Sys-3 Flr-1 Sch-C HPlcmt-north ZN NECB System 3 PSZ Occ Sch Thursday, !- Thursday Schedule:Day Name\n   *************   1065   Sp-Cafeteria_ZN_1_FLR_1 Sys-3 Flr-1 Sch-C HPlcmt-north ZN NECB System 3 PSZ Occ Sch Friday, !- Friday Schedule:Day Name\n   *************   1066   Sp-Cafeteria_ZN_1_FLR_1 Sys-3 Flr-1 Sch-C HPlcmt-north ZN NECB System 3 PSZ Occ Sch Saturday, !- Saturday Schedule:Day Name\n   *************   1067   Sp-Cafeteria_ZN_1_FLR_1 Sys-3 Flr-1 Sch-C HPlcmt-north ZN NECB System 3 PSZ Occ Sch Default, !- Holiday Schedule:Day Name\n   *************   1068   Sp-Cafeteria_ZN_1_FLR_1 Sys-3 Flr-1 Sch-C HPlcmt-north ZN NECB System 3 PSZ Occ Sch Summer Design Day, !- SummerDesignDay Schedule:Day Name\n   ** Warning ** IP: IDF line~1068 Alpha Argument length exceeds maximum, will be truncated=  Sp-Cafeteria_ZN_1_FLR_1 Sys-3 Flr-1 Sch-C HPlcmt-north ZN NECB System 3 PSZ Occ Sch Summer Design Da\n   **   ~~~   ** Will be processed as Alpha=SP-CAFETERIA_ZN_1_FLR_1 SYS-3 FLR-1 SCH-C HPLCMT-NORTH ZN NECB SYSTEM 3 PSZ OCC SCH SUMMER DESIGN DAY\n   ************* IDF Context for following error/warning message:\n   ************* Note -- lines truncated at 300 characters, if necessary...\n   *************   1058 Schedule:Week:Daily,\n   ************* indicated Name=Schedule:Week:Daily {f09d0c4a-1ae1-457b-b4f8-9405f714fceb}\n   ************* Only last 10 lines before error line shown.....\n   *************   1060   Sp-Cafeteria_ZN_1_FLR_1 Sys-3 Flr-1 Sch-C HPlcmt-north ZN NECB System 3 PSZ Occ Sch Sunday, !- Sunday Schedule:Day Name\n   *************   1061   Sp-Cafeteria_ZN_1_FLR_1 Sys-3 Flr-1 Sch-C HPlcmt-north ZN NECB System 3 PSZ Occ Sch Monday, !- Monday Schedule:Day Name\n   *************   1062   Sp-Cafeteria_ZN_1_FLR_1 Sys-3 Flr-1 Sch-C HPlcmt-north ZN NECB System 3 PSZ Occ Sch Tuesday, !- Tuesday Schedule:Day Name\n   *************   1063   Sp-Cafeteria_ZN_1_FLR_1 Sys-3 Flr-1 Sch-C HPlcmt-north ZN NECB System 3 PSZ Occ Sch Wednesday, !- Wednesday Schedule:Day Name\n   *************   1064   Sp-Cafeteria_ZN_1_FLR_1 Sys-3 Flr-1 Sch-C HPlcmt-north ZN NECB System 3 PSZ Occ Sch Thursday, !- Thursday Schedule:Day Name\n   *************   1065   Sp-Cafeteria_ZN_1_FLR_1 Sys-3 Flr-1 Sch-C HPlcmt-north ZN NECB System 3 PSZ Occ Sch Friday, !- Friday Schedule:Day Name\n   *************   1066   Sp-Cafeteria_ZN_1_FLR_1 Sys-3 Flr-1 Sch-C HPlcmt-north ZN NECB System 3 PSZ Occ Sch Saturday, !- Saturday Schedule:Day Name\n   *************   1067   Sp-Cafeteria_ZN_1_FLR_1 Sys-3 Flr-1 Sch-C HPlcmt-north ZN NECB System 3 PSZ Occ Sch Default, !- Holiday Schedule:Day Name\n   *************   1068   Sp-Cafeteria_ZN_1_FLR_1 Sys-3 Flr-1 Sch-C HPlcmt-north ZN NECB System 3 PSZ Occ Sch Summer Design Day, !- SummerDesignDay Schedule:Day Name\n   *************   1069   Sp-Cafeteria_ZN_1_FLR_1 Sys-3 Flr-1 Sch-C HPlcmt-north ZN NECB System 3 PSZ Occ Sch Winter Design Day, !- WinterDesignDay Schedule:Day Name\n   ** Warning ** IP: IDF line~1069 Alpha Argument length exceeds maximum, will be truncated=  Sp-Cafeteria_ZN_1_FLR_1 Sys-3 Flr-1 Sch-C HPlcmt-north ZN NECB System 3 PSZ Occ Sch Winter Design Da\n   **   ~~~   ** Will be processed as Alpha=SP-CAFETERIA_ZN_1_FLR_1 SYS-3 FLR-1 SCH-C HPLCMT-NORTH ZN NECB SYSTEM 3 PSZ OCC SCH WINTER DESIGN DAY\n   ************* IDF Context for following error/warning message:\n   ************* Note -- lines truncated at 300 characters, if necessary...\n   *************   1089 Schedule:Day:Interval,\n   ************* indicated Name=Sp-Cafeteria_ZN_1_FLR_1 Sys-3 Flr-1 Sch-C HPlcmt-north ZN NECB System 3 PSZ Occ Sch Summer Design Day\n   ************* Only last 1 lines before error line shown.....\n   *************   1090   Sp-Cafeteria_ZN_1_FLR_1 Sys-3 Flr-1 Sch-C HPlcmt-north ZN NECB System 3 PSZ Occ Sch Summer Design Day, !- Name\n   ** Warning ** IP: IDF line~1090 Alpha Argument length exceeds maximum, will be truncated=  Sp-Cafeteria_ZN_1_FLR_1 Sys-3 Flr-1 Sch-C HPlcmt-north ZN NECB System 3 PSZ Occ Sch Summer Design Da\n   **   ~~~   ** Will be processed as Alpha=SP-CAFETERIA_ZN_1_FLR_1 SYS-3 FLR-1 SCH-C HPLCMT-NORTH ZN NECB SYSTEM 3 PSZ OCC SCH SUMMER DESIGN DAY\n   ************* IDF Context for following error/warning message:\n   ************* Note -- lines truncated at 300 characters, if necessary...\n   *************   1096 Schedule:Day:Interval,\n   ************* indicated Name=Sp-Cafeteria_ZN_1_FLR_1 Sys-3 Flr-1 Sch-C HPlcmt-north ZN NECB System 3 PSZ Occ Sch Winter Design Day\n   ************* Only last 1 lines before error line shown.....\n   *************   1097   Sp-Cafeteria_ZN_1_FLR_1 Sys-3 Flr-1 Sch-C HPlcmt-north ZN NECB System 3 PSZ Occ Sch Winter Design Day, !- Name\n   ** Warning ** IP: IDF line~1097 Alpha Argument length exceeds maximum, will be truncated=  Sp-Cafeteria_ZN_1_FLR_1 Sys-3 Flr-1 Sch-C HPlcmt-north ZN NECB System 3 PSZ Occ Sch Winter Design Da\n   **   ~~~   ** Will be processed as Alpha=SP-CAFETERIA_ZN_1_FLR_1 SYS-3 FLR-1 SCH-C HPLCMT-NORTH ZN NECB SYSTEM 3 PSZ OCC SCH WINTER DESIGN DAY\n   ************* IDF Context for following error/warning message:\n   ************* Note -- lines truncated at 300 characters, if necessary...\n   *************   1450 Schedule:Week:Daily,\n   ************* indicated Name=Schedule:Week:Daily {3f69ca46-fff0-4e2f-8de4-d2b5303a4f16}\n   ************* Only last 10 lines before error line shown.....\n   *************   1451   Schedule:Week:Daily {3f69ca46-fff0-4e2f-8de4-d2b5303a4f16}, !- Name\n   *************   1452   Sp-Computer_Class_ZN_1_FLR_1 Sys-3 Flr-1 Sch-D HPlcmt-north ZN NECB System 3 PSZ Occ Sch Sunday, !- Sunday Schedule:Day Name\n   *************   1453   Sp-Computer_Class_ZN_1_FLR_1 Sys-3 Flr-1 Sch-D HPlcmt-north ZN NECB System 3 PSZ Occ Sch Monday, !- Monday Schedule:Day Name\n   *************   1454   Sp-Computer_Class_ZN_1_FLR_1 Sys-3 Flr-1 Sch-D HPlcmt-north ZN NECB System 3 PSZ Occ Sch Tuesday, !- Tuesday Schedule:Day Name\n   *************   1455   Sp-Computer_Class_ZN_1_FLR_1 Sys-3 Flr-1 Sch-D HPlcmt-north ZN NECB System 3 PSZ Occ Sch Wednesday, !- Wednesday Schedule:Day Name\n   *************   1456   Sp-Computer_Class_ZN_1_FLR_1 Sys-3 Flr-1 Sch-D HPlcmt-north ZN NECB System 3 PSZ Occ Sch Thursday, !- Thursday Schedule:Day Name\n   *************   1457   Sp-Computer_Class_ZN_1_FLR_1 Sys-3 Flr-1 Sch-D HPlcmt-north ZN NECB System 3 PSZ Occ Sch Friday, !- Friday Schedule:Day Name\n   *************   1458   Sp-Computer_Class_ZN_1_FLR_1 Sys-3 Flr-1 Sch-D HPlcmt-north ZN NECB System 3 PSZ Occ Sch Saturday, !- Saturday Schedule:Day Name\n   *************   1459   Sp-Computer_Class_ZN_1_FLR_1 Sys-3 Flr-1 Sch-D HPlcmt-north ZN NECB System 3 PSZ Occ Sch Default, !- Holiday Schedule:Day Name\n   *************   1460   Sp-Computer_Class_ZN_1_FLR_1 Sys-3 Flr-1 Sch-D HPlcmt-north ZN NECB System 3 PSZ Occ Sch Summer Design Day, !- SummerDesignDay Schedule:Day Name\n   ** Warning ** IP: IDF line~1460 Alpha Argument length exceeds maximum, will be truncated=  Sp-Computer_Class_ZN_1_FLR_1 Sys-3 Flr-1 Sch-D HPlcmt-north ZN NECB System 3 PSZ Occ Sch Summer Design Da\n   **   ~~~   ** Will be processed as Alpha=SP-COMPUTER_CLASS_ZN_1_FLR_1 SYS-3 FLR-1 SCH-D HPLCMT-NORTH ZN NECB SYSTEM 3 PSZ OCC SCH SUMMER DESIGN DAY\n   ************* IDF Context for following error/warning message:\n   ************* Note -- lines truncated at 300 characters, if necessary...\n   *************   1450 Schedule:Week:Daily,\n   ************* indicated Name=Schedule:Week:Daily {3f69ca46-fff0-4e2f-8de4-d2b5303a4f16}\n   ************* Only last 10 lines before error line shown.....\n   *************   1452   Sp-Computer_Class_ZN_1_FLR_1 Sys-3 Flr-1 Sch-D HPlcmt-north ZN NECB System 3 PSZ Occ Sch Sunday, !- Sunday Schedule:Day Name\n   *************   1453   Sp-Computer_Class_ZN_1_FLR_1 Sys-3 Flr-1 Sch-D HPlcmt-north ZN NECB System 3 PSZ Occ Sch Monday, !- Monday Schedule:Day Name\n   *************   1454   Sp-Computer_Class_ZN_1_FLR_1 Sys-3 Flr-1 Sch-D HPlcmt-north ZN NECB System 3 PSZ Occ Sch Tuesday, !- Tuesday Schedule:Day Name\n   *************   1455   Sp-Computer_Class_ZN_1_FLR_1 Sys-3 Flr-1 Sch-D HPlcmt-north ZN NECB System 3 PSZ Occ Sch Wednesday, !- Wednesday Schedule:Day Name\n   *************   1456   Sp-Computer_Class_ZN_1_FLR_1 Sys-3 Flr-1 Sch-D HPlcmt-north ZN NECB System 3 PSZ Occ Sch Thursday, !- Thursday Schedule:Day Name\n   *************   1457   Sp-Computer_Class_ZN_1_FLR_1 Sys-3 Flr-1 Sch-D HPlcmt-north ZN NECB System 3 PSZ Occ Sch Friday, !- Friday Schedule:Day Name\n   *************   1458   Sp-Computer_Class_ZN_1_FLR_1 Sys-3 Flr-1 Sch-D HPlcmt-north ZN NECB System 3 PSZ Occ Sch Saturday, !- Saturday Schedule:Day Name\n   *************   1459   Sp-Computer_Class_ZN_1_FLR_1 Sys-3 Flr-1 Sch-D HPlcmt-north ZN NECB System 3 PSZ Occ Sch Default, !- Holiday Schedule:Day Name\n   *************   1460   Sp-Computer_Class_ZN_1_FLR_1 Sys-3 Flr-1 Sch-D HPlcmt-north ZN NECB System 3 PSZ Occ Sch Summer Design Day, !- SummerDesignDay Schedule:Day Name\n   *************   1461   Sp-Computer_Class_ZN_1_FLR_1 Sys-3 Flr-1 Sch-D HPlcmt-north ZN NECB System 3 PSZ Occ Sch Winter Design Day, !- WinterDesignDay Schedule:Day Name\n   ** Warning ** IP: IDF line~1461 Alpha Argument length exceeds maximum, will be truncated=  Sp-Computer_Class_ZN_1_FLR_1 Sys-3 Flr-1 Sch-D HPlcmt-north ZN NECB System 3 PSZ Occ Sch Winter Design Da\n   **   ~~~   ** Will be processed as Alpha=SP-COMPUTER_CLASS_ZN_1_FLR_1 SYS-3 FLR-1 SCH-D HPLCMT-NORTH ZN NECB SYSTEM 3 PSZ OCC SCH WINTER DESIGN DAY\n   ************* IDF Context for following error/warning message:\n   ************* Note -- lines truncated at 300 characters, if necessary...\n   *************   1481 Schedule:Day:Interval,\n   ************* indicated Name=Sp-Computer_Class_ZN_1_FLR_1 Sys-3 Flr-1 Sch-D HPlcmt-north ZN NECB System 3 PSZ Occ Sch Summer Design Day\n   ************* Only last 1 lines before error line shown.....\n   *************   1482   Sp-Computer_Class_ZN_1_FLR_1 Sys-3 Flr-1 Sch-D HPlcmt-north ZN NECB System 3 PSZ Occ Sch Summer Design Day, !- Name\n   ** Warning ** IP: IDF line~1482 Alpha Argument length exceeds maximum, will be truncated=  Sp-Computer_Class_ZN_1_FLR_1 Sys-3 Flr-1 Sch-D HPlcmt-north ZN NECB System 3 PSZ Occ Sch Summer Design Da\n   **   ~~~   ** Will be processed as Alpha=SP-COMPUTER_CLASS_ZN_1_FLR_1 SYS-3 FLR-1 SCH-D HPLCMT-NORTH ZN NECB SYSTEM 3 PSZ OCC SCH SUMMER DESIGN DAY\n   ************* IDF Context for following error/warning message:\n   ************* Note -- lines truncated at 300 characters, if necessary...\n   *************   1488 Schedule:Day:Interval,\n   ************* indicated Name=Sp-Computer_Class_ZN_1_FLR_1 Sys-3 Flr-1 Sch-D HPlcmt-north ZN NECB System 3 PSZ Occ Sch Winter Design Day\n   ************* Only last 1 lines before error line shown.....\n   *************   1489   Sp-Computer_Class_ZN_1_FLR_1 Sys-3 Flr-1 Sch-D HPlcmt-north ZN NECB System 3 PSZ Occ Sch Winter Design Day, !- Name\n   ** Warning ** IP: IDF line~1489 Alpha Argument length exceeds maximum, will be truncated=  Sp-Computer_Class_ZN_1_FLR_1 Sys-3 Flr-1 Sch-D HPlcmt-north ZN NECB System 3 PSZ Occ Sch Winter Design Da\n   **   ~~~   ** Will be processed as Alpha=SP-COMPUTER_CLASS_ZN_1_FLR_1 SYS-3 FLR-1 SCH-D HPLCMT-NORTH ZN NECB SYSTEM 3 PSZ OCC SCH WINTER DESIGN DAY\n   ************* IDF Context for following error/warning message:\n   ************* Note -- lines truncated at 300 characters, if necessary...\n   *************   1769 Schedule:Day:Interval,\n   ************* indicated Name=Sp-Corner_Class_1_Pod_1_ZN_1_FLR_1 Sys-3 Flr-1 Sch-D HPlcmt-south ZN NECB System 3 PSZ Occ Sch Sunday\n   ************* Only last 1 lines before error line shown.....\n   *************   1770   Sp-Corner_Class_1_Pod_1_ZN_1_FLR_1 Sys-3 Flr-1 Sch-D HPlcmt-south ZN NECB System 3 PSZ Occ Sch Sunday, !- Name\n   ** Warning ** IP: IDF line~1770 Alpha Argument length exceeds maximum, will be truncated=  Sp-Corner_Class_1_Pod_1_ZN_1_FLR_1 Sys-3 Flr-1 Sch-D HPlcmt-south ZN NECB System 3 PSZ Occ Sch Sunda\n   **   ~~~   ** Will be processed as Alpha=SP-CORNER_CLASS_1_POD_1_ZN_1_FLR_1 SYS-3 FLR-1 SCH-D HPLCMT-SOUTH ZN NECB SYSTEM 3 PSZ OCC SCH SUNDAY\n   ************* IDF Context for following error/warning message:\n   ************* Note -- lines truncated at 300 characters, if necessary...\n   *************   1776 Schedule:Day:Interval,\n   ************* indicated Name=Sp-Corner_Class_1_Pod_1_ZN_1_FLR_1 Sys-3 Flr-1 Sch-D HPlcmt-south ZN NECB System 3 PSZ Occ Sch Monday\n   ************* Only last 1 lines before error line shown.....\n   *************   1777   Sp-Corner_Class_1_Pod_1_ZN_1_FLR_1 Sys-3 Flr-1 Sch-D HPlcmt-south ZN NECB System 3 PSZ Occ Sch Monday, !- Name\n   ** Warning ** IP: IDF line~1777 Alpha Argument length exceeds maximum, will be truncated=  Sp-Corner_Class_1_Pod_1_ZN_1_FLR_1 Sys-3 Flr-1 Sch-D HPlcmt-south ZN NECB System 3 PSZ Occ Sch Monda\n   **   ~~~   ** Will be processed as Alpha=SP-CORNER_CLASS_1_POD_1_ZN_1_FLR_1 SYS-3 FLR-1 SCH-D HPLCMT-SOUTH ZN NECB SYSTEM 3 PSZ OCC SCH MONDAY\n   ************* IDF Context for following error/warning message:\n   ************* Note -- lines truncated at 300 characters, if necessary...\n   *************   1791 Schedule:Day:Interval,\n   ************* indicated Name=Sp-Corner_Class_1_Pod_1_ZN_1_FLR_1 Sys-3 Flr-1 Sch-D HPlcmt-south ZN NECB System 3 PSZ Occ Sch Tuesday\n   ************* Only last 1 lines before error line shown.....\n   *************   1792   Sp-Corner_Class_1_Pod_1_ZN_1_FLR_1 Sys-3 Flr-1 Sch-D HPlcmt-south ZN NECB System 3 PSZ Occ Sch Tuesday, !- Name\n   ** Warning ** IP: IDF line~1792 Alpha Argument length exceeds maximum, will be truncated=  Sp-Corner_Class_1_Pod_1_ZN_1_FLR_1 Sys-3 Flr-1 Sch-D HPlcmt-south ZN NECB System 3 PSZ Occ Sch Tuesda\n   **   ~~~   ** Will be processed as Alpha=SP-CORNER_CLASS_1_POD_1_ZN_1_FLR_1 SYS-3 FLR-1 SCH-D HPLCMT-SOUTH ZN NECB SYSTEM 3 PSZ OCC SCH TUESDAY\n   ************* IDF Context for following error/warning message:\n   ************* Note -- lines truncated at 300 characters, if necessary...\n   *************   1806 Schedule:Day:Interval,\n   ************* indicated Name=Sp-Corner_Class_1_Pod_1_ZN_1_FLR_1 Sys-3 Flr-1 Sch-D HPlcmt-south ZN NECB System 3 PSZ Occ Sch Wednesday\n   ************* Only last 1 lines before error line shown.....\n   *************   1807   Sp-Corner_Class_1_Pod_1_ZN_1_FLR_1 Sys-3 Flr-1 Sch-D HPlcmt-south ZN NECB System 3 PSZ Occ Sch Wednesday, !- Name\n   ** Warning ** IP: IDF line~1807 Alpha Argument length exceeds maximum, will be truncated=  Sp-Corner_Class_1_Pod_1_ZN_1_FLR_1 Sys-3 Flr-1 Sch-D HPlcmt-south ZN NECB System 3 PSZ Occ Sch Wednesda\n   **   ~~~   ** Will be processed as Alpha=SP-CORNER_CLASS_1_POD_1_ZN_1_FLR_1 SYS-3 FLR-1 SCH-D HPLCMT-SOUTH ZN NECB SYSTEM 3 PSZ OCC SCH WEDNESDAY\n   ************* IDF Context for following error/warning message:\n   ************* Note -- lines truncated at 300 characters, if necessary...\n   *************   1821 Schedule:Day:Interval,\n   ************* indicated Name=Sp-Corner_Class_1_Pod_1_ZN_1_FLR_1 Sys-3 Flr-1 Sch-D HPlcmt-south ZN NECB System 3 PSZ Occ Sch Thursday\n   ************* Only last 1 lines before error line shown.....\n   *************   1822   Sp-Corner_Class_1_Pod_1_ZN_1_FLR_1 Sys-3 Flr-1 Sch-D HPlcmt-south ZN NECB System 3 PSZ Occ Sch Thursday, !- Name\n   ** Warning ** IP: IDF line~1822 Alpha Argument length exceeds maximum, will be truncated=  Sp-Corner_Class_1_Pod_1_ZN_1_FLR_1 Sys-3 Flr-1 Sch-D HPlcmt-south ZN NECB System 3 PSZ Occ Sch Thursda\n   **   ~~~   ** Will be processed as Alpha=SP-CORNER_CLASS_1_POD_1_ZN_1_FLR_1 SYS-3 FLR-1 SCH-D HPLCMT-SOUTH ZN NECB SYSTEM 3 PSZ OCC SCH THURSDAY\n   ************* IDF Context for following error/warning message:\n   ************* Note -- lines truncated at 300 characters, if necessary...\n   *************   1836 Schedule:Day:Interval,\n   ************* indicated Name=Sp-Corner_Class_1_Pod_1_ZN_1_FLR_1 Sys-3 Flr-1 Sch-D HPlcmt-south ZN NECB System 3 PSZ Occ Sch Friday\n   ************* Only last 1 lines before error line shown.....\n   *************   1837   Sp-Corner_Class_1_Pod_1_ZN_1_FLR_1 Sys-3 Flr-1 Sch-D HPlcmt-south ZN NECB System 3 PSZ Occ Sch Friday, !- Name\n   ** Warning ** IP: IDF line~1837 Alpha Argument length exceeds maximum, will be truncated=  Sp-Corner_Class_1_Pod_1_ZN_1_FLR_1 Sys-3 Flr-1 Sch-D HPlcmt-south ZN NECB System 3 PSZ Occ Sch Frida\n   **   ~~~   ** Will be processed as Alpha=SP-CORNER_CLASS_1_POD_1_ZN_1_FLR_1 SYS-3 FLR-1 SCH-D HPLCMT-SOUTH ZN NECB SYSTEM 3 PSZ OCC SCH FRIDAY\n   ************* IDF Context for following error/warning message:\n   ************* Note -- lines truncated at 300 characters, if necessary...\n   *************   1851 Schedule:Day:Interval,\n   ************* indicated Name=Sp-Corner_Class_1_Pod_1_ZN_1_FLR_1 Sys-3 Flr-1 Sch-D HPlcmt-south ZN NECB System 3 PSZ Occ Sch Saturday\n   ************* Only last 1 lines before error line shown.....\n   *************   1852   Sp-Corner_Class_1_Pod_1_ZN_1_FLR_1 Sys-3 Flr-1 Sch-D HPlcmt-south ZN NECB System 3 PSZ Occ Sch Saturday, !- Name\n   ** Warning ** IP: IDF line~1852 Alpha Argument length exceeds maximum, will be truncated=  Sp-Corner_Class_1_Pod_1_ZN_1_FLR_1 Sys-3 Flr-1 Sch-D HPlcmt-south ZN NECB System 3 PSZ Occ Sch Saturda\n   **   ~~~   ** Will be processed as Alpha=SP-CORNER_CLASS_1_POD_1_ZN_1_FLR_1 SYS-3 FLR-1 SCH-D HPLCMT-SOUTH ZN NECB SYSTEM 3 PSZ OCC SCH SATURDAY\n   ************* IDF Context for following error/warning message:\n   ************* Note -- lines truncated at 300 characters, if necessary...\n   *************   1858 Schedule:Week:Daily,\n   ************* indicated Name=Schedule:Week:Daily {7795d0c8-23ea-4fbd-9ad4-84591db21bd3}\n   ************* Only last 2 lines before error line shown.....\n   *************   1859   Schedule:Week:Daily {7795d0c8-23ea-4fbd-9ad4-84591db21bd3}, !- Name\n   *************   1860   Sp-Corner_Class_1_Pod_1_ZN_1_FLR_1 Sys-3 Flr-1 Sch-D HPlcmt-south ZN NECB System 3 PSZ Occ Sch Sunday, !- Sunday Schedule:Day Name\n   ** Warning ** IP: IDF line~1860 Alpha Argument length exceeds maximum, will be truncated=  Sp-Corner_Class_1_Pod_1_ZN_1_FLR_1 Sys-3 Flr-1 Sch-D HPlcmt-south ZN NECB System 3 PSZ Occ Sch Sunda\n   **   ~~~   ** Will be processed as Alpha=SP-CORNER_CLASS_1_POD_1_ZN_1_FLR_1 SYS-3 FLR-1 SCH-D HPLCMT-SOUTH ZN NECB SYSTEM 3 PSZ OCC SCH SUNDAY\n   ************* IDF Context for following error/warning message:\n   ************* Note -- lines truncated at 300 characters, if necessary...\n   *************   1858 Schedule:Week:Daily,\n   ************* indicated Name=Schedule:Week:Daily {7795d0c8-23ea-4fbd-9ad4-84591db21bd3}\n   ************* Only last 3 lines before error line shown.....\n   *************   1859   Schedule:Week:Daily {7795d0c8-23ea-4fbd-9ad4-84591db21bd3}, !- Name\n   *************   1860   Sp-Corner_Class_1_Pod_1_ZN_1_FLR_1 Sys-3 Flr-1 Sch-D HPlcmt-south ZN NECB System 3 PSZ Occ Sch Sunday, !- Sunday Schedule:Day Name\n   *************   1861   Sp-Corner_Class_1_Pod_1_ZN_1_FLR_1 Sys-3 Flr-1 Sch-D HPlcmt-south ZN NECB System 3 PSZ Occ Sch Monday, !- Monday Schedule:Day Name\n   ** Warning ** IP: IDF line~1861 Alpha Argument length exceeds maximum, will be truncated=  Sp-Corner_Class_1_Pod_1_ZN_1_FLR_1 Sys-3 Flr-1 Sch-D HPlcmt-south ZN NECB System 3 PSZ Occ Sch Monda\n   **   ~~~   ** Will be processed as Alpha=SP-CORNER_CLASS_1_POD_1_ZN_1_FLR_1 SYS-3 FLR-1 SCH-D HPLCMT-SOUTH ZN NECB SYSTEM 3 PSZ OCC SCH MONDAY\n   ************* IDF Context for following error/warning message:\n   ************* Note -- lines truncated at 300 characters, if necessary...\n   *************   1858 Schedule:Week:Daily,\n   ************* indicated Name=Schedule:Week:Daily {7795d0c8-23ea-4fbd-9ad4-84591db21bd3}\n   ************* Only last 4 lines before error line shown.....\n   *************   1859   Schedule:Week:Daily {7795d0c8-23ea-4fbd-9ad4-84591db21bd3}, !- Name\n   *************   1860   Sp-Corner_Class_1_Pod_1_ZN_1_FLR_1 Sys-3 Flr-1 Sch-D HPlcmt-south ZN NECB System 3 PSZ Occ Sch Sunday, !- Sunday Schedule:Day Name\n   *************   1861   Sp-Corner_Class_1_Pod_1_ZN_1_FLR_1 Sys-3 Flr-1 Sch-D HPlcmt-south ZN NECB System 3 PSZ Occ Sch Monday, !- Monday Schedule:Day Name\n   *************   1862   Sp-Corner_Class_1_Pod_1_ZN_1_FLR_1 Sys-3 Flr-1 Sch-D HPlcmt-south ZN NECB System 3 PSZ Occ Sch Tuesday, !- Tuesday Schedule:Day Name\n   ** Warning ** IP: IDF line~1862 Alpha Argument length exceeds maximum, will be truncated=  Sp-Corner_Class_1_Pod_1_ZN_1_FLR_1 Sys-3 Flr-1 Sch-D HPlcmt-south ZN NECB System 3 PSZ Occ Sch Tuesda\n   **   ~~~   ** Will be processed as Alpha=SP-CORNER_CLASS_1_POD_1_ZN_1_FLR_1 SYS-3 FLR-1 SCH-D HPLCMT-SOUTH ZN NECB SYSTEM 3 PSZ OCC SCH TUESDAY\n   ************* IDF Context for following error/warning message:\n   ************* Note -- lines truncated at 300 characters, if necessary...\n   *************   1858 Schedule:Week:Daily,\n   ************* indicated Name=Schedule:Week:Daily {7795d0c8-23ea-4fbd-9ad4-84591db21bd3}\n   ************* Only last 5 lines before error line shown.....\n   *************   1859   Schedule:Week:Daily {7795d0c8-23ea-4fbd-9ad4-84591db21bd3}, !- Name\n   *************   1860   Sp-Corner_Class_1_Pod_1_ZN_1_FLR_1 Sys-3 Flr-1 Sch-D HPlcmt-south ZN NECB System 3 PSZ Occ Sch Sunday, !- Sunday Schedule:Day Name\n   *************   1861   Sp-Corner_Class_1_Pod_1_ZN_1_FLR_1 Sys-3 Flr-1 Sch-D HPlcmt-south ZN NECB System 3 PSZ Occ Sch Monday, !- Monday Schedule:Day Name\n   *************   1862   Sp-Corner_Class_1_Pod_1_ZN_1_FLR_1 Sys-3 Flr-1 Sch-D HPlcmt-south ZN NECB System 3 PSZ Occ Sch Tuesday, !- Tuesday Schedule:Day Name\n   *************   1863   Sp-Corner_Class_1_Pod_1_ZN_1_FLR_1 Sys-3 Flr-1 Sch-D HPlcmt-south ZN NECB System 3 PSZ Occ Sch Wednesday, !- Wednesday Schedule:Day Name\n   ** Warning ** IP: IDF line~1863 Alpha Argument length exceeds maximum, will be truncated=  Sp-Corner_Class_1_Pod_1_ZN_1_FLR_1 Sys-3 Flr-1 Sch-D HPlcmt-south ZN NECB System 3 PSZ Occ Sch Wednesda\n   **   ~~~   ** Will be processed as Alpha=SP-CORNER_CLASS_1_POD_1_ZN_1_FLR_1 SYS-3 FLR-1 SCH-D HPLCMT-SOUTH ZN NECB SYSTEM 3 PSZ OCC SCH WEDNESDAY\n   ************* IDF Context for following error/warning message:\n   ************* Note -- lines truncated at 300 characters, if necessary...\n   *************   1858 Schedule:Week:Daily,\n   ************* indicated Name=Schedule:Week:Daily {7795d0c8-23ea-4fbd-9ad4-84591db21bd3}\n   ************* Only last 6 lines before error line shown.....\n   *************   1859   Schedule:Week:Daily {7795d0c8-23ea-4fbd-9ad4-84591db21bd3}, !- Name\n   *************   1860   Sp-Corner_Class_1_Pod_1_ZN_1_FLR_1 Sys-3 Flr-1 Sch-D HPlcmt-south ZN NECB System 3 PSZ Occ Sch Sunday, !- Sunday Schedule:Day Name\n   *************   1861   Sp-Corner_Class_1_Pod_1_ZN_1_FLR_1 Sys-3 Flr-1 Sch-D HPlcmt-south ZN NECB System 3 PSZ Occ Sch Monday, !- Monday Schedule:Day Name\n   *************   1862   Sp-Corner_Class_1_Pod_1_ZN_1_FLR_1 Sys-3 Flr-1 Sch-D HPlcmt-south ZN NECB System 3 PSZ Occ Sch Tuesday, !- Tuesday Schedule:Day Name\n   *************   1863   Sp-Corner_Class_1_Pod_1_ZN_1_FLR_1 Sys-3 Flr-1 Sch-D HPlcmt-south ZN NECB System 3 PSZ Occ Sch Wednesday, !- Wednesday Schedule:Day Name\n   *************   1864   Sp-Corner_Class_1_Pod_1_ZN_1_FLR_1 Sys-3 Flr-1 Sch-D HPlcmt-south ZN NECB System 3 PSZ Occ Sch Thursday, !- Thursday Schedule:Day Name\n   ** Warning ** IP: IDF line~1864 Alpha Argument length exceeds maximum, will be truncated=  Sp-Corner_Class_1_Pod_1_ZN_1_FLR_1 Sys-3 Flr-1 Sch-D HPlcmt-south ZN NECB System 3 PSZ Occ Sch Thursda\n   **   ~~~   ** Will be processed as Alpha=SP-CORNER_CLASS_1_POD_1_ZN_1_FLR_1 SYS-3 FLR-1 SCH-D HPLCMT-SOUTH ZN NECB SYSTEM 3 PSZ OCC SCH THURSDAY\n   ************* IDF Context for following error/warning message:\n   ************* Note -- lines truncated at 300 characters, if necessary...\n   *************   1858 Schedule:Week:Daily,\n   ************* indicated Name=Schedule:Week:Daily {7795d0c8-23ea-4fbd-9ad4-84591db21bd3}\n   ************* Only last 7 lines before error line shown.....\n   *************   1859   Schedule:Week:Daily {7795d0c8-23ea-4fbd-9ad4-84591db21bd3}, !- Name\n   *************   1860   Sp-Corner_Class_1_Pod_1_ZN_1_FLR_1 Sys-3 Flr-1 Sch-D HPlcmt-south ZN NECB System 3 PSZ Occ Sch Sunday, !- Sunday Schedule:Day Name\n   *************   1861   Sp-Corner_Class_1_Pod_1_ZN_1_FLR_1 Sys-3 Flr-1 Sch-D HPlcmt-south ZN NECB System 3 PSZ Occ Sch Monday, !- Monday Schedule:Day Name\n   *************   1862   Sp-Corner_Class_1_Pod_1_ZN_1_FLR_1 Sys-3 Flr-1 Sch-D HPlcmt-south ZN NECB System 3 PSZ Occ Sch Tuesday, !- Tuesday Schedule:Day Name\n   *************   1863   Sp-Corner_Class_1_Pod_1_ZN_1_FLR_1 Sys-3 Flr-1 Sch-D HPlcmt-south ZN NECB System 3 PSZ Occ Sch Wednesday, !- Wednesday Schedule:Day Name\n   *************   1864   Sp-Corner_Class_1_Pod_1_ZN_1_FLR_1 Sys-3 Flr-1 Sch-D HPlcmt-south ZN NECB System 3 PSZ Occ Sch Thursday, !- Thursday Schedule:Day Name\n   *************   1865   Sp-Corner_Class_1_Pod_1_ZN_1_FLR_1 Sys-3 Flr-1 Sch-D HPlcmt-south ZN NECB System 3 PSZ Occ Sch Friday, !- Friday Schedule:Day Name\n   ** Warning ** IP: IDF line~1865 Alpha Argument length exceeds maximum, will be truncated=  Sp-Corner_Class_1_Pod_1_ZN_1_FLR_1 Sys-3 Flr-1 Sch-D HPlcmt-south ZN NECB System 3 PSZ Occ Sch Frida\n   **   ~~~   ** Will be processed as Alpha=SP-CORNER_CLASS_1_POD_1_ZN_1_FLR_1 SYS-3 FLR-1 SCH-D HPLCMT-SOUTH ZN NECB SYSTEM 3 PSZ OCC SCH FRIDAY\n   ************* IDF Context for following error/warning message:\n   ************* Note -- lines truncated at 300 characters, if necessary...\n   *************   1858 Schedule:Week:Daily,\n   ************* indicated Name=Schedule:Week:Daily {7795d0c8-23ea-4fbd-9ad4-84591db21bd3}\n   ************* Only last 8 lines before error line shown.....\n   *************   1859   Schedule:Week:Daily {7795d0c8-23ea-4fbd-9ad4-84591db21bd3}, !- Name\n   *************   1860   Sp-Corner_Class_1_Pod_1_ZN_1_FLR_1 Sys-3 Flr-1 Sch-D HPlcmt-south ZN NECB System 3 PSZ Occ Sch Sunday, !- Sunday Schedule:Day Name\n   *************   1861   Sp-Corner_Class_1_Pod_1_ZN_1_FLR_1 Sys-3 Flr-1 Sch-D HPlcmt-south ZN NECB System 3 PSZ Occ Sch Monday, !- Monday Schedule:Day Name\n   *************   1862   Sp-Corner_Class_1_Pod_1_ZN_1_FLR_1 Sys-3 Flr-1 Sch-D HPlcmt-south ZN NECB System 3 PSZ Occ Sch Tuesday, !- Tuesday Schedule:Day Name\n   *************   1863   Sp-Corner_Class_1_Pod_1_ZN_1_FLR_1 Sys-3 Flr-1 Sch-D HPlcmt-south ZN NECB System 3 PSZ Occ Sch Wednesday, !- Wednesday Schedule:Day Name\n   *************   1864   Sp-Corner_Class_1_Pod_1_ZN_1_FLR_1 Sys-3 Flr-1 Sch-D HPlcmt-south ZN NECB System 3 PSZ Occ Sch Thursday, !- Thursday Schedule:Day Name\n   *************   1865   Sp-Corner_Class_1_Pod_1_ZN_1_FLR_1 Sys-3 Flr-1 Sch-D HPlcmt-south ZN NECB System 3 PSZ Occ Sch Friday, !- Friday Schedule:Day Name\n   *************   1866   Sp-Corner_Class_1_Pod_1_ZN_1_FLR_1 Sys-3 Flr-1 Sch-D HPlcmt-south ZN NECB System 3 PSZ Occ Sch Saturday, !- Saturday Schedule:Day Name\n   ** Warning ** IP: IDF line~1866 Alpha Argument length exceeds maximum, will be truncated=  Sp-Corner_Class_1_Pod_1_ZN_1_FLR_1 Sys-3 Flr-1 Sch-D HPlcmt-south ZN NECB System 3 PSZ Occ Sch Saturda\n   **   ~~~   ** Will be processed as Alpha=SP-CORNER_CLASS_1_POD_1_ZN_1_FLR_1 SYS-3 FLR-1 SCH-D HPLCMT-SOUTH ZN NECB SYSTEM 3 PSZ OCC SCH SATURDAY\n   ************* IDF Context for following error/warning message:\n   ************* Note -- lines truncated at 300 characters, if necessary...\n   *************   1858 Schedule:Week:Daily,\n   ************* indicated Name=Schedule:Week:Daily {7795d0c8-23ea-4fbd-9ad4-84591db21bd3}\n   ************* Only last 9 lines before error line shown.....\n   *************   1859   Schedule:Week:Daily {7795d0c8-23ea-4fbd-9ad4-84591db21bd3}, !- Name\n   *************   1860   Sp-Corner_Class_1_Pod_1_ZN_1_FLR_1 Sys-3 Flr-1 Sch-D HPlcmt-south ZN NECB System 3 PSZ Occ Sch Sunday, !- Sunday Schedule:Day Name\n   *************   1861   Sp-Corner_Class_1_Pod_1_ZN_1_FLR_1 Sys-3 Flr-1 Sch-D HPlcmt-south ZN NECB System 3 PSZ Occ Sch Monday, !- Monday Schedule:Day Name\n   *************   1862   Sp-Corner_Class_1_Pod_1_ZN_1_FLR_1 Sys-3 Flr-1 Sch-D HPlcmt-south ZN NECB System 3 PSZ Occ Sch Tuesday, !- Tuesday Schedule:Day Name\n   *************   1863   Sp-Corner_Class_1_Pod_1_ZN_1_FLR_1 Sys-3 Flr-1 Sch-D HPlcmt-south ZN NECB System 3 PSZ Occ Sch Wednesday, !- Wednesday Schedule:Day Name\n   *************   1864   Sp-Corner_Class_1_Pod_1_ZN_1_FLR_1 Sys-3 Flr-1 Sch-D HPlcmt-south ZN NECB System 3 PSZ Occ Sch Thursday, !- Thursday Schedule:Day Name\n   *************   1865   Sp-Corner_Class_1_Pod_1_ZN_1_FLR_1 Sys-3 Flr-1 Sch-D HPlcmt-south ZN NECB System 3 PSZ Occ Sch Friday, !- Friday Schedule:Day Name\n   *************   1866   Sp-Corner_Class_1_Pod_1_ZN_1_FLR_1 Sys-3 Flr-1 Sch-D HPlcmt-south ZN NECB System 3 PSZ Occ Sch Saturday, !- Saturday Schedule:Day Name\n   *************   1867   Sp-Corner_Class_1_Pod_1_ZN_1_FLR_1 Sys-3 Flr-1 Sch-D HPlcmt-south ZN NECB System 3 PSZ Occ Sch Default, !- Holiday Schedule:Day Name\n   ** Warning ** IP: IDF line~1867 Alpha Argument length exceeds maximum, will be truncated=  Sp-Corner_Class_1_Pod_1_ZN_1_FLR_1 Sys-3 Flr-1 Sch-D HPlcmt-south ZN NECB System 3 PSZ Occ Sch Defaul\n   **   ~~~   ** Will be processed as Alpha=SP-CORNER_CLASS_1_POD_1_ZN_1_FLR_1 SYS-3 FLR-1 SCH-D HPLCMT-SOUTH ZN NECB SYSTEM 3 PSZ OCC SCH DEFAULT\n   ************* IDF Context for following error/warning message:\n   ************* Note -- lines truncated at 300 characters, if necessary...\n   *************   1858 Schedule:Week:Daily,\n   ************* indicated Name=Schedule:Week:Daily {7795d0c8-23ea-4fbd-9ad4-84591db21bd3}\n   ************* Only last 10 lines before error line shown.....\n   *************   1859   Schedule:Week:Daily {7795d0c8-23ea-4fbd-9ad4-84591db21bd3}, !- Name\n   *************   1860   Sp-Corner_Class_1_Pod_1_ZN_1_FLR_1 Sys-3 Flr-1 Sch-D HPlcmt-south ZN NECB System 3 PSZ Occ Sch Sunday, !- Sunday Schedule:Day Name\n   *************   1861   Sp-Corner_Class_1_Pod_1_ZN_1_FLR_1 Sys-3 Flr-1 Sch-D HPlcmt-south ZN NECB System 3 PSZ Occ Sch Monday, !- Monday Schedule:Day Name\n   *************   1862   Sp-Corner_Class_1_Pod_1_ZN_1_FLR_1 Sys-3 Flr-1 Sch-D HPlcmt-south ZN NECB System 3 PSZ Occ Sch Tuesday, !- Tuesday Schedule:Day Name\n   *************   1863   Sp-Corner_Class_1_Pod_1_ZN_1_FLR_1 Sys-3 Flr-1 Sch-D HPlcmt-south ZN NECB System 3 PSZ Occ Sch Wednesday, !- Wednesday Schedule:Day Name\n   *************   1864   Sp-Corner_Class_1_Pod_1_ZN_1_FLR_1 Sys-3 Flr-1 Sch-D HPlcmt-south ZN NECB System 3 PSZ Occ Sch Thursday, !- Thursday Schedule:Day Name\n   *************   1865   Sp-Corner_Class_1_Pod_1_ZN_1_FLR_1 Sys-3 Flr-1 Sch-D HPlcmt-south ZN NECB System 3 PSZ Occ Sch Friday, !- Friday Schedule:Day Name\n   *************   1866   Sp-Corner_Class_1_Pod_1_ZN_1_FLR_1 Sys-3 Flr-1 Sch-D HPlcmt-south ZN NECB System 3 PSZ Occ Sch Saturday, !- Saturday Schedule:Day Name\n   *************   1867   Sp-Corner_Class_1_Pod_1_ZN_1_FLR_1 Sys-3 Flr-1 Sch-D HPlcmt-south ZN NECB System 3 PSZ Occ Sch Default, !- Holiday Schedule:Day Name\n   *************   1868   Sp-Corner_Class_1_Pod_1_ZN_1_FLR_1 Sys-3 Flr-1 Sch-D HPlcmt-south ZN NECB System 3 PSZ Occ Sch Summer Design Day, !- SummerDesignDay Schedule:Day Name\n   ** Warning ** IP: IDF line~1868 Alpha Argument length exceeds maximum, will be truncated=  Sp-Corner_Class_1_Pod_1_ZN_1_FLR_1 Sys-3 Flr-1 Sch-D HPlcmt-south ZN NECB System 3 PSZ Occ Sch Summer Design Da\n   **   ~~~   ** Will be processed as Alpha=SP-CORNER_CLASS_1_POD_1_ZN_1_FLR_1 SYS-3 FLR-1 SCH-D HPLCMT-SOUTH ZN NECB SYSTEM 3 PSZ OCC SCH SUMMER DESIGN DAY\n   ************* IDF Context for following error/warning message:\n   ************* Note -- lines truncated at 300 characters, if necessary...\n   *************   1858 Schedule:Week:Daily,\n   ************* indicated Name=Schedule:Week:Daily {7795d0c8-23ea-4fbd-9ad4-84591db21bd3}\n   ************* Only last 10 lines before error line shown.....\n   *************   1860   Sp-Corner_Class_1_Pod_1_ZN_1_FLR_1 Sys-3 Flr-1 Sch-D HPlcmt-south ZN NECB System 3 PSZ Occ Sch Sunday, !- Sunday Schedule:Day Name\n   *************   1861   Sp-Corner_Class_1_Pod_1_ZN_1_FLR_1 Sys-3 Flr-1 Sch-D HPlcmt-south ZN NECB System 3 PSZ Occ Sch Monday, !- Monday Schedule:Day Name\n   *************   1862   Sp-Corner_Class_1_Pod_1_ZN_1_FLR_1 Sys-3 Flr-1 Sch-D HPlcmt-south ZN NECB System 3 PSZ Occ Sch Tuesday, !- Tuesday Schedule:Day Name\n   *************   1863   Sp-Corner_Class_1_Pod_1_ZN_1_FLR_1 Sys-3 Flr-1 Sch-D HPlcmt-south ZN NECB System 3 PSZ Occ Sch Wednesday, !- Wednesday Schedule:Day Name\n   *************   1864   Sp-Corner_Class_1_Pod_1_ZN_1_FLR_1 Sys-3 Flr-1 Sch-D HPlcmt-south ZN NECB System 3 PSZ Occ Sch Thursday, !- Thursday Schedule:Day Name\n   *************   1865   Sp-Corner_Class_1_Pod_1_ZN_1_FLR_1 Sys-3 Flr-1 Sch-D HPlcmt-south ZN NECB System 3 PSZ Occ Sch Friday, !- Friday Schedule:Day Name\n   *************   1866   Sp-Corner_Class_1_Pod_1_ZN_1_FLR_1 Sys-3 Flr-1 Sch-D HPlcmt-south ZN NECB System 3 PSZ Occ Sch Saturday, !- Saturday Schedule:Day Name\n   *************   1867   Sp-Corner_Class_1_Pod_1_ZN_1_FLR_1 Sys-3 Flr-1 Sch-D HPlcmt-south ZN NECB System 3 PSZ Occ Sch Default, !- Holiday Schedule:Day Name\n   *************   1868   Sp-Corner_Class_1_Pod_1_ZN_1_FLR_1 Sys-3 Flr-1 Sch-D HPlcmt-south ZN NECB System 3 PSZ Occ Sch Summer Design Day, !- SummerDesignDay Schedule:Day Name\n   *************   1869   Sp-Corner_Class_1_Pod_1_ZN_1_FLR_1 Sys-3 Flr-1 Sch-D HPlcmt-south ZN NECB System 3 PSZ Occ Sch Winter Design Day, !- WinterDesignDay Schedule:Day Name\n   ** Warning ** IP: IDF line~1869 Alpha Argument length exceeds maximum, will be truncated=  Sp-Corner_Class_1_Pod_1_ZN_1_FLR_1 Sys-3 Flr-1 Sch-D HPlcmt-south ZN NECB System 3 PSZ Occ Sch Winter Design Da\n   **   ~~~   ** Will be processed as Alpha=SP-CORNER_CLASS_1_POD_1_ZN_1_FLR_1 SYS-3 FLR-1 SCH-D HPLCMT-SOUTH ZN NECB SYSTEM 3 PSZ OCC SCH WINTER DESIGN DAY\n   ************* IDF Context for following error/warning message:\n   ************* Note -- lines truncated at 300 characters, if necessary...\n   *************   1858 Schedule:Week:Daily,\n   ************* indicated Name=Schedule:Week:Daily {7795d0c8-23ea-4fbd-9ad4-84591db21bd3}\n   ************* Only last 10 lines before error line shown.....\n   *************   1861   Sp-Corner_Class_1_Pod_1_ZN_1_FLR_1 Sys-3 Flr-1 Sch-D HPlcmt-south ZN NECB System 3 PSZ Occ Sch Monday, !- Monday Schedule:Day Name\n   *************   1862   Sp-Corner_Class_1_Pod_1_ZN_1_FLR_1 Sys-3 Flr-1 Sch-D HPlcmt-south ZN NECB System 3 PSZ Occ Sch Tuesday, !- Tuesday Schedule:Day Name\n   *************   1863   Sp-Corner_Class_1_Pod_1_ZN_1_FLR_1 Sys-3 Flr-1 Sch-D HPlcmt-south ZN NECB System 3 PSZ Occ Sch Wednesday, !- Wednesday Schedule:Day Name\n   *************   1864   Sp-Corner_Class_1_Pod_1_ZN_1_FLR_1 Sys-3 Flr-1 Sch-D HPlcmt-south ZN NECB System 3 PSZ Occ Sch Thursday, !- Thursday Schedule:Day Name\n   *************   1865   Sp-Corner_Class_1_Pod_1_ZN_1_FLR_1 Sys-3 Flr-1 Sch-D HPlcmt-south ZN NECB System 3 PSZ Occ Sch Friday, !- Friday Schedule:Day Name\n   *************   1866   Sp-Corner_Class_1_Pod_1_ZN_1_FLR_1 Sys-3 Flr-1 Sch-D HPlcmt-south ZN NECB System 3 PSZ Occ Sch Saturday, !- Saturday Schedule:Day Name\n   *************   1867   Sp-Corner_Class_1_Pod_1_ZN_1_FLR_1 Sys-3 Flr-1 Sch-D HPlcmt-south ZN NECB System 3 PSZ Occ Sch Default, !- Holiday Schedule:Day Name\n   *************   1868   Sp-Corner_Class_1_Pod_1_ZN_1_FLR_1 Sys-3 Flr-1 Sch-D HPlcmt-south ZN NECB System 3 PSZ Occ Sch Summer Design Day, !- SummerDesignDay Schedule:Day Name\n   *************   1869   Sp-Corner_Class_1_Pod_1_ZN_1_FLR_1 Sys-3 Flr-1 Sch-D HPlcmt-south ZN NECB System 3 PSZ Occ Sch Winter Design Day, !- WinterDesignDay Schedule:Day Name\n   *************   1870   Sp-Corner_Class_1_Pod_1_ZN_1_FLR_1 Sys-3 Flr-1 Sch-D HPlcmt-south ZN NECB System 3 PSZ Occ Sch Default, !- CustomDay1 Schedule:Day Name\n   ** Warning ** IP: IDF line~1870 Alpha Argument length exceeds maximum, will be truncated=  Sp-Corner_Class_1_Pod_1_ZN_1_FLR_1 Sys-3 Flr-1 Sch-D HPlcmt-south ZN NECB System 3 PSZ Occ Sch Defaul\n   **   ~~~   ** Will be processed as Alpha=SP-CORNER_CLASS_1_POD_1_ZN_1_FLR_1 SYS-3 FLR-1 SCH-D HPLCMT-SOUTH ZN NECB SYSTEM 3 PSZ OCC SCH DEFAULT\n   ************* IDF Context for following error/warning message:\n   ************* Note -- lines truncated at 300 characters, if necessary...\n   *************   1858 Schedule:Week:Daily,\n   ************* indicated Name=Schedule:Week:Daily {7795d0c8-23ea-4fbd-9ad4-84591db21bd3}\n   ************* Only last 10 lines before error line shown.....\n   *************   1862   Sp-Corner_Class_1_Pod_1_ZN_1_FLR_1 Sys-3 Flr-1 Sch-D HPlcmt-south ZN NECB System 3 PSZ Occ Sch Tuesday, !- Tuesday Schedule:Day Name\n   *************   1863   Sp-Corner_Class_1_Pod_1_ZN_1_FLR_1 Sys-3 Flr-1 Sch-D HPlcmt-south ZN NECB System 3 PSZ Occ Sch Wednesday, !- Wednesday Schedule:Day Name\n   *************   1864   Sp-Corner_Class_1_Pod_1_ZN_1_FLR_1 Sys-3 Flr-1 Sch-D HPlcmt-south ZN NECB System 3 PSZ Occ Sch Thursday, !- Thursday Schedule:Day Name\n   *************   1865   Sp-Corner_Class_1_Pod_1_ZN_1_FLR_1 Sys-3 Flr-1 Sch-D HPlcmt-south ZN NECB System 3 PSZ Occ Sch Friday, !- Friday Schedule:Day Name\n   *************   1866   Sp-Corner_Class_1_Pod_1_ZN_1_FLR_1 Sys-3 Flr-1 Sch-D HPlcmt-south ZN NECB System 3 PSZ Occ Sch Saturday, !- Saturday Schedule:Day Name\n   *************   1867   Sp-Corner_Class_1_Pod_1_ZN_1_FLR_1 Sys-3 Flr-1 Sch-D HPlcmt-south ZN NECB System 3 PSZ Occ Sch Default, !- Holiday Schedule:Day Name\n   *************   1868   Sp-Corner_Class_1_Pod_1_ZN_1_FLR_1 Sys-3 Flr-1 Sch-D HPlcmt-south ZN NECB System 3 PSZ Occ Sch Summer Design Day, !- SummerDesignDay Schedule:Day Name\n   *************   1869   Sp-Corner_Class_1_Pod_1_ZN_1_FLR_1 Sys-3 Flr-1 Sch-D HPlcmt-south ZN NECB System 3 PSZ Occ Sch Winter Design Day, !- WinterDesignDay Schedule:Day Name\n   *************   1870   Sp-Corner_Class_1_Pod_1_ZN_1_FLR_1 Sys-3 Flr-1 Sch-D HPlcmt-south ZN NECB System 3 PSZ Occ Sch Default, !- CustomDay1 Schedule:Day Name\n   *************   1871   Sp-Corner_Class_1_Pod_1_ZN_1_FLR_1 Sys-3 Flr-1 Sch-D HPlcmt-south ZN NECB System 3 PSZ Occ Sch Default; !- CustomDay2 Schedule:Day Name\n   ** Warning ** IP: IDF line~1871 Alpha Argument length exceeds maximum, will be truncated=  Sp-Corner_Class_1_Pod_1_ZN_1_FLR_1 Sys-3 Flr-1 Sch-D HPlcmt-south ZN NECB System 3 PSZ Occ Sch Defaul\n   **   ~~~   ** Will be processed as Alpha=SP-CORNER_CLASS_1_POD_1_ZN_1_FLR_1 SYS-3 FLR-1 SCH-D HPLCMT-SOUTH ZN NECB SYSTEM 3 PSZ OCC SCH DEFAULT\n   ************* IDF Context for following error/warning message:\n   ************* Note -- lines truncated at 300 characters, if necessary...\n   *************   1882 Schedule:Day:Interval,\n   ************* indicated Name=Sp-Corner_Class_1_Pod_1_ZN_1_FLR_1 Sys-3 Flr-1 Sch-D HPlcmt-south ZN NECB System 3 PSZ Occ Sch Default\n   ************* Only last 1 lines before error line shown.....\n   *************   1883   Sp-Corner_Class_1_Pod_1_ZN_1_FLR_1 Sys-3 Flr-1 Sch-D HPlcmt-south ZN NECB System 3 PSZ Occ Sch Default, !- Name\n   ** Warning ** IP: IDF line~1883 Alpha Argument length exceeds maximum, will be truncated=  Sp-Corner_Class_1_Pod_1_ZN_1_FLR_1 Sys-3 Flr-1 Sch-D HPlcmt-south ZN NECB System 3 PSZ Occ Sch Defaul\n   **   ~~~   ** Will be processed as Alpha=SP-CORNER_CLASS_1_POD_1_ZN_1_FLR_1 SYS-3 FLR-1 SCH-D HPLCMT-SOUTH ZN NECB SYSTEM 3 PSZ OCC SCH DEFAULT\n   ************* IDF Context for following error/warning message:\n   ************* Note -- lines truncated at 300 characters, if necessary...\n   *************   1889 Schedule:Day:Interval,\n   ************* indicated Name=Sp-Corner_Class_1_Pod_1_ZN_1_FLR_1 Sys-3 Flr-1 Sch-D HPlcmt-south ZN NECB System 3 PSZ Occ Sch Summer Design Day\n   ************* Only last 1 lines before error line shown.....\n   *************   1890   Sp-Corner_Class_1_Pod_1_ZN_1_FLR_1 Sys-3 Flr-1 Sch-D HPlcmt-south ZN NECB System 3 PSZ Occ Sch Summer Design Day, !- Name\n   ** Warning ** IP: IDF line~1890 Alpha Argument length exceeds maximum, will be truncated=  Sp-Corner_Class_1_Pod_1_ZN_1_FLR_1 Sys-3 Flr-1 Sch-D HPlcmt-south ZN NECB System 3 PSZ Occ Sch Summer Design Da\n   **   ~~~   ** Will be processed as Alpha=SP-CORNER_CLASS_1_POD_1_ZN_1_FLR_1 SYS-3 FLR-1 SCH-D HPLCMT-SOUTH ZN NECB SYSTEM 3 PSZ OCC SCH SUMMER DESIGN DAY\n   ************* IDF Context for following error/warning message:\n   ************* Note -- lines truncated at 300 characters, if necessary...\n   *************   1896 Schedule:Day:Interval,\n   ************* indicated Name=Sp-Corner_Class_1_Pod_1_ZN_1_FLR_1 Sys-3 Flr-1 Sch-D HPlcmt-south ZN NECB System 3 PSZ Occ Sch Winter Design Day\n   ************* Only last 1 lines before error line shown.....\n   *************   1897   Sp-Corner_Class_1_Pod_1_ZN_1_FLR_1 Sys-3 Flr-1 Sch-D HPlcmt-south ZN NECB System 3 PSZ Occ Sch Winter Design Day, !- Name\n   ** Warning ** IP: IDF line~1897 Alpha Argument length exceeds maximum, will be truncated=  Sp-Corner_Class_1_Pod_1_ZN_1_FLR_1 Sys-3 Flr-1 Sch-D HPlcmt-south ZN NECB System 3 PSZ Occ Sch Winter Design Da\n   **   ~~~   ** Will be processed as Alpha=SP-CORNER_CLASS_1_POD_1_ZN_1_FLR_1 SYS-3 FLR-1 SCH-D HPLCMT-SOUTH ZN NECB SYSTEM 3 PSZ OCC SCH WINTER DESIGN DAY\n   ************* IDF Context for following error/warning message:\n   ************* Note -- lines truncated at 300 characters, if necessary...\n   *************   2169 Schedule:Day:Interval,\n   ************* indicated Name=Sp-Corner_Class_1_Pod_2_ZN_1_FLR_1 Sys-3 Flr-1 Sch-D HPlcmt-south ZN NECB System 3 PSZ Occ Sch Sunday\n   ************* Only last 1 lines before error line shown.....\n   *************   2170   Sp-Corner_Class_1_Pod_2_ZN_1_FLR_1 Sys-3 Flr-1 Sch-D HPlcmt-south ZN NECB System 3 PSZ Occ Sch Sunday, !- Name\n   ** Warning ** IP: IDF line~2170 Alpha Argument length exceeds maximum, will be truncated=  Sp-Corner_Class_1_Pod_2_ZN_1_FLR_1 Sys-3 Flr-1 Sch-D HPlcmt-south ZN NECB System 3 PSZ Occ Sch Sunda\n   **   ~~~   ** Will be processed as Alpha=SP-CORNER_CLASS_1_POD_2_ZN_1_FLR_1 SYS-3 FLR-1 SCH-D HPLCMT-SOUTH ZN NECB SYSTEM 3 PSZ OCC SCH SUNDAY\n   ************* IDF Context for following error/warning message:\n   ************* Note -- lines truncated at 300 characters, if necessary...\n   *************   2176 Schedule:Day:Interval,\n   ************* indicated Name=Sp-Corner_Class_1_Pod_2_ZN_1_FLR_1 Sys-3 Flr-1 Sch-D HPlcmt-south ZN NECB System 3 PSZ Occ Sch Monday\n   ************* Only last 1 lines before error line shown.....\n   *************   2177   Sp-Corner_Class_1_Pod_2_ZN_1_FLR_1 Sys-3 Flr-1 Sch-D HPlcmt-south ZN NECB System 3 PSZ Occ Sch Monday, !- Name\n   ** Warning ** IP: IDF line~2177 Alpha Argument length exceeds maximum, will be truncated=  Sp-Corner_Class_1_Pod_2_ZN_1_FLR_1 Sys-3 Flr-1 Sch-D HPlcmt-south ZN NECB System 3 PSZ Occ Sch Monda\n   **   ~~~   ** Will be processed as Alpha=SP-CORNER_CLASS_1_POD_2_ZN_1_FLR_1 SYS-3 FLR-1 SCH-D HPLCMT-SOUTH ZN NECB SYSTEM 3 PSZ OCC SCH MONDAY\n   ************* IDF Context for following error/warning message:\n   ************* Note -- lines truncated at 300 characters, if necessary...\n   *************   2191 Schedule:Day:Interval,\n   ************* indicated Name=Sp-Corner_Class_1_Pod_2_ZN_1_FLR_1 Sys-3 Flr-1 Sch-D HPlcmt-south ZN NECB System 3 PSZ Occ Sch Tuesday\n   ************* Only last 1 lines before error line shown.....\n   *************   2192   Sp-Corner_Class_1_Pod_2_ZN_1_FLR_1 Sys-3 Flr-1 Sch-D HPlcmt-south ZN NECB System 3 PSZ Occ Sch Tuesday, !- Name\n   ** Warning ** IP: IDF line~2192 Alpha Argument length exceeds maximum, will be truncated=  Sp-Corner_Class_1_Pod_2_ZN_1_FLR_1 Sys-3 Flr-1 Sch-D HPlcmt-south ZN NECB System 3 PSZ Occ Sch Tuesda\n   **   ~~~   ** Will be processed as Alpha=SP-CORNER_CLASS_1_POD_2_ZN_1_FLR_1 SYS-3 FLR-1 SCH-D HPLCMT-SOUTH ZN NECB SYSTEM 3 PSZ OCC SCH TUESDAY\n   ************* IDF Context for following error/warning message:\n   ************* Note -- lines truncated at 300 characters, if necessary...\n   *************   2206 Schedule:Day:Interval,\n   ************* indicated Name=Sp-Corner_Class_1_Pod_2_ZN_1_FLR_1 Sys-3 Flr-1 Sch-D HPlcmt-south ZN NECB System 3 PSZ Occ Sch Wednesday\n   ************* Only last 1 lines before error line shown.....\n   *************   2207   Sp-Corner_Class_1_Pod_2_ZN_1_FLR_1 Sys-3 Flr-1 Sch-D HPlcmt-south ZN NECB System 3 PSZ Occ Sch Wednesday, !- Name\n   ** Warning ** IP: IDF line~2207 Alpha Argument length exceeds maximum, will be truncated=  Sp-Corner_Class_1_Pod_2_ZN_1_FLR_1 Sys-3 Flr-1 Sch-D HPlcmt-south ZN NECB System 3 PSZ Occ Sch Wednesda\n   **   ~~~   ** Will be processed as Alpha=SP-CORNER_CLASS_1_POD_2_ZN_1_FLR_1 SYS-3 FLR-1 SCH-D HPLCMT-SOUTH ZN NECB SYSTEM 3 PSZ OCC SCH WEDNESDAY\n   ************* IDF Context for following error/warning message:\n   ************* Note -- lines truncated at 300 characters, if necessary...\n   *************   2221 Schedule:Day:Interval,\n   ************* indicated Name=Sp-Corner_Class_1_Pod_2_ZN_1_FLR_1 Sys-3 Flr-1 Sch-D HPlcmt-south ZN NECB System 3 PSZ Occ Sch Thursday\n   ************* Only last 1 lines before error line shown.....\n   *************   2222   Sp-Corner_Class_1_Pod_2_ZN_1_FLR_1 Sys-3 Flr-1 Sch-D HPlcmt-south ZN NECB System 3 PSZ Occ Sch Thursday, !- Name\n   ** Warning ** IP: IDF line~2222 Alpha Argument length exceeds maximum, will be truncated=  Sp-Corner_Class_1_Pod_2_ZN_1_FLR_1 Sys-3 Flr-1 Sch-D HPlcmt-south ZN NECB System 3 PSZ Occ Sch Thursda\n   **   ~~~   ** Will be processed as Alpha=SP-CORNER_CLASS_1_POD_2_ZN_1_FLR_1 SYS-3 FLR-1 SCH-D HPLCMT-SOUTH ZN NECB SYSTEM 3 PSZ OCC SCH THURSDAY\n   ************* IDF Context for following error/warning message:\n   ************* Note -- lines truncated at 300 characters, if necessary...\n   *************   2236 Schedule:Day:Interval,\n   ************* indicated Name=Sp-Corner_Class_1_Pod_2_ZN_1_FLR_1 Sys-3 Flr-1 Sch-D HPlcmt-south ZN NECB System 3 PSZ Occ Sch Friday\n   ************* Only last 1 lines before error line shown.....\n   *************   2237   Sp-Corner_Class_1_Pod_2_ZN_1_FLR_1 Sys-3 Flr-1 Sch-D HPlcmt-south ZN NECB System 3 PSZ Occ Sch Friday, !- Name\n   ** Warning ** IP: IDF line~2237 Alpha Argument length exceeds maximum, will be truncated=  Sp-Corner_Class_1_Pod_2_ZN_1_FLR_1 Sys-3 Flr-1 Sch-D HPlcmt-south ZN NECB System 3 PSZ Occ Sch Frida\n   **   ~~~   ** Will be processed as Alpha=SP-CORNER_CLASS_1_POD_2_ZN_1_FLR_1 SYS-3 FLR-1 SCH-D HPLCMT-SOUTH ZN NECB SYSTEM 3 PSZ OCC SCH FRIDAY\n   ************* IDF Context for following error/warning message:\n   ************* Note -- lines truncated at 300 characters, if necessary...\n   *************   2251 Schedule:Day:Interval,\n   ************* indicated Name=Sp-Corner_Class_1_Pod_2_ZN_1_FLR_1 Sys-3 Flr-1 Sch-D HPlcmt-south ZN NECB System 3 PSZ Occ Sch Saturday\n   ************* Only last 1 lines before error line shown.....\n   *************   2252   Sp-Corner_Class_1_Pod_2_ZN_1_FLR_1 Sys-3 Flr-1 Sch-D HPlcmt-south ZN NECB System 3 PSZ Occ Sch Saturday, !- Name\n   ** Warning ** IP: IDF line~2252 Alpha Argument length exceeds maximum, will be truncated=  Sp-Corner_Class_1_Pod_2_ZN_1_FLR_1 Sys-3 Flr-1 Sch-D HPlcmt-south ZN NECB System 3 PSZ Occ Sch Saturda\n   **   ~~~   ** Will be processed as Alpha=SP-CORNER_CLASS_1_POD_2_ZN_1_FLR_1 SYS-3 FLR-1 SCH-D HPLCMT-SOUTH ZN NECB SYSTEM 3 PSZ OCC SCH SATURDAY\n   ************* IDF Context for following error/warning message:\n   ************* Note -- lines truncated at 300 characters, if necessary...\n   *************   2258 Schedule:Week:Daily,\n   ************* indicated Name=Schedule:Week:Daily {97a5c619-7fd8-4613-b053-2fbd568bcf05}\n   ************* Only last 2 lines before error line shown.....\n   *************   2259   Schedule:Week:Daily {97a5c619-7fd8-4613-b053-2fbd568bcf05}, !- Name\n   *************   2260   Sp-Corner_Class_1_Pod_2_ZN_1_FLR_1 Sys-3 Flr-1 Sch-D HPlcmt-south ZN NECB System 3 PSZ Occ Sch Sunday, !- Sunday Schedule:Day Name\n   ** Warning ** IP: IDF line~2260 Alpha Argument length exceeds maximum, will be truncated=  Sp-Corner_Class_1_Pod_2_ZN_1_FLR_1 Sys-3 Flr-1 Sch-D HPlcmt-south ZN NECB System 3 PSZ Occ Sch Sunda\n   **   ~~~   ** Will be processed as Alpha=SP-CORNER_CLASS_1_POD_2_ZN_1_FLR_1 SYS-3 FLR-1 SCH-D HPLCMT-SOUTH ZN NECB SYSTEM 3 PSZ OCC SCH SUNDAY\n   ************* IDF Context for following error/warning message:\n   ************* Note -- lines truncated at 300 characters, if necessary...\n   *************   2258 Schedule:Week:Daily,\n   ************* indicated Name=Schedule:Week:Daily {97a5c619-7fd8-4613-b053-2fbd568bcf05}\n   ************* Only last 3 lines before error line shown.....\n   *************   2259   Schedule:Week:Daily {97a5c619-7fd8-4613-b053-2fbd568bcf05}, !- Name\n   *************   2260   Sp-Corner_Class_1_Pod_2_ZN_1_FLR_1 Sys-3 Flr-1 Sch-D HPlcmt-south ZN NECB System 3 PSZ Occ Sch Sunday, !- Sunday Schedule:Day Name\n   *************   2261   Sp-Corner_Class_1_Pod_2_ZN_1_FLR_1 Sys-3 Flr-1 Sch-D HPlcmt-south ZN NECB System 3 PSZ Occ Sch Monday, !- Monday Schedule:Day Name\n   ** Warning ** IP: IDF line~2261 Alpha Argument length exceeds maximum, will be truncated=  Sp-Corner_Class_1_Pod_2_ZN_1_FLR_1 Sys-3 Flr-1 Sch-D HPlcmt-south ZN NECB System 3 PSZ Occ Sch Monda\n   **   ~~~   ** Will be processed as Alpha=SP-CORNER_CLASS_1_POD_2_ZN_1_FLR_1 SYS-3 FLR-1 SCH-D HPLCMT-SOUTH ZN NECB SYSTEM 3 PSZ OCC SCH MONDAY\n   ************* IDF Context for following error/warning message:\n   ************* Note -- lines truncated at 300 characters, if necessary...\n   *************   2258 Schedule:Week:Daily,\n   ************* indicated Name=Schedule:Week:Daily {97a5c619-7fd8-4613-b053-2fbd568bcf05}\n   ************* Only last 4 lines before error line shown.....\n   *************   2259   Schedule:Week:Daily {97a5c619-7fd8-4613-b053-2fbd568bcf05}, !- Name\n   *************   2260   Sp-Corner_Class_1_Pod_2_ZN_1_FLR_1 Sys-3 Flr-1 Sch-D HPlcmt-south ZN NECB System 3 PSZ Occ Sch Sunday, !- Sunday Schedule:Day Name\n   *************   2261   Sp-Corner_Class_1_Pod_2_ZN_1_FLR_1 Sys-3 Flr-1 Sch-D HPlcmt-south ZN NECB System 3 PSZ Occ Sch Monday, !- Monday Schedule:Day Name\n   *************   2262   Sp-Corner_Class_1_Pod_2_ZN_1_FLR_1 Sys-3 Flr-1 Sch-D HPlcmt-south ZN NECB System 3 PSZ Occ Sch Tuesday, !- Tuesday Schedule:Day Name\n   ** Warning ** IP: IDF line~2262 Alpha Argument length exceeds maximum, will be truncated=  Sp-Corner_Class_1_Pod_2_ZN_1_FLR_1 Sys-3 Flr-1 Sch-D HPlcmt-south ZN NECB System 3 PSZ Occ Sch Tuesda\n   **   ~~~   ** Will be processed as Alpha=SP-CORNER_CLASS_1_POD_2_ZN_1_FLR_1 SYS-3 FLR-1 SCH-D HPLCMT-SOUTH ZN NECB SYSTEM 3 PSZ OCC SCH TUESDAY\n   ************* IDF Context for following error/warning message:\n   ************* Note -- lines truncated at 300 characters, if necessary...\n   *************   2258 Schedule:Week:Daily,\n   ************* indicated Name=Schedule:Week:Daily {97a5c619-7fd8-4613-b053-2fbd568bcf05}\n   ************* Only last 5 lines before error line shown.....\n   *************   2259   Schedule:Week:Daily {97a5c619-7fd8-4613-b053-2fbd568bcf05}, !- Name\n   *************   2260   Sp-Corner_Class_1_Pod_2_ZN_1_FLR_1 Sys-3 Flr-1 Sch-D HPlcmt-south ZN NECB System 3 PSZ Occ Sch Sunday, !- Sunday Schedule:Day Name\n   *************   2261   Sp-Corner_Class_1_Pod_2_ZN_1_FLR_1 Sys-3 Flr-1 Sch-D HPlcmt-south ZN NECB System 3 PSZ Occ Sch Monday, !- Monday Schedule:Day Name\n   *************   2262   Sp-Corner_Class_1_Pod_2_ZN_1_FLR_1 Sys-3 Flr-1 Sch-D HPlcmt-south ZN NECB System 3 PSZ Occ Sch Tuesday, !- Tuesday Schedule:Day Name\n   *************   2263   Sp-Corner_Class_1_Pod_2_ZN_1_FLR_1 Sys-3 Flr-1 Sch-D HPlcmt-south ZN NECB System 3 PSZ Occ Sch Wednesday, !- Wednesday Schedule:Day Name\n   ** Warning ** IP: IDF line~2263 Alpha Argument length exceeds maximum, will be truncated=  Sp-Corner_Class_1_Pod_2_ZN_1_FLR_1 Sys-3 Flr-1 Sch-D HPlcmt-south ZN NECB System 3 PSZ Occ Sch Wednesda\n   **   ~~~   ** Will be processed as Alpha=SP-CORNER_CLASS_1_POD_2_ZN_1_FLR_1 SYS-3 FLR-1 SCH-D HPLCMT-SOUTH ZN NECB SYSTEM 3 PSZ OCC SCH WEDNESDAY\n   ************* IDF Context for following error/warning message:\n   ************* Note -- lines truncated at 300 characters, if necessary...\n   *************   2258 Schedule:Week:Daily,\n   ************* indicated Name=Schedule:Week:Daily {97a5c619-7fd8-4613-b053-2fbd568bcf05}\n   ************* Only last 6 lines before error line shown.....\n   *************   2259   Schedule:Week:Daily {97a5c619-7fd8-4613-b053-2fbd568bcf05}, !- Name\n   *************   2260   Sp-Corner_Class_1_Pod_2_ZN_1_FLR_1 Sys-3 Flr-1 Sch-D HPlcmt-south ZN NECB System 3 PSZ Occ Sch Sunday, !- Sunday Schedule:Day Name\n   *************   2261   Sp-Corner_Class_1_Pod_2_ZN_1_FLR_1 Sys-3 Flr-1 Sch-D HPlcmt-south ZN NECB System 3 PSZ Occ Sch Monday, !- Monday Schedule:Day Name\n   *************   2262   Sp-Corner_Class_1_Pod_2_ZN_1_FLR_1 Sys-3 Flr-1 Sch-D HPlcmt-south ZN NECB System 3 PSZ Occ Sch Tuesday, !- Tuesday Schedule:Day Name\n   *************   2263   Sp-Corner_Class_1_Pod_2_ZN_1_FLR_1 Sys-3 Flr-1 Sch-D HPlcmt-south ZN NECB System 3 PSZ Occ Sch Wednesday, !- Wednesday Schedule:Day Name\n   *************   2264   Sp-Corner_Class_1_Pod_2_ZN_1_FLR_1 Sys-3 Flr-1 Sch-D HPlcmt-south ZN NECB System 3 PSZ Occ Sch Thursday, !- Thursday Schedule:Day Name\n   ** Warning ** IP: IDF line~2264 Alpha Argument length exceeds maximum, will be truncated=  Sp-Corner_Class_1_Pod_2_ZN_1_FLR_1 Sys-3 Flr-1 Sch-D HPlcmt-south ZN NECB System 3 PSZ Occ Sch Thursda\n   **   ~~~   ** Will be processed as Alpha=SP-CORNER_CLASS_1_POD_2_ZN_1_FLR_1 SYS-3 FLR-1 SCH-D HPLCMT-SOUTH ZN NECB SYSTEM 3 PSZ OCC SCH THURSDAY\n   ************* IDF Context for following error/warning message:\n   ************* Note -- lines truncated at 300 characters, if necessary...\n   *************   2258 Schedule:Week:Daily,\n   ************* indicated Name=Schedule:Week:Daily {97a5c619-7fd8-4613-b053-2fbd568bcf05}\n   ************* Only last 7 lines before error line shown.....\n   *************   2259   Schedule:Week:Daily {97a5c619-7fd8-4613-b053-2fbd568bcf05}, !- Name\n   *************   2260   Sp-Corner_Class_1_Pod_2_ZN_1_FLR_1 Sys-3 Flr-1 Sch-D HPlcmt-south ZN NECB System 3 PSZ Occ Sch Sunday, !- Sunday Schedule:Day Name\n   *************   2261   Sp-Corner_Class_1_Pod_2_ZN_1_FLR_1 Sys-3 Flr-1 Sch-D HPlcmt-south ZN NECB System 3 PSZ Occ Sch Monday, !- Monday Schedule:Day Name\n   *************   2262   Sp-Corner_Class_1_Pod_2_ZN_1_FLR_1 Sys-3 Flr-1 Sch-D HPlcmt-south ZN NECB System 3 PSZ Occ Sch Tuesday, !- Tuesday Schedule:Day Name\n   *************   2263   Sp-Corner_Class_1_Pod_2_ZN_1_FLR_1 Sys-3 Flr-1 Sch-D HPlcmt-south ZN NECB System 3 PSZ Occ Sch Wednesday, !- Wednesday Schedule:Day Name\n   *************   2264   Sp-Corner_Class_1_Pod_2_ZN_1_FLR_1 Sys-3 Flr-1 Sch-D HPlcmt-south ZN NECB System 3 PSZ Occ Sch Thursday, !- Thursday Schedule:Day Name\n   *************   2265   Sp-Corner_Class_1_Pod_2_ZN_1_FLR_1 Sys-3 Flr-1 Sch-D HPlcmt-south ZN NECB System 3 PSZ Occ Sch Friday, !- Friday Schedule:Day Name\n   ** Warning ** IP: IDF line~2265 Alpha Argument length exceeds maximum, will be truncated=  Sp-Corner_Class_1_Pod_2_ZN_1_FLR_1 Sys-3 Flr-1 Sch-D HPlcmt-south ZN NECB System 3 PSZ Occ Sch Frida\n   **   ~~~   ** Will be processed as Alpha=SP-CORNER_CLASS_1_POD_2_ZN_1_FLR_1 SYS-3 FLR-1 SCH-D HPLCMT-SOUTH ZN NECB SYSTEM 3 PSZ OCC SCH FRIDAY\n   ************* IDF Context for following error/warning message:\n   ************* Note -- lines truncated at 300 characters, if necessary...\n   *************   2258 Schedule:Week:Daily,\n   ************* indicated Name=Schedule:Week:Daily {97a5c619-7fd8-4613-b053-2fbd568bcf05}\n   ************* Only last 8 lines before error line shown.....\n   *************   2259   Schedule:Week:Daily {97a5c619-7fd8-4613-b053-2fbd568bcf05}, !- Name\n   *************   2260   Sp-Corner_Class_1_Pod_2_ZN_1_FLR_1 Sys-3 Flr-1 Sch-D HPlcmt-south ZN NECB System 3 PSZ Occ Sch Sunday, !- Sunday Schedule:Day Name\n   *************   2261   Sp-Corner_Class_1_Pod_2_ZN_1_FLR_1 Sys-3 Flr-1 Sch-D HPlcmt-south ZN NECB System 3 PSZ Occ Sch Monday, !- Monday Schedule:Day Name\n   *************   2262   Sp-Corner_Class_1_Pod_2_ZN_1_FLR_1 Sys-3 Flr-1 Sch-D HPlcmt-south ZN NECB System 3 PSZ Occ Sch Tuesday, !- Tuesday Schedule:Day Name\n   *************   2263   Sp-Corner_Class_1_Pod_2_ZN_1_FLR_1 Sys-3 Flr-1 Sch-D HPlcmt-south ZN NECB System 3 PSZ Occ Sch Wednesday, !- Wednesday Schedule:Day Name\n   *************   2264   Sp-Corner_Class_1_Pod_2_ZN_1_FLR_1 Sys-3 Flr-1 Sch-D HPlcmt-south ZN NECB System 3 PSZ Occ Sch Thursday, !- Thursday Schedule:Day Name\n   *************   2265   Sp-Corner_Class_1_Pod_2_ZN_1_FLR_1 Sys-3 Flr-1 Sch-D HPlcmt-south ZN NECB System 3 PSZ Occ Sch Friday, !- Friday Schedule:Day Name\n   *************   2266   Sp-Corner_Class_1_Pod_2_ZN_1_FLR_1 Sys-3 Flr-1 Sch-D HPlcmt-south ZN NECB System 3 PSZ Occ Sch Saturday, !- Saturday Schedule:Day Name\n   ** Warning ** IP: IDF line~2266 Alpha Argument length exceeds maximum, will be truncated=  Sp-Corner_Class_1_Pod_2_ZN_1_FLR_1 Sys-3 Flr-1 Sch-D HPlcmt-south ZN NECB System 3 PSZ Occ Sch Saturda\n   **   ~~~   ** Will be processed as Alpha=SP-CORNER_CLASS_1_POD_2_ZN_1_FLR_1 SYS-3 FLR-1 SCH-D HPLCMT-SOUTH ZN NECB SYSTEM 3 PSZ OCC SCH SATURDAY\n   ************* IDF Context for following error/warning message:\n   ************* Note -- lines truncated at 300 characters, if necessary...\n   *************   2258 Schedule:Week:Daily,\n   ************* indicated Name=Schedule:Week:Daily {97a5c619-7fd8-4613-b053-2fbd568bcf05}\n   ************* Only last 9 lines before error line shown.....\n   *************   2259   Schedule:Week:Daily {97a5c619-7fd8-4613-b053-2fbd568bcf05}, !- Name\n   *************   2260   Sp-Corner_Class_1_Pod_2_ZN_1_FLR_1 Sys-3 Flr-1 Sch-D HPlcmt-south ZN NECB System 3 PSZ Occ Sch Sunday, !- Sunday Schedule:Day Name\n   *************   2261   Sp-Corner_Class_1_Pod_2_ZN_1_FLR_1 Sys-3 Flr-1 Sch-D HPlcmt-south ZN NECB System 3 PSZ Occ Sch Monday, !- Monday Schedule:Day Name\n   *************   2262   Sp-Corner_Class_1_Pod_2_ZN_1_FLR_1 Sys-3 Flr-1 Sch-D HPlcmt-south ZN NECB System 3 PSZ Occ Sch Tuesday, !- Tuesday Schedule:Day Name\n   *************   2263   Sp-Corner_Class_1_Pod_2_ZN_1_FLR_1 Sys-3 Flr-1 Sch-D HPlcmt-south ZN NECB System 3 PSZ Occ Sch Wednesday, !- Wednesday Schedule:Day Name\n   *************   2264   Sp-Corner_Class_1_Pod_2_ZN_1_FLR_1 Sys-3 Flr-1 Sch-D HPlcmt-south ZN NECB System 3 PSZ Occ Sch Thursday, !- Thursday Schedule:Day Name\n   *************   2265   Sp-Corner_Class_1_Pod_2_ZN_1_FLR_1 Sys-3 Flr-1 Sch-D HPlcmt-south ZN NECB System 3 PSZ Occ Sch Friday, !- Friday Schedule:Day Name\n   *************   2266   Sp-Corner_Class_1_Pod_2_ZN_1_FLR_1 Sys-3 Flr-1 Sch-D HPlcmt-south ZN NECB System 3 PSZ Occ Sch Saturday, !- Saturday Schedule:Day Name\n   *************   2267   Sp-Corner_Class_1_Pod_2_ZN_1_FLR_1 Sys-3 Flr-1 Sch-D HPlcmt-south ZN NECB System 3 PSZ Occ Sch Default, !- Holiday Schedule:Day Name\n   ** Warning ** IP: IDF line~2267 Alpha Argument length exceeds maximum, will be truncated=  Sp-Corner_Class_1_Pod_2_ZN_1_FLR_1 Sys-3 Flr-1 Sch-D HPlcmt-south ZN NECB System 3 PSZ Occ Sch Defaul\n   **   ~~~   ** Will be processed as Alpha=SP-CORNER_CLASS_1_POD_2_ZN_1_FLR_1 SYS-3 FLR-1 SCH-D HPLCMT-SOUTH ZN NECB SYSTEM 3 PSZ OCC SCH DEFAULT\n   ************* IDF Context for following error/warning message:\n   ************* Note -- lines truncated at 300 characters, if necessary...\n   *************   2258 Schedule:Week:Daily,\n   ************* indicated Name=Schedule:Week:Daily {97a5c619-7fd8-4613-b053-2fbd568bcf05}\n   ************* Only last 10 lines before error line shown.....\n   *************   2259   Schedule:Week:Daily {97a5c619-7fd8-4613-b053-2fbd568bcf05}, !- Name\n   *************   2260   Sp-Corner_Class_1_Pod_2_ZN_1_FLR_1 Sys-3 Flr-1 Sch-D HPlcmt-south ZN NECB System 3 PSZ Occ Sch Sunday, !- Sunday Schedule:Day Name\n   *************   2261   Sp-Corner_Class_1_Pod_2_ZN_1_FLR_1 Sys-3 Flr-1 Sch-D HPlcmt-south ZN NECB System 3 PSZ Occ Sch Monday, !- Monday Schedule:Day Name\n   *************   2262   Sp-Corner_Class_1_Pod_2_ZN_1_FLR_1 Sys-3 Flr-1 Sch-D HPlcmt-south ZN NECB System 3 PSZ Occ Sch Tuesday, !- Tuesday Schedule:Day Name\n   *************   2263   Sp-Corner_Class_1_Pod_2_ZN_1_FLR_1 Sys-3 Flr-1 Sch-D HPlcmt-south ZN NECB System 3 PSZ Occ Sch Wednesday, !- Wednesday Schedule:Day Name\n   *************   2264   Sp-Corner_Class_1_Pod_2_ZN_1_FLR_1 Sys-3 Flr-1 Sch-D HPlcmt-south ZN NECB System 3 PSZ Occ Sch Thursday, !- Thursday Schedule:Day Name\n   *************   2265   Sp-Corner_Class_1_Pod_2_ZN_1_FLR_1 Sys-3 Flr-1 Sch-D HPlcmt-south ZN NECB System 3 PSZ Occ Sch Friday, !- Friday Schedule:Day Name\n   *************   2266   Sp-Corner_Class_1_Pod_2_ZN_1_FLR_1 Sys-3 Flr-1 Sch-D HPlcmt-south ZN NECB System 3 PSZ Occ Sch Saturday, !- Saturday Schedule:Day Name\n   *************   2267   Sp-Corner_Class_1_Pod_2_ZN_1_FLR_1 Sys-3 Flr-1 Sch-D HPlcmt-south ZN NECB System 3 PSZ Occ Sch Default, !- Holiday Schedule:Day Name\n   *************   2268   Sp-Corner_Class_1_Pod_2_ZN_1_FLR_1 Sys-3 Flr-1 Sch-D HPlcmt-south ZN NECB System 3 PSZ Occ Sch Summer Design Day, !- SummerDesignDay Schedule:Day Name\n   ** Warning ** IP: IDF line~2268 Alpha Argument length exceeds maximum, will be truncated=  Sp-Corner_Class_1_Pod_2_ZN_1_FLR_1 Sys-3 Flr-1 Sch-D HPlcmt-south ZN NECB System 3 PSZ Occ Sch Summer Design Da\n   **   ~~~   ** Will be processed as Alpha=SP-CORNER_CLASS_1_POD_2_ZN_1_FLR_1 SYS-3 FLR-1 SCH-D HPLCMT-SOUTH ZN NECB SYSTEM 3 PSZ OCC SCH SUMMER DESIGN DAY\n   ************* IDF Context for following error/warning message:\n   ************* Note -- lines truncated at 300 characters, if necessary...\n   *************   2258 Schedule:Week:Daily,\n   ************* indicated Name=Schedule:Week:Daily {97a5c619-7fd8-4613-b053-2fbd568bcf05}\n   ************* Only last 10 lines before error line shown.....\n   *************   2260   Sp-Corner_Class_1_Pod_2_ZN_1_FLR_1 Sys-3 Flr-1 Sch-D HPlcmt-south ZN NECB System 3 PSZ Occ Sch Sunday, !- Sunday Schedule:Day Name\n   *************   2261   Sp-Corner_Class_1_Pod_2_ZN_1_FLR_1 Sys-3 Flr-1 Sch-D HPlcmt-south ZN NECB System 3 PSZ Occ Sch Monday, !- Monday Schedule:Day Name\n   *************   2262   Sp-Corner_Class_1_Pod_2_ZN_1_FLR_1 Sys-3 Flr-1 Sch-D HPlcmt-south ZN NECB System 3 PSZ Occ Sch Tuesday, !- Tuesday Schedule:Day Name\n   *************   2263   Sp-Corner_Class_1_Pod_2_ZN_1_FLR_1 Sys-3 Flr-1 Sch-D HPlcmt-south ZN NECB System 3 PSZ Occ Sch Wednesday, !- Wednesday Schedule:Day Name\n   *************   2264   Sp-Corner_Class_1_Pod_2_ZN_1_FLR_1 Sys-3 Flr-1 Sch-D HPlcmt-south ZN NECB System 3 PSZ Occ Sch Thursday, !- Thursday Schedule:Day Name\n   *************   2265   Sp-Corner_Class_1_Pod_2_ZN_1_FLR_1 Sys-3 Flr-1 Sch-D HPlcmt-south ZN NECB System 3 PSZ Occ Sch Friday, !- Friday Schedule:Day Name\n   *************   2266   Sp-Corner_Class_1_Pod_2_ZN_1_FLR_1 Sys-3 Flr-1 Sch-D HPlcmt-south ZN NECB System 3 PSZ Occ Sch Saturday, !- Saturday Schedule:Day Name\n   *************   2267   Sp-Corner_Class_1_Pod_2_ZN_1_FLR_1 Sys-3 Flr-1 Sch-D HPlcmt-south ZN NECB System 3 PSZ Occ Sch Default, !- Holiday Schedule:Day Name\n   *************   2268   Sp-Corner_Class_1_Pod_2_ZN_1_FLR_1 Sys-3 Flr-1 Sch-D HPlcmt-south ZN NECB System 3 PSZ Occ Sch Summer Design Day, !- SummerDesignDay Schedule:Day Name\n   *************   2269   Sp-Corner_Class_1_Pod_2_ZN_1_FLR_1 Sys-3 Flr-1 Sch-D HPlcmt-south ZN NECB System 3 PSZ Occ Sch Winter Design Day, !- WinterDesignDay Schedule:Day Name\n   ** Warning ** IP: IDF line~2269 Alpha Argument length exceeds maximum, will be truncated=  Sp-Corner_Class_1_Pod_2_ZN_1_FLR_1 Sys-3 Flr-1 Sch-D HPlcmt-south ZN NECB System 3 PSZ Occ Sch Winter Design Da\n   **   ~~~   ** Will be processed as Alpha=SP-CORNER_CLASS_1_POD_2_ZN_1_FLR_1 SYS-3 FLR-1 SCH-D HPLCMT-SOUTH ZN NECB SYSTEM 3 PSZ OCC SCH WINTER DESIGN DAY\n   ************* IDF Context for following error/warning message:\n   ************* Note -- lines truncated at 300 characters, if necessary...\n   *************   2258 Schedule:Week:Daily,\n   ************* indicated Name=Schedule:Week:Daily {97a5c619-7fd8-4613-b053-2fbd568bcf05}\n   ************* Only last 10 lines before error line shown.....\n   *************   2261   Sp-Corner_Class_1_Pod_2_ZN_1_FLR_1 Sys-3 Flr-1 Sch-D HPlcmt-south ZN NECB System 3 PSZ Occ Sch Monday, !- Monday Schedule:Day Name\n   *************   2262   Sp-Corner_Class_1_Pod_2_ZN_1_FLR_1 Sys-3 Flr-1 Sch-D HPlcmt-south ZN NECB System 3 PSZ Occ Sch Tuesday, !- Tuesday Schedule:Day Name\n   *************   2263   Sp-Corner_Class_1_Pod_2_ZN_1_FLR_1 Sys-3 Flr-1 Sch-D HPlcmt-south ZN NECB System 3 PSZ Occ Sch Wednesday, !- Wednesday Schedule:Day Name\n   *************   2264   Sp-Corner_Class_1_Pod_2_ZN_1_FLR_1 Sys-3 Flr-1 Sch-D HPlcmt-south ZN NECB System 3 PSZ Occ Sch Thursday, !- Thursday Schedule:Day Name\n   *************   2265   Sp-Corner_Class_1_Pod_2_ZN_1_FLR_1 Sys-3 Flr-1 Sch-D HPlcmt-south ZN NECB System 3 PSZ Occ Sch Friday, !- Friday Schedule:Day Name\n   *************   2266   Sp-Corner_Class_1_Pod_2_ZN_1_FLR_1 Sys-3 Flr-1 Sch-D HPlcmt-south ZN NECB System 3 PSZ Occ Sch Saturday, !- Saturday Schedule:Day Name\n   *************   2267   Sp-Corner_Class_1_Pod_2_ZN_1_FLR_1 Sys-3 Flr-1 Sch-D HPlcmt-south ZN NECB System 3 PSZ Occ Sch Default, !- Holiday Schedule:Day Name\n   *************   2268   Sp-Corner_Class_1_Pod_2_ZN_1_FLR_1 Sys-3 Flr-1 Sch-D HPlcmt-south ZN NECB System 3 PSZ Occ Sch Summer Design Day, !- SummerDesignDay Schedule:Day Name\n   *************   2269   Sp-Corner_Class_1_Pod_2_ZN_1_FLR_1 Sys-3 Flr-1 Sch-D HPlcmt-south ZN NECB System 3 PSZ Occ Sch Winter Design Day, !- WinterDesignDay Schedule:Day Name\n   *************   2270   Sp-Corner_Class_1_Pod_2_ZN_1_FLR_1 Sys-3 Flr-1 Sch-D HPlcmt-south ZN NECB System 3 PSZ Occ Sch Default, !- CustomDay1 Schedule:Day Name\n   ** Warning ** IP: IDF line~2270 Alpha Argument length exceeds maximum, will be truncated=  Sp-Corner_Class_1_Pod_2_ZN_1_FLR_1 Sys-3 Flr-1 Sch-D HPlcmt-south ZN NECB System 3 PSZ Occ Sch Defaul\n   **   ~~~   ** Will be processed as Alpha=SP-CORNER_CLASS_1_POD_2_ZN_1_FLR_1 SYS-3 FLR-1 SCH-D HPLCMT-SOUTH ZN NECB SYSTEM 3 PSZ OCC SCH DEFAULT\n   ************* IDF Context for following error/warning message:\n   ************* Note -- lines truncated at 300 characters, if necessary...\n   *************   2258 Schedule:Week:Daily,\n   ************* indicated Name=Schedule:Week:Daily {97a5c619-7fd8-4613-b053-2fbd568bcf05}\n   ************* Only last 10 lines before error line shown.....\n   *************   2262   Sp-Corner_Class_1_Pod_2_ZN_1_FLR_1 Sys-3 Flr-1 Sch-D HPlcmt-south ZN NECB System 3 PSZ Occ Sch Tuesday, !- Tuesday Schedule:Day Name\n   *************   2263   Sp-Corner_Class_1_Pod_2_ZN_1_FLR_1 Sys-3 Flr-1 Sch-D HPlcmt-south ZN NECB System 3 PSZ Occ Sch Wednesday, !- Wednesday Schedule:Day Name\n   *************   2264   Sp-Corner_Class_1_Pod_2_ZN_1_FLR_1 Sys-3 Flr-1 Sch-D HPlcmt-south ZN NECB System 3 PSZ Occ Sch Thursday, !- Thursday Schedule:Day Name\n   *************   2265   Sp-Corner_Class_1_Pod_2_ZN_1_FLR_1 Sys-3 Flr-1 Sch-D HPlcmt-south ZN NECB System 3 PSZ Occ Sch Friday, !- Friday Schedule:Day Name\n   *************   2266   Sp-Corner_Class_1_Pod_2_ZN_1_FLR_1 Sys-3 Flr-1 Sch-D HPlcmt-south ZN NECB System 3 PSZ Occ Sch Saturday, !- Saturday Schedule:Day Name\n   *************   2267   Sp-Corner_Class_1_Pod_2_ZN_1_FLR_1 Sys-3 Flr-1 Sch-D HPlcmt-south ZN NECB System 3 PSZ Occ Sch Default, !- Holiday Schedule:Day Name\n   *************   2268   Sp-Corner_Class_1_Pod_2_ZN_1_FLR_1 Sys-3 Flr-1 Sch-D HPlcmt-south ZN NECB System 3 PSZ Occ Sch Summer Design Day, !- SummerDesignDay Schedule:Day Name\n   *************   2269   Sp-Corner_Class_1_Pod_2_ZN_1_FLR_1 Sys-3 Flr-1 Sch-D HPlcmt-south ZN NECB System 3 PSZ Occ Sch Winter Design Day, !- WinterDesignDay Schedule:Day Name\n   *************   2270   Sp-Corner_Class_1_Pod_2_ZN_1_FLR_1 Sys-3 Flr-1 Sch-D HPlcmt-south ZN NECB System 3 PSZ Occ Sch Default, !- CustomDay1 Schedule:Day Name\n   *************   2271   Sp-Corner_Class_1_Pod_2_ZN_1_FLR_1 Sys-3 Flr-1 Sch-D HPlcmt-south ZN NECB System 3 PSZ Occ Sch Default; !- CustomDay2 Schedule:Day Name\n   ** Warning ** IP: IDF line~2271 Alpha Argument length exceeds maximum, will be truncated=  Sp-Corner_Class_1_Pod_2_ZN_1_FLR_1 Sys-3 Flr-1 Sch-D HPlcmt-south ZN NECB System 3 PSZ Occ Sch Defaul\n   **   ~~~   ** Will be processed as Alpha=SP-CORNER_CLASS_1_POD_2_ZN_1_FLR_1 SYS-3 FLR-1 SCH-D HPLCMT-SOUTH ZN NECB SYSTEM 3 PSZ OCC SCH DEFAULT\n   ************* IDF Context for following error/warning message:\n   ************* Note -- lines truncated at 300 characters, if necessary...\n   *************   2282 Schedule:Day:Interval,\n   ************* indicated Name=Sp-Corner_Class_1_Pod_2_ZN_1_FLR_1 Sys-3 Flr-1 Sch-D HPlcmt-south ZN NECB System 3 PSZ Occ Sch Default\n   ************* Only last 1 lines before error line shown.....\n   *************   2283   Sp-Corner_Class_1_Pod_2_ZN_1_FLR_1 Sys-3 Flr-1 Sch-D HPlcmt-south ZN NECB System 3 PSZ Occ Sch Default, !- Name\n   ** Warning ** IP: IDF line~2283 Alpha Argument length exceeds maximum, will be truncated=  Sp-Corner_Class_1_Pod_2_ZN_1_FLR_1 Sys-3 Flr-1 Sch-D HPlcmt-south ZN NECB System 3 PSZ Occ Sch Defaul\n   **   ~~~   ** Will be processed as Alpha=SP-CORNER_CLASS_1_POD_2_ZN_1_FLR_1 SYS-3 FLR-1 SCH-D HPLCMT-SOUTH ZN NECB SYSTEM 3 PSZ OCC SCH DEFAULT\n   ************* IDF Context for following error/warning message:\n   ************* Note -- lines truncated at 300 characters, if necessary...\n   *************   2289 Schedule:Day:Interval,\n   ************* indicated Name=Sp-Corner_Class_1_Pod_2_ZN_1_FLR_1 Sys-3 Flr-1 Sch-D HPlcmt-south ZN NECB System 3 PSZ Occ Sch Summer Design Day\n   ************* Only last 1 lines before error line shown.....\n   *************   2290   Sp-Corner_Class_1_Pod_2_ZN_1_FLR_1 Sys-3 Flr-1 Sch-D HPlcmt-south ZN NECB System 3 PSZ Occ Sch Summer Design Day, !- Name\n   ** Warning ** IP: IDF line~2290 Alpha Argument length exceeds maximum, will be truncated=  Sp-Corner_Class_1_Pod_2_ZN_1_FLR_1 Sys-3 Flr-1 Sch-D HPlcmt-south ZN NECB System 3 PSZ Occ Sch Summer Design Da\n   **   ~~~   ** Will be processed as Alpha=SP-CORNER_CLASS_1_POD_2_ZN_1_FLR_1 SYS-3 FLR-1 SCH-D HPLCMT-SOUTH ZN NECB SYSTEM 3 PSZ OCC SCH SUMMER DESIGN DAY\n   ************* IDF Context for following error/warning message:\n   ************* Note -- lines truncated at 300 characters, if necessary...\n   *************   2296 Schedule:Day:Interval,\n   ************* indicated Name=Sp-Corner_Class_1_Pod_2_ZN_1_FLR_1 Sys-3 Flr-1 Sch-D HPlcmt-south ZN NECB System 3 PSZ Occ Sch Winter Design Day\n   ************* Only last 1 lines before error line shown.....\n   *************   2297   Sp-Corner_Class_1_Pod_2_ZN_1_FLR_1 Sys-3 Flr-1 Sch-D HPlcmt-south ZN NECB System 3 PSZ Occ Sch Winter Design Day, !- Name\n   ** Warning ** IP: IDF line~2297 Alpha Argument length exceeds maximum, will be truncated=  Sp-Corner_Class_1_Pod_2_ZN_1_FLR_1 Sys-3 Flr-1 Sch-D HPlcmt-south ZN NECB System 3 PSZ Occ Sch Winter Design Da\n   **   ~~~   ** Will be processed as Alpha=SP-CORNER_CLASS_1_POD_2_ZN_1_FLR_1 SYS-3 FLR-1 SCH-D HPLCMT-SOUTH ZN NECB SYSTEM 3 PSZ OCC SCH WINTER DESIGN DAY\n   ************* IDF Context for following error/warning message:\n   ************* Note -- lines truncated at 300 characters, if necessary...\n   *************   2569 Schedule:Day:Interval,\n   ************* indicated Name=Sp-Corner_Class_1_Pod_3_ZN_1_FLR_1 Sys-3 Flr-1 Sch-D HPlcmt-south ZN NECB System 3 PSZ Occ Sch Sunday\n   ************* Only last 1 lines before error line shown.....\n   *************   2570   Sp-Corner_Class_1_Pod_3_ZN_1_FLR_1 Sys-3 Flr-1 Sch-D HPlcmt-south ZN NECB System 3 PSZ Occ Sch Sunday, !- Name\n   ** Warning ** IP: IDF line~2570 Alpha Argument length exceeds maximum, will be truncated=  Sp-Corner_Class_1_Pod_3_ZN_1_FLR_1 Sys-3 Flr-1 Sch-D HPlcmt-south ZN NECB System 3 PSZ Occ Sch Sunda\n   **   ~~~   ** Will be processed as Alpha=SP-CORNER_CLASS_1_POD_3_ZN_1_FLR_1 SYS-3 FLR-1 SCH-D HPLCMT-SOUTH ZN NECB SYSTEM 3 PSZ OCC SCH SUNDAY\n   ************* IDF Context for following error/warning message:\n   ************* Note -- lines truncated at 300 characters, if necessary...\n   *************   2576 Schedule:Day:Interval,\n   ************* indicated Name=Sp-Corner_Class_1_Pod_3_ZN_1_FLR_1 Sys-3 Flr-1 Sch-D HPlcmt-south ZN NECB System 3 PSZ Occ Sch Monday\n   ************* Only last 1 lines before error line shown.....\n   *************   2577   Sp-Corner_Class_1_Pod_3_ZN_1_FLR_1 Sys-3 Flr-1 Sch-D HPlcmt-south ZN NECB System 3 PSZ Occ Sch Monday, !- Name\n   ** Warning ** IP: IDF line~2577 Alpha Argument length exceeds maximum, will be truncated=  Sp-Corner_Class_1_Pod_3_ZN_1_FLR_1 Sys-3 Flr-1 Sch-D HPlcmt-south ZN NECB System 3 PSZ Occ Sch Monda\n   **   ~~~   ** Will be processed as Alpha=SP-CORNER_CLASS_1_POD_3_ZN_1_FLR_1 SYS-3 FLR-1 SCH-D HPLCMT-SOUTH ZN NECB SYSTEM 3 PSZ OCC SCH MONDAY\n   ************* IDF Context for following error/warning message:\n   ************* Note -- lines truncated at 300 characters, if necessary...\n   *************   2591 Schedule:Day:Interval,\n   ************* indicated Name=Sp-Corner_Class_1_Pod_3_ZN_1_FLR_1 Sys-3 Flr-1 Sch-D HPlcmt-south ZN NECB System 3 PSZ Occ Sch Tuesday\n   ************* Only last 1 lines before error line shown.....\n   *************   2592   Sp-Corner_Class_1_Pod_3_ZN_1_FLR_1 Sys-3 Flr-1 Sch-D HPlcmt-south ZN NECB System 3 PSZ Occ Sch Tuesday, !- Name\n   ** Warning ** IP: IDF line~2592 Alpha Argument length exceeds maximum, will be truncated=  Sp-Corner_Class_1_Pod_3_ZN_1_FLR_1 Sys-3 Flr-1 Sch-D HPlcmt-south ZN NECB System 3 PSZ Occ Sch Tuesda\n   **   ~~~   ** Will be processed as Alpha=SP-CORNER_CLASS_1_POD_3_ZN_1_FLR_1 SYS-3 FLR-1 SCH-D HPLCMT-SOUTH ZN NECB SYSTEM 3 PSZ OCC SCH TUESDAY\n   ************* IDF Context for following error/warning message:\n   ************* Note -- lines truncated at 300 characters, if necessary...\n   *************   2606 Schedule:Day:Interval,\n   ************* indicated Name=Sp-Corner_Class_1_Pod_3_ZN_1_FLR_1 Sys-3 Flr-1 Sch-D HPlcmt-south ZN NECB System 3 PSZ Occ Sch Wednesday\n   ************* Only last 1 lines before error line shown.....\n   *************   2607   Sp-Corner_Class_1_Pod_3_ZN_1_FLR_1 Sys-3 Flr-1 Sch-D HPlcmt-south ZN NECB System 3 PSZ Occ Sch Wednesday, !- Name\n   ** Warning ** IP: IDF line~2607 Alpha Argument length exceeds maximum, will be truncated=  Sp-Corner_Class_1_Pod_3_ZN_1_FLR_1 Sys-3 Flr-1 Sch-D HPlcmt-south ZN NECB System 3 PSZ Occ Sch Wednesda\n   **   ~~~   ** Will be processed as Alpha=SP-CORNER_CLASS_1_POD_3_ZN_1_FLR_1 SYS-3 FLR-1 SCH-D HPLCMT-SOUTH ZN NECB SYSTEM 3 PSZ OCC SCH WEDNESDAY\n   ************* IDF Context for following error/warning message:\n   ************* Note -- lines truncated at 300 characters, if necessary...\n   *************   2621 Schedule:Day:Interval,\n   ************* indicated Name=Sp-Corner_Class_1_Pod_3_ZN_1_FLR_1 Sys-3 Flr-1 Sch-D HPlcmt-south ZN NECB System 3 PSZ Occ Sch Thursday\n   ************* Only last 1 lines before error line shown.....\n   *************   2622   Sp-Corner_Class_1_Pod_3_ZN_1_FLR_1 Sys-3 Flr-1 Sch-D HPlcmt-south ZN NECB System 3 PSZ Occ Sch Thursday, !- Name\n   ** Warning ** IP: IDF line~2622 Alpha Argument length exceeds maximum, will be truncated=  Sp-Corner_Class_1_Pod_3_ZN_1_FLR_1 Sys-3 Flr-1 Sch-D HPlcmt-south ZN NECB System 3 PSZ Occ Sch Thursda\n   **   ~~~   ** Will be processed as Alpha=SP-CORNER_CLASS_1_POD_3_ZN_1_FLR_1 SYS-3 FLR-1 SCH-D HPLCMT-SOUTH ZN NECB SYSTEM 3 PSZ OCC SCH THURSDAY\n   ************* IDF Context for following error/warning message:\n   ************* Note -- lines truncated at 300 characters, if necessary...\n   *************   2636 Schedule:Day:Interval,\n   ************* indicated Name=Sp-Corner_Class_1_Pod_3_ZN_1_FLR_1 Sys-3 Flr-1 Sch-D HPlcmt-south ZN NECB System 3 PSZ Occ Sch Friday\n   ************* Only last 1 lines before error line shown.....\n   *************   2637   Sp-Corner_Class_1_Pod_3_ZN_1_FLR_1 Sys-3 Flr-1 Sch-D HPlcmt-south ZN NECB System 3 PSZ Occ Sch Friday, !- Name\n   ** Warning ** IP: IDF line~2637 Alpha Argument length exceeds maximum, will be truncated=  Sp-Corner_Class_1_Pod_3_ZN_1_FLR_1 Sys-3 Flr-1 Sch-D HPlcmt-south ZN NECB System 3 PSZ Occ Sch Frida\n   **   ~~~   ** Will be processed as Alpha=SP-CORNER_CLASS_1_POD_3_ZN_1_FLR_1 SYS-3 FLR-1 SCH-D HPLCMT-SOUTH ZN NECB SYSTEM 3 PSZ OCC SCH FRIDAY\n   ************* IDF Context for following error/warning message:\n   ************* Note -- lines truncated at 300 characters, if necessary...\n   *************   2651 Schedule:Day:Interval,\n   ************* indicated Name=Sp-Corner_Class_1_Pod_3_ZN_1_FLR_1 Sys-3 Flr-1 Sch-D HPlcmt-south ZN NECB System 3 PSZ Occ Sch Saturday\n   ************* Only last 1 lines before error line shown.....\n   *************   2652   Sp-Corner_Class_1_Pod_3_ZN_1_FLR_1 Sys-3 Flr-1 Sch-D HPlcmt-south ZN NECB System 3 PSZ Occ Sch Saturday, !- Name\n   ** Warning ** IP: IDF line~2652 Alpha Argument length exceeds maximum, will be truncated=  Sp-Corner_Class_1_Pod_3_ZN_1_FLR_1 Sys-3 Flr-1 Sch-D HPlcmt-south ZN NECB System 3 PSZ Occ Sch Saturda\n   **   ~~~   ** Will be processed as Alp
[...]
4NOibrfg06Puw+DToW7T4NOj7Evk06FsW+TTouxn5NOgbHfk0aqhzze2RfBo11Lnmpko+jRpWco2t0mmUvqGkmq1avMKEQYK2VWwSdGewSdB9wSZB2yo2CdpWsUnQtopNgrZVbBL0dMsmobFVfBr0dMunQU+3fBq0reLToG0VnwZtq/g0aFvFp0HbKj4N2lbxadRQ5xpbxadRQ51rbBWfRg0rucZW6TRKN4KvZqsWO8UzSNC2ik2C7gw2Cbov2CRoW8UmQdsqNgnaVrFJ0LaKTYKebtkkNLaKT4Oebvk06OmWT4O2VXwatK3i06BtFZ8Gbav4NGhbxadB2yo+jRrqXGOr+DRqqHONreLTqGEl19gqnUbpfrvVbNViQ14GCdpWsUnQncEmQfcFmwRtq9gkaFvFJkHbKjYJ2laxSdDTLZuExlbxadDTLZ8GPd3yadC2ik+DtlV8GrSt4tOgbRWfBm2r+DRoW8WnUUOda2wVn0YNda6xVXwaNazkGlul0yjd1rCarVrse8ggQdsqNgm6M9gk6L5gk6BtFZsEbavYJGhbxSZB2yo2CXq6ZZPQbrbGpaHbrYpLQ7eRFZeGbo8rLg3d9ldcGro937g0dNvBcWnodorj0tBtIselUUOda7ee49Kooc61G9ZxadSwkmts1Urje5UdXpc7OosjEcn71Q6yxcaxjfRu3Cx2gC3dKna1LXQqs/fxLPLTRrfdFI7TbYqO+sntVttu9iHHeNrt2vf7XibHcTI/fgjSxbbKT9dfYe/pPMF54svkYqZ2Oa58ouKYv+T4JL10lsgFhtqoednuG973G2GEEUYYYYQRRhhhhBFGGGGEEUYYYYQRRhhhhBFGGGGEEUYYYYQRRhhhhBFGGGGEEUYYYYQRRhhhhBFGGGGEEUYYYYQRRhjhv1R4bsd3MkkCX37y1IO1jt3+H59XVY/Gpi8fjb2USSDT5eO1VnP1APE0jDM7DCJZ+ohs+tpzuuVP1qZ28er5aRx6WRBHOZSVZnLaupajOJFWtSefP8qxjPyXF7T4rNFrN0VHPbncVg8yq3+sUI4yBVaSepXWHoxldhplqn1yidEsGhakjW3xR0mKFaF8Ovuq9FludQQj0cgmQWqnRa9UE1LHs5PsvP1OveGk8R9g02wrfPXoeM6+zDuYxmmgEp7kH1e5mtWh0rxClcT3ZkgrrCDypaqHltM0PHt13Kx74iiQoRpvjWWbLupknMSzqfTFzz+Lvy0/f7AHEy9dPv+uCmz7eXT+ajRvENsbj8+Uhh3KaJxNxDvhin8K6zgMLXH48htpGAxlo+VsX7W/b5fW25+uJE5E4ya/lPYv4iaXWQ7Vpa767O/5jGPeQepQw3iZ7+rmu/1DzsXR0dGi8dbLWGRddvuN6aWujutEej/WOfnR8BzT76v2Wl7dkRrWajAsR0qxkYM98NI0GEfS76stItKroiW/r9eUq46eztJJY92+yLv0cNGf61dSGB5WuUpbfXNdlTRL4h+yms7iu+sqxVNvGGTzalLLL699VYXESmrdLKuJ5OW0sk55GE8+6liV88uJR7SEY5rNpNyqsz42i1W10vcfyzyFOnZ2xJffv4p/n/9+IS7PL77+9vlX8fH819/64sPpxWm1BGf5rC0fPGXRRBaLNE4yEc1u83EwFMWWJqnw0mFuXoJoXCHjqu1Vnmcrs9cU19Unl0RmsyQSUy9J5VkYe1nDU1P+dt6Vzz67Lj6r1JjlFu2Z7PISyhI/bnanlyf/WZR7UeyNLV+OvFmYiWkS53OY3GqKrZ/29/v909OtDW88AxzgAAc4wAEOcIADHOAABzh/TRyRzm7z/wILX6oPhe/NFVEifdCABjSgAQ1oQAMa0IAGNKABjZ7mvrg1679orsOZBA5wgAMc4AAHOMABDnCAAxzgrIPz9N5AR7038HJGvTew4xR/YTs+3t09OAApSEEKUpCCFKQgBSlIQQpSkIIUpG+D1C1IvYwibReknY7r7vdAClKQghSkIAUpSEEKUpCCFKQgBenbIO0o0rMkIEjdg4LUcfb2Oh2QghSkIAUpSEEKUpCCFKQgBSlIQfo2SHcV6dfJjCLdL0gP8qP7HqQgBSlIQQpSkIIUpCAFKUhBClKQvg3SriL9l/Qp0r2C9OSk39/bAylIQQpSkIIUpCAFKUhBClKQghSkb4O0V/xmYiYp0l5B2u/3eiAFKUhBClKQghSkIAUpSEEKUpCC9K2Q7inSTzG1s6DbLUj391232wUpSEEKUpCCFKQgBSlIQQpSkIIUpLWRrlD8xLtvlCZ7sLMgC+XlxJtKO5MPWWPrQzxL0nKM+Z/PPAluZZQGcRTKtMhQkmJnRxz7vvBEkUncB9lEpPGtFH6n5Mz0bmx706mM/IaltK3tkhNWh+1lWdKwHqym6LUNT5rnJ7nVT0qzeSgXeC0vGk7iJD/fCuXIgHaZYxRHWeteBuNJpnJcx6FfPceiby6nrU+zMBv0w3yMDpzBl9gfdAbfPuc/nn28GDjicp62OuIsTFr5z8NJ60R8+BIOb7NWGs/yfvn2WXw+7b9XX8vkreiIL5ffxPlwqL67ta3r6Xc76TAJptk/yO+82/GDu9fD5Dl0sjyXCPwja6jKoJ+3nBdEMhk4TtcSRXseWX6QTkNvfhhEYR5rXYfx8McvFg2YZ11cg8jm0/x81aQ7N96dt/hUe6Y67rxEDVlxJPzgdhpKO5L3l3fjhvXTK5BNsdtuF/+U1qDK63uZlye++sMKvWsZWoeWL0de3tVimsSjIJRWcxEZPFiHjt1uWndeOJPLn4dqqsrPyWeffv/01HpsVsrjMuXpMOXZZcrTZcrTY8qzx5RnnynPAVMep82ViGtEO1xD2uEa0w7XoHa4RrXDNawdrnHtcA1sh2tku1wj22Wbq7lGtss1sl2jkS3S2e3ti3dXV1rREukbpCHbyCwN2UJmacj2MUtD1r1ZGrLqzdKQNW+Whqx4szRkvZuloRcywzxM45hexgzzMI1kehEzzMM0luklzDAP02imFzDDPEzjmV6+DPNwzctM45leuwzzVB/P90GUmS9b1+qj6nnI5jHMQzaPYR6yeQzzkOVumIcsd8M8ZLkb5iHL3TAPWe6Geej1yzQR14imVzDTRFxjml7DTBNxjWp6FTNNxDWu6XXMNBHXyKZXMtNEbHM118imFzPTRNVH9tMfM0pfNkwtc+0X/9FbvI2YQcLdvERn8xK7m5fobl6it3mJvc1L7G9e4mDzEi9W9k1p1FDfTg0F7tRQ4U4NJe7UUONODUXu1FDlTg1l7tRQ524Nde7WsY7XUOduDXXurlfnpe90rGarFi99ZJCge4NNgu4MNgm6L9gk6CmXTYKecdkk6AmXTYKeb9kk6OmWTUJjq/g0aqhvja3i06ihwjW2ik+jhhrX2Co+jRqqXGOr+DRqqHONreLTqGMdr6HONbaKT2O9Oi99dVY1W7V4txaDBN0bbBJ0Z7BJ0H3BJkFPuWwS9IzLJkFPuGwS9HzLJkFPt2wSmhsC+TToO6r4NOibrfg06Puw+DToW7T4NOj7Evk06FsW+TTouxn5NOgbHfk0aqhzze2RfBo11Lnmpko+jRpWco2t0mmUvqGkmq1avMKEQYK2VWwSdGewSdB9wSZB2yo2CdpWsUnQtopNgrZVbBL0dMsmobFVfBr0dMunQU+3fBq0reLToG0VnwZtq/g0aFvFp0HbKj4N2lbxadRQ5xpbxadRQ51rbBWfRg0rucZW6TRKN4KvZqsWO8UzSNC2ik2C7gw2Cbov2CRoW8UmQdsqNgnaVrFJ0LaKTYKebtkkNLaKT4Oebvk06OmWT4O2VXwatK3i06BtFZ8Gbav4NGhbxadB2yo+jRrqXGOr+DRqqHONreLTqGEl19gqnUbpfrvVbNViQ14GCdpWsUnQncEmQfcFmwRtq9gkaFvFJkHbKjYJ2laxSdDTLZuExlbxadDTLZ8GPd3yadC2ik+DtlV8GrSt4tOgbRWfBm2r+DRoW8WnUUOda2wVn0YNda6xVXwaNazkGlul0yjd1rCarVrse8ggQdsqNgm6M9gk6L5gk6BtFZsEbavYJGhbxSZB2yo2CXq6ZZPQbrbGpaHbrYpLQ7eRFZeGbo8rLg3d9ldcGro937g0dNvBcWnodorj0tBtIselUUOda7ee49Kooc61G9ZxadSwkmts1Urje5UdXpc7OosjEcn71Q6yxcaxjfRu3Cx2gC3dKna1LXQqs/fxLPLTRrfdFI7TbYqO+sntVttu9iHHeNrt2vf7XibHcTI/fgjSxbbKT9dfYe/pPMF54svkYqZ2Oa58ouKYv+T4JL10lsgFhtqoednuG973G2GEEUYYYYQRRhhhhBFGGGGEEUYYYYQRRhhhhBFGGGGEEUYYYYQRRhhhhBFGGGGEEUYYYYQRRhhhhBFGGGGEEUYYYYQRRhjhv1R4bsd3MkkCX37y1IO1jt3+H59XVY/Gpi8fjb2USSDT5eO1VnP1APE0jDM7DCJZ+ohs+tpzuuVP1qZ28er5aRx6WRBHOZSVZnLaupajOJFWtSefP8qxjPyXF7T4rNFrN0VHPbncVg8yq3+sUI4yBVaSepXWHoxldhplqn1yidEsGhakjW3xR0mKFaF8Ovuq9FludQQj0cgmQWqnRa9UE1LHs5PsvP1OveGk8R9g02wrfPXoeM6+zDuYxmmgEp7kH1e5mtWh0rxClcT3ZkgrrCDypaqHltM0PHt13Kx74iiQoRpvjWWbLupknMSzqfTFzz+Lvy0/f7AHEy9dPv+uCmz7eXT+ajRvENsbj8+Uhh3KaJxNxDvhin8K6zgMLXH48htpGAxlo+VsX7W/b5fW25+uJE5E4ya/lPYv4iaXWQ7Vpa767O/5jGPeQepQw3iZ7+rmu/1DzsXR0dGi8dbLWGRddvuN6aWujutEej/WOfnR8BzT76v2Wl7dkRrWajAsR0qxkYM98NI0GEfS76stItKroiW/r9eUq46eztJJY92+yLv0cNGf61dSGB5WuUpbfXNdlTRL4h+yms7iu+sqxVNvGGTzalLLL699VYXESmrdLKuJ5OW0sk55GE8+6liV88uJR7SEY5rNpNyqsz42i1W10vcfyzyFOnZ2xJffv4p/n/9+IS7PL77+9vlX8fH819/64sPpxWm1BGf5rC0fPGXRRBaLNE4yEc1u83EwFMWWJqnw0mFuXoJoXCHjqu1Vnmcrs9cU19Unl0RmsyQSUy9J5VkYe1nDU1P+dt6Vzz67Lj6r1JjlFu2Z7PISyhI/bnanlyf/WZR7UeyNLV+OvFmYiWkS53OY3GqKrZ/29/v909OtDW88AxzgAAc4wAEOcIADHOAABzh/TRyRzm7z/wILX6oPhe/NFVEifdCABjSgAQ1oQAMa0IAGNKABjZ7mvrg1679orsOZBA5wgAMc4AAHOMABDnCAAxzgrIPz9N5AR7038HJGvTew4xR/YTs+3t09OAApSEEKUpCCFKQgBSlIQQpSkIIUpG+D1C1IvYwibReknY7r7vdAClKQghSkIAUpSEEKUpCCFKQgBenbIO0o0rMkIEjdg4LUcfb2Oh2QghSkIAUpSEEKUpCCFKQgBSlIQfo2SHcV6dfJjCLdL0gP8qP7HqQgBSlIQQpSkIIUpCAFKUhBClKQvg3SriL9l/Qp0r2C9OSk39/bAylIQQpSkIIUpCAFKUhBClKQghSkb4O0V/xmYiYp0l5B2u/3eiAFKUhBClKQghSkIAUpSEEKUpCC9K2Q7inSTzG1s6DbLUj391232wUpSEEKUpCCFKQgBSlIQQpSkIIUpLWRrlD8xLtvlCZ7sLMgC+XlxJtKO5MPWWPrQzxL0nKM+Z/PPAluZZQGcRTKtMhQkmJnRxz7vvBEkUncB9lEpPGtFH6n5Mz0bmx706mM/IaltK3tkhNWh+1lWdKwHqym6LUNT5rnJ7nVT0qzeSgXeC0vGk7iJD/fCuXIgHaZYxRHWeteBuNJpnJcx6FfPceiby6nrU+zMBv0w3yMDtzBl9gfOINvn/N/zj5eDBxxOU9bHXEWJq385+GkdSI+fAmHt1kripO8X759Fp9P++/V1zJ5Kzriy+U3cT4cqu9ubet6+t1OOkyCafYP8jvvdvzg7vUweQ6dLM8lAv/IGqoy6Oct5wWRTAaO07NE0Z5Hlh+k09CbHwZRmMda12E8/PGLRQPmWRfXILL5ND9fNenOjXfnLT7VnqmOOy9RQ1YcCT+4nYbSjuT95d24Yf30CmRT7LbbxT+lNajy+l7m5Ymv/rBC71qG1qHly5GXd7WYJvEoCKXVXEQGD9ahY7eb1p0XzuTy56GaqvJz8tmn3z89tR6blfK4THk6THl2mfJ0mfL0mPLsMeXZZ8pzwJTHaXMl4hrRDteQdrjGtMM1qB2uUe1wDWuHa1w7XAPb4RrZLtfIdtnmaq6R7XKNbNdoZIt0dnv74t3VlVa0RPoGacg2MktDtpBZGrJ9zNKQdW+Whqx6szRkzZulISveLA1Z72Zp6IXMMA/TOKaXMcM8TCOZXsQM8zCNZXoJM8zDNJrpBcwwD9N4ppcvwzxc8zLTeKbXLsM81cfzfRBl5svWtfqoeh6yeQzzkM1jmIdsHsM8ZLkb5iHL3TAPWe6GechyN8xDlrthHnr9Mk3ENaLpFcw0EdeYptcw00Rco5pexUwTcY1reh0zTcQ1sumVzDQR21zNNbLpxcw0UfWR/fTHjNKXDVPLXPvFf/QWbyNmkHA3L9HZvMTu5iW6m5fobV5ib/MS+5uXONi8xIuVfVMaNdS3U0OBOzVUuFNDiTs11LhTQ5E7NVS5U0OZOzXUuVtDnbt1rOM11LlbQ52769V56Tsdq9mqxUsfGSTo3mCToDuDTYLuCzYJesplk6BnXDYJesJlk6DnWzYJerplk9DYKj6NGupbY6v4NGqocI2t4tOoocY1topPo4Yq19gqPo0a6lxjq/g06ljHa6hzja3i01ivzktfnVXNVi3ercUgQfcGmwTdGWwSdF+wSdBTLpsEPeOySdATLpsEPd+ySdDTLZuE5oZAPg36jio+DfpmKz4N+j4sPg36Fi0+Dfq+RD4N+pZFPg36bkY+DfpGRz6NGupcc3skn0YNda65qZJPo4aVXGOrdBqlbyipZqsWrzBhkKBtFZsE3RlsEnRfsEnQtopNgrZVbBK0rWKToG0VmwQ93bJJaGwVnwY93fJp0NMtnwZtq/g0aFvFp0HbKj4N2lbxadC2ik+DtlV8GjXUucZW8WnUUOcaW8WnUcNKrrFVOo3SjeCr2arFTvEMErStYpOgO4NNgu4LNgnaVrFJ0LaKTYK2VWwStK1ik6CnWzYJja3i06CnWz4Nerrl06BtFZ8Gbav4NGhbxadB2yo+DdpW8WnQtopPo4Y619gqPo0a6lxjq/g0aljJNbZKp1G63241W7XYkJdBgrZVbBJ0Z7BJ0H3BJkHbKjYJ2laxSdC2ik2CtlVsEvR0yyahsVV8GvR0y6dBT7d8GrSt4tOgbRWfBm2r+DRoW8WnQdsqPg3aVvFp1FDnGlvFp1FDnWtsFZ9GDSu5xlbpNEq3Naxmqxb7HjJI0LaKTYLuDDYJui/YJGhbxSZB2yo2CdpWsUnQtopNgp5u2SS0m61xaeh2q+LS0G1kxaWh2+OKS0O3/RWXhm7PNy4N3XZwXBq6neK4NHSbyHFp1FDn2q3nuDRqqHPthnVcGjWs5BpbtdL4XmWH1+WOzuJIRPJ+tYNssXFsI70bN4sdYEu3il1tC53K7H08i/y00W03heN0m6KjfnK71babfcgxnna79v2+l8lxnMyPH4J0sa3y0/VX2Hs6T3Ce+DK5mKldjiufqDjmLzk+SS+dJXKBoTZqXrb7hvf9RhhhhBFGGGGEEUYYYYQRRhhhhBFGGGGEEUYYYYQRRhhhhBFGGGGEEUYYYYQRRhhhhBFGGGGEEUYYYYQRRhhhhBFGGGGEEUb4LxWe2/GdTJLAl5889WCtY7f/x+dV1aOx6ctHYy9lEsh0+Xit1Vw9QDwN48wOg0iWPiKbvvacbvmTtaldvHp+GodeFsRRDmWlmZy2ruUoTqRV7cnnj3IsI//lBS0+a/TaTdFRTy631YPM6h8rlKNMgZWkXqW1B2OZnUaZap9cYjSLhgVpY1v8UZJiRSifzr4qfZZbHcFINLJJkNpp0SvVhNTx7CQ7b79Tbzhp/AfYNNsKXz06nrMv8w6mcRqohCf5x1WuZnWoNK9QJfG9GdIKK4h8qeqh5TQNz14dN+ueOApkqMZbY9mmizoZJ/FsKn3x88/ib8vPH+zBxEuXz7+rAtt+Hp2/Gs0bxPbG4zOlYYcyGmcT8U644p/COg5DSxy+/EYaBkPZaDnbV+3v26X19qcriRPRuMkvpf2LuMlllkN1qas++3s+45h3kDrUMF7mu7r5bv+Qc3F0dLRovPUyFlmX3X5jeqmr4zqR3o91Tn40PMf0+6q9lld3pIa1GgzLkVJs5GAPvDQNxpH0+2qLiPSqaMnv6zXlqqOns3TSWLcv8i49XPTn+pUUhodVrtJW31xXJc2S+IesprP47rpK8dQbBtm8mtTyy2tfVSGxklo3y2oieTmtrFMexpOPOlbl/HLiES3hmGYzKbfqrI/NYlWt9P3HMk+hjp0d8eX3r+Lf579fiMvzi6+/ff5VfDz/9be++HB6cVotwVk+a8sHT1k0kcUijZNMRLPbfBwMRbGlSSq8dJiblyAaV8i4anuV59nK7DXFdfXJJZHZLInE1EtSeRbGXtbw1JS/nXfls8+ui88qNWa5RXsmu7yEssSPm93p5cl/FuVeFHtjy5cjbxZmYprE+Rwmt5pi66f9/X7/9HRrwxvPAAc4wAEOcIADHOAABzjAAc5fE0eks9v8v8DCl+pD4XtzRZRIHzSgAQ1oQAMa0IAGNKABDWhAo6e5L27N+i+a63AmgQMc4AAHOMABDnCAAxzgAAc46+A8vTfQUe8NvJxR7w3sOMVf2I6Pd3cPDkAKUpCCFKQgBSlIQQpSkIIUpCAF6dsgdQtSL6NI2wVpp+O6+z2QghSkIAUpSEEKUpCCFKQgBSlIQfo2SDuK9CwJCFL3oCB1nL29TgekIAUpSEEKUpCCFKQgBSlIQQpSkL4N0l1F+nUyo0j3C9KD/Oi+BylIQQpSkIIUpCAFKUhBClKQghSkb4O0q0j/JX2KdK8gPTnp9/f2QApSkIIUpCAFKUhBClKQghSkIAXp2yDtFb+ZmEmKtFeQ9vu9HkhBClKQghSkIAUpSEEKUpCCFKQgfSuke4r0U0ztLOh2C9L9fdftdkEKUpCCFKQgBSlIQQpSkIIUpCAFaW2kKxQ/8e4bpcke7CzIQnk58abSzuRD1tj6EM+StBxj/uczT4JbGaVBHIUyLTKUpNjZEce+LzxRZBL3QTYRaXwrhd8pOTO9G9vedCojv2EpbWu75ITVYXtZljSsB6spem3Dk+b5SW71k9JsHsoFXsuLhpM4yc+3QjkyoF3mGMVR1rqXwXiS/X9759vbtpG97ffPp5hlgUbGSrJI+X/jLhLFbgokcWCnWGyMQKDEkUSHIgWSsi0U/u4/DkV5rdaH5EiH7LrPzReOoyPe98WZOTMnETlSGoPAc8prLPvmatb6OPfifs9Lxmjf6n8OnOTn1099s3/+4bJviqtF1OqKcy9sJb8PJ6134v1nbziNW34QJv3y9ZP4dNZ7q94Wy6nois9XX8XFcKje+2onr6df70bD0J3FP5Pveb3ruLfPh8lzaLFES7jOqTFUadBLWs52fRn2TfPQEGl7nhqOG808e3Hi+l4Saw28YPj9J4MGTFSX1yDixSw5XzXp7o19ay9fzT1THbd2qIasOBWOO515su3Lu6vbccP44RnIptjrdNIfhTmodB07thPh698Nzx5IzzgxHDmyk64WszAYuZ40mstI/944MdudpnFre3OZ/T5UU1VyTjL79HpnZ8ZDs5SOxaTTZdLZY9LZZ9I5YNI5ZNI5YtI5ZtIxO1xCXCPa5BrSJteYNrkGtck1qk2uYW1yjWuTa2CbXCPb4hrZFttczTWyLa6RbWmNbBHNp9O1764utaKF0tGQIdtIT4ZsIT0Zsn30ZMi815Mhs15Phsx5PRky4/VkyHzXk6EXMk0dpnFML2OaOkwjmV7ENHWYxjK9hGnqMI1megHT1GEaz/TypanDNS8zjWd67dLUKT+e71w/1l+2Buql8jpk82jqkM2jqUM2j6YOme6aOmS6a+qQ6a6pQ6a7pg6Z7po69PqlK8Q1oukVTFeIa0zTa5iuENeoplcxXSGucU2vY7pCXCObXsl0hdjmaq6RTS9mukLlR/bjhxmFXzZMLXOdtX/oLb+NmMHCqt6iW73FXvUW+9VbHFRvcVi9xVH1FsfVW6yt7FV51JDfZg0JbtaQ4WYNKW7WkONmDUlu1pDlZg1pbtaQ51YNeW7VsY7XkOdWDXlubZbnhd/pWK6sWn7pI4MF3RtsFnRnsFnQfcFmQU+5bBb0jMtmQU+4bBb0fMtmQU+3bBY5ZRWfRw35nVNW8XnUkOE5ZRWfRw05nlNW8XnUkOU5ZRWfRw15nlNW8XnUsY7XkOc5ZRWfx2Z5XvjVWeXKquV3azFY0L3BZkF3BpsF3RdsFvSUy2ZBz7hsFvSEy2ZBz7dsFvR0y2aRc0Mgnwd9RxWfB32zFZ8HfR8Wnwd9ixafB31fIp8Hfcsinwd9NyOfB32jI59HDXmec3skn0cNeZ5zUyWfRw0reU5ZledR+A0l5cqq5VeYMFjQZRWbBd0ZbBZ0X7BZ0GUVmwVdVrFZ0GUVmwVdVrFZ0NMtm0VOWcXnQU+3fB70dMvnQZdVfB50WcXnQZdVfB50WcXnQZdVfB50WcXnUUOe55RVfB415HlOWcXnUcNKnlNW5XkUbgRfrqxa7hTPYEGXVWwWdGewWdB9wWZBl1VsFnRZxWZBl1VsFnRZxWZBT7dsFjllFZ8HPd3yedDTLZ8HXVbxedBlFZ8HXVbxedBlFZ8HXVbxedBlFZ9HDXmeU1bxedSQ5zllFZ9HDSt5TlmV51G43265smq5IS+DBV1WsVnQncFmQfcFmwVdVrFZ0GUVmwVdVrFZ0GUVmwU93bJZ5JRVfB70dMvnQU+3fB50WcXnQZdVfB50WcXnQZdVfB50WcXnQZdVfB415HlOWcXnUUOe55RVfB41rOQ5ZVWeR+G2huXKquW+hwwWdFnFZkF3BpsF3RdsFnRZxWZBl1VsFnRZxWZBl1VsFvR0y2aRu9kal0feblVcHnkbWXF55O1xxeWRt/0Vl0fenm9cHnnbwXF55O0Ux+WRt4kcl0cNeZ679RyXRw15nrthHZdHDSt5Tlm18vhWZofXbEdncSp8ebfaQTbdOLYR3Y6b6Q6whVvFrraFjmT8Npj7TtTY7zSFae43RVf9Zu2X2272PsF43O3acXp2LMdBuHhz70bLbZUfr7/E3tOJwEXoyPByrnY5Ln2i4lisc3yUdjQP5RJDbdSctXvF+34jjDDCCCOMMMIII4wwwggjjDDCCCOMMMIII4wwwggjjDDCCCOMMMIII4wwwggjjDDCCCOMMMIII4wwwggjjDDCCCOMMMIII/y3Ci/awa0MQ9eRH231YK3Z7mz5vKp6NDZafzT2SoaujLLHa43m6gHimRfEbc/1ZeEjstFzz+kWP1kbtdOvnp8Fnh27gZ9AGVEsZ62BHAWhNMo9+fxBjqXvrF/Q8rXGQacpuurJ5Y56kFn9MDw5ihVYgfRKtt0fy/jMj1X7JBajuT9MSRs74vcCiRWhfDz7uvBZbnW4I9GIJ27UjtJeKWekjicntZP2O7OHk8Z/gXXVVvjq0fGEPdPtz4LIVYLvkpfLXM3qUDLPUIXBnR7SCsv1HanyoWU2Nc9eHTebnjhypafGWyNr02WejMNgPpOO+PFH8Y/s9ft2f2JH2fPvKsF2nkYXz0aTBmnb4/G58mh70h/HE/FaWOJfwnjjeYY4WX9H5LlD2WiZO9edbzuF+fanKwlC0bhJLqXzk7hJbLKhmvmq1/6ZzDj6HaQONYwzveubb+3vciFOT0+XjbeZYqqadfuN7qWujkEo7e+bnPygeY7u+1V7ZVd3qoa1GgzZSEk3cmj37Shyx750emqLiOg6bclvmzXlqqNn82jS2LQvki49Wfbn5pnkeSdlrrKt3rmpSxSHwXdZzmf53k2dgpk9dONFOavszRtfVWqxstpUZTWRrE8rm6SH9uSjjlU6r088oiVMXTWddCvP+tBMV9VS738oqinUsbsrPv/2Rfzn4rdLcXVx+eXXT7+IDxe//NoT788uz8oJnCeztry3VYkm4kBEQRgLfz5NxsFQpFuaRMKOhknx4vrjEoqrtlc6T1ZmuykG5SeXUMbz0BczO4zkuRfYccNWU/5O0pVPXhukr5VqzOIS7YltdglFwg/V7vTyWH+m6Z4me+OVI0f23IvFLAySOUy+aopXPxwd9XpnZ68q3ngGOMABDnCAAxzgAAc4wAEOcP6eOCKaT5N/AgtHqheFYy8UUSgd0IAGNKABDWhAAxrQgAY0oAFNPs1demvWH2gG3lwCBzjAAQ5wgAMc4AAHOMABDnA2wXn83kBTfW/g1Zz63sCumX7C9ubN3t7xMUhBClKQghSkIAUpSEEKUpCCFKQgfRmkVkpqxxRpJyXtdi3r6ACkIAUpSEEKUpCCFKQgBSlIQQpSkL4M0q4iPQ9dgtQ6TklN8/Cw2wUpSEEKUpCCFKQgBSlIQQpSkIIUpC+DdE+RfpnMKdKjlPQ4OfbfghSkIAUpSEEKUpCCFKQgBSlIQQrSl0G6r0j/LR2K9DAlffeu1zs8BClIQQpSkIIUpCAFKUhBClKQghSkL4P0IP2fibmkSA9S0l7v4ACkIAUpSEEKUpCCFKQgBSlIQQpSkL4U0kNF+jGgdha09lPSoyPL2t8HKUhBClKQghSkIAUpSEEKUpCCFKS1ka5QnNC+axSK3bdjN/bk1cSeyXYs7+PGq/fBPIyKMRZ/PvOdO5V+5Aa+J6NUoUBid1e8cRxhi1RJ3LnxRETBVAqnW3BmdDtu27OZ9J2GobyNnYITVkfbjuOwYdwbTXHQ0TxpkZxklT8piheeXOK1bH84CcLkfMOTIw3aTGMU+HHrTrrjSaw0BoHnlNdY9s3VrPVx7sX9npeM0b7V/xw4/W7/66e+2T//cNk3xdUianXFuRe2kt+Hk9Y78f6zN5zGLT8Ik375+kl8Ouu9VW+L5VR0xeerr+JiOFTvfbWT19Ovd6Nh6M7in8n3vN513Nvnw+Q5tFiiJVzn1BiqNOglLWe7vgz7pnlkiLQ9Tw3HjWaevThxfS+JtQZeMPz+k0EDJqrLaxDxYpacr5p098a+tZev5p6pjls7VENWnArHnc482fbl3dXtuGH88AxkU+x1OumPwhxUuo4d24nw9e+GZw+kZ5wYjhzZSVeLWRiMXE8azWWkf2+cmO1O07i1vbnMfh+qqSo5J5l9er2zM+OhWUrHYtLpMunsMensM+kcMOkcMukcMekcM+mYHS4hrhFtcg1pk2tMm1yD2uQa1SbXsDa5xrXJNbBNrpFtcY1si22u5hrZFtfItrRGtojm0+nad1eXWtFC6WjIkG2kJ0O2kJ4M2T56MmTe68mQWa8nQ+a8ngyZ8XoyZL7rydALmaYO0zimlzFNHaaRTC9imjpMY5lewjR1mEYzvYBp6jCNZ3r50tThmpeZxjO9dmnqlB/Pd64f6y9bA/VSeR2yeTR1yObR1CGbR1OHTHdNHTLdNXXIdNfUIdNdU4dMd00dev3SFeIa0fQKpivENabpNUxXiGtU06uYrhDXuKbXMV0hrpFNr2S6QmxzNdfIphczXaHyI/vxw4zCLxumlrnO2j/0lt9GzGBhVW/Rrd5ir3qL/eotDqq3OKze4qh6i+PqLdZW9qo8ashvs4YEN2vIcLOGFDdryHGzhiQ3a8hys4Y0N2vIc6uGPLfqWMdryHOrhjy3Nsvzwu90LFdWLb/0kcGC7g02C7oz2CzovmCzoKdcNgt6xmWzoCdcNgt6vmWzoKdbNoucsorPo4b8zimr+DxqyPCcsorPo4Yczymr+DxqyPKcsorPo4Y8zymr+DzqWMdryPOcsorPY7M8L/zqrHJl1fK7tRgs6N5gs6A7g82C7gs2C3rKZbOgZ1w2C3rCZbOg51s2C/reKDaLnBsC+TzoO6r4POibrfg86Puw+DzoW7T4POj7Evk86FsW+Tzouxn5POgbHfk8asjznLKKz6OOdbyGhTynrOLz2GwpL/yGknJl1fIrTBgs6N5gs6A7g82C7gs2C7qsYrOgyyo2C7qsYrOgyyo2C3q6ZbPIKav4POiyis+DLqv4POiyis+DLqv4POiyis+DLqv4POiyis+DLqv4PGrI85yyis+jjnW8hoU8p6zi89hsKS/cCL5cWbXcKZ7Bgu4NNgu6M9gs6L5gs6DLKjYLuqxis6DLKjYLuqxis6CnWzaLnLKKz4Muq/g86LKKz4Muq/g86LKKz4Muq/g86LKKz4Muq/g86LKKz6OGPM8pq/g86ljHa1jIc8oqPo/NlvLC/XbLlVXLDXkZLOjeYLOgO4PNgu4LNgu6rGKzoMsqNgu6rGKzoMsqNgt6umWzyCmr+DzosorPgy6r+DzosorPgy6r+DzosorPgy6r+DzosorPgy6r+DxqyPOcsorPo451vIaFPKes4vPYbCkv3NawXFm13PeQwYLuDTYLujPYLOi+YLOgyyo2C7qsYrOgyyo2C7qsYrPI23eKySJ3szUuj7zdqrg88jay4vLI2+OKyyNv+ysuj7w937g88raD4/LI2ymOyyNvEzkujxryPKes4vOoYx2vYSHPKav4PIqX8m9ldnjNdnQWp8KXd6sdZNONYxvR7biZ7gBbuFXsalvoSMZvg7nvRI39TlOY5n5TdNVv1n657WbvE4zH3a4dp2fHchyEizf3brTcVvnx+kvsPZ0IXISODC/napfj0icqjsU6x0dpR/NQLjHURs1Zu1e87zfCCCOMMMIII4wwwggjjDDCCCOMMMIII4wwwggjjDDCCCOMMMIII4wwwggjjDDCCCOMMMIII4wwwggjjDDCCCOMMMIII4wwwn+r8KId3MowdB350VYP1prtzpbPq6pHY6P1R2OvZOjKKHu81miuHiCeeUHc9lxfFj4iGz33nG7xk7VRO/3q+Vng2bEb+AmUEcVy1hrIURBKo9yTzx/kWPrO+gUtX2scdJqiq55c7qgHmdUPw5OjWIEVSK9k2/2xjM/8WLVPYjGa+8OUtLEjfi+QWBHKx7OvC5/lVoc7Eo144kbtKO2VckbqeHJSO2m/M3s4afwXWFdtha8eHU/YM93+LIhcJfguebnM1awOJfMMVRjc6SGtsFzfkSofWmZT8+zVcbPpiSNXemq8NbI2XebJOAzmM+mIH38U/8hev2/3J3aUPf+uEmznaXTxbDRpkLY9Hp8rj7Yn/XE8Ea+FJf4ljDeeZ4iT9XdEnjuUjZa5c935tlOYb3+6kiAUjZvkUjo/iZvEJhuqma967Z/JjKPfQepQwzjTu7751v4uF+L09HTZeJsppqpZt9/oXurqGITS/r7JyQ+a5+i+X7VXdnWnalirwZCNlHQjh3bfjiJ37Eunp7aIiK7Tlvy2WVOuOno2jyaNTfsi6dKTZX9unkmed1LmKtvqnZu6RHEYfJflfJbv3dQpmNlDN16Us8revPFVpRYrq01VVhPJ+rSySXpoTz7qWKXz+sQjWsLUVdNJt/KsD810VS31/oeimkIdu7vi829fxH8ufrsUVxeXX3799Iv4cPHLrz3x/uzyrJzAeTJry3tblWgiDkQUhLHw59NkHAxFuqVJJOxomBQvrj8uobhqe6XzZGW2m2JQfnIJZTwPfTGzw0iee4EdN2w15e8kXfnktUH6WqnGLC7Rnthml1Ak/FDtTi+P9Wea7mmyN145cmTPvVjMwiCZw+Srpnj1w9FRr3d29qrijWeAAxzgAAc4wAEOcIADHOAA5++JI6L5NPknsHCkelE49kIRhdIBDWhAAxrQgAY0oAENaEADGtDk09ylt2b9gWbgzSVwgAMc4AAHOMABDnCAAxzgAGcTnMfvDTTV9wZezanvDeya6Sdsb97s7R0fgxSkIAUpSEEKUpCCFKQgBSlIQQrSl0FqpaR2TJF2UtJu17KODkAKUpCCFKQgBSlIQQpSkIIUpCAF6csg7SrS89AlSK3jlNQ0Dw+7XZCCFKQgBSlIQQpSkIIUpCAFKUhB+jJI9xTpl8mcIj1KSY+TY/8tSEEKUpCCFKQgBSlIQQpSkIIUpCB9GaT7ivTf0qFID1PSd+96vcNDkIIUpCAFKUhBClKQghSkIAUpSEH6MkgP0v+ZmEuK9CAl7fUODkAKUpCCFKQgBSlIQQpSkIIUpCAF6UshPVSkHwNqZ0FrPyU9OrKs/X2QghSkIAUpSEEKUpCCFKQgBSlIQVob6QrFCe27RqHYfTt2Y09eTeyZbMfyPm68eh/Mw6gYY/HnM9+5U+lHbuB7MkoVCiR2d8UbxxG2SJXEnRtPRBRMpXC6BWdGt+O2PZtJ32kYytvYKThhdbTtOA4bxr3RFAcdzZMWyUlW+ZOieOHJJV7L9oeTIEzONzw50qDNNEaBH7fupDuexEpjEHhOeY1l31zNWhejkTuUUf/rp77ZP/9w2TfF1SJqdcW5F7aS34eT1hvx/rM3nMYtaUex+PpJfDrrvVXviuVUdMXnq6/iYjhUb321k9e7r3ejYejO4p/J97zeddzb58PkObRYoiVc59QYqqHfS1rLdn0Z9k3z2BBpG54ajhvNPHtx4vpeEmsNvGD4/SeDBkxUl9cg4sUsOV814+6NfWsvX809Ux23dqiGqTgVjjudebLty7ur23HD+OEZyKbY63TSH4V5p3QdO7YT4evfDc8eSM84MRw5sudeLGZhMHI9aTSXkf69cWK2O03j1vbm0jg5OG4fPzmOjpvGUE1WiUIy//R6Z2fGQ7OUqlWJarcS1b1KVPcrUT2oRPWwEtWjSlSPK1E1O9XIVpNdZjXpZVaTX2Y1CWZWk2FmNSlmVpNjZjVJZlaTZVY1WWZVtIZVk2VWNVlmbZFlIppPp2vf/71BhRBKR0O0ZNvqiZZsWT3Rku2qJ1py7tITLTlz6YmWnLf0REvOWnqiJecsPdGyhYGmaiU5VbYs0FStJKvKFgWaqpXkVdmSQFO1kswqWxBoqlaSW2XLAU3VatarSnKrbC2gqbppbt25frxtGTBQbyivWrJZNVVLNqumaslm1VQtOWVpqpacsjRVS05ZmqolpyxN1ZJTlqZq2XpAV7aa7CpbEejKVpNfZWsCXdlqMqxsVaArW02Ola0LdGWrybKylYGubEVrWDVZVrY40JXVyrJvZT5wyD5UFKfCl3erDzTSzzEa0e24mX4gUfjJxeqTyUjGb4O570SN/U5TmOZ+U3TVb9Z+uU8/7hOMxw9cHadnx3IchIs39260/GTvsSlKfPyZCFyEjgwv5+qDttInKo7FOsdHaUfzUC4x1GeFWRds+4Fu+kHSutWVDF0ZZbiJU9YhMy+I2+rTrULL6LnrLiaN2um4mwWeHbuBn0AZUSxnrYEcBaE0yo2kD3IsfWf9gpavNQ6SUdBVI0F9GGaqH9nnpYUfJa9k2/2xjM/8WLVPYjGa+8OUtLEjfi/xgakilI9nXxfmhjrckWjEEzdKxrU6r5yROp6c1E7a78weThr/BdZVW+Fnnw1muv1ZELlK8F3ycpmrWR1K5hmqMLjTQ1phub4jVeK2zKbm2avjZtMTR6701HhrZG26zJNxGMxn0hE//ij+kb1+3+5P7CibT1SC7TyNLp6NJg3Stsfjc+XR9qQ/jifitbDEv4TxxvMMcbL+jshzh7LRMneuO992CvPtT1cShKJxk1xK5ydxk9hkQzXzVa/981SY+h2kDjWMM73rm2/t7zKZ3k5Pl423mWKqmnX7je6lro5BKO3vm5z8oHmO7vtVe2VXd6qGtRoM2UhJF8Z2f3kzkHTS24Gi67Qlv23WlKuOns2jSWPTvki69GTZn5tnkuedlLnKtnrnpi5RHAbfZTmf5Xs3dQpm9tCNF+WssjdvfFWpxcpqU5XVRLI+rWySHtqTjzpW6bw+8YiWMHXVdNKtPOtDM11VS73/oaimUMfurvj82xfxn4vfLsXVxeWXXz/9Ij5c/PJrT7w/uzwrJ3CezNry3lYlmogDEQVJIe3Pp8k4GIq0RIyEHQ2T4sX1xyUUV22vdJ6szHZTDMpPLqGM56EvZnYYyXMvsOOGrab8naQrn7w2SF8r1ZjFJdoT2+wSioQf/oKbNv/wAWx2Z6b6QPUvuYcUOMABDnCAAxzgAAc4wAEOcF48zp9vcFFEoXRAAxrQgAY0oAENaEADGtCABjT5NH+6JVDRqFv8gAMc4AAHOMABDnCAAxzgAAc4f+FWiV/kdCZDO56HUjTOd7BZ4v/UZon/ttWIey/TP95MB670Y6G6TO18KJ150v4tcdg5fxmbIFqdF7AJYgJZ1yaI6aOnm27CxKTTZdLZY9LZZ9I5YNI5ZNI5YtI5ZtJZ211gKyGuEW1yDWmTa0ybXIPa5BrVJtewNrnGtck1sE2ukW1xjWyLba7mGtkW18i2tEZ2+U371qQ236ZvCxmyhTbfim8LGTLvN99ubwsZMuc331JvCxky37fYNm8bHaZxTC9jW2yGt40O01Cm17AttrjbRodpNNML2BYb120zDzKNZ3r12mI7um10mMYzvXRtvsncmswW28pto0M2zxZbx22jQ6b7FtvDbaNDpvsWW8Bto0Om+zbbvG0lxDWi6RVsm83bthLiGtT0IrbNlmxbCXGNa3od22ajta1mRq6RTS9l22yftpUQ18imVzNsivYiNkVDGGGEEUYYYYQRRhhhhBFGGGGEEUb4fym8aAe3MgxdR3601X9Ume0ONsV/ciXYFP/xwKb4Wgc2xcem+BoHNsX/44FN8f94YFN8zQOb4mNT/GcPbIoPHOAABzjAAQ5wgAMc4AAHOMB5CVtKggY0oAENaEADGtCABjSgAc3Lofn/ZitL4AAHOMABDnCAAxzgAAc4wNnc7y/YFP+dO5V+5Aa+J6MIW+L/b22JH4Tfxdlo5A5d6Q8Xjxvh17sFfvbuP0Se/n31+/LPR/Xsl8c/BoGzUH9O4qn38//7P0VbyMU="
               },
               {
                  "name" : "annual_peak_electric_demand",
                  "units" : "kW",
                  "value" : 223.29730000000001
               },
               {
                  "name" : "first_year_capital_cost",
                  "units" : "$",
                  "value" : 0
               },
               {
                  "name" : "annual_utility_cost",
                  "units" : "$",
                  "value" : 0
               },
               {
                  "name" : "total_lifecycle_cost",
                  "units" : "$",
                  "value" : 0
               }
            ],
            "step_warnings" : []
         }
      }
   ],
   "updated_at" : "20170710T191339Z",
   "weather_file" : "USA_CO_Denver.Intl.AP.725650_TMY3.epw"
}
