{
   "completed_at" : "20170710T190549Z",
   "completed_status" : "Success",
   "created_at" : "2017-07-10 19:03:52 +0000",
   "current_step" : 5,
   "description" : "",
   "eplusout_err" : "Program Version,EnergyPlus, Version 8.7.0-78a111df4a, YMD=2017.07.10 19:04,IDD_Version 8.7.0\n   ************* IDF Context for following error/warning message:\n   ************* Note -- lines truncated at 300 characters, if necessary...\n   *************      5 Building,\n   ************* indicated Name=NECB 2011-SmallOffice-NECB HDD Method-CAN_NF_Stephenville.718150_CWEC.epw created: 2017-07-10 19:03:58 +0000\n   ************* Only last 1 lines before error line shown.....\n   *************      6   NECB 2011-SmallOffice-NECB HDD Method-CAN_NF_Stephenville.718150_CWEC.epw created: 2017-07-10 19:03:58 +0000, !- Name\n   ** Warning ** IP: IDF line~6 Alpha Argument length exceeds maximum, will be truncated=  NECB 2011-SmallOffice-NECB HDD Method-CAN_NF_Stephenville.718150_CWEC.epw created: 2017-07-10 19:03:58 +000\n   **   ~~~   ** Will be processed as Alpha=NECB 2011-SMALLOFFICE-NECB HDD METHOD-CAN_NF_STEPHENVILLE.718150_CWEC.EPW CREATED: 2017-07-10 19:03:58 +0000\n   ************* Beginning Zone Sizing Calculations\n   ** Warning ** ProcessScheduleInput: Schedule:Day:Interval=\"ECONOMIZER MAX OA FRACTION 100 PCT DEFAULT\", Blank Schedule Type Limits Name input -- will not be validated.\n   ** Warning ** ProcessScheduleInput: Schedule:Day:Interval=\"SCHEDULE DAY 1\", Blank Schedule Type Limits Name input -- will not be validated.\n   ** Warning ** ProcessScheduleInput: Schedule:Day:Interval=\"SCHEDULE DAY 10\", Blank Schedule Type Limits Name input -- will not be validated.\n   ** Warning ** ProcessScheduleInput: Schedule:Day:Interval=\"SCHEDULE DAY 11\", Blank Schedule Type Limits Name input -- will not be validated.\n   ** Warning ** ProcessScheduleInput: Schedule:Day:Interval=\"SCHEDULE DAY 12\", Blank Schedule Type Limits Name input -- will not be validated.\n   ** Warning ** ProcessScheduleInput: Schedule:Day:Interval=\"SCHEDULE DAY 13\", Blank Schedule Type Limits Name input -- will not be validated.\n   ** Warning ** ProcessScheduleInput: Schedule:Day:Interval=\"SCHEDULE DAY 14\", Blank Schedule Type Limits Name input -- will not be validated.\n   ** Warning ** ProcessScheduleInput: Schedule:Day:Interval=\"SCHEDULE DAY 15\", Blank Schedule Type Limits Name input -- will not be validated.\n   ** Warning ** ProcessScheduleInput: Schedule:Day:Interval=\"SCHEDULE DAY 16\", Blank Schedule Type Limits Name input -- will not be validated.\n   ** Warning ** ProcessScheduleInput: Schedule:Day:Interval=\"SCHEDULE DAY 17\", Blank Schedule Type Limits Name input -- will not be validated.\n   ** Warning ** ProcessScheduleInput: Schedule:Day:Interval=\"SCHEDULE DAY 18\", Blank Schedule Type Limits Name input -- will not be validated.\n   ** Warning ** ProcessScheduleInput: Schedule:Day:Interval=\"SCHEDULE DAY 19\", Blank Schedule Type Limits Name input -- will not be validated.\n   ** Warning ** ProcessScheduleInput: Schedule:Day:Interval=\"SCHEDULE DAY 2\", Blank Schedule Type Limits Name input -- will not be validated.\n   ** Warning ** ProcessScheduleInput: Schedule:Day:Interval=\"SCHEDULE DAY 20\", Blank Schedule Type Limits Name input -- will not be validated.\n   ** Warning ** ProcessScheduleInput: Schedule:Day:Interval=\"SCHEDULE DAY 21\", Blank Schedule Type Limits Name input -- will not be validated.\n   ** Warning ** ProcessScheduleInput: Schedule:Day:Interval=\"SCHEDULE DAY 5\", Blank Schedule Type Limits Name input -- will not be validated.\n   ** Warning ** ProcessScheduleInput: Schedule:Day:Interval=\"SCHEDULE DAY 6\", Blank Schedule Type Limits Name input -- will not be validated.\n   ** Warning ** ProcessScheduleInput: Schedule:Day:Interval=\"SCHEDULE DAY 7\", Blank Schedule Type Limits Name input -- will not be validated.\n   ** Warning ** ProcessScheduleInput: Schedule:Day:Interval=\"SCHEDULE DAY 8\", Blank Schedule Type Limits Name input -- will not be validated.\n   ** Warning ** ProcessScheduleInput: Schedule:Day:Interval=\"SCHEDULE DAY 9\", Blank Schedule Type Limits Name input -- will not be validated.\n   ** Warning ** ProcessScheduleInput: Schedule:Year=\"ECONOMIZER MAX OA FRACTION 100 PCT\", Blank Schedule Type Limits Name input -- will not be validated.\n   ** Warning ** ProcessScheduleInput: Schedule:Year=\"SCHEDULE RULESET 10\", Blank Schedule Type Limits Name input -- will not be validated.\n   ** Warning ** ProcessScheduleInput: Schedule:Year=\"SCHEDULE RULESET 11\", Blank Schedule Type Limits Name input -- will not be validated.\n   ** Warning ** ProcessScheduleInput: Schedule:Year=\"SCHEDULE RULESET 12\", Blank Schedule Type Limits Name input -- will not be validated.\n   ** Warning ** ProcessScheduleInput: Schedule:Year=\"SCHEDULE RULESET 13\", Blank Schedule Type Limits Name input -- will not be validated.\n   ** Warning ** ProcessScheduleInput: Schedule:Year=\"SCHEDULE RULESET 14\", Blank Schedule Type Limits Name input -- will not be validated.\n   ** Warning ** ProcessScheduleInput: Schedule:Year=\"SCHEDULE RULESET 15\", Blank Schedule Type Limits Name input -- will not be validated.\n   ** Warning ** ProcessScheduleInput: Schedule:Year=\"SCHEDULE RULESET 16\", Blank Schedule Type Limits Name input -- will not be validated.\n   ** Warning ** ProcessScheduleInput: Schedule:Year=\"SCHEDULE RULESET 17\", Blank Schedule Type Limits Name input -- will not be validated.\n   ** Warning ** ProcessScheduleInput: Schedule:Year=\"SCHEDULE RULESET 3\", Blank Schedule Type Limits Name input -- will not be validated.\n   ** Warning ** ProcessScheduleInput: Schedule:Year=\"SCHEDULE RULESET 4\", Blank Schedule Type Limits Name input -- will not be validated.\n   ** Warning ** ProcessScheduleInput: Schedule:Year=\"SCHEDULE RULESET 5\", Blank Schedule Type Limits Name input -- will not be validated.\n   ** Warning ** ProcessScheduleInput: Schedule:Year=\"SCHEDULE RULESET 6\", Blank Schedule Type Limits Name input -- will not be validated.\n   ** Warning ** ProcessScheduleInput: Schedule:Year=\"SCHEDULE RULESET 7\", Blank Schedule Type Limits Name input -- will not be validated.\n   ** Warning ** ProcessScheduleInput: Schedule:Year=\"SCHEDULE RULESET 8\", Blank Schedule Type Limits Name input -- will not be validated.\n   ** Warning ** ProcessScheduleInput: Schedule:Year=\"SCHEDULE RULESET 9\", Blank Schedule Type Limits Name input -- will not be validated.\n   ** Warning ** ProcessScheduleInput: Schedule:Constant=\"ALWAYS OFF DISCRETE\", Blank Schedule Type Limits Name input -- will not be validated.\n   ** Warning ** ProcessScheduleInput: Schedule:Constant=\"ALWAYS ON CONTINUOUS\", Blank Schedule Type Limits Name input -- will not be validated.\n   ** Warning ** CheckUsedConstructions: There are 22 nominally unused constructions in input.\n   **   ~~~   ** For explicit details on each unused construction, use Output:Diagnostics,DisplayExtraWarnings;\n   ************* Beginning System Sizing Calculations\n   ************* Beginning Plant Sizing Calculations\n   ** Warning ** GetDXCoils: Coil:Cooling:DX:SingleSpeed=\"COIL COOLING DX SINGLE SPEED 5 14KBTU/HR 14.0SEER\", invalid\n   **   ~~~   ** ...Part Load Fraction Correlation Curve Name = DXCOOL-NECB2011-REF-COOLPLFFPLR 4 has out of range value.\n   **   ~~~   ** ...Curve maximum must be <= 1.0, curve max at PLR = 0.99 is 1.015\n   **   ~~~   ** ...Setting curve maximum to 1.0 and simulation continues.\n   ** Warning ** GetDXCoils: Coil:Cooling:DX:SingleSpeed=\"COIL COOLING DX SINGLE SPEED 4 20KBTU/HR 14.0SEER\", invalid\n   **   ~~~   ** ...Part Load Fraction Correlation Curve Name = DXCOOL-NECB2011-REF-COOLPLFFPLR 3 has out of range value.\n   **   ~~~   ** ...Curve maximum must be <= 1.0, curve max at PLR = 0.99 is 1.015\n   **   ~~~   ** ...Setting curve maximum to 1.0 and simulation continues.\n   ** Warning ** GetDXCoils: Coil:Cooling:DX:SingleSpeed=\"COIL COOLING DX SINGLE SPEED 2 14KBTU/HR 14.0SEER\", invalid\n   **   ~~~   ** ...Part Load Fraction Correlation Curve Name = DXCOOL-NECB2011-REF-COOLPLFFPLR 1 has out of range value.\n   **   ~~~   ** ...Curve maximum must be <= 1.0, curve max at PLR = 0.99 is 1.015\n   **   ~~~   ** ...Setting curve maximum to 1.0 and simulation continues.\n   ** Warning ** GetDXCoils: Coil:Cooling:DX:SingleSpeed=\"COIL COOLING DX SINGLE SPEED 1 13KBTU/HR 14.0SEER\", invalid\n   **   ~~~   ** ...Part Load Fraction Correlation Curve Name = DXCOOL-NECB2011-REF-COOLPLFFPLR has out of range value.\n   **   ~~~   ** ...Curve maximum must be <= 1.0, curve max at PLR = 0.99 is 1.015\n   **   ~~~   ** ...Setting curve maximum to 1.0 and simulation continues.\n   ** Warning ** GetDXCoils: Coil:Cooling:DX:SingleSpeed=\"COIL COOLING DX SINGLE SPEED 3 16KBTU/HR 14.0SEER\", invalid\n   **   ~~~   ** ...Part Load Fraction Correlation Curve Name = DXCOOL-NECB2011-REF-COOLPLFFPLR 2 has out of range value.\n   **   ~~~   ** ...Curve maximum must be <= 1.0, curve max at PLR = 0.99 is 1.015\n   **   ~~~   ** ...Setting curve maximum to 1.0 and simulation continues.\n   ** Warning ** The Standard Ratings is calculated for Coil:Cooling:DX:SingleSpeed = COIL COOLING DX SINGLE SPEED 5 14KBTU/HR 14.0SEER but not at the AHRI test condition due to curve out of bound.\n   **   ~~~   **  Review the Standard Ratings calculations in the Engineering Reference for this coil type. Also, use Output:Diagnostics, DisplayExtraWarnings for further guidance.\n   ** Warning ** The Standard Ratings is calculated for Coil:Cooling:DX:SingleSpeed = COIL COOLING DX SINGLE SPEED 4 20KBTU/HR 14.0SEER but not at the AHRI test condition due to curve out of bound.\n   **   ~~~   **  Review the Standard Ratings calculations in the Engineering Reference for this coil type. Also, use Output:Diagnostics, DisplayExtraWarnings for further guidance.\n   ** Warning ** The Standard Ratings is calculated for Coil:Cooling:DX:SingleSpeed = COIL COOLING DX SINGLE SPEED 2 14KBTU/HR 14.0SEER but not at the AHRI test condition due to curve out of bound.\n   **   ~~~   **  Review the Standard Ratings calculations in the Engineering Reference for this coil type. Also, use Output:Diagnostics, DisplayExtraWarnings for further guidance.\n   ** Warning ** The Standard Ratings is calculated for Coil:Cooling:DX:SingleSpeed = COIL COOLING DX SINGLE SPEED 1 13KBTU/HR 14.0SEER but not at the AHRI test condition due to curve out of bound.\n   **   ~~~   **  Review the Standard Ratings calculations in the Engineering Reference for this coil type. Also, use Output:Diagnostics, DisplayExtraWarnings for further guidance.\n   ** Warning ** The Standard Ratings is calculated for Coil:Cooling:DX:SingleSpeed = COIL COOLING DX SINGLE SPEED 3 16KBTU/HR 14.0SEER but not at the AHRI test condition due to curve out of bound.\n   **   ~~~   **  Review the Standard Ratings calculations in the Engineering Reference for this coil type. Also, use Output:Diagnostics, DisplayExtraWarnings for further guidance.\n   ** Warning ** Check input. Pump nominal power or motor efficiency is set to 0, for pump=SERVICE WATER LOOP PUMP\n   ** Warning ** Output:Meter: invalid Name=\"GAS:FACILITY\" - not found.\n   ** Warning ** Output:Meter: invalid Name=\"DISTRICTCOOLING:FACILITY\" - not found.\n   ** Warning ** Output:Meter: invalid Name=\"DISTRICTHEATING:FACILITY\" - not found.\n   ** Warning ** Output:Meter:MeterFileOnly: invalid Name=\"GAS:FACILITY\" - not found.\n   ** Warning ** Output:Meter:MeterFileOnly: invalid Name=\"GAS:FACILITY\" - not found.\n   ** Warning ** Output:Meter:MeterFileOnly requested for \"Electricity:Facility\" (TimeStep), already on \"Output:Meter\". Will report to both eplusout.eso and eplusout.mtr\n   ************* Testing Individual Branch Integrity\n   ************* All Branches passed integrity testing\n   ************* Testing Individual Supply Air Path Integrity\n   ************* All Supply Air Paths passed integrity testing\n   ************* Testing Individual Return Air Path Integrity\n   ************* All Return Air Paths passed integrity testing\n   ************* No node connection errors were found.\n   ************* Beginning Simulation\n   ** Warning ** GetInputEconomicsTariff: UtilityCost:Tariff=\"NONEGAS\" missing meter\n   **   ~~~   ** Meter referenced is not present due to a lack of equipment that uses that energy source/meter:\"GAS:FACILITY\".\n   ** Warning ** CalcDoe2DXCoil: Coil:Cooling:DX:SingleSpeed \"COIL COOLING DX SINGLE SPEED 5 14KBTU/HR 14.0SEER\" - Air-cooled condenser inlet dry-bulb temperature below 0 C. Outdoor dry-bulb temperature = -7.50E-002\n   **   ~~~   **  ... Occurrence info = RUN PERIOD 1, 01/02 06:03 - 06:05\n   **   ~~~   ** ... Operation at low ambient temperatures may require special performance curves.\n   ** Warning ** CalcDoe2DXCoil: Coil:Cooling:DX:SingleSpeed \"COIL COOLING DX SINGLE SPEED 5 14KBTU/HR 14.0SEER\" - Full load outlet air dry-bulb temperature < 2C. This indicates the possibility of coil frost/freeze. Outlet temperature = 1.45 C.\n   **   ~~~   **  ...Occurrence info = RUN PERIOD 1, 01/02 06:03 - 06:05\n   **   ~~~   ** ... Possible reasons for low outlet air dry-bulb temperatures are: This DX coil\n   **   ~~~   **    1) may have a low inlet air dry-bulb temperature. Inlet air temperature = 14.279 C.\n   **   ~~~   **    2) may have a low air flow rate per watt of cooling capacity. Check inputs.\n   **   ~~~   **    3) is used as part of a HX assisted cooling coil which uses a high sensible effectiveness. Check inputs.\n   ** Warning ** CalcDoe2DXCoil: Coil:Cooling:DX:SingleSpeed \"COIL COOLING DX SINGLE SPEED 4 20KBTU/HR 14.0SEER\" - Air-cooled condenser inlet dry-bulb temperature below 0 C. Outdoor dry-bulb temperature = -7.50E-002\n   **   ~~~   **  ... Occurrence info = RUN PERIOD 1, 01/02 06:03 - 06:05\n   **   ~~~   ** ... Operation at low ambient temperatures may require special performance curves.\n   ** Warning ** CalcDoe2DXCoil: Coil:Cooling:DX:SingleSpeed \"COIL COOLING DX SINGLE SPEED 2 14KBTU/HR 14.0SEER\" - Air-cooled condenser inlet dry-bulb temperature below 0 C. Outdoor dry-bulb temperature = -7.50E-002\n   **   ~~~   **  ... Occurrence info = RUN PERIOD 1, 01/02 06:03 - 06:05\n   **   ~~~   ** ... Operation at low ambient temperatures may require special performance curves.\n   ** Warning ** CalcDoe2DXCoil: Coil:Cooling:DX:SingleSpeed \"COIL COOLING DX SINGLE SPEED 1 13KBTU/HR 14.0SEER\" - Air-cooled condenser inlet dry-bulb temperature below 0 C. Outdoor dry-bulb temperature = -7.50E-002\n   **   ~~~   **  ... Occurrence info = RUN PERIOD 1, 01/02 06:03 - 06:05\n   **   ~~~   ** ... Operation at low ambient temperatures may require special performance curves.\n   ** Warning ** CalcDoe2DXCoil: Coil:Cooling:DX:SingleSpeed \"COIL COOLING DX SINGLE SPEED 3 16KBTU/HR 14.0SEER\" - Air-cooled condenser inlet dry-bulb temperature below 0 C. Outdoor dry-bulb temperature = -7.50E-002\n   **   ~~~   **  ... Occurrence info = RUN PERIOD 1, 01/02 06:03 - 06:05\n   **   ~~~   ** ... Operation at low ambient temperatures may require special performance curves.\n   ** Warning ** CalcDoe2DXCoil: Coil:Cooling:DX:SingleSpeed \"COIL COOLING DX SINGLE SPEED 1 13KBTU/HR 14.0SEER\" - Full load outlet air dry-bulb temperature < 2C. This indicates the possibility of coil frost/freeze. Outlet temperature = 0.75 C.\n   **   ~~~   **  ...Occurrence info = RUN PERIOD 1, 01/02 21:15 - 21:18\n   **   ~~~   ** ... Possible reasons for low outlet air dry-bulb temperatures are: This DX coil\n   **   ~~~   **    1) may have a low inlet air dry-bulb temperature. Inlet air temperature = 13.512 C.\n   **   ~~~   **    2) may have a low air flow rate per watt of cooling capacity. Check inputs.\n   **   ~~~   **    3) is used as part of a HX assisted cooling coil which uses a high sensible effectiveness. Check inputs.\n   ** Warning ** CalcDoe2DXCoil: Coil:Cooling:DX:SingleSpeed \"COIL COOLING DX SINGLE SPEED 2 14KBTU/HR 14.0SEER\" - Full load outlet air dry-bulb temperature < 2C. This indicates the possibility of coil frost/freeze. Outlet temperature = 1.97 C.\n   **   ~~~   **  ...Occurrence info = RUN PERIOD 1, 02/06 21:15 - 21:17\n   **   ~~~   ** ... Possible reasons for low outlet air dry-bulb temperatures are: This DX coil\n   **   ~~~   **    1) may have a low inlet air dry-bulb temperature. Inlet air temperature = 14.616 C.\n   **   ~~~   **    2) may have a low air flow rate per watt of cooling capacity. Check inputs.\n   **   ~~~   **    3) is used as part of a HX assisted cooling coil which uses a high sensible effectiveness. Check inputs.\n   ************* Simulation Error Summary *************\n   ************* There are 9 unused schedules in input.\n   ************* There are 9 unused week schedules in input.\n   ************* There are 14 unused day schedules in input.\n   ************* Use Output:Diagnostics,DisplayUnusedSchedules; to see them.\n   *************\n   ************* ===== Recurring Error Summary =====\n   ************* The following recurring error messages occurred.\n   *************\n   *************  ** Warning ** Plant loop exceeding upper temperature limit, PlantLoop=\"MAIN SERVICE WATER LOOP\"\n   *************  **   ~~~   **   This error occurred 42348 total times;\n   *************  **   ~~~   **   during Warmup 1114 times;\n   *************  **   ~~~   **   during Sizing 0 times.\n   *************  **   ~~~   **   Max=82.222222\n   *************\n   *************  ** Warning ** CalcDoe2DXCoil: Coil:Cooling:DX:SingleSpeed=\"COIL COOLING DX SINGLE SPEED 5 14KBTU/HR 14.0SEER\" - Low condenser dry-bulb temperature error continues...\n   *************  **   ~~~   **   This error occurred 332 total times;\n   *************  **   ~~~   **   during Warmup 0 times;\n   *************  **   ~~~   **   during Sizing 0 times.\n   *************  **   ~~~   **   Max=-2.500000E-002 [C]  Min=-11.7 [C]\n   *************\n   *************  ** Warning ** CalcDoe2DXCoil: Coil:Cooling:DX:SingleSpeed=\"COIL COOLING DX SINGLE SPEED 5 14KBTU/HR 14.0SEER\" - Full load outlet temperature indicates a possibility of frost/freeze error continues. Outlet air temperature statistics follow:\n   *************  **   ~~~   **   This error occurred 325 total times;\n   *************  **   ~~~   **   during Warmup 0 times;\n   *************  **   ~~~   **   during Sizing 0 times.\n   *************  **   ~~~   **   Max=1.994749  Min=-1.099716\n   *************\n   *************  ** Warning ** CalcDoe2DXCoil: Coil:Cooling:DX:SingleSpeed=\"COIL COOLING DX SINGLE SPEED 4 20KBTU/HR 14.0SEER\" - Low condenser dry-bulb temperature error continues...\n   *************  **   ~~~   **   This error occurred 355 total times;\n   *************  **   ~~~   **   during Warmup 0 times;\n   *************  **   ~~~   **   during Sizing 0 times.\n   *************  **   ~~~   **   Max=-7.500000E-002 [C]  Min=-20.75 [C]\n   *************\n   *************  ** Warning ** CalcDoe2DXCoil: Coil:Cooling:DX:SingleSpeed=\"COIL COOLING DX SINGLE SPEED 2 14KBTU/HR 14.0SEER\" - Low condenser dry-bulb temperature error continues...\n   *************  **   ~~~   **   This error occurred 515 total times;\n   *************  **   ~~~   **   during Warmup 0 times;\n   *************  **   ~~~   **   during Sizing 0 times.\n   *************  **   ~~~   **   Max=-2.500000E-002 [C]  Min=-20.3 [C]\n   *************\n   *************  ** Warning ** CalcDoe2DXCoil: Coil:Cooling:DX:SingleSpeed=\"COIL COOLING DX SINGLE SPEED 1 13KBTU/HR 14.0SEER\" - Low condenser dry-bulb temperature error continues...\n   *************  **   ~~~   **   This error occurred 343 total times;\n   *************  **   ~~~   **   during Warmup 0 times;\n   *************  **   ~~~   **   during Sizing 0 times.\n   *************  **   ~~~   **   Max=-2.500000E-002 [C]  Min=-17.4 [C]\n   *************\n   *************  ** Warning ** CalcDoe2DXCoil: Coil:Cooling:DX:SingleSpeed=\"COIL COOLING DX SINGLE SPEED 3 16KBTU/HR 14.0SEER\" - Low condenser dry-bulb temperature error continues...\n   *************  **   ~~~   **   This error occurred 519 total times;\n   *************  **   ~~~   **   during Warmup 0 times;\n   *************  **   ~~~   **   during Sizing 0 times.\n   *************  **   ~~~   **   Max=-2.500000E-002 [C]  Min=-20.3 [C]\n   *************\n   *************  ** Warning ** CalcDoe2DXCoil: Coil:Cooling:DX:SingleSpeed=\"COIL COOLING DX SINGLE SPEED 1 13KBTU/HR 14.0SEER\" - Full load outlet temperature indicates a possibility of frost/freeze error continues. Outlet air temperature statistics follow:\n   *************  **   ~~~   **   This error occurred 168 total times;\n   *************  **   ~~~   **   during Warmup 0 times;\n   *************  **   ~~~   **   during Sizing 0 times.\n   *************  **   ~~~   **   Max=1.996983  Min=-0.901007\n   *************\n   *************  ** Warning ** CalcDoe2DXCoil: Coil:Cooling:DX:SingleSpeed=\"COIL COOLING DX SINGLE SPEED 2 14KBTU/HR 14.0SEER\" - Full load outlet temperature indicates a possibility of frost/freeze error continues. Outlet air temperature statistics follow:\n   *************  **   ~~~   **   This error occurred 1 total times;\n   *************  **   ~~~   **   during Warmup 0 times;\n   *************  **   ~~~   **   during Sizing 0 times.\n   *************  **   ~~~   **   Max=1.96821  Min=1.96821\n   *************\n   *************\n   ************* ===== Final Error Summary =====\n   ************* The following error categories occurred.  Consider correcting or noting.\n   ************* Nominally Unused Constructions\n   ************* ..The nominally unused constructions warning is provided to alert you to potential conditions that can cause\n   ************* ..extra time during simulation. Each construction is calculated by the algorithm indicated in the HeatBalanceAlgorithm\n   ************* ..object. You may remove the constructions indicated (when you use the DisplayExtraWarnings option).\n   *************\n   ************* EnergyPlus Warmup Error Summary. During Warmup: 0 Warning; 0 Severe Errors.\n   ************* EnergyPlus Sizing Error Summary. During Sizing: 39 Warning; 0 Severe Errors.\n   ************* EnergyPlus Completed Successfully-- 44964 Warning; 0 Severe Errors; Elapsed Time=00hr 00min 29.49sec\n",
   "file_format_version" : "0.0.1",
   "file_paths" : [ "../weather", "../seeds", "../seed" ],
   "hash" : "E078DEDD",
   "measure_paths" : [ "../measures" ],
   "name" : "LHS Autogenerated 648",
   "osa_id" : "4fef0e0f-5396-4c55-a6e1-2cd6803db3ab",
   "osd_id" : "67bb4029-5043-4384-926d-b61aa7242270",
   "run_directory" : "./run",
   "seed_file" : "seed.osm",
   "started_at" : "20170710T190355Z",
   "steps" : [
      {
         "arguments" : {
            "__SKIP__" : false,
            "building_type" : "SmallOffice",
            "climate_zone" : "NECB HDD Method",
            "epw_file" : "CAN_NF_Stephenville.718150_CWEC.epw",
            "template" : "NECB 2011"
         },
         "measure_dir_name" : "create_prototype_building",
         "name" : "create_prototype_building",
         "result" : {
            "completed_at" : "20170710T190447Z",
            "measure_class_name" : "CreatePrototypeBuilding",
            "measure_display_name" : "Create Prototype Building",
            "measure_name" : "create_prototype_building",
            "measure_taxonomy" : "Whole Building.Space Types",
            "measure_type" : "ModelMeasure",
            "measure_uid" : "ae90fsd7-a651-467a-bc8d-29d310b0f937",
            "measure_version_id" : "c6ec5c18-5595-459f-a082-09a19c8c869c",
            "measure_version_modified" : "20170519T182315Z",
            "measure_xml_checksum" : "057E8D9D",
            "started_at" : "20170710T190357Z",
            "stderr" : "",
            "stdout" : "[OpenStudio.Measure] <0> OSArgumentVector is deprecated, use OpenStudio::Measure::OSArgumentVector instead.\n[openstudio.EpwFile] <0> Successive data points (1988-Jan-31 to 1985-Feb-01, ending on line 753) are greater than 1 day apart in EPW file '/usr/local/bundle/bundler/gems/openstudio-standards-f448df66933d/openstudio-standards/data/weather/CAN_NF_Stephenville.718150_CWEC.epw'. Data will be treated as typical (TMY)\n[openstudio.setFileExtension] <0> Path p, '/usr/local/bundle/bundler/gems/openstudio-standards-f448df66933d/openstudio-standards/data/weather/CAN_NF_Stephenville.718150_CWEC.ddy', has an unexpected file extension. Was expecting 'idf'.\n[openstudio.model.YearDescription] <1> 'UseWeatherFile' is not yet a supported option for YearDescription\n[openstudio.model.YearDescription] <1> 'UseWeatherFile' is not yet a supported option for YearDescription\n[openstudio.setFileExtension] <0> Path p, '/usr/local/bundle/bundler/gems/openstudio-standards-f448df66933d/openstudio-standards/data/weather/CAN_NF_Stephenville.718150_CWEC.ddy', has an unexpected file extension. Was expecting 'idf'.\n[openstudio.model.YearDescription] <1> 'UseWeatherFile' is not yet a supported option for YearDescription\n[openstudio.model.YearDescription] <1> 'UseWeatherFile' is not yet a supported option for YearDescription\n[openstudio.EpwFile] <0> Successive data points (1988-Jan-31 to 1985-Feb-01, ending on line 753) are greater than 1 day apart in EPW file '/usr/local/bundle/bundler/gems/openstudio-standards-f448df66933d/openstudio-standards/data/weather/CAN_NF_Stephenville.718150_CWEC.epw'. Data will be treated as typical (TMY)\n[openstudio.weather.Model] <0> Could not find ground temperatures; will use generic temperatures, which will skew results.\n[openstudio.setFileExtension] <0> Path p, '/usr/local/bundle/bundler/gems/openstudio-standards-f448df66933d/openstudio-standards/data/weather/CAN_NF_Stephenville.718150_CWEC.ddy', has an unexpected file extension. Was expecting 'idf'.\n[openstudio.model.YearDescription] <1> 'UseWeatherFile' is not yet a supported option for YearDescription\n[openstudio.model.YearDescription] <1> 'UseWeatherFile' is not yet a supported option for YearDescription\n[openstudio.EpwFile] <0> Successive data points (1988-Jan-31 to 1985-Feb-01, ending on line 753) are greater than 1 day apart in EPW file '/usr/local/bundle/bundler/gems/openstudio-standards-f448df66933d/openstudio-standards/data/weather/CAN_NF_Stephenville.718150_CWEC.epw'. Data will be treated as typical (TMY)\n[openstudio.setFileExtension] <0> Path p, '/usr/local/bundle/bundler/gems/openstudio-standards-f448df66933d/openstudio-standards/data/weather/CAN_NF_Stephenville.718150_CWEC.ddy', has an unexpected file extension. Was expecting 'idf'.\n[openstudio.model.YearDescription] <1> 'UseWeatherFile' is not yet a supported option for YearDescription\n[openstudio.model.YearDescription] <1> 'UseWeatherFile' is not yet a supported option for YearDescription\n[openstudio.setFileExtension] <0> Path p, '/usr/local/bundle/bundler/gems/openstudio-standards-f448df66933d/openstudio-standards/data/weather/CAN_NF_Stephenville.718150_CWEC.ddy', has an unexpected file extension. Was expecting 'idf'.\n[openstudio.model.YearDescription] <1> 'UseWeatherFile' is not yet a supported option for YearDescription\n[openstudio.model.YearDescription] <1> 'UseWeatherFile' is not yet a supported option for YearDescription\n[openstudio.EpwFile] <0> Successive data points (1988-Jan-31 to 1985-Feb-01, ending on line 753) are greater than 1 day apart in EPW file '/usr/local/bundle/bundler/gems/openstudio-standards-f448df66933d/openstudio-standards/data/weather/CAN_NF_Stephenville.718150_CWEC.epw'. Data will be treated as typical (TMY)\n[openstudio.setFileExtension] <0> Path p, '/usr/local/bundle/bundler/gems/openstudio-standards-f448df66933d/openstudio-standards/data/weather/CAN_NF_Stephenville.718150_CWEC.ddy', has an unexpected file extension. Was expecting 'idf'.\n[openstudio.model.YearDescription] <1> 'UseWeatherFile' is not yet a supported option for YearDescription\n[openstudio.model.YearDescription] <1> 'UseWeatherFile' is not yet a supported option for YearDescription\n[openstudio.setFileExtension] <0> Path p, '/usr/local/bundle/bundler/gems/openstudio-standards-f448df66933d/openstudio-standards/data/weather/CAN_NF_Stephenville.718150_CWEC.ddy', has an unexpected file extension. Was expecting 'idf'.\n[openstudio.model.YearDescription] <1> 'UseWeatherFile' is not yet a supported option for YearDescription\n[openstudio.model.YearDescription] <1> 'UseWeatherFile' is not yet a supported option for YearDescription\n[utilities.idf.WorkspaceObject] <0> Object of type 'Schedule:Constant' and named 'Always Off Discrete', points to an object named OnOff 1 from field 1, but that object cannot be located.\n[utilities.idf.WorkspaceObject] <0> Object of type 'Schedule:Constant' and named 'Always On Continuous', points to an object named Fractional 1 from field 1, but that object cannot be located.\n[utilities.idf.WorkspaceObject] <0> Object of type 'Schedule:Constant' and named 'Always Off Discrete', points to an object named OnOff 1 from field 1, but that object cannot be located.\n[utilities.idf.WorkspaceObject] <0> Object of type 'Schedule:Constant' and named 'Always On Continuous', points to an object named Fractional 1 from field 1, but that object cannot be located.\n[openstudio.standards.Fan] <0> For Fan Constant Volume 1, there is no greater nominal HP.  Use the efficiency of the largest motor category.\n[openstudio.standards.Fan] <0> For Fan Constant Volume 2, there is no greater nominal HP.  Use the efficiency of the largest motor category.\n[openstudio.standards.Fan] <0> For Fan Constant Volume 3, there is no greater nominal HP.  Use the efficiency of the largest motor category.\n[openstudio.standards.Fan] <0> For Fan Constant Volume 4, there is no greater nominal HP.  Use the efficiency of the largest motor category.\n[openstudio.standards.Fan] <0> For Fan Constant Volume 5, there is no greater nominal HP.  Use the efficiency of the largest motor category.\n[openstudio.EpwFile] <0> Successive data points (1988-Jan-31 to 1985-Feb-01, ending on line 753) are greater than 1 day apart in EPW file '/usr/local/bundle/bundler/gems/openstudio-standards-f448df66933d/openstudio-standards/data/weather/CAN_NF_Stephenville.718150_CWEC.epw'. Data will be treated as typical (TMY)\n[openstudio.setFileExtension] <0> Path p, '/usr/local/bundle/bundler/gems/openstudio-standards-f448df66933d/openstudio-standards/data/weather/CAN_NF_Stephenville.718150_CWEC.ddy', has an unexpected file extension. Was expecting 'idf'.\n[openstudio.model.YearDescription] <1> 'UseWeatherFile' is not yet a supported option for YearDescription\n[openstudio.model.YearDescription] <1> 'UseWeatherFile' is not yet a supported option for YearDescription\n[openstudio.setFileExtension] <0> Path p, '/usr/local/bundle/bundler/gems/openstudio-standards-f448df66933d/openstudio-standards/data/weather/CAN_NF_Stephenville.718150_CWEC.ddy', has an unexpected file extension. Was expecting 'idf'.\n[openstudio.model.YearDescription] <1> 'UseWeatherFile' is not yet a supported option for YearDescription\n[openstudio.model.YearDescription] <1> 'UseWeatherFile' is not yet a supported option for YearDescription\n[openstudio.EpwFile] <0> Successive data points (1988-Jan-31 to 1985-Feb-01, ending on line 753) are greater than 1 day apart in EPW file '/usr/local/bundle/bundler/gems/openstudio-standards-f448df66933d/openstudio-standards/data/weather/CAN_NF_Stephenville.718150_CWEC.epw'. Data will be treated as typical (TMY)\n[openstudio.setFileExtension] <0> Path p, '/usr/local/bundle/bundler/gems/openstudio-standards-f448df66933d/openstudio-standards/data/weather/CAN_NF_Stephenville.718150_CWEC.ddy', has an unexpected file extension. Was expecting 'idf'.\n[openstudio.model.YearDescription] <1> 'UseWeatherFile' is not yet a supported option for YearDescription\n[openstudio.model.YearDescription] <1> 'UseWeatherFile' is not yet a supported option for YearDescription\n[openstudio.setFileExtension] <0> Path p, '/usr/local/bundle/bundler/gems/openstudio-standards-f448df66933d/openstudio-standards/data/weather/CAN_NF_Stephenville.718150_CWEC.ddy', has an unexpected file extension. Was expecting 'idf'.\n[openstudio.model.YearDescription] <1> 'UseWeatherFile' is not yet a supported option for YearDescription\n[openstudio.model.YearDescription] <1> 'UseWeatherFile' is not yet a supported option for YearDescription\n[openstudio.EpwFile] <0> Successive data points (1988-Jan-31 to 1985-Feb-01, ending on line 753) are greater than 1 day apart in EPW file '/usr/local/bundle/bundler/gems/openstudio-standards-f448df66933d/openstudio-standards/data/weather/CAN_NF_Stephenville.718150_CWEC.epw'. Data will be treated as typical (TMY)\n[openstudio.setFileExtension] <0> Path p, '/usr/local/bundle/bundler/gems/openstudio-standards-f448df66933d/openstudio-standards/data/weather/CAN_NF_Stephenville.718150_CWEC.ddy', has an unexpected file extension. Was expecting 'idf'.\n[openstudio.model.YearDescription] <1> 'UseWeatherFile' is not yet a supported option for YearDescription\n[openstudio.model.YearDescription] <1> 'UseWeatherFile' is not yet a supported option for YearDescription\n[openstudio.setFileExtension] <0> Path p, '/usr/local/bundle/bundler/gems/openstudio-standards-f448df66933d/openstudio-standards/data/weather/CAN_NF_Stephenville.718150_CWEC.ddy', has an unexpected file extension. Was expecting 'idf'.\n[openstudio.model.YearDescription] <1> 'UseWeatherFile' is not yet a supported option for YearDescription\n[openstudio.model.YearDescription] <1> 'UseWeatherFile' is not yet a supported option for YearDescription\n[openstudio.EpwFile] <0> Successive data points (1988-Jan-31 to 1985-Feb-01, ending on line 753) are greater than 1 day apart in EPW file '/usr/local/bundle/bundler/gems/openstudio-standards-f448df66933d/openstudio-standards/data/weather/CAN_NF_Stephenville.718150_CWEC.epw'. Data will be treated as typical (TMY)\n[openstudio.setFileExtension] <0> Path p, '/usr/local/bundle/bundler/gems/openstudio-standards-f448df66933d/openstudio-standards/data/weather/CAN_NF_Stephenville.718150_CWEC.ddy', has an unexpected file extension. Was expecting 'idf'.\n[openstudio.model.YearDescription] <1> 'UseWeatherFile' is not yet a supported option for YearDescription\n[openstudio.model.YearDescription] <1> 'UseWeatherFile' is not yet a supported option for YearDescription\n[openstudio.setFileExtension] <0> Path p, '/usr/local/bundle/bundler/gems/openstudio-standards-f448df66933d/openstudio-standards/data/weather/CAN_NF_Stephenville.718150_CWEC.ddy', has an unexpected file extension. Was expecting 'idf'.\n[openstudio.model.YearDescription] <1> 'UseWeatherFile' is not yet a supported option for YearDescription\n[openstudio.model.YearDescription] <1> 'UseWeatherFile' is not yet a supported option for YearDescription\n[openstudio.EpwFile] <0> Successive data points (1988-Jan-31 to 1985-Feb-01, ending on line 753) are greater than 1 day apart in EPW file '/usr/local/bundle/bundler/gems/openstudio-standards-f448df66933d/openstudio-standards/data/weather/CAN_NF_Stephenville.718150_CWEC.epw'. Data will be treated as typical (TMY)\n[openstudio.setFileExtension] <0> Path p, '/usr/local/bundle/bundler/gems/openstudio-standards-f448df66933d/openstudio-standards/data/weather/CAN_NF_Stephenville.718150_CWEC.ddy', has an unexpected file extension. Was expecting 'idf'.\n[openstudio.model.YearDescription] <1> 'UseWeatherFile' is not yet a supported option for YearDescription\n[openstudio.model.YearDescription] <1> 'UseWeatherFile' is not yet a supported option for YearDescription\n[openstudio.setFileExtension] <0> Path p, '/usr/local/bundle/bundler/gems/openstudio-standards-f448df66933d/openstudio-standards/data/weather/CAN_NF_Stephenville.718150_CWEC.ddy', has an unexpected file extension. Was expecting 'idf'.\n[openstudio.model.YearDescription] <1> 'UseWeatherFile' is not yet a supported option for YearDescription\n[openstudio.model.YearDescription] <1> 'UseWeatherFile' is not yet a supported option for YearDescription\n[openstudio.standards.Fan] <0> For Fan Constant Volume 1, there is no greater nominal HP.  Use the efficiency of the largest motor category.\n[openstudio.standards.Fan] <0> For Fan Constant Volume 2, there is no greater nominal HP.  Use the efficiency of the largest motor category.\n[openstudio.standards.Fan] <0> For Fan Constant Volume 3, there is no greater nominal HP.  Use the efficiency of the largest motor category.\n[openstudio.standards.Fan] <0> For Fan Constant Volume 4, there is no greater nominal HP.  Use the efficiency of the largest motor category.\n[openstudio.standards.Fan] <0> For Fan Constant Volume 5, there is no greater nominal HP.  Use the efficiency of the largest motor category.\n",
            "step_errors" : [],
            "step_files" : [],
            "step_info" : [
               "Started adding geometry",
               "Finished adding geometry",
               "Started adding weather file for climate zone: NECB HDD Method.",
               "Template =",
               "Setting Attic to Space Function.- undefined -",
               "Setting Core_ZN to Space Function.Office - enclosed",
               "Setting Perimeter_ZN_1 to Space Function.Office - enclosed",
               "Setting Perimeter_ZN_2 to Space Function.Office - enclosed",
               "Setting Perimeter_ZN_3 to Space Function.Office - enclosed",
               "Setting Perimeter_ZN_4 to Space Function.Office - enclosed",
               "Started applying space types (loads)",
               "Space Function - undefined - had no ventilation specification, one has been created.",
               "Space Function - undefined - had no infiltration objects, one has been created.",
               "Space Function - undefined - set infiltration to 0.0 per ft^2 exterior surface area.",
               "Space Function - undefined - set infiltration schedule to Always On.",
               "Space Function Office - enclosed had no people, one has been created.",
               "Space Function Office - enclosed set occupancy to 4.65 people/1000 ft^2.",
               "Space Function Office - enclosed had no lights, one has been created.",
               "Space Function Office - enclosed set LPD to 1.105536975 W/ft^2.",
               "Space Function Office - enclosed had no electric equipment, one has been created.",
               "Space Function Office - enclosed set electric EPD to 0.696767001 W/ft^2.",
               "Space Function Office - enclosed had no ventilation specification, one has been created.",
               "Space Function Office - enclosed set ventilation per area to 0.085 cfm/ft^2.",
               "Space Function Office - enclosed had no infiltration objects, one has been created.",
               "Space Function Office - enclosed set infiltration to 0.0 per ft^2 exterior surface area.",
               "Space Function Office - enclosed set occupancy schedule to NECB-A-Occupancy.",
               "Space Function Office - enclosed set occupant activity schedule to NECB-Activity.",
               "Space Function Office - enclosed set lighting schedule to NECB-A-Lighting.",
               "Space Function Office - enclosed set electric equipment schedule to NECB-A-Electric-Equipment.",
               "Space Function Office - enclosed set infiltration schedule to Always On.",
               "Space Function Office - enclosed set heating setpoint schedule to NECB-A-Thermostat Setpoint-Heating.",
               "Space Function Office - enclosed set cooling setpoint schedule to NECB-A-Thermostat Setpoint-Cooling.",
               "Finished applying space types (loads)",
               "For NECB 2011, no exterior wall area was found, no infiltration will be added.",
               "Started applying constructions",
               "Adding construction set: NECB 2011-NECB HDD Method-Office--is_residentialNo",
               "Adding construction Typical Insulated Exterior Mass Floor R-15.63.",
               "Adding construction Typical Insulated Exterior Mass Wall R-12.5.",
               "Adding construction Typical Insulated Metal Building Roof R-20.41.",
               "Adding construction Typical Interior Floor.",
               "Adding construction Typical Interior Wall.",
               "Adding construction Typical Interior Ceiling.",
               "Adding construction Typical Insulated Carpeted 6in Slab Floor.",
               "Adding construction U 0.55 SHGC 0.31 Dbl Ref-D Tint 6mm/6mm Air.",
               "Adding construction Typical Insulated Metal Door R-1.43.",
               "Adding construction U 0.35 SHGC 0.35 Dbl LoE (e2-.1) Tint 6mm/13mm Air.",
               "Adding construction Typical Overhead Door R-2.0.",
               "Adding construction U 0.48 SHGC 0.40 Dbl Ref-D Clr 6mm/13mm.",
               "Adding construction Typical Interior Window.",
               "Adding construction Typical Interior Door.",
               "Adding construction Typical Interior Partition.",
               "Finished applying constructions",
               "WWR NonRes = 0%; window = 0 ft2, wall = 0 ft2.",
               "WWR Res = 0%; window = 0 ft2, wall = 0 ft2.",
               "WWR Semiheated = 0%; window = 0 ft2, wall = 0 ft2.",
               "The skylight to roof ratios (SRRs) are: NonRes: 0%, Res: 0%.",
               "Started creating thermal zones",
               "Finished creating thermal zones",
               "Running simulation /mnt/openstudio/analysis_4fef0e0f-5396-4c55-a6e1-2cd6803db3ab/data_point_67bb4029-5043-4384-926d-b61aa7242270/run/000_create_prototype_building/output/SmallOffice-NECB 2011-NECB HDD Method-CAN_NF_Stephenville.718150_CWEC.epw/SR0.",
               "Finished run.",
               "Started Adding HVAC",
               "Finished adding HVAC",
               "Started Adding Service Water Heating",
               "Adding service water loop.",
               "Adding water heater.",
               "Template =",
               "Finished adding Service Water Heating",
               "Set sizing factors to 1.3 for heating and 1.3 for cooling.",
               "Running simulation /mnt/openstudio/analysis_4fef0e0f-5396-4c55-a6e1-2cd6803db3ab/data_point_67bb4029-5043-4384-926d-b61aa7242270/run/000_create_prototype_building/output/SmallOffice-NECB 2011-NECB HDD Method-CAN_NF_Stephenville.718150_CWEC.epw/SR1.",
               "Finished run.",
               "Started applying multizone vav OA sizing.",
               "Finished applying multizone vav OA sizing.",
               "Started applying prototype HVAC assumptions.",
               "For Fan Constant Volume 1: allowed_hp = 1.01HP; motor eff = 61.5%; total fan eff = 40% based on 490 cfm.",
               "For Fan Constant Volume 2: allowed_hp = 1.01HP; motor eff = 61.5%; total fan eff = 40% based on 538 cfm.",
               "For Fan Constant Volume 3: allowed_hp = 1.01HP; motor eff = 61.5%; total fan eff = 40% based on 604 cfm.",
               "For Fan Constant Volume 4: allowed_hp = 1.01HP; motor eff = 61.5%; total fan eff = 40% based on 757 cfm.",
               "For Fan Constant Volume 5: allowed_hp = 1.01HP; motor eff = 61.5%; total fan eff = 40% based on 514 cfm.",
               "Sp-Perimeter_ZN_2 Sys-3 Flr-1 Sch-A HPlcmt-east ZN NECB System 3 PSZ does not require an economizer because the total cooling capacity of 14337 Btu/hr is less than the minimum capacity of 68243 Btu/hr.",
               "Sp-Core_ZN Sys-3 Flr-1 Sch-A HPlcmt-core ZN NECB System 3 PSZ does not require an economizer because the total cooling capacity of 13711 Btu/hr is less than the minimum capacity of 68243 Btu/hr.",
               "Sp-Perimeter_ZN_4 Sys-3 Flr-1 Sch-A HPlcmt-west ZN NECB System 3 PSZ does not require an economizer because the total cooling capacity of 16098 Btu/hr is less than the minimum capacity of 68243 Btu/hr.",
               "Sp-Perimeter_ZN_1 Sys-3 Flr-1 Sch-A HPlcmt-south ZN NECB System 3 PSZ does not require an economizer because the total cooling capacity of 20169 Btu/hr is less than the minimum capacity of 68243 Btu/hr.",
               "Sp-Perimeter_ZN_3 Sys-3 Flr-1 Sch-A HPlcmt-north ZN NECB System 3 PSZ does not require an economizer because the total cooling capacity of 13068 Btu/hr is less than the minimum capacity of 68243 Btu/hr.",
               "Finished applying prototype HVAC assumptions.",
               "Started applying HVAC efficiency standards.",
               "For Sp-Core_ZN Sys-3 Flr-1 Sch-A HPlcmt-core ZN NECB System 3 PSZ, ERV not required based on 0% OA flow, design supply air flow of 514cfm, and climate zone NECB HDD Method.",
               "For Sp-Core_ZN Sys-3 Flr-1 Sch-A HPlcmt-core ZN NECB System 3 PSZ, ERV not required based on exhaust heat content.",
               "For NECB 2011 NECB HDD Method:  Sp-Core_ZN Sys-3 Flr-1 Sch-A HPlcmt-core ZN NECB System 3 PSZ: DCV is not required for any system.",
               "For Sp-Core_ZN Sys-3 Flr-1 Sch-A HPlcmt-core ZN NECB System 3 PSZ: Unoccupied fan shutoff not required because system fan HP of 0.52 HP is less than the minimum threshold of 0.75 HP.",
               "For Sp-Core_ZN Sys-3 Flr-1 Sch-A HPlcmt-core ZN NECB System 3 PSZ: Setting motorized OA damper schedule to Always On Discrete.",
               "For Sp-Perimeter_ZN_1 Sys-3 Flr-1 Sch-A HPlcmt-south ZN NECB System 3 PSZ, ERV not required based on 0% OA flow, design supply air flow of 757cfm, and climate zone NECB HDD Method.",
               "For Sp-Perimeter_ZN_1 Sys-3 Flr-1 Sch-A HPlcmt-south ZN NECB System 3 PSZ, ERV not required based on exhaust heat content.",
               "For NECB 2011 NECB HDD Method:  Sp-Perimeter_ZN_1 Sys-3 Flr-1 Sch-A HPlcmt-south ZN NECB System 3 PSZ: DCV is not required for any system.",
               "For Sp-Perimeter_ZN_1 Sys-3 Flr-1 Sch-A HPlcmt-south ZN NECB System 3 PSZ: Annual occupied hours = 2860 hr/yr, assuming a 0.15 occupancy threshold.  This schedule will be used as the HVAC operation schedule.",
               "For Sp-Perimeter_ZN_1 Sys-3 Flr-1 Sch-A HPlcmt-south ZN NECB System 3 PSZ: Setting motorized OA damper schedule to Sp-Perimeter_ZN_1 Sys-3 Flr-1 Sch-A HPlcmt-south ZN NECB System 3 PSZ Occ Sch.",
               "For Sp-Perimeter_ZN_2 Sys-3 Flr-1 Sch-A HPlcmt-east ZN NECB System 3 PSZ, ERV not required based on 0% OA flow, design supply air flow of 538cfm, and climate zone NECB HDD Method.",
               "For Sp-Perimeter_ZN_2 Sys-3 Flr-1 Sch-A HPlcmt-east ZN NECB System 3 PSZ, ERV not required based on exhaust heat content.",
               "For NECB 2011 NECB HDD Method:  Sp-Perimeter_ZN_2 Sys-3 Flr-1 Sch-A HPlcmt-east ZN NECB System 3 PSZ: DCV is not required for any system.",
               "For Sp-Perimeter_ZN_2 Sys-3 Flr-1 Sch-A HPlcmt-east ZN NECB System 3 PSZ: Unoccupied fan shutoff not required because system fan HP of 0.54 HP is less than the minimum threshold of 0.75 HP.",
               "For Sp-Perimeter_ZN_2 Sys-3 Flr-1 Sch-A HPlcmt-east ZN NECB System 3 PSZ: Setting motorized OA damper schedule to Always On Discrete.",
               "For Sp-Perimeter_ZN_3 Sys-3 Flr-1 Sch-A HPlcmt-north ZN NECB System 3 PSZ, ERV not required based on 0% OA flow, design supply air flow of 490cfm, and climate zone NECB HDD Method.",
               "For Sp-Perimeter_ZN_3 Sys-3 Flr-1 Sch-A HPlcmt-north ZN NECB System 3 PSZ, ERV not required based on exhaust heat content.",
               "For NECB 2011 NECB HDD Method:  Sp-Perimeter_ZN_3 Sys-3 Flr-1 Sch-A HPlcmt-north ZN NECB System 3 PSZ: DCV is not required for any system.",
               "For Sp-Perimeter_ZN_3 Sys-3 Flr-1 Sch-A HPlcmt-north ZN NECB System 3 PSZ: Unoccupied fan shutoff not required because system fan HP of 0.5 HP is less than the minimum threshold of 0.75 HP.",
               "For Sp-Perimeter_ZN_3 Sys-3 Flr-1 Sch-A HPlcmt-north ZN NECB System 3 PSZ: Setting motorized OA damper schedule to Always On Discrete.",
               "For Sp-Perimeter_ZN_4 Sys-3 Flr-1 Sch-A HPlcmt-west ZN NECB System 3 PSZ, ERV not required based on 0% OA flow, design supply air flow of 604cfm, and climate zone NECB HDD Method.",
               "For Sp-Perimeter_ZN_4 Sys-3 Flr-1 Sch-A HPlcmt-west ZN NECB System 3 PSZ, ERV not required based on exhaust heat content.",
               "For NECB 2011 NECB HDD Method:  Sp-Perimeter_ZN_4 Sys-3 Flr-1 Sch-A HPlcmt-west ZN NECB System 3 PSZ: DCV is not required for any system.",
               "For Sp-Perimeter_ZN_4 Sys-3 Flr-1 Sch-A HPlcmt-west ZN NECB System 3 PSZ: Unoccupied fan shutoff not required because system fan HP of 0.61 HP is less than the minimum threshold of 0.75 HP.",
               "For Sp-Perimeter_ZN_4 Sys-3 Flr-1 Sch-A HPlcmt-west ZN NECB System 3 PSZ: Setting motorized OA damper schedule to Always On Discrete.",
               "For Fan Constant Volume 1: motor nameplate = 0.30537487028497423HP, motor eff = 61.5%.",
               "For Fan Constant Volume 2: motor nameplate = 0.33501116060978964HP, motor eff = 61.5%.",
               "For Fan Constant Volume 3: motor nameplate = 0.37616562060011016HP, motor eff = 61.5%.",
               "For Fan Constant Volume 4: motor nameplate = 0.47128619959970136HP, motor eff = 61.5%.",
               "For Fan Constant Volume 5: motor nameplate = 0.3203822935151563HP, motor eff = 61.5%.",
               "For Service Water Loop Pump: brake hp = 0.0HP, motor nameplate = 0.1HP, motor eff = 70.0%.",
               "For NECB 2011: Coil Cooling DX Single Speed 1: AirCooled Electric Resistance or None Single Package Capacity = 13kBtu/hr; SEER = 14.0",
               "For NECB 2011: Coil Cooling DX Single Speed 2: AirCooled Electric Resistance or None Single Package Capacity = 14kBtu/hr; SEER = 14.0",
               "For NECB 2011: Coil Cooling DX Single Speed 3: AirCooled Electric Resistance or None Single Package Capacity = 16kBtu/hr; SEER = 14.0",
               "For NECB 2011: Coil Cooling DX Single Speed 4: AirCooled Electric Resistance or None Single Package Capacity = 20kBtu/hr; SEER = 14.0",
               "For NECB 2011: Coil Cooling DX Single Speed 5: AirCooled Electric Resistance or None Single Package Capacity = 14kBtu/hr; SEER = 14.0",
               "For NECB 2011: 40.0gal Electricity Water Heater - 40kBtu/hr 1.0 Therm Eff; thermal efficiency = 1.0, skin-loss UA = 3Btu/hr",
               "Finished applying HVAC efficiency standards.",
               "Started adding daylighting controls.",
               "For Attic, daylighting control not applicable because no exterior fenestration is present.",
               "For Core_ZN, daylighting control not applicable because no exterior fenestration is present.",
               "Finished adding daylighting controls.",
               "Total Time = 49sec."
            ],
            "step_result" : "Success",
            "step_values" : [
               {
                  "name" : "building_type",
                  "value" : "SmallOffice"
               },
               {
                  "name" : "template",
                  "value" : "NECB 2011"
               },
               {
                  "name" : "climate_zone",
                  "value" : "NECB HDD Method"
               },
               {
                  "name" : "epw_file",
                  "value" : "CAN_NF_Stephenville.718150_CWEC.epw"
               }
            ],
            "step_warnings" : [
               "[openstudio.EpwFile] Successive data points (1988-Jan-31 to 1985-Feb-01, ending on line 753) are greater than 1 day apart in EPW file '/usr/local/bundle/bundler/gems/openstudio-standards-f448df66933d/openstudio-standards/data/weather/CAN_NF_Stephenville.718150_CWEC.epw'. Data will be treated as typical (TMY)",
               "[openstudio.EpwFile] Successive data points (1988-Jan-31 to 1985-Feb-01, ending on line 753) are greater than 1 day apart in EPW file '/usr/local/bundle/bundler/gems/openstudio-standards-f448df66933d/openstudio-standards/data/weather/CAN_NF_Stephenville.718150_CWEC.epw'. Data will be treated as typical (TMY)",
               "[openstudio.weather.Model] Could not find ground temperatures; will use generic temperatures, which will skew results.",
               "[openstudio.EpwFile] Successive data points (1988-Jan-31 to 1985-Feb-01, ending on line 753) are greater than 1 day apart in EPW file '/usr/local/bundle/bundler/gems/openstudio-standards-f448df66933d/openstudio-standards/data/weather/CAN_NF_Stephenville.718150_CWEC.epw'. Data will be treated as typical (TMY)",
               "[openstudio.EpwFile] Successive data points (1988-Jan-31 to 1985-Feb-01, ending on line 753) are greater than 1 day apart in EPW file '/usr/local/bundle/bundler/gems/openstudio-standards-f448df66933d/openstudio-standards/data/weather/CAN_NF_Stephenville.718150_CWEC.epw'. Data will be treated as typical (TMY)",
               "[openstudio.standards.Fan] For Fan Constant Volume 1, there is no greater nominal HP.  Use the efficiency of the largest motor category.",
               "[openstudio.standards.Fan] For Fan Constant Volume 2, there is no greater nominal HP.  Use the efficiency of the largest motor category.",
               "[openstudio.standards.Fan] For Fan Constant Volume 3, there is no greater nominal HP.  Use the efficiency of the largest motor category.",
               "[openstudio.standards.Fan] For Fan Constant Volume 4, there is no greater nominal HP.  Use the efficiency of the largest motor category.",
               "[openstudio.standards.Fan] For Fan Constant Volume 5, there is no greater nominal HP.  Use the efficiency of the largest motor category.",
               "[openstudio.EpwFile] Successive data points (1988-Jan-31 to 1985-Feb-01, ending on line 753) are greater than 1 day apart in EPW file '/usr/local/bundle/bundler/gems/openstudio-standards-f448df66933d/openstudio-standards/data/weather/CAN_NF_Stephenville.718150_CWEC.epw'. Data will be treated as typical (TMY)",
               "[openstudio.EpwFile] Successive data points (1988-Jan-31 to 1985-Feb-01, ending on line 753) are greater than 1 day apart in EPW file '/usr/local/bundle/bundler/gems/openstudio-standards-f448df66933d/openstudio-standards/data/weather/CAN_NF_Stephenville.718150_CWEC.epw'. Data will be treated as typical (TMY)",
               "[openstudio.EpwFile] Successive data points (1988-Jan-31 to 1985-Feb-01, ending on line 753) are greater than 1 day apart in EPW file '/usr/local/bundle/bundler/gems/openstudio-standards-f448df66933d/openstudio-standards/data/weather/CAN_NF_Stephenville.718150_CWEC.epw'. Data will be treated as typical (TMY)",
               "[openstudio.EpwFile] Successive data points (1988-Jan-31 to 1985-Feb-01, ending on line 753) are greater than 1 day apart in EPW file '/usr/local/bundle/bundler/gems/openstudio-standards-f448df66933d/openstudio-standards/data/weather/CAN_NF_Stephenville.718150_CWEC.epw'. Data will be treated as typical (TMY)",
               "[openstudio.EpwFile] Successive data points (1988-Jan-31 to 1985-Feb-01, ending on line 753) are greater than 1 day apart in EPW file '/usr/local/bundle/bundler/gems/openstudio-standards-f448df66933d/openstudio-standards/data/weather/CAN_NF_Stephenville.718150_CWEC.epw'. Data will be treated as typical (TMY)",
               "[openstudio.standards.Fan] For Fan Constant Volume 1, there is no greater nominal HP.  Use the efficiency of the largest motor category.",
               "[openstudio.standards.Fan] For Fan Constant Volume 2, there is no greater nominal HP.  Use the efficiency of the largest motor category.",
               "[openstudio.standards.Fan] For Fan Constant Volume 3, there is no greater nominal HP.  Use the efficiency of the largest motor category.",
               "[openstudio.standards.Fan] For Fan Constant Volume 4, there is no greater nominal HP.  Use the efficiency of the largest motor category.",
               "[openstudio.standards.Fan] For Fan Constant Volume 5, there is no greater nominal HP.  Use the efficiency of the largest motor category."
            ]
         }
      },
      {
         "arguments" : {
            "__SKIP__" : false
         },
         "measure_dir_name" : "view_model",
         "name" : "view_model",
         "result" : {
            "completed_at" : "20170710T190447Z",
            "measure_class_name" : "ViewModel",
            "measure_display_name" : "ViewModel",
            "measure_name" : "view_model",
            "measure_taxonomy" : "Reporting.QAQC",
            "measure_type" : "ModelMeasure",
            "measure_uid" : "f4669f10-fda5-489d-8e1c-7ca3c2d40378",
            "measure_version_id" : "f4975c5f-7c25-42a2-927b-02d99b4427ef",
            "measure_version_modified" : "20170526T150340Z",
            "measure_xml_checksum" : "1E1F8B97",
            "started_at" : "20170710T190447Z",
            "stderr" : "",
            "stdout" : "[OpenStudio.Measure] <0> OSArgumentVector is deprecated, use OpenStudio::Measure::OSArgumentVector instead.\n",
            "step_errors" : [],
            "step_files" : [
               "/mnt/openstudio/analysis_4fef0e0f-5396-4c55-a6e1-2cd6803db3ab/data_point_67bb4029-5043-4384-926d-b61aa7242270/run/001_view_model/report.html",
               "/mnt/openstudio/analysis_4fef0e0f-5396-4c55-a6e1-2cd6803db3ab/data_point_67bb4029-5043-4384-926d-b61aa7242270/run/001_view_model/report.json"
            ],
            "step_final_condition" : "Report written to <a href='file:////mnt/openstudio/analysis_4fef0e0f-5396-4c55-a6e1-2cd6803db3ab/data_point_67bb4029-5043-4384-926d-b61aa7242270/run/001_view_model/report.html'>report.html</a>.",
            "step_info" : [ "No changes made to the model." ],
            "step_result" : "NA",
            "step_values" : [
               {
                  "name" : "view_model_html_zip",
[...]
alg22gLZVgy2gbdFgC2hbM9gC2pYMtoDW21S+iLWvNdbbVL6Ita821ttUvoi1rzfW21S+iLWvONbbVL6Ita851ttUvoj1729qX3Ost6l8ETnWHKeHOspsWRfPgDAHt726lQS3vdCVBLe95pUEty05lQS3rT6VBLe9f7aS4LZ32VYS3PZe3EqCW98YX0102zt7q4lue5t9NdFt78avJrrtTfvVRLe9t7+a6LaPAFQT/ZuudNYPFFQT/ZuuddaPJ1QT/Zuuddbb9Wqif9MdnfU2fhn9g81TmPkz0+JUTNT98iHP7NnOZnw3bGVPaW58nHP54HWskh/C2WQQN3udlpCy1xJd/TevZ/dI6EOK8fhs+WBw5idqGEbzVw9BvHhw+XE0LJ7uTgXeRgMVvZvp54itD9Qc83WOX5UfzyK1wNCPQudXgfq8evZw7XqoCxUFKs5x00j5BZmOw6Stn/jdGDL+2nlvJo3b2c0403DsJ0E4SaEacaKmu9fqJoxUwy6TflFDNRmsn9Dis+ZBmgVdnQn6CWGp/8gfB9/4pPxStn01VMn5JNHjk4a4mU36GWlzR/xp8Ty4JlSPR19unBu6BTeimYyCOM1rfZxdIN1WDmqn43fu90fN/wK7qi3x8wemc92raRgHWvB1+rHN2SyblvkKVRTeuyEtsYLJQOmJuytbjkcv223ZA28CNdb51szHdDFPhlE4m6qB+O478bf884f21ciP8/VET7Cd1d75V3vTAWn7w+EbHaM9VpNhMhIvhSf+JRqvxuOGOFn/RjwO+qq5K3cuOx92Ns63J2cSRqJ5m55K53txm4bJUzWPqz/7x6mQ7hdIN53Gud7l7Yf2R5Uub6eni8Erp5ip5pf91vVUl+06Uv7HMgd/djzG9ft6vPKzO9VprZMhz5SsMLavFr4nanCmS258mY3kh3JDubzQ01k8apa9FuklPVlcz/IzaTw+sTnLtv5m2ShxEoUflV2cxXfLRgqnfj/dbdmFyr9c+qyyEMtQZVWWC8n6slJmejgvProtp/P6wpPuVaWrmst0s2f93MqqqtX3P2/aU+i2tyd+/+O9+M/bP96Ji7fv3v/824/il7c//nwmfjp/d24n8CZdtdWDr7doIglFHKYb6cnsU5oHfZFtEWPhx/108xJMhhaKy7HXOiuV2W+Ja/vFJVLJLJqIqR/F6s049JOmr5f8nfRSrnx2nX1mNZibt2grYfNT2CT8+Rv4U33xVHpmPLV4yvyb2GUBBzjAAQ5wgAMc4AAHOMABztbjPHX90ESRGoAGNKABDWhAAxrQgAY0oAENaIppnvgkaRrtewQc4AAHOMABDnCAAxzgAAc4wCmDY+8Blv2GbeHpBVKQghSkIAUpSEEKUpCCFKQgBSlIt4N0o5liRrowRwQpSEEKUpCCFKQgBSlIQQpSkIIUpNtB6uTAmlEvHFVBDWpQgxrUoAY1qEENalCDGtSgBjWovyH1EmsQ+ffNjWIP7SRIxupi5E9VO1EPSfPFT+EsijdjzJ8e+V59mqrIT2aREs03O1pjg8jenng1GAhfZFriPkhGIg4/KTHobjgyvhu2/elUv1CkoaM3djYcsGxtP0mixStkDjqOB+kXvnj2B8XJXL93RePt+pP+KIwajy87cdS4CSfJ7r0KhqNEa1yH44G9xuLq/HZ+9sPuq933IxV9CuPET8SFSqZhkAqfheE4mAxf7BRdr5d7cT8Kpsk/jd95uTcI7r7ebTzGLJZqiWBw2ujrdD5Lz98PJiq6kkcNkQ3KaWMQxNOxPz8JJvp9OLvX47D/8fuGmS8VXZyCSObT9Hg9Lnu3/p2/+LTwSN2yl/TcDcXp8l08E3V/cTdsNv7+lLEl9vWrbdI/Ns6klRe6XP73LVFfWPmZ3qN6sN/umt7+tHD+W3v3VIGqV4lqtxLV/UpUe5WoHlSiuvrOvYND8xvA3FTX3qUn271V1f3SqseVqK6/6JNPVlYj61Uj261Gdr8a2V41sgfVyB5WI1vNJJPVzDKvmlnmVTPLvGqKmFdNFfMIZeypMVWJHUKkBg6ilmPrJmo5sm6iluPqJmq5O3ATtdwcuIla7g3cRC1XLTdRyzXLTdR2Y+CoarliOapabgscVS13BY6qlpsCR1XLPYGjquWWwFHVckfgqFrJ1LLdDzjWgErmlu1uwFG1koJluxdwVC1bsp4Yp5TYBmifFQdVy2F1VLUcVkdVy2F1VLXcCjiqWu4FHFUtNwOOqpZLlqOq5ZLlqGq7H3CVtVy0XGUtdwSuspZbAldZyz2Bq6zlpsBV1nJX4CpruS1wla1mktluDFyrQjWzzHZr4CpbTRGz3Ry4ypYtY/aPYJf5/cLiiW2GgLY/tWELaPvzHLaAtj/pYQto+7sMtoC2v+ZgC3hYd8CjugMe1x1wbadUT8Ta1xpZ+2Ija19tZO3Ljax9vZG1Lziy9hVH1r7kyNrXHK/2Ncerf39T+5pj/Rsrvogca87GJwfLbFMXDxoyBLS9imwBbS8iW0Dba8gW0LZssAW0rRpsAW2LBltA25rBFtC2ZLAFtN6m8kWsfa2x3qbyRax9tbHepvJFrH29sd6m8kWsfcWx3qbyRax9zbHepvJFrH9/U/uaY71N5YvIseY4PdxRZsu6eBaEObjt1a0kuO2FriS47TWvJLhtyakkuG31qSS47T3qlQS3vcu2kuC29+JWEtz6xvhqotve2VtNdNvb7KuJbns3fjXRbW/arya67b391US3fQSgmui2TwpUE/2bLnXWzx1Us6f5pmud9VMM1UT/phs66617NdFdt3QfbJ7CzJ+dFqdiou6XD3lmz3Y247thK3tKc+PjnMsHsGOV/BDOJoO42eu0hJS9lujqv3k9u0dCH1KMx2fMB4MzP1HDMJq/egjixePLj6Nh8ZR3KvA2Gqjo3Uw/TWx9oOaYr3P8qvx4FqkFhn4gOr8K1OfWs4dr10NdqChQcY6bRsovyHQcJm39xO/GkPHXznszadzObsaZhmM/CcJJCtWIEzXdvVY3YaQadpn0ixqqyWD9hBafNQ/SLOjqTNBPCEv9R/5Q+Mbn5Zey7auhSs4niR6fNMTNbNLPSJs74k+Lp8I1oXo8+nLj3NAtuBHNZBTEaV7r4+wC6bZyUDsdv3O/P2r+F9hVbYmfPzCd615NwzjQgq/Tj23OZtm0zFeoovDeDWmJFUwGSk/cXdlyPHrZbsseeBOosc63Zj6mi3kyjMLZVA3Ed9+Jv+WfP7SvRn6cryd6gu2s9s6/2psOSNsfDt/oGO2xmgyTkXgpPPEv0Xg1HjfEyfo34nHQV81duXPZ+bCzcb49OZMwEs3b9FQ634vbNEyeqnlc/dk/ToV0v0C66TTO9S5vP7Q/qnR5Oz1dDF45xUw1v+y3rqe6bNeR8j+WOfiz4zGu39fjlZ/dqU5rnQx5pmSFsX218D9RgzNdcuPLbCQ/lBvK5YWezuJRs+y1SC/pyeJ6lp9J4/GJzVm29TfLRomTKPyo7OIsvls2Ujj1++luyy5U/uXSZ5WFWIYqq7JcSNaXlTLTw3nx0W05ndcXnnSvKl3VXKabPevnVlZVrb7/edOeQre9PfH7H+/Ff97+8U5cvH33/ufffhS/vP3x5zPx0/m7czuBN+mqrR58vUUTSSjiMN1IT2af0jzoi2yLGAs/7qebl2AytFBcjr3WWanMfktc2y8ukUpm0URM/ShWb8ahnzR9veTvpJdy5bPr7DOrwdy8RVsJm5/CJuHP38Cn6oun0jMDqsVT5t/ENgs4wAEOcIADHOAABzjAAQ5wth7nqeuHJorUADSgAQ1oQAMa0IAGNKABDWhAU0zzxCdJ02jfI+AABzjAAQ5wgAMc4AAHOMABThkcew+w7DdsC08vkIIUpCAFKUhBClKQghSkIAUpSEG6HaQbzRQz0oU5IkhBClKQghSkIAUpSEEKUpCCFKQg3Q5SJwfWjHrhqApqUIMa1KAGNahBDWpQgxrUoAY1qEH9DamXWIPIv29uFHtoJ0EyVhcjf6raiXpImi9+CmdRvBlj/vTI9+rTVEV+MouUaL7Z0RobRPb2xKvBQPgi0xL3QTIScfhJiUF3w5Hx3bDtT6f6hSINHb2xs+GAZWv7SRItXiFz0HE8SL/wxbM/KE7m+r0rGm/Xn/RHYdR4fNmJo8ZNOEl271UwHCVa4zocD+w1Flfnt/OzH3Zf7b4fqehTGCd+Ii5UMg2DVPgn5SfBZPhip+h6vdyL+1EwTf5p/M7LvUFw9/Vu4zFmsVRLBIPTRl+n81l6/n4wUdGVPG6IbFBOG4Mgno79+Ukw0e/D2b0eh/2P3zfMfKno4hREMp+mx+tx2bv17/zFp4VH6pa9pOduKE6X7+KZqPuLu2Gz8fenjC2xr19tk/6xcSatvNDl8r9vifrCys/0HlXZzd4B1tfLj37j08Ltb+19UwVKHptSl01pn02px6Z0wKZ0yKZ0xKZ0zKa09vJNohRflku+NJd8eS75El3yZbrkS3XJl+uSL9klX7Z7fNnuMa7pfNnu8WW755jtT42XLCtgpAYOQgVj5SZUMFJuQgXj5CZUsCa4CRWsCG5CBeuBm1DBauAmVLAWuAkVFT5HJbbcLip7jkps2V1U9ByV2PK7qOQ5KrFleFHBc1Riy/GicueoxLd+s+V4Ua1zVHLJ8SfGF5ZlTntjOCgVDJOjUsEwOSoVDJOjUsFS4KhUsBQ4KhUsBY5KBUuBo1LBUuCoVFTvXKX4sryo4rlK8eV5Uc1zleLL9KKq5yrFl+tFdc9Vii/biyqfqxTjms6X7UXFz1VqY7bjZfR4GX0uZHEYXkb/pOFl9DZYeBk9XkZfpuFl9LrhZfR4GX3W8DL64m/iZfSbBXTDy+i3452NwAEOcIADHOAABzjAAQ5wgLP1OM/sVY6gAQ1oQAMa0IAGNKABDWhAsz00z+udjcABDnCAAxzgAAc4wAEOcIDzrHC+oTnbq34S3AXJ/Bd1p8ai+W/Ysz1He7b8Im2FE5vXef5ObCljXU5snXanx2LERhLqcgntcwn1uIQOuIQOuYSOuISOuYTWnsunKbHltmRLbsmW3ZItvSVbfku2BJdsGS7ZUlyy5bjHluMe3/rNluMeW457bjlu77i2rlXecI2iYx6l8nZrFB3zKlDebI2iY14BylutUXTMs59gtEYS4srogvJGcFkjCXEldUFtI1iskYS48rqgsBH81UgrI1dmF1Q1grkaSYgrswtKWnlntXUdgrEaScg8RARbNZKQefITTNVIQubJT7BUIwmZJz/FUI2mxJbbBZWN4qZGU2JL74LiRrFSoymxZXhBfaP4qNHWSrYcLyhxFBM1mhJbjhdUOTiowUENDmpPCOGgphsc1OCgBge1ggYHNTioOZ0VHNTW4jt8Hw5qqw0Oao+tghu2npnRAHCAAxzgAAc4wAEOcIADHOBsPc4z8x8ADWhAAxrQgAY0oAENaEADmu2h+cv4HgAHOMABDnCAAxzgAAc4wAFO+XjfwEENhmnPyjDtoj9Sg1k6yvpxqFglQna2wzZNboFtmqzNNu0geyi0rMUNl1CXS2ifS6jHJXTAJXTIJXTEJXTMJbT29D1NiS23JVtyS7bslmzpLdnyW7IluGTLcMmW4pItxz22HPf41m+2HPfYctxzy3F727R1rfK2aRQd8yiVt02j6JhXgfK2aRQd8wpQ3jaNomOe/QTbNJIQV0YXlDeCbRpJiCupC2obwTaNJMSV1wWFjWCbRloZuTK7oKoRbNNIQlyZXVDSytumresQbNNIQuYhItimkYTMk59gm0YSMk9+gm0aScg8+Sm2aTQlttwuqGwU2zSaElt6FxQ3im0aTYktwwvqG8U2jbZWsuV4QYmj2KbRlNhyvKDKwTYNtmmwTXtCCNs03WCbBts02KYVNNimwTbN6axgm7YW3+H7sE1bbbBNe2wV3KX1zNwFgAMc4AAHOMABDnCAAxzgAGfrcZ6Z6QBoQAMa0IAGNKABDWhAAxrQbA/NX8bsADjAAQ5wgAMc4AAHOMABDnDKx4NtWt5gm/Zomya3wzbN2wLbNK8227RO22NxTaPodJl09pl0ekw6B0w6h0w6R0w6x0w6aw/dk4S4MlpypbTkymnJldSSK6slV1pLrryWXIktuTLb48psj22t5spsjyuzPafMtrdHW5Mq745GkDGOUHlvNIKMcd6Xd0YjyBjnfHlfNIKMcb4TXNEoOkx5bC5jBEs0ig5TKptrGMEPjaLDlM3mAkYwQ6Osg0z5bK5eBCc0ig5TPptLV3kbtDUZggsaRcc4PAQPNIqOcboTHNAoOsbpTvA/o+gYpzvF/YwkxJXR5gpGsT4jCXEltbmIUXzPSEJceW2uYxTTM9LKyJXZ5lJGcTwjCXFltrmawe4MdmewO3tCCLsz3WB3Brsz2J0VNNidwe7M6axgd7YW3+H7sDtbbbA7e2wV3F31zFwBgAMc4AAHOMABDnCAAxzgAGfrcZ6ZWQBoQAMa0IAGNKABDWhAAxrQbA/NX8akADjAAQ5wgAMc4AAHOMABDnDKx4PdWd5gd/Zod+Zth91Zdwvszro12p11ekx+ZwShLpfQPpdQj0vogEvokEvoiEvomEvoi8ftKUpsuS3ZkluyZbdkS2/Jlt+SLcElW4ZLthSXbDnuseW4x7d+s+W4x5bjnluOu9igrWpRfNDK65hHieKEVl7HvApQvNDK65hXAIobWnkd8+wn+aERhLgyuqC8kSzRCEJcSV1Q20iuaAQhrrwuKGwkYzTCysiV2QVVjeSNRhDiyuyCkkaxR1vVIfmjEYTMQ0RySCMImSc/ySONIGSe/CSXNIKQefLTfNIoSmy5XVDZaFZpFCW29C4objS3NIoSW4YX1DeaYRplrWTL8YISR/NMoyix5XhBlYNtGmzTYJv2hBC2abrBNg22abBNK2iwTYNtmtNZwTZtLb7D92Gbttpgm/bYKrhL65m5CwAHOMABDnCAAxzgAAc4wAHO1uM8M9MB0IAGNKABDWhAAxrQgAY0oNkemr+M2QFwgAMc4AAHOMABDnCAAxzglI8H27S8wTbt0Tatux22aftbYJu2X5tt2kH2UGhZixsuoS6X0D6XUI9L6IBL6JBL6IhL6JhLaO3pe5oSW25LtuSWbNkt2dJbsuW3ZEtwyZbhki3FJVuOe2w57vGt32w57rHluOeW4/a2aeta5W3TKDrmUSpvm0bRMa8C5W3TKDrmFaC8bRpFxzz7CbZpJCGujC4obwTbNJIQV1IX1DaCbRpJiCuvCwobwTaNtDJyZXZBVSPYppGEuDK7oKSVt01b1yHYppGEzENEsE0jCZknP8E2jSRknvwE2zSSkHnyU2zTaEpsuV1Q2Si2aTQltvQuKG4U2zSaEluGF9Q3im0aba1ky/GCEkexTaMpseV4QZWDbRps02Cb9oQQtmm6wTYNtmmwTStosE2DbZrTWcE2bS2+w/dhm7baYJv22Cq4S+uZuQsABzjAAQ5wgAMc4AAHOMABztbjPDPTAdCABjSgAQ1oQAMa0IAGNKDZHpq/jNkBcIADHOAABzjAAQ5wgAMc4JSPB9u0vME27dE2bX87bNN6W2Cb1qvNNq3T9lhc0yg6XSadfSadHpPOAZPOIZPOEZPOMZPO2kP3JCGujJZcKS25clpyJbXkymrJldaSK68lV2JLrsz2uDLbY1uruTLb48pszymz7e3R1qTKu6MRZIwjVN4bjSBjnPflndEIMsY5X94XjSBjnO8EVzSKDlMem8sYwRKNosOUyuYaRvBDo+gwZbO5gBHM0CjrIFM+m6sXwQmNosOUz+bSVd4GbU2G4IJG0TEOD8EDjaJjnO4EBzSKjnG6E/zPKDrG6U5xPyMJcWW0uYJRrM9IQlxJbS5iFN8zkhBXXpvrGMX0jLQycmW2uZRRHM9IQlyZba5msDuD3Rnszp4Qwu5MN9idwe4MdmcFDXZnsDtzOivYna3Fd/g+7M5WG+zOHlsFd1c9M1cA4AAHOMABDnCAAxzgAAc4wNl6nGdmFgAa0IAGNKABDWhAAxrQgAY020PzlzEpAA5wgAMc4AAHOMABDnCAA5zy8WB3ljfYnT3anfW2w+7sYAvszg5qtDvr9Jj8zghCXS6hfS6hHpfQAZfQIZfQEZfQMZfQF4/bU5TYcluyJbdky27Jlt6SLb8lW4JLtgyXbCku2XLcY8txj2/9Zstxjy3HPbccd7FBW9Wi+KCV1zGPEsUJrbyOeRWgeKGV1zGvABQ3tPI65tlP8kMjCHFldEF5I1miEYS4krqgtpFc0QhCXHldUNhIxmiElZErswuqGskbjSDEldkFJY1ij7aqQ/JHIwiZh4jkkEYQMk9+kkcaQcg8+UkuaQQh8+Sn+aRRlNhyu6Cy0azSKEps6V1Q3GhuaRQltgwvqG80wzTKWsmW4wUljuaZRlFiy/GCKgfbNNimwTbtCSFs03SDbRps02CbVtBgmwbbNKezgm3aWnyH78M2bbXBNu2xVXCX1jNzFwAOcIADHOAABzjAAQ5wgAOcrcd5ZqYDoAENaEADGtCABjSgAQ1oQLM9NH8ZswPgAAc4wAEOcIADHOAABzjAKR8Ptml5g23ao23awXbYph1ugW3aYW22aQfZQ6FlLW64hLpcQvtcQj0uoQMuoUMuoSMuoWMuobWn72lKbLkt2ZJbsmW3ZEtvyZbfki3BJVuGS7YUl2w57rHluMe3frPluMeW455bjtvbpq1rlbdNo+iYR6m8bRpFx7wKlLdNo+iYV4DytmkUHfPsJ9imkYS4MrqgvBFs00hCXEldUNsItmkkIa68LihsBNs00srIldkFVY1gm0YS4srsgpJW3jZtXYdgm0YSMg8RwTaNJGSe/ATbNJKQefITbNNIQubJT7FNoymx5XZBZaPYptGU2NK7oLhRbNNoSmwZXlDfKLZptLWSLccLShzFNo2mxJbjBVUOtmmwTYNt2hNC2KbpBts02KbBNq2gwTYNtmlOZwXbtLX4Dt+Hbdpqg23aY6vgLq1n5i4AHOAABzjAAQ5wgAMc4AAHOFuP88xMB0ADGtCABjSgAQ1oQAMa0IBme2j+MmYHwAEOcIADHOAABzjAAQ5wgFM+HmzT8gbbtEfbtMPtsE072gLbtKPabNM6bY/FNY2i02XS2WfS6THpHDDpHDLpHDHpHDPprD10TxLiymjJldKSK6clV1JLrqyWXGktufJaciW25MpsjyuzPba1miuzPa7M9pwy294ebU2qvDsaQcY4QuW90Qgyxnlf3hmNIGOc8+V90QgyxvlOcEWj6DDlsbmMESzRKDpMqWyuYQQ/NIoOUzabCxjBDI2yDjLls7l6EZzQKDpM+WwuXeVt0NZkCC5oFB3j8BA80Cg6xulOcECj6BinO8H/jKJjnO4U9zOSEFdGmysYxfqMJMSV1OYiRvE9Iwlx5bW5jlFMz0grI1dmm0sZxfGMJMSV2eZqBrsz2J3B7uwJIezOdIPdGezOYHdW0GB3Brszp7OC3dlafIfvw+5stcHu7LFVcHfVM3MFAA5wgAMc4AAHOMABDnCAA5ytx3lmZgGgAQ1oQAMa0IAGNKABDWhAsz00fxmTAuAABzjAAQ5wgAMc4AAHOMApHw92Z3mD3dnS7qy7HW5nx1vgdnZco9tZp8dkd0YQ6nIJ7XMJ9biEDriEDrmEjriEjrmEvnjanqLEltuSLbklW3ZLtvSWbPkt2RJcsmW4ZEtxyZbjHluOe3zrN1uOe2w57rnluIsL2qoWxQatvI55lChGaOV1zKsAxQqtvI55BaCYoZXXMc9+kh0aQYgrowvKG8kRjSDEldQFtY1kikYQ4srrgsJG8kUjrIxcmV1Q1UjWaAQhrswuKGkUd7RVHZI9GkHIPEQkgzSCkHnykyzSCELmyU8ySSMImSc/zSaNosSW2wWVjeaURlFiS++C4kYzS6MosWV4QX2j+aVR1kq2HC8ocTTLNIoSW44XVDm4psE1Da5pTwjhmqYbXNPgmgbXtIIG1zS4pjmdFVzT1uI7fB+uaasNrmmPrYKbtJ6ZuQBwgAMc4AAHOMABDnCAAxzgbD3OM/McAA1oQAMa0IAGNKABDWhAA5rtofnLeB0ABzjAAQ5wgAMc4AAHOMABTvl4cE3LG1zTlq5p+1vhmtbtPH/XtJSxLte0g+yZ0LION1xCXS6hfS6hHpfQAZfQIZfQEZfQMZfQ2sP3NCW23JZsyS3Zsluypbdky2/JluCSLcMlW4pLthz32HLc41u/2XLcY8txzy3H7V3T1rXKu6ZRdMyjVN41jaJjXgXKu6ZRdMwrQHnXNIqOefYTXNNIQlwZXVDeCK5pJCGupC6obQTXNJIQV14XFDaCaxppZeTK7IKqRnBNIwlxZXZBSSvvmrauQ3BNIwmZh4jgmkYSMk9+gmsaScg8+QmuaSQh8+SnuKbRlNhyu6CyUVzTaEps6V1Q3CiuaTQltgwvqG8U1zTaWsmW4wUljuKaRlNiy/GCKgfXNLimwTXtCSFc03SDaxpc0+CaVtDgmgbXNKezgmvaWnyH78M1bbXBNe2xVXCT1jMzFwAOcIADHOAABzjAAQ5wgAOcrcd5Zp4DoAENaEADGtCABjSgAQ1oQLM9NH8ZrwPgAAc4wAEOcIADHOAABzjAKR8Prml5g2va0jWttx2uaXILXNNkba5pnbbHYppG0eky6ewz6fSYdA6YdA6ZdI6YdI6ZdNaeuScJcWW05EppyZXTkiupJVdWS660llx5LbkSW3JltseV2R7bWs2V2R5XZntOmW3vjrYmVd4cjSBjHKHy1mgEGeO8L2+MRpAxzvnytmgEGeN8J5iiUXSY8thcxgiOaBQdplQ21zCCHRpFhymbzQWM4IVGWQeZ8tlcvQhGaBQdpnw2l67yLmhrMgQTNIqOcXgIFmgUHeN0JxigUXSM051gf0bRMU53ivkZSYgro80VjOJ8RhLiSmpzEaPYnpGEuPLaXMconmeklZErs82ljGJ4RhLiymxzNYPbGdzO4Hb2hBBuZ7rB7QxuZ3A7K2hwO4PbmdNZwe1sLb7D9+F2ttrgdvbYKri56pmZAgAHOMABDnCAAxzgAAc4wAHO1uM8M68A0IAGNKABDWhAAxrQgAY0oNkemr+MRwFwgAMc4AAHOMABDnCAAxzglI8Ht7O8we1s6XZ2sB1uZ94WuJ15NbqddXpMdmcEoS6X0D6XUI9L6IBL6JBL6IhL6JhL6Iun7SlKbLkt2ZJbsmW3ZEtvyZbfki3BJVuGS7YUl2w57rHluMe3frPluMeW455bjru4oK1qUWzQyuuYR4lihFZex7wKUKzQyuuYVwCKGVp5HfPsJ9mhEYS4MrqgvJEc0QhCXEldUNtIpmgEIa68LihsJF80wsrIldkFVY1kjUYQ4srsgpJGcUdb1SHZoxGEzENEMkgjCJknP8kijSBknvwkkzSCkHny02zSKEpsuV1Q2WhOaRQltvQuKG40szSKEluGF9Q3ml8aZa1ky/GCEkezTKMoseV4QZWDaxpc0+Ca9oQQrmm6wTUNrmlwTStocE2Da5rTWcE1bS2+w/fhmrba4Jr22Cq4SeuZmQsABzjAAQ5wgAMc4AAHOMABztbjPDPPAdCABjSgAQ1oQAMa0IAGNKDZHpq/jNcBcIADHOAABzjAAQ5wgAMc4JSPB9e0vME1bemadrgdrmndLXBN69bmmnaQPRNa1uGGS6jLJbTPJdTjEjrgEjrkEjriEjrmElp7+J6mxJbbki25JVt2S7b0lmz5LdkSXLJluGRLccmW4x5bjnt86zdbjntsOe655bi9a9q6VnnXNIqOeZTKu6ZRdMyrQHnXNIqOeQUo75pG0THPfoJrGkmIK6MLyhvBNY0kxJXUBbWN4JpGEuLK64LCRnBNI62MXJldUNUIrmkkIa7MLihp5V3T1nUIrmkkIfMQEVzTSELmyU9wTSMJmSc/wTWNJGSe/BTXNJoSW24XVDaKaxpNiS29C4obxTWNpsSW4QX1jeKaRlsr2XK8oMRRXNNoSmw5XlDl4JoG1zS4pj0hhGuabnBNg2saXNMKGlzT4JrmdFZwTVuL7/B9uKatNrimPbYKbtJ6ZuYCwAEOcIADHOAABzjAAQ5wgLP1OM/McwA0oAENaEADGtCABjSgAQ1otofmL+N1ABzgAAc4wAEOcIADHOAABzjl48E1LW9wTVu6ph1th2va/ha4pu3X5prWaXsspmkUnS6Tzj6TTo9J54BJ55BJ54hJ55hJZ+2Ze5IQV0ZLrpSWXDktuZJacmW15EpryZXXkiuxJVdme1yZ7bGt1VyZ7XFltueU2fbuaGtS5c3RCDLGESpvjUaQMc778sZoBBnjnC9vi0aQMc53gikaRYcpj81ljOCIRtFhSmVzDSPYoVF0mLLZXMAIXmiUdZApn83Vi2CERtFhymdz6SrvgrYmQzBBo+gYh4dggUbRMU53ggEaRcc43Qn2ZxQd43SnmJ+RhLgy2lzBKM5nJCGupDYXMYrtGUmIK6/NdYzieUZaGbky21zKKIZnJCGuzDZXM7idwe0MbmdPCOF2phvczuB2Brezgga3M7idOZ0V3M7W4jt8H25nqw1uZ4+tgpurnpkpAHCAAxzgAAc4wAEOcIADHOBsPc4z8woADWhAAxrQgAY0oAENaEADmu2h+ct4FAAHOMABDnCAAxzgAAc4wAFO+XhwO8sb3M6WbmfH2+F21tsCt7NebW5ncr/T7qw0uc9ifsYo261Gdr8a2V41sgfVyB5WI3tUjexxNbJrz/pz6lY0z2RFE01WNNNkRVNNVjTXZEWTTVY022RF001WNN+8iuabV1Vdq2i+eRXNN48y3+xd5YqUy5vM8anajm55Czo+VduVrLxBHZ+q7SpW3r6OT9V2BSOY2zHKVjO7rLcLBCc8RtlqJpj1XoFgm8coW80cs94oEDz2GKtCNbPMepdAMORjlK1mlllvEcq79xWpEsz8GGVth5Zg9ccoa7uAEYwAGWVtFzCCTSCjrO0CRjER5NStaJ5Z7xQojoOcuhVNNevNAsWekFO3otlmvV+geBly1omK5pv1loFifMipW9F8s941wCURLolwSXxCCJdE3eCSCJdEuCQWNLgkwiXR6azgkrgW3+H7cElcbXBJfGwV3JT5zMxEgAMc4AAHOMABDnCAAxzgAGfrcZ6ZxwhoQAMa0IAGNKABDWhAAxrQbA/NX8bbBDjAAQ5wgAMc4AAHOMABDnDKx/sGLonv1aepivxkFinRfLMD08TnZZqoorugr8S/fZ15v4ThVOgLpu9z3u+82Q4DxYMtMFA8qM9AUf+9rFMTk06XSWefSafHpHPApHPIpHPEpHPMpLNuMEAR4spoyZXSkiunJVdSS66sllxpLbnyWnIltuTKbI8rsz22tZorsz2uzPacMtvB2G9ViuDkV17GOEIEr77yMsZ5T3DjKy9jnPMEv73yMsb5TnHUI+gw5bG5jFFM8gg6TKlsrmEU3zuCDlM2mwsYxcqOsA4y5bO5elHc6Qg6TPlsLl0Ew7lVGYrDHEHHODwUDzmCjnG6U1ziCDrG6U7xgSPoGKc7yemNIsSV0eYKRjJvowhxJbW5iJH82ChCXHltrmMkizXKysiV2eZSRnJNowhxZba5mj0R+j0KwihI5kKKXdG8mE12tCXVwe7/9Se7Hbmb/f216u92panMddb+offq1f7+8TFDCK/6EN3qQ+xXH6JXfYiD6kMcVh/iqPoQx9WHWKvsVcWoYX7LGia4rGGGyxqmuKxhjssaJrmsYZbLGqa5rGGeezXMc6+OOl7DPPdqmOdeuXnuZTH8xBSjY7et6nY97+iAIYT5arCFMF8MthDma8EWwrzksoUwr7hsIcwLLlsI83rLFsK83LKFKNhW8cWoYX4XbKv4YtQwwwu2VXwxapjjBdsqvhg1zPKCbRVfjBrmecG2ii9GHXW8hnlesK3ii1Funnd1jDdRYIjhHdttq6Q8POx2GUKYrwZbCPPFYAthvhZsIcxLLlsI84rLFsK84LKFMK+3bCHM90axhSi4IZAvhvmOKr4Y5put+GKY78Pii2G+RYsvhvm+RL4Y5lsW+WKY72bki2G+0ZEvRg3zvGBbxRejjjpeQyEv2FbxxShXyvd1jPejmSnGkd226jhtvR8YQpivBlsI88VgC2G+FmwhzNsqthDmbRVbCPO2ii2EeVvFFsK83LKFKNhW8cUwb6v4Ypi3VXwxzNsqvhjmbRVfDPO2ii+GeVvFF8O8reKLYd5W8cWoYZ4XbKv4YtRRx2so5AXbKr4Y5Up5T8f4txqYYhzabatevz47OzxkCGG+GmwhzBeDLYT5WrCFMG+r2EKYt1VsIczbKrYQ5m0VWwjzcssWomBbxRfDvK3ii2HeVvHFMG+r+GKYt1V8MczbKr4Y5m0VXwzztoovhnlbxRejhnlesK3ii1FHHa+hkBdsq/hilCvlB9nWbaZMMQ7stlVnZwcHLCHMV4MthPlisIUwXwu2EOZtFVsI87aKLYR5W8UWwrytYgthXm7ZQhRsq/himLdVfDHM2yq+GOZtFV8M87aKL4Z5W8UXw7yt4oth3lbxxTBvq/hi1DDPC7ZVfDHqqOM1FPKCbRVfjHKl/FDH+DU03Rbv9ey2VUdHntfrMYQwXw22EOaLwRbCfC3YQpi3VWwhzNsqthDmbRVbCPO2ii1Eke8UU4hCszWuGEVuVVwxioysuGIUeVxxxSiyv+KKUeT5xhWjyA6OK0aRUxxXjCITOa4YNczzgm0VX4w66ngNhbxgW8UXY3Mp/2Dj8Jp7MotTMVH3SwPZzDe2Gd8NW5kD7Ear2KWxc6ySH8LZZBA3e52WkLLXEl39N69nZzf7kGI8mlIPBmd+ooZhNH/1EMQLW+TH87dwj04F3kYDFb2baZdi6wM1x3yd41flx7NILTC00XI+7hXbc6Mb3ehGN7rRjW50oxvd6EY3utGNbnSjG93oRje60Y1udKMb3ehGN7rRjW50oxvd6EY3utGNbnSjG93oRje60Y1udKMb3ehGN7rRjW50o/t/Vfe8Hd6pKAoG6ldfP1gr2x3i86r60dh4/dHYCxUFKs4fr220lg8QT8dh0h4HE7XxEdn4a8/pbn6yNm5nr56fhmM/CcJJCtWIEzXdvVY3YaQadk8+/6KGajJYP6HFZ82DTkt09ZPLHf0gs/6jMVY3iQbbIL2UbV8NVXI+SfT4pCFuZpN+RtrcEX9ukFgSqsejLzc+y61bcCOaySiI23F2VewC6bZyUDsdv3O/P2r+F9hVbYmvHx1P2XPdq2kYB1rwdfqxzdksm5b5ClUU3rshLbGCyUDp+bArW45HL9tt2QNvAjXW+dbMx3QxT4ZROJuqgfjuO/G3/POH9tXIj/Pn3/UE21ntnX+1Nx2Qtj8cvtEx2mM1GSYj8VJ44l+i8Wo8boiT9W/E46Cvmrty57LzYWfjfHtyJmEkmrfpqXS+F7dpmDxV87j6s3+kK477BdJNp3Gud3n7of1RzcXp6eli8MopZqr5Zb91PdVlu46U/7HMwZ8dj3H9vh6v/OxOdVrrZMgzJTNyaF/5cRwMJ2pwpi0i4stsJD+UG8rlhZ7O4lGz7LVIL+nJ4nqWn0nj8YnNWbb1N8tGiZMo/Kjs4iy+WzZSOPX7QTK3C5V/ufRZZSGWocqqLBeS9WWlzPRwXnx0W07n9YVH7ArpquYy3exZP7eyqmr1/c+b9hS67e2J3/94L/7z9o934uLtu/c///aj+OXtjz+fiZ/O353bCbxJV2314OstmkhCEYdRIiazT2ke9EVmaRILP+6nm5dgMrRQXI691lmpzH5LXNsvLpFKZtFETP0oVm/GoZ80fb3k76SXcuWz6+wzq8HcvEVbCZufwibhz9U6vTzuP7Ppnk325ouBuvFn40RMozBdw9SLlnjx96Ojs7Pz8xcVG88ABzjAAQ5wgAMc4AAHOMABzv9OHBHPPqX/BBYDpT8UA3+uiSI1AA1oQAMa0IAGNKABDWhAAxrQFNPcZ7dmfUFzPZ4p4AAHOMABDnCAAxzgAAc4wAFOGZzH9wZK/d7Ai5npvYFdmf2G7dWr/f3jY5CCFKQgBSlIQQpSkIIUpCAFKUhBuh2kXkbqJybSTkba7Xre0QFIQQpSkIIUpCAFKUhBClKQghSkIN0O0q4mfRMFBlLvOCOV8vCw2wUpSEEKUpCCFKQgBSlIQQpSkIIUpNtBuq9J349mJtKjjPQ4bb0fQApSkIIUpCAFKUhBClKQghSkIAXpdpD2NOm/1cBEepiRvn59dnZ4CFKQghSkIAUpSEEKUpCCFKQgBSlIt4P0IPvJxEyZSA8y0rOzgwOQghSkIAUpSEEKUpCCFKQgBSlIQbotpIea9NfQ5Czo9TLSoyPP6/VAClKQghSkIAUpSEEKUpCCFKQgBWltpEuUQeTfNzeKPbSTIBmri5E/Ve1EPSTNFz+FsyjejDF/euTr4JOaxEE4Gas4U9ggsbcnXg0GwheZkrgPkpGIw09KDLobjozvhm1/OlWTQbOhYzd2NhywbG0/SaJm46HREgcdx4Pm6UGe/UFxMh+rBd6uP+mPwig9vjFWNw60ucZNOEl271UwHCVa4zocD+w1FtfmYrr7u4rSC5So6Op/fruS4mIe73bFm3G0m/69P9p9JX76fdz/lOzG4Sy9EP/zm/jt/OwH/bVEfRJd8fvF/4i3/b7+7oudokv7ci/uR8E0+afxOy/3BsHd17uNx5jFUi0RDE4bfZ33Z+lQ+cEkPcnuYUNk43faGATxdOzPT4LJOO3avR6H/Y/fN8x8qejiFEQyn6bH6yHcu/Xv/MWnhUfqdudHOkXFqRgEn6Zj1Z6o+4u7YbPx96eMLbHf6WR/bJxyWnbgJ36qe/lnY+xfq3HjpDFQN/5snIhpFN4EY9VoLXquHhonst1pNe788Uw1Tg6O28cr7ei41ejrdSpVSJees7Pz88bnlpWqV4lqtxLV/UpUe5WoHlSieliJ6lElqseVqMpONbLVzC5ZzfSS1cwvWc0Ek9XMMFnNFJPVzDFZzSST1cwyr5pZ5lVUw6qZZV41s8wjzDIRzz59Wnv1d4kdQqQGDqKWY+smajmybqKW4+omarl2uYlarlxuopbrlpuo5arlJmq5ZrmJ2m4MHFUrmVO22wJH1Upmle2mwFG1knlluyVwVK1kZtluCBxVK5lbttsBR9Vq6lUlc8t2L+CoWnZu3QeThLoNuNZfsFe1HFZHVcthdVS1HFZHVcsly1HVcslyVLVcshxVLZcsR1XLJctR1XY/4Cpbzeyy3RG4ylYzv2z3BK6y1cww212Bq2w1c8x2X+AqW80ss90ZuMpWVMOqmWW2mwNXWadZ9sHmFw757xPFqZio++XvM7JfYzTju2Er+4XExt9cLH8pGavkh3A2GcTNXqclpOy1RFf/zevZ/fbjIcV4/F3rYHDmJ2oYRvNXD0G8+KXe41BY/OYzFXgbDVT0bqZ/x2Z9oOaYr3P8qvx4FqkFhv41YX4JqL/LzX6PtB7qQkWBinPcNFJ+QabjMGnrX25tDBl/7bw3k8btLO+m4dhPgnCSQjXiRE13r9VNGKmGXSb9ooZqMlg/ocVnzYM0C7o6E/Qvw6T+I/9V6cbfIi9l21dDlZxPEj0+aYib2aSfkTZ3xJ8WvyvVhOrx6MuNc0O34EY0k1EQp3mtj7MLpNvKQe10/M79/qj5X2BXtSV+/rvBXPdqGsaBFnydfmxzNsumZb5CFYX3bkhLrGAyUHri7sqW49HLdlv2wJtAjXW+NfMxXcyTYRTOpmogvvtO/C3//KF9NfLjfD3RE2xntXf+1d50QNr+cPhGx2iP1WSYjMRL4Yl/icar8bghTta/EY+Dvmruyp3LzoedjfPtyZmEkWjepqfS+V7cpmHyVM3j6s/+cSqk+wXSTadxrnd5+6H9UaXL2+npYvDKKWaq+WW/dT3VZbuOlP+xzMGfHY9x/b4er/zsTnVa62TIMyUrjO2rxX1AapDdCRRfZiP5odxQLi/0dBaPmmWvRXpJTxbXs/xMGo9PbM6yrb9ZNkqcROFHZRdn8d2ykcKp3w+SuV2o/MulzyoLsQxVVmW5kKwvK2Wmh/Pio9tyOq8vPGJXSFc1l+lmz/q5lVVVq+9/3rSn0G1vT/z+x3vxn7d/vBMXb9+9//m3H8Uvb3/8+Uz8dP7u3E7gTbpqqwdfb9FEEoo4TDfSk9mnNA/6ItsixsKP++nmJZgMLRSXY691Viqz3xLX9otLpJJZNBFTP4rVm3HoJ01fL/k76aVc+ew6+8xqMDdv0VbC5qewSfjzN7hf84tfwOY3ZepfqH6T20eBAxzgAAc4wAEOcIADHOAAZ+txnt7gookiNQANaEADGtCABjSgAQ1oQAMa0BTTPLklUNPoW/yAAxzgAAc4wAEOcIADHOAABzjf0CXxvfo0VZGfzCIlmm924JP4rHwS/+3rjPtJZf959ek6UJNE6EumfQ/VYJaO/6447LzZDgvEoy2wQDyqzQIxe/C0rAUTk06XSWefSafHpHPApHPIpHPEpHPMpLPmLUAS4spoyZXSkiunJVdSS66sllxpLbnyWnIltuTKbI8rsz22tZorsz2uzPacMtvesm9NqrxJH0HGOELljfgIMsZ5X95sjyBjnPPlDfUIMsb5TjDNo+gw5bG5jBGs8Cg6TKlsrmEEgzuKDlM2mwsYwbaOsg4y5bO5ehHM6Cg6TPlsLl3lLebWZAimchQd4/AQjOMoOsbpTjCHo+gYpzvBAI6iY5zuFJM3khBXRpsrGMW6jSTEldTmIkYxZCMJceW1uY5RbNZIKyNXZptLGcU8jSTEldnmagZLtK2wREM3utGNbnSjG93oRje60Y1udKMb3ehG93PqnrfDOxVFwUD96usfVMl2B5b4K2cCS/zHBkt8pwZLfFjiOzRY4n/ZYIn/ZYMlvmODJT4s8b/aYIkPHOAABzjAAQ5wgAMc4AAHOMDZBkNJ0IAGNKABDWhAAxrQgAY0oNkemr+MkSVwgAMc4AAHOMABDnCAAxzglI/3DSzxXwef1CQOwslYxTEM8Z+XIX4YfRTnNzdBP1CT/vzRBr9eA/z821/0rP7/8u+L/z6q5395/M91OJjr/46ST+N//p//H2uXSuk="
               },
               {
                  "name" : "annual_peak_electric_demand",
                  "units" : "kW",
                  "value" : 39.050720000000005
               },
               {
                  "name" : "first_year_capital_cost",
                  "units" : "$",
                  "value" : 0
               },
               {
                  "name" : "annual_utility_cost",
                  "units" : "$",
                  "value" : 8294.4300000000003
               },
               {
                  "name" : "total_lifecycle_cost",
                  "units" : "$",
                  "value" : 138868.70000000001
               }
            ],
            "step_warnings" : [ "A table in Annual Overview section returned false and was skipped." ]
         }
      }
   ],
   "updated_at" : "20170710T190549Z",
   "weather_file" : "USA_CO_Denver.Intl.AP.725650_TMY3.epw"
}
