{
   "completed_at" : "20170710T192802Z",
   "completed_status" : "Success",
   "created_at" : "2017-07-10 19:03:33 +0000",
   "current_step" : 5,
   "description" : "",
   "eplusout_err" : "Program Version,EnergyPlus, Version 8.7.0-78a111df4a, YMD=2017.07.10 19:14,IDD_Version 8.7.0\n   ************* IDF Context for following error/warning message:\n   ************* Note -- lines truncated at 300 characters, if necessary...\n   *************      5 Building,\n   ************* indicated Name=NECB 2011-Hospital-NECB HDD Method-CAN_AB_Lethbridge.712430_CWEC.epw created: 2017-07-10 19:03:42 +0000\n   ************* Only last 1 lines before error line shown.....\n   *************      6   NECB 2011-Hospital-NECB HDD Method-CAN_AB_Lethbridge.712430_CWEC.epw created: 2017-07-10 19:03:42 +0000, !- Name\n   ** Warning ** IP: IDF line~6 Alpha Argument length exceeds maximum, will be truncated=  NECB 2011-Hospital-NECB HDD Method-CAN_AB_Lethbridge.712430_CWEC.epw created: 2017-07-10 19:03:42 +000\n   **   ~~~   ** Will be processed as Alpha=NECB 2011-HOSPITAL-NECB HDD METHOD-CAN_AB_LETHBRIDGE.712430_CWEC.EPW CREATED: 2017-07-10 19:03:42 +0000\n   ************* IDF Context for following error/warning message:\n   ************* Note -- lines truncated at 300 characters, if necessary...\n   *************   5098 Schedule:Week:Daily,\n   ************* indicated Name=Schedule:Week:Daily {74ef3fd4-1f43-4fb7-a34e-4f813edf97db}\n   ************* Only last 10 lines before error line shown.....\n   *************   5099   Schedule:Week:Daily {74ef3fd4-1f43-4fb7-a34e-4f813edf97db}, !- Name\n   *************   5100   Sp-ER_Exam1_Mult4_Flr_1 Sys-3 Flr-1 Sch-H HPlcmt-south ZN NECB System 3 PSZ Occ Sch Sunday, !- Sunday Schedule:Day Name\n   *************   5101   Sp-ER_Exam1_Mult4_Flr_1 Sys-3 Flr-1 Sch-H HPlcmt-south ZN NECB System 3 PSZ Occ Sch Monday, !- Monday Schedule:Day Name\n   *************   5102   Sp-ER_Exam1_Mult4_Flr_1 Sys-3 Flr-1 Sch-H HPlcmt-south ZN NECB System 3 PSZ Occ Sch Tuesday, !- Tuesday Schedule:Day Name\n   *************   5103   Sp-ER_Exam1_Mult4_Flr_1 Sys-3 Flr-1 Sch-H HPlcmt-south ZN NECB System 3 PSZ Occ Sch Wednesday, !- Wednesday Schedule:Day Name\n   *************   5104   Sp-ER_Exam1_Mult4_Flr_1 Sys-3 Flr-1 Sch-H HPlcmt-south ZN NECB System 3 PSZ Occ Sch Thursday, !- Thursday Schedule:Day Name\n   *************   5105   Sp-ER_Exam1_Mult4_Flr_1 Sys-3 Flr-1 Sch-H HPlcmt-south ZN NECB System 3 PSZ Occ Sch Friday, !- Friday Schedule:Day Name\n   *************   5106   Sp-ER_Exam1_Mult4_Flr_1 Sys-3 Flr-1 Sch-H HPlcmt-south ZN NECB System 3 PSZ Occ Sch Saturday, !- Saturday Schedule:Day Name\n   *************   5107   Sp-ER_Exam1_Mult4_Flr_1 Sys-3 Flr-1 Sch-H HPlcmt-south ZN NECB System 3 PSZ Occ Sch Default, !- Holiday Schedule:Day Name\n   *************   5108   Sp-ER_Exam1_Mult4_Flr_1 Sys-3 Flr-1 Sch-H HPlcmt-south ZN NECB System 3 PSZ Occ Sch Summer Design Day, !- SummerDesignDay Schedule:Day Name\n   ** Warning ** IP: IDF line~5108 Alpha Argument length exceeds maximum, will be truncated=  Sp-ER_Exam1_Mult4_Flr_1 Sys-3 Flr-1 Sch-H HPlcmt-south ZN NECB System 3 PSZ Occ Sch Summer Design Da\n   **   ~~~   ** Will be processed as Alpha=SP-ER_EXAM1_MULT4_FLR_1 SYS-3 FLR-1 SCH-H HPLCMT-SOUTH ZN NECB SYSTEM 3 PSZ OCC SCH SUMMER DESIGN DAY\n   ************* IDF Context for following error/warning message:\n   ************* Note -- lines truncated at 300 characters, if necessary...\n   *************   5098 Schedule:Week:Daily,\n   ************* indicated Name=Schedule:Week:Daily {74ef3fd4-1f43-4fb7-a34e-4f813edf97db}\n   ************* Only last 10 lines before error line shown.....\n   *************   5100   Sp-ER_Exam1_Mult4_Flr_1 Sys-3 Flr-1 Sch-H HPlcmt-south ZN NECB System 3 PSZ Occ Sch Sunday, !- Sunday Schedule:Day Name\n   *************   5101   Sp-ER_Exam1_Mult4_Flr_1 Sys-3 Flr-1 Sch-H HPlcmt-south ZN NECB System 3 PSZ Occ Sch Monday, !- Monday Schedule:Day Name\n   *************   5102   Sp-ER_Exam1_Mult4_Flr_1 Sys-3 Flr-1 Sch-H HPlcmt-south ZN NECB System 3 PSZ Occ Sch Tuesday, !- Tuesday Schedule:Day Name\n   *************   5103   Sp-ER_Exam1_Mult4_Flr_1 Sys-3 Flr-1 Sch-H HPlcmt-south ZN NECB System 3 PSZ Occ Sch Wednesday, !- Wednesday Schedule:Day Name\n   *************   5104   Sp-ER_Exam1_Mult4_Flr_1 Sys-3 Flr-1 Sch-H HPlcmt-south ZN NECB System 3 PSZ Occ Sch Thursday, !- Thursday Schedule:Day Name\n   *************   5105   Sp-ER_Exam1_Mult4_Flr_1 Sys-3 Flr-1 Sch-H HPlcmt-south ZN NECB System 3 PSZ Occ Sch Friday, !- Friday Schedule:Day Name\n   *************   5106   Sp-ER_Exam1_Mult4_Flr_1 Sys-3 Flr-1 Sch-H HPlcmt-south ZN NECB System 3 PSZ Occ Sch Saturday, !- Saturday Schedule:Day Name\n   *************   5107   Sp-ER_Exam1_Mult4_Flr_1 Sys-3 Flr-1 Sch-H HPlcmt-south ZN NECB System 3 PSZ Occ Sch Default, !- Holiday Schedule:Day Name\n   *************   5108   Sp-ER_Exam1_Mult4_Flr_1 Sys-3 Flr-1 Sch-H HPlcmt-south ZN NECB System 3 PSZ Occ Sch Summer Design Day, !- SummerDesignDay Schedule:Day Name\n   *************   5109   Sp-ER_Exam1_Mult4_Flr_1 Sys-3 Flr-1 Sch-H HPlcmt-south ZN NECB System 3 PSZ Occ Sch Winter Design Day, !- WinterDesignDay Schedule:Day Name\n   ** Warning ** IP: IDF line~5109 Alpha Argument length exceeds maximum, will be truncated=  Sp-ER_Exam1_Mult4_Flr_1 Sys-3 Flr-1 Sch-H HPlcmt-south ZN NECB System 3 PSZ Occ Sch Winter Design Da\n   **   ~~~   ** Will be processed as Alpha=SP-ER_EXAM1_MULT4_FLR_1 SYS-3 FLR-1 SCH-H HPLCMT-SOUTH ZN NECB SYSTEM 3 PSZ OCC SCH WINTER DESIGN DAY\n   ************* IDF Context for following error/warning message:\n   ************* Note -- lines truncated at 300 characters, if necessary...\n   *************   5129 Schedule:Day:Interval,\n   ************* indicated Name=Sp-ER_Exam1_Mult4_Flr_1 Sys-3 Flr-1 Sch-H HPlcmt-south ZN NECB System 3 PSZ Occ Sch Summer Design Day\n   ************* Only last 1 lines before error line shown.....\n   *************   5130   Sp-ER_Exam1_Mult4_Flr_1 Sys-3 Flr-1 Sch-H HPlcmt-south ZN NECB System 3 PSZ Occ Sch Summer Design Day, !- Name\n   ** Warning ** IP: IDF line~5130 Alpha Argument length exceeds maximum, will be truncated=  Sp-ER_Exam1_Mult4_Flr_1 Sys-3 Flr-1 Sch-H HPlcmt-south ZN NECB System 3 PSZ Occ Sch Summer Design Da\n   **   ~~~   ** Will be processed as Alpha=SP-ER_EXAM1_MULT4_FLR_1 SYS-3 FLR-1 SCH-H HPLCMT-SOUTH ZN NECB SYSTEM 3 PSZ OCC SCH SUMMER DESIGN DAY\n   ************* IDF Context for following error/warning message:\n   ************* Note -- lines truncated at 300 characters, if necessary...\n   *************   5136 Schedule:Day:Interval,\n   ************* indicated Name=Sp-ER_Exam1_Mult4_Flr_1 Sys-3 Flr-1 Sch-H HPlcmt-south ZN NECB System 3 PSZ Occ Sch Winter Design Day\n   ************* Only last 1 lines before error line shown.....\n   *************   5137   Sp-ER_Exam1_Mult4_Flr_1 Sys-3 Flr-1 Sch-H HPlcmt-south ZN NECB System 3 PSZ Occ Sch Winter Design Day, !- Name\n   ** Warning ** IP: IDF line~5137 Alpha Argument length exceeds maximum, will be truncated=  Sp-ER_Exam1_Mult4_Flr_1 Sys-3 Flr-1 Sch-H HPlcmt-south ZN NECB System 3 PSZ Occ Sch Winter Design Da\n   **   ~~~   ** Will be processed as Alpha=SP-ER_EXAM1_MULT4_FLR_1 SYS-3 FLR-1 SCH-H HPLCMT-SOUTH ZN NECB SYSTEM 3 PSZ OCC SCH WINTER DESIGN DAY\n   ************* IDF Context for following error/warning message:\n   ************* Note -- lines truncated at 300 characters, if necessary...\n   *************   5892 Schedule:Week:Daily,\n   ************* indicated Name=Schedule:Week:Daily {f37d76f6-52b6-4460-9dbf-922cf1deb20b}\n   ************* Only last 10 lines before error line shown.....\n   *************   5893   Schedule:Week:Daily {f37d76f6-52b6-4460-9dbf-922cf1deb20b}, !- Name\n   *************   5894   Sp-ER_NurseStn_Lobby_Flr_1 Sys-3 Flr-1 Sch-H HPlcmt-east ZN NECB System 3 PSZ Occ Sch Sunday, !- Sunday Schedule:Day Name\n   *************   5895   Sp-ER_NurseStn_Lobby_Flr_1 Sys-3 Flr-1 Sch-H HPlcmt-east ZN NECB System 3 PSZ Occ Sch Monday, !- Monday Schedule:Day Name\n   *************   5896   Sp-ER_NurseStn_Lobby_Flr_1 Sys-3 Flr-1 Sch-H HPlcmt-east ZN NECB System 3 PSZ Occ Sch Tuesday, !- Tuesday Schedule:Day Name\n   *************   5897   Sp-ER_NurseStn_Lobby_Flr_1 Sys-3 Flr-1 Sch-H HPlcmt-east ZN NECB System 3 PSZ Occ Sch Wednesday, !- Wednesday Schedule:Day Name\n   *************   5898   Sp-ER_NurseStn_Lobby_Flr_1 Sys-3 Flr-1 Sch-H HPlcmt-east ZN NECB System 3 PSZ Occ Sch Thursday, !- Thursday Schedule:Day Name\n   *************   5899   Sp-ER_NurseStn_Lobby_Flr_1 Sys-3 Flr-1 Sch-H HPlcmt-east ZN NECB System 3 PSZ Occ Sch Friday, !- Friday Schedule:Day Name\n   *************   5900   Sp-ER_NurseStn_Lobby_Flr_1 Sys-3 Flr-1 Sch-H HPlcmt-east ZN NECB System 3 PSZ Occ Sch Saturday, !- Saturday Schedule:Day Name\n   *************   5901   Sp-ER_NurseStn_Lobby_Flr_1 Sys-3 Flr-1 Sch-H HPlcmt-east ZN NECB System 3 PSZ Occ Sch Default, !- Holiday Schedule:Day Name\n   *************   5902   Sp-ER_NurseStn_Lobby_Flr_1 Sys-3 Flr-1 Sch-H HPlcmt-east ZN NECB System 3 PSZ Occ Sch Summer Design Day, !- SummerDesignDay Schedule:Day Name\n   ** Warning ** IP: IDF line~5902 Alpha Argument length exceeds maximum, will be truncated=  Sp-ER_NurseStn_Lobby_Flr_1 Sys-3 Flr-1 Sch-H HPlcmt-east ZN NECB System 3 PSZ Occ Sch Summer Design Da\n   **   ~~~   ** Will be processed as Alpha=SP-ER_NURSESTN_LOBBY_FLR_1 SYS-3 FLR-1 SCH-H HPLCMT-EAST ZN NECB SYSTEM 3 PSZ OCC SCH SUMMER DESIGN DAY\n   ************* IDF Context for following error/warning message:\n   ************* Note -- lines truncated at 300 characters, if necessary...\n   *************   5892 Schedule:Week:Daily,\n   ************* indicated Name=Schedule:Week:Daily {f37d76f6-52b6-4460-9dbf-922cf1deb20b}\n   ************* Only last 10 lines before error line shown.....\n   *************   5894   Sp-ER_NurseStn_Lobby_Flr_1 Sys-3 Flr-1 Sch-H HPlcmt-east ZN NECB System 3 PSZ Occ Sch Sunday, !- Sunday Schedule:Day Name\n   *************   5895   Sp-ER_NurseStn_Lobby_Flr_1 Sys-3 Flr-1 Sch-H HPlcmt-east ZN NECB System 3 PSZ Occ Sch Monday, !- Monday Schedule:Day Name\n   *************   5896   Sp-ER_NurseStn_Lobby_Flr_1 Sys-3 Flr-1 Sch-H HPlcmt-east ZN NECB System 3 PSZ Occ Sch Tuesday, !- Tuesday Schedule:Day Name\n   *************   5897   Sp-ER_NurseStn_Lobby_Flr_1 Sys-3 Flr-1 Sch-H HPlcmt-east ZN NECB System 3 PSZ Occ Sch Wednesday, !- Wednesday Schedule:Day Name\n   *************   5898   Sp-ER_NurseStn_Lobby_Flr_1 Sys-3 Flr-1 Sch-H HPlcmt-east ZN NECB System 3 PSZ Occ Sch Thursday, !- Thursday Schedule:Day Name\n   *************   5899   Sp-ER_NurseStn_Lobby_Flr_1 Sys-3 Flr-1 Sch-H HPlcmt-east ZN NECB System 3 PSZ Occ Sch Friday, !- Friday Schedule:Day Name\n   *************   5900   Sp-ER_NurseStn_Lobby_Flr_1 Sys-3 Flr-1 Sch-H HPlcmt-east ZN NECB System 3 PSZ Occ Sch Saturday, !- Saturday Schedule:Day Name\n   *************   5901   Sp-ER_NurseStn_Lobby_Flr_1 Sys-3 Flr-1 Sch-H HPlcmt-east ZN NECB System 3 PSZ Occ Sch Default, !- Holiday Schedule:Day Name\n   *************   5902   Sp-ER_NurseStn_Lobby_Flr_1 Sys-3 Flr-1 Sch-H HPlcmt-east ZN NECB System 3 PSZ Occ Sch Summer Design Day, !- SummerDesignDay Schedule:Day Name\n   *************   5903   Sp-ER_NurseStn_Lobby_Flr_1 Sys-3 Flr-1 Sch-H HPlcmt-east ZN NECB System 3 PSZ Occ Sch Winter Design Day, !- WinterDesignDay Schedule:Day Name\n   ** Warning ** IP: IDF line~5903 Alpha Argument length exceeds maximum, will be truncated=  Sp-ER_NurseStn_Lobby_Flr_1 Sys-3 Flr-1 Sch-H HPlcmt-east ZN NECB System 3 PSZ Occ Sch Winter Design Da\n   **   ~~~   ** Will be processed as Alpha=SP-ER_NURSESTN_LOBBY_FLR_1 SYS-3 FLR-1 SCH-H HPLCMT-EAST ZN NECB SYSTEM 3 PSZ OCC SCH WINTER DESIGN DAY\n   ************* IDF Context for following error/warning message:\n   ************* Note -- lines truncated at 300 characters, if necessary...\n   *************   5923 Schedule:Day:Interval,\n   ************* indicated Name=Sp-ER_NurseStn_Lobby_Flr_1 Sys-3 Flr-1 Sch-H HPlcmt-east ZN NECB System 3 PSZ Occ Sch Summer Design Day\n   ************* Only last 1 lines before error line shown.....\n   *************   5924   Sp-ER_NurseStn_Lobby_Flr_1 Sys-3 Flr-1 Sch-H HPlcmt-east ZN NECB System 3 PSZ Occ Sch Summer Design Day, !- Name\n   ** Warning ** IP: IDF line~5924 Alpha Argument length exceeds maximum, will be truncated=  Sp-ER_NurseStn_Lobby_Flr_1 Sys-3 Flr-1 Sch-H HPlcmt-east ZN NECB System 3 PSZ Occ Sch Summer Design Da\n   **   ~~~   ** Will be processed as Alpha=SP-ER_NURSESTN_LOBBY_FLR_1 SYS-3 FLR-1 SCH-H HPLCMT-EAST ZN NECB SYSTEM 3 PSZ OCC SCH SUMMER DESIGN DAY\n   ************* IDF Context for following error/warning message:\n   ************* Note -- lines truncated at 300 characters, if necessary...\n   *************   5930 Schedule:Day:Interval,\n   ************* indicated Name=Sp-ER_NurseStn_Lobby_Flr_1 Sys-3 Flr-1 Sch-H HPlcmt-east ZN NECB System 3 PSZ Occ Sch Winter Design Day\n   ************* Only last 1 lines before error line shown.....\n   *************   5931   Sp-ER_NurseStn_Lobby_Flr_1 Sys-3 Flr-1 Sch-H HPlcmt-east ZN NECB System 3 PSZ Occ Sch Winter Design Day, !- Name\n   ** Warning ** IP: IDF line~5931 Alpha Argument length exceeds maximum, will be truncated=  Sp-ER_NurseStn_Lobby_Flr_1 Sys-3 Flr-1 Sch-H HPlcmt-east ZN NECB System 3 PSZ Occ Sch Winter Design Da\n   **   ~~~   ** Will be processed as Alpha=SP-ER_NURSESTN_LOBBY_FLR_1 SYS-3 FLR-1 SCH-H HPLCMT-EAST ZN NECB SYSTEM 3 PSZ OCC SCH WINTER DESIGN DAY\n   ************* IDF Context for following error/warning message:\n   ************* Note -- lines truncated at 300 characters, if necessary...\n   *************   6693 Schedule:Week:Daily,\n   ************* indicated Name=Schedule:Week:Daily {90396c5f-4282-44c1-9a9e-5d8b42e05096}\n   ************* Only last 10 lines before error line shown.....\n   *************   6694   Schedule:Week:Daily {90396c5f-4282-44c1-9a9e-5d8b42e05096}, !- Name\n   *************   6695   Sp-ER_Triage_Mult4_Flr_1 Sys-3 Flr-1 Sch-H HPlcmt-north ZN NECB System 3 PSZ Occ Sch Sunday, !- Sunday Schedule:Day Name\n   *************   6696   Sp-ER_Triage_Mult4_Flr_1 Sys-3 Flr-1 Sch-H HPlcmt-north ZN NECB System 3 PSZ Occ Sch Monday, !- Monday Schedule:Day Name\n   *************   6697   Sp-ER_Triage_Mult4_Flr_1 Sys-3 Flr-1 Sch-H HPlcmt-north ZN NECB System 3 PSZ Occ Sch Tuesday, !- Tuesday Schedule:Day Name\n   *************   6698   Sp-ER_Triage_Mult4_Flr_1 Sys-3 Flr-1 Sch-H HPlcmt-north ZN NECB System 3 PSZ Occ Sch Wednesday, !- Wednesday Schedule:Day Name\n   *************   6699   Sp-ER_Triage_Mult4_Flr_1 Sys-3 Flr-1 Sch-H HPlcmt-north ZN NECB System 3 PSZ Occ Sch Thursday, !- Thursday Schedule:Day Name\n   *************   6700   Sp-ER_Triage_Mult4_Flr_1 Sys-3 Flr-1 Sch-H HPlcmt-north ZN NECB System 3 PSZ Occ Sch Friday, !- Friday Schedule:Day Name\n   *************   6701   Sp-ER_Triage_Mult4_Flr_1 Sys-3 Flr-1 Sch-H HPlcmt-north ZN NECB System 3 PSZ Occ Sch Saturday, !- Saturday Schedule:Day Name\n   *************   6702   Sp-ER_Triage_Mult4_Flr_1 Sys-3 Flr-1 Sch-H HPlcmt-north ZN NECB System 3 PSZ Occ Sch Default, !- Holiday Schedule:Day Name\n   *************   6703   Sp-ER_Triage_Mult4_Flr_1 Sys-3 Flr-1 Sch-H HPlcmt-north ZN NECB System 3 PSZ Occ Sch Summer Design Day, !- SummerDesignDay Schedule:Day Name\n   ** Warning ** IP: IDF line~6703 Alpha Argument length exceeds maximum, will be truncated=  Sp-ER_Triage_Mult4_Flr_1 Sys-3 Flr-1 Sch-H HPlcmt-north ZN NECB System 3 PSZ Occ Sch Summer Design Da\n   **   ~~~   ** Will be processed as Alpha=SP-ER_TRIAGE_MULT4_FLR_1 SYS-3 FLR-1 SCH-H HPLCMT-NORTH ZN NECB SYSTEM 3 PSZ OCC SCH SUMMER DESIGN DAY\n   ************* IDF Context for following error/warning message:\n   ************* Note -- lines truncated at 300 characters, if necessary...\n   *************   6693 Schedule:Week:Daily,\n   ************* indicated Name=Schedule:Week:Daily {90396c5f-4282-44c1-9a9e-5d8b42e05096}\n   ************* Only last 10 lines before error line shown.....\n   *************   6695   Sp-ER_Triage_Mult4_Flr_1 Sys-3 Flr-1 Sch-H HPlcmt-north ZN NECB System 3 PSZ Occ Sch Sunday, !- Sunday Schedule:Day Name\n   *************   6696   Sp-ER_Triage_Mult4_Flr_1 Sys-3 Flr-1 Sch-H HPlcmt-north ZN NECB System 3 PSZ Occ Sch Monday, !- Monday Schedule:Day Name\n   *************   6697   Sp-ER_Triage_Mult4_Flr_1 Sys-3 Flr-1 Sch-H HPlcmt-north ZN NECB System 3 PSZ Occ Sch Tuesday, !- Tuesday Schedule:Day Name\n   *************   6698   Sp-ER_Triage_Mult4_Flr_1 Sys-3 Flr-1 Sch-H HPlcmt-north ZN NECB System 3 PSZ Occ Sch Wednesday, !- Wednesday Schedule:Day Name\n   *************   6699   Sp-ER_Triage_Mult4_Flr_1 Sys-3 Flr-1 Sch-H HPlcmt-north ZN NECB System 3 PSZ Occ Sch Thursday, !- Thursday Schedule:Day Name\n   *************   6700   Sp-ER_Triage_Mult4_Flr_1 Sys-3 Flr-1 Sch-H HPlcmt-north ZN NECB System 3 PSZ Occ Sch Friday, !- Friday Schedule:Day Name\n   *************   6701   Sp-ER_Triage_Mult4_Flr_1 Sys-3 Flr-1 Sch-H HPlcmt-north ZN NECB System 3 PSZ Occ Sch Saturday, !- Saturday Schedule:Day Name\n   *************   6702   Sp-ER_Triage_Mult4_Flr_1 Sys-3 Flr-1 Sch-H HPlcmt-north ZN NECB System 3 PSZ Occ Sch Default, !- Holiday Schedule:Day Name\n   *************   6703   Sp-ER_Triage_Mult4_Flr_1 Sys-3 Flr-1 Sch-H HPlcmt-north ZN NECB System 3 PSZ Occ Sch Summer Design Day, !- SummerDesignDay Schedule:Day Name\n   *************   6704   Sp-ER_Triage_Mult4_Flr_1 Sys-3 Flr-1 Sch-H HPlcmt-north ZN NECB System 3 PSZ Occ Sch Winter Design Day, !- WinterDesignDay Schedule:Day Name\n   ** Warning ** IP: IDF line~6704 Alpha Argument length exceeds maximum, will be truncated=  Sp-ER_Triage_Mult4_Flr_1 Sys-3 Flr-1 Sch-H HPlcmt-north ZN NECB System 3 PSZ Occ Sch Winter Design Da\n   **   ~~~   ** Will be processed as Alpha=SP-ER_TRIAGE_MULT4_FLR_1 SYS-3 FLR-1 SCH-H HPLCMT-NORTH ZN NECB SYSTEM 3 PSZ OCC SCH WINTER DESIGN DAY\n   ************* IDF Context for following error/warning message:\n   ************* Note -- lines truncated at 300 characters, if necessary...\n   *************   6724 Schedule:Day:Interval,\n   ************* indicated Name=Sp-ER_Triage_Mult4_Flr_1 Sys-3 Flr-1 Sch-H HPlcmt-north ZN NECB System 3 PSZ Occ Sch Summer Design Day\n   ************* Only last 1 lines before error line shown.....\n   *************   6725   Sp-ER_Triage_Mult4_Flr_1 Sys-3 Flr-1 Sch-H HPlcmt-north ZN NECB System 3 PSZ Occ Sch Summer Design Day, !- Name\n   ** Warning ** IP: IDF line~6725 Alpha Argument length exceeds maximum, will be truncated=  Sp-ER_Triage_Mult4_Flr_1 Sys-3 Flr-1 Sch-H HPlcmt-north ZN NECB System 3 PSZ Occ Sch Summer Design Da\n   **   ~~~   ** Will be processed as Alpha=SP-ER_TRIAGE_MULT4_FLR_1 SYS-3 FLR-1 SCH-H HPLCMT-NORTH ZN NECB SYSTEM 3 PSZ OCC SCH SUMMER DESIGN DAY\n   ************* IDF Context for following error/warning message:\n   ************* Note -- lines truncated at 300 characters, if necessary...\n   *************   6731 Schedule:Day:Interval,\n   ************* indicated Name=Sp-ER_Triage_Mult4_Flr_1 Sys-3 Flr-1 Sch-H HPlcmt-north ZN NECB System 3 PSZ Occ Sch Winter Design Day\n   ************* Only last 1 lines before error line shown.....\n   *************   6732   Sp-ER_Triage_Mult4_Flr_1 Sys-3 Flr-1 Sch-H HPlcmt-north ZN NECB System 3 PSZ Occ Sch Winter Design Day, !- Name\n   ** Warning ** IP: IDF line~6732 Alpha Argument length exceeds maximum, will be truncated=  Sp-ER_Triage_Mult4_Flr_1 Sys-3 Flr-1 Sch-H HPlcmt-north ZN NECB System 3 PSZ Occ Sch Winter Design Da\n   **   ~~~   ** Will be processed as Alpha=SP-ER_TRIAGE_MULT4_FLR_1 SYS-3 FLR-1 SCH-H HPLCMT-NORTH ZN NECB SYSTEM 3 PSZ OCC SCH WINTER DESIGN DAY\n   ************* IDF Context for following error/warning message:\n   ************* Note -- lines truncated at 300 characters, if necessary...\n   *************   7423 Schedule:Week:Daily,\n   ************* indicated Name=Schedule:Week:Daily {41f4f0cd-f709-4233-a132-4bd214a3b253}\n   ************* Only last 10 lines before error line shown.....\n   *************   7424   Schedule:Week:Daily {41f4f0cd-f709-4233-a132-4bd214a3b253}, !- Name\n   *************   7425   Sp-ICU_NurseStn_Lobby_Flr_2 Sys-3 Flr-4 Sch-H HPlcmt-core ZN NECB System 3 PSZ Occ Sch Sunday, !- Sunday Schedule:Day Name\n   *************   7426   Sp-ICU_NurseStn_Lobby_Flr_2 Sys-3 Flr-4 Sch-H HPlcmt-core ZN NECB System 3 PSZ Occ Sch Monday, !- Monday Schedule:Day Name\n   *************   7427   Sp-ICU_NurseStn_Lobby_Flr_2 Sys-3 Flr-4 Sch-H HPlcmt-core ZN NECB System 3 PSZ Occ Sch Tuesday, !- Tuesday Schedule:Day Name\n   *************   7428   Sp-ICU_NurseStn_Lobby_Flr_2 Sys-3 Flr-4 Sch-H HPlcmt-core ZN NECB System 3 PSZ Occ Sch Wednesday, !- Wednesday Schedule:Day Name\n   *************   7429   Sp-ICU_NurseStn_Lobby_Flr_2 Sys-3 Flr-4 Sch-H HPlcmt-core ZN NECB System 3 PSZ Occ Sch Thursday, !- Thursday Schedule:Day Name\n   *************   7430   Sp-ICU_NurseStn_Lobby_Flr_2 Sys-3 Flr-4 Sch-H HPlcmt-core ZN NECB System 3 PSZ Occ Sch Friday, !- Friday Schedule:Day Name\n   *************   7431   Sp-ICU_NurseStn_Lobby_Flr_2 Sys-3 Flr-4 Sch-H HPlcmt-core ZN NECB System 3 PSZ Occ Sch Saturday, !- Saturday Schedule:Day Name\n   *************   7432   Sp-ICU_NurseStn_Lobby_Flr_2 Sys-3 Flr-4 Sch-H HPlcmt-core ZN NECB System 3 PSZ Occ Sch Default, !- Holiday Schedule:Day Name\n   *************   7433   Sp-ICU_NurseStn_Lobby_Flr_2 Sys-3 Flr-4 Sch-H HPlcmt-core ZN NECB System 3 PSZ Occ Sch Summer Design Day, !- SummerDesignDay Schedule:Day Name\n   ** Warning ** IP: IDF line~7433 Alpha Argument length exceeds maximum, will be truncated=  Sp-ICU_NurseStn_Lobby_Flr_2 Sys-3 Flr-4 Sch-H HPlcmt-core ZN NECB System 3 PSZ Occ Sch Summer Design Da\n   **   ~~~   ** Will be processed as Alpha=SP-ICU_NURSESTN_LOBBY_FLR_2 SYS-3 FLR-4 SCH-H HPLCMT-CORE ZN NECB SYSTEM 3 PSZ OCC SCH SUMMER DESIGN DAY\n   ************* IDF Context for following error/warning message:\n   ************* Note -- lines truncated at 300 characters, if necessary...\n   *************   7423 Schedule:Week:Daily,\n   ************* indicated Name=Schedule:Week:Daily {41f4f0cd-f709-4233-a132-4bd214a3b253}\n   ************* Only last 10 lines before error line shown.....\n   *************   7425   Sp-ICU_NurseStn_Lobby_Flr_2 Sys-3 Flr-4 Sch-H HPlcmt-core ZN NECB System 3 PSZ Occ Sch Sunday, !- Sunday Schedule:Day Name\n   *************   7426   Sp-ICU_NurseStn_Lobby_Flr_2 Sys-3 Flr-4 Sch-H HPlcmt-core ZN NECB System 3 PSZ Occ Sch Monday, !- Monday Schedule:Day Name\n   *************   7427   Sp-ICU_NurseStn_Lobby_Flr_2 Sys-3 Flr-4 Sch-H HPlcmt-core ZN NECB System 3 PSZ Occ Sch Tuesday, !- Tuesday Schedule:Day Name\n   *************   7428   Sp-ICU_NurseStn_Lobby_Flr_2 Sys-3 Flr-4 Sch-H HPlcmt-core ZN NECB System 3 PSZ Occ Sch Wednesday, !- Wednesday Schedule:Day Name\n   *************   7429   Sp-ICU_NurseStn_Lobby_Flr_2 Sys-3 Flr-4 Sch-H HPlcmt-core ZN NECB System 3 PSZ Occ Sch Thursday, !- Thursday Schedule:Day Name\n   *************   7430   Sp-ICU_NurseStn_Lobby_Flr_2 Sys-3 Flr-4 Sch-H HPlcmt-core ZN NECB System 3 PSZ Occ Sch Friday, !- Friday Schedule:Day Name\n   *************   7431   Sp-ICU_NurseStn_Lobby_Flr_2 Sys-3 Flr-4 Sch-H HPlcmt-core ZN NECB System 3 PSZ Occ Sch Saturday, !- Saturday Schedule:Day Name\n   *************   7432   Sp-ICU_NurseStn_Lobby_Flr_2 Sys-3 Flr-4 Sch-H HPlcmt-core ZN NECB System 3 PSZ Occ Sch Default, !- Holiday Schedule:Day Name\n   *************   7433   Sp-ICU_NurseStn_Lobby_Flr_2 Sys-3 Flr-4 Sch-H HPlcmt-core ZN NECB System 3 PSZ Occ Sch Summer Design Day, !- SummerDesignDay Schedule:Day Name\n   *************   7434   Sp-ICU_NurseStn_Lobby_Flr_2 Sys-3 Flr-4 Sch-H HPlcmt-core ZN NECB System 3 PSZ Occ Sch Winter Design Day, !- WinterDesignDay Schedule:Day Name\n   ** Warning ** IP: IDF line~7434 Alpha Argument length exceeds maximum, will be truncated=  Sp-ICU_NurseStn_Lobby_Flr_2 Sys-3 Flr-4 Sch-H HPlcmt-core ZN NECB System 3 PSZ Occ Sch Winter Design Da\n   **   ~~~   ** Will be processed as Alpha=SP-ICU_NURSESTN_LOBBY_FLR_2 SYS-3 FLR-4 SCH-H HPLCMT-CORE ZN NECB SYSTEM 3 PSZ OCC SCH WINTER DESIGN DAY\n   ************* IDF Context for following error/warning message:\n   ************* Note -- lines truncated at 300 characters, if necessary...\n   *************   7454 Schedule:Day:Interval,\n   ************* indicated Name=Sp-ICU_NurseStn_Lobby_Flr_2 Sys-3 Flr-4 Sch-H HPlcmt-core ZN NECB System 3 PSZ Occ Sch Summer Design Day\n   ************* Only last 1 lines before error line shown.....\n   *************   7455   Sp-ICU_NurseStn_Lobby_Flr_2 Sys-3 Flr-4 Sch-H HPlcmt-core ZN NECB System 3 PSZ Occ Sch Summer Design Day, !- Name\n   ** Warning ** IP: IDF line~7455 Alpha Argument length exceeds maximum, will be truncated=  Sp-ICU_NurseStn_Lobby_Flr_2 Sys-3 Flr-4 Sch-H HPlcmt-core ZN NECB System 3 PSZ Occ Sch Summer Design Da\n   **   ~~~   ** Will be processed as Alpha=SP-ICU_NURSESTN_LOBBY_FLR_2 SYS-3 FLR-4 SCH-H HPLCMT-CORE ZN NECB SYSTEM 3 PSZ OCC SCH SUMMER DESIGN DAY\n   ************* IDF Context for following error/warning message:\n   ************* Note -- lines truncated at 300 characters, if necessary...\n   *************   7461 Schedule:Day:Interval,\n   ************* indicated Name=Sp-ICU_NurseStn_Lobby_Flr_2 Sys-3 Flr-4 Sch-H HPlcmt-core ZN NECB System 3 PSZ Occ Sch Winter Design Day\n   ************* Only last 1 lines before error line shown.....\n   *************   7462   Sp-ICU_NurseStn_Lobby_Flr_2 Sys-3 Flr-4 Sch-H HPlcmt-core ZN NECB System 3 PSZ Occ Sch Winter Design Day, !- Name\n   ** Warning ** IP: IDF line~7462 Alpha Argument length exceeds maximum, will be truncated=  Sp-ICU_NurseStn_Lobby_Flr_2 Sys-3 Flr-4 Sch-H HPlcmt-core ZN NECB System 3 PSZ Occ Sch Winter Design Da\n   **   ~~~   ** Will be processed as Alpha=SP-ICU_NURSESTN_LOBBY_FLR_2 SYS-3 FLR-4 SCH-H HPLCMT-CORE ZN NECB SYSTEM 3 PSZ OCC SCH WINTER DESIGN DAY\n   ************* IDF Context for following error/warning message:\n   ************* Note -- lines truncated at 300 characters, if necessary...\n   *************   8272 Schedule:Week:Daily,\n   ************* indicated Name=Schedule:Week:Daily {9b4a23d2-35e5-457d-b8ae-0b33f26ba4ac}\n   ************* Only last 10 lines before error line shown.....\n   *************   8273   Schedule:Week:Daily {9b4a23d2-35e5-457d-b8ae-0b33f26ba4ac}, !- Name\n   *************   8274   Sp-IC_PatRoom3_Mult6_Flr_2 Sys-3 Flr-4 Sch-H HPlcmt-west ZN NECB System 3 PSZ Occ Sch Sunday, !- Sunday Schedule:Day Name\n   *************   8275   Sp-IC_PatRoom3_Mult6_Flr_2 Sys-3 Flr-4 Sch-H HPlcmt-west ZN NECB System 3 PSZ Occ Sch Monday, !- Monday Schedule:Day Name\n   *************   8276   Sp-IC_PatRoom3_Mult6_Flr_2 Sys-3 Flr-4 Sch-H HPlcmt-west ZN NECB System 3 PSZ Occ Sch Tuesday, !- Tuesday Schedule:Day Name\n   *************   8277   Sp-IC_PatRoom3_Mult6_Flr_2 Sys-3 Flr-4 Sch-H HPlcmt-west ZN NECB System 3 PSZ Occ Sch Wednesday, !- Wednesday Schedule:Day Name\n   *************   8278   Sp-IC_PatRoom3_Mult6_Flr_2 Sys-3 Flr-4 Sch-H HPlcmt-west ZN NECB System 3 PSZ Occ Sch Thursday, !- Thursday Schedule:Day Name\n   *************   8279   Sp-IC_PatRoom3_Mult6_Flr_2 Sys-3 Flr-4 Sch-H HPlcmt-west ZN NECB System 3 PSZ Occ Sch Friday, !- Friday Schedule:Day Name\n   *************   8280   Sp-IC_PatRoom3_Mult6_Flr_2 Sys-3 Flr-4 Sch-H HPlcmt-west ZN NECB System 3 PSZ Occ Sch Saturday, !- Saturday Schedule:Day Name\n   *************   8281   Sp-IC_PatRoom3_Mult6_Flr_2 Sys-3 Flr-4 Sch-H HPlcmt-west ZN NECB System 3 PSZ Occ Sch Default, !- Holiday Schedule:Day Name\n   *************   8282   Sp-IC_PatRoom3_Mult6_Flr_2 Sys-3 Flr-4 Sch-H HPlcmt-west ZN NECB System 3 PSZ Occ Sch Summer Design Day, !- SummerDesignDay Schedule:Day Name\n   ** Warning ** IP: IDF line~8282 Alpha Argument length exceeds maximum, will be truncated=  Sp-IC_PatRoom3_Mult6_Flr_2 Sys-3 Flr-4 Sch-H HPlcmt-west ZN NECB System 3 PSZ Occ Sch Summer Design Da\n   **   ~~~   ** Will be processed as Alpha=SP-IC_PATROOM3_MULT6_FLR_2 SYS-3 FLR-4 SCH-H HPLCMT-WEST ZN NECB SYSTEM 3 PSZ OCC SCH SUMMER DESIGN DAY\n   ************* IDF Context for following error/warning message:\n   ************* Note -- lines truncated at 300 characters, if necessary...\n   *************   8272 Schedule:Week:Daily,\n   ************* indicated Name=Schedule:Week:Daily {9b4a23d2-35e5-457d-b8ae-0b33f26ba4ac}\n   ************* Only last 10 lines before error line shown.....\n   *************   8274   Sp-IC_PatRoom3_Mult6_Flr_2 Sys-3 Flr-4 Sch-H HPlcmt-west ZN NECB System 3 PSZ Occ Sch Sunday, !- Sunday Schedule:Day Name\n   *************   8275   Sp-IC_PatRoom3_Mult6_Flr_2 Sys-3 Flr-4 Sch-H HPlcmt-west ZN NECB System 3 PSZ Occ Sch Monday, !- Monday Schedule:Day Name\n   *************   8276   Sp-IC_PatRoom3_Mult6_Flr_2 Sys-3 Flr-4 Sch-H HPlcmt-west ZN NECB System 3 PSZ Occ Sch Tuesday, !- Tuesday Schedule:Day Name\n   *************   8277   Sp-IC_PatRoom3_Mult6_Flr_2 Sys-3 Flr-4 Sch-H HPlcmt-west ZN NECB System 3 PSZ Occ Sch Wednesday, !- Wednesday Schedule:Day Name\n   *************   8278   Sp-IC_PatRoom3_Mult6_Flr_2 Sys-3 Flr-4 Sch-H HPlcmt-west ZN NECB System 3 PSZ Occ Sch Thursday, !- Thursday Schedule:Day Name\n   *************   8279   Sp-IC_PatRoom3_Mult6_Flr_2 Sys-3 Flr-4 Sch-H HPlcmt-west ZN NECB System 3 PSZ Occ Sch Friday, !- Friday Schedule:Day Name\n   *************   8280   Sp-IC_PatRoom3_Mult6_Flr_2 Sys-3 Flr-4 Sch-H HPlcmt-west ZN NECB System 3 PSZ Occ Sch Saturday, !- Saturday Schedule:Day Name\n   *************   8281   Sp-IC_PatRoom3_Mult6_Flr_2 Sys-3 Flr-4 Sch-H HPlcmt-west ZN NECB System 3 PSZ Occ Sch Default, !- Holiday Schedule:Day Name\n   *************   8282   Sp-IC_PatRoom3_Mult6_Flr_2 Sys-3 Flr-4 Sch-H HPlcmt-west ZN NECB System 3 PSZ Occ Sch Summer Design Day, !- SummerDesignDay Schedule:Day Name\n   *************   8283   Sp-IC_PatRoom3_Mult6_Flr_2 Sys-3 Flr-4 Sch-H HPlcmt-west ZN NECB System 3 PSZ Occ Sch Winter Design Day, !- WinterDesignDay Schedule:Day Name\n   ** Warning ** IP: IDF line~8283 Alpha Argument length exceeds maximum, will be truncated=  Sp-IC_PatRoom3_Mult6_Flr_2 Sys-3 Flr-4 Sch-H HPlcmt-west ZN NECB System 3 PSZ Occ Sch Winter Design Da\n   **   ~~~   ** Will be processed as Alpha=SP-IC_PATROOM3_MULT6_FLR_2 SYS-3 FLR-4 SCH-H HPLCMT-WEST ZN NECB SYSTEM 3 PSZ OCC SCH WINTER DESIGN DAY\n   ************* IDF Context for following error/warning message:\n   ************* Note -- lines truncated at 300 characters, if necessary...\n   *************   8303 Schedule:Day:Interval,\n   ************* indicated Name=Sp-IC_PatRoom3_Mult6_Flr_2 Sys-3 Flr-4 Sch-H HPlcmt-west ZN NECB System 3 PSZ Occ Sch Summer Design Day\n   ************* Only last 1 lines before error line shown.....\n   *************   8304   Sp-IC_PatRoom3_Mult6_Flr_2 Sys-3 Flr-4 Sch-H HPlcmt-west ZN NECB System 3 PSZ Occ Sch Summer Design Day, !- Name\n   ** Warning ** IP: IDF line~8304 Alpha Argument length exceeds maximum, will be truncated=  Sp-IC_PatRoom3_Mult6_Flr_2 Sys-3 Flr-4 Sch-H HPlcmt-west ZN NECB System 3 PSZ Occ Sch Summer Design Da\n   **   ~~~   ** Will be processed as Alpha=SP-IC_PATROOM3_MULT6_FLR_2 SYS-3 FLR-4 SCH-H HPLCMT-WEST ZN NECB SYSTEM 3 PSZ OCC SCH SUMMER DESIGN DAY\n   ************* IDF Context for following error/warning message:\n   ************* Note -- lines truncated at 300 characters, if necessary...\n   *************   8310 Schedule:Day:Interval,\n   ************* indicated Name=Sp-IC_PatRoom3_Mult6_Flr_2 Sys-3 Flr-4 Sch-H HPlcmt-west ZN NECB System 3 PSZ Occ Sch Winter Design Day\n   ************* Only last 1 lines before error line shown.....\n   *************   8311   Sp-IC_PatRoom3_Mult6_Flr_2 Sys-3 Flr-4 Sch-H HPlcmt-west ZN NECB System 3 PSZ Occ Sch Winter Design Day, !- Name\n   ** Warning ** IP: IDF line~8311 Alpha Argument length exceeds maximum, will be truncated=  Sp-IC_PatRoom3_Mult6_Flr_2 Sys-3 Flr-4 Sch-H HPlcmt-west ZN NECB System 3 PSZ Occ Sch Winter Design Da\n   **   ~~~   ** Will be processed as Alpha=SP-IC_PATROOM3_MULT6_FLR_2 SYS-3 FLR-4 SCH-H HPLCMT-WEST ZN NECB SYSTEM 3 PSZ OCC SCH WINTER DESIGN DAY\n   ************* IDF Context for following error/warning message:\n   ************* Note -- lines truncated at 300 characters, if necessary...\n   *************  10967 Schedule:Week:Daily,\n   ************* indicated Name=Schedule:Week:Daily {79343e52-06cc-4266-a0ba-66fb98220b32}\n   ************* Only last 10 lines before error line shown.....\n   *************  10968   Schedule:Week:Daily {79343e52-06cc-4266-a0ba-66fb98220b32}, !- Name\n   *************  10969   Sp-NurseStn_Lobby_Flr_5 Sys-3 Flr-6 Sch-H HPlcmt-south ZN NECB System 3 PSZ Occ Sch Sunday, !- Sunday Schedule:Day Name\n   *************  10970   Sp-NurseStn_Lobby_Flr_5 Sys-3 Flr-6 Sch-H HPlcmt-south ZN NECB System 3 PSZ Occ Sch Monday, !- Monday Schedule:Day Name\n   *************  10971   Sp-NurseStn_Lobby_Flr_5 Sys-3 Flr-6 Sch-H HPlcmt-south ZN NECB System 3 PSZ Occ Sch Tuesday, !- Tuesday Schedule:Day Name\n   *************  10972   Sp-NurseStn_Lobby_Flr_5 Sys-3 Flr-6 Sch-H HPlcmt-south ZN NECB System 3 PSZ Occ Sch Wednesday, !- Wednesday Schedule:Day Name\n   *************  10973   Sp-NurseStn_Lobby_Flr_5 Sys-3 Flr-6 Sch-H HPlcmt-south ZN NECB System 3 PSZ Occ Sch Thursday, !- Thursday Schedule:Day Name\n   *************  10974   Sp-NurseStn_Lobby_Flr_5 Sys-3 Flr-6 Sch-H HPlcmt-south ZN NECB System 3 PSZ Occ Sch Friday, !- Friday Schedule:Day Name\n   *************  10975   Sp-NurseStn_Lobby_Flr_5 Sys-3 Flr-6 Sch-H HPlcmt-south ZN NECB System 3 PSZ Occ Sch Saturday, !- Saturday Schedule:Day Name\n   *************  10976   Sp-NurseStn_Lobby_Flr_5 Sys-3 Flr-6 Sch-H HPlcmt-south ZN NECB System 3 PSZ Occ Sch Default, !- Holiday Schedule:Day Name\n   *************  10977   Sp-NurseStn_Lobby_Flr_5 Sys-3 Flr-6 Sch-H HPlcmt-south ZN NECB System 3 PSZ Occ Sch Summer Design Day, !- SummerDesignDay Schedule:Day Name\n   ** Warning ** IP: IDF line~10977 Alpha Argument length exceeds maximum, will be truncated=  Sp-NurseStn_Lobby_Flr_5 Sys-3 Flr-6 Sch-H HPlcmt-south ZN NECB System 3 PSZ Occ Sch Summer Design Da\n   **   ~~~   ** Will be processed as Alpha=SP-NURSESTN_LOBBY_FLR_5 SYS-3 FLR-6 SCH-H HPLCMT-SOUTH ZN NECB SYSTEM 3 PSZ OCC SCH SUMMER DESIGN DAY\n   ************* IDF Context for following error/warning message:\n   ************* Note -- lines truncated at 300 characters, if necessary...\n   *************  10967 Schedule:Week:Daily,\n   ************* indicated Name=Schedule:Week:Daily {79343e52-06cc-4266-a0ba-66fb98220b32}\n   ************* Only last 10 lines before error line shown.....\n   *************  10969   Sp-NurseStn_Lobby_Flr_5 Sys-3 Flr-6 Sch-H HPlcmt-south ZN NECB System 3 PSZ Occ Sch Sunday, !- Sunday Schedule:Day Name\n   *************  10970   Sp-NurseStn_Lobby_Flr_5 Sys-3 Flr-6 Sch-H HPlcmt-south ZN NECB System 3 PSZ Occ Sch Monday, !- Monday Schedule:Day Name\n   *************  10971   Sp-NurseStn_Lobby_Flr_5 Sys-3 Flr-6 Sch-H HPlcmt-south ZN NECB System 3 PSZ Occ Sch Tuesday, !- Tuesday Schedule:Day Name\n   *************  10972   Sp-NurseStn_Lobby_Flr_5 Sys-3 Flr-6 Sch-H HPlcmt-south ZN NECB System 3 PSZ Occ Sch Wednesday, !- Wednesday Schedule:Day Name\n   *************  10973   Sp-NurseStn_Lobby_Flr_5 Sys-3 Flr-6 Sch-H HPlcmt-south ZN NECB System 3 PSZ Occ Sch Thursday, !- Thursday Schedule:Day Name\n   *************  10974   Sp-NurseStn_Lobby_Flr_5 Sys-3 Flr-6 Sch-H HPlcmt-south ZN NECB System 3 PSZ Occ Sch Friday, !- Friday Schedule:Day Name\n   *************  10975   Sp-NurseStn_Lobby_Flr_5 Sys-3 Flr-6 Sch-H HPlcmt-south ZN NECB System 3 PSZ Occ Sch Saturday, !- Saturday Schedule:Day Name\n   *************  10976   Sp-NurseStn_Lobby_Flr_5 Sys-3 Flr-6 Sch-H HPlcmt-south ZN NECB System 3 PSZ Occ Sch Default, !- Holiday Schedule:Day Name\n   *************  10977   Sp-NurseStn_Lobby_Flr_5 Sys-3 Flr-6 Sch-H HPlcmt-south ZN NECB System 3 PSZ Occ Sch Summer Design Day, !- SummerDesignDay Schedule:Day Name\n   *************  10978   Sp-NurseStn_Lobby_Flr_5 Sys-3 Flr-6 Sch-H HPlcmt-south ZN NECB System 3 PSZ Occ Sch Winter Design Day, !- WinterDesignDay Schedule:Day Name\n   ** Warning ** IP: IDF line~10978 Alpha Argument length exceeds maximum, will be truncated=  Sp-NurseStn_Lobby_Flr_5 Sys-3 Flr-6 Sch-H HPlcmt-south ZN NECB System 3 PSZ Occ Sch Winter Design Da\n   **   ~~~   ** Will be processed as Alpha=SP-NURSESTN_LOBBY_FLR_5 SYS-3 FLR-6 SCH-H HPLCMT-SOUTH ZN NECB SYSTEM 3 PSZ OCC SCH WINTER DESIGN DAY\n   ************* IDF Context for following error/warning message:\n   ************* Note -- lines truncated at 300 characters, if necessary...\n   *************  10998 Schedule:Day:Interval,\n   ************* indicated Name=Sp-NurseStn_Lobby_Flr_5 Sys-3 Flr-6 Sch-H HPlcmt-south ZN NECB System 3 PSZ Occ Sch Summer Design Day\n   ************* Only last 1 lines before error line shown.....\n   *************  10999   Sp-NurseStn_Lobby_Flr_5 Sys-3 Flr-6 Sch-H HPlcmt-south ZN NECB System 3 PSZ Occ Sch Summer Design Day, !- Name\n   ** Warning ** IP: IDF line~10999 Alpha Argument length exceeds maximum, will be truncated=  Sp-NurseStn_Lobby_Flr_5 Sys-3 Flr-6 Sch-H HPlcmt-south ZN NECB System 3 PSZ Occ Sch Summer Design Da\n   **   ~~~   ** Will be processed as Alpha=SP-NURSESTN_LOBBY_FLR_5 SYS-3 FLR-6 SCH-H HPLCMT-SOUTH ZN NECB SYSTEM 3 PSZ OCC SCH SUMMER DESIGN DAY\n   ************* IDF Context for following error/warning message:\n   ************* Note -- lines truncated at 300 characters, if necessary...\n   *************  11005 Schedule:Day:Interval,\n   ************* indicated Name=Sp-NurseStn_Lobby_Flr_5 Sys-3 Flr-6 Sch-H HPlcmt-south ZN NECB System 3 PSZ Occ Sch Winter Design Day\n   ************* Only last 1 lines before error line shown.....\n   *************  11006   Sp-NurseStn_Lobby_Flr_5 Sys-3 Flr-6 Sch-H HPlcmt-south ZN NECB System 3 PSZ Occ Sch Winter Design Day, !- Name\n   ** Warning ** IP: IDF line~11006 Alpha Argument length exceeds maximum, will be truncated=  Sp-NurseStn_Lobby_Flr_5 Sys-3 Flr-6 Sch-H HPlcmt-south ZN NECB System 3 PSZ Occ Sch Winter Design Da\n   **   ~~~   ** Will be processed as Alpha=SP-NURSESTN_LOBBY_FLR_5 SYS-3 FLR-6 SCH-H HPLCMT-SOUTH ZN NECB SYSTEM 3 PSZ OCC SCH WINTER DESIGN DAY\n   ************* IDF Context for following error/warning message:\n   ************* Note -- lines truncated at 300 characters, if necessary...\n   *************  14142 Schedule:Week:Daily,\n   ************* indicated Name=Schedule:Week:Daily {8371bd99-b502-4fd1-b296-27a18b42a24b}\n   ************* Only last 10 lines before error line shown.....\n   *************  14143   Schedule:Week:Daily {8371bd99-b502-4fd1-b296-27a18b42a24b}, !- Name\n   *************  14144   Sp-OR_NurseStn_Lobby_Flr_2 Sys-3 Flr-4 Sch-H HPlcmt-south ZN NECB System 3 PSZ Occ Sch Sunday, !- Sunday Schedule:Day Name\n   *************  14145   Sp-OR_NurseStn_Lobby_Flr_2 Sys-3 Flr-4 Sch-H HPlcmt-south ZN NECB System 3 PSZ Occ Sch Monday, !- Monday Schedule:Day Name\n   *************  14146   Sp-OR_NurseStn_Lobby_Flr_2 Sys-3 Flr-4 Sch-H HPlcmt-south ZN NECB System 3 PSZ Occ Sch Tuesday, !- Tuesday Schedule:Day Name\n   *************  14147   Sp-OR_NurseStn_Lobby_Flr_2 Sys-3 Flr-4 Sch-H HPlcmt-south ZN NECB System 3 PSZ Occ Sch Wednesday, !- Wednesday Schedule:Day Name\n   *************  14148   Sp-OR_NurseStn_Lobby_Flr_2 Sys-3 Flr-4 Sch-H HPlcmt-south ZN NECB System 3 PSZ Occ Sch Thursday, !- Thursday Schedule:Day Name\n   *************  14149   Sp-OR_NurseStn_Lobby_Flr_2 Sys-3 Flr-4 Sch-H HPlcmt-south ZN NECB System 3 PSZ Occ Sch Friday, !- Friday Schedule:Day Name\n   *************  14150   Sp-OR_NurseStn_Lobby_Flr_2 Sys-3 Flr-4 Sch-H HPlcmt-south ZN NECB System 3 PSZ Occ Sch Saturday, !- Saturday Schedule:Day Name\n   *************  14151   Sp-OR_NurseStn_Lobby_Flr_2 Sys-3 Flr-4 Sch-H HPlcmt-south ZN NECB System 3 PSZ Occ Sch Default, !- Holiday Schedule:Day Name\n   *************  14152   Sp-OR_NurseStn_Lobby_Flr_2 Sys-3 Flr-4 Sch-H HPlcmt-south ZN NECB System 3 PSZ Occ Sch Summer Design Day, !- SummerDesignDay Schedule:Day Name\n   ** Warning ** IP: IDF line~14152 Alpha Argument length exceeds maximum, will be truncated=  Sp-OR_NurseStn_Lobby_Flr_2 Sys-3 Flr-4 Sch-H HPlcmt-south ZN NECB System 3 PSZ Occ Sch Summer Design Da\n   **   ~~~   ** Will be processed as Alpha=SP-OR_NURSESTN_LOBBY_FLR_2 SYS-3 FLR-4 SCH-H HPLCMT-SOUTH ZN NECB SYSTEM 3 PSZ OCC SCH SUMMER DESIGN DAY\n   ************* IDF Context for following error/warning message:\n   ************* Note -- lines truncated at 300 characters, if necessary...\n   *************  14142 Schedule:Week:Daily,\n   ************* indicated Name=Schedule:Week:Daily {8371bd99-b502-4fd1-b296-27a18b42a24b}\n   ************* Only last 10 lines before error line shown.....\n   *************  14144   Sp-OR_NurseStn_Lobby_Flr_2 Sys-3 Flr-4 Sch-H HPlcmt-south ZN NECB System 3 PSZ Occ Sch Sunday, !- Sunday Schedule:Day Name\n   *************  14145   Sp-OR_NurseStn_Lobby_Flr_2 Sys-3 Flr-4 Sch-H HPlcmt-south ZN NECB System 3 PSZ Occ Sch Monday, !- Monday Schedule:Day Name\n   *************  14146   Sp-OR_NurseStn_Lobby_Flr_2 Sys-3 Flr-4 Sch-H HPlcmt-south ZN NECB System 3 PSZ Occ Sch Tuesday, !- Tuesday Schedule:Day Name\n   *************  14147   Sp-OR_NurseStn_Lobby_Flr_2 Sys-3 Flr-4 Sch-H HPlcmt-south ZN NECB System 3 PSZ Occ Sch Wednesday, !- Wednesday Schedule:Day Name\n   *************  14148   Sp-OR_NurseStn_Lobby_Flr_2 Sys-3 Flr-4 Sch-H HPlcmt-south ZN NECB System 3 PSZ Occ Sch Thursday, !- Thursday Schedule:Day Name\n   *************  14149   Sp-OR_NurseStn_Lobby_Flr_2 Sys-3 Flr-4 Sch-H HPlcmt-south ZN NECB System 3 PSZ Occ Sch Friday, !- Friday Schedule:Day Name\n   *************  14150   Sp-OR_NurseStn_Lobby_Flr_2 Sys-3 Flr-4 Sch-H HPlcmt-south ZN NECB System 3 PSZ Occ Sch Saturday, !- Saturday Schedule:Day Name\n   *************  14151   Sp-OR_NurseStn_Lobby_Flr_2 Sys-3 Flr-4 Sch-H HPlcmt-south ZN NECB System 3 PSZ Occ Sch Default, !- Holiday Schedule:Day Name\n   *************  14152   Sp-OR_NurseStn_Lobby_Flr_2 Sys-3 Flr-4 Sch-H HPlcmt-south ZN NECB System 3 PSZ Occ Sch Summer Design Day, !- SummerDesignDay Schedule:Day Name\n   *************  14153   Sp-OR_NurseStn_Lobby_Flr_2 Sys-3 Flr-4 Sch-H HPlcmt-south ZN NECB System 3 PSZ Occ Sch Winter Design Day, !- WinterDesignDay Schedule:Day Name\n   ** Warning ** IP: IDF line~14153 Alpha Argument length exceeds maximum, will be truncated=  Sp-OR_NurseStn_Lobby_Flr_2 Sys-3 Flr-4 Sch-H HPlcmt-south ZN NECB System 3 PSZ Occ Sch Winter Design Da\n   **   ~~~   ** Will be processed as Alpha=SP-OR_NURSESTN_LOBBY_FLR_2 SYS-3 FLR-4 SCH-H HPLCMT-SOUTH ZN NECB SYSTEM 3 PSZ OCC SCH WINTER DESIGN DAY\n   ************* IDF Context for following error/warning message:\n   ************* Note -- lines truncated at 300 characters, if necessary...\n   *************  14173 Schedule:Day:Interval,\n   ************* indicated Name=Sp-OR_NurseStn_Lobby_Flr_2 Sys-3 Flr-4 Sch-H HPlcmt-south ZN NECB System 3 PSZ Occ Sch Summer Design Day\n   ************* Only last 1 lines before error line shown.....\n   *************  14174   Sp-OR_NurseStn_Lobby_Flr_2 Sys-3 Flr-4 Sch-H HPlcmt-south ZN NECB System 3 PSZ Occ Sch Summer Design Day, !- Name\n   ** Warning ** IP: IDF line~14174 Alpha Argument length exceeds maximum, will be truncated=  Sp-OR_NurseStn_Lobby_Flr_2 Sys-3 Flr-4 Sch-H HPlcmt-south ZN NECB System 3 PSZ Occ Sch Summer Design Da\n   **   ~~~   ** Will be processed as Alpha=SP-OR_NURSESTN_LOBBY_FLR_2 SYS-3 FLR-4 SCH-H HPLCMT-SOUTH ZN NECB SYSTEM 3 PSZ OCC SCH SUMMER DESIGN DAY\n   ************* IDF Context for following error/warning message:\n   ************* Note -- lines truncated at 300 characters, if necessary...\n   *************  14180 Schedule:Day:Interval,\n   ************* indicated Name=Sp-OR_NurseStn_Lobby_Flr_2 Sys-3 Flr-4 Sch-H HPlcmt-south ZN NECB System 3 PSZ Occ Sch Winter Design Day\n   ************* Only last 1 lines before error line shown.....\n   *************  14181   Sp-OR_NurseStn_Lobby_Flr_2 Sys-3 Flr-4 Sch-H HPlcmt-south ZN NECB System 3 PSZ Occ Sch Winter Design Day, !- Name\n   ** Warning ** IP: IDF line~14181 Alpha Argument length exceeds maximum, will be truncated=  Sp-OR_NurseStn_Lobby_Flr_2 Sys-3 Flr-4 Sch-H HPlcmt-south ZN NECB System 3 PSZ Occ Sch Winter Design Da\n   **   ~~~   ** Will be processed as Alpha=SP-OR_NURSESTN_LOBBY_FLR_2 SYS-3 FLR-4 SCH-H HPLCMT-SOUTH ZN NECB SYSTEM 3 PSZ OCC SCH WINTER DESIGN DAY\n   ************* IDF Context for following error/warning message:\n   ************* Note -- lines truncated at 300 characters, if necessary...\n   *************  14485 Schedule:Week:Daily,\n   ************* indicated Name=Schedule:Week:Daily {24663c9f-c20d-46d1-8df0-ddaee5d08132}\n   ************* Only last 10 lines before error line shown.....\n   *************  14486   Schedule:Week:Daily {24663c9f-c20d-46d1-8df0-ddaee5d08132}, !- Name\n   *************  14487   Sp-PatRoom1_Mult10_Flr_3 Sys-3 Flr-2 Sch-H HPlcmt-south ZN NECB System 3 PSZ Occ Sch Sunday, !- Sunday Schedule:Day Name\n   *************  14488   Sp-PatRoom1_Mult10_Flr_3 Sys-3 Flr-2 Sch-H HPlcmt-south ZN NECB System 3 PSZ Occ Sch Monday, !- Monday Schedule:Day Name\n   *************  14489   Sp-PatRoom1_Mult10_Flr_3 Sys-3 Flr-2 Sch-H HPlcmt-south ZN NECB System 3 PSZ Occ Sch Tuesday, !- Tuesday Schedule:Day Name\n   *************  14490   Sp-PatRoom1_Mult10_Flr_3 Sys-3 Flr-2 Sch-H HPlcmt-south ZN NECB System 3 PSZ Occ Sch Wednesday, !- Wednesday Schedule:Day Name\n   *************  14491   Sp-PatRoom1_Mult10_Flr_3 Sys-3 Flr-2 Sch-H HPlcmt-south ZN NECB System 3 PSZ Occ Sch Thursday, !- Thursday Schedule:Day Name\n   *************  14492   Sp-PatRoom1_Mult10_Flr_3 Sys-3 Flr-2 Sch-H HPlcmt-south ZN NECB System 3 PSZ Occ Sch Friday, !- Friday Schedule:Day Name\n   *************  14493   Sp-PatRoom1_Mult10_Flr_3 Sys-3 Flr-2 Sch-H HPlcmt-south ZN NECB System 3 PSZ Occ Sch Saturday, !- Saturday Schedule:Day Name\n   *************  14494   Sp-PatRoom1_Mult10_Flr_3 Sys-3 Flr-2 Sch-H HPlcmt-south ZN NECB System 3 PSZ Occ Sch Default, !- Holiday Schedule:Day Name\n   *************  14495   Sp-PatRoom1_Mult10_Flr_3 Sys-3 Flr-2 Sch-H HPlcmt-south ZN NECB System 3 PSZ Occ Sch Summer Design Day, !- SummerDesignDay Schedule:Day Name\n   ** Warning ** IP: IDF line~14495 Alpha Argument length exceeds maximum, will be truncated=  Sp-PatRoom1_Mult10_Flr_3 Sys-3 Flr-2 Sch-H HPlcmt-south ZN NECB System 3 PSZ Occ Sch Summer Design Da\n   **   ~~~   ** Will be processed as Alpha=SP-PATROOM1_MULT10_FLR_3 SYS-3 FLR-2 SCH-H HPLCMT-SOUTH ZN NECB SYSTEM 3 PSZ OCC SCH SUMMER DESIGN DAY\n   ************* IDF Context for following error/warning message:\n   ************* Note -- lines truncated at 300 characters, if necessary...\n   *************  14485 Schedule:Week:Daily,\n   ************* indicated Name=Schedule:Week:Daily {24663c9f-c20d-46d1-8df0-ddaee5d08132}\n   ************* Only last 10 lines before error line shown.....\n   *************  14487   Sp-PatRoom1_Mult10_Flr_3 Sys-3 Flr-2 Sch-H HPlcmt-south ZN NECB System 3 PSZ Occ Sch Sunday, !- Sunday Schedule:Day Name\n   *************  14488   Sp-PatRoom1_Mult10_Flr_3 Sys-3 Flr-2 Sch-H HPlcmt-south ZN NECB System 3 PSZ Occ Sch Monday, !- Monday Schedule:Day Name\n   *************  14489   Sp-PatRoom1_Mult10_Flr_3 Sys-3 Flr-2 Sch-H HPlcmt-south ZN NECB System 3 PSZ Occ Sch Tuesday, !- Tuesday Schedule:Day Name\n   *************  14490   Sp-PatRoom1_Mult10_Flr_3 Sys-3 Flr-2 Sch-H HPlcmt-south ZN NECB System 3 PSZ Occ Sch Wednesday, !- Wednesday Schedule:Day Name\n   *************  14491   Sp-PatRoom1_Mult10_Flr_3 Sys-3 Flr-2 Sch-H HPlcmt-south ZN NECB System 3 PSZ Occ Sch Thursday, !- Thursday Schedule:Day Name\n   *************  14492   Sp-PatRoom1_Mult10_Flr_3 Sys-3 Flr-2 Sch-H HPlcmt-south ZN NECB System 3 PSZ Occ Sch Friday, !- Friday Schedule:Day Name\n   *************  14493   Sp-PatRoom1_Mult10_Flr_3 Sys-3 Flr-2 Sch-H HPlcmt-south ZN NECB System 3 PSZ Occ Sch Saturday, !- Saturday Schedule:Day Name\n   *************  14494   Sp-PatRoom1_Mult10_Flr_3 Sys-3 Flr-2 Sch-H HPlcmt-south ZN NECB System 3 PSZ Occ Sch Default, !- Holiday Schedule:Day Name\n   *************  14495   Sp-PatRoom1_Mult10_Flr_3 Sys-3 Flr-2 Sch-H HPlcmt-south ZN NECB System 3 PSZ Occ Sch Summer Design Day, !- SummerDesignDay Schedule:Day Name\n   *************  14496   Sp-PatRoom1_Mult10_Flr_3 Sys-3 Flr-2 Sch-H HPlcmt-south ZN NECB System 3 PSZ Occ Sch Winter Design Day, !- WinterDesignDay Schedule:Day Name\n   ** Warning ** IP: IDF line~14496 Alpha Argument length exceeds maximum, will be truncated=  Sp-PatRoom1_Mult10_Flr_3 Sys-3 Flr-2 Sch-H HPlcmt-south ZN NECB System 3 PSZ Occ Sch Winter Design Da\n   **   ~~~   ** Will be processed as Alpha=SP-PATROOM1_MULT10_FLR_3 SYS-3 FLR-2 SCH-H HPLCMT-SOUTH ZN NECB SYSTEM 3 PSZ OCC SCH WINTER DESIGN DAY\n   ************* IDF Context for following error/warning message:\n   ************* Note -- lines truncated at 300 characters, if necessary...\n   *************  14516 Schedule:Day:Interval,\n   ************* indicated Name=Sp-PatRoom1_Mult10_Flr_3 Sys-3 Flr-2 Sch-H HPlcmt-south ZN NECB System 3 PSZ Occ Sch Summer Design Day\n   ************* Only last 1 lines before error line shown.....\n   *************  14517   Sp-PatRoom1_Mult10_Flr_3 Sys-3 Flr-2 Sch-H HPlcmt-south ZN NECB System 3 PSZ Occ Sch Summer Design Day, !- Name\n   ** Warning ** IP: IDF line~14517 Alpha Argument length exceeds maximum, will be truncated=  Sp-PatRoom1_Mult10_Flr_3 Sys-3 Flr-2 Sch-H HPlcmt-south ZN NECB System 3 PSZ Occ Sch Summer Design Da\n   **   ~~~   ** Will be processed as Alpha=SP-PATROOM1_MULT10_FLR_3 SYS-3 FLR-2 SCH-H HPLCMT-SOUTH ZN NECB SYSTEM 3 PSZ OCC SCH SUMMER DESIGN DAY\n   ************* IDF Context for following error/warning message:\n   ************* Note -- lines truncated at 300 characters, if necessary...\n   *************  14523 Schedule:Day:Interval,\n   ************* indicated Name=Sp-PatRoom1_Mult10_Flr_3 Sys-3 Flr-2 Sch-H HPlcmt-south ZN NECB System 3 PSZ Occ Sch Winter Design Day\n   ************* Only last 1 lines before error line shown.....\n   *************  14524   Sp-PatRoom1_Mult10_Flr_3 Sys-3 Flr-2 Sch-H HPlcmt-south ZN NECB System 3 PSZ Occ Sch Winter Design Day, !- Name\n   ** Warning ** IP: IDF line~14524 Alpha Argument length exceeds maximum, will be truncated=  Sp-PatRoom1_Mult10_Flr_3 Sys-3 Flr-2 Sch-H HPlcmt-south ZN NECB System 3 PSZ Occ Sch Winter Design Da\n   **   ~~~   ** Will be processed as Alpha=SP-PATROOM1_MULT10_FLR_3 SYS-3 FLR-2 SCH-H HPLCMT-SOUTH ZN NECB SYSTEM 3 PSZ OCC SCH WINTER DESIGN DAY\n   ************* IDF Context for following error/warning message:\n   ************* Note -- lines truncated at 300 characters, if necessary...\n   *************  14828 Schedule:Week:Daily,\n   ************* indicated Name=Schedule:Week:Daily {865681dd-197f-43cf-a0e7-76ede8a97180}\n   ************* Only last 10 lines before error line shown.....\n   *************  14829   Schedule:Week:Daily {865681dd-197f-43cf-a0e7-76ede8a97180}, !- Name\n   *************  14830   Sp-PatRoom1_Mult10_Flr_4 Sys-3 Flr-3 Sch-H HPlcmt-south ZN NECB System 3 PSZ Occ Sch Sunday, !- Sunday Schedule:Day Name\n   *************  14831   Sp-PatRoom1_Mult10_Flr_4 Sys-3 Flr-3 Sch-H HPlcmt-south ZN NECB System 3 PSZ Occ Sch Monday, !- Monday Schedule:Day Name\n   *************  14832   Sp-PatRoom1_Mult10_Flr_4 Sys-3 Flr-3 Sch-H HPlcmt-south ZN NECB System 3 PSZ Occ Sch Tuesday, !- Tuesday Schedule:Day Name\n   *************  14833   Sp-PatRoom1_Mult10_Flr_4 Sys-3 Flr-3 Sch-H HPlcmt-south ZN NECB System 3 PSZ Occ Sch Wednesday, !- Wednesday Schedule:Day Name\n   *************  14834   Sp-PatRoom1_Mult10_Flr_4 Sys-3 Flr-3 Sch-H HPlcmt-south ZN NECB System 3 PSZ Occ Sch Thursday, !- Thursday Schedule:Day Name\n   *************  14835   Sp-PatRoom1_Mult10_Flr_4 Sys-3 Flr-3 Sch-H HPlcmt-south ZN NECB System 3 PSZ Occ Sch Friday, !- Friday Schedule:Day Name\n   *************  14836   Sp-PatRoom1_Mult10_Flr_4 Sys-3 Flr-3 Sch-H HPlcmt-south ZN NECB System 3 PSZ Occ Sch Saturday, !- Saturday Schedule:Day Name\n   *************  14837   Sp-PatRoom1_Mult10_Flr_4 Sys-3 Flr-3 Sch-H HPlcmt-south ZN NECB System 3 PSZ Occ Sch Default, !- Holiday Schedule:Day Name\n   *************  14838   Sp-PatRoom1_Mult10_Flr_4 Sys-3 Flr-3 Sch-H HPlcmt-south ZN NECB System 3 PSZ Occ Sch Summer Design Day, !- SummerDesignDay Schedule:Day Name\n   ** Warning ** IP: IDF line~14838 Alpha Argument length exceeds maximum, will be truncated=  Sp-PatRoom1_Mult10_Flr_4 Sys-3 Flr-3 Sch-H HPlcmt-south ZN NECB System 3 PSZ Occ Sch Summer Design Da\n   **   ~~~   ** Will be processed as Alpha=SP-PATROOM1_MULT10_FLR_4 SYS-3 FLR-3 SCH-H HPLCMT-SOUTH ZN NECB SYSTEM 3 PSZ OCC SCH SUMMER DESIGN DAY\n   ************* IDF Context for following error/warning message:\n   ************* Note -- lines truncated at 300 characters, if necessary...\n   *************  14828 Schedule:Week:Daily,\n   ************* indicated Name=Schedule:Week:Daily {865681dd-197f-43cf-a0e7-76ede8a97180}\n   ************* Only last 10 lines before error line shown.....\n   *************  14830   Sp-PatRoom1_Mult10_Flr_4 Sys-3 Flr-3 Sch-H HPlcmt-south ZN NECB System 3 PSZ Occ Sch Sunday, !- Sunday Schedule:Day Name\n   *************  14831   Sp-PatRoom1_Mult10_Flr_4 Sys-3 Flr-3 Sch-H HPlcmt-south ZN NECB System 3 PSZ Occ Sch Monday, !- Monday Schedule:Day Name\n   *************  14832   Sp-PatRoom1_Mult10_Flr_4 Sys-3 Flr-3 Sch-H HPlcmt-south ZN NECB System 3 PSZ Occ Sch Tuesday, !- Tuesday Schedule:Day Name\n   *************  14833   Sp-PatRoom1_Mult10_Flr_4 Sys-3 Flr-3 Sch-H HPlcmt-south ZN NECB System 3 PSZ Occ Sch Wednesday, !- Wednesday Schedule:Day Name\n   *************  14834   Sp-PatRoom1_Mult10_Flr_4 Sys-3 Flr-3 Sch-H HPlcmt-south ZN NECB System 3 PSZ Occ Sch Thursday, !- Thursday Schedule:Day Name\n   *************  14835   Sp-PatRoom1_Mult10_Flr_4 Sys-3 Flr-3 Sch-H HPlcmt-south ZN NECB System 3 PSZ Occ Sch Friday, !- Friday Schedule:Day Name\n   *************  14836   Sp-PatRoom1_Mult10_Flr_4 Sys-3 Flr-3 Sch-H HPlcmt-south ZN NECB System 3 PSZ Occ Sch Saturday, !- Saturday Schedule:Day Name\n   *************  14837   Sp-PatRoom1_Mult10_Flr_4 Sys-3 Flr-3 Sch-H HPlcmt-south ZN NECB System 3 PSZ Occ Sch Default, !- Holiday Schedule:Day Name\n   *************  14838   Sp-PatRoom1_Mult10_Flr_4 Sys-3 Flr-3 Sch-H HPlcmt-south ZN NECB System 3 PSZ Occ Sch Summer Design Day, !- SummerDesignDay Schedule:Day Name\n   *************  14839   Sp-PatRoom1_Mult10_Flr_4 Sys-3 Flr-3 Sch-H HPlcmt-south ZN NECB System 3 PSZ Occ Sch Winter Design Day, !- WinterDesignDay Schedule:Day Name\n   ** Warning ** IP: IDF line~14839 Alpha Argument length exceeds maximum, will be truncated=  Sp-PatRoom1_Mult10_Flr_4 Sys-3 Flr-3 Sch-H HPlcmt-south ZN NECB System 3 PSZ Occ Sch Winter Design Da\n   **   ~~~   ** Will be processed as Alpha=SP-PATROOM1_MULT10_FLR_4 SYS-3 FLR-3 SCH-H HPLCMT-SOUTH ZN NECB SYSTEM 3 PSZ OCC SCH WINTER DESIGN DAY\n   ************* IDF Context for following error/warning message:\n   ************* Note -- lines truncated at 300 characters, if necessary...\n   *************  14859 Schedule:Day:Interval,\n   ************* indicated Name=Sp-PatRoom1_Mult10_Flr_4 Sys-3 Flr-3 Sch-H HPlcmt-south ZN NECB System 3 PSZ Occ Sch Summer Design Day\n   ************* Only last 1 lines before error line shown.....\n   *************  14860   Sp-PatRoom1_Mult10_Flr_4 Sys-3 Flr-3 Sch-H HPlcmt-south ZN NECB System 3 PSZ Occ Sch Summer Design Day, !- Name\n   ** Warning ** IP: IDF line~14860 Alpha Argument length exceeds maximum, will be truncated=  Sp-PatRoom1_Mult10_Flr_4 Sys-3 Flr-3 Sch-H HPlcmt-south ZN NECB System 3 PSZ Occ Sch Summer Design Da\n   **   ~~~   ** Will be processed as Alpha=SP-PATROOM1_MULT10_FLR_4 SYS-3 FLR-3 SCH-H HPLCMT-SOUTH ZN NECB SYSTEM 3 PSZ OCC SCH SUMMER DESIGN DAY\n   ************* IDF Context for following error/warning message:\n   ************* Note -- lines truncated at 300 characters, if necessary...\n   *************  14866 Schedule:Day:Interval,\n   ************* indicated Name=Sp-PatRoom1_Mult10_Flr_4 Sys-3 Flr-3 Sch-H HPlcmt-south ZN NECB System 3 PSZ Occ Sch Winter Design Day\n   ************* Only last 1 lines before error line shown.....\n   *************  14867   Sp-PatRoom1_Mult10_Flr_4 Sys-3 Flr-3 Sch-H HPlcmt-south ZN NECB System 3 PSZ Occ Sch Winter Design Day, !- Name\n   ** Warning ** IP: IDF line~14867 Alpha Argument length exceeds maximum, will be truncated=  Sp-PatRoom1_Mult10_Flr_4 Sys-3 Flr-3 Sch-H HPlcmt-south ZN NECB System 3 PSZ Occ Sch Winter Design Da\n   **   ~~~   ** Will be processed as Alpha=SP-PATROOM1_MULT10_FLR_4 SYS-3 FLR-3 SCH-H HPLCMT-SOUTH ZN NECB SYSTEM 3 PSZ OCC SCH WINTER DESIGN DAY\n   ************* IDF Context for following error/warning message:\n   ************* Note -- lines truncated at 300 characters, if necessary...\n   *************  15733 Schedule:Week:Daily,\n   ************* indicated Name=Schedule:Week:Daily {e5ab7dd0-2be5-47ec-817a-8700addc3edc}\n   ************* Only last 10 lines before error line shown.....\n   *************  15734   Schedule:Week:Daily {e5ab7dd0-2be5-47ec-817a-8700addc3edc}, !- Name\n   *************  15735   Sp-PatRoom3_Mult10_Flr_3 Sys-3 Flr-2 Sch-H HPlcmt-east ZN NECB System 3 PSZ Occ Sch Sunday, !- Sunday Schedule:Day Name\n   *************  15736   Sp-PatRoom3_Mult10_Flr_3 Sys-3 Flr-2 Sch-H HPlcmt-east ZN NECB System 3 PSZ Occ Sch Monday, !- Monday Schedule:Day Name\n   *************  15737   Sp-PatRoom3_Mult10_Flr_3 Sys-3 Flr-2 Sch-H HPlcmt-east ZN NECB System 3 PSZ Occ Sch Tuesday, !- Tuesday Schedule:Day Name\n   *************  15738   Sp-PatRoom3_Mult10_Flr_3 Sys-3 Flr-2 Sch-H HPlcmt-east ZN NECB System 3 PSZ Occ Sch Wednesday, !- Wednesday Schedule:Day Name\n   *************  15739   Sp-PatRoom3_Mult10_Flr_3 Sys-3 Flr-2 Sch-H HPlcmt-east ZN NECB System 3 PSZ Occ Sch Thursday, !- Thursday Schedule:Day Name\n   *************  15740   Sp-PatRoom3_Mult10_Flr_3 Sys-3 Flr-2 Sch-H HPlcmt-east ZN NECB System 3 PSZ Occ Sch Friday, !- Friday Schedule:Day Name\n   *************  15741   Sp-PatRoom3_Mult10_Flr_3 Sys-3 Flr-2 Sch-H HPlcmt-east ZN NECB System 3 PSZ Occ Sch Saturday, !- Saturday Schedule:Day Name\n   *************  15742   Sp-PatRoom3_Mult10_Flr_3 Sys-3 Flr-2 Sch-H HPlcmt-east ZN NECB System 3 PSZ Occ Sch Default, !- Holiday Schedule:Day Name\n   *************  15743   Sp-PatRoom3_Mult10_Flr_3 Sys-3 Flr-2 Sch-H HPlcmt-east ZN NECB System 3 PSZ Occ Sch Summer Design Day, !- SummerDesignDay Schedule:Day Name\n   ** Warning ** IP: IDF line~15743 Alpha Argument length exceeds maximum, will be truncated=  Sp-PatRoom3_Mult10_Flr_3 Sys-3 Flr-2 Sch-H HPlcmt-east ZN NECB System 3 PSZ Occ Sch Summer Design Da\n   **   ~~~   ** Will be processed as Alpha=SP-PATROOM3_MULT10_FLR_3 SYS-3 FLR-2 SCH-H HPLCMT-EAST ZN NECB SYSTEM 3 PSZ OCC SCH SUMMER DESIGN DAY\n   ************* IDF Context for following error/warning message:\n   ************* Note -- lines truncated at 300 characters, if necessary...\n   *************  15733 Schedule:Week:Daily,\n   ************* indicated Name=Schedule:Week:Daily {e5ab7dd0-2be5-47ec-817a-8700addc3edc}\n   ************* Only last 10 lines before error line shown.....\n   *************  15735   Sp-PatRoom3_Mult10_Flr_3 Sys-3 Flr-2 Sch-H HPlcmt-east ZN NECB System 3 PSZ Occ Sch Sunday, !- Sunday Schedule:Day Name\n   *************  15736   Sp-PatRoom3_Mult10_Flr_3 Sys-3 Flr-2 Sch-H HPlcmt-east ZN NECB System 3 PSZ Occ Sch Monday, !- Monday Schedule:Day Name\n   *************  15737   Sp-PatRoom3_Mult10_Flr_3 Sys-3 Flr-2 Sch-H HPlcmt-east ZN NECB System 3 PSZ Occ Sch Tuesday, !- Tuesday Schedule:Day Name\n   *************  15738   Sp-PatRoom3_Mult10_Flr_3 Sys-3 Flr-2 Sch-H HPlcmt-east ZN NECB System 3 PSZ Occ Sch Wednesday, !- Wednesday Schedule:Day Name\n   *************  15739   Sp-PatRoom3_Mult10_Flr_3 Sys-3 Flr-2 Sch-H HPlcmt-east ZN NECB System 3 PSZ Occ Sch Thursday, !- Thursday Schedule:Day Name\n   *************  15740   Sp-PatRoom3_Mult10_Flr_3 Sys-3 Flr-2 Sch-H HPlcmt-east ZN NECB System 3 PSZ Occ Sch Friday, !- Friday Schedule:Day Name\n   *************  15741   Sp-PatRoom3_Mult10_Flr_3 Sys-3 Flr-2 Sch-H HPlcmt-east ZN NECB System 3 PSZ Occ Sch Saturday, !- Saturday Schedule:Day Name\n   *************  15742   Sp-PatRoom3_Mult10_Flr_3 Sys-3 Flr-2 Sch-H HPlcmt-east ZN NECB System 3 PSZ Occ Sch Default, !- Holiday Schedule:Day Name\n   *************  15743   Sp-PatRoom3_Mult10_Flr_3 Sys-3 Flr-2 Sch-H HPlcmt-east ZN NECB System 3 PSZ Occ Sch Summer Design Day, !- SummerDesignDay Schedule:Day Name\n   *************  15744   Sp-PatRoom3_Mult10_Flr_3 Sys-3 Flr-2 Sch-H HPlcmt-east ZN NECB System 3 PSZ Occ Sch Winter Design Day, !- WinterDesignDay Schedule:Day Name\n   ** Warning ** IP: IDF line~15744 Alpha Argument length exceeds maximum, will be truncated=  Sp-PatRoom3_Mult10_Flr_3 Sys-3 Flr-2 Sch-H HPlcmt-east ZN NECB System 3 PSZ Occ Sch Winter Design Da\n   **   ~~~   ** Will be processed as Alpha=SP-PATROOM3_MULT10_FLR_3 SYS-3 FLR-2 SCH-H HPLCMT-EAST ZN NECB SYSTEM 3 PSZ OCC SCH WINTER DESIGN DAY\n   ************* IDF Context for following error/warning message:\n   ************* Note -- lines truncated at 300 characters, if necessary...\n   *************  15764 Schedule:Day:Interval,\n   ************* indicated Name=Sp-PatRoom3_Mult10_Flr_3 Sys-3 Flr-2 Sch-H HPlcmt-east ZN NECB System 3 PSZ Occ Sch Summer Design Day\n   ************* Only last 1 lines before error line shown.....\n   *************  15765   Sp-PatRoom3_Mult10_Flr_3 Sys-3 Flr-2 Sch-H HPlcmt-east ZN NECB System 3 PSZ Occ Sch Summer Design Day, !- Name\n   ** Warning ** IP: IDF line~15765 Alpha Argument length exceeds maximum, will be truncated=  Sp-PatRoom3_Mult10_Flr_3 Sys-3 Flr-2 Sch-H HPlcmt-east ZN NECB System 3 PSZ Occ Sch Summer Design Da\n   **   ~~~   ** Will be processed as Alpha=SP-PATROOM3_MULT10_FLR_3 SYS-3 FLR-2 SCH-H HPLCMT-EAST ZN NECB SYSTEM 3 PSZ OCC SCH SUMMER DESIGN DAY\n   ************* IDF Context for following error/warning message:\n   ************* Note -- lines truncated at 300 characters, if necessary...\n   *************  15771 Schedule:Day:Interval,\n   ************* indicated Name=Sp-PatRoom3_Mult10_Flr_3 Sys-3 Flr-2 Sch-H HPlcmt-east ZN NECB System 3 PSZ Occ Sch Winter Design Day\n   ************* Only last 1 lines before error line shown.....\n   *************  15772   Sp-PatRoom3_Mult10_Flr_3 Sys-3 Flr-2 Sch-H HPlcmt-east ZN NECB System 3 PSZ Occ Sch Winter Design Day, !- Name\n   ** Warning ** IP: IDF line~15772 Alpha Argument length exceeds maximum, will be truncated=  Sp-PatRoom3_Mult10_Flr_3 Sys-3 Flr-2 Sch-H HPlcmt-east ZN NECB System 3 PSZ Occ Sch Winter Design Da\n   **   ~~~   ** Will be processed as Alpha=SP-PATROOM3_MULT10_FLR_3 SYS-3 FLR-2 SCH-H HPLCMT-EAST ZN NECB SYSTEM 3 PSZ OCC SCH WINTER DESIGN DAY\n   ************* IDF Context for following error/warning message:\n   ************* Note -- lines truncated at 300 characters, if necessary...\n   *************  16076 Schedule:Week:Daily,\n   ************* indicated Name=Schedule:Week:Daily {b18a27b7-6bae-4ffe-bb1e-7c4adf54facd}\n   ************* Only last 10 lines before error line shown.....\n   *************  16077   Schedule:Week:Daily {b18a27b7-6bae-4ffe-bb1e-7c4adf54facd}, !- Name\n   *************  16078   Sp-PatRoom3_Mult10_Flr_4 Sys-3 Flr-3 Sch-H HPlcmt-east ZN NECB System 3 PSZ Occ Sch Sunday, !- Sunday Schedule:Day Name\n   *************  16079   Sp-PatRoom3_Mult10_Flr_4 Sys-3 Flr-3 Sch-H HPlcmt-east ZN NECB System 3 PSZ Occ Sch Monday, !- Monday Schedule:Day Name\n   *************  16080   Sp-PatRoom3_Mult10_Flr_4 Sys-3 Flr-3 Sch-H HPlcmt-east ZN NECB System 3 PSZ Occ Sch Tuesday, !- Tuesday Schedule:Day Name\n   *************  16081   Sp-PatRoom3_Mult10_Flr_4 Sys-3 Flr-3 Sch-H HPlcmt-east ZN NECB System 3 PSZ Occ Sch Wednesday, !- Wednesday Schedule:Day Name\n   *************  16082   Sp-PatRoom3_Mult10_Flr_4 Sys-3 Flr-3 Sch-H HPlcmt-east ZN NECB System 3 PSZ Occ Sch Thursday, !- Thursday Schedule:Day Name\n   *************  16083   Sp-PatRoom3_Mult10_Flr_4 Sys-3 Flr-3 Sch-H HPlcmt-east ZN NECB System 3 PSZ Occ Sch Friday, !- Friday Schedule:Day Name\n   *************  16084   Sp-PatRoom3_Mult10_Flr_4 Sys-3 Flr-3 Sch-H HPlcmt-east ZN NECB System 3 PSZ Occ Sch Saturday, !- Saturday Schedule:Day Name\n   *************  16085   Sp-PatRoom3_Mult10_Flr_4 Sys-3 Flr-3 Sch-H HPlcmt-east ZN NECB System 3 PSZ Occ Sch Default, !- Holiday Schedule:Day Name\n   *************  16086   Sp-PatRoom3_Mult10_Flr_4 Sys-3 Flr-3 Sch-H HPlcmt-east ZN NECB System 3 PSZ Occ Sch Summer Design Day, !- SummerDesignDay Schedule:Day Name\n   ** Warning ** IP: IDF line~16086 Alpha Argument length exceeds maximum, will be truncated=  Sp-PatRoom3_Mult10_Flr_4 Sys-3 Flr-3 Sch-H HPlcmt-east ZN NECB System 3 PSZ Occ Sch Summer Design Da\n   **   ~~~   ** Will be processed as Alpha=SP-PATROOM3_MULT10_FLR_4 SYS-3 FLR-3 SCH-H HPLCMT-EAST ZN NECB SYSTEM 3 PSZ OCC SCH SUMMER DESIGN DAY\n   ************* IDF Context for following error/warning message:\n   ************* Note -- lines truncated at 300 characters, if necessary...\n   *************  16076 Schedule:Week:Daily,\n   ************* indicated Name=Schedule:Week:Daily {b18a27b7-6bae-4ffe-bb1e-7c4adf54facd}\n   ************* Only last 10 lines before error line shown.....\n   *************  16078   Sp-PatRoom3_Mult10_Flr_4 Sys-3 Flr-3 Sch-H HPlcmt-east ZN NECB System 3 PSZ Occ Sch Sunday, !- Sunday Schedule:Day Name\n   *************  16079   Sp-PatRoom3_Mult10_Flr_4 Sys-3 Flr-3 Sch-H HPlcmt-east ZN NECB System 3 PSZ Occ Sch Monday, !- Monday Schedule:Day Name\n   *************  16080   Sp-PatRoom3_Mult10_Flr_4 Sys-3 Flr-3 Sch-H HPlcmt-east ZN NECB System 3 PSZ Occ Sch Tuesday, !- Tuesday Schedule:Day Name\n   *************  16081   Sp-PatRoom3_Mult10_Flr_4 Sys-3 Flr-3 Sch-H HPlcmt-east ZN NECB System 3 PSZ Occ Sch Wednesday, !- Wednesday Schedule:Day Name\n   *************  16082   Sp-PatRoom3_Mult10_Flr_4 Sys-3 Flr-3 Sch-H HPlcmt-east ZN NECB System 3 PSZ Occ Sch Thursday, !- Thursday Schedule:Day Name\n   *************  16083   Sp-PatRoom3_Mult10_Flr_4 Sys-3 Flr-3 Sch-H HPlcmt-east ZN NECB System 3 PSZ Occ Sch Friday, !- Friday Schedule:Day Name\n   *************  16084   Sp-PatRoom3_Mult10_Flr_4 Sys-3 Flr-3 Sch-H HPlcmt-east ZN NECB System 3 PSZ Occ Sch Saturday, !- Saturday Schedule:Day Name\n   *************  16085   Sp-PatRoom3_Mult10_Flr_4 Sys-3 Flr-3 Sch-H HPlcmt-east ZN NECB System 3 PSZ Occ Sch Default, !- Holiday Schedule:Day Name\n   *************  16086   Sp-PatRoom3_Mult10_Flr_4 Sys-3 Flr-3 Sch-H HPlcmt-east ZN NECB System 3 PSZ Occ Sch Summer Design Day, !- SummerDesignDay Schedule:Day Name\n   *************  16087   Sp-PatRoom3_Mult10_Flr_4 Sys-3 Flr-3 Sch-H HPlcmt-east ZN NECB System 3 PSZ Occ Sch Winter Design Day, !- WinterDesignDay Schedule:Day Name\n   ** Warning ** IP: IDF line~16087 Alpha Argument length exceeds maximum, will be truncated=  Sp-PatRoom3_Mult10_Flr_4 Sys-3 Flr-3 Sch-H HPlcmt-east ZN NECB System 3 PSZ Occ Sch Winter Design Da\n   **   ~~~   ** Will be processed as Alpha=SP-PATROOM3_MULT10_FLR_4 SYS-3 FLR-3 SCH-H HPLCMT-EAST ZN NECB SYSTEM 3 PSZ OCC SCH WINTER DESIGN DAY\n   ************* IDF Context for following error/warning message:\n   ************* Note -- lines truncated at 300 characters, if necessary...\n   *************  16107 Schedule:Day:Interval,\n   ************* indicated Name=Sp-PatRoom3_Mult10_Flr_4 Sys-3 Flr-3 Sch-H HPlcmt-east ZN NECB System 3 PSZ Occ Sch Summer Design Day\n   ************* Only last 1 lines before error line shown.....\n   *************  16108   Sp-PatRoom3_Mult10_Flr_4 Sys-3 Flr-3 Sch-H HPlcmt-east ZN NECB System 3 PSZ Occ Sch Summer Design Day, !- Name\n   ** Warning ** IP: IDF line~16108 Alpha Argument length exceeds maximum, will be truncated=  Sp-PatRoom3_Mult10_Flr_4 Sys-3 Flr-3 Sch-H HPlcmt-east ZN NECB System 3 PSZ Occ Sch Summer Design Da\n   **   ~~~   ** Will be processed as Alpha=SP-PATROOM3_MULT10_FLR_4 SYS-3 FLR-3 SCH-H HPLCMT-EAST ZN NECB SYSTEM 3 PSZ OCC SCH SUMMER DESIGN DAY\n   ************* IDF Context for following error/warning message:\n   ************* Note -- lines truncated at 300 characters, if necessary...\n   *************  16114 Schedule:Day:Interval,\n   ************* indicated Name=Sp-PatRoom3_Mult10_Flr_4 Sys-3 Flr-3 Sch-H HPlcmt-east ZN NECB System 3 PSZ Occ Sch Winter Design Day\n   ************* Only last 1 lines before error line shown.....\n   *************  16115   Sp-PatRoom3_Mult10_Flr_4 Sys-3 Flr-3 Sch-H HPlcmt-east ZN NECB System 3 PSZ Occ Sch Winter Design Day, !- Name\n   ** Warning ** IP: IDF line~16115 Alpha Argument length exceeds maximum, will be truncated=  Sp-PatRoom3_Mult10_Flr_4 Sys-3 Flr-3 Sch-H HPlcmt-east ZN NECB System 3 PSZ Occ Sch Winter Design Da\n   **   ~~~   ** Will be processed as Alpha=SP-PATROOM3_MULT10_FLR_4 SYS-3 FLR-3 SCH-H HPLCMT-EAST ZN NECB SYSTEM 3 PSZ OCC SCH WINTER DESIGN DAY\n   ************* IDF Context for following error/warning message:\n   ************* Note -- lines truncated at 300 characters, if necessary...\n   *************  16981 Schedule:Week:Daily,\n   ************* indicated Name=Schedule:Week:Daily {5c92f834-f1ec-4839-88f8-047f504ed39a}\n   ************* Only last 10 lines before error line shown.....\n   *************  16982   Schedule:Week:Daily {5c92f834-f1ec-4839-88f8-047f504ed39a}, !- Name\n   *************  16983   Sp-PatRoom5_Mult10_Flr_3 Sys-3 Flr-2 Sch-H HPlcmt-north ZN NECB System 3 PSZ Occ Sch Sunday, !- Sunday Schedule:Day Name\n   *************  16984   Sp-PatRoom5_Mult10_Flr_3 Sys-3 Flr-2 Sch-H HPlcmt-north ZN NECB System 3 PSZ Occ Sch Monday, !- Monday Schedule:Day Name\n   *************  16985   Sp-PatRoom5_Mult10_Flr_3 Sys-3 Flr-2 Sch-H HPlcmt-north ZN NECB System 3 PSZ Occ Sch Tuesday, !- Tuesday Schedule:Day Name\n   *************  16986   Sp-PatRoom5_Mult10_Flr_3 Sys-3 Flr-2 Sch-H HPlcmt-north ZN NECB System 3 PSZ Occ Sch Wednesday, !- Wednesday Schedule:Day Name\n   *************  16987   Sp-PatRoom5_Mult10_Flr_3 Sys-3 Flr-2 Sch-H HPlcmt-north ZN NECB System 3 PSZ Occ Sch Thursday, !- Thursday Schedule:Day Name\n   *************  16988   Sp-PatRoom5_Mult10_Flr_3 Sys-3 Flr-2 Sch-H HPlcmt-north ZN NECB System 3 PSZ Occ Sch Friday, !- Friday Schedule:Day Name\n   *************  16989   Sp-PatRoom5_Mult10_Flr_3 Sys-3 Flr-2 Sch-H HPlcmt-north ZN NECB System 3 PSZ Occ Sch Saturday, !- Saturday Schedule:Day Name\n   *************  16990   Sp-PatRoom5_Mult10_Flr_3 Sys-3 Flr-2 Sch-H HPlcmt-north ZN NECB System 3 PSZ Occ Sch Default, !- Holiday Schedule:Day Name\n   *************  16991   Sp-PatRoom5_Mult10_Flr_3 Sys-3 Flr-2 Sch-H HPlcmt-north ZN NECB System 3 PSZ Occ Sch Summer Design Day, !- SummerDesignDay Schedule:Day Name\n   ** Warning ** IP: IDF line~16991 Alpha Argument length exceeds maximum, will be truncated=  Sp-PatRoom5_Mult10_Flr_3 Sys-3 Flr-2 Sch-H HPlcmt-north ZN NECB System 3 PSZ Occ Sch Summer Design Da\n   **   ~~~   ** Will be processed as Alpha=SP-PATROOM5_MULT10_FLR_3 SYS-3 FLR-2 SCH-H HPLCMT-NORTH ZN NECB SYSTEM 3 PSZ OCC SCH SUMMER DESIGN DAY\n   ************* IDF Context for following error/warning message:\n   ************* Note -- lines truncated at 300 characters, if necessary...\n   *************  16981 Schedule:Week:Daily,\n   ************* indicated Name=Schedule:Week:Daily {5c92f834-f1ec-4839-88f8-047f504ed39a}\n   ************* Only last 10 lines before error line shown.....\n   *************  16983   Sp-PatRoom5_Mult10_Flr_3 Sys-3 Flr-2 Sch-H HPlcmt-north ZN NECB System 3 PSZ Occ Sch Sunday, !- Sunday Schedule:Day Name\n   *************  16984   Sp-PatRoom5_Mult10_Flr_3 Sys-3 Flr-2 Sch-H HPlcmt-north ZN NECB System 3 PSZ Occ Sch Monday, !- Monday Schedule:Day Name\n   *************  16985   Sp-PatRoom5_Mult10_Flr_3 Sys-3 Flr-2 Sch-H HPlcmt-north ZN NECB System 3 PSZ Occ Sch Tuesday, !- Tuesday Schedule:Day Name\n   *************  16986   Sp-PatRoom5_Mult10_Flr_3 Sys-3 Flr-2 Sch-H HPlcmt-north ZN NECB System 3 PSZ Occ Sch Wednesday, !- Wednesday Schedule:Day Name\n   *************  16987   Sp-PatRoom5_Mult10_Flr_3 Sys-3 Flr-2 Sch-H HPlcmt-north ZN NECB System 3 PSZ Occ Sch Thursday, !- Thursday Schedule:Day Name\n   *************  16988   Sp-PatRoom5_Mult10_Flr_3 Sys-3 Flr-2 Sch-H HPlcmt-north ZN NECB System 3 PSZ Occ Sch Friday, !- Friday Schedule:Day Name\n   *************  16989   Sp-PatRoom5_Mult10_Flr_3 Sys-3 Flr-2 Sch-H HPlcmt-north ZN NECB System 3 PSZ Occ Sch Saturday, !- Saturday Schedule:Day Name\n   *************  16990   Sp-PatRoom5_Mult10_Flr_3 Sys-3 Flr-2 Sch-H HPlcmt-north ZN NECB System 3 PSZ Occ Sch Default, !- Holiday Schedule:Day Name\n   *************  16991   Sp-PatRoom5_Mult10_Flr_3 Sys-3 Flr-2 Sch-H HPlcmt-north ZN NECB System 3 PSZ Occ Sch Summer Design Day, !- SummerDesignDay Schedule:Day Name\n   *************  16992   Sp-PatRoom5_Mult10_Flr_3 Sys-3 Flr-2 Sch-H HPlcmt-north ZN NECB System 3 PSZ Occ Sch Winter Design Day, !- WinterDesignDay Schedule:Day Name\n   ** Warning ** IP: IDF line~16992 Alpha Argument length exceeds maximum, will be truncated=  Sp-PatRoom5_Mult10_Flr_3 Sys-3 Flr-2 Sch-H HPlcmt-north ZN NECB System 3 PSZ Occ Sch Winter Design Da\n   **   ~~~   ** Will be processed as Alpha=SP-PATROOM5_MULT10_FLR_3 SYS-3 FLR-2 SCH-H HPLCMT-NORTH ZN NECB SYSTEM 3 PSZ OCC SCH WINTER DESIGN DAY\n   ************* IDF Context for following error/warning message:\n   ************* Note -- lines truncated at 300 characters, if necessary...\n   *************  17012 Schedule:Day:Interval,\n   ************* indicated Name=Sp-PatRoom5_Mult10_Flr_3 Sys-3 Flr-2 Sch-H HPlcmt-north ZN NECB System 3 PSZ Occ Sch Summer Design Day\n   ************* Only last 1 lines before error line shown.....\n   *************  17013   Sp-PatRoom5_Mult10_Flr_3 Sys-3 Flr-2 Sch-H HPlcmt-north ZN NECB System 3 PSZ Occ Sch Summer Design Day, !- Name\n   ** Warning ** IP: IDF line~17013 Alpha Argument length exceeds maximum, will be truncated=  Sp-PatRoom5_Mult10_Flr_3 Sys-3 Flr-2 Sch-H HPlcmt-north ZN NECB System 3 PSZ Occ Sch Summer Design Da\n   **   ~~~   ** Will be processed as Alpha=SP-PATROOM5_MULT10_FLR_3 SYS-3 FLR-2 SCH-H HPLCMT-NORTH ZN NECB SYSTEM 3 PSZ OCC SCH SUMMER DESIGN DAY\n   ************* IDF Context for following error/warning message:\n   ************* Note -- lines truncated at 300 characters, if necessary...\n   *************  17019 Schedule:Day:Interval,\n   ************* indicated Name=Sp-PatRoom5_Mult10_Flr_3 Sys-3 Flr-2 Sch-H HPlcmt-north ZN NECB System 3 PSZ Occ Sch Winter Design Day\n   ************* Only last 1 lines before error line shown.....\n   *************  17020   Sp-PatRoom5_Mult10_Flr_3 Sys-3 Flr-2 Sch-H HPlcmt-north ZN NECB System 3 PSZ Occ Sch Winter Design Day, !- Name\n   ** Warning ** IP: IDF line~17020 Alpha Argument length exceeds maximum, will be truncated=  Sp-PatRoom5_Mult10_Flr_3 Sys-3 Flr-2 Sch-H HPlcmt-north ZN NECB System 3 PSZ Occ Sch Winter Design Da\n   **   ~~~   ** Will be processed as Alpha=SP-PATROOM5_MULT10_FLR_3 SYS-3 FLR-2 SCH-H HPLCMT-NORTH ZN NECB SYSTEM 3 PSZ OCC SCH WINTER DESIGN DAY\n   ************* IDF Context for following error/warning message:\n   ************* Note -- lines truncated at 300 characters, if necessary...\n   *************  17324 Schedule:Week:Daily,\n   ************* indicated Name=Schedule:Week:Daily {f6b2479f-97f5-4165-9353-863220932484}\n   ************* Only last 10 lines before error line shown.....\n   *************  17325   Schedule:Week:Daily {f6b2479f-97f5-4165-9353-863220932484}, !- Name\n   *************  17326   Sp-PatRoom5_Mult10_Flr_4 Sys-3 Flr-3 Sch-H HPlcmt-north ZN NECB System 3 PSZ Occ Sch Sunday, !- Sunday Schedule:Day Name\n   *************  17327   Sp-PatRoom5_Mult10_Flr_4 Sys-3 Flr-3 Sch-H HPlcmt-north ZN NECB System 3 PSZ Occ Sch Monday, !- Monday Schedule:Day Name\n   *************  17328   Sp-PatRoom5_Mult10_Flr_4 Sys-3 Flr-3 Sch-H HPlcmt-north ZN NECB System 3 PSZ Occ Sch Tuesday, !- Tuesday Schedule:Day Name\n   *************  17329   Sp-PatRoom5_Mult10_Flr_4 Sys-3 Flr-3 Sch-H HPlcmt-north ZN NECB System 3 PSZ Occ Sch Wednesday, !- Wednesday Schedule:Day Name\n   *************  17330   Sp-PatRoom5_Mult10_Flr_4 Sys-3 Flr-3 Sch-H HPlcmt-north ZN NECB System 3 PSZ Occ Sch Thursday, !- Thursday Schedule:Day Name\n   *************  17331   Sp-PatRoom5_Mult10_Flr_4 Sys-3 Flr-3 Sch-H HPlcmt-north ZN NECB System 3 PSZ Occ Sch Friday, !- Friday Schedule:Day Name\n   *************  17332   Sp-PatRoom5_Mult10_Flr_4 Sys-3 Flr-3 Sch-H HPlcmt-north ZN NECB System 3 PSZ Occ Sch Saturday, !- Saturday Schedule:Day Name\n   *************  17333   Sp-PatRoom5_Mult10_Flr_4 Sys-3 Flr-3 Sch-H HPlcmt-north ZN NECB System 3 PSZ Occ Sch Default, !- Holiday Schedule:Day Name\n   *************  17334   Sp-PatRoom5_Mult10_Flr_4 Sys-3 Flr-3 Sch-H HPlcmt-north ZN NECB System 3 PSZ Occ Sch Summer Design Day, !- SummerDesignDay Schedule:Day Name\n   ** Warning ** IP: IDF line~17334 Alpha Argument length exceeds maximum, will be truncated=  Sp-PatRoom5_Mult10_Flr_4 Sys-3 Flr-3 Sch-H HPlcmt-north ZN NECB System 3 PSZ Occ Sch Summer Design Da\n   **   ~~~   ** Will be processed as Alpha=SP-PATROOM5_MULT10_FLR_4 SYS-3 FLR-3 SCH-H HPLCMT-NORTH ZN NECB SYSTEM 3 PSZ OCC SCH SUMMER DESIGN DAY\n   ************* IDF Context for following error/warning message:\n   ************* Note -- lines truncated at 300 characters, if necessary...\n   *************  17324 Schedule:Week:Daily,\n   ************* indicated Name=Schedule:Week:Daily {f6b2479f-97f5-4165-9353-863220932484}\n   ************* Only last 10 lines before error line shown.....\n   *************  17326   Sp-PatRoom5_Mult10_Flr_4 Sys-3 Flr-3 Sch-H HPlcmt-north ZN NECB System 3 PSZ Occ Sch Sunday, !- Sunday Schedule:Day Name\n   *************  17327   Sp-PatRoom5_Mult10_Flr_4 Sys-3 Flr-3 Sch-H HPlcmt-north ZN NECB System 3 PSZ Occ Sch Monday, !- Monday Schedule:Day Name\n   *************  17328   Sp-PatRoom5_Mult10_Flr_4 Sys-3 Flr-3 Sch-H HPlcmt-north ZN NECB System 3 PSZ Occ Sch Tuesday, !- Tuesday Schedule:Day Name\n   *************  17329   Sp-PatRoom5_Mult10_Flr_4 Sys-3 Flr-3 Sch-H HPlcmt-north ZN NECB System 3 PSZ Occ Sch Wednesday, !- Wednesday Schedule:Day Name\n   *************  17330   Sp-PatRoom5_Mult10_Flr_4 Sys-3 Flr-3 Sch-H HPlcmt-north ZN NECB System 3 PSZ Occ Sch Thursday, !- Thursday Schedule:Day Name\n   *************  17331   Sp-PatRoom5_Mult10_Flr_4 Sys-3 Flr-3 Sch-H HPlcmt-north ZN NECB System 3 PSZ Occ Sch Friday, !- Friday Schedule:Day Name\n   *************  17332   Sp-PatRoom5_Mult10_Flr_4 Sys-3 Flr-3 Sch-H HPlcmt-north ZN NECB System 3 PSZ Occ Sch Saturday, !- Saturday Schedule:Day Name\n   *************  17333   Sp-PatRoom5_Mult10_Flr_4 Sys-3 Flr-3 Sch-H HPlcmt-north ZN NECB System 3 PSZ Occ Sch Default, !- Holiday Schedule:Day Name\n   *************  17334   Sp-PatRoom5_Mult10_Flr_4 Sys-3 Flr-3 Sch-H HPlcmt-north ZN NECB System 3 PSZ Occ Sch Summer Design Day, !- SummerDesignDay Schedule:Day Name\n   *************  17335   Sp-PatRoom5_Mult10_Flr_4 Sys-3 Flr-3 Sch-H HPlcmt-north ZN NECB System 3 PSZ Occ Sch Winter Design Day, !- WinterDesignDay Schedule:Day Name\n   ** Warning ** IP: IDF line~17335 Alpha Argument length exceeds maximum, will be truncated=  Sp-PatRoom5_Mult10_Flr_4 Sys-3 Flr-3 Sch-H HPlcmt-north ZN NECB System 3 PSZ Occ Sch Winter Design Da\n   **   ~~~   ** Will be processed as Alpha=SP-PATROOM5_MULT10_FLR_4 SYS-3 FLR-3 SCH-H HPLCMT-NORTH ZN NECB SYSTEM 3 PSZ OCC SCH WINTER DESIGN DAY\n   ************* IDF Context for following error/warning message:\n   ************* Note -- lines truncated at 300 characters, if necessary...\n   *************  17355 Schedule:Day:Interval,\n   ************* indicated Name=Sp-PatRoom5_Mult10_Flr_4 Sys-3 Flr-3 Sch-H HPlcmt-north ZN NECB System 3 PSZ Occ Sch Summer Design Day\n   ************* Only last 1 lines before error line shown.....\n   *************  17356   Sp-PatRoom5_Mult10_Flr_4 Sys-3 Flr-3 Sch-H HPlcmt-north ZN NECB System 3 PSZ Occ Sch Summer Design Day, !- Name\n   ** Warning ** IP: IDF line~17356 Alpha Argument length exceeds maximum, will be truncated=  Sp-PatRoom5_Mult10_Flr_4 S
[...]
///qT+OXsp58H4sPJ+Uk1B6fpqi0fHJWiiSQUcRglIpjdpvNgKLKSJrFw4mGavHjBuILHZd8rP892ZqctrqsvLpFMZlEgpk4Uy1M/dJKWo5b8rXQon527zs5V6szyFO2ZbH4LZY4fN1vp5Sn/zMI9C/bWG1eOnJmfiGkUpmuYfNMWb77f3x8MTk7ebLjwDHCAAxzgAAc4wAEOcIADHOD8NXFEPLtN/wksXKlOCteZK6JIuqABDWhAAxrQgAY0oAENaEADmmKa++yjWX+iufZnEjjAAQ5wgAMc4AAHOMABDnCAUwfn6XsDLfW9gRcz6nsDe1b2hO34eGfn4ACkIAUpSEEKUpCCFKQgBSlIQQpSkL4OUjsjdRKKtJuR9nq2vb8LUpCCFKQgBSlIQQpSkIIUpCAFKUhfB2lPkZ5GHkFqH2SklrW31+uBFKQgBSlIQQpSkIIUpCAFKUhBCtLXQbqjSD9PZhTpfkZ6kB79dyAFKUhBClKQghSkIAUpSEEKUpCC9HWQ9hXp79KlSPcy0vfvB4O9PZCCFKQgBSlIQQpSkIIUpCAFKUhB+jpId7O/TMwkRbqbkQ4Gu7sgBSlIQQpSkIIUpCAFKUhBClKQgvS1kO4p0o8hVVnQ7mek+/u23e+DFKQgBSlIQQpSkIIUpCAFKUhBCtLGSJcobuTct0qdPZiJl/jyYuJMpZnIh6T15kM4i+JyjPm3Ld97tzKIvTDwZZx5KHGxvS2OXVc4IvMk7r1kIuLwVgq3V9IyvhubznQqA7dlKG1jq6TB8jCdJIlaxoPRFrtdzUbztJFdvVGczH25wOs4wXASRml7w5cjDdrcxygMks699MaTRPm4Dn23uo/F2FxMO5+c5DwMb/euPs78xOpenfrR1Y64mMednkh/T39eDCedD+LDJ394q/TiRPz7V/HryeCduiqRt6InPl38W5wNh+rSN1tFA/x2Ox5G3jT5O3nN223Xu3vZTLahnaW+hOceGUM1+wdphzleIKMr29o3RNaNR4brxVPfmR96gZ/aOtd+OPz6o0EDpl4X9yCS+TRtr3py+8a5cxZnC1uq486J1EwVR8L1bqe+NAN5f3E3bhnfvwDZFjvdbvajNPSUX9dJnNTx5R+G71xL3zg0XDly0oEV0ygceb402gvL1YNxaJndtnHn+DOZ/z5UK1TaJl10BoOTE+OxXcmPzeSnx+Rnh8lPn8nPLpOfPSY/+0x+Dpj8WF0uR1wz2uKa0hbXnLa4JrXFNastrmltcc1ri2tiW1wz2+aa2TbbWs01s22umW1rzWwRz25vV76yutKOFklXww3ZR3puyB7Sc0P2j54bMu713JBRr+eGjHk9N2TE67kh413PDb2Rafphmsf0Nqbph2km05uYph+muUxvYZp+mGYzvYFp+mGaz/T2pemHa11mms/03qXpp/p8vveCRH/bulanqvshu0fTD9k9mn7I7tH0Q4a7ph8y3DX9kOGu6YcMd00/ZLhr+qH3L11HXDOa3sF0HXHNaXoP03XENavpXUzXEde8pvcxXUdcM5veyXQdsa3VXDOb3sx0HVWf2U/PMEq/Y5ja5ror/9BbfAkxg4S9eYne5iV2Ni/R37zE7uYl9jYvsb95iYPNS6zs7JvSaCC+C/4wy6dB/2WLT4P+oxefBv2XXj4N+o/AfBr034f5NOg/HfNp0H9V5tv/Gohzu4l9vIGN3G5gJ7frbeWlX+VYLa1afNcjgwQ9GmwS9GCwSdBjwSZBp1VsEnRaxSZBp1VsEnRaxSZBp1VsEgVPrvk06Ed/fBp0WsWnQadVfBp0WsWnQadVfBp0WsWnQadVfBp0WsWnQadVfPtfA3Fe8IifT6OBjbwgreLTqLeVl35jVrW0avGVWgwS9GiwSdCDwSZBjwWbBJ1WsUnQaRWbBJ1WsUnQaRWbBJ1WsUkUpFV8GvRyy6dBp1V8GnRaxadBp1V8GnRaxadBp1V8GnRaxadBp1V8GnRaxbf/NRDnBWkVn0YDG3lBWsWnUW8rL/1ikmpp1eKbSxgk6NFgk6AHg02CHgs2CTqtYpOg0yo2CTqtYpOg0yo2CTqtYpMoSKv4NOjllk+DTqv4NOi0ik+DTqv4NOi0ik+DTqv4NOi0ik+DTqv4NOi0im//ayDOC9IqPo0GNvKCtIpPo95WXlr/vVpatSgQzyBBjwabBD0YbBL0WLBJ0GkVmwSdVrFJ0GkVmwSdVrFJ0GkVm0RBWsWnQS+3fBp0WsWnQadVfBp0WsWnQadVfBp0WsWnQadVfBp0WsWnQadVfPtfA3FekFbxaTSwkRekVXwa9bby0jK71dKqRR1eBgl6NNgk6MFgk6DHgk2CTqvYJOi0ik2CTqvYJOi0ik2CTqvYJArSKj4Nernl06DTKj4NOq3i06DTKj4NOq3i06DTKj4NOq3i06DTKj4NOq3i2/8aiPOCtIpPo4GNvCCt4tOot5WXVjOsllYtyh0ySNCjwSZBDwabBD0WbBJ0WsUmQadVbBJ0WsUmQadVbBJ0WsUmUVhsjUuDXm75NIoKWXFpFNW44tIoKn/FpVFU841Lo6gcHJdGUaU4Lo2iInJcGkX15bj2vwbivLAqHZdGAxt5QVrFp1G+lX+pUuE1L+QsjkQg75cVZLPCsa34btzOKsCWlopdVoOOZfIunAVu3Op328Ky+m3RU7/Z/WrlZh9SjKci1647cBI5DqP58YMXL6opP91/hZLTqYOzyJXR+UwVN67cUHHMVzk+SieeRXKBoeoz5/2+4XLfMMMMM8wwwwwzzDDDDDPMMMMMM8wwwwwzzDDDDDPMMMMMM8wwwwwzzDDDDDPMMMMMM8wwwwwzzDDDDDPMMMMMM8wwwwwzzDD/pcxzM7yTUeS58qOjXqy1zO6a76uqV2Pj1VdjL2TkyTh/vdZoL18gnvphYvpeIEtfkY1fek+3/M3a2My+en4a+k7ihUEKZcSJnHau5SiMpFHtzedf5FgG7uoNLc61drtt0VNvLnfVi8zqh+HLUaLASlwv3ZpXY5mcBInqn1RiNAuGGWlrS/xR4mJJKJ9aX5a+y60ObyRaycSLzTgblWpC6njWyEz778QZTlr/Adb1tsRXr46n7Lnfq2kYe8rh+/R0lbtZHsrNC1RReK+HtMTyAleqeOhYbc3Wy+OmbsORJ30131p5ny7iZByFs6l0xQ8/iO/y8w/m1cSJ8/ffVYBtPbfOX7SmHWI64/Gp0jB9GYyTiXgrbPEPYRz7viEOV6+IfW8oWx1r67L7Zas03r65kzASrZv0Vro/iptUJp+qua4697d0xdEfIHWoaZz7u7z5Yn6Vc3F0dLTovHoeM6/5sN/o3uryuI6k87VO40fNNrrXq/7K7+5ITWs1GfKZkhVyMK+cOPbGgXQHqkREfJn15Jd6Xbkc6OksnrTqjkU6pIeL8awfSb5/WOUuTXVlXZU4icKvsprO4tq6SuHUGXrJvJpUfnHtu8okllJ1vSwXktVlpU54aC8+6liG8+rCIzrC0vWmE27VWR/b2a5a6frHspxCHdvb4tNvn8W/zn47Fxdn559//vUn8cvZTz8PxIeT85NqDk7TVVs+OCpFE0ko4jBKRDC7TefBUGQlTWLhxMM0efGCcQWPy75Xfp7tzE5bXFdfXCKZzKJATJ0olqd+6CQtRy35W+lQPjt3nZ2r1JnlKdoz2fwWyhw/brbSy1P+mYV7FuytN64cOTM/EdMoTNcw+aYt3ny/vz8YnJy82XDhGeAABzjAAQ5wgAMc4AAHOMD5a+KIeHab/hNYuFKdFK4zV0SRdEEDGtCABjSgAQ1oQAMa0IAGNMU099lHs/5Ec+3PJHCAAxzgAAc4wAEOcIADHOAApw7O0/cGWup7Ay9m1PcG9qzsCdvx8c7OwQFIQQpSkIIUpCAFKUhBClKQghSkIH0dpHZG6iQUaTcj7fVse38XpCAFKUhBClKQghSkIAUpSEEKUpC+DtKeIj2NPILUPshILWtvr9cDKUhBClKQghSkIAUpSEEKUpCCFKSvg3RHkX6ezCjS/Yz0ID3670AKUpCCFKQgBSlIQQpSkIIUpCAF6esg7SvS36VLke5lpO/fDwZ7eyAFKUhBClKQghSkIAUpSEEKUpCC9HWQ7mZ/mZhJinQ3Ix0MdndBClKQghSkIAUpSEEKUpCCFKQgBelrId1TpB9DqrKg3c9I9/dtu98HKUhBClKQghSkIAUpSEEKUpCCFKSNkS5R3Mi5b5U6ezATL/HlxcSZSjORD0nrzYdwFsXlGPNvW773bmUQe2HgyzjzUOJie1scu65wROZJ3HvJRMThrRRur6RlfDc2nelUBm7LUNrGVkmD5WE6SRK1jAejLXa7mo3maSO7eqM4mftygddxguEkjNL2hi9HGrS5j1EYJJ176Y0nifJxHfpudR+LsbmYdj5N5vHniYyc6fzq1I+ueuJiHnd6Iv29Y4uL4aQzEB8++cPbpDMMIyn+/av49WTwTl2VyFvRE58u/i3OhkN16ZutosF9ux0PI2+a/J285u226929bCbb0M5SX8Jzj4yhmvmDtLMcL5DRlW0dGCLrwiPD9eKp78wPvcBPbZ1rPxx+/dGgAVOvi3sQyXyatle9uH3j3DmLs4Ut1XHnRGqWiiPherdTX5qBvL+4G7eM71+AbIudbjf7URp2yq/rJE7q+PIPw3eupW8cGq4cOTM/EdMoHHm+NNoLy9WDcWiZ3bZx5/gzmf8+VKtT2iZdcAaDkxPjsV3Jj83kp8fkZ4fJT5/Jzy6Tnz0mP/tMfg6Y/FhdLkdcM9rimtIW15y2uCa1xTWrLa5pbXHNa4trYltcM9vmmtk221rNNbNtrplta81sEc9ub1e+rrrSjhZJV8MN2Ud6bsge0nND9o+eGzLu9dyQUa/nhox5PTdkxOu5IeNdzw29kWn6YZrH9Dam6YdpJtObmKYfprlMb2GafphmM72Bafphms/09qXph2tdZprP9N6l6af6fL73gkR/27pWp6r7IbtH0w/ZPZp+yO7R9EOGu6YfMtw1/ZDhrumHDHdNP2S4a/qh9y9dR1wzmt7BdB1xzWl6D9N1xDWr6V1M1xHXvKb3MV1HXDOb3sl0HbGt1Vwzm97MdB1Vn9lPzy9Kv1+42t8bF19AzCBB/+uWTYL+dy+bBP0vYjYJ+q9AbBL034fYJOi/HLFJ0H9TYpOg/9rEJlHwJ1Y+jQbiu+APs3waDUR4wZ9z+TQaiPGCPwLzaTQQ5QV/OubTaCDOC/7gzKfRxD7eQJwX/AWbT6NenJd+jWO1tGrxPY8MEvRosEnQg8EmQY8FmwS95LJJ0CsumwS94LJJ0OstmwS93LJJFKRVfBoNxHdBWsWn0UCEF6RVfBoNxHhBWsWn0UCUF6RVfBoNxHlBWsWn0cQ+3kCcF6RVfBr14rz027KqpVWLr9NikKBHg02CHgw2CXos2CToJZdNgl5x2SToBZdNgl5v2STo5ZZNoiCt4tNoIL4L0io+jQYivCCt4tNoIMYL0io+jQaivCCt4tNoIM4L0io+jSb28QbivCCt4tOoF+elX0pSLa1afGsJgwQ9GmwS9GCwSdBjwSZBL7lsEvSKyyZBL7hsEvR6yyZBL7dsEgVpFZ9GA/FdkFbxaTQQ4QVpFZ9GAzFekFbxaTQQ5QVpFZ9GA3FekFbxaTSxjzcQ5wVpFZ9GvTgvrf1eLa1aFIdnkKBHg02CHgw2CXos2CToJZdNgl5x2SToBZdNgl5v2STo5ZZNoiCt4tNoIL4L0io+jQYivCCt4tNoIMYL0io+jQaivCCt4tNoIM4L0io+jSb28QbivCCt4tOoF+elJXarpVWLGrwMEvRosEnQg8EmQY8FmwS95LJJ0CsumwS94LJJ0OstmwS93LJJFKRVfBoNxHdBWsWn0UCEF6RVfBoNxHhBWsWn0UCUF6RVfBoNxHlBWsWn0cQ+3kCcF6RVfBr14ry0kmG1tGpR6pBBoqjODZNEUQUcJomi2jhMEkX1oJgkiipFMUkU1ZBikiiqLsUkUVR3ikmisNgal0YD8V1Yoo1Lo4EILyzsxqXRQIwXloPj0mggyguLyHFpNBDnhaXnuDSa2McbiPPCWnZcGuVx/qVKhde8iLM4EoG8X1aQzQrHtuK7cTurAFtaKnZZCTqWybtwFrhxq99tC8vqt0VP/Wb3q5WbfUgxngpcu+7ASeQ4jObHD168qKT8dP8Vyk2nDs4iV0bnM1XYuHJDxTFf5fgonXgWyQWGqs2c9/uGS33DDDPMMMMMM8wwwwwzzDDDDDPMMMMMM8wwwwwzzDDDDDPMMMMMM8wwwwwzzDDDDDPMMMMMM8wwwwwzzDDDDDPMMMMMM8www/yXMs/N8E5GkefKj456sdYyu2u+r6pejY1XX429kJEn4/z1WqO9fIF46oeJ6XuBLH1FNn7pPd3yN2tjM/vq+WnoO4kXBimUESdy2rmWozCSRrU3n3+RYxm4qze0ONfa7bZFT7253FUvMqsfhi9HiQIrcb10a16NZXISJKp/UonRLBhmpK0t8UeJiyWhfGp9Wfoutzq8kWglEy8242xUqgmp41kjM+2/E2c4af0HWNfbEl+9Op6y536vpmHsKYfv09NV7mZ5KDcvUEXhvR7SEssLXKnioWO1NVsvj5u6DUee9NV8a+V9uoiTcRTOptIVP/wgvsvPP5hXEyfO339XAbb13Dp/0Zp2iOmMx6dKw/RlME4m4q2wxT+Ecez7hjhcvSL2vaFsdayty+6XrdJ4++ZOwki0btJb6f4oblKZfKrmuurc39IVR3+A1KGmce7v8uaL+VXOxdHR0aLz6nnMvObDfqN7q8vjOpLO1zqNHzXb6F6v+iu/uyM1rdVkyGdKVsjBvHLi2BsH0h2oEhHxZdaTX+p15XKgp7N40qo7FumQHi7Gs34k+f5hlbs01ZV1VeIkCr/KajqLa+sqhVNn6CXzalL5xbXvKpNYStX1slxIVpeVOuGhvfioYxnOqwuP6AhL15tOuFVnfWxnu2ql6x/Lcgp1bG+LT799Fv86++1cXJydf/7515/EL2c//TwQH07OT6o5OE1XbfngqBRNJKGIwygRwew2nQdDkZU0iYUTD9PkxQvGFTwu+175ebYzO21xXX1xiWQyiwIxdaJYnvqhk7QcteRvpUP57Nx1dq5SZ5anaM9k81soc/y42UovT/lnFu5ZsLfeuHLkzPxETKMwXcPkm7Z48/3+/mBwcvJmw4VngAMc4AAHOMABDnCAAxzgAOeviSPi2W36T2DhSnVSuM5cEUXSBQ1oQAMa0IAGNKABDWhAAxrQFNPcZx/N+hPNtT+TwAEOcIADHOAABzjAAQ5wgAOcOjhP3xtoqe8NvJhR3xvYs7InbMfHOzsHByAFKUhBClKQghSkIAUpSEEKUpCC9HWQ2hmpk1Ck3Yy017Pt/V2QghSkIAUpSEEKUpCCFKQgBSlIQfo6SHuK9DTyCFL7ICO1rL29Xg+kIAUpSEEKUpCCFKQgBSlIQQpSkL4O0h1F+nkyo0j3M9KD9Oi/AylIQQpSkIIUpCAFKUhBClKQghSkr4O0r0h/ly5FupeRvn8/GOztgRSkIAUpSEEKUpCCFKQgBSlIQQrS10G6m/1lYiYp0t2MdDDY3QUpSEEKUpCCFKQgBSlIQQpSkIIUpK+FdE+RfgypyoJ2PyPd37ftfh+kIAUpSEEKUpCCFKQgBSlIQQpSkDZGukRxI+e+VerswUy8xJcXE2cqzUQ+JK03H8JZFJdjzL9t+d67lUHshYEv48xDiYvtbXHsusIRmSdx7yUTEYe3Uri9kpbx3dh0plMZuC1DaRtbJQ2Wh+kkSdQyHoy22O1qNpqnjezqjeJk7ssFXscJhpMwStsbvhxp0OY+RmGQdO6lN54kysd16LvVfSzG5mLaOXdcL52Z4/nVqR9d7YiLedzpifT39OfFcNL5ID588oe3SWcYRlL8+1fx68ngnboqkbeiJz5d/FucDYfq0jdbRUP7djseRt40+Tt5zdtt17t72Uy2oZ2lvoTnHhlDNe8HaVc5XiCjK9vuGiLrwCPD9eKp78wPvcBPbZ1rPxx+/dGgAVOvi3sQyXyatld9uH3j3DmLs4Ut1XHnRGqOiiPherdTX5qBvL+4G7eM71+AbIudbjf7URp0yq/rJE7q+PIPw3eupW8cGq4cOTM/EdMoHHm+NNoLy9WDcWiZ3bZx5/gzaRz2+2bv4NnR67eNoVqqUhfp6jMYnJwYj+1Kbu3NuO1txu3OZtz2N+N2dzNu9zbjdn8zbg8249bqbsjvhuLM2lCgWRuKNGtDoWZtKNasDQWbtaFoszYUbtaG4s3eULzZm9rXNhRv9obizV4n3kQ8u71d+VLwOplDJF0Nr1X7V89r1d7V81q1b/W8Vl3J9LxWXcf0vFZdxfS8Vl3D9LxWXcH0vFZOGDTdbia6KqcLmm43E1+VkwVNt5uJsMqpgqbbzcRY5URB0+1moqxymqDpdkN72GairHKOoOm2dpTde0Gydnpwra6o7rZq12q6rdq1mm6rdq2m26oLmKbbqguYptuqC5im26oLmKbbqguYptvKeYKu3w3FWeVMQdfvhiKtcq6g63dDsVY5W9D1u6Foq5wv6PrdULxVzhh0/W5qX9tQvFVOGnT96sXblyoPLvInk+JIBPJ++WAkex7Siu/G7ezBRukTkOXjzVgm78JZ4MatfrctLKvfFj31m92v9hTlIcV4emrrugMnkeMwmh8/ePHi8eBTX1R4hpo6OItcGZ3P1NO6yg0Vx3yV46N04lkkFxjqgWM+Bus+Fc4eSK1KXcjIk3GOmyrlAzL1w8RUT8lKJeOX7rucNDaziTcNfSfxwiCFMuJETjvXchRG0qg2k36RYxm4qze0ONfaTWdBT80E9VDNUj/yh66lz6OXbs2rsUxOgkT1TyoxmgXDjLS1Jf6o8NRVEcqn1pelsaEObyRaycSL03mt2lUTUsezRmbafyfOcNL6D7CutyV+/owx93s1DWNPOXyfnq5yN8tDuXmBKgrv9ZCWWF7gShW4Haut2Xp53NRtOPKkr+ZbK+/TRZyMo3A2la744QfxXX7+wbyaOHG+nqgA23punb9oTTvEdMbjU6Vh+jIYJxPxVtjiH8I49n1DHK5eEfveULY61tZl98tWabx9cydhJFo36a10fxQ3qUw+VXNdde5vR8LSHyB1qGmc+7u8+WJ+lenydnS06Lx6HjOv+bDf6N7q8riOpPO1TuNHzTa616v+yu/uSE1rNRnymZJtjObV4hNF0s0+UxRfZj35pV5XLgd6OosnrbpjkQ7p4WI860eS7x9WuUtTXVlXJU6i8KusprO4tq5SOHWGXjKvJpVfXPuuMomlVF0vy4VkdVmpEx7ai486luG8uvCIjrB0vemEW3XWx3a2q1a6/rEsp1DH9rb49Ntn8a+z387Fxdn5559//Un8cvbTzwPx4eT8pJqD03TVlg+OStFEEoo4TBPpYHabzoOhyFLEWDjxME1evGBcweOy75WfZzuz0xbX1ReXSCazKBBTJ4rlqR86SctRS/5WOpTPzl1n5yp1ZnmK9kw2v4Uyx4//hU9+/umJbf7xTvUA9r/yQVTgAAc4wAEOcIADHOAABzjAefU4337yRRFF0gUNaEADGtCABjSgAQ1oQAMa0BTTfPOZQEWjPuIHHOAABzjAAQ5wgAMc4AAHOMD5L9Zb/CxvpzJyklkkRet0CxUX/7cqLs6mU38ujr1IqIF6JTUTrddQM9FCzUTt0gaomajvFjUTUTNRv7QBaibW84uaiaiZiJqJqJmImomomfiSW9RMRM1E1EzUThNQM1HfLWomomYiaibqpgmomVjPL2omomYiaiaiZuILDy5QM/EFDtRMRM1EgZqJ1bBQMxE1E+scqJmoDtRMRM3E7EDNxOIrUTOx3IE6UDPxdZQWAQ5wgAMc4AAHOMABDnCAA5xXj/M/VnEENKABDWhAAxrQgAY0oAENaF4Pzf83lU6AAxzgAAc4wAEOcIADHOAAp74eaia+fKBm4qJmorBeSdVE+zVUTbQbq5qY/V63PBOTnx6Tnx0mP30mP7tMfvaY/Owz+Tlg8rNSVWAtR1wz2uKa0hbXnLa4JrXFNastrmltcc1ri2tiW1wz2+aa2TbbWs01s22umW1rzezq1fxWXNUv37eGG7KH6hfoW8MNGff1S/Ct4YaM+fpF9tZwQ8b7GmX01vHDNI/pbWyNynjr+GGayvQetkaxu3X8MM1megNbo37dOusg03ymd681StKt44dpPtNbV/0qcytu1igrt44fsnvWKBy3jh8y3NcoDbeOHzLc1yj+to4fMtzXKe+2liOuGU3vYOtUbFvLEdekpjexdYqwreWIa17T+9g6ddXWWhm5Zja9la1TKm0tR1wzm97NvnH0KfLCyEvmwhId0bqYBVuqDtVu5/86QadrdbLf38thp2dR21x35R96x8c7OwcHDBL25iV6m5fY2bxEf/MSu5uX2Nu8xP7mJQ42L7Gys29Ko4H4thoIcKuBCLcaCHGrgRi3Gghyq4EotxoIc6uBOLcbiHO7iX28gTi3G4hzu16c25mGk1Aa3WppVa9n2/u7DBL0aLBJ0IPBJkGPBZsEveSySdArLpsEveCySdDrLZsEvdyySRSkVXwaDcR3QVrFp9FAhBekVXwaDcR4QVrFp9FAlBekVXwaDcR5QVrFp9HEPt5AnBekVXwa9eK8pzROI4/QsA+qpVWWtbfX6zFI0KPBJkEPBpsEPRZsEvSSyyZBr7hsEvSCyyZBr7dsEvRno9gkCj4QyKdBf6KKT4P+sBWfBv05LD4N+iNafBr05xL5NOiPLPJp0J9m5NOgP+jIp9FAnBekVXwaTezjDWzkBWkVn0a9rXxHaXyezCiN/WpplfrOpf47Bgl6NNgk6MFgk6DHgk2CTqvYJOi0ik2CTqvYJOi0ik2CXm7ZJArSKj4NOq3i06DTKj4NOq3i06DTKj4NOq3i06DTKj4NOq3i06DTKj6NBuK8IK3i02hiH29gIy9Iq/g06m3lfaXxu3Qpjb1qadX794PB3h6DBD0abBL0YLBJ0GPBJkGnVWwSdFrFJkGnVWwSdFrFJkEvt2wSBWkVnwadVvFp0GkVnwadVvFp0GkVnwadVvFp0GkVnwadVvFp0GkVn0YDcV6QVvFpNLGPN7CRF6RVfBr1tvLdLHWbSUpjt1paNRjs7rJI0KPBJkEPBpsEPRZsEnRaxSZBp1VsEnRaxSZBp1VsEvRyyyZRkFbxadBpFZ8GnVbxadBpFZ8GnVbxadBpFZ8GnVbxadBpFZ8GnVbxaTQQ5wVpFZ9GE/t4Axt5QVrFp1FvK99TGh9D6mPxdr9aWrW/b9v9PoMEPRpsEvRgsEnQY8EmQadVbBJ0WsUmQadVbBJ0WsUmUVR3ikmisNgal0ZRtSoujaJCVlwaRTWuuDSKyl9xaRTVfOPSKCoHx6VRVCmOS6OoiByXRgNxXpBW8Wk0sY83sJEXpFV8GuVb+ZcqFV7zQsziSATyfllBNisc24rvxu2sAmxpqdhlNedYJu/CWeDGrX63LSyr3xY99Zvdr1Zu9iHFeKpE7boDJ5HjMJofP3jxohby0/1XKBmdOjiLXBmdz1Rp4soNFcd8leOjdOJZJBcYqrpy3u8brskNM8wwwwwzzDDDDDPMMMMMM8wwwwwzzDDDDDPMMMMMM8wwwwwzzDDDDDPMMMMMM8wwwwwzzDDDDDPMMMMMM8wwwwwzzDDDDPNfyjw3wzsZRZ4rPzrqxVrL7K75vqp6NTZefTX2QkaejPPXa4328gXiqR8mpu8FsvQV2fil93TL36yNzeyr56eh7yReGKRQRpzIaedajsJIGtXefP5FjmXgrt7Q4lxrt9sWPfXmcle9yKx+GL4cJQqsxPXSrXk1lslJkKj+SSVGs2CYkba2xB8lLpaE8qn1Zem73OrwRqKVTLzYjLNRqSakjmeNzLT/TpzhpPUfYF1vS3z16njKnvu9moaxpxy+T09XuZvlody8QBWF93pISywvcKWKh47V1my9PG7qNhx50lfzrZX36SJOxlE4m0pX/PCD+C4//2BeTZw4f/9dBdjWc+v8RWvaIaYzHp8qDdOXwTiZiLfCFv8QxrHvG+Jw9YrY94ay1bG2Lrtftkrj7Zs7CSPRuklvpfujuEll8qma66pzf0tXHP0BUoeaxrm/y5sv5lc5F0dHR4vOq+cx85oP+43urS6P60g6X+s0ftRso3u96q/87o7UtFaTIZ8pWSEH88qJY28cSHegSkTEl1lPfqnXlcuBns7iSavuWKRDergYz/qR5PuHVe7SVFfWVYmTKPwqq+ksrq2rFE6doZfMq0nlF9e+q0xiKVXXy3IhWV1W6oSH9uKjjmU4ry48oiMsXW864Vad9bGd7aqVrn8syynUsb0tPv32Wfzr7LdzcXF2/vnnX38Sv5z99PNAfDg5P6nm4DRdteWDo1I0kYQiDqNEBLPbdB4MRVbSJBZOPEyTFy8YV/C47Hvl59nO7LTFdfXFJZLJLArE1IlieeqHTtJy1JK/lQ7ls3PX2blKnVmeoj2TzW+hzPHjZiu9POWfWbhnwd5648qRM/MTMY3CdA2Tb9rizff7+4PBycmbDReeAQ5wgAMc4AAHOMABDnCAA5y/Jo6IZ7fpP4GFK9VJ4TpzRRRJFzSgAQ1oQAMa0IAGNKABDWhAU0xzn30060801/5MAgc4wAEOcIADHOAABzjAAQ5w6uA8fW+gpb438GJGfW9gz8qesB0f7+wcHIAUpCAFKUhBClKQghSkIAUpSEEK0tdBamekTkKRdjPSXs+293dBClKQghSkIAUpSEEKUpCCFKQgBenrIO0p0tPII0jtg4zUsvb2ej2QghSkIAUpSEEKUpCCFKQgBSlIQfo6SHcU6efJjCLdz0gP0qP/DqQgBSlIQQpSkIIUpCAFKUhBClKQvg7SviL9XboU6V5G+v79YLC3B1KQghSkIAUpSEEKUpCCFKQgBSlIXwfpbvaXiZmkSHcz0sFgdxekIAUpSEEKUpCCFKQgBSlIQQpSkL4W0j1F+jGkKgva/Yx0f9+2+32QghSkIAUpSEEKUpCCFKQgBSlIQdoY6RLFjZz7VqmzBzPxEl9eTJypNBP5kLTefAhnUVyOMf+25XvvVgaxFwa+jDMPJS62t8Wx6wpHZJ7EvZdMRBzeSuH2SlrGd2PTmU5l4LYMpW1slTRYHqaTJFHLeDDaYrer2WieNrKrN4qTuS8XeB0nGE7CKG1v+HKkQZv7GIVB0rmX3niSKB/Xoe9W97EYm38e/3PRwedyIp1EWOJsOBQXw8mbraJhersdDyNvmvydvObttuvdvWwm29DOUl/Cc4+MoZrDg/S2HS+Q0ZVt9wyRdcaR4Xrx1Hfmh17gp7bOtR8Ov/5o0ICp18U9iGQ+Tdur/ti+ce6cxdnCluq4cyI138SRcL3bqS/NQN5f3I1bxvcvQLbFTreb/SgNIOXXdRIndXz5h+E719I3Dg1XjpyZn4hpFI48XxrtheXqwTi0zG7buHP8mcx/H6p1Jm2TLh2DwcmJ8diu5Mdm8tNj8rPD5KfP5GeXyc8ek599Jj8HTH6sLpcjrhltcU1pi2tOW1yT2uKa1RbXtLa45rXFNbEtrpltc81sm22t5prZNtfMtrVmtohnt7crXzxdaUeLpKvhhuwjPTdkD+m5IftHzw0Z93puyKjXc0PGvJ4bMuL13JDxrueG3sg0/TDNY3ob0/TDNJPpTUzTD9NcprcwTT9Ms5newDT9MM1nevvS9MO1LjPNZ3rv0vRTfT7fe0Giv21dq1PV/ZDdo+mH7B5NP2T3aPohw13TDxnumn7IcNf0Q4a7ph8y3DX90PuXriOuGU3vYLqOuOY0vYfpOuKa1fQupuuIa17T+5iuI66ZTe9kuo7Y1mqumU1vZrqOqs/spycRpd8UTG1z3ZV/6C2+SphBwt68RG/zEjubl+hvXmJ38xJ7m5fY37zEweYlVnb2TWk0EN9WAwFuNRDhVgMhbjUQ41YDQW41EOVWA2FuNRDndgNxbjexjzcQ53YDcW7Xi/PSL2SsllYtvrGRQYIeDTYJejDYJOixYJOgl1w2CXrFZZOgF1w2CXq9ZZOgl1s2iYK0ik+jgfguSKv4NBqI8IK0ik+jgRgvSKv4NBqI8oK0ik+jgTgvSKv4NJrYxxuI84K0ik+jXpyXfu9VtbRq8cVYDBL0aLBJ0IPBJkGPBZsEveSySdArLpsEveCySdDrLZsE/dkoNomCDwTyadCfqOLToD9sxadBfw6LT4P+iBafBv25RD4N+iOLfBr0pxn5NOgPOvJpNBDnBR+P5NNoIM4LPlTJp9HATl6QVhVplH69SLW0avH9IwwSdFrFJkEPBpsEPRZsEnRaxSZBp1VsEnRaxSZBp1VsEvRyyyZRkFbxadDLLZ8GvdzyadBpFZ8GnVbxadBpFZ8GnVbxadBpFZ8GnVbxaTQQ5wVpFZ9GA3FekFbxaTSwkxekVUUapVXcq6VVizLvDBJ0WsUmQQ8GmwQ9FmwSdFrFJkGnVWwSdFrFJkGnVWwS9HLLJlGQVvFp0Mstnwa93PJp0GkVnwadVvFp0GkVnwadVvFp0GkVnwadVvFpNBDnBWkVn0YDcV6QVvFpNLCTF6RVRRqlxXKrpVWLaroMEnRaxSZBDwabBD0WbBJ0WsUmQadVbBJ0WsUmQadVbBL0cssmUZBW8WnQyy2fBr3c8mnQaRWfBp1W8WnQaRWfBp1W8WnQaRWfBp1W8Wk0EOcFaRWfRgNxXpBW8Wk0sJMXpFVFGqU1CaulVYuihQwSdFrFJkEPBpsEPRZsEnRaxSZBp1VsEnRaxSZBp1VsEkV1p5gkCoutcWnQyy2fRlEhKy6NohpXXBpF5a+4NIpqvnFpFJWD49IoqhTHpVFURI5Lo4E4Lyw9x6XRQJwXFqzj0mhgJy9Iq5YaX6pUeM3LMYsjEcj7ZQXZrHBsK74bt7MKsKWlYpc1nWOZvAtngRu3+t22sKx+W/TUb3a/WrnZhxTjqVS16w6cRI7DaH784MWLmshP91+hcHTq4CxyZXQ+UyWKKzdUHPNVjo/SiWeRXGCoKst5v2+4aDfMMMMMM8wwwwwzzDDDDDPMMMMMM8wwwwwzzDDDDDPMMMMMM8wwwwwzzDDDDDPMMMMMM8wwwwwzzDDDDDPMMMMMM8wwwwwzzH8p89wM72QUea786KgXay2zu+b7qurV2Hj11dgLGXkyzl+vNdrLF4infpiYvhfI0ldk45fe0y1/szY2s6+en4a+k3hhkEIZcSKnnWs5CiNpVHvz+Rc5loG7ekOLc63dblv01JvLXfUis/ph+HKUKLAS10u35tVYJidBovonlRjNgmFG2toSf5S4WBLKp9aXpe9yq8MbiVYy8WIzzkalmpA6njUy0/47cYaT1n+Adb0t8dWr4yl77vdqGsaecvg+PV3lbpaHcvMCVRTe6yEtsbzAlSoeOlZbs/XyuKnbcORJX823Vt6nizgZR+FsKl3xww/iu/z8g3k1ceL8/XcVYFvPrfMXrWmHmM54fKo0TF8G42Qi3gpb/EMYx75viMPVK2LfG8pWx9q67H7ZKo23b+4kjETrJr2V7o/iJpXJp2quq879LV1x9AdIHWoa5/4ub76YX+VcHB0dLTqvnsfMaz7sN7q3ujyuI+l8rdP4UbON7vWqv/K7O1LTWk2GfKZkhRzMKyeOvXEg3YEqERFfZj35pV5XLgd6OosnrbpjkQ7p4WI860eS7x9WuUtTXVlXJU6i8KusprO4tq5SOHWGXjKvJpVfXPuuMomlVF0vy4VkdVmpEx7ai486luG8uvCIjrB0vemEW3XWx3a2q1a6/rEsp1DH9rb49Ntn8a+z387Fxdn5559//Un8cvbTzwPx4eT8pJqD03TVlg+OStFEEoo4jBIRzG7TeTAUWUmTWDjxME1evGBcweOy75WfZzuz0xbX1ReXSCazKBBTJ4rlqR86SctRS/5WOpTPzl1n5yp1ZnmK9kw2v4Uyx4+brfTylH9m4Z4Fe+uNK0fOzE/ENArTNUy+aYs33+/vDwYnJ282XHgGOMABDnCAAxzgAAc4wAEOcP6aOCKe3ab/BBauVCeF68wVUSRd0IAGNKABDWhAAxrQgAY0oAFNMc199tGsP9Fc+zMJHOAABzjAAQ5wgAMc4AAHOMCpg/P0vYGW+t7Aixn1vYE9K3vCdny8s3NwAFKQghSkIAUpSEEKUpCCFKQgBSlIXwepnZE6CUXazUh7Pdve3wUpSEEKUpCCFKQgBSlIQQpSkIIUpK+DtKdITyOPILUPMlLL2tvr9UAKUpCCFKQgBSlIQQpSkIIUpCAF6esg3VGknyczinQ/Iz1Ij/47kIIUpCAFKUhBClKQghSkIAUpSEH6Okj7ivR36VKkexnp+/eDwd4eSEEKUpCCFKQgBSlIQQpSkIIUpCB9HaS72V8mZpIi3c1IB4PdXZCCFKQgBSlIQQpSkIIUpCAFKUhB+lpI9xTpx5CqLGj3M9L9fdvu90EKUpCCFKQgBSlIQQpSkIIUpCAFaWOkSxQ3cu5bpc4ezMRLfHkxcabSTORD0nrzIZxFcTnG/NuW771bGcReGPgyzjyUuNjeFseuKxyReRL3XjIRcXgrhdsraRnfjU1nOpWB2zKUtrFV0mB5mE6SRC3jwWiL3a5mo3nayK7eKE7mvlzgdZxgOAmjtL3hy5EGbe5jFAZJ515640mifFyHvlvdx2Js/nn8z0UHn8uJdBJxNhyKi+HkzVbRIL3djoeRN03+Tl7zdtv17l42k21oZ6kv4blHxlDN4EF6044XyOjKtncMkXXFkeF68dR35ode4Ke2zrUfDr/+aNCAqdfFPYhkPk3bq97YvnHunMXZwpbquHMiNdvEkXC926kvzUDeX9yNW8b3L0C2xU63m/0oDR/l13USJ3V8+YfhO9fSNw4NV46cmZ+IaRSOPF8a7YXl6sE4tMxu27hz/Jk0DncPzINnx/5B2xiqNSf1kC4jg8HJifHYruTV3ojX3ka87mzEa38jXnc34nVvI173N+L1YCNere5m3G4muqzNhJe1mfiyNhNg1mYizNpMiFmbiTFrM0FmbSbK7M1Emb2hPWwzUWZvJsrsNaJMxLPb25Wv8a6RIUTS1XBasW/1nFbsWT2nFftVz2nFtUvPacWVS89pxXVLz2nFVUvPacU1S89p1cRA0+tGYqpqWqDpdSNRVTUp0PS6kbiqmhJoet1IZFVNCDS9biS2qqYDml43s19tJLaq5gKaXuvG1r0XJOumAdfqgupeK3arpteK3arptWK3anqtuGRpeq24ZGl6rbhkaXqtuGRpeq24ZGl6rZoP6LrdTHRVzQh03W4mvqrmBLpuNxNhVbMCXbebibGqeYGu281EWdXMQNfthvawzURZ1eRA161WlH2p8sAhfzYojkQg75cPNLLnGK34btzOHkiUPrlYPmCMZfIunAVu3Op328Ky+m3RU7/Z/WpPPx5SjKfnpq47cBI5DqP58YMXLx7QPXVFhaeYqYOzyJXR+Uw9L6vcUHHMVzk+SieeRXKBoR755UOw7nPZ7EHSqtSFjDwZ57ipUj4gUz9MTPV0q1Qyfum+y0ljM5t309B3Ei8MUigjTuS0cy1HYSSNajPpFzmWgbt6Q4tzrd10FvTUTFAPwyz1I3/sWfpEeOnWvBrL5CRIVP+kEqNZMMxIW1vijwrPPRWhfGp9WRob6vBGopVMvDid16pdNSF1PGtkpv134gwnrf8A63pb4ufPBnO/V9Mw9pTD9+npKnezPJSbF6ii8F4PaYnlBa5Ugdux2pqtl8dN3YYjT/pqvrXyPl3EyTgKZ1Ppih9+EN/l5x/Mq4kT5+uJCrCt59b5i9a0Q0xnPD5VGqYvg3EyEW+FLf4hjGPfN8Th6hWx7w1lq2NtXXa/bJXG2zd3EkaidZPeSvdHcZPK5FM111Xn/nYkLP0BUoeaxrm/y5sv5leZLm9HR4vOq+cx85oP+43urS6P60g6X+s0ftRso3u96q/87o7UtFaTIZ8p2cZoXi0+0yPd7FM98WXWk1/qdeVyoKezeNKqOxbpkB4uxrN+JPn+YZW7NNWVdVXiJAq/ymo6i2vrKoVTZ+gl82pS+cW17yqTWErV9bJcSFaXlTrhob34qGMZzqsLj+gIS9ebTrhVZ31sZ7tqpesfy3IKdWxvi0+/fRb/OvvtXFycnX/++defxC9nP/08EB9Ozk+qOThNV2354KgUTSShiMM0kQ5mt+k8GIosRYyFEw/T5MULxhU8Lvte+Xm2MzttcV19cYlkMosCMXWiWJ76oZO0HLXkb6VD+ezcdXauUmeWp2jPZPNbKHP8+F/47OWfHsDmH7BUD1T/Kx8FBQ5wgAMc4AAHOMABDnCAA5xXj/PtB1wUUSRd0IAGNKABDWhAAxrQgAY0oAFNMc03HwlUNOojfsABDnCAAxzgAAc4wAEOcIADnP9ixcPP8nYqIyeZRVK0TrdQ8/B/qubh746acR9k9p/j22tPBolQQ6YqH0p3lvZ/R+x1T19JEcT+ayiC2G+sCGL26mndIkxMfnpMfnaY/PSZ/Owy+dlj8rPP5OeAyc9KdYG1HHHNaItrSltcc9rimtQW16y2uKa1xTWvLa6JbXHNbJtrZttsazXXzLa5ZratNbOrF+1bcVW/TN8absgeql+Kbw03ZNzXL7e3hhsy5uuX1FvDDRnva5TNW8cP0zymt7E1iuGt44dpKtN72Bol7tbxwzSb6Q1sjcJ166yDTPOZ3r3WKEe3jh+m+UxvXfWLzK24WaOs3Dp+yO5Zo3TcOn7IcF+jPNw6fshwX6ME3Dp+yHBfp8zbWo64ZjS9g61TvG0tR1yTmt7E1inJtpYjrnlN72PrFFpba2Xkmtn0VrZO+bS1HHHNbHo3Q1G0V1EUDWaYYYYZZphhhhlmmGGGGWaYYYYZ5v8l89wM72QUea786Kg/VFlmF0Xxn90JiuI/HSiKr3WgKD6K4mscKIr/5wNF8f98oCi+5oGi+CiK/+KBovjAAQ5wgAMc4AAHOMABDnCAA5zXUFISNKABDWhAAxrQgAY0oAENaF4Pzf83pSyBAxzgAAc4wAEOcIADHOAAp77ef6Eo/nvvVgaxFwa+jGOUxP/fKokfRl/FyWjkDT0ZDOdPhfCbLYGfX/0ny/P/X/6++O+T9/yXp/9ch+5c/XeS3Pp//z//DyR8Cq8="
               },
               {
                  "name" : "annual_peak_electric_demand",
                  "units" : "kW",
                  "value" : 633.23983999999996
               },
               {
                  "name" : "first_year_capital_cost",
                  "units" : "$",
                  "value" : 0
               },
               {
                  "name" : "annual_utility_cost",
                  "units" : "$",
                  "value" : 0
               },
               {
                  "name" : "total_lifecycle_cost",
                  "units" : "$",
                  "value" : 0
               }
            ],
            "step_warnings" : []
         }
      }
   ],
   "updated_at" : "20170710T192802Z",
   "weather_file" : "USA_CO_Denver.Intl.AP.725650_TMY3.epw"
}
