{
   "completed_at" : "20170710T190653Z",
   "completed_status" : "Success",
   "created_at" : "2017-07-10 19:04:44 +0000",
   "current_step" : 5,
   "description" : "",
   "eplusout_err" : "Program Version,EnergyPlus, Version 8.7.0-78a111df4a, YMD=2017.07.10 19:05,IDD_Version 8.7.0\n   ************* IDF Context for following error/warning message:\n   ************* Note -- lines truncated at 300 characters, if necessary...\n   *************      5 Building,\n   ************* indicated Name=NECB 2011-Warehouse-NECB HDD Method-CAN_AB_Grande.Prairie.719400_CWEC.epw created: 2017-07-10 19:04:50 +0000\n   ************* Only last 1 lines before error line shown.....\n   *************      6   NECB 2011-Warehouse-NECB HDD Method-CAN_AB_Grande.Prairie.719400_CWEC.epw created: 2017-07-10 19:04:50 +0000, !- Name\n   ** Warning ** IP: IDF line~6 Alpha Argument length exceeds maximum, will be truncated=  NECB 2011-Warehouse-NECB HDD Method-CAN_AB_Grande.Prairie.719400_CWEC.epw created: 2017-07-10 19:04:50 +000\n   **   ~~~   ** Will be processed as Alpha=NECB 2011-WAREHOUSE-NECB HDD METHOD-CAN_AB_GRANDE.PRAIRIE.719400_CWEC.EPW CREATED: 2017-07-10 19:04:50 +0000\n   ************* Beginning Zone Sizing Calculations\n   ** Warning ** ProcessScheduleInput: Schedule:Day:Interval=\"ECONOMIZER MAX OA FRACTION 100 PCT DEFAULT\", Blank Schedule Type Limits Name input -- will not be validated.\n   ** Warning ** ProcessScheduleInput: Schedule:Day:Interval=\"SCHEDULE DAY 1\", Blank Schedule Type Limits Name input -- will not be validated.\n   ** Warning ** ProcessScheduleInput: Schedule:Day:Interval=\"SCHEDULE DAY 10\", Blank Schedule Type Limits Name input -- will not be validated.\n   ** Warning ** ProcessScheduleInput: Schedule:Day:Interval=\"SCHEDULE DAY 11\", Blank Schedule Type Limits Name input -- will not be validated.\n   ** Warning ** ProcessScheduleInput: Schedule:Day:Interval=\"SCHEDULE DAY 12\", Blank Schedule Type Limits Name input -- will not be validated.\n   ** Warning ** ProcessScheduleInput: Schedule:Day:Interval=\"SCHEDULE DAY 13\", Blank Schedule Type Limits Name input -- will not be validated.\n   ** Warning ** ProcessScheduleInput: Schedule:Day:Interval=\"SCHEDULE DAY 14\", Blank Schedule Type Limits Name input -- will not be validated.\n   ** Warning ** ProcessScheduleInput: Schedule:Day:Interval=\"SCHEDULE DAY 15\", Blank Schedule Type Limits Name input -- will not be validated.\n   ** Warning ** ProcessScheduleInput: Schedule:Day:Interval=\"SCHEDULE DAY 16\", Blank Schedule Type Limits Name input -- will not be validated.\n   ** Warning ** ProcessScheduleInput: Schedule:Day:Interval=\"SCHEDULE DAY 17\", Blank Schedule Type Limits Name input -- will not be validated.\n   ** Warning ** ProcessScheduleInput: Schedule:Day:Interval=\"SCHEDULE DAY 18\", Blank Schedule Type Limits Name input -- will not be validated.\n   ** Warning ** ProcessScheduleInput: Schedule:Day:Interval=\"SCHEDULE DAY 19\", Blank Schedule Type Limits Name input -- will not be validated.\n   ** Warning ** ProcessScheduleInput: Schedule:Day:Interval=\"SCHEDULE DAY 2\", Blank Schedule Type Limits Name input -- will not be validated.\n   ** Warning ** ProcessScheduleInput: Schedule:Day:Interval=\"SCHEDULE DAY 5\", Blank Schedule Type Limits Name input -- will not be validated.\n   ** Warning ** ProcessScheduleInput: Schedule:Day:Interval=\"SCHEDULE DAY 6\", Blank Schedule Type Limits Name input -- will not be validated.\n   ** Warning ** ProcessScheduleInput: Schedule:Day:Interval=\"SCHEDULE DAY 7\", Blank Schedule Type Limits Name input -- will not be validated.\n   ** Warning ** ProcessScheduleInput: Schedule:Day:Interval=\"SCHEDULE DAY 8\", Blank Schedule Type Limits Name input -- will not be validated.\n   ** Warning ** ProcessScheduleInput: Schedule:Day:Interval=\"SCHEDULE DAY 9\", Blank Schedule Type Limits Name input -- will not be validated.\n   ** Warning ** ProcessScheduleInput: Schedule:Year=\"ECONOMIZER MAX OA FRACTION 100 PCT\", Blank Schedule Type Limits Name input -- will not be validated.\n   ** Warning ** ProcessScheduleInput: Schedule:Year=\"SCHEDULE RULESET 10\", Blank Schedule Type Limits Name input -- will not be validated.\n   ** Warning ** ProcessScheduleInput: Schedule:Year=\"SCHEDULE RULESET 11\", Blank Schedule Type Limits Name input -- will not be validated.\n   ** Warning ** ProcessScheduleInput: Schedule:Year=\"SCHEDULE RULESET 3\", Blank Schedule Type Limits Name input -- will not be validated.\n   ** Warning ** ProcessScheduleInput: Schedule:Year=\"SCHEDULE RULESET 4\", Blank Schedule Type Limits Name input -- will not be validated.\n   ** Warning ** ProcessScheduleInput: Schedule:Year=\"SCHEDULE RULESET 5\", Blank Schedule Type Limits Name input -- will not be validated.\n   ** Warning ** ProcessScheduleInput: Schedule:Year=\"SCHEDULE RULESET 6\", Blank Schedule Type Limits Name input -- will not be validated.\n   ** Warning ** ProcessScheduleInput: Schedule:Year=\"SCHEDULE RULESET 7\", Blank Schedule Type Limits Name input -- will not be validated.\n   ** Warning ** ProcessScheduleInput: Schedule:Year=\"SCHEDULE RULESET 8\", Blank Schedule Type Limits Name input -- will not be validated.\n   ** Warning ** ProcessScheduleInput: Schedule:Year=\"SCHEDULE RULESET 9\", Blank Schedule Type Limits Name input -- will not be validated.\n   ** Warning ** ProcessScheduleInput: Schedule:Constant=\"ALWAYS OFF DISCRETE\", Blank Schedule Type Limits Name input -- will not be validated.\n   ** Warning ** ProcessScheduleInput: Schedule:Constant=\"ALWAYS ON CONTINUOUS\", Blank Schedule Type Limits Name input -- will not be validated.\n   ** Warning ** CheckUsedConstructions: There are 22 nominally unused constructions in input.\n   **   ~~~   ** For explicit details on each unused construction, use Output:Diagnostics,DisplayExtraWarnings;\n   ************* Beginning System Sizing Calculations\n   ************* Beginning Plant Sizing Calculations\n   ** Warning ** GetDXCoils: Coil:Cooling:DX:SingleSpeed=\"COIL COOLING DX SINGLE SPEED 1 32KBTU/HR 14.0SEER\", invalid\n   **   ~~~   ** ...Part Load Fraction Correlation Curve Name = DXCOOL-NECB2011-REF-COOLPLFFPLR has out of range value.\n   **   ~~~   ** ...Curve maximum must be <= 1.0, curve max at PLR = 0.99 is 1.015\n   **   ~~~   ** ...Setting curve maximum to 1.0 and simulation continues.\n   ** Warning ** GetDXCoils: Coil:Cooling:DX:SingleSpeed=\"COIL COOLING DX SINGLE SPEED 3 148KBTU/HR 9.7EER\", invalid\n   **   ~~~   ** ...Part Load Fraction Correlation Curve Name = DXCOOL-NECB2011-REF-COOLPLFFPLR 2 has out of range value.\n   **   ~~~   ** ...Curve maximum must be <= 1.0, curve max at PLR = 0.99 is 1.015\n   **   ~~~   ** ...Setting curve maximum to 1.0 and simulation continues.\n   ** Warning ** GetDXCoils: Coil:Cooling:DX:SingleSpeed=\"COIL COOLING DX SINGLE SPEED 2 342KBTU/HR 8.21EER\", invalid\n   **   ~~~   ** ...Part Load Fraction Correlation Curve Name = DXCOOL-NECB2011-REF-COOLPLFFPLR 1 has out of range value.\n   **   ~~~   ** ...Curve maximum must be <= 1.0, curve max at PLR = 0.99 is 1.015\n   **   ~~~   ** ...Setting curve maximum to 1.0 and simulation continues.\n   ** Warning ** The Standard Ratings is calculated for Coil:Cooling:DX:SingleSpeed = COIL COOLING DX SINGLE SPEED 1 32KBTU/HR 14.0SEER but not at the AHRI test condition due to curve out of bound.\n   **   ~~~   **  Review the Standard Ratings calculations in the Engineering Reference for this coil type. Also, use Output:Diagnostics, DisplayExtraWarnings for further guidance.\n   ** Warning ** The Standard Ratings is calculated for Coil:Cooling:DX:SingleSpeed = COIL COOLING DX SINGLE SPEED 3 148KBTU/HR 9.7EER but not at the AHRI test condition due to curve out of bound.\n   **   ~~~   **  Review the Standard Ratings calculations in the Engineering Reference for this coil type. Also, use Output:Diagnostics, DisplayExtraWarnings for further guidance.\n   ** Warning ** The Standard Ratings is calculated for Coil:Cooling:DX:SingleSpeed = COIL COOLING DX SINGLE SPEED 2 342KBTU/HR 8.21EER but not at the AHRI test condition due to curve out of bound.\n   **   ~~~   **  Review the Standard Ratings calculations in the Engineering Reference for this coil type. Also, use Output:Diagnostics, DisplayExtraWarnings for further guidance.\n   ** Warning ** Check input. Pump nominal power or motor efficiency is set to 0, for pump=SERVICE WATER LOOP PUMP\n   ** Warning ** Output:Meter: invalid Name=\"DISTRICTCOOLING:FACILITY\" - not found.\n   ** Warning ** Output:Meter: invalid Name=\"DISTRICTHEATING:FACILITY\" - not found.\n   ** Warning ** Output:Meter:MeterFileOnly requested for \"Electricity:Facility\" (TimeStep), already on \"Output:Meter\". Will report to both eplusout.eso and eplusout.mtr\n   ************* Testing Individual Branch Integrity\n   ************* All Branches passed integrity testing\n   ************* Testing Individual Supply Air Path Integrity\n   ************* All Supply Air Paths passed integrity testing\n   ************* Testing Individual Return Air Path Integrity\n   ************* All Return Air Paths passed integrity testing\n   ************* No node connection errors were found.\n   ************* Beginning Simulation\n   ** Warning ** CalcDoe2DXCoil: Coil:Cooling:DX:SingleSpeed \"COIL COOLING DX SINGLE SPEED 1 32KBTU/HR 14.0SEER\" - Air-cooled condenser inlet dry-bulb temperature below 0 C. Outdoor dry-bulb temperature = -15.55\n   **   ~~~   **  ... Occurrence info = RUN PERIOD 1, 01/02 06:03 - 06:05\n   **   ~~~   ** ... Operation at low ambient temperatures may require special performance curves.\n   ** Warning ** CalcDoe2DXCoil: Coil:Cooling:DX:SingleSpeed \"COIL COOLING DX SINGLE SPEED 1 32KBTU/HR 14.0SEER\" - Full load outlet air dry-bulb temperature < 2C. This indicates the possibility of coil frost/freeze. Outlet temperature = 0.91 C.\n   **   ~~~   **  ...Occurrence info = RUN PERIOD 1, 03/03 15:45 - 16:00\n   **   ~~~   ** ... Possible reasons for low outlet air dry-bulb temperatures are: This DX coil\n   **   ~~~   **    1) may have a low inlet air dry-bulb temperature. Inlet air temperature = 14.534 C.\n   **   ~~~   **    2) may have a low air flow rate per watt of cooling capacity. Check inputs.\n   **   ~~~   **    3) is used as part of a HX assisted cooling coil which uses a high sensible effectiveness. Check inputs.\n   ** Warning ** CalcDoe2DXCoil: Coil:Cooling:DX:SingleSpeed \"COIL COOLING DX SINGLE SPEED 3 148KBTU/HR 9.7EER\" - Full load outlet air dry-bulb temperature < 2C. This indicates the possibility of coil frost/freeze. Outlet temperature = 1.30 C.\n   **   ~~~   **  ...Occurrence info = RUN PERIOD 1, 06/22 12:30 - 12:45\n   **   ~~~   ** ... Possible reasons for low outlet air dry-bulb temperatures are: This DX coil\n   **   ~~~   **    1) may have a low inlet air dry-bulb temperature. Inlet air temperature = 14.575 C.\n   **   ~~~   **    2) may have a low air flow rate per watt of cooling capacity. Check inputs.\n   **   ~~~   **    3) is used as part of a HX assisted cooling coil which uses a high sensible effectiveness. Check inputs.\n   ************* Simulation Error Summary *************\n   ************* There are 9 unused schedules in input.\n   ************* There are 9 unused week schedules in input.\n   ************* There are 18 unused day schedules in input.\n   ************* Use Output:Diagnostics,DisplayUnusedSchedules; to see them.\n   *************\n   ************* ===== Recurring Error Summary =====\n   ************* The following recurring error messages occurred.\n   *************\n   *************  ** Warning ** CalcDoe2DXCoil: Coil:Cooling:DX:SingleSpeed=\"COIL COOLING DX SINGLE SPEED 1 32KBTU/HR 14.0SEER\" - Low condenser dry-bulb temperature error continues...\n   *************  **   ~~~   **   This error occurred 442 total times;\n   *************  **   ~~~   **   during Warmup 0 times;\n   *************  **   ~~~   **   during Sizing 0 times.\n   *************  **   ~~~   **   Max=-2.500000E-002 [C]  Min=-36.975 [C]\n   *************\n   *************  ** Warning ** CalcDoe2DXCoil: Coil:Cooling:DX:SingleSpeed=\"COIL COOLING DX SINGLE SPEED 1 32KBTU/HR 14.0SEER\" - Full load outlet temperature indicates a possibility of frost/freeze error continues. Outlet air temperature statistics follow:\n   *************  **   ~~~   **   This error occurred 1 total times;\n   *************  **   ~~~   **   during Warmup 0 times;\n   *************  **   ~~~   **   during Sizing 0 times.\n   *************  **   ~~~   **   Max=0.909627  Min=0.909627\n   *************\n   *************  ** Warning ** CalcDoe2DXCoil: Coil:Cooling:DX:SingleSpeed=\"COIL COOLING DX SINGLE SPEED 3 148KBTU/HR 9.7EER\" - Full load outlet temperature indicates a possibility of frost/freeze error continues. Outlet air temperature statistics follow:\n   *************  **   ~~~   **   This error occurred 4 total times;\n   *************  **   ~~~   **   during Warmup 0 times;\n   *************  **   ~~~   **   during Sizing 0 times.\n   *************  **   ~~~   **   Max=1.976747  Min=1.300841\n   *************\n   *************\n   ************* ===== Final Error Summary =====\n   ************* The following error categories occurred.  Consider correcting or noting.\n   ************* Nominally Unused Constructions\n   ************* ..The nominally unused constructions warning is provided to alert you to potential conditions that can cause\n   ************* ..extra time during simulation. Each construction is calculated by the algorithm indicated in the HeatBalanceAlgorithm\n   ************* ..object. You may remove the constructions indicated (when you use the DisplayExtraWarnings option).\n   *************\n   ************* EnergyPlus Warmup Error Summary. During Warmup: 0 Warning; 0 Severe Errors.\n   ************* EnergyPlus Sizing Error Summary. During Sizing: 31 Warning; 0 Severe Errors.\n   ************* EnergyPlus Completed Successfully-- 489 Warning; 0 Severe Errors; Elapsed Time=00hr 00min 44.50sec\n",
   "file_format_version" : "0.0.1",
   "file_paths" : [ "../weather", "../seeds", "../seed" ],
   "hash" : "1AE50C68",
   "measure_paths" : [ "../measures" ],
   "name" : "LHS Autogenerated 661",
   "osa_id" : "4fef0e0f-5396-4c55-a6e1-2cd6803db3ab",
   "osd_id" : "6d374e24-9354-4a4d-a227-0a398d3404e0",
   "run_directory" : "./run",
   "seed_file" : "seed.osm",
   "started_at" : "20170710T190447Z",
   "steps" : [
      {
         "arguments" : {
            "__SKIP__" : false,
            "building_type" : "Warehouse",
            "climate_zone" : "NECB HDD Method",
            "epw_file" : "CAN_AB_Grande.Prairie.719400_CWEC.epw",
            "template" : "NECB 2011"
         },
         "measure_dir_name" : "create_prototype_building",
         "name" : "create_prototype_building",
         "result" : {
            "completed_at" : "20170710T190540Z",
            "measure_class_name" : "CreatePrototypeBuilding",
            "measure_display_name" : "Create Prototype Building",
            "measure_name" : "create_prototype_building",
            "measure_taxonomy" : "Whole Building.Space Types",
            "measure_type" : "ModelMeasure",
            "measure_uid" : "ae90fsd7-a651-467a-bc8d-29d310b0f937",
            "measure_version_id" : "c6ec5c18-5595-459f-a082-09a19c8c869c",
            "measure_version_modified" : "20170519T182315Z",
            "measure_xml_checksum" : "057E8D9D",
            "started_at" : "20170710T190450Z",
            "stderr" : "",
            "stdout" : "[OpenStudio.Measure] <0> OSArgumentVector is deprecated, use OpenStudio::Measure::OSArgumentVector instead.\n[openstudio.EpwFile] <0> Successive data points (1988-Jan-31 to 1967-Feb-01, ending on line 753) are greater than 1 day apart in EPW file '/usr/local/bundle/bundler/gems/openstudio-standards-f448df66933d/openstudio-standards/data/weather/CAN_AB_Grande.Prairie.719400_CWEC.epw'. Data will be treated as typical (TMY)\n[openstudio.setFileExtension] <0> Path p, '/usr/local/bundle/bundler/gems/openstudio-standards-f448df66933d/openstudio-standards/data/weather/CAN_AB_Grande.Prairie.719400_CWEC.ddy', has an unexpected file extension. Was expecting 'idf'.\n[openstudio.model.YearDescription] <1> 'UseWeatherFile' is not yet a supported option for YearDescription\n[openstudio.model.YearDescription] <1> 'UseWeatherFile' is not yet a supported option for YearDescription\n[openstudio.setFileExtension] <0> Path p, '/usr/local/bundle/bundler/gems/openstudio-standards-f448df66933d/openstudio-standards/data/weather/CAN_AB_Grande.Prairie.719400_CWEC.ddy', has an unexpected file extension. Was expecting 'idf'.\n[openstudio.model.YearDescription] <1> 'UseWeatherFile' is not yet a supported option for YearDescription\n[openstudio.model.YearDescription] <1> 'UseWeatherFile' is not yet a supported option for YearDescription\n[openstudio.EpwFile] <0> Successive data points (1988-Jan-31 to 1967-Feb-01, ending on line 753) are greater than 1 day apart in EPW file '/usr/local/bundle/bundler/gems/openstudio-standards-f448df66933d/openstudio-standards/data/weather/CAN_AB_Grande.Prairie.719400_CWEC.epw'. Data will be treated as typical (TMY)\n[openstudio.weather.Model] <0> Could not find ground temperatures; will use generic temperatures, which will skew results.\n[openstudio.setFileExtension] <0> Path p, '/usr/local/bundle/bundler/gems/openstudio-standards-f448df66933d/openstudio-standards/data/weather/CAN_AB_Grande.Prairie.719400_CWEC.ddy', has an unexpected file extension. Was expecting 'idf'.\n[openstudio.model.YearDescription] <1> 'UseWeatherFile' is not yet a supported option for YearDescription\n[openstudio.model.YearDescription] <1> 'UseWeatherFile' is not yet a supported option for YearDescription\n[openstudio.EpwFile] <0> Successive data points (1988-Jan-31 to 1967-Feb-01, ending on line 753) are greater than 1 day apart in EPW file '/usr/local/bundle/bundler/gems/openstudio-standards-f448df66933d/openstudio-standards/data/weather/CAN_AB_Grande.Prairie.719400_CWEC.epw'. Data will be treated as typical (TMY)\n[openstudio.setFileExtension] <0> Path p, '/usr/local/bundle/bundler/gems/openstudio-standards-f448df66933d/openstudio-standards/data/weather/CAN_AB_Grande.Prairie.719400_CWEC.ddy', has an unexpected file extension. Was expecting 'idf'.\n[openstudio.model.YearDescription] <1> 'UseWeatherFile' is not yet a supported option for YearDescription\n[openstudio.model.YearDescription] <1> 'UseWeatherFile' is not yet a supported option for YearDescription\n[openstudio.setFileExtension] <0> Path p, '/usr/local/bundle/bundler/gems/openstudio-standards-f448df66933d/openstudio-standards/data/weather/CAN_AB_Grande.Prairie.719400_CWEC.ddy', has an unexpected file extension. Was expecting 'idf'.\n[openstudio.model.YearDescription] <1> 'UseWeatherFile' is not yet a supported option for YearDescription\n[openstudio.model.YearDescription] <1> 'UseWeatherFile' is not yet a supported option for YearDescription\n[openstudio.EpwFile] <0> Successive data points (1988-Jan-31 to 1967-Feb-01, ending on line 753) are greater than 1 day apart in EPW file '/usr/local/bundle/bundler/gems/openstudio-standards-f448df66933d/openstudio-standards/data/weather/CAN_AB_Grande.Prairie.719400_CWEC.epw'. Data will be treated as typical (TMY)\n[openstudio.setFileExtension] <0> Path p, '/usr/local/bundle/bundler/gems/openstudio-standards-f448df66933d/openstudio-standards/data/weather/CAN_AB_Grande.Prairie.719400_CWEC.ddy', has an unexpected file extension. Was expecting 'idf'.\n[openstudio.model.YearDescription] <1> 'UseWeatherFile' is not yet a supported option for YearDescription\n[openstudio.model.YearDescription] <1> 'UseWeatherFile' is not yet a supported option for YearDescription\n[openstudio.setFileExtension] <0> Path p, '/usr/local/bundle/bundler/gems/openstudio-standards-f448df66933d/openstudio-standards/data/weather/CAN_AB_Grande.Prairie.719400_CWEC.ddy', has an unexpected file extension. Was expecting 'idf'.\n[openstudio.model.YearDescription] <1> 'UseWeatherFile' is not yet a supported option for YearDescription\n[openstudio.model.YearDescription] <1> 'UseWeatherFile' is not yet a supported option for YearDescription\n[utilities.idf.WorkspaceObject] <0> Object of type 'Schedule:Constant' and named 'Always Off Discrete', points to an object named OnOff 1 from field 1, but that object cannot be located.\n[utilities.idf.WorkspaceObject] <0> Object of type 'Schedule:Constant' and named 'Always On Continuous', points to an object named Fractional 1 from field 1, but that object cannot be located.\n[utilities.idf.WorkspaceObject] <0> Object of type 'Schedule:Constant' and named 'Always Off Discrete', points to an object named OnOff 1 from field 1, but that object cannot be located.\n[utilities.idf.WorkspaceObject] <0> Object of type 'Schedule:Constant' and named 'Always On Continuous', points to an object named Fractional 1 from field 1, but that object cannot be located.\n[openstudio.standards.Fan] <0> For Fan Constant Volume 1, there is no greater nominal HP.  Use the efficiency of the largest motor category.\n[openstudio.standards.Fan] <0> For Fan Constant Volume 2, there is no greater nominal HP.  Use the efficiency of the largest motor category.\n[openstudio.standards.Fan] <0> For Fan Constant Volume 3, there is no greater nominal HP.  Use the efficiency of the largest motor category.\n[openstudio.EpwFile] <0> Successive data points (1988-Jan-31 to 1967-Feb-01, ending on line 753) are greater than 1 day apart in EPW file '/usr/local/bundle/bundler/gems/openstudio-standards-f448df66933d/openstudio-standards/data/weather/CAN_AB_Grande.Prairie.719400_CWEC.epw'. Data will be treated as typical (TMY)\n[openstudio.setFileExtension] <0> Path p, '/usr/local/bundle/bundler/gems/openstudio-standards-f448df66933d/openstudio-standards/data/weather/CAN_AB_Grande.Prairie.719400_CWEC.ddy', has an unexpected file extension. Was expecting 'idf'.\n[openstudio.model.YearDescription] <1> 'UseWeatherFile' is not yet a supported option for YearDescription\n[openstudio.model.YearDescription] <1> 'UseWeatherFile' is not yet a supported option for YearDescription\n[openstudio.setFileExtension] <0> Path p, '/usr/local/bundle/bundler/gems/openstudio-standards-f448df66933d/openstudio-standards/data/weather/CAN_AB_Grande.Prairie.719400_CWEC.ddy', has an unexpected file extension. Was expecting 'idf'.\n[openstudio.model.YearDescription] <1> 'UseWeatherFile' is not yet a supported option for YearDescription\n[openstudio.model.YearDescription] <1> 'UseWeatherFile' is not yet a supported option for YearDescription\n[openstudio.EpwFile] <0> Successive data points (1988-Jan-31 to 1967-Feb-01, ending on line 753) are greater than 1 day apart in EPW file '/usr/local/bundle/bundler/gems/openstudio-standards-f448df66933d/openstudio-standards/data/weather/CAN_AB_Grande.Prairie.719400_CWEC.epw'. Data will be treated as typical (TMY)\n[openstudio.setFileExtension] <0> Path p, '/usr/local/bundle/bundler/gems/openstudio-standards-f448df66933d/openstudio-standards/data/weather/CAN_AB_Grande.Prairie.719400_CWEC.ddy', has an unexpected file extension. Was expecting 'idf'.\n[openstudio.model.YearDescription] <1> 'UseWeatherFile' is not yet a supported option for YearDescription\n[openstudio.model.YearDescription] <1> 'UseWeatherFile' is not yet a supported option for YearDescription\n[openstudio.setFileExtension] <0> Path p, '/usr/local/bundle/bundler/gems/openstudio-standards-f448df66933d/openstudio-standards/data/weather/CAN_AB_Grande.Prairie.719400_CWEC.ddy', has an unexpected file extension. Was expecting 'idf'.\n[openstudio.model.YearDescription] <1> 'UseWeatherFile' is not yet a supported option for YearDescription\n[openstudio.model.YearDescription] <1> 'UseWeatherFile' is not yet a supported option for YearDescription\n[openstudio.EpwFile] <0> Successive data points (1988-Jan-31 to 1967-Feb-01, ending on line 753) are greater than 1 day apart in EPW file '/usr/local/bundle/bundler/gems/openstudio-standards-f448df66933d/openstudio-standards/data/weather/CAN_AB_Grande.Prairie.719400_CWEC.epw'. Data will be treated as typical (TMY)\n[openstudio.setFileExtension] <0> Path p, '/usr/local/bundle/bundler/gems/openstudio-standards-f448df66933d/openstudio-standards/data/weather/CAN_AB_Grande.Prairie.719400_CWEC.ddy', has an unexpected file extension. Was expecting 'idf'.\n[openstudio.model.YearDescription] <1> 'UseWeatherFile' is not yet a supported option for YearDescription\n[openstudio.model.YearDescription] <1> 'UseWeatherFile' is not yet a supported option for YearDescription\n[openstudio.setFileExtension] <0> Path p, '/usr/local/bundle/bundler/gems/openstudio-standards-f448df66933d/openstudio-standards/data/weather/CAN_AB_Grande.Prairie.719400_CWEC.ddy', has an unexpected file extension. Was expecting 'idf'.\n[openstudio.model.YearDescription] <1> 'UseWeatherFile' is not yet a supported option for YearDescription\n[openstudio.model.YearDescription] <1> 'UseWeatherFile' is not yet a supported option for YearDescription\n[openstudio.standards.Fan] <0> For Fan Constant Volume 1, there is no greater nominal HP.  Use the efficiency of the largest motor category.\n[openstudio.standards.Fan] <0> For Fan Constant Volume 2, there is no greater nominal HP.  Use the efficiency of the largest motor category.\n[openstudio.standards.Fan] <0> For Fan Constant Volume 3, there is no greater nominal HP.  Use the efficiency of the largest motor category.\n",
            "step_errors" : [],
            "step_files" : [],
            "step_info" : [
               "Started adding geometry",
               "Finished adding geometry",
               "Started adding weather file for climate zone: NECB HDD Method.",
               "Template =",
               "Setting Zone3 Bulk Storage to Space Function.Warehouse - med/blk",
               "Setting Zone2 Fine Storage to Space Function.Warehouse - fine",
               "Setting Zone1 Office to Space Function.Office - enclosed",
               "Started applying space types (loads)",
               "Space Function Office - enclosed had no people, one has been created.",
               "Space Function Office - enclosed set occupancy to 4.65 people/1000 ft^2.",
               "Space Function Office - enclosed had no lights, one has been created.",
               "Space Function Office - enclosed set LPD to 1.105536975 W/ft^2.",
               "Space Function Office - enclosed had no electric equipment, one has been created.",
               "Space Function Office - enclosed set electric EPD to 0.696767001 W/ft^2.",
               "Space Function Office - enclosed had no ventilation specification, one has been created.",
               "Space Function Office - enclosed set ventilation per area to 0.085 cfm/ft^2.",
               "Space Function Office - enclosed had no infiltration objects, one has been created.",
               "Space Function Office - enclosed set infiltration to 0.0 per ft^2 exterior surface area.",
               "Space Function Office - enclosed set occupancy schedule to NECB-A-Occupancy.",
               "Space Function Office - enclosed set occupant activity schedule to NECB-Activity.",
               "Space Function Office - enclosed set lighting schedule to NECB-A-Lighting.",
               "Space Function Office - enclosed set electric equipment schedule to NECB-A-Electric-Equipment.",
               "Space Function Office - enclosed set infiltration schedule to Always On.",
               "Space Function Office - enclosed set heating setpoint schedule to NECB-A-Thermostat Setpoint-Heating.",
               "Space Function Office - enclosed set cooling setpoint schedule to NECB-A-Thermostat Setpoint-Cooling.",
               "Space Function Warehouse - fine had no people, one has been created.",
               "Space Function Warehouse - fine set occupancy to 1.86 people/1000 ft^2.",
               "Space Function Warehouse - fine had no lights, one has been created.",
               "Space Function Warehouse - fine set LPD to 0.947603122 W/ft^2.",
               "Space Function Warehouse - fine had no electric equipment, one has been created.",
               "Space Function Warehouse - fine set electric EPD to 0.092902267 W/ft^2.",
               "Space Function Warehouse - fine had no ventilation specification, one has been created.",
               "Space Function Warehouse - fine set ventilation per area to 0.06 cfm/ft^2.",
               "Space Function Warehouse - fine had no infiltration objects, one has been created.",
               "Space Function Warehouse - fine set infiltration to 0.0 per ft^2 exterior surface area.",
               "Space Function Warehouse - fine set occupancy schedule to NECB-A-Occupancy.",
               "Space Function Warehouse - fine set occupant activity schedule to NECB-Activity.",
               "Space Function Warehouse - fine set lighting schedule to NECB-A-Lighting.",
               "Space Function Warehouse - fine set electric equipment schedule to NECB-A-Electric-Equipment.",
               "Space Function Warehouse - fine set infiltration schedule to Always On.",
               "Space Function Warehouse - fine set heating setpoint schedule to NECB-A-Thermostat Setpoint-Heating.",
               "Space Function Warehouse - fine set cooling setpoint schedule to NECB-A-Thermostat Setpoint-Cooling.",
               "Space Function Warehouse - med/blk had no people, one has been created.",
               "Space Function Warehouse - med/blk set occupancy to 0.93 people/1000 ft^2.",
               "Space Function Warehouse - med/blk had no lights, one has been created.",
               "Space Function Warehouse - med/blk set LPD to 0.594574508 W/ft^2.",
               "Space Function Warehouse - med/blk had no electric equipment, one has been created.",
               "Space Function Warehouse - med/blk set electric EPD to 0.092902267 W/ft^2.",
               "Space Function Warehouse - med/blk had no ventilation specification, one has been created.",
               "Space Function Warehouse - med/blk set ventilation per area to 0.06 cfm/ft^2.",
               "Space Function Warehouse - med/blk had no infiltration objects, one has been created.",
               "Space Function Warehouse - med/blk set infiltration to 0.0 per ft^2 exterior surface area.",
               "Space Function Warehouse - med/blk set occupancy schedule to NECB-A-Occupancy.",
               "Space Function Warehouse - med/blk set occupant activity schedule to NECB-Activity.",
               "Space Function Warehouse - med/blk set lighting schedule to NECB-A-Lighting.",
               "Space Function Warehouse - med/blk set electric equipment schedule to NECB-A-Electric-Equipment.",
               "Space Function Warehouse - med/blk set infiltration schedule to Always On.",
               "Space Function Warehouse - med/blk set heating setpoint schedule to NECB-A-Thermostat Setpoint-Heating.",
               "Space Function Warehouse - med/blk set cooling setpoint schedule to NECB-A-Thermostat Setpoint-Cooling.",
               "Finished applying space types (loads)",
               "Started applying constructions",
               "Adding construction set: NECB 2011-NECB HDD Method-Warehouse--is_residentialNo",
               "Adding construction Typical Insulated Exterior Mass Floor R-15.63.",
               "Adding construction Typical Insulated Exterior Mass Wall R-12.5.",
               "Adding construction Typical Insulated Metal Building Roof R-20.41.",
               "Adding construction Typical Interior Floor.",
               "Adding construction Typical Interior Wall.",
               "Adding construction Typical Interior Ceiling.",
               "Adding construction Typical Insulated Carpeted 6in Slab Floor.",
               "Adding construction U 0.55 SHGC 0.31 Dbl Ref-D Tint 6mm/6mm Air.",
               "Adding construction Typical Insulated Metal Door R-1.43.",
               "Adding construction U 0.35 SHGC 0.35 Dbl LoE (e2-.1) Tint 6mm/13mm Air.",
               "Adding construction Typical Overhead Door R-2.0.",
               "Adding construction U 0.48 SHGC 0.40 Dbl Ref-D Clr 6mm/13mm.",
               "Adding construction Typical Interior Window.",
               "Adding construction Typical Interior Door.",
               "Adding construction Typical Interior Partition.",
               "Finished applying constructions",
               "WWR NonRes = 0%; window = 0 ft2, wall = 0 ft2.",
               "WWR Res = 0%; window = 0 ft2, wall = 0 ft2.",
               "WWR Semiheated = 0%; window = 0 ft2, wall = 0 ft2.",
               "The skylight to roof ratios (SRRs) are: NonRes: 2%, Res: 0%.",
               "Started creating thermal zones",
               "Finished creating thermal zones",
               "Running simulation /mnt/openstudio/analysis_4fef0e0f-5396-4c55-a6e1-2cd6803db3ab/data_point_6d374e24-9354-4a4d-a227-0a398d3404e0/run/000_create_prototype_building/output/Warehouse-NECB 2011-NECB HDD Method-CAN_AB_Grande.Prairie.719400_CWEC.epw/SR0.",
               "Finished run.",
               "Started Adding HVAC",
               "Finished adding HVAC",
               "Started Adding Service Water Heating",
               "Adding service water loop.",
               "Adding water heater.",
               "Template =",
               "Finished adding Service Water Heating",
               "Set sizing factors to 1.3 for heating and 1.3 for cooling.",
               "Running simulation /mnt/openstudio/analysis_4fef0e0f-5396-4c55-a6e1-2cd6803db3ab/data_point_6d374e24-9354-4a4d-a227-0a398d3404e0/run/000_create_prototype_building/output/Warehouse-NECB 2011-NECB HDD Method-CAN_AB_Grande.Prairie.719400_CWEC.epw/SR1.",
               "Finished run.",
               "Started applying multizone vav OA sizing.",
               "Finished applying multizone vav OA sizing.",
               "Started applying prototype HVAC assumptions.",
               "For Fan Constant Volume 1: allowed_hp = 1.01HP; motor eff = 61.5%; total fan eff = 40% based on 1204 cfm.",
               "For Fan Constant Volume 2: allowed_hp = 8.78HP; motor eff = 61.5%; total fan eff = 40% based on 12835 cfm.",
               "For Fan Constant Volume 3: allowed_hp = 3.79HP; motor eff = 61.5%; total fan eff = 40% based on 5547 cfm.",
               "Sp-Zone2 Fine Storage Sys-4 Flr-1 Sch-A HPlcmt-south ZN NECB System 4 PSZ requires an economizer because the total cooling capacity of 147855 Btu/hr exceeds the minimum capacity of 68243 Btu/hr.",
               "Sp-Zone3 Bulk Storage Sys-4 Flr-1 Sch-A HPlcmt-east ZN NECB System 4 PSZ requires an economizer because the total cooling capacity of 342133 Btu/hr exceeds the minimum capacity of 68243 Btu/hr.",
               "Sp-Zone1 Office Sys-3 Flr-1 Sch-A HPlcmt-south ZN NECB System 3 PSZ does not require an economizer because the total cooling capacity of 32082 Btu/hr is less than the minimum capacity of 68243 Btu/hr.",
               "Finished applying prototype HVAC assumptions.",
               "Started applying HVAC efficiency standards.",
               "For Sp-Zone1 Office Sys-3 Flr-1 Sch-A HPlcmt-south ZN NECB System 3 PSZ, ERV not required based on 0% OA flow, design supply air flow of 1204cfm, and climate zone NECB HDD Method.",
               "For Sp-Zone1 Office Sys-3 Flr-1 Sch-A HPlcmt-south ZN NECB System 3 PSZ, ERV not required based on exhaust heat content.",
               "For NECB 2011 NECB HDD Method:  Sp-Zone1 Office Sys-3 Flr-1 Sch-A HPlcmt-south ZN NECB System 3 PSZ: DCV is not required for any system.",
               "For Sp-Zone1 Office Sys-3 Flr-1 Sch-A HPlcmt-south ZN NECB System 3 PSZ: Annual occupied hours = 2860 hr/yr, assuming a 0.15 occupancy threshold.  This schedule will be used as the HVAC operation schedule.",
               "For Sp-Zone1 Office Sys-3 Flr-1 Sch-A HPlcmt-south ZN NECB System 3 PSZ: Setting motorized OA damper schedule to Sp-Zone1 Office Sys-3 Flr-1 Sch-A HPlcmt-south ZN NECB System 3 PSZ Occ Sch.",
               "For Sp-Zone2 Fine Storage Sys-4 Flr-1 Sch-A HPlcmt-south ZN NECB System 4 PSZ, ERV not required based on 0% OA flow, design supply air flow of 5547cfm, and climate zone NECB HDD Method.",
               "For Sp-Zone2 Fine Storage Sys-4 Flr-1 Sch-A HPlcmt-south ZN NECB System 4 PSZ, ERV not required based on exhaust heat content.",
               "For NECB 2011 NECB HDD Method:  Sp-Zone2 Fine Storage Sys-4 Flr-1 Sch-A HPlcmt-south ZN NECB System 4 PSZ: DCV is not required for any system.",
               "For Sp-Zone2 Fine Storage Sys-4 Flr-1 Sch-A HPlcmt-south ZN NECB System 4 PSZ: Annual occupied hours = 2860 hr/yr, assuming a 0.15 occupancy threshold.  This schedule will be used as the HVAC operation schedule.",
               "For Sp-Zone2 Fine Storage Sys-4 Flr-1 Sch-A HPlcmt-south ZN NECB System 4 PSZ: Because the system has an economizer, it requires a motorized OA damper.",
               "For Sp-Zone2 Fine Storage Sys-4 Flr-1 Sch-A HPlcmt-south ZN NECB System 4 PSZ: Setting motorized OA damper schedule to Sp-Zone2 Fine Storage Sys-4 Flr-1 Sch-A HPlcmt-south ZN NECB System 4 PSZ Occ Sch.",
               "For Sp-Zone3 Bulk Storage Sys-4 Flr-1 Sch-A HPlcmt-east ZN NECB System 4 PSZ, ERV not required based on 0% OA flow, design supply air flow of 12835cfm, and climate zone NECB HDD Method.",
               "For Sp-Zone3 Bulk Storage Sys-4 Flr-1 Sch-A HPlcmt-east ZN NECB System 4 PSZ, ERV not required based on exhaust heat content.",
               "For NECB 2011 NECB HDD Method:  Sp-Zone3 Bulk Storage Sys-4 Flr-1 Sch-A HPlcmt-east ZN NECB System 4 PSZ: DCV is not required for any system.",
               "For Sp-Zone3 Bulk Storage Sys-4 Flr-1 Sch-A HPlcmt-east ZN NECB System 4 PSZ: Annual occupied hours = 2860 hr/yr, assuming a 0.15 occupancy threshold.  This schedule will be used as the HVAC operation schedule.",
               "For Sp-Zone3 Bulk Storage Sys-4 Flr-1 Sch-A HPlcmt-east ZN NECB System 4 PSZ: Because the system has an economizer, it requires a motorized OA damper.",
               "For Sp-Zone3 Bulk Storage Sys-4 Flr-1 Sch-A HPlcmt-east ZN NECB System 4 PSZ: Setting motorized OA damper schedule to Sp-Zone3 Bulk Storage Sys-4 Flr-1 Sch-A HPlcmt-east ZN NECB System 4 PSZ Occ Sch.",
               "For Fan Constant Volume 1: motor nameplate = 0.7496820463303284HP, motor eff = 61.5%.",
               "For Fan Constant Volume 2: motor nameplate = 8HP, motor eff = 61.5%.",
               "For Fan Constant Volume 3: motor nameplate = 3HP, motor eff = 61.5%.",
               "For Service Water Loop Pump: brake hp = 0.0HP, motor nameplate = 0.1HP, motor eff = 70.0%.",
               "For Pump Variable Speed 1: brake hp = 0.95HP, motor nameplate = 1.0HP, motor eff = 85.5%.",
               "For NECB 2011: Coil Cooling DX Single Speed 1: AirCooled All Other Single Package Capacity = 32kBtu/hr; SEER = 14.0",
               "For NECB 2011: Coil Cooling DX Single Speed 2: AirCooled All Other Single Package Capacity = 342kBtu/hr; EER = 8.21",
               "For NECB 2011: Coil Cooling DX Single Speed 3: AirCooled All Other Single Package Capacity = 148kBtu/hr; EER = 9.7",
               "For NECB 2011: Primary Boiler: Gas Hot Water Capacity = 354kBtu/hr; Thermal Efficiency = 0.83",
               "For NECB 2011: Secondary Boiler: Gas Hot Water Capacity = 354kBtu/hr; Thermal Efficiency = 0.83",
               "For NECB 2011: 40.0gal NaturalGas Water Heater - 40kBtu/hr 0.82 Therm Eff; thermal efficiency = 0.82, skin-loss UA = 6Btu/hr",
               "Finished applying HVAC efficiency standards.",
               "Started adding daylighting controls.",
               "Finished adding daylighting controls.",
               "Total Time = 50sec."
            ],
            "step_result" : "Success",
            "step_values" : [
               {
                  "name" : "building_type",
                  "value" : "Warehouse"
               },
               {
                  "name" : "template",
                  "value" : "NECB 2011"
               },
               {
                  "name" : "climate_zone",
                  "value" : "NECB HDD Method"
               },
               {
                  "name" : "epw_file",
                  "value" : "CAN_AB_Grande.Prairie.719400_CWEC.epw"
               }
            ],
            "step_warnings" : [
               "[openstudio.EpwFile] Successive data points (1988-Jan-31 to 1967-Feb-01, ending on line 753) are greater than 1 day apart in EPW file '/usr/local/bundle/bundler/gems/openstudio-standards-f448df66933d/openstudio-standards/data/weather/CAN_AB_Grande.Prairie.719400_CWEC.epw'. Data will be treated as typical (TMY)",
               "[openstudio.EpwFile] Successive data points (1988-Jan-31 to 1967-Feb-01, ending on line 753) are greater than 1 day apart in EPW file '/usr/local/bundle/bundler/gems/openstudio-standards-f448df66933d/openstudio-standards/data/weather/CAN_AB_Grande.Prairie.719400_CWEC.epw'. Data will be treated as typical (TMY)",
               "[openstudio.weather.Model] Could not find ground temperatures; will use generic temperatures, which will skew results.",
               "[openstudio.EpwFile] Successive data points (1988-Jan-31 to 1967-Feb-01, ending on line 753) are greater than 1 day apart in EPW file '/usr/local/bundle/bundler/gems/openstudio-standards-f448df66933d/openstudio-standards/data/weather/CAN_AB_Grande.Prairie.719400_CWEC.epw'. Data will be treated as typical (TMY)",
               "[openstudio.EpwFile] Successive data points (1988-Jan-31 to 1967-Feb-01, ending on line 753) are greater than 1 day apart in EPW file '/usr/local/bundle/bundler/gems/openstudio-standards-f448df66933d/openstudio-standards/data/weather/CAN_AB_Grande.Prairie.719400_CWEC.epw'. Data will be treated as typical (TMY)",
               "[openstudio.standards.Fan] For Fan Constant Volume 1, there is no greater nominal HP.  Use the efficiency of the largest motor category.",
               "[openstudio.standards.Fan] For Fan Constant Volume 2, there is no greater nominal HP.  Use the efficiency of the largest motor category.",
               "[openstudio.standards.Fan] For Fan Constant Volume 3, there is no greater nominal HP.  Use the efficiency of the largest motor category.",
               "[openstudio.EpwFile] Successive data points (1988-Jan-31 to 1967-Feb-01, ending on line 753) are greater than 1 day apart in EPW file '/usr/local/bundle/bundler/gems/openstudio-standards-f448df66933d/openstudio-standards/data/weather/CAN_AB_Grande.Prairie.719400_CWEC.epw'. Data will be treated as typical (TMY)",
               "[openstudio.EpwFile] Successive data points (1988-Jan-31 to 1967-Feb-01, ending on line 753) are greater than 1 day apart in EPW file '/usr/local/bundle/bundler/gems/openstudio-standards-f448df66933d/openstudio-standards/data/weather/CAN_AB_Grande.Prairie.719400_CWEC.epw'. Data will be treated as typical (TMY)",
               "[openstudio.EpwFile] Successive data points (1988-Jan-31 to 1967-Feb-01, ending on line 753) are greater than 1 day apart in EPW file '/usr/local/bundle/bundler/gems/openstudio-standards-f448df66933d/openstudio-standards/data/weather/CAN_AB_Grande.Prairie.719400_CWEC.epw'. Data will be treated as typical (TMY)",
               "[openstudio.standards.Fan] For Fan Constant Volume 1, there is no greater nominal HP.  Use the efficiency of the largest motor category.",
               "[openstudio.standards.Fan] For Fan Constant Volume 2, there is no greater nominal HP.  Use the efficiency of the largest motor category.",
               "[openstudio.standards.Fan] For Fan Constant Volume 3, there is no greater nominal HP.  Use the efficiency of the largest motor category."
            ]
         }
      },
      {
         "arguments" : {
            "__SKIP__" : false
         },
         "measure_dir_name" : "view_model",
         "name" : "view_model",
         "result" : {
            "completed_at" : "20170710T190540Z",
            "measure_class_name" : "ViewModel",
            "measure_display_name" : "ViewModel",
            "measure_name" : "view_model",
            "measure_taxonomy" : "Reporting.QAQC",
            "measure_type" : "ModelMeasure",
            "measure_uid" : "f4669f10-fda5-489d-8e1c-7ca3c2d40378",
            "measure_version_id" : "f4975c5f-7c25-42a2-927b-02d99b4427ef",
            "measure_version_modified" : "20170526T150340Z",
            "measure_xml_checksum" : "1E1F8B97",
            "started_at" : "20170710T190540Z",
            "stderr" : "",
            "stdout" : "[OpenStudio.Measure] <0> OSArgumentVector is deprecated, use OpenStudio::Measure::OSArgumentVector instead.\n",
            "step_errors" : [],
            "step_files" : [
               "/mnt/openstudio/analysis_4fef0e0f-5396-4c55-a6e1-2cd6803db3ab/data_point_6d374e24-9354-4a4d-a227-0a398d3404e0/run/001_view_model/report.html",
               "/mnt/openstudio/analysis_4fef0e0f-5396-4c55-a6e1-2cd6803db3ab/data_point_6d374e24-9354-4a4d-a227-0a398d3404e0/run/001_view_model/report.json"
            ],
            "step_final_condition" : "Report written to <a href='file:////mnt/openstudio/analysis_4fef0e0f-5396-4c55-a6e1-2cd6803db3ab/data_point_6d374e24-9354-4a4d-a227-0a398d3404e0/run/001_view_model/report.html'>report.html</a>.",
            "step_info" : [ "No changes made to the model." ],
            "step_result" : "NA",
            "step_values" : [
               {
                  "name" : "view_model_html_zip",
[...]
F+/WG0igR2dwUR54nXJFriVs/nYgkupbCG5bsmdyMe+50ql4o0lLurY2SHVZbz03TePEKmZ2+4U7qhS8D/Z2SdK7eu6Lwum44mkRx6/5lJ4Yal1GYdm+lP56kSuMiCjx9jcXV+e3k+MfuUff9RMbXUZK6qTiV6TTyM+GfpZv64fjFRtH1ermZjGJ/mv6L/M7LTc+/+fIwuQ8tlmkJ3ztsjVQ4H2fH7/qhjM8H/ZbIT8phy/OTaeDOD/xQvQ+nexFEo48/tGi+THRxCCKdT7P91XnZvHJv3MWnhXuqLX9Jz81YHK7exRPK29Obcbv13WPGjthSr7bJ/inNpAcvdDn76y1Rn7Xyo96j6gzzd4CN1PSj3vi06Pa39r6pAqUBm9KQTWmLTWmbTWmHTWmXTWmPTWmfTWnt5ZuWUnxR7vCFucMX5w5foDt8ke7whbrDF+sOX7A7fNE+4Iv2AeOczhftA75oHxhG++PGS5oVMJaegVDBuTITKjhTZkIF58lMqGBOMBMqmBHMhArmAzOhgtnATKhgLjATKip8hkpssV1U9gyV2KK7qOgZKrHFd1HJM1Rii/CigmeoxBbjReXOUIlv/maL8aJaZ6hkEuOPGl9oljnVG8NAqeA0GSoVnCZDpYLTZKhUMBUYKhVMBYZKBVOBoVLBVGCoVDAVGCoV1TtTKb4oL6p4plJ8cV5U80yl+CK9qOqZSvHFelHdM5Xii/aiymcqxTin80V7UfEzlSqNdryMHi+jXwpp7IaX0T/a8DJ6HSy8jB4vo6+y4WX0asPL6PEy+nzDy+iLv4mX0ZcLqA0vo38a72wEDnCAAxzgAAc4wAEOcIADnCeP8429yhE0oAENaEADGtCABjSgAQ1ong7Nt/XORuAABzjAAQ5wgAMc4AAHOMD5pnC+YnO2o1Hq3/jp/I28kYFo/wft2b7F9mzLi/Q0OrE5T6ATm9NYJ7Z+r7/N0ojNSmjIJbTFJbTNJbTDJbTLJbTHJbTPJbT2XL6dEltsO2zB7bBFt8MW3g5bfDtsAe6wRbjDFuIOW4wP2GJ8wDd/s8X4gC3GB2Yxrt9xbV2resM1Gx36LFVvt2ajQ88C1Zut2ejQM0D1Vms2OnT2WzRasxLiiuiC8mbRZc1KiCuoC2qbRYs1KyGuuC4obBb91axmRq7ILqhqFs3VrIS4IrugpFXvrLauY9FYzUqIPkUWbdWshOjkt2iqZiVEJ79FSzUrITr5bRqq2SmxxXZBZbPppmanxBbeBcXNppWanRJbhBfUN5s+anZzJVuMF5Q4myZqdkpsMV5Q5dBBDR3U0EHtESE6qKkNHdTQQQ0d1Ao2dFBDBzWjo0IHtTV/g++jg9rDDR3U7rcabtj6xhoNAAc4wAEOcIADHOAABzjAAc6Tx/nG+g+ABjSgAQ1oQAMa0IAGNKABzdOh+dv0PQAOcIADHOAABzjAAQ5wgAOc6n5foYMaGqZ9Uw3TTkcT6c2ys6weh0pkKpz+02ibNngCbdMGjbVN28kfCq3a4oZLaMgltMUltM0ltMMltMsltMcltM8ltPb0vZ0SW2w7bMHtsEW3wxbeDlt8O2wB7rBFuMMW4g5bjA/YYnzAN3+zxfiALcYHZjGu3zZtXat62zQbHfosVW+bZqNDzwLV26bZ6NAzQPW2aTY6dPZbtE2zEuKK6ILyZtE2zUqIK6gLaptF2zQrIa64LihsFm3TrGZGrsguqGoWbdOshLgiu6CkVW+btq5j0TbNSog+RRZt06yE6OS3aJtmJUQnv0XbNCshOvlt2qbZKbHFdkFls2mbZqfEFt4Fxc2mbZqdEluEF9Q3m7ZpdnMlW4wXlDibtml2SmwxXlDl0DYNbdPQNu0RIdqmqQ1t09A2DW3TCja0TUPbNKOjQtu0NX+D76Nt2sMNbdPutxru0vrGugsABzjAAQ5wgAMc4AAHOMABzpPH+caaDoAGNKABDWhAAxrQgAY0oAHN06H52zQ7AA5wgAMc4AAHOMABDnCAA5zqfmibttzQNu2+bZrzNNqmDZ9A27RhY23T+r0BS9c0G50hk84Wk842k84Ok84uk84ek84+k87aQ/dWQlwR7XCFtMMV0w5XUDtcUe1whbXDFdcOV2A7XJE94IrsAdtczRXZA67IHhhFtn57tDWp6t3RLGTIM1S9N5qFDJn31TujWciQOV+9L5qFDJnvFl3RbHSY4pguYxYt0Wx0mEKZrmEW/dBsdJiimS5gFs3QbOZBpnimq5dFJzQbHaZ4pktX9TZoazIWXdBsdMjTY9EDzUaHTHeLDmg2OmS6W/Q/s9Eh092m+5mVEFdE0xXMpvWZlRBXUNNFzKbvmZUQV1zTdcym6ZnVzMgV2XQps+l4ZiXEFdl0NUO7M7Q7Q7uzR4Rod6Y2tDtDuzO0OyvY0O4M7c6Mjgrtztb8Db6PdmcPN7Q7u99quLvqG+sKABzgAAc4wAEOcIADHOAABzhPHucbaxYAGtCABjSgAQ1oQAMa0IAGNE+H5m/TpAA4wAEOcIADHOAABzjAAQ5wqvuh3dlyQ7uzVbuz4dPodrb1BLqdbTXY7ay/zdTuzEJoyCW0xSW0zSW0wyW0yyW0xyW0zyX02dP2Nkpsse2wBbfDFt0OW3g7bPHtsAW4wxbhDluIO2wxPmCL8QHf/M0W4wO2GB+YxbhJF7SHWjZt0Krr0GfJphFadR16FrBphVZdh54BbJqhVdehs9+qHZqFEFdEF5Q3q45oFkJcQV1Q26yaolkIccV1QWGz6otmMTNyRXZBVbNqjWYhxBXZBSXNpjvaQx2r9mgWQvQpsmqQZiFEJ79VizQLITr5rZqkWQjRyW/XJs1GiS22CyqbXac0GyW28C4obnbN0myU2CK8oL7Z9UuzmSvZYrygxNm1TLNRYovxgiqHrmnomoauaY8I0TVNbeiahq5p6JpWsKFrGrqmGR0Vuqat+Rt8H13THm7omna/1XCT1jfWXAA4wAEOcIADHOAABzjAAQ5wnjzON9ZzADSgAQ1oQAMa0IAGNKABDWieDs3fptcBcIADHOAABzjAAQ5wgAMc4FT3Q9e05YauaauuaVtPo2va9hPomrbdWNe0nfyZ0KodbriEhlxCW1xC21xCO1xCu1xCe1xC+1xCaw/f2ymxxbbDFtwOW3Q7bOHtsMW3wxbgDluEO2wh7rDF+IAtxgd88zdbjA/YYnxgFuP6XdPWtap3TbPRoc9S9a5pNjr0LFC9a5qNDj0DVO+aZqNDZ79F1zQrIa6ILihvFl3TrIS4grqgtll0TbMS4orrgsJm0TXNambkiuyCqmbRNc1KiCuyC0pa9a5p6zoWXdOshOhTZNE1zUqITn6LrmlWQnTyW3RNsxKik9+ma5qdEltsF1Q2m65pdkps4V1Q3Gy6ptkpsUV4QX2z6ZpmN1eyxXhBibPpmmanxBbjBVUOXdPQNQ1d0x4Romua2tA1DV3T0DWtYEPXNHRNMzoqdE1b8zf4PrqmPdzQNe1+q+EmrW+suQBwgAMc4AAHOMABDnCAAxzgPHmcb6znAGhAAxrQgAY0oAENaEADGtA8HZq/Ta8D4AAHOMABDnCAAxzgAAc4wKnuh65pyw1d01Zd07afRte0nSfQNW2nsa5p/d6ApWmajc6QSWeLSWebSWeHSWeXSWePSWefSWftmXsrIa6IdrhC2uGKaYcrqB2uqHa4wtrhimuHK7AdrsgecEX2gG2u5orsAVdkD4wiW7872ppU9eZoFjLkGareGs1Chsz76o3RLGTInK/eFs1Chsx3i6ZoNjpMcUyXMYuOaDY6TKFM1zCLdmg2OkzRTBcwi15oNvMgUzzT1cuiEZqNDlM806Wrehe0NRmLJmg2OuTpsWiBZqNDprtFAzQbHTLdLdqf2eiQ6W7T/MxKiCui6Qpm0/nMSogrqOkiZtP2zEqIK67pOmbT88xqZuSKbLqU2TQ8sxLiimy6mqHbGbqdodvZI0J0O1Mbup2h2xm6nRVs6HaGbmdGR4VuZ2v+Bt9Ht7OHG7qd3W813Fz1jTUFAA5wgAMc4AAHOMABDnCAA5wnj/ON9QoADWhAAxrQgAY0oAENaEADmqdD87fpUQAc4AAHOMABDnCAAxzgAAc41f3Q7Wy5odvZqtvZztPodrb7BLqd7TbY7ay/zdTuzEJoyCW0xSW0zSW0wyW0yyW0xyW0zyX02dP2Nkpsse2wBbfDFt0OW3g7bPHtsAW4wxbhDluIO2wxPmCL8QHf/M0W4wO2GB+YxbhJF7SHWjZt0Krr0GfJphFadR16FrBphVZdh54BbJqhVdehs9+qHZqFEFdEF5Q3q45oFkJcQV1Q26yaolkIccV1QWGz6otmMTNyRXZBVbNqjWYhxBXZBSXNpjvaQx2r9mgWQvQpsmqQZiFEJ79VizQLITr5rZqkWQjRyW/XJs1GiS22CyqbXac0GyW28C4obnbN0myU2CK8oL7Z9UuzmSvZYrygxNm1TLNRYovxgiqHrmnomoauaY8I0TVNbeiahq5p6JpWsKFrGrqmGR0Vuqat+Rt8H13THm7omna/1XCT1jfWXAA4wAEOcIADHOAABzjAAQ5wnjzON9ZzADSgAQ1oQAMa0IAGNKABDWieDs3fptcBcIADHOAABzjAAQ5wgAMc4FT3Q9e05YauaauuabtPo2va3hPomrbXWNe0nfyZ0KodbriEhlxCW1xC21xCO1xCu1xCe1xC+1xCaw/f2ymxxbbDFtwOW3Q7bOHtsMW3wxbgDluEO2wh7rDF+IAtxgd88zdbjA/YYnxgFuP6XdPWtap3TbPRoc9S9a5pNjr0LFC9a5qNDj0DVO+aZqNDZ79F1zQrIa6ILihvFl3TrIS4grqgtll0TbMS4orrgsJm0TXNambkiuyCqmbRNc1KiCuyC0pa9a5p6zoWXdOshOhTZNE1zUqITn6LrmlWQnTyW3RNsxKik9+ma5qdEltsF1Q2m65pdkps4V1Q3Gy6ptkpsUV4QX2z6ZpmN1eyxXhBibPpmmanxBbjBVUOXdPQNQ1d0x4Romua2tA1DV3T0DWtYEPXNHRNMzoqdE1b8zf4PrqmPdzQNe1+q+EmrW+suQBwgAMc4AAHOMABDnCAAxzgPHmcb6znAGhAAxrQgAY0oAENaEADGtA8HZq/Ta8D4AAHOMABDnCAAxzgAAc4wKnuh65pyw1d01Zd0/aeRte0/SfQNW2/sa5p/d6ApWmajc6QSWeLSWebSWeHSWeXSWePSWefSWftmXsrIa6IdrhC2uGKaYcrqB2uqHa4wtrhimuHK7AdrsgecEX2gG2u5orsAVdkD4wiW7872ppU9eZoFjLkGareGs1Chsz76o3RLGTInK/eFs1Chsx3i6ZoNjpMcUyXMYuOaDY6TKFM1zCLdmg2OkzRTBcwi15oNvMgUzzT1cuiEZqNDlM806Wrehe0NRmLJmg2OuTpsWiBZqNDprtFAzQbHTLdLdqf2eiQ6W7T/MxKiCui6Qpm0/nMSogrqOkiZtP2zEqIK67pOmbT88xqZuSKbLqU2TQ8sxLiimy6mqHbGbqdodvZI0J0O1Mbup2h2xm6nRVs6HaGbmdGR4VuZ2v+Bt9Ht7OHG7qd3W813Fz1jTUFAA5wgAMc4AAHOMABDnCAA5wnj/ON9QoADWhAAxrQgAY0oAENaEADmqdD87fpUQAc4AAHOMABDnCAAxzgAAc41f3Q7Wy5odvZqtvZ/pPodjbsf/vdzjLGprqdOVv9Xv/B5myxND9jlB3WI7tVj+x2PbI79cju1iO7V4/sfj2ya8/6c+rWlGdOTYnm1JRpTk2p5tSUa05NyebUlG1OTenm1JRvg5rybVBXXasp3wY15dvAJt/0u8oVKVdvMsenqnt2q7eg41PVncmqN6jjU9Wdxaq3r+NT1Z3BLJrbMcrWk13aywWLTniMsvUkmPZawaJtHqNsPTmmvVCw6LHHWBXqyTLtVYJFQz5G2XqyTHuJUL17X5GqRTM/RlndU2vR6o9RVncCs2gEyCirO4FZtAlklNWdwGyaCHLq1pRn2isFm46DnLo1pZr2YsGmPSGnbk3Zpr1esOllyFknaso37SWDTeNDTt2a8k171YAuieiSiC6JjwjRJVFt6JKILonokliwoUsiuiQaHRW6JK75G3wfXRIfbuiSeL/VcFPmN9ZMBDjAAQ5wgAMc4AAHOMABDnCePM431mMENKABDWhAAxrQgAY0oAENaJ4Ozd+mtwlwgAMc4AAHOMABDnCAAxzgVPf7Cl0S38vrqYzddBZL0X69gaaJ31bTRBnf+CMp/uOqyHsTRVOhLpi6z3mr//ppNFB0nkADRae5Borq/6t2amLSGTLpbDHpbDPp7DDp7DLp7DHp7DPprDcYsBHiimiHK6Qdrph2uILa4YpqhyusHa64drgC2+GK7AFXZA/Y5mquyB5wRfbAKLINGvs9lLLo5FddhjxDFr36qsuQeW/Rja+6DJnzFv32qsuQ+W7TUc9ChymO6TJm0yTPQocplOkaZtP3zkKHKZrpAmbTys5iHmSKZ7p62XSns9Bhime6dFk0nHsoY9NhzkKHPD02PeQsdMh0t+kSZ6FDprtNHzgLHTLdrTq92QhxRTRdwayat9kIcQU1XcSs+rHZCHHFNV3HrFqs2cyMXJFNlzKrrmk2QlyRTVezR0K/x34U++lcOKIr2qezcEO1pNrp/h837Padbv7/r+Soq36B+eUy11/7Qe/oaGtrf5/BYlC/xbB+i636Lbbrt9ip32K3fou9+i3267dYq+x1eTSQ304DCe40kOFOAynuNJDjTgNJ7jSQ5U4Dae40kOeDBvJ80EQdbyDPBw3k+aBang9yDzelPPp6y6rhcDDY22GwoK8GmwV9Mdgs6GvBZkFPuWwW9IzLZkFPuGwW9HzLZkFPt2wWBcsqPo8G8rtgWcXn0UCGFyyr+DwayPGCZRWfRwNZXrCs4vNoIM8LllV8Hk3U8QbyvGBZxedRLc+HyuN17BMeg329ZZXj7O4OhwwW9NVgs6AvBpsFfS3YLOgpl82CnnHZLOgJl82Cnm/ZLOh7o9gsCm4I5POg76ji86BvtuLzoO/D4vOgb9Hi86DvS+TzoG9Z5POg72bk86BvdOTzaCDPC5ZVfB5N1PEGCnnBsorPo1op31Ie7yczymNPb1m1n23bPzJY0FeDzYK+GGwW9LVgs6CXVWwW9LKKzYJeVrFZ0MsqNgt6umWzKFhW8XnQyyo+D3pZxedBL6v4POhlFZ8Hvazi86CXVXwe9LKKz4NeVvF5NJDnBcsqPo8m6ngDhbxgWcXnUa2UbyuP/0iP8tjVW1a9enV8vLvLYEFfDTYL+mKwWdDXgs2CXlaxWdDLKjYLelnFZkEvq9gs6OmWzaJgWcXnQS+r+DzoZRWfB72s4vOgl1V8HvSyis+DXlbxedDLKj4PelnF59FAnhcsq/g8mqjjDRTygmUVn0e1Ur6TL91mkvLY0VtWHR/v7LBY0FeDzYK+GGwW9LVgs6CXVWwW9LKKzYJeVrFZ0MsqNgt6umWzKFhW8XnQyyo+D3pZxedBL6v4POhlFZ8Hvazi86CXVXwe9LKKz4NeVvF5NJDnBcsqPo8m6ngDhbxgWcXnUa2U7yqPXyPqtvjBtt6yam9vMNjeZrCgrwabBX0x2Czoa8FmQS+r2CzoZRWbBb2sYrOgl1VsFkV9p5gsCputcXkUdavi8ihqZMXlUdTjisujqP0Vl0dRzzcuj6J2cFweRZ3iuDyKmshxeTSQ5wXLKj6PJup4A4W8YFnF51Feyj/odHhd9mQWhyKUt6sGsnnf2HZyM+7kHWBLW8WuGjsnMv0xmoVe0t7ud4TjbHfEUP3fYFuv3exdhnHflNrzjt1UjqN4fnTnJ4u2yPfHr9E9OhN4G3syfjdTXYq1d1Qc83WOX6WbzGK5wFCNlpfnveb23BjGMIYxjGEMYxjDGMYwhjGMYQxjGMMYxjCGMYxhDGMYwxjGMIYxjGEMYxjDGMYwhjGMYQxjGMMYxjCGMYxhDGMYwxjGMIYxjGEMYxjDGH5Ww/NedCPj2Pfkr656sNbp9S2fV1WPxibrj8aeytiXyfLx2lZn9QDxNIjSXuCHsvQR2eRLz+mWP1mb9PJXz0+jwE39KMygWkkqp90LeRnFsqX35PMbOZaht35Ai8/aO/2OGKonl/vqQWb1TyuQl6kCK5FeyfbOxzI9CVN1fjKLy1k4yknbG+LPEokVobzf+6z0WW61+ZeinU78pJfkV0XPSG0Pdupl5+/EHU3afwGbqq3w1aPjGftS93waJb4SfJV9rHM0q03JfIEqjm7NkFZYfuhJlQ9dp2O492q7qrrjpS8DFW/t5Tld5Mk4jmZT6Ynvvxf/WH5+1zufuMny+XeVYBsPR+dfHM1OSM8dj18rj14gw3E6ES/FQPxbtI6CoCUO1r+RBP5ItrvOxln/w0Zpvj06kigW7avsUPo/iKvMZhmqS1/12T+zGcf8AqlNhfFS7+zqQ++jnIvDw8PFyaummKsuL/uV6aGutotYuh+r7PzJcB/T76vztTy6QxXWKhiWkZI3cuidu0nij0PpHasWEclZfiY/VDuVqws9nSWTdtVrkV3Sg8X1rJ5JQXCgc5Q99c2qLkkaRx+lns/iu1Wdoqk78tO5ntXyy5WPKrdYWVVVWU0k69NKlfQwnnzUtkrn9YlHdIVjqmaSbvqsnzp5VdX6/qeyNYXaNjfF73+8F/99+8c7cfr23ftffvtJvHn70y/H4ueTdyd6Aq+zWVveuWqJJtJIJFGcinB2ncXBSOQtTRLhJqNs8eKHYw3F1blXOg8qs9sRF/qTSyzTWRyKqRsn8nUQuWnbVVP+RnYpH3x2kX+mdTLLl2gPbJeHUCb8qd5OL/frzzzd82Rvv/DkpTsLUjGNo2wOky864sV3e3vHxycnL2puPAMc4AAHOMABDnCAAxzgAAc4zxNHJLPr7Edg4Un1ofDcuSKKpQca0IAGNKABDWhAAxrQgAY0oCmmuc1vzfqM5iKYSeAABzjAAQ5wgAMc4AAHOMABThWc+/cGOuq9gacz6r2BQyf/C9vR0dbW/j5IQQpSkIIUpCAFKUhBClKQghSkIH0apIOc1E0p0n5OOhwOBns7IAUpSEEKUpCCFKQgBSlIQQpSkIL0aZAOFenr2CdIB/s5qePs7g6HIAUpSEEKUpCCFKQgBSlIQQpSkIL0aZBuKdL3kxlFupeT7mfb9o8gBSlIQQpSkIIUpCAFKUhBClKQgvRpkG4r0v9IjyLdzUlfvTo+3t0FKUhBClKQghSkIAUpSEEKUpCCFKRPg3Qn/83ETFKkOznp8fHODkhBClKQghSkIAUpSEEKUpCCFKQgfSqku4r014jqLDjYzkn39gaD7W2QghSkIAUpSEEKUpCCFKQgBSlIQdoY6QrFi93bdqnYXS/100CeTtyp7KXyLm2/+DmaxUk5xvzxnq/8axkmfhQGMskVSiQ2N8WR5wlX5Eri1k8nIomupfCGJXsmN+OeO53K0Gu3lHdro2SH1dZz0zRut+5aHbHTN9xpnu000N8pSeeBXOB13XA0ieJs/1YgLw1olxqXUZh2b6U/nqRK4yIKPH2NxbU5nXb/F4XSEW8vL/2RFKfzpDsUr4O464jT0aR7JH7+PRhdp90kmmWX4X+/id9Ojn9UX0vltRiK30//J96ORuq7LzaKLuzLzWQU+9P0X+R3Xm56/s2Xh8l9aLFMS/jeYWukov44O1GuH8r4fDhoifzsHbY8P5kG7vzAD4NsqHsRRKOPP7Rovkx0cQginU+z/dUJ3Lxyb9zFp4V7qu3GjVWAikPh+dfTQPZCeXt6M263vnvM2BFb/X7+T2nCKVnPTd1M9+zPVuBeyKB10PLkpTsLUjGNo0s/kK3OYuT8rnXg9Pqd1o0bzOTy/0dqXsr2yaaa4+OTk9anjpbOgElnyKSzxaSzzaSzw6Szy6Szx6Szz6Tj9LmEuCLa4QpphyumHa6gdrii2uEKa4crrh2uwHa4InvAFdkDtrmaK7IHXJE9MIpskcyur9deVK1V0WLpGciQ58hMhjxDZjLk+TGTIfPeTIbMejMZMufNZMiMN5Mh891Mhi5khjpMcUyXMUMdpkimi5ihDlMs0yXMUIcpmukCZqjDFM90+TLU4ZqXmeKZrl2GOvrxfOuHqXnZulAf6euQp8dQhzw9hjrk6THUIdPdUIdMd0MdMt0Ndch0N9Qh091Qh65fpkJcEU1XMFMhrpima5ipEFdU01XMVIgrruk6ZirEFdl0JTMVYpuruSKbLmamQvqRff+Xi9I3C1Nlrr/2g97i1cMMFoP6LYb1W2zVb7Fdv8VO/Ra79Vvs1W+xX7/FWmWvy6OB/HYaSHCngQx3Gkhxp4EcdxpIcqeBLHcaSHOngTwfNJDngybqeAN5PmggzwfV8rz0BY56y6rFGx4ZLOirwWZBXww2C/pasFnQUy6bBT3jslnQEy6bBT3fslnQ0y2bRcGyis+jgfwuWFbxeTSQ4QXLKj6PBnK8YFnF59FAlhcsq/g8GsjzgmUVn0cTdbyBPC9YVvF5VMvz0vdk6S2rFi/SYrCgrwabBX0x2Czoa8FmQU+5bBb0jMtmQU+4bBb0fMtmQd8bxWZRcEMgnwd9RxWfB32zFZ8HfR8Wnwd9ixafB31fIp8Hfcsinwd9NyOfB32jI59HA3lesKzi82iijjdQyAuWVXwe1Up56etI9JZVi/eVMFjQV4PNgr4YbBb0tWCzoJdVbBb0sorNgl5WsVnQyyo2C3q6ZbMoWFbxedDLKj4PelnF50Evq/g86GUVnwe9rOLzoJdVfB70sorPg15W8Xk0kOcFyyo+jybqeAOFvGBZxedRrZSXdn3XW1Yt2sIzWNBXg82CvhhsFvS1YLOgl1VsFvSyis2CXlaxWdDLKjYLerplsyhYVvF50MsqPg96WcXnQS+r+DzoZRWfB72s4vOgl1V8HvSyis+DXlbxeTSQ5wXLKj6PJup4A4W8YFnF51GtlJc219VbVi267zJY0FeDzYK+GGwW9LVgs6CXVWwW9LKKzYJeVrFZ0MsqNgt6umWzKFhW8XnQyyo+D3pZxedBL6v4POhlFZ8Hvazi86CXVXwe9LKKz4NeVvF5NJDnBcsqPo8m6ngDhbxgWcXnUa2Ul/Yw1FtWLZocMljQV4PNgr4YbBb0tWCzoJdVbBb0sorNgl5WsVnQyyo2i6K+U0wWhc3WuDyKulVxeRQ1suLyKOpxxeVR1P6Ky6Oo5xuXR1E7OC6Pok5xXB5FTeS4PBrI84JlFZ9HE3W8gUJesKzi8ygv5R90Orwu2zeLQxHK21UD2bxvbDu5GXfyDrClrWJXPaATmf4YzUIvaW/3O8JxtjtiqP5vsK3XbvYuw7hvbe15x24qx1E8P7rzk0UP5fvj12g0nQm8jT0Zv5uplsbaOyqO+TrHr9JNZrFcYKiuzMvzXnOTbwxjGMMYxjCGMYxhDGMYwxjGMIYxjGEMYxjDGMYwhjGMYQxjGMMYxjCGMYxhDGMYwxjGMIYxjGEMYxjDGMYwhjGMYQxjGMMYxjCGMYxhDD+r4XkvupFx7HvyV1c9WOv0+pbPq6pHY5P1R2NPZezLZPl4bauzeoB4GkRpL/BDWfqIbPKl53TLn6xNevmr56dR4KZ+FGZQrSSV0+6FvIxi2dJ78vmNHMvQWz+gxWftnX5HDNWTy331ILP6pxXIy1SBlUivZHvnY5mehKk6P5nF5Swc5aTtDfFnicSKUN7vfVb6LLfa/EvRTid+0kvyq6JnpLYHO/Wy83fijibtv4BN1Vb46tHxjH2pez6NEl8Jvso+1jma1aZkvkAVR7dmSCssP/Skyoeu0zHce7VdVd3x0peBirf28pwu8mQcR7Op9MT334t/LD+/651P3GT5/LtKsI2Ho/MvjmYnpOeOx6+VRy+Q4TidiJdiIP4tWkdB0BIH699IAn8k211n46z/YaM03x4dSRSL9lV2KP0fxFVmswzVpa/67J/ZjGN+gdSmwnipd3b1ofdRzsXh4eHi5FVTzFWXl/3K9FBX20Us3Y9Vdv5kuI/p99X5Wh7doQprFQzLSMkbOfTO3STxx6H0jlWLiOQsP5Mfqp3K1YWezpJJu+q1yC7pweJ6Vs+kIDjQOcqe+mZVlySNo49Sz2fx3apO0dQd+elcz2r55cpHlVusrKqqrCaS9WmlSnoYTz5qW6Xz+sQjusIxVTNJN33WT528qmp9/1PZmkJtm5vi9z/ei/++/eOdOH377v0vv/0k3rz96Zdj8fPJuxM9gdfZrC3vXLVEE2kkkihORTi7zuJgJPKWJolwk1G2ePHDsYbi6twrnQeV2e2IC/3JJZbpLA7F1I0T+TqI3LTtqil/I7uUDz67yD/TOpnlS7QHtstDKBP+VG+nl/v1Z57uebK3X3jy0p0FqZjGUTaHyRcd8eK7vb3j45OTFzU3ngEOcIADHOAABzjAAQ5wgAOc54kjktl19iOw8KT6UHjuXBHF0gMNaEADGtCABjSgAQ1oQAMa0BTT3Oa3Zn1GcxHMJHCAAxzgAAc4wAEOcIADHOAApwrO/XsDHfXewNMZ9d7AoZP/he3oaGtrfx+kIAUpSEEKUpCCFKQgBSlIQQpSkD4N0kFO6qYUaT8nHQ4Hg70dkIIUpCAFKUhBClKQghSkIAUpSEH6NEiHivR17BOkg/2c1HF2d4dDkIIUpCAFKUhBClKQghSkIAUpSEH6NEi3FOn7yYwi3ctJ97Nt+0eQghSkIAUpSEEKUpCCFKQgBSlIQfo0SLcV6X+kR5Hu5qSvXh0f7+6CFKQgBSlIQQpSkIIUpCAFKUhBCtKnQbqT/2ZiJinSnZz0+HhnB6QgBSlIQQpSkIIUpCAFKUhBClKQPhXSXUX6a0R1Fhxs56R7e4PB9jZIQQpSkIIUpCAFKUhBClKQghSkIG2MdIXixe5tu1Tsrpf6aSBPJ+5U9lJ5l7Zf/BzN4qQcY/54z1f+tQwTPwoDmeQKJRKbm+LI84QrciVx66cTkUTXUnjDkj2Tm3HPnU5l6LVbyru1UbLDauu5aRq3W3etjtjpG+40z3Ya6O+UpPNALvC6bjiaRHG2fyuQlwa0S43LKEy7t9IfT1KlcREFnr7G4tqcTrv/i0I5EK/9UIrTNIrdcfbfedLdEq+DuOuI09GkeyR+/j0YXafdJJplF+N/v4nfTo5/VF9L5bXYEr+f/k+8HY3Ud19sFF3el5vJKPan6b/I77zc9PybLw+T+9BimZbwvcPWSMX+cXa63Oww4/PhsCXyc3jY8vxkGrjzAz8MsqHuRRCNPv7Qovky0cUhiHQ+zfZXp3Hzyr1xF58W7qm2GzdWYSoOhedfTwPZC+Xt6c243fruMWNHbPX7+T+laadkPTd1M92zP1uBeyGD1kHLk5fuLEjFNI4u/UC2OouR87vWgdPrd1o3bjCTy/8fqdkp2yebcI6PT05anzpaOgMmnSGTzhaTzjaTzg6Tzi6Tzh6Tzj6TjtPnEuKKaIcrpB2umHa4gtrhimqHK6wdrrh2uALb4YrsAVdkD9jmaq7IHnBF9sAoskUyu75ee121VkWLpWcgQ54jMxnyDJnJkOfHTIbMezMZMuvNZMicN5MhM95Mhsx3Mxm6kBnqMMUxXcYMdZgimS5ihjpMsUyXMEMdpmimC5ihDlM80+XLUIdrXmaKZ7p2Gerox/OtH6bmZetCfaSvQ54eQx3y9BjqkKfHUIdMd0MdMt0Ndch0N9Qh091Qh0x3Qx26fpkKcUU0XcFMhbhimq5hpkJcUU1XMVMhrrim65ipEFdk05XMVIhtruaKbLqYmQrpR/b93y9K3y9Mlbn+2g96ixcQM1gM6rcY1m+xVb/Fdv0WO/Vb7NZvsVe/xX79FmuVvS6PBvLbaSDBnQYy3GkgxZ0GctxpIMmdBrLcaSDNnQbyfNBAng+aqOMN5PmggTwfVMvz0tc46i2rFu95ZLCgrwabBX0x2Czoa8FmQU+5bBb0jMtmQU+4bBb0fMtmQU+3bBYFyyo+jwbyu2BZxefRQIYXLKv4PBrI8YJlFZ9HA1lesKzi82ggzwuWVXweTdTxBvK8YFnF51Etz0vflqW3rFq8TovBgr4abBb0xWCzoK8FmwU95bJZ0DMumwU94bJZ0PMtmwV9bxSbRcENgXwe9B1VfB70zVZ8HvR9WHwe9C1afB70fYl8HvQti3we9N2MfB70jY58Hg3kecGyis+jiTreQCEvWFbxeVQr5aUvJdFbVi3eWsJgQV8NNgv6YrBZ0NeCzYJeVrFZ0MsqNgt6WcVmQS+r2Czo6ZbNomBZxedBL6v4POhlFZ8Hvazi86CXVXwe9LKKz4NeVvF50MsqPg96WcXn0UCeFyyr+DyaqOMNFPKCZRWfR7VSXtr7XW9ZtWgOz2BBXw02C/pisFnQ14LNgl5WsVnQyyo2C3pZxWZBL6vYLOjpls2iYFnF50Evq/g86GUVnwe9rOLzoJdVfB70sorPg15W8XnQyyo+D3pZxefRQJ4XLKv4PJqo4w0U8oJlFZ9HtVJe2mJXb1m16MHLYEFfDTYL+mKwWdDXgs2CXlaxWdDLKjYLelnFZkEvq9gs6OmWzaJgWcXnQS+r+DzoZRWfB72s4vOgl1V8HvSyis+DXlbxedDLKj4PelnF59FAnhcsq/g8mqjjDRTygmUVn0e1Ul7ayVBvWbVodchgQV8NNgv6YrBZ0NeCzYJeVrFZ0MsqNgt6WcVmQS+r2CyK+k4xWRQ2W+PyKOpWxeVR1MiKy6OoxxWXR1H7Ky6Pop5vXB5F7eC4PIo6xXF5FDWR4/JoIM8LllV8Hk3U8QYKecGyis+jvJR/0OnwumziLA5FKG9XDWTzvrHt5GbcyTvAlraKXXWCTmT6YzQLvaS93e8Ix9nuiKH6v8G2XrvZuwzjvsG15x27qRxH8fzozk8WnZTvj1+j3XQm8Db2ZPxuphoba++oOObrHL9KN5nFcoGhejMvz3vNrb4xjGEMYxjDGMYwhjGMYQxjGMMYxjCGMYxhDGMYwxjGMIYxjGEMYxjDGMYwhjGMYQxjGMMYxjCGMYxhDGMYwxjGMIYxjGEMYxjDGMYwhjH8rIbnvehGxrHvyV9d9WCt0+tbPq+qHo1N1h+NPZWxL5Pl47WtzuoB4mkQpb3AD2XpI7LJl57TLX+yNunlr56fRoGb+lGYQbWSVE67F/IyimVL78nnN3IsQ2/9gBaftXf6HTFUTy731YPM6p9WIC9TBVYivZLtnY9lehKm6vxkFpezcJSTtjfEnyUSK0J5v/dZ6bPcavMvRTud+Ekvya+KnpHaHuzUy87fiTuatP8CNlVb4atHxzP2pe75NEp8Jfgq+1jnaFabkvkCVRzdmiGtsPzQkyofuk7HcO/VdlV1x0tfBire2stzusiTcRzNptIT338v/rH8/K53PnGT5fPvKsE2Ho7OvzianZCeOx6/Vh69QIbjdCJeioH4t2gdBUFLHKx/Iwn8kWx3nY2z/oeN0nx7dCRRLNpX2aH0fxBXmc0yVJe+6rN/ZjOO+QVSmwrjpd7Z1YfeRzkXh4eHi5NXTTFXXV72K9NDXW0XsXQ/Vtn5k+E+pt9X52t5dIcqrFUwLCMlb+TQO3eTxB+H0jtWLSKSs/xMfqh2KlcXejpLJu2q1yK7pAeL61k9k4LgQOcoe+qbVV2SNI4+Sj2fxXerOkVTd+Sncz2r5ZcrH1VusbKqqrKaSNanlSrpYTz5qG2VzusTj+gKx1TNJN30WT918qqq9f1PZWsKtW1uit//eC/++/aPd+L07bv3v/z2k3jz9qdfjsXPJ+9O9AReZ7O2vHPVEk2kkUiiOBXh7DqLg5HIW5okwk1G2eLFD8caiqtzr3QeVGa3Iy70J5dYprM4FFM3TuTrIHLTtqum/I3sUj747CL/TOtkli/RHtguD6FM+FO9nV7u1595uufJ3n7hyUt3FqRiGkfZHCZfdMSL7/b2jo9PTl7U3HgGOMABDnCAAxzgAAc4wAEOcJ4njkhm19mPwMKT6kPhuXNFFEsPNKABDWhAAxrQgAY0oAENaEDz/9s73962bS2Mv7+fglcDNgfXViz5X5w1u0idZB2wNkXdYViDIqAt2lYiS4ZEJTGGfPeJspwbJ1FNSmJb4z58Eaei+PBH6pxDIlSPv0xzm76a9YRm5MUMOMABDnCAAxzgAAc4wAEOcIBTBOfhewMt8b2BwzjvewNbVnrCdnzcbvf7IAUpSEEKUpCCFKQgBSlIQQpSkIJ0N0jtlJTyPNJmStpq2fZBF6QgBSlIQQpSkIIUpCAFKUhBClKQ7gZpS5CehW4Oqd1PSS2r12u1QApSkIIUpCAFKUhBClKQghSkIAXpbpC2BenHWZxHepCS9pPSeQ1SkIIUpCAFKUhBClKQghSkIAUpSHeDtCNI/2ROHmkvJT05GQx6PZCCFKQgBSlIQQpSkIIUpCAFKUhBuhuk3fQvEzHLI+2mpINBtwtSkIIUpCAFKUhBClKQghSkIAUpSHeFtCdI3wZ5mQXtTkp6cGDbnQ5IQQpSkIIUpCAFKUhBClKQghSkIP1qpGsUJ6S3ta1idyZ3uceGM7pgJmd3vPbTmyAOo+0Yy+ctT9w58yM38D0WpQpbJPb3ybHjEEpSJXLr8hmJgjkjTmtLy+hmatLFgvlOzRB9G3tbGqyLSTkPa8adUSfdpmKjZdLIlm8U8aXHVngN6o9nQZi0Nzw2UaDNNCaBzxu3zJ3OuNAYBZ4jr7F6NsNF41PgsxZ5HXvXZMiDkE4ZGS6jRpuceWHDIsPxrHFM3rz3xnPeYDTi5NM78u508FrcxdmctMn74SdyPh6LW3/a+9LTfbUfjUN3wX/JvefVvuPevFyd2yZfLNEirnNkjIXpD5LZoq7PwstW2yDpFB4ZjhstPLo8dH0vqWqMvGB8/bORz5eIroZA+HKRtBezuH9Fb+jq6hdbinJDQ2Gl5Ig47nzhMdNnt8Obac344TljnbSbzfTHVq8Tsg7lNNG9+Nvw6Ih5xqHhsAmNPU4WYTBxPWbUVzWXd8ahZTbrxg31YmYcdvtm/1E56NeNsQhViUISfQaD01Pjvi6lamtRbWlRbWtR7WhR7WpR7WlRPdCi2teiajX1yOrxLkuPe1l6/MvS42CWHg+z9LiYpcfHLD1OZunxMluPl9ma1jA9Xmbr8TK7hJeRKJ7PN779u8AOIWSOgqjk3KqJSs6smqjkvKqJSsYuNVHJyKUmKhm31EQlo5aaqGTMUhOV3RgoqmrxKdltgaKqFq+S3RQoqmrxK9ktgaKqFs+S3RAoqmrxLdntgKKqnvVKi2/J7gUUVYv61q3r87LbgJG4QV5VcloVVSWnVVFVcloVVSVDlqKqZMhSVJUMWYqqkiFLUVUyZCmqyu4HVGX1eJfsjkBVVo9/ye4JVGX1eJjsrkBVVo+Pye4LVGX1eJnszkBVVtMapsfLZDcHqrJKXvZZ5sAhO1IkR8Rnt+vzjPQYoxbdTOvpgcTWk4v1uWTE+Osg9p2o1mnWiWV16qQlfrM7cqcfdwnGw3Gr4wwoZ9MgXB7fudHqXO9hKiQOPxOB89Bh4YdYHLNJNxQcy02Ot4xGcchWGOKkMHsEZY9z03Okza6GLHRZlOEmPWUPZOEF3BSHW1u7jF4a93bSyEztbhF4lLuBn0AZEWeLxohNgpAZcpb0O5sy39kc0OparZtYQUtYgjgMs8SP7LR060HyWta8nDJ+6nMxP0kXk9gfp6S1PfK3xHGpIGQPrS+2+oYo7oTU+MyNErsW7eQ6EuVRIzOZv1M6ntX+B6yqtsbPzgYz3ctFELlC8CS5LDOadREyL1CFwa0a0hrL9R0mHLdh1RVbr8tV0YYTl3nC3mrZnK78ZBoG8YI55Mcfyb+z63fm5YxGWTwRDrb3uHb5Ym0yISadTs9EH6bH/CmfkVfEJv8lxrHnGeRw847Ic8es1rD2Lpqf97b627ORBCGpXSVDaf5MrpJuMlPN+hXX/nNELPUHJIow40zv4uqzec2S8HZ0tJq8YoqpavbYr1SHui6jkNHrIo3vFduo3i/mKxvdkTBrYQyZpaQLo3m5ehWIOenLQNFFOpOfi03l+kEv4mhWK/oskkd6uHqexT3J8w5lRmmKO4v2EvEwuGZy/azuLdpTsKBjly/luspuLjyqtIt1V0VV1oFkM6wUcQ/l4CPK2p03Aw9pEEtVTcXd5Fnv6+mqKnX//bY9hSj7++T9Hx/JX+d/fCDD8w8ff3v3K/n9/NffBuTN6YdTOYGzJGqzOyq2aIQHJAqSjbQfzxM7GJN0ixgRGo2TzYvrTyUU13MvdB6tzLRORvLBJWQ8Dn2yoGHEzryA8hoVIX8veZSPro3Sa1KTuX2L9qjbbAjbhO+/wSubTw5gs/cyxYHqN3mDFDjAAQ5wgAMc4AAHOMABDnB2Huf5Cy6CKGQOaEADGtCABjSgAQ1oQAMa0IDmyzTPXgkUNOIVP+AABzjAAQ5wgAMc4AAHOMABzjdMlPiRzRcspDwOGamd7SFV4neVKvFPKizuDUs/jucjl/mciEcm8h4yJ07mv0F6zbPdSIHY2YEUiJ2vlgIx/Y+nRVMwVaTTqkinXZFOpyKdbkU6vYp0DirS6Veks5FboJRQVRZtVWXSVlU2bVVl1FZVVm1VZdZWVXZtVWXYVlWWbVdl2XZlsboqy7arsmxbybLlU/ZtSBVP0ldCJneGiifiKyGT6/fFk+2VkMn1+eIJ9UrI5Pp7iaR5ZXQqsuP8ZaxEKrwyOhWZcv4aViLBXRmdiqw5fwErkbauTBysyJ7zV68SyejK6FRkz/lLV/EUcxsyJZLKldHJnZ4SiePK6OS6e4nkcGV0ct29RAK4Mjq57l4myVspoaosOn8FK5O6rZRQVUadv4iVSchWSqgqu85fx8qkWSsVGauy7PylrEzytFJCVVl2/mqGlGg7kRIN1ahGNapRjWpUoxrVqEY1qlGNalSjGtXfU/XSDG5YGLoOe0vFH6oss4mU+I9GgpT4DwUp8ZUKUuIjJb5CQUr8pwUp8Z8WpMRXLEiJj5T4LxakxAcOcIADHOAABzjAAQ5wgAMc4OxCQknQgAY0oAENaEADGtCABjSg2R2a/5tElsABDnCAAxzgAAc4wAEOcIBTvL9vkBL/xJ0zP3ID32NRhIT431dC/CC8JqeTiTt2mT9ePqTB/7oJ8LO7n9Q8/vf699Xng3r2y8PHKHCW4nPG594v//oHNppWNQ=="
               },
               {
                  "name" : "annual_peak_electric_demand",
                  "units" : "kW",
                  "value" : 93.487890000000007
               },
               {
                  "name" : "first_year_capital_cost",
                  "units" : "$",
                  "value" : 0
               },
               {
                  "name" : "annual_utility_cost",
                  "units" : "$",
                  "value" : 0
               },
               {
                  "name" : "total_lifecycle_cost",
                  "units" : "$",
                  "value" : 0
               }
            ],
            "step_warnings" : []
         }
      }
   ],
   "updated_at" : "20170710T190654Z",
   "weather_file" : "USA_CO_Denver.Intl.AP.725650_TMY3.epw"
}
