{
   "completed_at" : "20170710T182646Z",
   "completed_status" : "Success",
   "created_at" : "2017-07-10 18:24:17 +0000",
   "current_step" : 5,
   "description" : "",
   "eplusout_err" : "Program Version,EnergyPlus, Version 8.7.0-78a111df4a, YMD=2017.07.10 18:25,IDD_Version 8.7.0\n   ************* IDF Context for following error/warning message:\n   ************* Note -- lines truncated at 300 characters, if necessary...\n   *************      5 Building,\n   ************* indicated Name=NECB 2011-RetailStandalone-NECB HDD Method-CAN_BC_Vancouver.718920_CWEC.epw created: 2017-07-10 18:24:31 +0000\n   ************* Only last 1 lines before error line shown.....\n   *************      6   NECB 2011-RetailStandalone-NECB HDD Method-CAN_BC_Vancouver.718920_CWEC.epw created: 2017-07-10 18:24:31 +0000, !- Name\n   ** Warning ** IP: IDF line~6 Alpha Argument length exceeds maximum, will be truncated=  NECB 2011-RetailStandalone-NECB HDD Method-CAN_BC_Vancouver.718920_CWEC.epw created: 2017-07-10 18:24:31 +000\n   **   ~~~   ** Will be processed as Alpha=NECB 2011-RETAILSTANDALONE-NECB HDD METHOD-CAN_BC_VANCOUVER.718920_CWEC.EPW CREATED: 2017-07-10 18:24:31 +0000\n   ************* Beginning Zone Sizing Calculations\n   ** Warning ** ProcessScheduleInput: Schedule:Day:Interval=\"ECONOMIZER MAX OA FRACTION 100 PCT DEFAULT\", Blank Schedule Type Limits Name input -- will not be validated.\n   ** Warning ** ProcessScheduleInput: Schedule:Day:Interval=\"SCHEDULE DAY 1\", Blank Schedule Type Limits Name input -- will not be validated.\n   ** Warning ** ProcessScheduleInput: Schedule:Day:Interval=\"SCHEDULE DAY 10\", Blank Schedule Type Limits Name input -- will not be validated.\n   ** Warning ** ProcessScheduleInput: Schedule:Day:Interval=\"SCHEDULE DAY 11\", Blank Schedule Type Limits Name input -- will not be validated.\n   ** Warning ** ProcessScheduleInput: Schedule:Day:Interval=\"SCHEDULE DAY 12\", Blank Schedule Type Limits Name input -- will not be validated.\n   ** Warning ** ProcessScheduleInput: Schedule:Day:Interval=\"SCHEDULE DAY 13\", Blank Schedule Type Limits Name input -- will not be validated.\n   ** Warning ** ProcessScheduleInput: Schedule:Day:Interval=\"SCHEDULE DAY 14\", Blank Schedule Type Limits Name input -- will not be validated.\n   ** Warning ** ProcessScheduleInput: Schedule:Day:Interval=\"SCHEDULE DAY 15\", Blank Schedule Type Limits Name input -- will not be validated.\n   ** Warning ** ProcessScheduleInput: Schedule:Day:Interval=\"SCHEDULE DAY 16\", Blank Schedule Type Limits Name input -- will not be validated.\n   ** Warning ** ProcessScheduleInput: Schedule:Day:Interval=\"SCHEDULE DAY 17\", Blank Schedule Type Limits Name input -- will not be validated.\n   ** Warning ** ProcessScheduleInput: Schedule:Day:Interval=\"SCHEDULE DAY 18\", Blank Schedule Type Limits Name input -- will not be validated.\n   ** Warning ** ProcessScheduleInput: Schedule:Day:Interval=\"SCHEDULE DAY 19\", Blank Schedule Type Limits Name input -- will not be validated.\n   ** Warning ** ProcessScheduleInput: Schedule:Day:Interval=\"SCHEDULE DAY 2\", Blank Schedule Type Limits Name input -- will not be validated.\n   ** Warning ** ProcessScheduleInput: Schedule:Day:Interval=\"SCHEDULE DAY 20\", Blank Schedule Type Limits Name input -- will not be validated.\n   ** Warning ** ProcessScheduleInput: Schedule:Day:Interval=\"SCHEDULE DAY 21\", Blank Schedule Type Limits Name input -- will not be validated.\n   ** Warning ** ProcessScheduleInput: Schedule:Day:Interval=\"SCHEDULE DAY 22\", Blank Schedule Type Limits Name input -- will not be validated.\n   ** Warning ** ProcessScheduleInput: Schedule:Day:Interval=\"SCHEDULE DAY 23\", Blank Schedule Type Limits Name input -- will not be validated.\n   ** Warning ** ProcessScheduleInput: Schedule:Day:Interval=\"SCHEDULE DAY 24\", Blank Schedule Type Limits Name input -- will not be validated.\n   ** Warning ** ProcessScheduleInput: Schedule:Day:Interval=\"SCHEDULE DAY 5\", Blank Schedule Type Limits Name input -- will not be validated.\n   ** Warning ** ProcessScheduleInput: Schedule:Day:Interval=\"SCHEDULE DAY 6\", Blank Schedule Type Limits Name input -- will not be validated.\n   ** Warning ** ProcessScheduleInput: Schedule:Day:Interval=\"SCHEDULE DAY 7\", Blank Schedule Type Limits Name input -- will not be validated.\n   ** Warning ** ProcessScheduleInput: Schedule:Day:Interval=\"SCHEDULE DAY 8\", Blank Schedule Type Limits Name input -- will not be validated.\n   ** Warning ** ProcessScheduleInput: Schedule:Day:Interval=\"SCHEDULE DAY 9\", Blank Schedule Type Limits Name input -- will not be validated.\n   ** Warning ** ProcessScheduleInput: Schedule:Year=\"ECONOMIZER MAX OA FRACTION 100 PCT\", Blank Schedule Type Limits Name input -- will not be validated.\n   ** Warning ** ProcessScheduleInput: Schedule:Year=\"SCHEDULE RULESET 10\", Blank Schedule Type Limits Name input -- will not be validated.\n   ** Warning ** ProcessScheduleInput: Schedule:Year=\"SCHEDULE RULESET 11\", Blank Schedule Type Limits Name input -- will not be validated.\n   ** Warning ** ProcessScheduleInput: Schedule:Year=\"SCHEDULE RULESET 12\", Blank Schedule Type Limits Name input -- will not be validated.\n   ** Warning ** ProcessScheduleInput: Schedule:Year=\"SCHEDULE RULESET 13\", Blank Schedule Type Limits Name input -- will not be validated.\n   ** Warning ** ProcessScheduleInput: Schedule:Year=\"SCHEDULE RULESET 14\", Blank Schedule Type Limits Name input -- will not be validated.\n   ** Warning ** ProcessScheduleInput: Schedule:Year=\"SCHEDULE RULESET 3\", Blank Schedule Type Limits Name input -- will not be validated.\n   ** Warning ** ProcessScheduleInput: Schedule:Year=\"SCHEDULE RULESET 4\", Blank Schedule Type Limits Name input -- will not be validated.\n   ** Warning ** ProcessScheduleInput: Schedule:Year=\"SCHEDULE RULESET 5\", Blank Schedule Type Limits Name input -- will not be validated.\n   ** Warning ** ProcessScheduleInput: Schedule:Year=\"SCHEDULE RULESET 6\", Blank Schedule Type Limits Name input -- will not be validated.\n   ** Warning ** ProcessScheduleInput: Schedule:Year=\"SCHEDULE RULESET 7\", Blank Schedule Type Limits Name input -- will not be validated.\n   ** Warning ** ProcessScheduleInput: Schedule:Year=\"SCHEDULE RULESET 8\", Blank Schedule Type Limits Name input -- will not be validated.\n   ** Warning ** ProcessScheduleInput: Schedule:Year=\"SCHEDULE RULESET 9\", Blank Schedule Type Limits Name input -- will not be validated.\n   ** Warning ** ProcessScheduleInput: Schedule:Constant=\"ALWAYS OFF DISCRETE\", Blank Schedule Type Limits Name input -- will not be validated.\n   ** Warning ** ProcessScheduleInput: Schedule:Constant=\"ALWAYS ON CONTINUOUS\", Blank Schedule Type Limits Name input -- will not be validated.\n   ** Warning ** CheckUsedConstructions: There are 25 nominally unused constructions in input.\n   **   ~~~   ** For explicit details on each unused construction, use Output:Diagnostics,DisplayExtraWarnings;\n   ** Severe  ** Problem in interior solar distribution calculation (CHKBKS)\n   **   ~~~   **    Solar Distribution = FullInteriorExterior will not work in Zone=SP-CORE_RETAIL SYS-3 FLR-1 SCH-C HPLCMT-EAST ZN\n   **   ~~~   **    because vertex 2 of back surface=CORE_RETAIL_WALL_EAST_1 is in front of receiving surface=CORE_RETAIL_ROOF\n   **   ~~~   **    (Dot Product indicator=459.6689)\n   **   ~~~   **    Check surface geometry; if OK, use Solar Distribution = FullExterior instead.\n   ** Severe  ** Problem in interior solar distribution calculation (CHKBKS)\n   **   ~~~   **    Solar Distribution = FullInteriorExterior will not work in Zone=SP-CORE_RETAIL SYS-3 FLR-1 SCH-C HPLCMT-EAST ZN\n   **   ~~~   **    because vertex 3 of back surface=CORE_RETAIL_WALL_EAST_1 is in front of receiving surface=CORE_RETAIL_ROOF\n   **   ~~~   **    (Dot Product indicator=459.6689)\n   **   ~~~   **    Check surface geometry; if OK, use Solar Distribution = FullExterior instead.\n   ** Severe  ** Problem in interior solar distribution calculation (CHKBKS)\n   **   ~~~   **    Solar Distribution = FullInteriorExterior will not work in Zone=SP-CORE_RETAIL SYS-3 FLR-1 SCH-C HPLCMT-EAST ZN\n   **   ~~~   **    because vertex 2 of back surface=CORE_RETAIL_WALL_EAST_2 is in front of receiving surface=CORE_RETAIL_ROOF\n   **   ~~~   **    (Dot Product indicator=459.6689)\n   **   ~~~   **    Check surface geometry; if OK, use Solar Distribution = FullExterior instead.\n   ** Severe  ** Problem in interior solar distribution calculation (CHKBKS)\n   **   ~~~   **    Solar Distribution = FullInteriorExterior will not work in Zone=SP-CORE_RETAIL SYS-3 FLR-1 SCH-C HPLCMT-EAST ZN\n   **   ~~~   **    because vertex 3 of back surface=CORE_RETAIL_WALL_EAST_2 is in front of receiving surface=CORE_RETAIL_ROOF\n   **   ~~~   **    (Dot Product indicator=459.6689)\n   **   ~~~   **    Check surface geometry; if OK, use Solar Distribution = FullExterior instead.\n   ** Severe  ** Problem in interior solar distribution calculation (CHKBKS)\n   **   ~~~   **    Solar Distribution = FullInteriorExterior will not work in Zone=SP-CORE_RETAIL SYS-3 FLR-1 SCH-C HPLCMT-EAST ZN\n   **   ~~~   **    because vertex 2 of back surface=CORE_RETAIL_WALL_NORTH is in front of receiving surface=CORE_RETAIL_ROOF\n   **   ~~~   **    (Dot Product indicator=459.6689)\n   **   ~~~   **    Check surface geometry; if OK, use Solar Distribution = FullExterior instead.\n   ** Severe  ** Problem in interior solar distribution calculation (CHKBKS)\n   **   ~~~   **    Solar Distribution = FullInteriorExterior will not work in Zone=SP-CORE_RETAIL SYS-3 FLR-1 SCH-C HPLCMT-EAST ZN\n   **   ~~~   **    because vertex 3 of back surface=CORE_RETAIL_WALL_NORTH is in front of receiving surface=CORE_RETAIL_ROOF\n   **   ~~~   **    (Dot Product indicator=459.6689)\n   **   ~~~   **    Check surface geometry; if OK, use Solar Distribution = FullExterior instead.\n   ** Severe  ** Problem in interior solar distribution calculation (CHKBKS)\n   **   ~~~   **    Solar Distribution = FullInteriorExterior will not work in Zone=SP-CORE_RETAIL SYS-3 FLR-1 SCH-C HPLCMT-EAST ZN\n   **   ~~~   **    because vertex 2 of back surface=CORE_RETAIL_WALL_SOUTH_1 is in front of receiving surface=CORE_RETAIL_ROOF\n   **   ~~~   **    (Dot Product indicator=459.6689)\n   **   ~~~   **    Check surface geometry; if OK, use Solar Distribution = FullExterior instead.\n   ** Severe  ** Problem in interior solar distribution calculation (CHKBKS)\n   **   ~~~   **    Solar Distribution = FullInteriorExterior will not work in Zone=SP-CORE_RETAIL SYS-3 FLR-1 SCH-C HPLCMT-EAST ZN\n   **   ~~~   **    because vertex 3 of back surface=CORE_RETAIL_WALL_SOUTH_1 is in front of receiving surface=CORE_RETAIL_ROOF\n   **   ~~~   **    (Dot Product indicator=459.6689)\n   **   ~~~   **    Check surface geometry; if OK, use Solar Distribution = FullExterior instead.\n   ** Severe  ** Problem in interior solar distribution calculation (CHKBKS)\n   **   ~~~   **    Solar Distribution = FullInteriorExterior will not work in Zone=SP-CORE_RETAIL SYS-3 FLR-1 SCH-C HPLCMT-EAST ZN\n   **   ~~~   **    because vertex 2 of back surface=CORE_RETAIL_WALL_SOUTH_2 is in front of receiving surface=CORE_RETAIL_ROOF\n   **   ~~~   **    (Dot Product indicator=459.6689)\n   **   ~~~   **    Check surface geometry; if OK, use Solar Distribution = FullExterior instead.\n   ** Severe  ** Problem in interior solar distribution calculation (CHKBKS)\n   **   ~~~   **    Solar Distribution = FullInteriorExterior will not work in Zone=SP-CORE_RETAIL SYS-3 FLR-1 SCH-C HPLCMT-EAST ZN\n   **   ~~~   **    because vertex 3 of back surface=CORE_RETAIL_WALL_SOUTH_2 is in front of receiving surface=CORE_RETAIL_ROOF\n   **   ~~~   **    (Dot Product indicator=459.6689)\n   **   ~~~   **    Check surface geometry; if OK, use Solar Distribution = FullExterior instead.\n   ** Severe  ** Problem in interior solar distribution calculation (CHKBKS)\n   **   ~~~   **    Solar Distribution = FullInteriorExterior will not work in Zone=SP-CORE_RETAIL SYS-3 FLR-1 SCH-C HPLCMT-EAST ZN\n   **   ~~~   **    because vertex 2 of back surface=CORE_RETAIL_WALL_SOUTH_3 is in front of receiving surface=CORE_RETAIL_ROOF\n   **   ~~~   **    (Dot Product indicator=459.6689)\n   **   ~~~   **    Check surface geometry; if OK, use Solar Distribution = FullExterior instead.\n   ** Severe  ** Problem in interior solar distribution calculation (CHKBKS)\n   **   ~~~   **    Solar Distribution = FullInteriorExterior will not work in Zone=SP-CORE_RETAIL SYS-3 FLR-1 SCH-C HPLCMT-EAST ZN\n   **   ~~~   **    because vertex 3 of back surface=CORE_RETAIL_WALL_SOUTH_3 is in front of receiving surface=CORE_RETAIL_ROOF\n   **   ~~~   **    (Dot Product indicator=459.6689)\n   **   ~~~   **    Check surface geometry; if OK, use Solar Distribution = FullExterior instead.\n   ** Severe  ** Problem in interior solar distribution calculation (CHKBKS)\n   **   ~~~   **    Solar Distribution = FullInteriorExterior will not work in Zone=SP-CORE_RETAIL SYS-3 FLR-1 SCH-C HPLCMT-EAST ZN\n   **   ~~~   **    because vertex 2 of back surface=CORE_RETAIL_WALL_WEST_1 is in front of receiving surface=CORE_RETAIL_ROOF\n   **   ~~~   **    (Dot Product indicator=459.6689)\n   **   ~~~   **    Check surface geometry; if OK, use Solar Distribution = FullExterior instead.\n   ** Severe  ** Problem in interior solar distribution calculation (CHKBKS)\n   **   ~~~   **    Solar Distribution = FullInteriorExterior will not work in Zone=SP-CORE_RETAIL SYS-3 FLR-1 SCH-C HPLCMT-EAST ZN\n   **   ~~~   **    because vertex 3 of back surface=CORE_RETAIL_WALL_WEST_1 is in front of receiving surface=CORE_RETAIL_ROOF\n   **   ~~~   **    (Dot Product indicator=459.6689)\n   **   ~~~   **    Check surface geometry; if OK, use Solar Distribution = FullExterior instead.\n   ** Severe  ** Problem in interior solar distribution calculation (CHKBKS)\n   **   ~~~   **    Solar Distribution = FullInteriorExterior will not work in Zone=SP-CORE_RETAIL SYS-3 FLR-1 SCH-C HPLCMT-EAST ZN\n   **   ~~~   **    because vertex 2 of back surface=CORE_RETAIL_WALL_WEST_2 is in front of receiving surface=CORE_RETAIL_ROOF\n   **   ~~~   **    (Dot Product indicator=459.6689)\n   **   ~~~   **    Check surface geometry; if OK, use Solar Distribution = FullExterior instead.\n   ** Severe  ** Problem in interior solar distribution calculation (CHKBKS)\n   **   ~~~   **    Solar Distribution = FullInteriorExterior will not work in Zone=SP-CORE_RETAIL SYS-3 FLR-1 SCH-C HPLCMT-EAST ZN\n   **   ~~~   **    because vertex 3 of back surface=CORE_RETAIL_WALL_WEST_2 is in front of receiving surface=CORE_RETAIL_ROOF\n   **   ~~~   **    (Dot Product indicator=459.6689)\n   **   ~~~   **    Check surface geometry; if OK, use Solar Distribution = FullExterior instead.\n   ** Severe  ** Problem in interior solar distribution calculation (CHKBKS)\n   **   ~~~   **    Solar Distribution = FullInteriorExterior will not work in Zone=SP-CORE_RETAIL SYS-3 FLR-1 SCH-C HPLCMT-EAST ZN\n   **   ~~~   **    because vertex 1 of back surface=CORE_RETAIL_FLOOR is in front of receiving surface=CORE_RETAIL_ROOF\n   **   ~~~   **    (Dot Product indicator=459.6689)\n   **   ~~~   **    Check surface geometry; if OK, use Solar Distribution = FullExterior instead.\n   ** Severe  ** Problem in interior solar distribution calculation (CHKBKS)\n   **   ~~~   **    Solar Distribution = FullInteriorExterior will not work in Zone=SP-CORE_RETAIL SYS-3 FLR-1 SCH-C HPLCMT-EAST ZN\n   **   ~~~   **    because vertex 2 of back surface=CORE_RETAIL_FLOOR is in front of receiving surface=CORE_RETAIL_ROOF\n   **   ~~~   **    (Dot Product indicator=459.6689)\n   **   ~~~   **    Check surface geometry; if OK, use Solar Distribution = FullExterior instead.\n   ** Severe  ** Problem in interior solar distribution calculation (CHKBKS)\n   **   ~~~   **    Solar Distribution = FullInteriorExterior will not work in Zone=SP-CORE_RETAIL SYS-3 FLR-1 SCH-C HPLCMT-EAST ZN\n   **   ~~~   **    because vertex 3 of back surface=CORE_RETAIL_FLOOR is in front of receiving surface=CORE_RETAIL_ROOF\n   **   ~~~   **    (Dot Product indicator=459.6689)\n   **   ~~~   **    Check surface geometry; if OK, use Solar Distribution = FullExterior instead.\n   ** Severe  ** Problem in interior solar distribution calculation (CHKBKS)\n   **   ~~~   **    Solar Distribution = FullInteriorExterior will not work in Zone=SP-CORE_RETAIL SYS-3 FLR-1 SCH-C HPLCMT-EAST ZN\n   **   ~~~   **    because vertex 4 of back surface=CORE_RETAIL_FLOOR is in front of receiving surface=CORE_RETAIL_ROOF\n   **   ~~~   **    (Dot Product indicator=459.6689)\n   **   ~~~   **    Check surface geometry; if OK, use Solar Distribution = FullExterior instead.\n   ** Severe  ** Problem in interior solar distribution calculation (CHKBKS)\n   **   ~~~   **    Solar Distribution = FullInteriorExterior will not work in Zone=SP-CORE_RETAIL SYS-3 FLR-1 SCH-C HPLCMT-EAST ZN\n   **   ~~~   **    because vertex 5 of back surface=CORE_RETAIL_FLOOR is in front of receiving surface=CORE_RETAIL_ROOF\n   **   ~~~   **    (Dot Product indicator=459.6689)\n   **   ~~~   **    Check surface geometry; if OK, use Solar Distribution = FullExterior instead.\n   ** Severe  ** Problem in interior solar distribution calculation (CHKBKS)\n   **   ~~~   **    Solar Distribution = FullInteriorExterior will not work in Zone=SP-CORE_RETAIL SYS-3 FLR-1 SCH-C HPLCMT-EAST ZN\n   **   ~~~   **    because vertex 6 of back surface=CORE_RETAIL_FLOOR is in front of receiving surface=CORE_RETAIL_ROOF\n   **   ~~~   **    (Dot Product indicator=459.6689)\n   **   ~~~   **    Check surface geometry; if OK, use Solar Distribution = FullExterior instead.\n   ** Severe  ** Problem in interior solar distribution calculation (CHKBKS)\n   **   ~~~   **    Solar Distribution = FullInteriorExterior will not work in Zone=SP-CORE_RETAIL SYS-3 FLR-1 SCH-C HPLCMT-EAST ZN\n   **   ~~~   **    because vertex 7 of back surface=CORE_RETAIL_FLOOR is in front of receiving surface=CORE_RETAIL_ROOF\n   **   ~~~   **    (Dot Product indicator=459.6689)\n   **   ~~~   **    Check surface geometry; if OK, use Solar Distribution = FullExterior instead.\n   ** Severe  ** Problem in interior solar distribution calculation (CHKBKS)\n   **   ~~~   **    Solar Distribution = FullInteriorExterior will not work in Zone=SP-CORE_RETAIL SYS-3 FLR-1 SCH-C HPLCMT-EAST ZN\n   **   ~~~   **    because vertex 8 of back surface=CORE_RETAIL_FLOOR is in front of receiving surface=CORE_RETAIL_ROOF\n   **   ~~~   **    (Dot Product indicator=459.6689)\n   **   ~~~   **    Check surface geometry; if OK, use Solar Distribution = FullExterior instead.\n   ************* Beginning System Sizing Calculations\n   ************* Beginning Plant Sizing Calculations\n   ** Warning ** GetDXCoils: Coil:Cooling:DX:SingleSpeed=\"COIL COOLING DX SINGLE SPEED 5 37KBTU/HR 14.0SEER\", invalid\n   **   ~~~   ** ...Part Load Fraction Correlation Curve Name = DXCOOL-NECB2011-REF-COOLPLFFPLR 4 has out of range value.\n   **   ~~~   ** ...Curve maximum must be <= 1.0, curve max at PLR = 0.99 is 1.015\n   **   ~~~   ** ...Setting curve maximum to 1.0 and simulation continues.\n   ** Warning ** GetDXCoils: Coil:Cooling:DX:SingleSpeed=\"COIL COOLING DX SINGLE SPEED 1 222KBTU/HR 9.7EER\", invalid\n   **   ~~~   ** ...Part Load Fraction Correlation Curve Name = DXCOOL-NECB2011-REF-COOLPLFFPLR has out of range value.\n   **   ~~~   ** ...Curve maximum must be <= 1.0, curve max at PLR = 0.99 is 1.015\n   **   ~~~   ** ...Setting curve maximum to 1.0 and simulation continues.\n   ** Warning ** GetDXCoils: Coil:Cooling:DX:SingleSpeed=\"COIL COOLING DX SINGLE SPEED 2 11KBTU/HR 14.0SEER\", invalid\n   **   ~~~   ** ...Part Load Fraction Correlation Curve Name = DXCOOL-NECB2011-REF-COOLPLFFPLR 1 has out of range value.\n   **   ~~~   ** ...Curve maximum must be <= 1.0, curve max at PLR = 0.99 is 1.015\n   **   ~~~   ** ...Setting curve maximum to 1.0 and simulation continues.\n   ** Warning ** GetDXCoils: Coil:Cooling:DX:SingleSpeed=\"COIL COOLING DX SINGLE SPEED 4 65KBTU/HR 14.0SEER\", invalid\n   **   ~~~   ** ...Part Load Fraction Correlation Curve Name = DXCOOL-NECB2011-REF-COOLPLFFPLR 3 has out of range value.\n   **   ~~~   ** ...Curve maximum must be <= 1.0, curve max at PLR = 0.99 is 1.015\n   **   ~~~   ** ...Setting curve maximum to 1.0 and simulation continues.\n   ** Warning ** GetDXCoils: Coil:Cooling:DX:SingleSpeed=\"COIL COOLING DX SINGLE SPEED 3 64KBTU/HR 14.0SEER\", invalid\n   **   ~~~   ** ...Part Load Fraction Correlation Curve Name = DXCOOL-NECB2011-REF-COOLPLFFPLR 2 has out of range value.\n   **   ~~~   ** ...Curve maximum must be <= 1.0, curve max at PLR = 0.99 is 1.015\n   **   ~~~   ** ...Setting curve maximum to 1.0 and simulation continues.\n   ** Warning ** The Standard Ratings is calculated for Coil:Cooling:DX:SingleSpeed = COIL COOLING DX SINGLE SPEED 5 37KBTU/HR 14.0SEER but not at the AHRI test condition due to curve out of bound.\n   **   ~~~   **  Review the Standard Ratings calculations in the Engineering Reference for this coil type. Also, use Output:Diagnostics, DisplayExtraWarnings for further guidance.\n   ** Warning ** The Standard Ratings is calculated for Coil:Cooling:DX:SingleSpeed = COIL COOLING DX SINGLE SPEED 1 222KBTU/HR 9.7EER but not at the AHRI test condition due to curve out of bound.\n   **   ~~~   **  Review the Standard Ratings calculations in the Engineering Reference for this coil type. Also, use Output:Diagnostics, DisplayExtraWarnings for further guidance.\n   ** Warning ** The Standard Ratings is calculated for Coil:Cooling:DX:SingleSpeed = COIL COOLING DX SINGLE SPEED 2 11KBTU/HR 14.0SEER but not at the AHRI test condition due to curve out of bound.\n   **   ~~~   **  Review the Standard Ratings calculations in the Engineering Reference for this coil type. Also, use Output:Diagnostics, DisplayExtraWarnings for further guidance.\n   ** Warning ** The Standard Ratings is calculated for Coil:Cooling:DX:SingleSpeed = COIL COOLING DX SINGLE SPEED 4 65KBTU/HR 14.0SEER but not at the AHRI test condition due to curve out of bound.\n   **   ~~~   **  Review the Standard Ratings calculations in the Engineering Reference for this coil type. Also, use Output:Diagnostics, DisplayExtraWarnings for further guidance.\n   ** Warning ** The Standard Ratings is calculated for Coil:Cooling:DX:SingleSpeed = COIL COOLING DX SINGLE SPEED 3 64KBTU/HR 14.0SEER but not at the AHRI test condition due to curve out of bound.\n   **   ~~~   **  Review the Standard Ratings calculations in the Engineering Reference for this coil type. Also, use Output:Diagnostics, DisplayExtraWarnings for further guidance.\n   ** Warning ** Check input. Pump nominal power or motor efficiency is set to 0, for pump=SERVICE WATER LOOP PUMP\n   ** Warning ** Output:Meter: invalid Name=\"DISTRICTCOOLING:FACILITY\" - not found.\n   ** Warning ** Output:Meter: invalid Name=\"DISTRICTHEATING:FACILITY\" - not found.\n   ** Warning ** Output:Meter:MeterFileOnly requested for \"Electricity:Facility\" (TimeStep), already on \"Output:Meter\". Will report to both eplusout.eso and eplusout.mtr\n   ************* Testing Individual Branch Integrity\n   ************* All Branches passed integrity testing\n   ************* Testing Individual Supply Air Path Integrity\n   ************* All Supply Air Paths passed integrity testing\n   ************* Testing Individual Return Air Path Integrity\n   ************* All Return Air Paths passed integrity testing\n   ************* No node connection errors were found.\n   ************* Beginning Simulation\n   ** Warning ** CalcDoe2DXCoil: Coil:Cooling:DX:SingleSpeed \"COIL COOLING DX SINGLE SPEED 4 65KBTU/HR 14.0SEER\" - Air-cooled condenser inlet dry-bulb temperature below 0 C. Outdoor dry-bulb temperature = -2.50E-002\n   **   ~~~   **  ... Occurrence info = RUN PERIOD 1, 01/01 09:03 - 09:06\n   **   ~~~   ** ... Operation at low ambient temperatures may require special performance curves.\n   ** Warning ** CalcDoe2DXCoil: Coil:Cooling:DX:SingleSpeed \"COIL COOLING DX SINGLE SPEED 3 64KBTU/HR 14.0SEER\" - Air-cooled condenser inlet dry-bulb temperature below 0 C. Outdoor dry-bulb temperature = -2.50E-002\n   **   ~~~   **  ... Occurrence info = RUN PERIOD 1, 01/01 09:03 - 09:06\n   **   ~~~   ** ... Operation at low ambient temperatures may require special performance curves.\n   ** Warning ** CalcDoe2DXCoil: Coil:Cooling:DX:SingleSpeed \"COIL COOLING DX SINGLE SPEED 2 11KBTU/HR 14.0SEER\" - Air-cooled condenser inlet dry-bulb temperature below 0 C. Outdoor dry-bulb temperature = -1.70\n   **   ~~~   **  ... Occurrence info = RUN PERIOD 1, 01/03 21:15 - 21:19\n   **   ~~~   ** ... Operation at low ambient temperatures may require special performance curves.\n   ** Warning ** CalcDoe2DXCoil: Coil:Cooling:DX:SingleSpeed \"COIL COOLING DX SINGLE SPEED 2 11KBTU/HR 14.0SEER\" - Full load outlet air dry-bulb temperature < 2C. This indicates the possibility of coil frost/freeze. Outlet temperature = 1.12 C.\n   **   ~~~   **  ...Occurrence info = RUN PERIOD 1, 01/03 21:15 - 21:19\n   **   ~~~   ** ... Possible reasons for low outlet air dry-bulb temperatures are: This DX coil\n   **   ~~~   **    1) may have a low inlet air dry-bulb temperature. Inlet air temperature = 13.698 C.\n   **   ~~~   **    2) may have a low air flow rate per watt of cooling capacity. Check inputs.\n   **   ~~~   **    3) is used as part of a HX assisted cooling coil which uses a high sensible effectiveness. Check inputs.\n   ** Warning ** CalcDoe2DXCoil: Coil:Cooling:DX:SingleSpeed \"COIL COOLING DX SINGLE SPEED 5 37KBTU/HR 14.0SEER\" - Air-cooled condenser inlet dry-bulb temperature below 0 C. Outdoor dry-bulb temperature = -2.80\n   **   ~~~   **  ... Occurrence info = RUN PERIOD 1, 01/04 07:06 - 07:09\n   **   ~~~   ** ... Operation at low ambient temperatures may require special performance curves.\n   ************* Simulation Error Summary *************\n   ************* There are 9 unused schedules in input.\n   ************* There are 9 unused week schedules in input.\n   ************* There are 20 unused day schedules in input.\n   ************* Use Output:Diagnostics,DisplayUnusedSchedules; to see them.\n   *************\n   ************* ===== Recurring Error Summary =====\n   ************* The following recurring error messages occurred.\n   *************\n   *************  ** Warning ** CalcDoe2DXCoil: Coil:Cooling:DX:SingleSpeed=\"COIL COOLING DX SINGLE SPEED 4 65KBTU/HR 14.0SEER\" - Low condenser dry-bulb temperature error continues...\n   *************  **   ~~~   **   This error occurred 133 total times;\n   *************  **   ~~~   **   during Warmup 0 times;\n   *************  **   ~~~   **   during Sizing 0 times.\n   *************  **   ~~~   **   Max=-2.500000E-002 [C]  Min=-4.175 [C]\n   *************\n   *************  ** Warning ** CalcDoe2DXCoil: Coil:Cooling:DX:SingleSpeed=\"COIL COOLING DX SINGLE SPEED 3 64KBTU/HR 14.0SEER\" - Low condenser dry-bulb temperature error continues...\n   *************  **   ~~~   **   This error occurred 134 total times;\n   *************  **   ~~~   **   during Warmup 0 times;\n   *************  **   ~~~   **   during Sizing 0 times.\n   *************  **   ~~~   **   Max=-2.500000E-002 [C]  Min=-4.175 [C]\n   *************\n   *************  ** Warning ** CalcDoe2DXCoil: Coil:Cooling:DX:SingleSpeed=\"COIL COOLING DX SINGLE SPEED 2 11KBTU/HR 14.0SEER\" - Low condenser dry-bulb temperature error continues...\n   *************  **   ~~~   **   This error occurred 48 total times;\n   *************  **   ~~~   **   during Warmup 0 times;\n   *************  **   ~~~   **   during Sizing 0 times.\n   *************  **   ~~~   **   Max=-0.15 [C]  Min=-3.3 [C]\n   *************\n   *************  ** Warning ** CalcDoe2DXCoil: Coil:Cooling:DX:SingleSpeed=\"COIL COOLING DX SINGLE SPEED 2 11KBTU/HR 14.0SEER\" - Full load outlet temperature indicates a possibility of frost/freeze error continues. Outlet air temperature statistics follow:\n   *************  **   ~~~   **   This error occurred 19 total times;\n   *************  **   ~~~   **   during Warmup 0 times;\n   *************  **   ~~~   **   during Sizing 0 times.\n   *************  **   ~~~   **   Max=1.985784  Min=0.63569\n   *************\n   *************  ** Warning ** CalcDoe2DXCoil: Coil:Cooling:DX:SingleSpeed=\"COIL COOLING DX SINGLE SPEED 5 37KBTU/HR 14.0SEER\" - Low condenser dry-bulb temperature error continues...\n   *************  **   ~~~   **   This error occurred 25 total times;\n   *************  **   ~~~   **   during Warmup 0 times;\n   *************  **   ~~~   **   during Sizing 0 times.\n   *************  **   ~~~   **   Max=-0.3 [C]  Min=-4.175 [C]\n   *************\n   *************\n   ************* ===== Final Error Summary =====\n   ************* The following error categories occurred.  Consider correcting or noting.\n   ************* Nominally Unused Constructions\n   ************* ..The nominally unused constructions warning is provided to alert you to potential conditions that can cause\n   ************* ..extra time during simulation. Each construction is calculated by the algorithm indicated in the HeatBalanceAlgorithm\n   ************* ..object. You may remove the constructions indicated (when you use the DisplayExtraWarnings option).\n   *************\n   ************* EnergyPlus Warmup Error Summary. During Warmup: 0 Warning; 0 Severe Errors.\n   ************* EnergyPlus Sizing Error Summary. During Sizing: 39 Warning; 24 Severe Errors.\n   ************* EnergyPlus Completed Successfully-- 413 Warning; 24 Severe Errors; Elapsed Time=00hr 00min 33.36sec\n",
   "file_format_version" : "0.0.1",
   "file_paths" : [ "../weather", "../seeds", "../seed" ],
   "hash" : "5DA33067",
   "measure_paths" : [ "../measures" ],
   "name" : "LHS Autogenerated 102",
   "osa_id" : "4fef0e0f-5396-4c55-a6e1-2cd6803db3ab",
   "osd_id" : "6d8eec87-edfd-4a4c-b06f-23af21ca1e07",
   "run_directory" : "./run",
   "seed_file" : "seed.osm",
   "started_at" : "20170710T182426Z",
   "steps" : [
      {
         "arguments" : {
            "__SKIP__" : false,
            "building_type" : "RetailStandalone",
            "climate_zone" : "NECB HDD Method",
            "epw_file" : "CAN_BC_Vancouver.718920_CWEC.epw",
            "template" : "NECB 2011"
         },
         "measure_dir_name" : "create_prototype_building",
         "name" : "create_prototype_building",
         "result" : {
            "completed_at" : "20170710T182542Z",
            "measure_class_name" : "CreatePrototypeBuilding",
            "measure_display_name" : "Create Prototype Building",
            "measure_name" : "create_prototype_building",
            "measure_taxonomy" : "Whole Building.Space Types",
            "measure_type" : "ModelMeasure",
            "measure_uid" : "ae90fsd7-a651-467a-bc8d-29d310b0f937",
            "measure_version_id" : "c6ec5c18-5595-459f-a082-09a19c8c869c",
            "measure_version_modified" : "20170519T182315Z",
            "measure_xml_checksum" : "057E8D9D",
            "started_at" : "20170710T182429Z",
            "stderr" : "",
            "stdout" : "[OpenStudio.Measure] <0> OSArgumentVector is deprecated, use OpenStudio::Measure::OSArgumentVector instead.\n[openstudio.EpwFile] <0> Successive data points (1970-Jan-31 to 1967-Feb-01, ending on line 753) are greater than 1 day apart in EPW file '/usr/local/bundle/bundler/gems/openstudio-standards-f448df66933d/openstudio-standards/data/weather/CAN_BC_Vancouver.718920_CWEC.epw'. Data will be treated as typical (TMY)\n[openstudio.setFileExtension] <0> Path p, '/usr/local/bundle/bundler/gems/openstudio-standards-f448df66933d/openstudio-standards/data/weather/CAN_BC_Vancouver.718920_CWEC.ddy', has an unexpected file extension. Was expecting 'idf'.\n[openstudio.model.YearDescription] <1> 'UseWeatherFile' is not yet a supported option for YearDescription\n[openstudio.model.YearDescription] <1> 'UseWeatherFile' is not yet a supported option for YearDescription\n[openstudio.setFileExtension] <0> Path p, '/usr/local/bundle/bundler/gems/openstudio-standards-f448df66933d/openstudio-standards/data/weather/CAN_BC_Vancouver.718920_CWEC.ddy', has an unexpected file extension. Was expecting 'idf'.\n[openstudio.model.YearDescription] <1> 'UseWeatherFile' is not yet a supported option for YearDescription\n[openstudio.model.YearDescription] <1> 'UseWeatherFile' is not yet a supported option for YearDescription\n[openstudio.EpwFile] <0> Successive data points (1970-Jan-31 to 1967-Feb-01, ending on line 753) are greater than 1 day apart in EPW file '/usr/local/bundle/bundler/gems/openstudio-standards-f448df66933d/openstudio-standards/data/weather/CAN_BC_Vancouver.718920_CWEC.epw'. Data will be treated as typical (TMY)\n[openstudio.weather.Model] <0> Could not find ground temperatures; will use generic temperatures, which will skew results.\n[openstudio.setFileExtension] <0> Path p, '/usr/local/bundle/bundler/gems/openstudio-standards-f448df66933d/openstudio-standards/data/weather/CAN_BC_Vancouver.718920_CWEC.ddy', has an unexpected file extension. Was expecting 'idf'.\n[openstudio.model.YearDescription] <1> 'UseWeatherFile' is not yet a supported option for YearDescription\n[openstudio.model.YearDescription] <1> 'UseWeatherFile' is not yet a supported option for YearDescription\n[openstudio.EpwFile] <0> Successive data points (1970-Jan-31 to 1967-Feb-01, ending on line 753) are greater than 1 day apart in EPW file '/usr/local/bundle/bundler/gems/openstudio-standards-f448df66933d/openstudio-standards/data/weather/CAN_BC_Vancouver.718920_CWEC.epw'. Data will be treated as typical (TMY)\n[openstudio.setFileExtension] <0> Path p, '/usr/local/bundle/bundler/gems/openstudio-standards-f448df66933d/openstudio-standards/data/weather/CAN_BC_Vancouver.718920_CWEC.ddy', has an unexpected file extension. Was expecting 'idf'.\n[openstudio.model.YearDescription] <1> 'UseWeatherFile' is not yet a supported option for YearDescription\n[openstudio.model.YearDescription] <1> 'UseWeatherFile' is not yet a supported option for YearDescription\n[openstudio.setFileExtension] <0> Path p, '/usr/local/bundle/bundler/gems/openstudio-standards-f448df66933d/openstudio-standards/data/weather/CAN_BC_Vancouver.718920_CWEC.ddy', has an unexpected file extension. Was expecting 'idf'.\n[openstudio.model.YearDescription] <1> 'UseWeatherFile' is not yet a supported option for YearDescription\n[openstudio.model.YearDescription] <1> 'UseWeatherFile' is not yet a supported option for YearDescription\n[openstudio.EpwFile] <0> Successive data points (1970-Jan-31 to 1967-Feb-01, ending on line 753) are greater than 1 day apart in EPW file '/usr/local/bundle/bundler/gems/openstudio-standards-f448df66933d/openstudio-standards/data/weather/CAN_BC_Vancouver.718920_CWEC.epw'. Data will be treated as typical (TMY)\n[openstudio.setFileExtension] <0> Path p, '/usr/local/bundle/bundler/gems/openstudio-standards-f448df66933d/openstudio-standards/data/weather/CAN_BC_Vancouver.718920_CWEC.ddy', has an unexpected file extension. Was expecting 'idf'.\n[openstudio.model.YearDescription] <1> 'UseWeatherFile' is not yet a supported option for YearDescription\n[openstudio.model.YearDescription] <1> 'UseWeatherFile' is not yet a supported option for YearDescription\n[openstudio.setFileExtension] <0> Path p, '/usr/local/bundle/bundler/gems/openstudio-standards-f448df66933d/openstudio-standards/data/weather/CAN_BC_Vancouver.718920_CWEC.ddy', has an unexpected file extension. Was expecting 'idf'.\n[openstudio.model.YearDescription] <1> 'UseWeatherFile' is not yet a supported option for YearDescription\n[openstudio.model.YearDescription] <1> 'UseWeatherFile' is not yet a supported option for YearDescription\n[utilities.idf.WorkspaceObject] <0> Object of type 'Schedule:Constant' and named 'Always Off Discrete', points to an object named OnOff 1 from field 1, but that object cannot be located.\n[utilities.idf.WorkspaceObject] <0> Object of type 'Schedule:Constant' and named 'Always On Continuous', points to an object named Fractional 1 from field 1, but that object cannot be located.\n[openstudio.model.Model] <0> The run completed but had the following severe errors: Problem in interior solar distribution calculation (CHKBKS)     Solar Distribution = FullInteriorExterior will not work in Zone=CORE_RETAIL ZN     because vertex 2 of back surface=CORE_RETAIL_WALL_EAST_1 is in front of receiving surface=CORE_RETAIL_ROOF     (Dot Product indicator=459.6689)     Check surface geometry; if OK, use Solar Distribution = FullExterior instead.\\nProblem in interior solar distribution calculation (CHKBKS)     Solar Distribution = FullInteriorExterior will not work in Zone=CORE_RETAIL ZN     because vertex 3 of back surface=CORE_RETAIL_WALL_EAST_1 is in front of receiving surface=CORE_RETAIL_ROOF     (Dot Product indicator=459.6689)     Check surface geometry; if OK, use Solar Distribution = FullExterior instead.\\nProblem in interior solar distribution calculation (CHKBKS)     Solar Distribution = FullInteriorExterior will not work in Zone=CORE_RETAIL ZN     because vertex 2 of back surface=CORE_RETAIL_WALL_EAST_2 is in front of receiving surface=CORE_RETAIL_ROOF     (Dot Product indicator=459.6689)     Check surface geometry; if OK, use Solar Distribution = FullExterior instead.\\nProblem in interior solar distribution calculation (CHKBKS)     Solar Distribution = FullInteriorExterior will not work in Zone=CORE_RETAIL ZN     because vertex 3 of back surface=CORE_RETAIL_WALL_EAST_2 is in front of receiving surface=CORE_RETAIL_ROOF     (Dot Product indicator=459.6689)     Check surface geometry; if OK, use Solar Distribution = FullExterior instead.\\nProblem in interior solar distribution calculation (CHKBKS)     Solar Distribution = FullInteriorExterior will not work in Zone=CORE_RETAIL ZN     because vertex 2 of back surface=CORE_RETAIL_WALL_NORTH is in front of receiving surface=CORE_RETAIL_ROOF     (Dot Product indicator=459.6689)     Check surface geometry; if OK, use Solar Distribution = FullExterior instead.\\nProblem in interior solar distribution calculation (CHKBKS)     Solar Distribution = FullInteriorExterior will not work in Zone=CORE_RETAIL ZN     because vertex 3 of back surface=CORE_RETAIL_WALL_NORTH is in front of receiving surface=CORE_RETAIL_ROOF     (Dot Product indicator=459.6689)     Check surface geometry; if OK, use Solar Distribution = FullExterior instead.\\nProblem in interior solar distribution calculation (CHKBKS)     Solar Distribution = FullInteriorExterior will not work in Zone=CORE_RETAIL ZN     because vertex 2 of back surface=CORE_RETAIL_WALL_SOUTH_1 is in front of receiving surface=CORE_RETAIL_ROOF     (Dot Product indicator=459.6689)     Check surface geometry; if OK, use Solar Distribution = FullExterior instead.\\nProblem in interior solar distribution calculation (CHKBKS)     Solar Distribution = FullInteriorExterior will not work in Zone=CORE_RETAIL ZN     because vertex 3 of back surface=CORE_RETAIL_WALL_SOUTH_1 is in front of receiving surface=CORE_RETAIL_ROOF     (Dot Product indicator=459.6689)     Check surface geometry; if OK, use Solar Distribution = FullExterior instead.\\nProblem in interior solar distribution calculation (CHKBKS)     Solar Distribution = FullInteriorExterior will not work in Zone=CORE_RETAIL ZN     because vertex 2 of back surface=CORE_RETAIL_WALL_SOUTH_2 is in front of receiving surface=CORE_RETAIL_ROOF     (Dot Product indicator=459.6689)     Check surface geometry; if OK, use Solar Distribution = FullExterior instead.\\nProblem in interior solar distribution calculation (CHKBKS)     Solar Distribution = FullInteriorExterior will not work in Zone=CORE_RETAIL ZN     because vertex 3 of back surface=CORE_RETAIL_WALL_SOUTH_2 is in front of receiving surface=CORE_RETAIL_ROOF     (Dot Product indicator=459.6689)     Check surface geometry; if OK, use Solar Distribution = FullExterior instead.\\nProblem in interior solar distribution calculation (CHKBKS)     Solar Distribution = FullInteriorExterior will not work in Zone=CORE_RETAIL ZN     because vertex 2 of back surface=CORE_RETAIL_WALL_SOUTH_3 is in front of receiving surface=CORE_RETAIL_ROOF     (Dot Product indicator=459.6689)     Check surface geometry; if OK, use Solar Distribution = FullExterior instead.\\nProblem in interior solar distribution calculation (CHKBKS)     Solar Distribution = FullInteriorExterior will not work in Zone=CORE_RETAIL ZN     because vertex 3 of back surface=CORE_RETAIL_WALL_SOUTH_3 is in front of receiving surface=CORE_RETAIL_ROOF     (Dot Product indicator=459.6689)     Check surface geometry; if OK, use Solar Distribution = FullExterior instead.\\nProblem in interior solar distribution calculation (CHKBKS)     Solar Distribution = FullInteriorExterior will not work in Zone=CORE_RETAIL ZN     because vertex 2 of back surface=CORE_RETAIL_WALL_WEST_1 is in front of receiving surface=CORE_RETAIL_ROOF     (Dot Product indicator=459.6689)     Check surface geometry; if OK, use Solar Distribution = FullExterior instead.\\nProblem in interior solar distribution calculation (CHKBKS)     Solar Distribution = FullInteriorExterior will not work in Zone=CORE_RETAIL ZN     because vertex 3 of back surface=CORE_RETAIL_WALL_WEST_1 is in front of receiving surface=CORE_RETAIL_ROOF     (Dot Product indicator=459.6689)     Check surface geometry; if OK, use Solar Distribution = FullExterior instead.\\nProblem in interior solar distribution calculation (CHKBKS)     Solar Distribution = FullInteriorExterior will not work in Zone=CORE_RETAIL ZN     because vertex 2 of back surface=CORE_RETAIL_WALL_WEST_2 is in front of receiving surface=CORE_RETAIL_ROOF     (Dot Product indicator=459.6689)     Check surface geometry; if OK, use Solar Distribution = FullExterior instead.\\nProblem in interior solar distribution calculation (CHKBKS)     Solar Distribution = FullInteriorExterior will not work in Zone=CORE_RETAIL ZN     because vertex 3 of back surface=CORE_RETAIL_WALL_WEST_2 is in front of receiving surface=CORE_RETAIL_ROOF     (Dot Product indicator=459.6689)     Check surface geometry; if OK, use Solar Distribution = FullExterior instead.\\nProblem in interior solar distribution calculation (CHKBKS)     Solar Distribution = FullInteriorExterior will not work in Zone=CORE_RETAIL ZN     because vertex 1 of back surface=CORE_RETAIL_FLOOR is in front of receiving surface=CORE_RETAIL_ROOF     (Dot Product indicator=459.6689)     Check surface geometry; if OK, use Solar Distribution = FullExterior instead.\\nProblem in interior solar distribution calculation (CHKBKS)     Solar Distribution = FullInteriorExterior will not work in Zone=CORE_RETAIL ZN     because vertex 2 of back surface=CORE_RETAIL_FLOOR is in front of receiving surface=CORE_RETAIL_ROOF     (Dot Product indicator=459.6689)     Check surface geometry; if OK, use Solar Distribution = FullExterior instead.\\nProblem in interior solar distribution calculation (CHKBKS)     Solar Distribution = FullInteriorExterior will not work in Zone=CORE_RETAIL ZN     because vertex 3 of back surface=CORE_RETAIL_FLOOR is in front of receiving surface=CORE_RETAIL_ROOF     (Dot Product indicator=459.6689)     Check surface geometry; if OK, use Solar Distribution = FullExterior instead.\\nProblem in interior solar distribution calculation (CHKBKS)     Solar Distribution = FullInteriorExterior will not work in Zone=CORE_RETAIL ZN     because vertex 4 of back surface=CORE_RETAIL_FLOOR is in front of receiving surface=CORE_RETAIL_ROOF     (Dot Product indicator=459.6689)     Check surface geometry; if OK, use Solar Distribution = FullExterior instead.\\nProblem in interior solar distribution calculation (CHKBKS)     Solar Distribution = FullInteriorExterior will not work in Zone=CORE_RETAIL ZN     because vertex 5 of back surface=CORE_RETAIL_FLOOR is in front of receiving surface=CORE_RETAIL_ROOF     (Dot Product indicator=459.6689)     Check surface geometry; if OK, use Solar Distribution = FullExterior instead.\\nProblem in interior solar distribution calculation (CHKBKS)     Solar Distribution = FullInteriorExterior will not work in Zone=CORE_RETAIL ZN     because vertex 6 of back surface=CORE_RETAIL_FLOOR is in front of receiving surface=CORE_RETAIL_ROOF     (Dot Product indicator=459.6689)     Check surface geometry; if OK, use Solar Distribution = FullExterior instead.\\nProblem in interior solar distribution calculation (CHKBKS)     Solar Distribution = FullInteriorExterior will not work in Zone=CORE_RETAIL ZN     because vertex 7 of back surface=CORE_RETAIL_FLOOR is in front of receiving surface=CORE_RETAIL_ROOF     (Dot Product indicator=459.6689)     Check surface geometry; if OK, use Solar Distribution = FullExterior instead.\\nProblem in interior solar distribution calculation (CHKBKS)     Solar Distribution = FullInteriorExterior will not work in Zone=CORE_RETAIL ZN     because vertex 8 of back surface=CORE_RETAIL_FLOOR is in front of receiving surface=CORE_RETAIL_ROOF     (Dot Product indicator=459.6689)     Check surface geometry; if OK, use Solar Distribution = FullExterior instead.\n[utilities.idf.WorkspaceObject] <0> Object of type 'Schedule:Constant' and named 'Always Off Discrete', points to an object named OnOff 1 from field 1, but that object cannot be located.\n[utilities.idf.WorkspaceObject] <0> Object of type 'Schedule:Constant' and named 'Always On Continuous', points to an object named Fractional 1 from field 1, but that object cannot be located.\n[openstudio.model.Model] <0> The run completed but had the following severe errors: Problem in interior solar distribution calculation (CHKBKS)     Solar Distribution = FullInteriorExterior will not work in Zone=SP-CORE_RETAIL SYS-3 FLR-1 SCH-C HPLCMT-EAST ZN     because vertex 2 of back surface=CORE_RETAIL_WALL_EAST_1 is in front of receiving surface=CORE_RETAIL_ROOF     (Dot Product indicator=459.6689)     Check surface geometry; if OK, use Solar Distribution = FullExterior instead.\\nProblem in interior solar distribution calculation (CHKBKS)     Solar Distribution = FullInteriorExterior will not work in Zone=SP-CORE_RETAIL SYS-3 FLR-1 SCH-C HPLCMT-EAST ZN     because vertex 3 of back surface=CORE_RETAIL_WALL_EAST_1 is in front of receiving surface=CORE_RETAIL_ROOF     (Dot Product indicator=459.6689)     Check surface geometry; if OK, use Solar Distribution = FullExterior instead.\\nProblem in interior solar distribution calculation (CHKBKS)     Solar Distribution = FullInteriorExterior will not work in Zone=SP-CORE_RETAIL SYS-3 FLR-1 SCH-C HPLCMT-EAST ZN     because vertex 2 of back surface=CORE_RETAIL_WALL_EAST_2 is in front of receiving surface=CORE_RETAIL_ROOF     (Dot Product indicator=459.6689)     Check surface geometry; if OK, use Solar Distribution = FullExterior instead.\\nProblem in interior solar distribution calculation (CHKBKS)     Solar Distribution = FullInteriorExterior will not work in Zone=SP-CORE_RETAIL SYS-3 FLR-1 SCH-C HPLCMT-EAST ZN     because vertex 3 of back surface=CORE_RETAIL_WALL_EAST_2 is in front of receiving surface=CORE_RETAIL_ROOF     (Dot Product indicator=459.6689)     Check surface geometry; if OK, use Solar Distribution = FullExterior instead.\\nProblem in interior solar distribution calculation (CHKBKS)     Solar Distribution = FullInteriorExterior will not work in Zone=SP-CORE_RETAIL SYS-3 FLR-1 SCH-C HPLCMT-EAST ZN     because vertex 2 of back surface=CORE_RETAIL_WALL_NORTH is in front of receiving surface=CORE_RETAIL_ROOF     (Dot Product indicator=459.6689)     Check surface geometry; if OK, use Solar Distribution = FullExterior instead.\\nProblem in interior solar distribution calculation (CHKBKS)     Solar Distribution = FullInteriorExterior will not work in Zone=SP-CORE_RETAIL SYS-3 FLR-1 SCH-C HPLCMT-EAST ZN     because vertex 3 of back surface=CORE_RETAIL_WALL_NORTH is in front of receiving surface=CORE_RETAIL_ROOF     (Dot Product indicator=459.6689)     Check surface geometry; if OK, use Solar Distribution = FullExterior instead.\\nProblem in interior solar distribution calculation (CHKBKS)     Solar Distribution = FullInteriorExterior will not work in Zone=SP-CORE_RETAIL SYS-3 FLR-1 SCH-C HPLCMT-EAST ZN     because vertex 2 of back surface=CORE_RETAIL_WALL_SOUTH_1 is in front of receiving surface=CORE_RETAIL_ROOF     (Dot Product indicator=459.6689)     Check surface geometry; if OK, use Solar Distribution = FullExterior instead.\\nProblem in interior solar distribution calculation (CHKBKS)     Solar Distribution = FullInteriorExterior will not work in Zone=SP-CORE_RETAIL SYS-3 FLR-1 SCH-C HPLCMT-EAST ZN     because vertex 3 of back surface=CORE_RETAIL_WALL_SOUTH_1 is in front of receiving surface=CORE_RETAIL_ROOF     (Dot Product indicator=459.6689)     Check surface geometry; if OK, use Solar Distribution = FullExterior instead.\\nProblem in interior solar distribution calculation (CHKBKS)     Solar Distribution = FullInteriorExterior will not work in Zone=SP-CORE_RETAIL SYS-3 FLR-1 SCH-C HPLCMT-EAST ZN     because vertex 2 of back surface=CORE_RETAIL_WALL_SOUTH_2 is in front of receiving surface=CORE_RETAIL_ROOF     (Dot Product indicator=459.6689)     Check surface geometry; if OK, use Solar Distribution = FullExterior instead.\\nProblem in interior solar distribution calculation (CHKBKS)     Solar Distribution = FullInteriorExterior will not work in Zone=SP-CORE_RETAIL SYS-3 FLR-1 SCH-C HPLCMT-EAST ZN     because vertex 3 of back surface=CORE_RETAIL_WALL_SOUTH_2 is in front of receiving surface=CORE_RETAIL_ROOF     (Dot Product indicator=459.6689)     Check surface geometry; if OK, use Solar Distribution = FullExterior instead.\\nProblem in interior solar distribution calculation (CHKBKS)     Solar Distribution = FullInteriorExterior will not work in Zone=SP-CORE_RETAIL SYS-3 FLR-1 SCH-C HPLCMT-EAST ZN     because vertex 2 of back surface=CORE_RETAIL_WALL_SOUTH_3 is in front of receiving surface=CORE_RETAIL_ROOF     (Dot Product indicator=459.6689)     Check surface geometry; if OK, use Solar Distribution = FullExterior instead.\\nProblem in interior solar distribution calculation (CHKBKS)     Solar Distribution = FullInteriorExterior will not work in Zone=SP-CORE_RETAIL SYS-3 FLR-1 SCH-C HPLCMT-EAST ZN     because vertex 3 of back surface=CORE_RETAIL_WALL_SOUTH_3 is in front of receiving surface=CORE_RETAIL_ROOF     (Dot Product indicator=459.6689)     Check surface geometry; if OK, use Solar Distribution = FullExterior instead.\\nProblem in interior solar distribution calculation (CHKBKS)     Solar Distribution = FullInteriorExterior will not work in Zone=SP-CORE_RETAIL SYS-3 FLR-1 SCH-C HPLCMT-EAST ZN     because vertex 2 of back surface=CORE_RETAIL_WALL_WEST_1 is in front of receiving surface=CORE_RETAIL_ROOF     (Dot Product indicator=459.6689)     Check surface geometry; if OK, use Solar Distribution = FullExterior instead.\\nProblem in interior solar distribution calculation (CHKBKS)     Solar Distribution = FullInteriorExterior will not work in Zone=SP-CORE_RETAIL SYS-3 FLR-1 SCH-C HPLCMT-EAST ZN     because vertex 3 of back surface=CORE_RETAIL_WALL_WEST_1 is in front of receiving surface=CORE_RETAIL_ROOF     (Dot Product indicator=459.6689)     Check surface geometry; if OK, use Solar Distribution = FullExterior instead.\\nProblem in interior solar distribution calculation (CHKBKS)     Solar Distribution = FullInteriorExterior will not work in Zone=SP-CORE_RETAIL SYS-3 FLR-1 SCH-C HPLCMT-EAST ZN     because vertex 2 of back surface=CORE_RETAIL_WALL_WEST_2 is in front of receiving surface=CORE_RETAIL_ROOF     (Dot Product indicator=459.6689)     Check surface geometry; if OK, use Solar Distribution = FullExterior instead.\\nProblem in interior solar distribution calculation (CHKBKS)     Solar Distribution = FullInteriorExterior will not work in Zone=SP-CORE_RETAIL SYS-3 FLR-1 SCH-C HPLCMT-EAST ZN     because vertex 3 of back surface=CORE_RETAIL_WALL_WEST_2 is in front of receiving surface=CORE_RETAIL_ROOF     (Dot Product indicator=459.6689)     Check surface geometry; if OK, use Solar Distribution = FullExterior instead.\\nProblem in interior solar distribution calculation (CHKBKS)     Solar Distribution = FullInteriorExterior will not work in Zone=SP-CORE_RETAIL SYS-3 FLR-1 SCH-C HPLCMT-EAST ZN     because vertex 1 of back surface=CORE_RETAIL_FLOOR is in front of receiving surface=CORE_RETAIL_ROOF     (Dot Product indicator=459.6689)     Check surface geometry; if OK, use Solar Distribution = FullExterior instead.\\nProblem in interior solar distribution calculation (CHKBKS)     Solar Distribution = FullInteriorExterior will not work in Zone=SP-CORE_RETAIL SYS-3 FLR-1 SCH-C HPLCMT-EAST ZN     because vertex 2 of back surface=CORE_RETAIL_FLOOR is in front of receiving surface=CORE_RETAIL_ROOF     (Dot Product indicator=459.6689)     Check surface geometry; if OK, use Solar Distribution = FullExterior instead.\\nProblem in interior solar distribution calculation (CHKBKS)     Solar Distribution = FullInteriorExterior will not work in Zone=SP-CORE_RETAIL SYS-3 FLR-1 SCH-C HPLCMT-EAST ZN     because vertex 3 of back surface=CORE_RETAIL_FLOOR is in front of receiving surface=CORE_RETAIL_ROOF     (Dot Product indicator=459.6689)     Check surface geometry; if OK, use Solar Distribution = FullExterior instead.\\nProblem in interior solar distribution calculation (CHKBKS)     Solar Distribution = FullInteriorExterior will not work in Zone=SP-CORE_RETAIL SYS-3 FLR-1 SCH-C HPLCMT-EAST ZN     because vertex 4 of back surface=CORE_RETAIL_FLOOR is in front of receiving surface=CORE_RETAIL_ROOF     (Dot Product indicator=459.6689)     Check surface geometry; if OK, use Solar Distribution = FullExterior instead.\\nProblem in interior solar distribution calculation (CHKBKS)     Solar Distribution = FullInteriorExterior will not work in Zone=SP-CORE_RETAIL SYS-3 FLR-1 SCH-C HPLCMT-EAST ZN     because vertex 5 of back surface=CORE_RETAIL_FLOOR is in front of receiving surface=CORE_RETAIL_ROOF     (Dot Product indicator=459.6689)     Check surface geometry; if OK, use Solar Distribution = FullExterior instead.\\nProblem in interior solar distribution calculation (CHKBKS)     Solar Distribution = FullInteriorExterior will not work in Zone=SP-CORE_RETAIL SYS-3 FLR-1 SCH-C HPLCMT-EAST ZN     because vertex 6 of back surface=CORE_RETAIL_FLOOR is in front of receiving surface=CORE_RETAIL_ROOF     (Dot Product indicator=459.6689)     Check surface geometry; if OK, use Solar Distribution = FullExterior instead.\\nProblem in interior solar distribution calculation (CHKBKS)     Solar Distribution = FullInteriorExterior will not work in Zone=SP-CORE_RETAIL SYS-3 FLR-1 SCH-C HPLCMT-EAST ZN     because vertex 7 of back surface=CORE_RETAIL_FLOOR is in front of receiving surface=CORE_RETAIL_ROOF     (Dot Product indicator=459.6689)     Check surface geometry; if OK, use Solar Distribution = FullExterior instead.\\nProblem in interior solar distribution calculation (CHKBKS)     Solar Distribution = FullInteriorExterior will not work in Zone=SP-CORE_RETAIL SYS-3 FLR-1 SCH-C HPLCMT-EAST ZN     because vertex 8 of back surface=CORE_RETAIL_FLOOR is in front of receiving surface=CORE_RETAIL_ROOF     (Dot Product indicator=459.6689)     Check surface geometry; if OK, use Solar Distribution = FullExterior instead.\n[openstudio.standards.Fan] <0> For Fan Constant Volume 1, there is no greater nominal HP.  Use the efficiency of the largest motor category.\n[openstudio.standards.Fan] <0> For Fan Constant Volume 2, there is no greater nominal HP.  Use the efficiency of the largest motor category.\n[openstudio.standards.Fan] <0> For Fan Constant Volume 3, there is no greater nominal HP.  Use the efficiency of the largest motor category.\n[openstudio.standards.Fan] <0> For Fan Constant Volume 4, there is no greater nominal HP.  Use the efficiency of the largest motor category.\n[openstudio.standards.Fan] <0> For Fan Constant Volume 5, there is no greater nominal HP.  Use the efficiency of the largest motor category.\n[openstudio.EpwFile] <0> Successive data points (1970-Jan-31 to 1967-Feb-01, ending on line 753) are greater than 1 day apart in EPW file '/usr/local/bundle/bundler/gems/openstudio-standards-f448df66933d/openstudio-standards/data/weather/CAN_BC_Vancouver.718920_CWEC.epw'. Data will be treated as typical (TMY)\n[openstudio.setFileExtension] <0> Path p, '/usr/local/bundle/bundler/gems/openstudio-standards-f448df66933d/openstudio-standards/data/weather/CAN_BC_Vancouver.718920_CWEC.ddy', has an unexpected file extension. Was expecting 'idf'.\n[openstudio.model.YearDescription] <1> 'UseWeatherFile' is not yet a supported option for YearDescription\n[openstudio.model.YearDescription] <1> 'UseWeatherFile' is not yet a supported option for YearDescription\n[openstudio.setFileExtension] <0> Path p, '/usr/local/bundle/bundler/gems/openstudio-standards-f448df66933d/openstudio-standards/data/weather/CAN_BC_Vancouver.718920_CWEC.ddy', has an unexpected file extension. Was expecting 'idf'.\n[openstudio.model.YearDescription] <1> 'UseWeatherFile' is not yet a supported option for YearDescription\n[openstudio.model.YearDescription] <1> 'UseWeatherFile' is not yet a supported option for YearDescription\n[openstudio.EpwFile] <0> Successive data points (1970-Jan-31 to 1967-Feb-01, ending on line 753) are greater than 1 day apart in EPW file '/usr/local/bundle/bundler/gems/openstudio-standards-f448df66933d/openstudio-standards/data/weather/CAN_BC_Vancouver.718920_CWEC.epw'. Data will be treated as typical (TMY)\n[openstudio.setFileExtension] <0> Path p, '/usr/local/bundle/bundler/gems/openstudio-standards-f448df66933d/openstudio-standards/data/weather/CAN_BC_Vancouver.718920_CWEC.ddy', has an unexpected file extension. Was expecting 'idf'.\n[openstudio.model.YearDescription] <1> 'UseWeatherFile' is not yet a supported option for YearDescription\n[openstudio.model.YearDescription] <1> 'UseWeatherFile' is not yet a supported option for YearDescription\n[openstudio.setFileExtension] <0> Path p, '/usr/local/bundle/bundler/gems/openstudio-standards-f448df66933d/openstudio-standards/data/weather/CAN_BC_Vancouver.718920_CWEC.ddy', has an unexpected file extension. Was expecting 'idf'.\n[openstudio.model.YearDescription] <1> 'UseWeatherFile' is not yet a supported option for YearDescription\n[openstudio.model.YearDescription] <1> 'UseWeatherFile' is not yet a supported option for YearDescription\n[openstudio.EpwFile] <0> Successive data points (1970-Jan-31 to 1967-Feb-01, ending on line 753) are greater than 1 day apart in EPW file '/usr/local/bundle/bundler/gems/openstudio-standards-f448df66933d/openstudio-standards/data/weather/CAN_BC_Vancouver.718920_CWEC.epw'. Data will be treated as typical (TMY)\n[openstudio.setFileExtension] <0> Path p, '/usr/local/bundle/bundler/gems/openstudio-standards-f448df66933d/openstudio-standards/data/weather/CAN_BC_Vancouver.718920_CWEC.ddy', has an unexpected file extension. Was expecting 'idf'.\n[openstudio.model.YearDescription] <1> 'UseWeatherFile' is not yet a supported option for YearDescription\n[openstudio.model.YearDescription] <1> 'UseWeatherFile' is not yet a supported option for YearDescription\n[openstudio.setFileExtension] <0> Path p, '/usr/local/bundle/bundler/gems/openstudio-standards-f448df66933d/openstudio-standards/data/weather/CAN_BC_Vancouver.718920_CWEC.ddy', has an unexpected file extension. Was expecting 'idf'.\n[openstudio.model.YearDescription] <1> 'UseWeatherFile' is not yet a supported option for YearDescription\n[openstudio.model.YearDescription] <1> 'UseWeatherFile' is not yet a supported option for YearDescription\n[openstudio.EpwFile] <0> Successive data points (1970-Jan-31 to 1967-Feb-01, ending on line 753) are greater than 1 day apart in EPW file '/usr/local/bundle/bundler/gems/openstudio-standards-f448df66933d/openstudio-standards/data/weather/CAN_BC_Vancouver.718920_CWEC.epw'. Data will be treated as typical (TMY)\n[openstudio.setFileExtension] <0> Path p, '/usr/local/bundle/bundler/gems/openstudio-standards-f448df66933d/openstudio-standards/data/weather/CAN_BC_Vancouver.718920_CWEC.ddy', has an unexpected file extension. Was expecting 'idf'.\n[openstudio.model.YearDescription] <1> 'UseWeatherFile' is not yet a supported option for YearDescription\n[openstudio.model.YearDescription] <1> 'UseWeatherFile' is not yet a supported option for YearDescription\n[openstudio.setFileExtension] <0> Path p, '/usr/local/bundle/bundler/gems/openstudio-standards-f448df66933d/openstudio-standards/data/weather/CAN_BC_Vancouver.718920_CWEC.ddy', has an unexpected file extension. Was expecting 'idf'.\n[openstudio.model.YearDescription] <1> 'UseWeatherFile' is not yet a supported option for YearDescription\n[openstudio.model.YearDescription] <1> 'UseWeatherFile' is not yet a supported option for YearDescription\n[openstudio.EpwFile] <0> Successive data points (1970-Jan-31 to 1967-Feb-01, ending on line 753) are greater than 1 day apart in EPW file '/usr/local/bundle/bundler/gems/openstudio-standards-f448df66933d/openstudio-standards/data/weather/CAN_BC_Vancouver.718920_CWEC.epw'. Data will be treated as typical (TMY)\n[openstudio.setFileExtension] <0> Path p, '/usr/local/bundle/bundler/gems/openstudio-standards-f448df66933d/openstudio-standards/data/weather/CAN_BC_Vancouver.718920_CWEC.ddy', has an unexpected file extension. Was expecting 'idf'.\n[openstudio.model.YearDescription] <1> 'UseWeatherFile' is not yet a supported option for YearDescription\n[openstudio.model.YearDescription] <1> 'UseWeatherFile' is not yet a supported option for YearDescription\n[openstudio.setFileExtension] <0> Path p, '/usr/local/bundle/bundler/gems/openstudio-standards-f448df66933d/openstudio-standards/data/weather/CAN_BC_Vancouver.718920_CWEC.ddy', has an unexpected file extension. Was expecting 'idf'.\n[openstudio.model.YearDescription] <1> 'UseWeatherFile' is not yet a supported option for YearDescription\n[openstudio.model.YearDescription] <1> 'UseWeatherFile' is not yet a supported option for YearDescription\n[openstudio.standards.Fan] <0> For Fan Constant Volume 1, there is no greater nominal HP.  Use the efficiency of the largest motor category.\n[openstudio.standards.Fan] <0> For Fan Constant Volume 2, there is no greater nominal HP.  Use the efficiency of the largest motor category.\n[openstudio.standards.Fan] <0> For Fan Constant Volume 3, there is no greater nominal HP.  Use the efficiency of the largest motor category.\n[openstudio.standards.Fan] <0> For Fan Constant Volume 4, there is no greater nominal HP.  Use the efficiency of the largest motor category.\n[openstudio.standards.Fan] <0> For Fan Constant Volume 5, there is no greater nominal HP.  Use the efficiency of the largest motor category.\n",
            "step_errors" : [],
            "step_files" : [],
            "step_info" : [
               "Started adding geometry",
               "Finished adding geometry",
               "Started adding weather file for climate zone: NECB HDD Method.",
               "Template =",
               "Setting Back_Space to Space Function.Storage area",
               "Setting Core_Retail to Space Function.Retail - sales",
               "Setting Front_Retail to Space Function.Retail - sales",
               "Setting Point_Of_Sale to Space Function.Retail - sales",
               "Setting Front_Entry to Space Function.Lobby - elevator",
               "Started applying space types (loads)",
               "Space Function Lobby - elevator had no people, one has been created.",
               "Space Function Lobby - elevator set occupancy to 9.29 people/1000 ft^2.",
               "Space Function Lobby - elevator had no lights, one has been created.",
               "Space Function Lobby - elevator set LPD to 0.641025641 W/ft^2.",
               "Space Function Lobby - elevator had no electric equipment, one has been created.",
               "Space Function Lobby - elevator set electric EPD to 0.092902267 W/ft^2.",
               "Space Function Lobby - elevator had no ventilation specification, one has been created.",
               "Space Function Lobby - elevator set ventilation per area to 0.81 cfm/ft^2.",
               "Space Function Lobby - elevator had no infiltration objects, one has been created.",
               "Space Function Lobby - elevator set infiltration to 0.0 per ft^2 exterior surface area.",
               "Space Function Lobby - elevator set occupancy schedule to NECB-C-Occupancy.",
               "Space Function Lobby - elevator set occupant activity schedule to NECB-Activity.",
               "Space Function Lobby - elevator set lighting schedule to NECB-C-Lighting.",
               "Space Function Lobby - elevator set electric equipment schedule to NECB-C-Electric-Equipment.",
               "Space Function Lobby - elevator set infiltration schedule to Always On.",
               "Space Function Lobby - elevator set heating setpoint schedule to NECB-C-Thermostat Setpoint-Heating.",
               "Space Function Lobby - elevator set cooling setpoint schedule to NECB-C-Thermostat Setpoint-Cooling.",
               "Space Function Retail - sales had no people, one has been created.",
               "Space Function Retail - sales set occupancy to 3.1 people/1000 ft^2.",
               "Space Function Retail - sales had no lights, one has been created.",
               "Space Function Retail - sales set LPD to 1.681531029 W/ft^2.",
               "Space Function Retail - sales had no electric equipment, one has been created.",
               "Space Function Retail - sales set electric EPD to 0.232255667 W/ft^2.",
               "Space Function Retail - sales had no ventilation specification, one has been created.",
               "Space Function Retail - sales set ventilation per area to 0.233 cfm/ft^2.",
               "Space Function Retail - sales had no infiltration objects, one has been created.",
               "Space Function Retail - sales set infiltration to 0.0 per ft^2 exterior surface area.",
               "Space Function Retail - sales set occupancy schedule to NECB-C-Occupancy.",
               "Space Function Retail - sales set occupant activity schedule to NECB-Activity.",
               "Space Function Retail - sales set lighting schedule to NECB-C-Lighting.",
               "Space Function Retail - sales set electric equipment schedule to NECB-C-Electric-Equipment.",
               "Space Function Retail - sales set infiltration schedule to Always On.",
               "Space Function Retail - sales set heating setpoint schedule to NECB-C-Thermostat Setpoint-Heating.",
               "Space Function Retail - sales set cooling setpoint schedule to NECB-C-Thermostat Setpoint-Cooling.",
               "Space Function Storage area had no people, one has been created.",
               "Space Function Storage area set occupancy to 0.93 people/1000 ft^2.",
               "Space Function Storage area had no lights, one has been created.",
               "Space Function Storage area set LPD to 0.631735414 W/ft^2.",
               "Space Function Storage area had no electric equipment, one has been created.",
               "Space Function Storage area set electric EPD to 0.092902267 W/ft^2.",
               "Space Function Storage area had no ventilation specification, one has been created.",
               "Space Function Storage area set ventilation per area to 0.07 cfm/ft^2.",
               "Space Function Storage area had no infiltration objects, one has been created.",
               "Space Function Storage area set infiltration to 0.0 per ft^2 exterior surface area.",
               "Space Function Storage area set occupancy schedule to NECB-E-Occupancy.",
               "Space Function Storage area set occupant activity schedule to NECB-Activity.",
               "Space Function Storage area set lighting schedule to NECB-E-Lighting.",
               "Space Function Storage area set electric equipment schedule to NECB-E-Electric-Equipment.",
               "Space Function Storage area set infiltration schedule to Always On.",
               "Space Function Storage area set heating setpoint schedule to NECB-E-Thermostat Setpoint-Heating.",
               "Space Function Storage area set cooling setpoint schedule to NECB-E-Thermostat Setpoint-Cooling.",
               "Finished applying space types (loads)",
               "Started applying constructions",
               "Adding construction set: NECB 2011-NECB HDD Method-Retail--is_residentialNo",
               "Adding construction Typical Insulated Exterior Mass Floor R-15.63.",
               "Adding construction Typical Insulated Exterior Mass Wall R-12.5.",
               "Adding construction Typical Insulated Metal Building Roof R-20.41.",
               "Adding construction Typical Interior Floor.",
               "Adding construction Typical Interior Wall.",
               "Adding construction Typical Interior Ceiling.",
               "Adding construction Typical Insulated Carpeted 6in Slab Floor.",
               "Adding construction U 0.55 SHGC 0.31 Dbl Ref-D Tint 6mm/6mm Air.",
               "Adding construction Typical Insulated Metal Door R-1.43.",
               "Adding construction U 0.35 SHGC 0.35 Dbl LoE (e2-.1) Tint 6mm/13mm Air.",
               "Adding construction Typical Overhead Door R-2.0.",
               "Adding construction U 0.48 SHGC 0.40 Dbl Ref-D Clr 6mm/13mm.",
               "Adding construction Typical Interior Window.",
               "Adding construction Typical Interior Door.",
               "Adding construction Typical Interior Partition.",
               "Finished applying constructions",
               "WWR NonRes = 0%; window = 0 ft2, wall = 0 ft2.",
               "WWR Res = 0%; window = 0 ft2, wall = 0 ft2.",
               "WWR Semiheated = 0%; window = 0 ft2, wall = 0 ft2.",
               "The skylight to roof ratios (SRRs) are: NonRes: 1%, Res: 0%.",
               "Started creating thermal zones",
               "Finished creating thermal zones",
               "Running simulation /mnt/openstudio/analysis_4fef0e0f-5396-4c55-a6e1-2cd6803db3ab/data_point_6d8eec87-edfd-4a4c-b06f-23af21ca1e07/run/000_create_prototype_building/output/RetailStandalone-NECB 2011-NECB HDD Method-CAN_BC_Vancouver.718920_CWEC.epw/SR0.",
               "Finished run.",
               "Started Adding HVAC",
               "Finished adding HVAC",
               "Started Adding Service Water Heating",
               "Adding service water loop.",
               "Adding water heater.",
               "Template =",
               "Finished adding Service Water Heating",
               "Set sizing factors to 1.3 for heating and 1.3 for cooling.",
               "Running simulation /mnt/openstudio/analysis_4fef0e0f-5396-4c55-a6e1-2cd6803db3ab/data_point_6d8eec87-edfd-4a4c-b06f-23af21ca1e07/run/000_create_prototype_building/output/RetailStandalone-NECB 2011-NECB HDD Method-CAN_BC_Vancouver.718920_CWEC.epw/SR1.",
               "Finished run.",
               "Started applying multizone vav OA sizing.",
               "Finished applying multizone vav OA sizing.",
               "Started applying prototype HVAC assumptions.",
               "For Fan Constant Volume 1: allowed_hp = 5.69HP; motor eff = 61.5%; total fan eff = 40% based on 8316 cfm.",
               "For Fan Constant Volume 2: allowed_hp = 1.01HP; motor eff = 61.5%; total fan eff = 40% based on 414 cfm.",
               "For Fan Constant Volume 3: allowed_hp = 1.65HP; motor eff = 61.5%; total fan eff = 40% based on 2412 cfm.",
               "For Fan Constant Volume 4: allowed_hp = 1.66HP; motor eff = 61.5%; total fan eff = 40% based on 2420 cfm.",
               "For Fan Constant Volume 5: allowed_hp = 1.01HP; motor eff = 61.5%; total fan eff = 40% based on 1379 cfm.",
               "Sp-Point_Of_Sale Sys-3 Flr-1 Sch-C HPlcmt-south ZN NECB System 3 PSZ does not require an economizer because the total cooling capacity of 64309 Btu/hr is less than the minimum capacity of 68243 Btu/hr.",
               "Sp-Core_Retail Sys-3 Flr-1 Sch-C HPlcmt-east ZN NECB System 3 PSZ requires an economizer because the total cooling capacity of 221686 Btu/hr exceeds the minimum capacity of 68243 Btu/hr.",
               "Sp-Front_Retail Sys-3 Flr-1 Sch-C HPlcmt-south ZN NECB System 3 PSZ does not require an economizer because the total cooling capacity of 64520 Btu/hr is less than the minimum capacity of 68243 Btu/hr.",
               "Sp-Back_Space Sys-4 Flr-1 Sch-E HPlcmt-north ZN NECB System 4 PSZ does not require an economizer because the total cooling capacity of 36768 Btu/hr is less than the minimum capacity of 68243 Btu/hr.",
               "Sp-Front_Entry Sys-3 Flr-1 Sch-C HPlcmt-south ZN NECB System 3 PSZ does not require an economizer because the total cooling capacity of 11044 Btu/hr is less than the minimum capacity of 68243 Btu/hr.",
               "Finished applying prototype HVAC assumptions.",
               "Started applying HVAC efficiency standards.",
               "For Sp-Back_Space Sys-4 Flr-1 Sch-E HPlcmt-north ZN NECB System 4 PSZ, ERV not required based on 0% OA flow, design supply air flow of 1379cfm, and climate zone NECB HDD Method.",
               "For Sp-Back_Space Sys-4 Flr-1 Sch-E HPlcmt-north ZN NECB System 4 PSZ, ERV not required based on exhaust heat content.",
               "For NECB 2011 NECB HDD Method:  Sp-Back_Space Sys-4 Flr-1 Sch-E HPlcmt-north ZN NECB System 4 PSZ: DCV is not required for any system.",
               "For Sp-Back_Space Sys-4 Flr-1 Sch-E HPlcmt-north ZN NECB System 4 PSZ: Annual occupied hours = 3068 hr/yr, assuming a 0.15 occupancy threshold.  This schedule will be used as the HVAC operation schedule.",
               "For Sp-Back_Space Sys-4 Flr-1 Sch-E HPlcmt-north ZN NECB System 4 PSZ: Setting motorized OA damper schedule to Sp-Back_Space Sys-4 Flr-1 Sch-E HPlcmt-north ZN NECB System 4 PSZ Occ Sch.",
               "For Sp-Core_Retail Sys-3 Flr-1 Sch-C HPlcmt-east ZN NECB System 3 PSZ, ERV not required based on 0% OA flow, design supply air flow of 8316cfm, and climate zone NECB HDD Method.",
               "For Sp-Core_Retail Sys-3 Flr-1 Sch-C HPlcmt-east ZN NECB System 3 PSZ, ERV not required based on exhaust heat content.",
               "For NECB 2011 NECB HDD Method:  Sp-Core_Retail Sys-3 Flr-1 Sch-C HPlcmt-east ZN NECB System 3 PSZ: DCV is not required for any system.",
               "For Sp-Core_Retail Sys-3 Flr-1 Sch-C HPlcmt-east ZN NECB System 3 PSZ: Annual occupied hours = 4168 hr/yr, assuming a 0.15 occupancy threshold.  This schedule will be used as the HVAC operation schedule.",
               "For Sp-Core_Retail Sys-3 Flr-1 Sch-C HPlcmt-east ZN NECB System 3 PSZ: Because the system has an economizer, it requires a motorized OA damper.",
               "For Sp-Core_Retail Sys-3 Flr-1 Sch-C HPlcmt-east ZN NECB System 3 PSZ: Setting motorized OA damper schedule to Sp-Core_Retail Sys-3 Flr-1 Sch-C HPlcmt-east ZN NECB System 3 PSZ Occ Sch.",
               "For Sp-Front_Entry Sys-3 Flr-1 Sch-C HPlcmt-south ZN NECB System 3 PSZ, ERV not required based on 0% OA flow, design supply air flow of 414cfm, and climate zone NECB HDD Method.",
               "For Sp-Front_Entry Sys-3 Flr-1 Sch-C HPlcmt-south ZN NECB System 3 PSZ, ERV not required based on exhaust heat content.",
               "For NECB 2011 NECB HDD Method:  Sp-Front_Entry Sys-3 Flr-1 Sch-C HPlcmt-south ZN NECB System 3 PSZ: DCV is not required for any system.",
               "For Sp-Front_Entry Sys-3 Flr-1 Sch-C HPlcmt-south ZN NECB System 3 PSZ: Unoccupied fan shutoff not required because system fan HP of 0.42 HP is less than the minimum threshold of 0.75 HP.",
               "For Sp-Front_Entry Sys-3 Flr-1 Sch-C HPlcmt-south ZN NECB System 3 PSZ: Setting motorized OA damper schedule to Always On Discrete.",
               "For Sp-Front_Retail Sys-3 Flr-1 Sch-C HPlcmt-south ZN NECB System 3 PSZ, ERV not required based on 0% OA flow, design supply air flow of 2420cfm, and climate zone NECB HDD Method.",
               "For Sp-Front_Retail Sys-3 Flr-1 Sch-C HPlcmt-south ZN NECB System 3 PSZ, ERV not required based on exhaust heat content.",
               "For NECB 2011 NECB HDD Method:  Sp-Front_Retail Sys-3 Flr-1 Sch-C HPlcmt-south ZN NECB System 3 PSZ: DCV is not required for any system.",
               "For Sp-Front_Retail Sys-3 Flr-1 Sch-C HPlcmt-south ZN NECB System 3 PSZ: Annual occupied hours = 4168 hr/yr, assuming a 0.15 occupancy threshold.  This schedule will be used as the HVAC operation schedule.",
               "For Sp-Front_Retail Sys-3 Flr-1 Sch-C HPlcmt-south ZN NECB System 3 PSZ: Setting motorized OA damper schedule to Sp-Front_Retail Sys-3 Flr-1 Sch-C HPlcmt-south ZN NECB System 3 PSZ Occ Sch.",
               "For Sp-Point_Of_Sale Sys-3 Flr-1 Sch-C HPlcmt-south ZN NECB System 3 PSZ, ERV not required based on 0% OA flow, design supply air flow of 2412cfm, and climate zone NECB HDD Method.",
               "For Sp-Point_Of_Sale Sys-3 Flr-1 Sch-C HPlcmt-south ZN NECB System 3 PSZ, ERV not required based on exhaust heat content.",
               "For NECB 2011 NECB HDD Method:  Sp-Point_Of_Sale Sys-3 Flr-1 Sch-C HPlcmt-south ZN NECB System 3 PSZ: DCV is not required for any system.",
               "For Sp-Point_Of_Sale Sys-3 Flr-1 Sch-C HPlcmt-south ZN NECB System 3 PSZ: Annual occupied hours = 4168 hr/yr, assuming a 0.15 occupancy threshold.  This schedule will be used as the HVAC operation schedule.",
               "For Sp-Point_Of_Sale Sys-3 Flr-1 Sch-C HPlcmt-south ZN NECB System 3 PSZ: Setting motorized OA damper schedule to Sp-Point_Of_Sale Sys-3 Flr-1 Sch-C HPlcmt-south ZN NECB System 3 PSZ Occ Sch.",
               "For Fan Constant Volume 1: motor nameplate = 5HP, motor eff = 61.5%.",
               "For Fan Constant Volume 2: motor nameplate = 0.25807061810770304HP, motor eff = 61.5%.",
               "For Fan Constant Volume 3: motor nameplate = 1.5027303458240673HP, motor eff = 61.5%.",
               "For Fan Constant Volume 4: motor nameplate = 1.5076624743312705HP, motor eff = 61.5%.",
               "For Fan Constant Volume 5: motor nameplate = 0.8591631444677251HP, motor eff = 61.5%.",
               "For Service Water Loop Pump: brake hp = 0.0HP, motor nameplate = 0.1HP, motor eff = 70.0%.",
               "For Pump Variable Speed 1: brake hp = 0.37HP, motor nameplate = 1.0HP, motor eff = 85.5%.",
               "For NECB 2011: Coil Cooling DX Single Speed 1: AirCooled All Other Single Package Capacity = 222kBtu/hr; EER = 9.7",
               "For NECB 2011: Coil Cooling DX Single Speed 2: AirCooled All Other Single Package Capacity = 11kBtu/hr; SEER = 14.0",
               "For NECB 2011: Coil Cooling DX Single Speed 3: AirCooled All Other Single Package Capacity = 64kBtu/hr; SEER = 14.0",
               "For NECB 2011: Coil Cooling DX Single Speed 4: AirCooled All Other Single Package Capacity = 65kBtu/hr; SEER = 14.0",
               "For NECB 2011: Coil Cooling DX Single Speed 5: AirCooled All Other Single Package Capacity = 37kBtu/hr; SEER = 14.0",
               "For NECB 2011: Primary Boiler: Gas Hot Water Capacity = 277kBtu/hr; AFUE = 0.85",
               "For NECB 2011: Secondary Boiler: Gas Hot Water Capacity = 0kBtu/hr; AFUE = 0.85",
               "For NECB 2011: 40.0gal NaturalGas Water Heater - 40kBtu/hr 0.82 Therm Eff; thermal efficiency = 0.82, skin-loss UA = 6Btu/hr",
               "Finished applying HVAC efficiency standards.",
               "Started adding daylighting controls.",
               "For Back_Space, daylighting control not applicable because no exterior fenestration is present.",
[...]
xYbuqYtu6b1t6Nr2v4WdE3b31jXtG7HZWmaZqPTY9LZY9LpM+kMmHT2mXQOmHQOmXRW7rm3EuKKaIcrpB2umHa4gtrhimqHK6wdrrh2uALb4YpslyuyXba1miuyXa7Ido0iW7872opU9eZoFjLkGareGs1Chpz31RujWciQc756WzQLGXK+WzRFs9FhimM6jVl0RLPRYQplOodZtEOz0WGKZjqBWfRCs1kHmeKZzl4WjdBsdJjimU5d1bugrchYNEGz0SFPj0ULNBsdcrpbNECz0SGnu0X7MxsdcrrbND+zEuKKaDqD2XQ+sxLiCmo6idm0PbMS4oprOo/Z9DyzWhm5IptOZTYNz6yEuCKbzmbodoZuZ+h29owQ3c7Uhm5n6HaGbmclG7qdoduZ0VGh29mKv8H70e3s6YZuZ49bDT+u+saaAgAHOMABDnCAAxzgAAc4wAHO1uN8Y70CQAMa0IAGNKABDWhAAxrQgGZ7aP4yPQqAAxzgAAc4wAEOcIADHOAAp7ofup0tNnQ7W3Y7G2xHt7ODLeh2drDBbmfdPlO7MwuhHpfQHpdQn0towCW0zyV0wCV0yCX0p7vtbZTYYtthC26HLbodtvB22OLbYQtwhy3CHbYQd9hi3GWLcZdv/WaLcZctxl2zGDfpgvZUy6YNWnUd+izZNEKrrkOvAjat0Krr0CuATTO06jr07Ldqh2YhxBXRJenNqiOahRBXUJfkNqumaBZCXHFdktis+qJZrIxckV2S1axao1kIcUV2SUqz6Y72VMeqPZqFEH2KrBqkWQjRk9+qRZqFED35rZqkWQjRk9+uTZqNEltsl2Q2u05pNkps4V2S3OyapdkosUV4SX6z65dms1ayxXhJirNrmWajxBbjJVkOXdPQNQ1d054Romua2tA1DV3T0DWtZEPXNHRNMzoqdE1b8Td4P7qmPd3QNe1xq+FHWt9YcwHgAAc4wAEOcIADHOAABzjA2Xqcb6znAGhAAxrQgAY0oAENaEADGtBsD81fptcBcIADHOAABzjAAQ5wgAMc4FT3Q9e0xYauacuuafvb0TXtcAu6ph1urGvaoLgntGqHGy6hHpfQHpdQn0towCW0zyV0wCV0yCW0cvO9nRJbbDtswe2wRbfDFt4OW3w7bAHusEW4wxbiDluMu2wx7vKt32wx7rLFuGsW4/pd01a1qndNs9Ghz1L1rmk2OvQqUL1rmo0OvQJU75pmo0PPfouuaVZCXBFdkt4suqZZCXEFdUlus+iaZiXEFdclic2ia5rVysgV2SVZzaJrmpUQV2SXpLTqXdNWdSy6plkJ0afIomualRA9+S26plkJ0ZPfomualRA9+W26ptkpscV2SWaz6Zpmp8QW3iXJzaZrmp0SW4SX5Debrml2ayVbjJekOJuuaXZKbDFekuXQNQ1d09A17RkhuqapDV3T0DUNXdNKNnRNQ9c0o6NC17QVf4P3o2va0w1d0x63Gn6k9Y01FwAOcIADHOAABzjAAQ5wgAOcrcf5xnoOgAY0oAENaEADGtCABjSgAc320Pxleh0ABzjAAQ5wgAMc4AAHOMABTnU/dE1bbOiatuyadrAVXdP2ut9+17SccVNd07odl6Vpmo1Oj0lnj0mnz6QzYNLZZ9I5YNI5ZNJZuefeSogroh2ukHa4YtrhCmqHK6odrrB2uOLa4QpshyuyXa7IdtnWaq7Idrki2zWKbP3uaCtS1ZujWciQZ6h6azQLGXLeV2+MZiFDzvnqbdEsZMj5btEUzUaHKY7pNGbREc1GhymU6Rxm0Q7NRocpmukEZtELzWYdZIpnOntZNEKz0WGKZzp1Ve+CtiJj0QTNRoc8PRYt0Gx0yOlu0QDNRoec7hbtz2x0yOlu0/zMSogroukMZtP5zEqIK6jpJGbT9sxKiCuu6Txm0/PMamXkimw6ldk0PLMS4opsOpuh2xm6naHb2TNCdDtTG7qdodsZup2VbOh2hm5nRkeFbmcr/gbvR7ezpxu6nT1uNfy46htrCgAc4AAHOMABDnCAAxzgAAc4W4/zjfUKAA1oQAMa0IAGNKABDWhAA5rtofnL9CgADnCAAxzgAAc4wAEOcIADnOp+6Ha22NDtbNnt7HA7up05W9DtzNlYtzNnr9vpPtmcPZbmZ4yyvXpk9+qR7dcjO6hHdr8e2YN6ZA/rkV25159Tt6Z55tQ00ZyaZppT01RzapprTk2Tzalptjk1TTenpvnm1jTf3LryWk3zza1pvrk2802/q1yZcvUmc3yqume3egs6PlXdlax6gzo+Vd1VrHr7Oj5V3RXMorkdo2w9s0u7XLDohMcoW88E064VLNrmMcrWM8e0CwWLHnuMWaGeWaZdJVg05GOUrWeWaZcI1bv3lalaNPNjlNU9tRat/hhldRcwi0aAjLK6C5hFm0BGWd0FzKaJIKduTfNMu1Kw6TjIqVvTVNMuFmzaE3Lq1jTbtOsFm16GnHmipvmmXTLYND7k1K1pvmlXDeiSiC6J6JL4jBBdEtWGLonokoguiSUbuiSiS6LRUaFL4oq/wfvRJfHphi6Jj1sNP8r8xpqJAAc4wAEOcIADHOAABzjAAc7W43xjPUZAAxrQgAY0oAENaEADGtCAZnto/jK9TYADHOAABzjAAQ5wgAMc4ACnut9X6JL4Qd5OZOJl00SK5tkOmiZ+W00TZXIXDKX4l6ci7+c4ngh1wdTvnPe6Z9vRQNHdggaK7uYaKKq/V+3UxKTTY9LZY9LpM+kMmHT2mXQOmHQOmXRWGwzYCHFFtMMV0g5XTDtcQe1wRbXDFdYOV1w7XIHtcEW2yxXZLttazRXZLldku0aRbdDY76mURSe/6jLkGbLo1Vddhpz3Ft34qsuQc96i3151GXK+23TUs9BhimM6jdk0ybPQYQplOofZ9L2z0GGKZjqB2bSys1gHmeKZzl423eksdJjimU5dFg3nnsrYdJiz0CFPj00POQsdcrrbdImz0CGnu00fOAsdcrpbdXqzEeKKaDqDWTVvsxHiCmo6iVn1Y7MR4oprOo9ZtVizWRm5IptOZVZd02yEuCKbzmbPhH5LgjgJsplwRFs0z6fRjmpJNWj/nxe1u067+PsbOWz3HCrNdVf+offq1d7e4SGDhVu/Ra9+i736Lfr1Wwzqt9iv3+KgfovD+i1WMntdHhuY384GJrizgRnubGCKOxuY484GJrmzgVnubGCaOxuY5+4G5rm7iTy+gXnubmCeu9XmuVt4eBnl0dUrq3o91z0YMFjQV4PNgr4YbBb0tWCzoJdcNgt6xWWzoBdcNgt6vWWzoJdbNouSb675POiv/vg86G8F+TzoLwz5PDYwxUvKKj6PDUzykrKKz2MD07ykrOLLf3RZxeexiTy+gUReUlbxeVSb5z3lcZYEhId7qFdWOc7+fq/HYEFfDTYL+mKwWdDXgs2CXnLZLOgVl82CXnDZLOj1ls2C/m0Um0VJWcXnQZdVfB50WcXnQZdVfB70T7T4POjfJfJ50D9Z5POgf83I50H/0JHPYwPzvKSs4vPYRB7fQCIvKav4PKql8j3l8WE8pTwO9Mqqw3zrv2awoK8GmwV9Mdgs6GvBZkGXVWwWdFnFZkGXVWwWdFnFZkEvt2wWJWUVnwddVvF50GUVnwddVvF50GUVnwddVvF50GUVnwddVvF50GUVn8cG5nlJWcXnsYk8voFEXlJW8XlUS+V95fEv6VMe+3pl1Zs3Jyf7+wwW9NVgs6AvBpsFfS3YLOiyis2CLqvYLOiyis2CLqvYLOjlls2ipKzi86DLKj4Puqzi86DLKj4Puqzi86DLKj4Puqzi86DLKj4Puqzi89jAPC8pq/g8NpHHN5DIS8oqPo9qqXxQlG5TSXkM9Mqqk5PBgMWCvhpsFvTFYLOgrwWbBV1WsVnQZRWbBV1WsVnQZRWbBb3cslmUlFV8HnRZxedBl1V8HnRZxedBl1V8HnRZxedBl1V8HnRZxedBl1V8HhuY5yVlFZ/HJvL4BhJ5SVnF51Etle8rj19i6mfxbl+vrDo4cN1+n8GCvhpsFvTFYLOgrwWbBV1WsVnQZRWbBV1WsVnQZRWbRVnfKSaL0mZrXB5l3aq4PMoaWXF5lPW44vIoa3/F5VHW843Lo6wdHJdHWac4Lo+yJnJcHhuY5yVlFZ/HJvL4BhJ5SVnF57E+lX/U6fC66MksjkUk75cNZIu+sc30btQqOsCubRW7bOycyux1PI38tNnvtoTj9Fuip/7m9vXazT7kGI9NqX3/xMvkKE5mrx6CdN4W+fH4NbpH5wLvEl8m76eqS7H2jopjtsrxi/TSaSLnGKrR8uK819yeG8MYxjCGMYxhDGMYwxjGMIYxjGEMYxjDGMYwhjGMYQxjGMMYxjCGMYxhDGMYwxjGMIYxjGEMYxjDGMYwhjGMYQxjGMMYxjCGMYxhDGMYw/9Tw7NOfCeTJPDlL566sdbpdC3vV1W3xqart8aeyySQ6eL22kZreQPxJIyzThhEcu0tsumX7tNdf2dt2ikePT+JQy8L4iiHaqSZnLSv5HWcyIbenc8/y5GM/NUDmr/WHHRboqfuXO6qG5nVH41QXmcKbI30UrZzOZLZaZSp85NbXE+jYUHa3BF/rJFYEsrHvS/W3suttuBaNLNxkHbS4qroGantyU6d/PydesNx87/ApmpLfHXreM6+0L2cxGmgBN/kL+sczXJTMl+gSuJ7M6QlVhD5Us2HttMy3Hu53VTd8TqQoYq35uKczufJKImnE+mL778Xf1u8/tC5HHvp4v53NcF2no7Ovjian5CONxqdKY9OKKNRNhYvhSv+KRqvwrAhjlbfkYbBUDbbzs5F9+PO2vn27EjiRDRv8kPp/iBucptFqC581Wt/z1cc8wukNhXGC72Lm4+dT3Imjo+P5yevmmKhurjsN6aHutyuEul9qrLzZ8N9TN+vztfi6I5VWKtgWERK0cihc+mlaTCKpH+iWkSkF8WZ/FjtVC4v9GSajptVr0V+SY/m17P6TArDI52j7Kh3VnVJsyT+JPV85u+t6hRPvGGQzfSsFm+ufFSFxdKqqspyIVldVqpMD+PFR23L6by68Ii2cEzVTKabPuvnVpFVtd7/eV1NobbdXfHb7x/Ev9/9/l6cv3v/4adffxQ/v/vxpxPx9vT9qZ7AWb5qywdPlWgii0UaJ5mIprd5HAxF0dIkFV46zIuXIBppKC7PvdJ5kpm9lrjSX1wSmU2TSEy8JJVnYexlTU8t+Tv5pXzy2lXxmtbJXF+iPbFdHMI64c/1dnp5rD+L6V5M9uYLX1570zATkyTO1zD5oiVefHdwcHJyevqi5sYzwAEOcIADHOAABzjAAQ5wgPO/iSPS6W3+T2DhS/Wi8L2ZIkqkDxrQgAY0oAENaEADGtCABjSgKae5L36a9Seaq3AqgQMc4AAHOMABDnCAAxzgAAc4VXAenxvoqOcGnk+p5wb2nOIbtlev9vYOD0EKUpCCFKQgBSlIQQpSkIIUpCAF6XaQugWpl1Gk3YK013PdgwFIQQpSkIIUpCAFKUhBClKQghSkIN0O0p4iPUsCgtQ9LEgdZ3+/1wMpSEEKUpCCFKQgBSlIQQpSkIIUpNtBuqdIP4ynFOlBQXqYb/3XIAUpSEEKUpCCFKQgBSlIQQpSkIJ0O0j7ivRf0qdI9wvSN29OTvb3QQpSkIIUpCAFKUhBClKQghSkIAXpdpAOik8mppIiHRSkJyeDAUhBClKQghSkIAUpSEEKUpCCFKQg3RbSfUX6S0x1FnT7BenBgev2+yAFKUhBClKQghSkIAUpSEEKUpCCdGOkSxQ/8e6ba8UeOlmQhfJ87E1kJ5MPWfPF23iapOsxZs/3fBPcyigN4iiUaaGwRmJ3V7zyfeGJQkncB9lYpPGtFH5vzZ7p3ajjTSYy8psN5d3YWbPDcut4WZY0Gw+Nlhh0DXea5Tu5+jul2SyUc7y2Fw3HcZLv3wjltQHtQuM6jrL2vQxG40xpXMWhr68xvzbnk/Zrb/jp8nziDaU4n6XtPXEWJm1HnA/H7VPx9rdweJu1ozjJL8J/fhW/np68Vm/L5K3YE7+d/0e8Gw7Ve1/slF3Wl7vpMAkm2T/I97zc9YO7Lw+T+9BiuZYI/OPGUMX8SX6avCCSyeVeryGKc3fc8IN0EnqzoyAK86H2VRgPP/3QoPly0fkhiGw2yfdXp2/3xrvz5q+W7qm2Oy9R4SmOhR/cTkLZieT9+d2o2fjuOWNL7HW7xR9rp5uS9b3My3Uv/miE3pUMG0cNX1570zATkyS+DkLZaM1HLh8aR06n22rceeFULv4+VKtSvk++0JycnJ42Pre0dFwmnR6Tzh6TTp9JZ8Cks8+kc8Ckc8ik43S5hLgi2uEKaYcrph2uoHa4otrhCmuHK64drsB2uCLb5Ypsl22t5opslyuyXaPIFun09nblMdVaGS2RvoEMeY7MZMgzZCZDnh8zGXLem8mQs95MhpzzZjLkjDeTIee7mQydyAx1mOKYTmOGOkyRTCcxQx2mWKZTmKEOUzTTCcxQhyme6fRlqMO1LjPFM527DHX04/k+iDLztHWlXtLXIU+PoQ55egx1yNNjqENOd0Mdcrob6pDT3VCHnO6GOuR0N9Sh85epEFdE0xnMVIgrpukcZirEFdV0FjMV4oprOo+ZCnFFNp3JTIXY1mquyKaTmamQfmQ/fm+x9rnCVJrrrvxDb/7gYQYLt36LXv0We/Vb9Ou3GNRvsV+/xUH9Fof1W6xk9ro8NjC/Sz6Y5fOgP9ni86A/9OLzoD/p5fOgPwTm86A/H+bzoD865vOgP1Xmy38bmOfuJvL4BhK5u4FM7lZL5Wsf36hXVs2f78hgQV8NNgv6YrBZ0NeCzYIuq9gs6LKKzYIuq9gs6LKKzYIuq9gsSr655vOgv/rj86DLKj4Puqzi86DLKj4Puqzi86DLKj4Puqzi86DLKj4Puqziy38bmOclX/HzeWwgkZeUVXwe1VL52qdk6ZVV88doMVjQV4PNgr4YbBb0tWCzoMsqNgu6rGKzoMsqNgu6rGKzoMsqNouSsorPg15u+TzosorPgy6r+DzosorPgy6r+DzosorPgy6r+DzosorPgy6r+PLfBuZ5SVnF57GBRF5SVvF5VEvlax9GoldWzZ9WwmBBXw02C/pisFnQ14LNgi6r2CzosorNgi6r2CzosorNgi6r2CxKyio+D3q55fOgyyo+D7qs4vOgyyo+D7qs4vOgyyo+D7qs4vOgyyo+D7qs4st/G5jnJWUVn8cGEnlJWcXnUS2Vr+35rldWzZvCM1jQV4PNgr4YbBb0tWCzoMsqNgu6rGKzoMsqNgu6rGKzoMsqNouSsorPg15u+TzosorPgy6r+DzosorPgy6r+DzosorPgy6r+DzosorPgy6r+PLfBuZ5SVnF57GBRF5SVvF5VEvla1vr6pVV8967DBb01WCzoC8GmwV9Ldgs6LKKzYIuq9gs6LKKzYIuq9gs6LKKzaKkrOLzoJdbPg+6rOLzoMsqPg+6rOLzoMsqPg+6rOLzoMsqPg+6rOLzoMsqvvy3gXleUlbxeWwgkZeUVXwe1VL52g6GemXVvMUhgwV9Ndgs6IvBZkFfCzYLuqxis6DLKjYLuqxis6DLKjYLuqxisyhttsblQS+3fB5ljay4PMp6XHF5lLW/4vIo6/nG5VHWDo7Lo6xTHJdHWRM5Lo+y/nJc+W8D87y0Kx2XxwYSeUlZxeexPpV/1OnwumjeLI5FJO+XDWSLvrHN9G7UKjrArm0Vu+wAncrsdTyN/LTZ77aE4/Rboqf+5vb12s0+5BiPja19/8TL5ChOZq8egnTeQfnx+DXaTOcC7xJfJu+nqqGx9o6KY7bK8Yv00mki5xiqJ/PivNfc4hvDGMYwhjGMYQxjGMMYxjCGMYxhDGMYwxjGMIYxjGEMYxjDGMYwhjGMYQxjGMMYxjCGMYxhDGMYwxjGMIYxjGEMYxjDGMYwhjGMYQxjGMP/U8OzTnwnkyTw5S+eurHW6XQt71dVt8amq7fGnsskkOni9tpGa3kD8SSMs04YRHLtLbLpl+7TXX9nbdopHj0/iUMvC+Ioh2qkmZy0r+R1nMiG3p3PP8uRjPzVA5q/1hx0W6Kn7lzuqhuZ1R+NUF5nCmyN9FK2czmS2WmUqfOTW1xPo2FB2twRf6yRWBLKx70v1t7LrbbgWjSzcZB20uKq6Bmp7clOnfz8nXrDcfO/wKZqS3x163jOvtC9nMRpoATf5C/rHM1yUzJfoEriezOkJVYQ+VLNh7bTMtx7ud1U3fE6kKGKt+binM7nySiJpxPpi++/F39bvP7QuRx76eL+dzXBdp6Ozr44mp+QjjcanSmPTiijUTYWL4Ur/ikar8KwIY5W35GGwVA2287ORffjztr59uxI4kQ0b/JD6f4gbnKbRagufNVrf89XHPMLpDYVxgu9i5uPnU9yJo6Pj+cnr5piobq47Demh7rcrhLpfaqy82fDfUzfr87X4uiOVVirYFhEStHIoXPppWkwiqR/olpEpBfFmfxY7VQuL/Rkmo6bVa9FfkmP5tez+kwKwyOdo+yod1Z1SbMk/iT1fObvreoUT7xhkM30rBZvrnxUhcXSqqrKciFZXVaqTA/jxUdty+m8uvCItnBM1Uymmz7r51aRVbXe/3ldTaG23V3x2+8fxL/f/f5enL97/+GnX38UP7/78acT8fb0/amewFm+assHT5VoIotFGieZiKa3eRwMRdHSJBVeOsyLlyAaaSguz73SeZKZvZa40l9cEplNk0hMvCSVZ2HsZU1PLfk7+aV88tpV8ZrWyVxfoj2xXRzCOuHP9XZ6eaw/i+leTPbmC19ee9MwE5Mkztcw+aIlXnx3cHBycnr6oubGM8ABDnCAAxzgAAc4wAEOcIDzv4kj0ult/k9g4Uv1ovC9mSJKpA8a0IAGNKABDWhAAxrQgAY0oCmnuS9+mvUnmqtwKoEDHOAABzjAAQ5wgAMc4AAHOFVwHp8b6KjnBp5PqecG9pziG7ZXr/b2Dg9BClKQghSkIAUpSEEKUpCCFKQgBel2kLoFqZdRpN2CtNdz3YMBSEEKUpCCFKQgBSlIQQpSkIIUpCDdDtKeIj1LAoLUPSxIHWd/v9cDKUhBClKQghSkIAUpSEEKUpCCFKTbQbqnSD+MpxTpQUF6mG/91yAFKUhBClKQghSkIAUpSEEKUpCCdDtI+4r0X9KnSPcL0jdvTk7290EKUpCCFKQgBSlIQQpSkIIUpCAF6XaQDopPJqaSIh0UpCcngwFIQQpSkIIUpCAFKUhBClKQghSkIN0W0n1F+ktMdRZ0+wXpwYHr9vsgBSlIQQpSkIIUpCAFKUhBClKQgnRjpEsUP/Hum2vFHjpZkIXyfOxNZCeTD1nzxdt4mqTrMWbP93wT3MooDeIolGmhsEZid1e88n3hiUJJ3AfZWKTxrRR+b82e6d2o400mMvKbDeXd2Fmzw3LreFmWNBsPjZYYdA13muU7ufo7pdkslHO8thcNx3GS798I5bUB7ULjOo6y9r0MRuNMaVzFoa+vMb8255P2SZzIy/cy84JQnM/Sdk+chUnbEefDcftEvP0tHN5mbemlmfjPr+LX05PX6l2ZvBU98dv5f8S74VC99cVO2WV9uZsOk2CS/YN8z8tdP7j78jC5Dy2Wa4nAP24MVcyf5KfJCyKZXO7tNURx7o4bfpBOQm92FERhPtS+CuPhpx8aNF8uOj8Ekc0m+f7q9O3eeHfe/NXSPdV25yUqPMWx8IPbSSg7kbw/vxs1G989Z2yJvW63+GPtdFOyvpd5ue7FH43Qu5Jh46jhy2tvGmZiksTXQSgbrfnI5UPjyOl0W407L5zKxd+HalXK98kXmpOT09PG55aWjsuk02PS2WPS6TPpDJh09pl0Dph0Dpl0nC6XEFdEO1wh7XDFtMMV1A5XVDtcYe1wxbXDFdgOV2S7XJHtsq3VXJHtckW2axTZIp3e3q48ploroyXSN5Ahz5GZDHmGzGTI82MmQ857Mxly1pvJkHPeTIac8WYy5Hw3k6ETmaEOUxzTacxQhymS6SRmqMMUy3QKM9RhimY6gRnqMMUznb4MdbjWZaZ4pnOXoY5+PN8HUWaetq7US/o65Okx1CFPj6EOeXoMdcjpbqhDTndDHXK6G+qQ091Qh5zuhjp0/jIV4opoOoOZCnHFNJ3DTIW4oprOYqZCXHFN5zFTIa7IpjOZqRDbWs0V2XQyMxXSj+zH7y3WPleYSnPdlX/ozR88zGDh1m/Rq99ir36Lfv0Wg/ot9uu3OKjf4rB+i5XMXpfHBuZ3yQezfB70J1t8HvSHXnwe9Ce9fB70h8B8HvTnw3we9EfHfB70p8p8+W8D89zdRB7fQCJ3N5DJ3WqpfO3jG/XKqvnzHRks6KvBZkFfDDYL+lqwWdBlFZsFXVaxWdBlFZsFXVaxWdBlFZtFyTfXfB70V398HnRZxedBl1V8HnRZxedBl1V8HnRZxedBl1V8HnRZxedBl1V8+W8D87zkK34+jw0k8pKyis+jWipf+5QsvbJq/hgtBgv6arBZ0BeDzYK+FmwWdFnFZkGXVWwWdFnFZkGXVWwWdFnFZlFSVvF50MstnwddVvF50GUVnwddVvF50GUVnwddVvF50GUVnwddVvF50GUVX/7bwDwvKav4PDaQyEvKKj6Paql87cNI9Mqq+dNKGCzoq8FmQV8MNgv6WrBZ0GUVmwVdVrFZ0GUVmwVdVrFZ0GUVm0VJWcXnQS+3fB50WcXnQZdVfB50WcXnQZdVfB50WcXnQZdVfB50WcXnQZdVfPlvA/O8pKzi89hAIi8pq/g8qqXytT3f9cqqeVN4Bgv6arBZ0BeDzYK+FmwWdFnFZkGXVWwWdFnFZkGXVWwWdFnFZlFSVvF50MstnwddVvF50GUVnwddVvF50GUVnwddVvF50GUVnwddVvF50GUVX/7bwDwvKav4PDaQyEvKKj6Paql8bWtdvbJq3nuXwYK+GmwW9MVgs6CvBZsFXVaxWdBlFZsFXVaxWdBlFZsFXVaxWZSUVXwe9HLL50GXVXwedFnF50GXVXwedFnF50GXVXwedFnF50GXVXwedFnFl/82MM9Lyio+jw0k8pKyis+jWipf28FQr6yatzhksKCvBpsFfTHYLOhrwWZBl1VsFnRZxWZBl1VsFnRZxWZBl1VsFqXN1rg86OWWz6OskRWXR1mPKy6PsvZXXB5lPd+4PMrawXF5lHWK4/IoayLH5VHWX44r/21gnpd2pePy2EAiLymr+DzWp/KPOh1eF82bxbGI5P2ygWzRN7aZ3o1aRQfYta1ilx2gU5m9jqeRnzb73ZZwnH5L9NTf3L5eu9mHHOOxsbXvn3iZHMXJ7NVDkM47KD8ev0ab6VzgXeLL5P1UNTTW3lFxzFY5fpFeOk3kHEP1ZF6c95pbfGMYwxjGMIYxjGEMYxjDGMYwhjGMYQxjGMMYxjCGMYxhDGMYwxjGMIYxjGEMYxjDGMYwhjGMYQxjGMMYxjCGMYxhDGMYwxjGMIYxjGEMY/h/anjWie9kkgS+/MVTN9Y6na7l/arq1th09dbYc5kEMl3cXttoLW8gnoRx1gmDSK69RTb90n266++sTTvFo+cncehlQRzlUI00k5P2lbyOE9nQu/P5ZzmSkb96QPPXmoNuS/TUnctddSOz+qMRyutMga2RXsp2LkcyO40ydX5yi+tpNCxImzvijzUSS0L5uPfF2nu51RZci2Y2DtJOWlwVPSO1Pdmpk5+/U284bv4X2FRtia9uHc/ZF7qXkzgNlOCb/GWdo1luSuYLVEl8b4a0xAoiX6r50HZahnsvt5uqO14HMlTx1lyc0/k8GSXxdCJ98f334m+L1x86l2MvXdz/ribYztPR2RdH8xPS8UajM+XRCWU0ysbipXDFP0XjVRg2xNHqO9IwGMpm29m56H7cWTvfnh1JnIjmTX4o3R/ETW6zCNWFr3rt7/mKY36B1KbCeKF3cfOx80nOxPHx8fzkVVMsVBeX/cb0UJfbVSK9T1V2/my4j+n71flaHN2xCmsVDItIKRo5dC69NA1GkfRPVIuI9KI4kx+rncrlhZ5M03Gz6rXIL+nR/HpWn0lheKRzlB31zqouaZbEn6Sez/y9VZ3iiTcMspme1eLNlY+qsFhaVVVZLiSry0qV6WG8+KhtOZ1XFx7RFo6pmsl002f93Cqyqtb7P6+rKdS2uyt++/2D+Pe739+L83fvP/z064/i53c//nQi3p6+P9UTOMtXbfngqRJNZLFI4yQT0fQ2j4OhKFqapMJLh3nxEkQjDcXluVc6TzKz1xJX+otLIrNpEomJl6TyLIy9rOmpJX8nv5RPXrsqXtM6metLtCe2i0NYJ/y53k4vj/VnMd2Lyd584ctrbxpmYpLE+RomX7TEi+8ODk5OTk9f1Nx4BjjAAQ5wgAMc4AAHOMABDnD+N3FEOr3N/wksfKleFL43U0SJ9EEDGtCABjSgAQ1oQAMa0IAGNOU098VPs/5EcxVOJXCAAxzgAAc4wAEOcIADHOAApwrO43MDHfXcwPMp9dzAnlN8w/bq1d7e4SFIQQpSkIIUpCAFKUhBClKQghSkIN0OUrcg9TKKtFuQ9nquezAAKUhBClKQghSkIAUpSEEKUpCCFKTbQdpTpGdJQJC6hwWp4+zv93ogBSlIQQpSkIIUpCAFKUhBClKQgnQ7SPcU6YfxlCI9KEgP863/GqQgBSlIQQpSkIIUpCAFKUhBClKQbgdpX5H+S/oU6X5B+ubNycn+PkhBClKQghSkIAUpSEEKUpCCFKQg3Q7SQfHJxFRSpIOC9ORkMAApSEEKUpCCFKQgBSlIQQpSkIIUpNtCuq9If4mpzoJuvyA9OHDdfh+kIAUpSEEKUpCCFKQgBSlIQQpSkG6MdIniJ959c63YQycLslCej72J7GTyIWu+eBtPk3Q9xuz5nm+CWxmlQRyFMi0U1kjs7opXvi88USiJ+yAbizS+lcLvrdkzvRt1vMlERn6zobwbO2t2WG4dL8uSZuOh0RKDruFOs3wnV3+nNJuFco7X9qLhOE7y/RuhvDagXWhcx1HWvpfBaJwpjas49PU15tfmfNI+S3KZy/cy84JQnM/Sdk+chUnbEefDcftEvP0tHN5m7TSe5pfhP7+KX09PXqu3ZfJW9MRv5/8R74ZD9d4XO2UX9uVuOkyCSfYP8j0vd/3g7svD5D60WK4lAv+4MVRRf5IfoRdEMrnc6zdEcfaOG36QTkJvdhREYT7Uvgrj4acfGjRfLjo/BJHNJvn+6gTu3nh33vzV0j3VduclKkDFsfCD20koO5G8P78bNRvfPWdsib1ut/hj7YRTsr6XebnuxR+N0LuSYeOo4ctrbxpmYpLE10EoG635yOVD48jpdFuNOy+cysXfh2pdyvfJl5qTk9PTxueWlo7LpNNj0tlj0ukz6QyYdPaZdA6YdA6ZdJwulxBXRDtcIe1wxbTDFdQOV1Q7XGHtcMW1wxXYDldku1yR7bKt1VyR7XJFtmsU2SKd3t6uPKhaK6Ml0jeQIc+RmQx5hsxkyPNjJkPOezMZctabyZBz3kyGnPFmMuR8N5OhE5mhDlMc02nMUIcpkukkZqjDFMt0CjPUYYpmOoEZ6jDFM52+DHW41mWmeKZzl6GOfjzfB1Fmnrau1Ev6OuTpMdQhT4+hDnl6DHXI6W6oQ053Qx1yuhvqkNPdUIec7oY6dP4yFeKKaDqDmQpxxTSdw0yFuKKazmKmQlxxTecxUyGuyKYzmakQ21rNFdl0MjMV0o/sx28u1j5ZmEpz3ZV/6M0fPcxg4dZv0avfYq9+i379FoP6Lfbrtzio3+KwfouVzF6Xxwbmd8kHs3we9CdbfB70h158HvQnvXwe9IfAfB7058N8HvRHx3we9KfKfPlvA/Pc3UQe30AidzeQyd1qqXztAxz1yqr5Ex4ZLOirwWZBXww2C/pasFnQZRWbBV1WsVnQZRWbBV1WsVnQZRWbRck313we9Fd/fB50WcXnQZdVfB50WcXnQZdVfB50WcXnQZdVfB50WcXnQZdVfPlvA/O85Ct+Po8NJPKSsorPo1oqX/ucLL2yav4gLQYL+mqwWdAXg82CvhZsFnRZxWZBl1VsFnRZxWZBl1VsFnRZxWZRUlbxedDLLZ8HXVbxedBlFZ8HXVbxedBlFZ8HXVbxedBlFZ8HXVbxedBlFV/+28A8Lymr+Dw2kMhLyio+j2qpfO3jSPTKqvnzShgs6KvBZkFfDDYL+lqwWdBlFZsFXVaxWdBlFZsFXVaxWdBlFZtFSVnF50Evt3wedFnF50GXVXwedFnF50GXVXwedFnF50GXVXwedFnF50GXVXz5bwPzvKSs4vPYQCIvKav4PKql8rVd3/XKqnlbeAYL+mqwWdAXg82CvhZsFnRZxWZBl1VsFnRZxWZBl1VsFnRZxWZRUlbxedDLLZ8HXVbxedBlFZ8HXVbxedBlFZ8HXVbxedBlFZ8HXVbxedBlFV/+28A8Lymr+Dw2kMhLyio+j2qpfG1zXb2yat59l8GCvhpsFvTFYLOgrwWbBV1WsVnQZRWbBV1WsVnQZRWbBV1WsVmUlFV8HvRyy+dBl1V8HnRZxedBl1V8HnRZxedBl1V8HnRZxedBl1V8HnRZxZf/NjDPS8oqPo8NJPKSsorPo1oqX9vDUK+smjc5ZLCgrwabBX0x2Czoa8FmQZdVbBZ0WcVmQZdVbBZ0WcVmQZdVbBalzda4POjlls+jrJEVl0dZjysuj7L2V1weZT3fuDzK2sFxeZR1iuPyKGsix+VR1l+OK/9tYJ6XdqXj8thAIi8pq/g81qfyjzodXhftm8WxiOT9soFs0Te2md6NWkUH2LWtYpc9oFOZvY6nkZ82+92WcJx+S/TU39y+XrvZhxzjsbW17594mRzFyezVQ5DOeyg/Hr9Go+lc4F3iy+T9VLU01t5RccxWOX6RXjpN5BxDdWVenPeam3xjGMMYxjCGMYxhDGMYwxjGMIYxjGEMYxjDGMYwhjGMYQxjGMMYxjCGMYxhDGMYwxjGMIYxjGEMYxjDGMYwhjGMYQxjGMMYxjCGMYxhDGP4f2p41onvZJIEvvzFUzfWOp2u5f2q6tbYdPXW2HOZBDJd3F7baC1vIJ6EcdYJg0iuvUU2/dJ9uuvvrE07xaPnJ3HoZUEc5VCNNJOT9pW8jhPZ0Lvz+Wc5kpG/ekDz15qDbkv01J3LXXUjs/qjEcrrTIGtkV7Kdi5HMjuNMnV+covraTQsSJs74o81EktC+bj3xdp7udUWXItmNg7STlpcFT0jtT3ZqZOfv1NvOG7+F9hUbYmvbh3P2Re6l5M4DZTgm/xlnaNZbkrmC1RJfG+GtMQKIl+q+dB2WoZ7L7ebqjteBzJU8dZcnNP5PBkl8XQiffH99+Jvi9cfOpdjL13c/64m2M7T0dkXR/MT0vFGozPl0QllNMrG4qVwxT9F41UYNsTR6jvSMBjKZtvZueh+3Fk7354dSZyI5k1+KN0fxE1uswjVha967e/5imN+gdSmwnihd3HzsfNJzsTx8fH85FVTLFQXl/3G9FCX21UivU9Vdv5suI/p+9X5WhzdsQprFQyLSCkaOXQuvTQNRpH0T1SLiPSiOJMfq53K5YWeTNNxs+q1yC/p0fx6Vp9JYXikc5Qd9c6qLmmWxJ+kns/8vVWd4ok3DLKZntXizZWPqrBYWlVVWS4kq8tKlelhvPiobTmdVxce0RaOqZrJdNNn/dwqsqrW+z+vqynUtrsrfvv9g/j3u9/fi/N37z/89OuP4ud3P/50It6evj/VEzjLV2354KkSTWSxSOMkE9H0No+DoShamqTCS4d58RJEIw3F5blXOk8ys9cSV/qLSyKzaRKJiZek8iyMvazpqSV/J7+UT167Kl7TOpnrS7QntotDWCf8ud5OL4/1ZzHdi8nefOHLa28aZmKSxPkaJl+0xIvvDg5OTk5PX9TceAY4wAEOcIADHOAABzjAAQ5w/jdxRDq9zf8JLHypXhS+N1NEifRBAxrQgAY0oAENaEADGtCABjTlNPfFT7P+RHMVTiVwgAMc4AAHOMABDnCAAxzgAKcKzuNzAx313MDzKfXcwJ5TfMP26tXe3uEhSEEKUpCCFKQgBSlIQQpSkIIUpCDdDlK3IPUyirRbkPZ6rnswAClIQQpSkIIUpCAFKUhBClKQghSk20HaU6RnSUCQuocFqePs7/d6IAUpSEEKUpCCFKQgBSlIQQpSkIJ0O0j3FOmH8ZQiPShID/Ot/xqkIAUpSEEKUpCCFKQgBSlIQQpSkG4HaV+R/kv6FOl+QfrmzcnJ/j5IQQpSkIIUpCAFKUhBClKQghSkIN0O0kHxycRUUqSDgvTkZDAAKUhBClKQghSkIAUpSEEKUpCCFKTbQrqvSH+Jqc6Cbr8gPThw3X4fpCAFKUhBClKQghSkIAUpSEEKUpBujHSJ4ifefXOt2EMnC7JQno+9iexk8iFrvngbT5N0Pcbs+Z5vglsZpUEchTItFNZI7O6KV74vPFEoifsgG4s0vpXC763ZM70bdbzJREZ+s6G8GztrdlhuHS/LkmbjodESg67hTrN8J1d/pzSbhXKO1/ai4ThO8v0bobw2oF1oXMdR1r6XwWicKY2rOPT1NebX5nzS/i0Oouzy3fXluZef7fNZ2u6JszBpO+J8OG6fiLe/hcPbrJ3G0/w6/OdX8evpyWv1tkzeip747fw/4t1wqN77Yqfsyr7cTYdJMMn+Qb7n5a4f3H15mNyHFsu1ROAfN4Yq7E/yM+UFkUwu9wYNUZy+44YfpJPQmx0FUZgPta/CePjphwbNl4vOD0Fks0m+vzqDuzfenTd/tXRPtd15iYpQcSz84HYSyk4k78/vRs3Gd88ZW2Kv2y3+WDvjlKzvZV6ue/FHI/SuZNg4avjy2puGmZgk8XUQykZrPnL50DhyOt1W484Lp7JxNDjsHD7ZDg5bjaFapnKFfOU5OTk9bXxuaam6taj2alHdq0W1X4vqoBbV/VpUD2pRPaxF1enWI1vP7HLqmV5OPfPLqWeCOfXMMKeeKebUM8eceiaZU88sc+uZZW5NOayeWebWM8tci1km0unt7cqTvytUCIn0DUQ1z62ZqOaZNRPVPK9mopprl5mo5splJqq5bpmJaq5aZqKaa5aZqG5hYKhay5zSLQsMVWuZVbpFgaFqLfNKtyQwVK1lZukWBIaqtcwt3XLAULWefFXL3NKtBQxVq86t+yDKbMuAK/UGfVXN02qoqnlaDVU1T6uhquaSZaiquWQZqmouWYaqmkuWoarmkmWoqlsPmMrWM7t0KwJT2Xrml25NYCpbzwzTrQpMZeuZY7p1galsPbNMtzIwla0ph9Uzy3SLA1NZo1n2UecLh8XXieJYRPJ++X1G8TVGM70btYovJNZ+c7H8TjKV2et4Gvlps99tCcfpt0RP/c3t63378ZBjPH7V6vsnXiZHcTJ79RCk8+/0Hk+FxhefucC7xJfJ+6n6ik17R8UxW+X4RXrpNJFzDPUt4eIS2H6VW3yPtGp1LpNApgvc3GlxQSZhnHXUl1trLdMvHfd60rRTxN0kDr0siKMcqpFmctK+ktdxIht6kfSzHMnIXz2g+WvNQR4FPRUJ6sswR/2x+KZ07ZfIS9nO5Uhmp1Gmzk9ucT2NhgVpc0f8ofFVqSKUj3tfrJ0baguuRTMbB2ke12o/PSO1Pdmpk5+/U284bv4X2FRtib/4bnChezmJ00AJvslf1jma5aZkvkCVxPdmSEusIPKlmrhtp2W493K7qbrjdSBDFW/NxTmdz5NREk8n0hfffy/+tnj9oXM59tLFeqIm2M7T0dkXR/MT0vFGozPl0QllNMrG4qVwxT9F41UYNsTR6jvSMBjKZtvZueh+3Fk7354dSZyI5k1+KN0fxE1uswjVha967e/HwjG/QGpTYbzQu7j52Pkk8+Xt+Hh+8qopFqqLy35jeqjL7SqR3qcqO3823Mf0/ep8LY7uWIW1CoZFpBSJsXM5/xmQ9IsfAqUXxZn8WO1ULi/0ZJqOm1WvRX5Jj+bXs/pMCsMjnaPsqHdWdUmzJP4k9Xzm763qFE+8YZDN9KwWb658VIXF0qqqynIhWV1WqkwP48VHbcvpvLrwiLZwTNVMpps+6+dWkVW13v95XU2htt1d8dvvH8S/3/3+Xpy/e//hp19/FD+/+/GnE/H29P2pnsBZvmrLB0+VaCKLRRrnhXQ0vc3jYCiKEjEVXjrMi5cgGmkoLs+90nmSmb2WuNJfXBKZTZNITLwklWdh7GVNTy35O/mlfPLaVfGa1slcX6I9sV0cwjrhz1/h55p/+gJ28ZtM9YXqV/n1KHCAAxzgAAc4wAEOcIADHOBsPc7zH7gookT6oAENaEADGtCABjSgAQ1oQAOacppnPwlUNOonfsABDnCAAxzgAAc4wAEOcIADnK/YJPGDvJ3IxMumiRTNsx20Sfym2iT+y1MR91YW/3l1exXIKBPqkqm+h9Kf5ue/Lfa7Z9vRAnF/C1og7m+sBWJx42nVFkxMOj0mnT0mnT6TzoBJZ59J54BJ55BJZ6W3gJUQV0Q7XCHtcMW0wxXUDldUO1xh7XDFtcMV2A5XZLtcke2yrdVcke1yRbZrFNn6LftWpKo36bOQIc9Q9UZ8FjLkvK/ebM9Chpzz1RvqWciQ892iaZ6NDlMc02nMohWejQ5TKNM5zKLBnY0OUzTTCcyibZ3NOsgUz3T2smhGZ6PDFM906qreYm5FxqKpnI0OeXosGsfZ6JDT3aI5nI0OOd0tGsDZ6JDT3abJm5UQV0TTGcymdZuVEFdQ00nMpiGblRBXXNN5zKbNmtXKyBXZdCqzaZ5mJcQV2XQ2Q0u0rWiJhmEMYxjDGMYwhjGMYQxjGMMYxjCGMYzhb2l41onvZJIEvvzFUx9UOZ0uWuI/ORK0xH/c0BLfaENLfLTEN9jQEv/PG1ri/3lDS3zDDS3x0RL/ixta4gMHOMABDnCAAxzgAAc4wAEOcLahoSRoQAMa0IAGNKABDWhAAxrQbA/NX6aRJXCAAxzgAAc4wAEOcIADHOBU9/sKLfHfBLcySoM4CmWaoiH+t9UQP04+idPr62AYyGg4e2yDv9kG+It3/2nk6f8v/z7/76P64i+P/7mK/Zn67zi7Df/x//4/KrstXw=="
               },
               {
                  "name" : "annual_peak_electric_demand",
                  "units" : "kW",
                  "value" : 75.829940000000008
               },
               {
                  "name" : "first_year_capital_cost",
                  "units" : "$",
                  "value" : 0
               },
               {
                  "name" : "annual_utility_cost",
                  "units" : "$",
                  "value" : 26260.460000000003
               },
               {
                  "name" : "total_lifecycle_cost",
                  "units" : "$",
                  "value" : 442780.97999999998
               }
            ],
            "step_warnings" : []
         }
      }
   ],
   "updated_at" : "20170710T182646Z",
   "weather_file" : "USA_CO_Denver.Intl.AP.725650_TMY3.epw"
}
