{
   "completed_at" : "20170710T192103Z",
   "completed_status" : "Success",
   "created_at" : "2017-07-10 19:13:29 +0000",
   "current_step" : 5,
   "description" : "",
   "eplusout_err" : "Program Version,EnergyPlus, Version 8.7.0-78a111df4a, YMD=2017.07.10 19:16,IDD_Version 8.7.0\n   ************* IDF Context for following error/warning message:\n   ************* Note -- lines truncated at 300 characters, if necessary...\n   *************      5 Building,\n   ************* indicated Name=NECB 2011-LargeHotel-NECB HDD Method-CAN_BC_Abbotsford.711080_CWEC.epw created: 2017-07-10 19:13:36 +0000\n   ************* Only last 1 lines before error line shown.....\n   *************      6   NECB 2011-LargeHotel-NECB HDD Method-CAN_BC_Abbotsford.711080_CWEC.epw created: 2017-07-10 19:13:36 +0000, !- Name\n   ** Warning ** IP: IDF line~6 Alpha Argument length exceeds maximum, will be truncated=  NECB 2011-LargeHotel-NECB HDD Method-CAN_BC_Abbotsford.711080_CWEC.epw created: 2017-07-10 19:13:36 +000\n   **   ~~~   ** Will be processed as Alpha=NECB 2011-LARGEHOTEL-NECB HDD METHOD-CAN_BC_ABBOTSFORD.711080_CWEC.EPW CREATED: 2017-07-10 19:13:36 +0000\n   ************* Beginning Zone Sizing Calculations\n   ** Warning ** ProcessScheduleInput: Schedule:Day:Interval=\"ECONOMIZER MAX OA FRACTION 100 PCT DEFAULT\", Blank Schedule Type Limits Name input -- will not be validated.\n   ** Warning ** ProcessScheduleInput: Schedule:Day:Interval=\"SCHEDULE DAY 1\", Blank Schedule Type Limits Name input -- will not be validated.\n   ** Warning ** ProcessScheduleInput: Schedule:Day:Interval=\"SCHEDULE DAY 10\", Blank Schedule Type Limits Name input -- will not be validated.\n   ** Warning ** ProcessScheduleInput: Schedule:Day:Interval=\"SCHEDULE DAY 11\", Blank Schedule Type Limits Name input -- will not be validated.\n   ** Warning ** ProcessScheduleInput: Schedule:Day:Interval=\"SCHEDULE DAY 12\", Blank Schedule Type Limits Name input -- will not be validated.\n   ** Warning ** ProcessScheduleInput: Schedule:Day:Interval=\"SCHEDULE DAY 13\", Blank Schedule Type Limits Name input -- will not be validated.\n   ** Warning ** ProcessScheduleInput: Schedule:Day:Interval=\"SCHEDULE DAY 14\", Blank Schedule Type Limits Name input -- will not be validated.\n   ** Warning ** ProcessScheduleInput: Schedule:Day:Interval=\"SCHEDULE DAY 15\", Blank Schedule Type Limits Name input -- will not be validated.\n   ** Warning ** ProcessScheduleInput: Schedule:Day:Interval=\"SCHEDULE DAY 16\", Blank Schedule Type Limits Name input -- will not be validated.\n   ** Warning ** ProcessScheduleInput: Schedule:Day:Interval=\"SCHEDULE DAY 17\", Blank Schedule Type Limits Name input -- will not be validated.\n   ** Warning ** ProcessScheduleInput: Schedule:Day:Interval=\"SCHEDULE DAY 18\", Blank Schedule Type Limits Name input -- will not be validated.\n   ** Warning ** ProcessScheduleInput: Schedule:Day:Interval=\"SCHEDULE DAY 19\", Blank Schedule Type Limits Name input -- will not be validated.\n   ** Warning ** ProcessScheduleInput: Schedule:Day:Interval=\"SCHEDULE DAY 2\", Blank Schedule Type Limits Name input -- will not be validated.\n   ** Warning ** ProcessScheduleInput: Schedule:Day:Interval=\"SCHEDULE DAY 20\", Blank Schedule Type Limits Name input -- will not be validated.\n   ** Warning ** ProcessScheduleInput: Schedule:Day:Interval=\"SCHEDULE DAY 21\", Blank Schedule Type Limits Name input -- will not be validated.\n   ** Warning ** ProcessScheduleInput: Schedule:Day:Interval=\"SCHEDULE DAY 22\", Blank Schedule Type Limits Name input -- will not be validated.\n   ** Warning ** ProcessScheduleInput: Schedule:Day:Interval=\"SCHEDULE DAY 23\", Blank Schedule Type Limits Name input -- will not be validated.\n   ** Warning ** ProcessScheduleInput: Schedule:Day:Interval=\"SCHEDULE DAY 24\", Blank Schedule Type Limits Name input -- will not be validated.\n   ** Warning ** ProcessScheduleInput: Schedule:Day:Interval=\"SCHEDULE DAY 25\", Blank Schedule Type Limits Name input -- will not be validated.\n   ** Warning ** ProcessScheduleInput: Schedule:Day:Interval=\"SCHEDULE DAY 26\", Blank Schedule Type Limits Name input -- will not be validated.\n   ** Warning ** ProcessScheduleInput: Schedule:Day:Interval=\"SCHEDULE DAY 27\", Blank Schedule Type Limits Name input -- will not be validated.\n   ** Warning ** ProcessScheduleInput: Schedule:Day:Interval=\"SCHEDULE DAY 28\", Blank Schedule Type Limits Name input -- will not be validated.\n   ** Warning ** ProcessScheduleInput: Schedule:Day:Interval=\"SCHEDULE DAY 29\", Blank Schedule Type Limits Name input -- will not be validated.\n   ** Warning ** ProcessScheduleInput: Schedule:Day:Interval=\"SCHEDULE DAY 30\", Blank Schedule Type Limits Name input -- will not be validated.\n   ** Warning ** ProcessScheduleInput: Schedule:Day:Interval=\"SCHEDULE DAY 31\", Blank Schedule Type Limits Name input -- will not be validated.\n   ** Warning ** ProcessScheduleInput: Schedule:Day:Interval=\"SCHEDULE DAY 32\", Blank Schedule Type Limits Name input -- will not be validated.\n   ** Warning ** ProcessScheduleInput: Schedule:Day:Interval=\"SCHEDULE DAY 33\", Blank Schedule Type Limits Name input -- will not be validated.\n   ** Warning ** ProcessScheduleInput: Schedule:Day:Interval=\"SCHEDULE DAY 34\", Blank Schedule Type Limits Name input -- will not be validated.\n   ** Warning ** ProcessScheduleInput: Schedule:Day:Interval=\"SCHEDULE DAY 35\", Blank Schedule Type Limits Name input -- will not be validated.\n   ** Warning ** ProcessScheduleInput: Schedule:Day:Interval=\"SCHEDULE DAY 36\", Blank Schedule Type Limits Name input -- will not be validated.\n   ** Warning ** ProcessScheduleInput: Schedule:Day:Interval=\"SCHEDULE DAY 37\", Blank Schedule Type Limits Name input -- will not be validated.\n   ** Warning ** ProcessScheduleInput: Schedule:Day:Interval=\"SCHEDULE DAY 38\", Blank Schedule Type Limits Name input -- will not be validated.\n   ** Warning ** ProcessScheduleInput: Schedule:Day:Interval=\"SCHEDULE DAY 39\", Blank Schedule Type Limits Name input -- will not be validated.\n   ** Warning ** ProcessScheduleInput: Schedule:Day:Interval=\"SCHEDULE DAY 40\", Blank Schedule Type Limits Name input -- will not be validated.\n   ** Warning ** ProcessScheduleInput: Schedule:Day:Interval=\"SCHEDULE DAY 41\", Blank Schedule Type Limits Name input -- will not be validated.\n   ** Warning ** ProcessScheduleInput: Schedule:Day:Interval=\"SCHEDULE DAY 42\", Blank Schedule Type Limits Name input -- will not be validated.\n   ** Warning ** ProcessScheduleInput: Schedule:Day:Interval=\"SCHEDULE DAY 43\", Blank Schedule Type Limits Name input -- will not be validated.\n   ** Warning ** ProcessScheduleInput: Schedule:Day:Interval=\"SCHEDULE DAY 44\", Blank Schedule Type Limits Name input -- will not be validated.\n   ** Warning ** ProcessScheduleInput: Schedule:Day:Interval=\"SCHEDULE DAY 45\", Blank Schedule Type Limits Name input -- will not be validated.\n   ** Warning ** ProcessScheduleInput: Schedule:Day:Interval=\"SCHEDULE DAY 46\", Blank Schedule Type Limits Name input -- will not be validated.\n   ** Warning ** ProcessScheduleInput: Schedule:Day:Interval=\"SCHEDULE DAY 47\", Blank Schedule Type Limits Name input -- will not be validated.\n   ** Warning ** ProcessScheduleInput: Schedule:Day:Interval=\"SCHEDULE DAY 48\", Blank Schedule Type Limits Name input -- will not be validated.\n   ** Warning ** ProcessScheduleInput: Schedule:Day:Interval=\"SCHEDULE DAY 49\", Blank Schedule Type Limits Name input -- will not be validated.\n   ** Warning ** ProcessScheduleInput: Schedule:Day:Interval=\"SCHEDULE DAY 50\", Blank Schedule Type Limits Name input -- will not be validated.\n   ** Warning ** ProcessScheduleInput: Schedule:Day:Interval=\"SCHEDULE DAY 51\", Blank Schedule Type Limits Name input -- will not be validated.\n   ** Warning ** ProcessScheduleInput: Schedule:Day:Interval=\"SCHEDULE DAY 52\", Blank Schedule Type Limits Name input -- will not be validated.\n   ** Warning ** ProcessScheduleInput: Schedule:Day:Interval=\"SCHEDULE DAY 53\", Blank Schedule Type Limits Name input -- will not be validated.\n   ** Warning ** ProcessScheduleInput: Schedule:Day:Interval=\"SCHEDULE DAY 54\", Blank Schedule Type Limits Name input -- will not be validated.\n   ** Warning ** ProcessScheduleInput: Schedule:Day:Interval=\"SCHEDULE DAY 55\", Blank Schedule Type Limits Name input -- will not be validated.\n   ** Warning ** ProcessScheduleInput: Schedule:Day:Interval=\"SCHEDULE DAY 56\", Blank Schedule Type Limits Name input -- will not be validated.\n   ** Warning ** ProcessScheduleInput: Schedule:Day:Interval=\"SCHEDULE DAY 57\", Blank Schedule Type Limits Name input -- will not be validated.\n   ** Warning ** ProcessScheduleInput: Schedule:Day:Interval=\"SCHEDULE DAY 58\", Blank Schedule Type Limits Name input -- will not be validated.\n   ** Warning ** ProcessScheduleInput: Schedule:Day:Interval=\"SCHEDULE DAY 59\", Blank Schedule Type Limits Name input -- will not be validated.\n   ** Warning ** ProcessScheduleInput: Schedule:Day:Interval=\"SCHEDULE DAY 60\", Blank Schedule Type Limits Name input -- will not be validated.\n   ** Warning ** ProcessScheduleInput: Schedule:Day:Interval=\"SCHEDULE DAY 61\", Blank Schedule Type Limits Name input -- will not be validated.\n   ** Warning ** ProcessScheduleInput: Schedule:Day:Interval=\"SCHEDULE DAY 62\", Blank Schedule Type Limits Name input -- will not be validated.\n   ** Warning ** ProcessScheduleInput: Schedule:Day:Interval=\"SCHEDULE DAY 63\", Blank Schedule Type Limits Name input -- will not be validated.\n   ** Warning ** ProcessScheduleInput: Schedule:Day:Interval=\"SCHEDULE DAY 64\", Blank Schedule Type Limits Name input -- will not be validated.\n   ** Warning ** ProcessScheduleInput: Schedule:Day:Interval=\"SCHEDULE DAY 65\", Blank Schedule Type Limits Name input -- will not be validated.\n   ** Warning ** ProcessScheduleInput: Schedule:Day:Interval=\"SCHEDULE DAY 66\", Blank Schedule Type Limits Name input -- will not be validated.\n   ** Warning ** ProcessScheduleInput: Schedule:Day:Interval=\"SCHEDULE DAY 67\", Blank Schedule Type Limits Name input -- will not be validated.\n   ** Warning ** ProcessScheduleInput: Schedule:Day:Interval=\"SCHEDULE DAY 68\", Blank Schedule Type Limits Name input -- will not be validated.\n   ** Warning ** ProcessScheduleInput: Schedule:Day:Interval=\"SCHEDULE DAY 69\", Blank Schedule Type Limits Name input -- will not be validated.\n   ** Warning ** ProcessScheduleInput: Schedule:Day:Interval=\"SCHEDULE DAY 70\", Blank Schedule Type Limits Name input -- will not be validated.\n   ** Warning ** ProcessScheduleInput: Schedule:Day:Interval=\"SCHEDULE DAY 71\", Blank Schedule Type Limits Name input -- will not be validated.\n   ** Warning ** ProcessScheduleInput: Schedule:Day:Interval=\"SCHEDULE DAY 72\", Blank Schedule Type Limits Name input -- will not be validated.\n   ** Warning ** ProcessScheduleInput: Schedule:Day:Interval=\"SCHEDULE DAY 73\", Blank Schedule Type Limits Name input -- will not be validated.\n   ** Warning ** ProcessScheduleInput: Schedule:Day:Interval=\"SCHEDULE DAY 74\", Blank Schedule Type Limits Name input -- will not be validated.\n   ** Warning ** ProcessScheduleInput: Schedule:Day:Interval=\"SCHEDULE DAY 75\", Blank Schedule Type Limits Name input -- will not be validated.\n   ** Warning ** ProcessScheduleInput: Schedule:Day:Interval=\"SCHEDULE DAY 76\", Blank Schedule Type Limits Name input -- will not be validated.\n   ** Warning ** ProcessScheduleInput: Schedule:Day:Interval=\"SCHEDULE DAY 77\", Blank Schedule Type Limits Name input -- will not be validated.\n   ** Warning ** ProcessScheduleInput: Schedule:Day:Interval=\"SCHEDULE DAY 78\", Blank Schedule Type Limits Name input -- will not be validated.\n   ** Warning ** ProcessScheduleInput: Schedule:Day:Interval=\"SCHEDULE DAY 8\", Blank Schedule Type Limits Name input -- will not be validated.\n   ** Warning ** ProcessScheduleInput: Schedule:Day:Interval=\"SCHEDULE DAY 9\", Blank Schedule Type Limits Name input -- will not be validated.\n   ** Warning ** ProcessScheduleInput: Schedule:Year=\"ECONOMIZER MAX OA FRACTION 100 PCT\", Blank Schedule Type Limits Name input -- will not be validated.\n   ** Warning ** ProcessScheduleInput: Schedule:Year=\"SCHEDULE RULESET 10\", Blank Schedule Type Limits Name input -- will not be validated.\n   ** Warning ** ProcessScheduleInput: Schedule:Year=\"SCHEDULE RULESET 11\", Blank Schedule Type Limits Name input -- will not be validated.\n   ** Warning ** ProcessScheduleInput: Schedule:Year=\"SCHEDULE RULESET 12\", Blank Schedule Type Limits Name input -- will not be validated.\n   ** Warning ** ProcessScheduleInput: Schedule:Year=\"SCHEDULE RULESET 13\", Blank Schedule Type Limits Name input -- will not be validated.\n   ** Warning ** ProcessScheduleInput: Schedule:Year=\"SCHEDULE RULESET 14\", Blank Schedule Type Limits Name input -- will not be validated.\n   ** Warning ** ProcessScheduleInput: Schedule:Year=\"SCHEDULE RULESET 15\", Blank Schedule Type Limits Name input -- will not be validated.\n   ** Warning ** ProcessScheduleInput: Schedule:Year=\"SCHEDULE RULESET 16\", Blank Schedule Type Limits Name input -- will not be validated.\n   ** Warning ** ProcessScheduleInput: Schedule:Year=\"SCHEDULE RULESET 17\", Blank Schedule Type Limits Name input -- will not be validated.\n   ** Warning ** ProcessScheduleInput: Schedule:Year=\"SCHEDULE RULESET 18\", Blank Schedule Type Limits Name input -- will not be validated.\n   ** Warning ** ProcessScheduleInput: Schedule:Year=\"SCHEDULE RULESET 19\", Blank Schedule Type Limits Name input -- will not be validated.\n   ** Warning ** ProcessScheduleInput: Schedule:Year=\"SCHEDULE RULESET 20\", Blank Schedule Type Limits Name input -- will not be validated.\n   ** Warning ** ProcessScheduleInput: Schedule:Year=\"SCHEDULE RULESET 21\", Blank Schedule Type Limits Name input -- will not be validated.\n   ** Warning ** ProcessScheduleInput: Schedule:Year=\"SCHEDULE RULESET 22\", Blank Schedule Type Limits Name input -- will not be validated.\n   ** Warning ** ProcessScheduleInput: Schedule:Year=\"SCHEDULE RULESET 23\", Blank Schedule Type Limits Name input -- will not be validated.\n   ** Warning ** ProcessScheduleInput: Schedule:Year=\"SCHEDULE RULESET 24\", Blank Schedule Type Limits Name input -- will not be validated.\n   ** Warning ** ProcessScheduleInput: Schedule:Year=\"SCHEDULE RULESET 25\", Blank Schedule Type Limits Name input -- will not be validated.\n   ** Warning ** ProcessScheduleInput: Schedule:Year=\"SCHEDULE RULESET 26\", Blank Schedule Type Limits Name input -- will not be validated.\n   ** Warning ** ProcessScheduleInput: Schedule:Year=\"SCHEDULE RULESET 27\", Blank Schedule Type Limits Name input -- will not be validated.\n   ** Warning ** ProcessScheduleInput: Schedule:Year=\"SCHEDULE RULESET 28\", Blank Schedule Type Limits Name input -- will not be validated.\n   ** Warning ** ProcessScheduleInput: Schedule:Year=\"SCHEDULE RULESET 29\", Blank Schedule Type Limits Name input -- will not be validated.\n   ** Warning ** ProcessScheduleInput: Schedule:Year=\"SCHEDULE RULESET 3\", Blank Schedule Type Limits Name input -- will not be validated.\n   ** Warning ** ProcessScheduleInput: Schedule:Year=\"SCHEDULE RULESET 30\", Blank Schedule Type Limits Name input -- will not be validated.\n   ** Warning ** ProcessScheduleInput: Schedule:Year=\"SCHEDULE RULESET 31\", Blank Schedule Type Limits Name input -- will not be validated.\n   ** Warning ** ProcessScheduleInput: Schedule:Year=\"SCHEDULE RULESET 32\", Blank Schedule Type Limits Name input -- will not be validated.\n   ** Warning ** ProcessScheduleInput: Schedule:Year=\"SCHEDULE RULESET 33\", Blank Schedule Type Limits Name input -- will not be validated.\n   ** Warning ** ProcessScheduleInput: Schedule:Year=\"SCHEDULE RULESET 34\", Blank Schedule Type Limits Name input -- will not be validated.\n   ** Warning ** ProcessScheduleInput: Schedule:Year=\"SCHEDULE RULESET 35\", Blank Schedule Type Limits Name input -- will not be validated.\n   ** Warning ** ProcessScheduleInput: Schedule:Year=\"SCHEDULE RULESET 36\", Blank Schedule Type Limits Name input -- will not be validated.\n   ** Warning ** ProcessScheduleInput: Schedule:Year=\"SCHEDULE RULESET 37\", Blank Schedule Type Limits Name input -- will not be validated.\n   ** Warning ** ProcessScheduleInput: Schedule:Year=\"SCHEDULE RULESET 38\", Blank Schedule Type Limits Name input -- will not be validated.\n   ** Warning ** ProcessScheduleInput: Schedule:Year=\"SCHEDULE RULESET 39\", Blank Schedule Type Limits Name input -- will not be validated.\n   ** Warning ** ProcessScheduleInput: Schedule:Year=\"SCHEDULE RULESET 4\", Blank Schedule Type Limits Name input -- will not be validated.\n   ** Warning ** ProcessScheduleInput: Schedule:Year=\"SCHEDULE RULESET 40\", Blank Schedule Type Limits Name input -- will not be validated.\n   ** Warning ** ProcessScheduleInput: Schedule:Year=\"SCHEDULE RULESET 41\", Blank Schedule Type Limits Name input -- will not be validated.\n   ** Warning ** ProcessScheduleInput: Schedule:Year=\"SCHEDULE RULESET 42\", Blank Schedule Type Limits Name input -- will not be validated.\n   ** Warning ** ProcessScheduleInput: Schedule:Year=\"SCHEDULE RULESET 43\", Blank Schedule Type Limits Name input -- will not be validated.\n   ** Warning ** ProcessScheduleInput: Schedule:Year=\"SCHEDULE RULESET 44\", Blank Schedule Type Limits Name input -- will not be validated.\n   ** Warning ** ProcessScheduleInput: Schedule:Year=\"SCHEDULE RULESET 45\", Blank Schedule Type Limits Name input -- will not be validated.\n   ** Warning ** ProcessScheduleInput: Schedule:Year=\"SCHEDULE RULESET 46\", Blank Schedule Type Limits Name input -- will not be validated.\n   ** Warning ** ProcessScheduleInput: Schedule:Year=\"SCHEDULE RULESET 47\", Blank Schedule Type Limits Name input -- will not be validated.\n   ** Warning ** ProcessScheduleInput: Schedule:Year=\"SCHEDULE RULESET 48\", Blank Schedule Type Limits Name input -- will not be validated.\n   ** Warning ** ProcessScheduleInput: Schedule:Year=\"SCHEDULE RULESET 49\", Blank Schedule Type Limits Name input -- will not be validated.\n   ** Warning ** ProcessScheduleInput: Schedule:Year=\"SCHEDULE RULESET 5\", Blank Schedule Type Limits Name input -- will not be validated.\n   ** Warning ** ProcessScheduleInput: Schedule:Year=\"SCHEDULE RULESET 50\", Blank Schedule Type Limits Name input -- will not be validated.\n   ** Warning ** ProcessScheduleInput: Schedule:Year=\"SCHEDULE RULESET 51\", Blank Schedule Type Limits Name input -- will not be validated.\n   ** Warning ** ProcessScheduleInput: Schedule:Year=\"SCHEDULE RULESET 52\", Blank Schedule Type Limits Name input -- will not be validated.\n   ** Warning ** ProcessScheduleInput: Schedule:Year=\"SCHEDULE RULESET 53\", Blank Schedule Type Limits Name input -- will not be validated.\n   ** Warning ** ProcessScheduleInput: Schedule:Year=\"SCHEDULE RULESET 54\", Blank Schedule Type Limits Name input -- will not be validated.\n   ** Warning ** ProcessScheduleInput: Schedule:Year=\"SCHEDULE RULESET 55\", Blank Schedule Type Limits Name input -- will not be validated.\n   ** Warning ** ProcessScheduleInput: Schedule:Year=\"SCHEDULE RULESET 56\", Blank Schedule Type Limits Name input -- will not be validated.\n   ** Warning ** ProcessScheduleInput: Schedule:Year=\"SCHEDULE RULESET 57\", Blank Schedule Type Limits Name input -- will not be validated.\n   ** Warning ** ProcessScheduleInput: Schedule:Year=\"SCHEDULE RULESET 58\", Blank Schedule Type Limits Name input -- will not be validated.\n   ** Warning ** ProcessScheduleInput: Schedule:Year=\"SCHEDULE RULESET 59\", Blank Schedule Type Limits Name input -- will not be validated.\n   ** Warning ** ProcessScheduleInput: Schedule:Year=\"SCHEDULE RULESET 6\", Blank Schedule Type Limits Name input -- will not be validated.\n   ** Warning ** ProcessScheduleInput: Schedule:Year=\"SCHEDULE RULESET 7\", Blank Schedule Type Limits Name input -- will not be validated.\n   ** Warning ** ProcessScheduleInput: Schedule:Year=\"SCHEDULE RULESET 8\", Blank Schedule Type Limits Name input -- will not be validated.\n   ** Warning ** ProcessScheduleInput: Schedule:Year=\"SCHEDULE RULESET 9\", Blank Schedule Type Limits Name input -- will not be validated.\n   ** Warning ** ProcessScheduleInput: Schedule:Constant=\"ALWAYS OFF DISCRETE\", Blank Schedule Type Limits Name input -- will not be validated.\n   ** Warning ** ProcessScheduleInput: Schedule:Constant=\"ALWAYS ON CONTINUOUS\", Blank Schedule Type Limits Name input -- will not be validated.\n   ** Warning ** CheckUsedConstructions: There are 23 nominally unused constructions in input.\n   **   ~~~   ** For explicit details on each unused construction, use Output:Diagnostics,DisplayExtraWarnings;\n   ** Warning ** GetInternalHeatGains: ElectricEquipment Combination of ZoneList and Object Name generate a name too long.\n   **   ~~~   ** Object Name=\"SPACE FUNCTION HOSPITAL - LAUNDRY/WASHING ELEC EQUIP\".\n   **   ~~~   ** ZoneList/Zone Name=\"SP-LAUNDRY_FLR_1 SYS-3 FLR-1 SCH-C HPLCMT-EAST ZN\".\n   **   ~~~   ** Item length=[101] > Maximum Length=[100]. You may need to shorten the names.\n   **   ~~~   ** Shortening the Object Name by [2] characters will assure uniqueness for this ZoneList.\n   **   ~~~   ** name that will be used (may be needed in reporting)=\"SP-LAUNDRY_FLR_1 SYS-3 FLR-1 SCH-C HPLCMT-EAST ZN SPACE FUNCTION HOSPITAL - LAUNDRY/WASHING ELEC EQUIP\".\n   ** Warning ** GetInternalHeatGains: ElectricEquipment Combination of ZoneList and Object Name generate a name too long.\n   **   ~~~   ** Object Name=\"SPACE FUNCTION HOTEL/MOTEL - ROOMS ELEC EQUIP\".\n   **   ~~~   ** ZoneList/Zone Name=\"SP-ROOM_3_MULT19_FLR_3 SYS-1 FLR-2 SCH-F HPLCMT-SOUTH ZN\".\n   **   ~~~   ** Item length=[101] > Maximum Length=[100]. You may need to shorten the names.\n   **   ~~~   ** Shortening the Object Name by [2] characters will assure uniqueness for this ZoneList.\n   **   ~~~   ** name that will be used (may be needed in reporting)=\"SP-ROOM_3_MULT19_FLR_3 SYS-1 FLR-2 SCH-F HPLCMT-SOUTH ZN SPACE FUNCTION HOTEL/MOTEL - ROOMS ELEC EQUIP\".\n   ** Warning ** GetInternalHeatGains: ElectricEquipment Combination of ZoneList and Object Name generate a name too long.\n   **   ~~~   ** Object Name=\"SPACE FUNCTION HOTEL/MOTEL - ROOMS ELEC EQUIP\".\n   **   ~~~   ** ZoneList/Zone Name=\"SP-ROOM_4_MULT19_FLR_3 SYS-1 FLR-2 SCH-F HPLCMT-NORTH ZN\".\n   **   ~~~   ** Item length=[101] > Maximum Length=[100]. You may need to shorten the names.\n   **   ~~~   ** Shortening the Object Name by [2] characters will assure uniqueness for this ZoneList.\n   **   ~~~   ** name that will be used (may be needed in reporting)=\"SP-ROOM_4_MULT19_FLR_3 SYS-1 FLR-2 SCH-F HPLCMT-NORTH ZN SPACE FUNCTION HOTEL/MOTEL - ROOMS ELEC EQUIP\".\n   ** Warning ** Calculated design heating load for zone=SP-BASEMENT SYS-4 FLR-3 SCH-E HPLCMT-NORTH ZN is zero.\n   **   ~~~   ** Check Sizing:Zone and ZoneControl:Thermostat inputs.\n   ** Warning ** Calculated design heating load for zone=SP-LOBBY_FLR_1 SYS-6 FLR-1 SCH-H HPLCMT-NORTH ZN is zero.\n   **   ~~~   ** Check Sizing:Zone and ZoneControl:Thermostat inputs.\n   ** Warning ** Calculated design heating load for zone=SP-MECH_FLR_1 SYS-6 FLR-1 SCH-E HPLCMT-NORTH ZN is zero.\n   **   ~~~   ** Check Sizing:Zone and ZoneControl:Thermostat inputs.\n   ** Warning ** Calculated design heating load for zone=SP-STORAGE_FLR_1 SYS-4 FLR-1 SCH-E HPLCMT-NORTH ZN is zero.\n   **   ~~~   ** Check Sizing:Zone and ZoneControl:Thermostat inputs.\n   ************* Beginning System Sizing Calculations\n   ** Warning ** Since Zone Minimum Air Flow Input Method = CONSTANT, input for Fixed Minimum Air Flow Rate will be ignored.\n   **   ~~~   ** Occurs in AirTerminal:SingleDuct:VAV:Reheat = AIR TERMINAL SINGLE DUCT VAV REHEAT 2\n   ** Warning ** Since Zone Minimum Air Flow Input Method = CONSTANT, input for Fixed Minimum Air Flow Rate will be ignored.\n   **   ~~~   ** Occurs in AirTerminal:SingleDuct:VAV:Reheat = AIR TERMINAL SINGLE DUCT VAV REHEAT 4\n   ** Warning ** Since Zone Minimum Air Flow Input Method = CONSTANT, input for Fixed Minimum Air Flow Rate will be ignored.\n   **   ~~~   ** Occurs in AirTerminal:SingleDuct:VAV:Reheat = AIR TERMINAL SINGLE DUCT VAV REHEAT 5\n   ** Warning ** Since Zone Minimum Air Flow Input Method = CONSTANT, input for Fixed Minimum Air Flow Rate will be ignored.\n   **   ~~~   ** Occurs in AirTerminal:SingleDuct:VAV:Reheat = AIR TERMINAL SINGLE DUCT VAV REHEAT 3\n   ** Warning ** Since Zone Minimum Air Flow Input Method = CONSTANT, input for Fixed Minimum Air Flow Rate will be ignored.\n   **   ~~~   ** Occurs in AirTerminal:SingleDuct:VAV:Reheat = AIR TERMINAL SINGLE DUCT VAV REHEAT 1\n   ** Warning ** GetDXCoils: Coil:Cooling:DX:SingleSpeed=\"COIL COOLING DX SINGLE SPEED 8 43KBTU/HR 9.3EER\", invalid\n   **   ~~~   ** ...Part Load Fraction Correlation Curve Name = DXCOOL-NECB2011-REF-COOLPLFFPLR 16 has out of range value.\n   **   ~~~   ** ...Curve maximum must be <= 1.0, curve max at PLR = 0.99 is 1.015\n   **   ~~~   ** ...Setting curve maximum to 1.0 and simulation continues.\n   ** Warning ** GetDXCoils: Coil:Cooling:DX:SingleSpeed=\"COIL COOLING DX SINGLE SPEED 5 16KBTU/HR 9.3EER\", invalid\n   **   ~~~   ** ...Part Load Fraction Correlation Curve Name = DXCOOL-NECB2011-REF-COOLPLFFPLR 13 has out of range value.\n   **   ~~~   ** ...Curve maximum must be <= 1.0, curve max at PLR = 0.99 is 1.015\n   **   ~~~   ** ...Setting curve maximum to 1.0 and simulation continues.\n   ** Warning ** GetDXCoils: Coil:Cooling:DX:SingleSpeed=\"COIL COOLING DX SINGLE SPEED 9 19KBTU/HR 9.3EER\", invalid\n   **   ~~~   ** ...Part Load Fraction Correlation Curve Name = DXCOOL-NECB2011-REF-COOLPLFFPLR 17 has out of range value.\n   **   ~~~   ** ...Curve maximum must be <= 1.0, curve max at PLR = 0.99 is 1.015\n   **   ~~~   ** ...Setting curve maximum to 1.0 and simulation continues.\n   ** Warning ** GetDXCoils: Coil:Cooling:DX:SingleSpeed=\"COIL COOLING DX SINGLE SPEED 6 16KBTU/HR 9.3EER\", invalid\n   **   ~~~   ** ...Part Load Fraction Correlation Curve Name = DXCOOL-NECB2011-REF-COOLPLFFPLR 14 has out of range value.\n   **   ~~~   ** ...Curve maximum must be <= 1.0, curve max at PLR = 0.99 is 1.015\n   **   ~~~   ** ...Setting curve maximum to 1.0 and simulation continues.\n   ** Warning ** GetDXCoils: Coil:Cooling:DX:SingleSpeed=\"COIL COOLING DX SINGLE SPEED 10 19KBTU/HR 9.3EER\", invalid\n   **   ~~~   ** ...Part Load Fraction Correlation Curve Name = DXCOOL-NECB2011-REF-COOLPLFFPLR 1 has out of range value.\n   **   ~~~   ** ...Curve maximum must be <= 1.0, curve max at PLR = 0.99 is 1.015\n   **   ~~~   ** ...Setting curve maximum to 1.0 and simulation continues.\n   ** Warning ** GetDXCoils: Coil:Cooling:DX:SingleSpeed=\"COIL COOLING DX SINGLE SPEED 7 4KBTU/HR 11.0EER\", invalid\n   **   ~~~   ** ...Part Load Fraction Correlation Curve Name = DXCOOL-NECB2011-REF-COOLPLFFPLR 15 has out of range value.\n   **   ~~~   ** ...Curve maximum must be <= 1.0, curve max at PLR = 0.99 is 1.015\n   **   ~~~   ** ...Setting curve maximum to 1.0 and simulation continues.\n   ** Warning ** GetDXCoils: Coil:Cooling:DX:SingleSpeed=\"COIL COOLING DX SINGLE SPEED 11 8KBTU/HR 10.7EER\", invalid\n   **   ~~~   ** ...Part Load Fraction Correlation Curve Name = DXCOOL-NECB2011-REF-COOLPLFFPLR 2 has out of range value.\n   **   ~~~   ** ...Curve maximum must be <= 1.0, curve max at PLR = 0.99 is 1.015\n   **   ~~~   ** ...Setting curve maximum to 1.0 and simulation continues.\n   ** Warning ** GetDXCoils: Coil:Cooling:DX:SingleSpeed=\"COIL COOLING DX SINGLE SPEED 2 2KBTU/HR 11.0EER\", invalid\n   **   ~~~   ** ...Part Load Fraction Correlation Curve Name = DXCOOL-NECB2011-REF-COOLPLFFPLR 10 has out of range value.\n   **   ~~~   ** ...Curve maximum must be <= 1.0, curve max at PLR = 0.99 is 1.015\n   **   ~~~   ** ...Setting curve maximum to 1.0 and simulation continues.\n   ** Warning ** GetDXCoils: Coil:Cooling:DX:SingleSpeed=\"COIL COOLING DX SINGLE SPEED 4 16KBTU/HR 9.3EER\", invalid\n   **   ~~~   ** ...Part Load Fraction Correlation Curve Name = DXCOOL-NECB2011-REF-COOLPLFFPLR 12 has out of range value.\n   **   ~~~   ** ...Curve maximum must be <= 1.0, curve max at PLR = 0.99 is 1.015\n   **   ~~~   ** ...Setting curve maximum to 1.0 and simulation continues.\n   ** Warning ** GetDXCoils: Coil:Cooling:DX:SingleSpeed=\"COIL COOLING DX SINGLE SPEED 3 15KBTU/HR 9.3EER\", invalid\n   **   ~~~   ** ...Part Load Fraction Correlation Curve Name = DXCOOL-NECB2011-REF-COOLPLFFPLR 11 has out of range value.\n   **   ~~~   ** ...Curve maximum must be <= 1.0, curve max at PLR = 0.99 is 1.015\n   **   ~~~   ** ...Setting curve maximum to 1.0 and simulation continues.\n   ** Warning ** GetDXCoils: Coil:Cooling:DX:SingleSpeed=\"COIL COOLING DX SINGLE SPEED 1 222KBTU/HR 9.7EER\", invalid\n   **   ~~~   ** ...Part Load Fraction Correlation Curve Name = DXCOOL-NECB2011-REF-COOLPLFFPLR has out of range value.\n   **   ~~~   ** ...Curve maximum must be <= 1.0, curve max at PLR = 0.99 is 1.015\n   **   ~~~   ** ...Setting curve maximum to 1.0 and simulation continues.\n   ** Warning ** GetDXCoils: Coil:Cooling:DX:SingleSpeed=\"COIL COOLING DX SINGLE SPEED 14 93KBTU/HR 9.7EER\", invalid\n   **   ~~~   ** ...Part Load Fraction Correlation Curve Name = DXCOOL-NECB2011-REF-COOLPLFFPLR 5 has out of range value.\n   **   ~~~   ** ...Curve maximum must be <= 1.0, curve max at PLR = 0.99 is 1.015\n   **   ~~~   ** ...Setting curve maximum to 1.0 and simulation continues.\n   ** Warning ** GetDXCoils: Coil:Cooling:DX:SingleSpeed=\"COIL COOLING DX SINGLE SPEED 18 79KBTU/HR 9.7EER\", invalid\n   **   ~~~   ** ...Part Load Fraction Correlation Curve Name = DXCOOL-NECB2011-REF-COOLPLFFPLR 9 has out of range value.\n   **   ~~~   ** ...Curve maximum must be <= 1.0, curve max at PLR = 0.99 is 1.015\n   **   ~~~   ** ...Setting curve maximum to 1.0 and simulation continues.\n   ** Warning ** GetDXCoils: Coil:Cooling:DX:SingleSpeed=\"COIL COOLING DX SINGLE SPEED 13 57KBTU/HR 14.0SEER\", invalid\n   **   ~~~   ** ...Part Load Fraction Correlation Curve Name = DXCOOL-NECB2011-REF-COOLPLFFPLR 4 has out of range value.\n   **   ~~~   ** ...Curve maximum must be <= 1.0, curve max at PLR = 0.99 is 1.015\n   **   ~~~   ** ...Setting curve maximum to 1.0 and simulation continues.\n   ** Warning ** GetDXCoils: Coil:Cooling:DX:SingleSpeed=\"COIL COOLING DX SINGLE SPEED 15 93KBTU/HR 9.7EER\", invalid\n   **   ~~~   ** ...Part Load Fraction Correlation Curve Name = DXCOOL-NECB2011-REF-COOLPLFFPLR 6 has out of range value.\n   **   ~~~   ** ...Curve maximum must be <= 1.0, curve max at PLR = 0.99 is 1.015\n   **   ~~~   ** ...Setting curve maximum to 1.0 and simulation continues.\n   ** Warning ** GetDXCoils: Coil:Cooling:DX:SingleSpeed=\"COIL COOLING DX SINGLE SPEED 16 54KBTU/HR 14.0SEER\", invalid\n   **   ~~~   ** ...Part Load Fraction Correlation Curve Name = DXCOOL-NECB2011-REF-COOLPLFFPLR 7 has out of range value.\n   **   ~~~   ** ...Curve maximum must be <= 1.0, curve max at PLR = 0.99 is 1.015\n   **   ~~~   ** ...Setting curve maximum to 1.0 and simulation continues.\n   ** Warning ** GetDXCoils: Coil:Cooling:DX:SingleSpeed=\"COIL COOLING DX SINGLE SPEED 12 16KBTU/HR 14.0SEER\", invalid\n   **   ~~~   ** ...Part Load Fraction Correlation Curve Name = DXCOOL-NECB2011-REF-COOLPLFFPLR 3 has out of range value.\n   **   ~~~   ** ...Curve maximum must be <= 1.0, curve max at PLR = 0.99 is 1.015\n   **   ~~~   ** ...Setting curve maximum to 1.0 and simulation continues.\n   ** Warning ** GetDXCoils: Coil:Cooling:DX:SingleSpeed=\"COIL COOLING DX SINGLE SPEED 17 6KBTU/HR 14.0SEER\", invalid\n   **   ~~~   ** ...Part Load Fraction Correlation Curve Name = DXCOOL-NECB2011-REF-COOLPLFFPLR 8 has out of range value.\n   **   ~~~   ** ...Curve maximum must be <= 1.0, curve max at PLR = 0.99 is 1.015\n   **   ~~~   ** ...Setting curve maximum to 1.0 and simulation continues.\n   ************* Beginning Plant Sizing Calculations\n   ** Warning ** The Standard Ratings is calculated for Coil:Cooling:DX:SingleSpeed = COIL COOLING DX SINGLE SPEED 8 43KBTU/HR 9.3EER but not at the AHRI test condition due to curve out of bound.\n   **   ~~~   **  Review the Standard Ratings calculations in the Engineering Reference for this coil type. Also, use Output:Diagnostics, DisplayExtraWarnings for further guidance.\n   ** Warning ** The Standard Ratings is calculated for Coil:Cooling:DX:SingleSpeed = COIL COOLING DX SINGLE SPEED 5 16KBTU/HR 9.3EER but not at the AHRI test condition due to curve out of bound.\n   **   ~~~   **  Review the Standard Ratings calculations in the Engineering Reference for this coil type. Also, use Output:Diagnostics, DisplayExtraWarnings for further guidance.\n   ** Warning ** The Standard Ratings is calculated for Coil:Cooling:DX:SingleSpeed = COIL COOLING DX SINGLE SPEED 9 19KBTU/HR 9.3EER but not at the AHRI test condition due to curve out of bound.\n   **   ~~~   **  Review the Standard Ratings calculations in the Engineering Reference for this coil type. Also, use Output:Diagnostics, DisplayExtraWarnings for further guidance.\n   ** Warning ** The Standard Ratings is calculated for Coil:Cooling:DX:SingleSpeed = COIL COOLING DX SINGLE SPEED 6 16KBTU/HR 9.3EER but not at the AHRI test condition due to curve out of bound.\n   **   ~~~   **  Review the Standard Ratings calculations in the Engineering Reference for this coil type. Also, use Output:Diagnostics, DisplayExtraWarnings for further guidance.\n   ** Warning ** The Standard Ratings is calculated for Coil:Cooling:DX:SingleSpeed = COIL COOLING DX SINGLE SPEED 10 19KBTU/HR 9.3EER but not at the AHRI test condition due to curve out of bound.\n   **   ~~~   **  Review the Standard Ratings calculations in the Engineering Reference for this coil type. Also, use Output:Diagnostics, DisplayExtraWarnings for further guidance.\n   ** Warning ** The Standard Ratings is calculated for Coil:Cooling:DX:SingleSpeed = COIL COOLING DX SINGLE SPEED 7 4KBTU/HR 11.0EER but not at the AHRI test condition due to curve out of bound.\n   **   ~~~   **  Review the Standard Ratings calculations in the Engineering Reference for this coil type. Also, use Output:Diagnostics, DisplayExtraWarnings for further guidance.\n   ** Warning ** The Standard Ratings is calculated for Coil:Cooling:DX:SingleSpeed = COIL COOLING DX SINGLE SPEED 11 8KBTU/HR 10.7EER but not at the AHRI test condition due to curve out of bound.\n   **   ~~~   **  Review the Standard Ratings calculations in the Engineering Reference for this coil type. Also, use Output:Diagnostics, DisplayExtraWarnings for further guidance.\n   ** Warning ** The Standard Ratings is calculated for Coil:Cooling:DX:SingleSpeed = COIL COOLING DX SINGLE SPEED 2 2KBTU/HR 11.0EER but not at the AHRI test condition due to curve out of bound.\n   **   ~~~   **  Review the Standard Ratings calculations in the Engineering Reference for this coil type. Also, use Output:Diagnostics, DisplayExtraWarnings for further guidance.\n   ** Warning ** The Standard Ratings is calculated for Coil:Cooling:DX:SingleSpeed = COIL COOLING DX SINGLE SPEED 4 16KBTU/HR 9.3EER but not at the AHRI test condition due to curve out of bound.\n   **   ~~~   **  Review the Standard Ratings calculations in the Engineering Reference for this coil type. Also, use Output:Diagnostics, DisplayExtraWarnings for further guidance.\n   ** Warning ** The Standard Ratings is calculated for Coil:Cooling:DX:SingleSpeed = COIL COOLING DX SINGLE SPEED 3 15KBTU/HR 9.3EER but not at the AHRI test condition due to curve out of bound.\n   **   ~~~   **  Review the Standard Ratings calculations in the Engineering Reference for this coil type. Also, use Output:Diagnostics, DisplayExtraWarnings for further guidance.\n   ** Warning ** The Standard Ratings is calculated for Coil:Cooling:DX:SingleSpeed = COIL COOLING DX SINGLE SPEED 1 222KBTU/HR 9.7EER but not at the AHRI test condition due to curve out of bound.\n   **   ~~~   **  Review the Standard Ratings calculations in the Engineering Reference for this coil type. Also, use Output:Diagnostics, DisplayExtraWarnings for further guidance.\n   ** Warning ** The Standard Ratings is calculated for Coil:Cooling:DX:SingleSpeed = COIL COOLING DX SINGLE SPEED 14 93KBTU/HR 9.7EER but not at the AHRI test condition due to curve out of bound.\n   **   ~~~   **  Review the Standard Ratings calculations in the Engineering Reference for this coil type. Also, use Output:Diagnostics, DisplayExtraWarnings for further guidance.\n   ** Warning ** The Standard Ratings is calculated for Coil:Cooling:DX:SingleSpeed = COIL COOLING DX SINGLE SPEED 18 79KBTU/HR 9.7EER but not at the AHRI test condition due to curve out of bound.\n   **   ~~~   **  Review the Standard Ratings calculations in the Engineering Reference for this coil type. Also, use Output:Diagnostics, DisplayExtraWarnings for further guidance.\n   ** Warning ** The Standard Ratings is calculated for Coil:Cooling:DX:SingleSpeed = COIL COOLING DX SINGLE SPEED 13 57KBTU/HR 14.0SEER but not at the AHRI test condition due to curve out of bound.\n   **   ~~~   **  Review the Standard Ratings calculations in the Engineering Reference for this coil type. Also, use Output:Diagnostics, DisplayExtraWarnings for further guidance.\n   ** Warning ** The Standard Ratings is calculated for Coil:Cooling:DX:SingleSpeed = COIL COOLING DX SINGLE SPEED 15 93KBTU/HR 9.7EER but not at the AHRI test condition due to curve out of bound.\n   **   ~~~   **  Review the Standard Ratings calculations in the Engineering Reference for this coil type. Also, use Output:Diagnostics, DisplayExtraWarnings for further guidance.\n   ** Warning ** The Standard Ratings is calculated for Coil:Cooling:DX:SingleSpeed = COIL COOLING DX SINGLE SPEED 16 54KBTU/HR 14.0SEER but not at the AHRI test condition due to curve out of bound.\n   **   ~~~   **  Review the Standard Ratings calculations in the Engineering Reference for this coil type. Also, use Output:Diagnostics, DisplayExtraWarnings for further guidance.\n   ** Warning ** The Standard Ratings is calculated for Coil:Cooling:DX:SingleSpeed = COIL COOLING DX SINGLE SPEED 12 16KBTU/HR 14.0SEER but not at the AHRI test condition due to curve out of bound.\n   **   ~~~   **  Review the Standard Ratings calculations in the Engineering Reference for this coil type. Also, use Output:Diagnostics, DisplayExtraWarnings for further guidance.\n   ** Warning ** The Standard Ratings is calculated for Coil:Cooling:DX:SingleSpeed = COIL COOLING DX SINGLE SPEED 17 6KBTU/HR 14.0SEER but not at the AHRI test condition due to curve out of bound.\n   **   ~~~   **  Review the Standard Ratings calculations in the Engineering Reference for this coil type. Also, use Output:Diagnostics, DisplayExtraWarnings for further guidance.\n   ** Warning ** Missing temperature setpoint for LeavingSetpointModulated mode chiller named PRIMARY CHILLER WATERCOOLED SCROLL 31TONS 0.8KW/TON\n   **   ~~~   **   A temperature setpoint is needed at the outlet node of a chiller in variable flow mode, use a SetpointManager\n   **   ~~~   **   The overall loop setpoint will be assumed for chiller. The simulation continues ... \n   ** Warning ** Missing temperature setpoint for LeavingSetpointModulated mode chiller named SECONDARY CHILLER WATERCOOLED SCROLL 0TONS 0.8KW/TON\n   **   ~~~   **   A temperature setpoint is needed at the outlet node of a chiller in variable flow mode, use a SetpointManager\n   **   ~~~   **   The overall loop setpoint will be assumed for chiller. The simulation continues ... \n   ** Warning ** Missing temperature setpoint for LeavingSetpointModulated mode Boiler named PRIMARY BOILER 2027KBTU/HR 0.83 THERMAL EFF\n   **   ~~~   **   A temperature setpoint is needed at the outlet node of a boiler in variable flow mode, use a SetpointManager\n   **   ~~~   **   The overall loop setpoint will be assumed for Boiler. The simulation continues ... \n   ** Warning ** Output:Meter: invalid Name=\"DISTRICTCOOLING:FACILITY\" - not found.\n   ** Warning ** Output:Meter: invalid Name=\"DISTRICTHEATING:FACILITY\" - not found.\n   ** Warning ** Output:Meter:MeterFileOnly requested for \"Electricity:Facility\" (TimeStep), already on \"Output:Meter\". Will report to both eplusout.eso and eplusout.mtr\n   ************* Testing Individual Branch Integrity\n   ************* All Branches passed integrity testing\n   ************* Testing Individual Supply Air Path Integrity\n   ************* All Supply Air Paths passed integrity testing\n   ************* Testing Individual Return Air Path Integrity\n   ************* All Return Air Paths passed integrity testing\n   ************* No node connection errors were found.\n   ************* Beginning Simulation\n   ** Warning ** CalcDoe2DXCoil: Coil:Cooling:DX:SingleSpeed \"COIL COOLING DX SINGLE SPEED 17 6KBTU/HR 14.0SEER\" - Full load outlet air dry-bulb temperature < 2C. This indicates the possibility of coil frost/freeze. Outlet temperature = 0.22 C.\n   **   ~~~   **  ...Occurrence info = RUN PERIOD 1, 01/05 08:06 - 08:09\n   **   ~~~   ** ... Possible reasons for low outlet air dry-bulb temperatures are: This DX coil\n   **   ~~~   **    1) may have a low inlet air dry-bulb temperature. Inlet air temperature = 14.287 C.\n   **   ~~~   **    2) may have a low air flow rate per watt of cooling capacity. Check inputs.\n   **   ~~~   **    3) is used as part of a HX assisted cooling coil which uses a high sensible effectiveness. Check inputs.\n   ** Warning ** CalcDoe2DXCoil: Coil:Cooling:DX:SingleSpeed \"COIL COOLING DX SINGLE SPEED 7 4KBTU/HR 11.0EER\" - Air-cooled condenser inlet dry-bulb temperature below 0 C. Outdoor dry-bulb temperature = -0.13\n   **   ~~~   **  ... Occurrence info = RUN PERIOD 1, 01/05 21:03 - 21:05\n   **   ~~~   ** ... Operation at low ambient temperatures may require special performance curves.\n   ** Warning ** CalcDoe2DXCoil: Coil:Cooling:DX:SingleSpeed \"COIL COOLING DX SINGLE SPEED 13 57KBTU/HR 14.0SEER\" - Air-cooled condenser inlet dry-bulb temperature below 0 C. Outdoor dry-bulb temperature = -2.48\n   **   ~~~   **  ... Occurrence info = RUN PERIOD 1, 01/06 07:02 - 07:04\n   **   ~~~   ** ... Operation at low ambient temperatures may require special performance curves.\n   ** Warning ** CalcDoe2DXCoil: Coil:Cooling:DX:SingleSpeed \"COIL COOLING DX SINGLE SPEED 16 54KBTU/HR 14.0SEER\" - Air-cooled condenser inlet dry-bulb temperature below 0 C. Outdoor dry-bulb temperature = -1.95\n   **   ~~~   **  ... Occurrence info = RUN PERIOD 1, 01/06 08:02 - 08:04\n   **   ~~~   ** ... Operation at low ambient temperatures may require special performance curves.\n   ** Warning ** CalcDoe2DXCoil: Coil:Cooling:DX:SingleSpeed \"COIL COOLING DX SINGLE SPEED 17 6KBTU/HR 14.0SEER\" - Air-cooled condenser inlet dry-bulb temperature below 0 C. Outdoor dry-bulb temperature = -1.95\n   **   ~~~   **  ... Occurrence info = RUN PERIOD 1, 01/06 08:06 - 08:09\n   **   ~~~   ** ... Operation at low ambient temperatures may require special performance curves.\n   ** Warning ** CalcDoe2DXCoil: Coil:Cooling:DX:SingleSpeed \"COIL COOLING DX SINGLE SPEED 11 8KBTU/HR 10.7EER\" - Air-cooled condenser inlet dry-bulb temperature below 0 C. Outdoor dry-bulb temperature = -1.48\n   **   ~~~   **  ... Occurrence info = RUN PERIOD 1, 01/07 09:30 - 09:34\n   **   ~~~   ** ... Operation at low ambient temperatures may require special performance curves.\n   ** Warning ** CalcDoe2DXCoil: Coil:Cooling:DX:SingleSpeed \"COIL COOLING DX SINGLE SPEED 4 16KBTU/HR 9.3EER\" - Air-cooled condenser inlet dry-bulb temperature below 0 C. Outdoor dry-bulb temperature = -1.48\n   **   ~~~   **  ... Occurrence info = RUN PERIOD 1, 01/07 09:38 - 09:41\n   **   ~~~   ** ... Operation at low ambient temperatures may require special performance curves.\n   ** Warning ** CalcDoe2DXCoil: Coil:Cooling:DX:SingleSpeed \"COIL COOLING DX SINGLE SPEED 5 16KBTU/HR 9.3EER\" - Air-cooled condenser inlet dry-bulb temperature below 0 C. Outdoor dry-bulb temperature = -0.18\n   **   ~~~   **  ... Occurrence info = RUN PERIOD 1, 01/07 16:30 - 16:35\n   **   ~~~   ** ... Operation at low ambient temperatures may require special performance curves.\n   ** Warning ** CalcDoe2DXCoil: Coil:Cooling:DX:SingleSpeed \"COIL COOLING DX SINGLE SPEED 9 19KBTU/HR 9.3EER\" - Air-cooled condenser inlet dry-bulb temperature below 0 C. Outdoor dry-bulb temperature = -0.18\n   **   ~~~   **  ... Occurrence info = RUN PERIOD 1, 01/07 16:30 - 16:35\n   **   ~~~   ** ... Operation at low ambient temperatures may require special performance curves.\n   ** Warning ** CalcDoe2DXCoil: Coil:Cooling:DX:SingleSpeed \"COIL COOLING DX SINGLE SPEED 12 16KBTU/HR 14.0SEER\" - Full load outlet air dry-bulb temperature < 2C. This indicates the possibility of coil frost/freeze. Outlet temperature = 1.65 C.\n   **   ~~~   **  ...Occurrence info = RUN PERIOD 1, 01/10 21:15 - 21:18\n   **   ~~~   ** ... Possible reasons for low outlet air dry-bulb temperatures are: This DX coil\n   **   ~~~   **    1) may have a low inlet air dry-bulb temperature. Inlet air temperature = 13.522 C.\n   **   ~~~   **    2) may have a low air flow rate per watt of cooling capacity. Check inputs.\n   **   ~~~   **    3) is used as part of a HX assisted cooling coil which uses a high sensible effectiveness. Check inputs.\n   ** Warning ** CalcDoe2DXCoil: Coil:Cooling:DX:SingleSpeed \"COIL COOLING DX SINGLE SPEED 3 15KBTU/HR 9.3EER\" - Air-cooled condenser inlet dry-bulb temperature below 0 C. Outdoor dry-bulb temperature = -0.60\n   **   ~~~   **  ... Occurrence info = RUN PERIOD 1, 02/06 09:53 - 09:56\n   **   ~~~   ** ... Operation at low ambient temperatures may require special performance curves.\n   ** Warning ** CalcDoe2DXCoil: Coil:Cooling:DX:SingleSpeed \"COIL COOLING DX SINGLE SPEED 6 16KBTU/HR 9.3EER\" - Air-cooled condenser inlet dry-bulb temperature below 0 C. Outdoor dry-bulb temperature = -2.50E-002\n   **   ~~~   **  ... Occurrence info = RUN PERIOD 1, 02/06 17:30 - 17:38\n   **   ~~~   ** ... Operation at low ambient temperatures may require special performance curves.\n   ** Warning ** CalcDoe2DXCoil: Coil:Cooling:DX:SingleSpeed \"COIL COOLING DX SINGLE SPEED 8 43KBTU/HR 9.3EER\" - Air-cooled condenser inlet dry-bulb temperature below 0 C. Outdoor dry-bulb temperature = -0.60\n   **   ~~~   **  ... Occurrence info = RUN PERIOD 1, 02/06 17:45 - 18:00\n   **   ~~~   ** ... Operation at low ambient temperatures may require special performance curves.\n   ** Warning ** CalcDoe2DXCoil: Coil:Cooling:DX:SingleSpeed \"COIL COOLING DX SINGLE SPEED 10 19KBTU/HR 9.3EER\" - Air-cooled condenser inlet dry-bulb temperature below 0 C. Outdoor dry-bulb temperature = -0.10\n   **   ~~~   **  ... Occurrence info = RUN PERIOD 1, 02/27 17:00 - 17:05\n   **   ~~~   ** ... Operation at low ambient temperatures may require special performance curves.\n   ** Warning ** CalcDoe2DXCoil: Coil:Cooling:DX:SingleSpeed \"COIL COOLING DX SINGLE SPEED 2 2KBTU/HR 11.0EER\" - Full load outlet air dry-bulb temperature < 2C. This indicates the possibility of coil frost/freeze. Outlet temperature = 1.85 C.\n   **   ~~~   **  ...Occurrence info = RUN PERIOD 1, 03/12 20:30 - 20:45\n   **   ~~~   ** ... Possible reasons for low outlet air dry-bulb temperatures are: This DX coil\n   **   ~~~   **    1) may have a low inlet air dry-bulb temperature. Inlet air temperature = 14.066 C.\n   **   ~~~   **    2) may have a low air flow rate per watt of cooling capacity. Check inputs.\n   **   ~~~   **    3) is used as part of a HX assisted cooling coil which uses a high sensible effectiveness. Check inputs.\n   ** Warning ** CalcDoe2DXCoil: Coil:Cooling:DX:SingleSpeed \"COIL COOLING DX SINGLE SPEED 2 2KBTU/HR 11.0EER\" - Air-cooled condenser inlet dry-bulb temperature below 0 C. Outdoor dry-bulb temperature = -0.28\n   **   ~~~   **  ... Occurrence info = RUN PERIOD 1, 03/12 22:00 - 22:15\n   **   ~~~   ** ... Operation at low ambient temperatures may require special performance curves.\n   ** Warning ** CalcDoe2DXCoil: Coil:Cooling:DX:SingleSpeed \"COIL COOLING DX SINGLE SPEED 18 79KBTU/HR 9.7EER\" - Full load outlet air dry-bulb temperature < 2C. This indicates the possibility of coil frost/freeze. Outlet temperature = 1.27 C.\n   **   ~~~   **  ...Occurrence info = RUN PERIOD 1, 03/18 14:15 - 14:18\n   **   ~~~   ** ... Possible reasons for low outlet air dry-bulb temperatures are: This DX coil\n   **   ~~~   **    1) may have a low inlet air dry-bulb temperature. Inlet air temperature = 12.750 C.\n   **   ~~~   **    2) may have a low air flow rate per watt of cooling capacity. Check inputs.\n   **   ~~~   **    3) is used as part of a HX assisted cooling coil which uses a high sensible effectiveness. Check inputs.\n   ** Warning ** CalcDoe2DXCoil: Coil:Cooling:DX:SingleSpeed \"COIL COOLING DX SINGLE SPEED 14 93KBTU/HR 9.7EER\" - Full load outlet air dry-bulb temperature < 2C. This indicates the possibility of coil frost/freeze. Outlet temperature = 4.37E-002 C.\n   **   ~~~   **  ...Occurrence info = RUN PERIOD 1, 04/13 14:00 - 14:15\n   **   ~~~   ** ... Possible reasons for low outlet air dry-bulb temperatures are: This DX coil\n   **   ~~~   **    1) may have a low inlet air dry-bulb temperature. Inlet air temperature = 18.450 C.\n   **   ~~~   **    2) may have a low air flow rate per watt of cooling capacity. Check inputs.\n   **   ~~~   **    3) is used as part of a HX assisted cooling coil which uses a high sensible effectiveness. Check inputs.\n   ** Warning ** CalcDoe2DXCoil: Coil:Cooling:DX:SingleSpeed \"COIL COOLING DX SINGLE SPEED 15 93KBTU/HR 9.7EER\" - Full load outlet air dry-bulb temperature < 2C. This indicates the possibility of coil frost/freeze. Outlet temperature = 0.12 C.\n   **   ~~~   **  ...Occurrence info = RUN PERIOD 1, 04/13 14:00 - 14:15\n   **   ~~~   ** ... Possible reasons for low outlet air dry-bulb temperatures are: This DX coil\n   **   ~~~   **    1) may have a low inlet air dry-bulb temperature. Inlet air temperature = 18.450 C.\n   **   ~~~   **    2) may have a low air flow rate per watt of cooling capacity. Check inputs.\n   **   ~~~   **    3) is used as part of a HX assisted cooling coil which uses a high sensible effectiveness. Check inputs.\n   ** Warning ** CalcDoe2DXCoil: Coil:Cooling:DX:SingleSpeed \"COIL COOLING DX SINGLE SPEED 1 222KBTU/HR 9.7EER\" - Full load outlet air dry-bulb temperature < 2C. This indicates the possibility of coil frost/freeze. Outlet temperature = 1.80 C.\n   **   ~~~   **  ...Occurrence info = RUN PERIOD 1, 04/13 14:45 - 15:00\n   **   ~~~   ** ... Possible reasons for low outlet air dry-bulb temperatures are: This DX coil\n   **   ~~~   **    1) may have a low inlet air dry-bulb temperature. Inlet air temperature = 18.900 C.\n   **   ~~~   **    2) may have a low air flow rate per watt of cooling capacity. Check inputs.\n   **   ~~~   **    3) is used as part of a HX assisted cooling coil which uses a high sensible effectiveness. Check inputs.\n   ************* Simulation Error Summary *************\n   ************* There are 9 unused schedules in input.\n   ************* There are 9 unused week schedules in input.\n   ************* There are 35 unused day schedules in input.\n   ************* Use Output:Diagnostics,DisplayUnusedSchedules; to see them.\n   *************\n   ************* ===== Recurring Error Summary =====\n   ************* The following recurring error messages occurred.\n   *************\n   *************  ** Warning ** CalcDoe2DXCoil: Coil:Cooling:DX:SingleSpeed=\"COIL COOLING DX SINGLE SPEED 17 6KBTU/HR 14.0SEER\" - Full load outlet temperature indicates a possibility of frost/freeze error continues. Outlet air temperature statistics follow:\n   *************  **   ~~~   **   This error occurred 140 total times;\n   *************  **   ~~~   **   during Warmup 0 times;\n   *************  **   ~~~   **   during Sizing 0 times.\n   *************  **   ~~~   **   Max=1.999007  Min=-2.851048\n   *************\n   *************  ** Warning ** CalcDoe2DXCoil: Coil:Cooling:DX:SingleSpeed=\"COIL COOLING DX SINGLE SPEED 7 4KBTU/HR 11.0EER\" - Low condenser dry-bulb temperature error continues...\n   *************  **   ~~~   **   This error occurred 1465 total times;\n   *************  **   ~~~   **   during Warmup 0 times;\n   *************  **   ~~~   **   during Sizing 0 times.\n   *************  **   ~~~   **   Max=-2.775558E-017 [C]  Min=-7.2 [C]\n   *************\n   *************  ** Warning ** CalcDoe2DXCoil: Coil:Cooling:DX:SingleSpeed=\"COIL COOLING DX SINGLE SPEED 13 57KBTU/HR 14.0SEER\" - Low condenser dry-bulb temperature error continues...\n   *************  **   ~~~   **   This error occurred 70 total times;\n   *************  **   ~~~   **   during Warmup 0 times;\n   *************  **   ~~~   **   during Sizing 0 times.\n   *************  **   ~~~   **   Max=-7.500000E-002 [C]  Min=-11.425 [C]\n   *************\n   *************  ** Warning ** CalcDoe2DXCoil: Coil:Cooling:DX:SingleSpeed=\"COIL COOLING DX SINGLE SPEED 16 54KBTU/HR 14.0SEER\" - Low condenser dry-bulb temperature error continues...\n   *************  **   ~~~   **   This error occurred 126 total times;\n   *************  **   ~~~   **   during Warmup 0 times;\n   *************  **   ~~~   **   during Sizing 0 times.\n   *************  **   ~~~   **   Max=-7.500000E-002 [C]  Min=-8.775 [C]\n   *************\n   *************  ** Warning ** CalcDoe2DXCoil: Coil:Cooling:DX:SingleSpeed=\"COIL COOLING DX SINGLE SPEED 17 6KBTU/HR 14.0SEER\" - Low condenser dry-bulb temperature error continues...\n   *************  **   ~~~   **   This error occurred 53 total times;\n   *************  **   ~~~   **   during Warmup 0 times;\n   *************  **   ~~~   **   during Sizing 0 times.\n   *************  **   ~~~   **   Max=-5.000000E-002 [C]  Min=-5.8 [C]\n   *************\n   *************  ** Warning ** CalcDoe2DXCoil: Coil:Cooling:DX:SingleSpeed=\"COIL COOLING DX SINGLE SPEED 11 8KBTU/HR 10.7EER\" - Low condenser dry-bulb temperature error continues...\n   *************  **   ~~~   **   This error occurred 226 total times;\n   *************  **   ~~~   **   during Warmup 0 times;\n   *************  **   ~~~   **   during Sizing 0 times.\n   *************  **   ~~~   **   Max=-2.500000E-002 [C]  Min=-3.425 [C]\n   *************\n   *************  ** Warning ** CalcDoe2DXCoil: Coil:Cooling:DX:SingleSpeed=\"COIL COOLING DX SINGLE SPEED 4 16KBTU/HR 9.3EER\" - Low condenser dry-bulb temperature error continues...\n   *************  **   ~~~   **   This error occurred 155 total times;\n   *************  **   ~~~   **   during Warmup 0 times;\n   *************  **   ~~~   **   during Sizing 0 times.\n   *************  **   ~~~   **   Max=-7.500000E-002 [C]  Min=-3.3 [C]\n   *************\n   *************  ** Warning ** CalcDoe2DXCoil: Coil:Cooling:DX:SingleSpeed=\"COIL COOLING DX SINGLE SPEED 5 16KBTU/HR 9.3EER\" - Low condenser dry-bulb temperature error continues...\n   *************  **   ~~~   **   This error occurred 91 total times;\n   *************  **   ~~~   **   during Warmup 0 times;\n   *************  **   ~~~   **   during Sizing 0 times.\n   *************  **   ~~~   **   Max=-2.500000E-002 [C]  Min=-2.2 [C]\n   *************\n   *************  ** Warning ** CalcDoe2DXCoil: Coil:Cooling:DX:SingleSpeed=\"COIL COOLING DX SINGLE SPEED 9 19KBTU/HR 9.3EER\" - Low condenser dry-bulb temperature error continues...\n   *************  **   ~~~   **   This error occurred 55 total times;\n   *************  **   ~~~   **   during Warmup 0 times;\n   *************  **   ~~~   **   during Sizing 0 times.\n   *************  **   ~~~   **   Max=-2.500000E-002 [C]  Min=-1.675 [C]\n   *************\n   *************  ** Warning ** CalcDoe2DXCoil: Coil:Cooling:DX:SingleSpeed=\"COIL COOLING DX SINGLE SPEED 12 16KBTU/HR 14.0SEER\" - Full load outlet temperature indicates a possibility of frost/freeze error continues. Outlet air temperature statistics follow:\n   *************  **   ~~~   **   This error occurred 204 total times;\n   *************  **   ~~~   **   during Warmup 0 times;\n   *************  **   ~~~   **   during Sizing 0 times.\n   *************  **   ~~~   **   Max=1.978902  Min=-1.545706\n   *************\n   *************  ** Warning ** CalcDoe2DXCoil: Coil:Cooling:DX:SingleSpeed=\"COIL COOLING DX SINGLE SPEED 3 15KBTU/HR 9.3EER\" - Low condenser dry-bulb temperature error continues...\n   *************  **   ~~~   **   This error occurred 41 total times;\n   *************  **   ~~~   **   during Warmup 0 times;\n   *************  **   ~~~   **   during Sizing 0 times.\n   *************  **   ~~~   **   Max=-0.25 [C]  Min=-2.75 [C]\n   *************\n   *************  ** Warning ** CalcDoe2DXCoil: Coil:Cooling:DX:SingleSpeed=\"COIL COOLING DX SINGLE SPEED 6 16KBTU/HR 9.3EER\" - Low condenser dry-bulb temperature error continues...\n   *************  **   ~~~   **   This error occurred 31 total times;\n   *************  **   ~~~   **   during Warmup 0 times;\n   *************  **   ~~~   **   during Sizing 0 times.\n   *************  **   ~~~   **   Max=-2.500000E-002 [C]  Min=-2.2 [C]\n   *************\n   *************  ** Warning ** CalcDoe2DXCoil: Coil:Cooling:DX:SingleSpeed=\"COIL COOLING DX SINGLE SPEED 8 43KBTU/HR 9.3EER\" - Low condenser dry-bulb temperature error continues...\n   *************  **   ~~~   **   This error occurred 1 total times;\n   *************  **   ~~~   **   during Warmup 0 times;\n   *************  **   ~~~   **   during Sizing 0 times.\n   *************  **   ~~~   **   Max=-0.6 [C]  Min=-0.6 [C]\n   *************\n   *************  ** Warning ** CalcDoe2DXCoil: Coil:Cooling:DX:SingleSpeed=\"COIL COOLING DX SINGLE SPEED 10 19KBTU/HR 9.3EER\" - Low condenser dry-bulb temperature error continues...\n   *************  **   ~~~   **   This error occurred 22 total times;\n   *************  **   ~~~   **   during Warmup 0 times;\n   *************  **   ~~~   **   during Sizing 0 times.\n   *************  **   ~~~   **   Max=-0.1 [C]  Min=-1.5 [C]\n   *************\n   *************  ** Warning ** CalcDoe2DXCoil: Coil:Cooling:DX:SingleSpeed=\"COIL COOLING DX SINGLE SPEED 2 2KBTU/HR 11.0EER\" - Full load outlet temperature indicates a possibility of frost/freeze error continues. Outlet air temperature statistics follow:\n   *************  **   ~~~   **   This error occurred 41 total times;\n   *************  **   ~~~   **   during Warmup 0 times;\n   *************  **   ~~~   **   during Sizing 0 times.\n   *************  **   ~~~   **   Max=1.934006  Min=0.545777\n   *************\n   *************  ** Warning ** CalcDoe2DXCoil: Coil:Cooling:DX:SingleSpeed=\"COIL COOLING DX SINGLE SPEED 2 2KBTU/HR 11.0EER\" - Low condenser dry-bulb temperature error continues...\n   *************  **   ~~~   **   This error occurred 13 total times;\n   *************  **   ~~~   **   during Warmup 0 times;\n   *************  **   ~~~   **   during Sizing 0 times.\n   *************  **   ~~~   **   Max=-0.275 [C]  Min=-1.7 [C]\n   *************\n   *************  ** Warning ** CalcDoe2DXCoil: Coil:Cooling:DX:SingleSpeed=\"COIL COOLING DX SINGLE SPEED 18 79KBTU/HR 9.7EER\" - Full load outlet temperature indicates a possibility of frost/freeze error continues. Outlet air temperature statistics follow:\n   *************  **   ~~~   **   This error occurred 16 total times;\n   *************  **   ~~~   **   during Warmup 0 times;\n   *************  **   ~~~   **   during Sizing 0 times.\n   *************  **   ~~~   **   Max=1.960872  Min=5.424832E-002\n   *************\n   *************  ** Warning ** CalcDoe2DXCoil: Coil:Cooling:DX:SingleSpeed=\"COIL COOLING DX SINGLE SPEED 14 93KBTU/HR 9.7EER\" - Full load outlet temperature indicates a possibility of frost/freeze error continues. Outlet air temperature statistics follow:\n   *************  **   ~~~   **   This error occurred 15 total times;\n   *************  **   ~~~   **   during Warmup 0 times;\n   *************  **   ~~~   **   during Sizing 0 times.\n   *************  **   ~~~   **   Max=1.952457  Min=4.370376E-002\n   *************\n   *************  ** Warning ** CalcDoe2DXCoil: Coil:Cooling:DX:SingleSpeed=\"COIL COOLING DX SINGLE SPEED 15 93KBTU/HR 9.7EER\" - Full load outlet temperature indicates a possibility of frost/freeze error continues. Outlet air temperature statistics follow:\n   *************  **   ~~~   **   This error occurred 16 total times;\n   *************  **   ~~~   **   during Warmup 0 times;\n   *************  **   ~~~   **   during Sizing 0 times.\n   *************  **   ~~~   **   Max=1.895122  Min=0.115364\n   *************\n   *************  ** Warning ** CalcDoe2DXCoil: Coil:Cooling:DX:SingleSpeed=\"COIL COOLING DX SINGLE SPEED 1 222KBTU/HR 9.7EER\" - Full load outlet temperature indicates a possibility of frost/freeze error continues. Outlet air temperature statistics follow:\n   *************  **   ~~~   **   This error occurred 4 total times;\n   *************  **   ~~~   **   during Warmup 0 times;\n   *************  **   ~~~   **   during Sizing 0 times.\n   *************  **   ~~~   **   Max=1.801858  Min=1.798471\n   *************\n   *************\n   ************* ===== Final Error Summary =====\n   ************* The following error categories occurred.  Consider correcting or noting.\n   ************* Nominally Unused Constructions\n   ************* ..The nominally unused constructions warning is provided to alert you to potential conditions that can cause\n   ************* ..extra time during simulation. Each construction is calculated by the algorithm indicated in the HeatBalanceAlgorithm\n   ************* ..object. You may remove the constructions indicated (when you use the DisplayExtraWarnings option).\n   *************\n   ************* EnergyPlus Warmup Error Summary. During Warmup: 0 Warning; 0 Severe Errors.\n   ************* EnergyPlus Sizing Error Summary. During Sizing: 165 Warning; 0 Severe Errors.\n   ************* EnergyPlus Completed Successfully-- 2975 Warning; 0 Severe Errors; Elapsed Time=00hr 04min 17.77sec\n",
   "file_format_version" : "0.0.1",
   "file_paths" : [ "../weather", "../seeds", "../seed" ],
   "hash" : "49F91DCE",
   "measure_paths" : [ "../measures" ],
   "name" : "LHS Autogenerated 782",
   "osa_id" : "4fef0e0f-5396-4c55-a6e1-2cd6803db3ab",
   "osd_id" : "744662a7-cac0-498d-a93d-228369eafda9",
   "run_directory" : "./run",
   "seed_file" : "seed.osm",
   "started_at" : "20170710T191332Z",
   "steps" : [
      {
         "arguments" : {
            "__SKIP__" : false,
            "building_type" : "LargeHotel",
            "climate_zone" : "NECB HDD Method",
            "epw_file" : "CAN_BC_Abbotsford.711080_CWEC.epw",
            "template" : "NECB 2011"
         },
         "measure_dir_name" : "create_prototype_building",
         "name" : "create_prototype_building",
         "result" : {
            "completed_at" : "20170710T191546Z",
            "measure_class_name" : "CreatePrototypeBuilding",
            "measure_display_name" : "Create Prototype Building",
            "measure_name" : "create_prototype_building",
            "measure_taxonomy" : "Whole Building.Space Types",
            "measure_type" : "ModelMeasure",
            "measure_uid" : "ae90fsd7-a651-467a-bc8d-29d310b0f937",
            "measure_version_id" : "c6ec5c18-5595-459f-a082-09a19c8c869c",
            "measure_version_modified" : "20170519T182315Z",
            "measure_xml_checksum" : "057E8D9D",
            "started_at" : "20170710T191335Z",
            "stderr" : "",
[...]
tV5VbLK3qqiwXktVlpc70qLz4mGM5nVcXHrWrnKpqVaZbedbPnXxXLfX8z+t6CnM8fap+/e2d+veb396q0zdv3/30yw/q5zc//HSsfjx5e1JO4FW2autbz7RoKo1UEsWpmsyusjoYqTzSJFFeMsqal2AyLqG4vPZG58HO7HXUefnFJdbpLJ6oqRcn+lUYeWnbM0v+TnYrHzx2nj9W6mKub9Ee2C5ewjrhz5tNernvP/Ppnk/29hNfX3izMFXTOMrWMP2ko558c3BwfHxy8mTDwTPEIQ5xiEMc4hCHOMQhDnGI8+fEUcnsKvsnsPK1eVD53p0hirVPGtKQhjSkIQ1pSEMa0pCGNKQpprnJ/zTrDzTn4UwThzjEIQ5xiEMc4hCHOMQhDnHq4Nx/b6BjvjfwdCZ9b2Dfyd9he/58b+/wkKQkJSlJSUpSkpKUpCQlKUlJSlKSbgepm5N6qUTay0n7fdc9GJKUpCQlKUlJSlKSkpSkJCUpSUlK0u0g7RvSV3EgkLqHOanj7O/3+yQlKUlJSlKSkpSkJCUpSUlKUpKSdDtI9wzpu8uZRHqQkx5mx+AFSUlKUpKSlKQkJSlJSUpSkpKUpCTdDtKBIf2X9iXS/Zz05cvj4/19kpKUpCQlKUlJSlKSkpSkJCUpSUm6HaTD/DcTMy2RDnPS4+PhkKQkJSlJSUpSkpKUpCQlKUlJSlKSbgvpviF9HUnJgu4gJz04cN3BgKQkJSlJSUpSkpKUpCQlKUlJSlKSNka6RPFj76a9Vuy2mwZpqE8vvanupvo2bT/5MZrFyXqMuy/PfBlc6UkSRJNQJ7nCGomnT9Vz31eeypXUTZBeqiS60srvrzkzuR53velUT/x2y3i3dtacsDy6XprG7dZtq6OGvYon3WUnueVPStK7UM/xdr3J6DKKs/Nbob6oQLvQuIgm6e6NDsaXqdE4j0K/vMb83pxOd194ic5uUKpO75LdPfUqjHf76nR0uXuifvw1HF2lu5Mozm7Bf35Rv5wcvzBPS/WV2lO/nv5HvRmNzHOf7BTd1O+fJqM4mKb/EJ/z/VM/uP76sHiOLJZpqcA/ao1MxR9nF8kLJjo+c5xeS+WX7qjlB8k09O6eBZMwG9s9D6PRp+9aMmCmOn8NKr2bZuebq/f0o3ftzR8tPNMc115sqlMdKT+4moa6O9E3p9fjduubr0B21F6vl/9n7XQzur6Xepnw+99boXeuw9azlq8vvFmYqmkcXQShbnXmI2e3rWdOt9dpXXvhTC9+HplVKTsnW2iOj09OWp87pXRckE4fpLMH0hmAdIYgnX2QzgFI5xCk4/RQQqiKdlAl7aBq2kEVtYOqagdV1g6qrh1UYTuoynZRle3C1mpUZbuoynYrVbZKZldXK19TXWpHi7VfQUa8RtVkxCtUTUa8PtVkxHlfTUac9dVkxDlfTUac8dVkxPleTUbeyCrqgOpY3sYq6oAqWd7EKuqAalnewirqgKpZ3sAq6oDqWd6+Kuqg1mVQPct7V0Wd8vV8E0zS6tvWuXmovI54eSrqiJenoo54eSrqiNO9oo443SvqiNO9oo443SvqiNO9oo68f1UVQlW0vINVFULVtLyHVRVCVbW8i1UVQtW1vI9VFUJVtryTVRWCrdWoypY3s6pC5Sv7/n2Ltd8rLG1zvZV/6M2/eBhg4W7eor95i73NWww2bzHcvMX+5i0ONm9xuHmLlZ19Ux4NzG+ngQnuNDDDnQamuNPAHHcamOROA7PcaWCaOw3Mc7eBee42sY83MM/dBua5W2+er/36xnJt1fz7HQEW8t2AWcg3A2Yh3wuYhbzkwizkFRdmIS+4MAt5vYVZyMstzKLgnWuch/zWH85DflcQ5yG/YYjzaGCKF7RVOI8GJnlBW4XzaGCaF7RVuP1PbqtwHk3s4w1s5AVtFc6j3jxf+y1Z5dqq+ddoASzkuwGzkG8GzEK+FzALecmFWcgrLsxCXnBhFvJ6C7OQ/zYKZlHQVuE85LYK5yG3VTgPua3Cech/ooXzkP8uEech/8kizkP+a0ach/yHjjiPBuZ5QVuF82hiH29gIy9oq3Ae9bbytV9GUq6tmn9bCcBCvhswC/lmwCzkewGzkNsqmIXcVsEs5LYKZiG3VTALebmFWRS0VTgPua3CechtFc5DbqtwHnJbhfOQ2yqch9xW4TzktgrnIbdVOI8G5nlBW4XzaGIfb2AjL2ircB71tvK1me/l2qp5KDzAQr4bMAv5ZsAs5HsBs5DbKpiF3FbBLOS2CmYht1UwC3m5hVkUtFU4D7mtwnnIbRXOQ26rcB5yW4XzkNsqnIfcVuE85LYK5yG3VTiPBuZ5QVuF82hiH29gIy9oq3Ae9bbytdG65dqqefYuwEK+GzAL+WbALOR7AbOQ2yqYhdxWwSzktgpmIbdVMAt5uYVZFLRVOA+5rcJ5yG0VzkNuq3AecluF85DbKpyH3FbhPOS2Cucht1U4jwbmeUFbhfNoYh9vYCMvaKtwHvW28rUJhuXaqnnEIcBCvhswC/lmwCzkewGzkNsqmIXcVsEs5LYKZiG3VTCLotwpkEVh2BrKoyitCuVRFGSF8ijKuEJ5FMVfoTyKMt9QHkVxcCiPoqQ4lEdRiBzKo4F5XtBW4Tya2Mcb2MgL2iqcx/qt/EOZhNdFeLM6UhN9s0yQzYNj28n1uJMnwK6Nil0mQCc6fRHNJn7SHvQ6ynEGHdU3P7mDcnGztxnGfbC17x97qR5H8d3z2yCZJyjfv/4SMdOZwJvY1/HbmQk0Ln2i4bhb5XitvWQW6zmGyWReXPcNR3xzmMMc5jCHOcxhDnOYwxzmMIc5zGEOc5jDHOYwhznMYQ5zmMMc5jCHOcxhDnOYwxzmMIc5zGEOc5jDHOYwhznMYQ5zmMMc5jCHOcxhDnP4TzV8142udRwHvn7tmQ/WOt2e5edVzUdjk9WPxp7qONDJ4uO1rc7yA8TTMEq7YTDRaz8im3ztc7rrP1mbdPOvnp9GoZcG0SSDaiWpnu6e64so1q1yn3z+WY/1xF99QfPH2sNeR/XNJ5d75oPM5j+tUF+kBmyN9FK2ezbW6ckkNdcns7iYTUY5aXtH/b5GYkmo789+v/az3OYILlQ7vQySbpLflXJG5nhwUje7fife6LL9X+Cqakt889HxjH2hezaNksAIvsweLvNqloeR+QpVHN1UQ1piBRNfm/mw63Qqnr08PtY98SLQoam39uKazufJOI5mU+2rb79Vf1s8fts9u/SSxeffzQTbeTh699XR7IJ0vfH4lfHohnoyTi/V98pV/1St52HYUs9Wn5GEwUi3d52d970PO2vn2xevJIpV+2P2UnrfqY+ZzaJUF77msb9nK071G2QOU8YLvfcfP3Q/6Tt1dHQ0v3j1FHPVxW3/WPWlLo/zWHuf6pz8ueI5VZ9vrtfi1R2ZsjbFsKiUPMihe+YlSTCeaP/YREQk7/Mr+aHepVze6OksuWzXvRfZLX02v5/1Z1IYPivzKrvmmXVdkjSOPulyPvPn1nWKpt4oSO/KWS2eXPtV5RZLq7oqy4VkdVmpMz0qLz7mWE7n1YVH7SqnqlqV6Vae9XMn31VLPf/zup7CHE+fql9/e6f+/ea3t+r0zdt3P/3yg/r5zQ8/HasfT96elBN4la3a+tYzLZpKI5VEcaoms6usDkYqjzRJlJeMsuYlmIxLKC6vvdF5sDN7HXVefnGJdTqLJ2rqxYl+FUZe2vbMkr+T3coHj53nj5W6mOtbtAe2i5ewTvjzZpNe7vvPfLrnk739xNcX3ixM1TSOsjVMP+moJ98cHBwfn5w82XDwDHGIQxziEIc4xCEOcYhDHOL8OXFUMrvK/gmsfG0eVL53Z4hi7ZOGNKQhDWlIQxrSkIY0pCENaYppbvI/zfoDzXk408QhDnGIQxziEIc4xCEOcYhDnDo4998b6JjvDTydSd8b2Hfyd9ieP9/bOzwkKUlJSlKSkpSkJCUpSUlKUpKSlKTbQermpF4qkfZy0n7fdQ+GJCUpSUlKUpKSlKQkJSlJSUpSkpJ0O0j7hvRVHAik7mFO6jj7+/0+SUlKUpKSlKQkJSlJSUpSkpKUpCTdDtI9Q/ruciaRHuSkh9kxeEFSkpKUpCQlKUlJSlKSkpSkJCUpSbeDdGBI/6V9iXQ/J3358vh4f5+kJCUpSUlKUpKSlKQkJSlJSUpSkm4H6TD/zcRMS6TDnPT4eDgkKUlJSlKSkpSkJCUpSUlKUpKSlKTbQrpvSF9HUrKgO8hJDw5cdzAgKUlJSlKSkpSkJCUpSUlKUpKSlKSNkS5R/Ni7aa8Vu+2mQRrq00tvqrupvk3bT36MZnGyHuPuyzNfBld6kgTRJNRJrrBG4ulT9dz3ladyJXUTpJcqia608vtrzkyux11vOtUTv90y3q2dNScsj66XpnG7ddvqqGGv4kl32Ulu+ZOS9C7Uc7xdbzK6jOLs/FaoLyrQLjQuokm6e6OD8WVqNM6j0C+vMb83p9Pd4yiOAz+Kz16F8dlQnd4lu32V/by7p05Hl7sn6sdfw9FVuptEs+xG/OcX9cvJ8QvztFRfqb769fQ/6s1oZJ77ZKfo1n7/NBnFwTT9h/ic75/6wfXXh8VzZLFMSwX+UWtk6v44u1ReMNHxmeM4LZVfwKOWHyTT0Lt7FkzCbGz3PIxGn75ryYCZ6vw1qPRump1vruHTj961N3+08ExzXHuxqVF1pPzgahrq7kTfnF6P261vvgLZUXu9Xv6ftZPO6Ppe6mXC739vhd65DlvPWr6+8GZhqqZxdBGEutWZj5zdtp453V6nde2FM734eWTWpuycbLk5Pj45aX3ulNJxQTp9kM4eSGcA0hmCdPZBOgcgnUOQjtNDCaEq2kGVtIOqaQdV1A6qqh1UWTuounZQhe2gKttFVbYLW6tRle2iKtutVNkqmV1drXxZdakdLdZ+BRnxGlWTEa9QNRnx+lSTEed9NRlx1leTEed8NRlxxleTEed7NRl5I6uoA6pjeRurqAOqZHkTq6gDqmV5C6uoA6pmeQOrqAOqZ3n7qqiDWpdB9SzvXRV1ytfzTTBJq29b5+ah8jri5amoI16eijri5amoI073ijridK+oI073ijridK+oI073ijry/lVVCFXR8g5WVQhV0/IeVlUIVdXyLlZVCFXX8j5WVQhV2fJOVlUItlajKlvezKoKla/s+3cv1n67sLTN9Vb+oTf/+mGAhfyvW5hFf/OvYm/zFoPNWww3b7G/eYuDzVscbt5iZWfflEcD87vgF7M4D/k3WzgP+ZdeOA/5N704D/mXwDgP+ffDOA/5V8c4D/m3yrj9T/6FM85D/l00zqOBeV7wG2ycR72tfO2XOJZ7G3f+LY8AC/luwCzktgpmId8LmIXcVsEs5LYKZiG3VTALua2CWchtFcyioK3CeTQwvwvaKpyHvNziPOS2Cucht1U4D7mtwnnIbRXOQ26rcB5yW4Xb/+S2CufRxD7ewDwvaKtwHvXm+drvyirXVs2/TAtg4Yq7B8xCbqtgFnJbBbOQ2yqYhdxWwSzktgpmIbdVMAu5rYJZFLRVOI8G5ndBW4XzkJdbnIe83OI85LYK5yG3VTgPua3CechtFc5Dbqtw+5/cVuE8mtjHG5jnBW0VzqPePF/7lSTl2qr5d5YALOS2CmYht1UwC7mtglnIbRXMQm6rYBZyWwWzkNsqmIXcVsEsCtoqnEcD87ugrcJ5yMstzkNebnEecluF85DbKpyH3FbhPOS2Cucht1W4/U9uq3AeTezjDczzgrYK51Fvnq9Nfi/XVs2j4QEWclsFs5DbKpiF3FbBLOS2CmYht1UwC7mtglnIbRXMQm6rYBYFbRXOo4H5XdBW4Tzk5RbnIS+3OA+5rcJ5yG0VzkNuq3AecluF85DbKtz+J7dVOI8m9vEG5nlBW4XzqDfP1wbslmur5gm8AAu5rYJZyG0VzEJuq2AWclsFs5DbKpiF3FbBLOS2CmYht1Uwi4K2CufRwPwuaKtwHvJyi/OQl1uch9xW4TzktgrnIbdVOA+5rcJ5yG0Vbv+T2yqcRxP7eAPzvKCtwnnUm+drcwzLtVXzoEOAhdxWwSzktgpmIbdVMAu5rYJZyG0VzEJuq2AWclsFs5DbKphFQVuF82hgfhdGtKE8ijKuUB5F8Vcoj6LMN5RHURwcyqMoKQ7lURQih/IoypdD7X9F0XMojyb28QbmeWGWHcpj/Tz/UCbhdRHhrI7URN8sE2Tz4Nh2cj3u5Amwa6NilznQiU5fRLOJn7QHvY5ynEFH9c1P7qBc3OxthnEfb+37x16qx1F89/w2SOY5yvevv0TYdCbwJvZ1/HZmYo1Ln2g47lY5XmsvmcV6jmGSmRfXfcNB3xzmMIc5zGEOc5jDHOYwhznMYQ5zmMMc5jCHOcxhDnOYwxzmMIc5zGEOc5jDHOYwhznMYQ5zmMMc5jCHOcxhDnOYwxzmMIc5zGEOc5jDHP5TDd91o2sdx4GvX3vmg7VOt2f5eVXz0dhk9aOxpzoOdLL4eG2rs/wA8TSM0m4YTPTaj8gmX/uc7vpP1ibd/Kvnp1HopUE0yaBaSaqnu+f6Iop1q9wnn3/WYz3xV1/Q/LH2sNdRffPJ5Z75ILP5TyvUF6kBWyO9lO2ejXV6MknN9cksLmaTUU7a3lG/r5FYEur7s9+v/Sy3OYIL1U4vg6Sb5HelnJE5HpzUza7fiTe6bP8XuKraEt98dDxjX+ieTaMkMIIvs4fLvJrlYWS+QhVHN9WQlljBxNdmPuw6nYpnL4+PdU+8CHRo6q29uKbzeTKOo9lU++rbb9XfFo/fds8uvWTx+XczwXYejt59dTS7IF1vPH5lPLqhnozTS/W9ctU/Vet5GLbUs9VnJGEw0u1dZ+d978PO2vn2xSuJYtX+mL2U3nfqY2azKNWFr3ns79mKU/0GmcOU8ULv/ccP3U/6Th0dHc0vXj3FXHVx2z9WfanL4zzW3qc6J3+ueE7V55vrtXh1R6asTTEsKiUPcuieeUkSjCfaPzYREcn7/Ep+qHcplzd6Oksu23XvRXZLn83vZ/2ZFIbPyrzKrnlmXZckjaNPupzP/Ll1naKpNwrSu3JWiyfXflW5xdKqrspyIVldVupMj8qLjzmW03l14VG7yqmqVmW6lWf93Ml31VLP/7yupzDH06fq19/eqX+/+e2tOn3z9t1Pv/ygfn7zw0/H6seTtyflBF5lq7a+9UyLptJIJVGcqsnsKquDkcojTRLlJaOseQkm4xKKy2tvdB7szF5HnZdfXGKdzuKJmnpxol+FkZe2PbPk72S38sFj5/ljpS7m+hbtge3iJawT/rzZpJf7/jOf7vlkbz/x9YU3C1M1jaNsDdNPOurJNwcHx8cnJ082HDxDHOIQhzjEIQ5xiEMc4hCHOH9OHJXMrrJ/AitfmweV790Zolj7pCENaUhDGtKQhjSkIQ1pSEOaYpqb/E+z/kBzHs40cYhDHOIQhzjEIQ5xiEMc4hCnDs799wY65nsDT2fS9wb2nfwdtufP9/YOD0lKUpKSlKQkJSlJSUpSkpKUpCQl6XaQujmpl0qkvZy033fdgyFJSUpSkpKUpCQlKUlJSlKSkpSkJN0O0r4hfRUHAql7mJM6zv5+v09SkpKUpCQlKUlJSlKSkpSkJCUpSbeDdM+QvrucSaQHOelhdgxekJSkJCUpSUlKUpKSlKQkJSlJSUrS7SAdGNJ/aV8i3c9JX748Pt7fJylJSUpSkpKUpCQlKUlJSlKSkpSk20E6zH8zMdMS6TAnPT4eDklKUpKSlKQkJSlJSUpSkpKUpCQl6baQ7hvS15GULOgOctKDA9cdDEhKUpKSlKQkJSlJSUpSkpKUpCQlaWOkSxQ/9m7aa8Vuu2mQhvr00pvqbqpv0/aTH6NZnKzHuPvyzJfBlZ4kQTQJdZIrrJF4+lQ9933lqVxJ3QTppUqiK638/pozk+tx15tO9cRvt4x3a2fNCcuj66Vp3G7dtjpq2Kt40l12klv+pCS9C/Ucb9ebjC6jODu/FeqLCrQLjYtoku7e6GB8mRqN8yj0y2vM783pdPdlMAkm47NXYXw2VKd3yW5fZT/v7qnT0eXuC/Xjr+HoKt2dRHF2G/7zi/rl5PiFeVqqr1Rf/Xr6H/VmNDLPfbJTdGO/f5qM4mCa/kN8zvdP/eD668PiObJYpqUC/6g1MlV/nF0oL5jo+Mxx3JbKL99Ryw+SaejdPQsmYTa2ex5Go0/ftWTATHX+GlR6N83ON1fw6Ufv2ps/WnimOa692FSoOlJ+cDUNdXeib06vx+3WN1+B7Ki9Xi//z9opZ3R9L/Uy4fe/t0LvXIetZy1fX3izMFXTOLoIQt3qzEfOblvPnG6v07r2wple/DwyK1N2TrbYHB+fnLQ+d0rpuCCdPkhnD6QzAOkMQTr7IJ0DkM4hSMfpoYRQFe2gStpB1bSDKmoHVdUOqqwdVF07qMJ2UJXtoirbha3VqMp2UZXtVqpslcyurla+qrrUjhZrv4KMeI2qyYhXqJqMeH2qyYjzvpqMOOuryYhzvpqMOOOryYjzvZqMvJFV1AHVsbyNVdQBVbK8iVXUAdWyvIVV1AFVs7yBVdQB1bO8fVXUQa3LoHqW966KOuXr+SaYpNW3rXPzUHkd8fJU1BEvT0Ud8fJU1BGne0UdcbpX1BGne0UdcbpX1BGne0Udef+qKoSqaHkHqyqEqml5D6sqhKpqeRerKoSqa3kfqyqEqmx5J6sqBFurUZUtb2ZVhcpX9v17F2u/W1ja5nor/9Cbf/kwwEL+1y3Mor/5V7G3eYvB5i2Gm7fY37zFweYtDjdvsbKzb8qjgfld8ItZnIf8my2ch/xLL5yH/JtenIf8S2Cch/z7YZyH/KtjnIf8W2Xc/if/whnnIf8uGufRwDwv+A02zqPeVr72KxzLvY07/45HgIV8N2AWclsFs5DvBcxCbqtgFnJbBbOQ2yqYhdxWwSzktgpmUdBW4TwamN8FbRXOQ15ucR5yW4XzkNsqnIfcVuE85LYK5yG3VTgPua3C7X9yW4XzaGIfb2CeF7RVOI9683ztN2WVa6vmX6UFsHDF3QNmIbdVMAu5rYJZyG0VzEJuq2AWclsFs5DbKpiF3FbBLAraKpxHA/O7oK3CecjLLc5DXm5xHnJbhfOQ2yqch9xW4TzktgrnIbdVuP1PbqtwHk3s4w3M84K2CudRb56v/UKScm3V/BtLABZyWwWzkNsqmIXcVsEs5LYKZiG3VTALua2CWchtFcxCbqtgFgVtFc6jgfld0FbhPOTlFuchL7c4D7mtwnnIbRXOQ26rcB5yW4XzkNsq3P4nt1U4jyb28QbmeUFbhfOoN8/X5r6Xa6vmwfAAC7mtglnIbRXMQm6rYBZyWwWzkNsqmIXcVsEs5LYKZiG3VTCLgrYK59HA/C5oq3Ae8nKL85CXW5yH3FbhPOS2Cucht1U4D7mtwnnIbRVu/5PbKpxHE/t4A/O8oK3CedSb52vjdcu1VfP8XYCF3FbBLOS2CmYht1UwC7mtglnIbRXMQm6rYBZyWwWzkNsqmEVBW4XzaGB+F7RVOA95ucV5yMstzkNuq3AecluF85DbKpyH3FbhPOS2Crf/yW0VzqOJfbyBeV7QVuE86s3ztSmG5dqqecwhwEJuq2AWclsFs5DbKpiF3FbBLOS2CmYht1UwC7mtglnIbRXMoqCtwnk0ML8LI9pQHkUZVyiPovgrlEdR5hvKoygODuVRlBSH8igKkUN5FOXLofa/oug5lEcT+3gD87wwyw7lsX6efyiT8LoIcFZHaqJvlgmyeXBsO7ked/IE2LVRscsU6ESnL6LZxE/ag15HOc6go/rmJ3dQLm72NsO4D7f2/WMv1eMovnt+GyTzFOX7118iajoTeBP7On47M6HGpU80HHerHK+1l8xiPccwucyL677hmG8Oc5jDHOYwhznMYQ5zmMMc5jCHOcxhDnOYwxzmMIc5zGEOc5jDHOYwhznMYQ5zmMMc5jCHOcxhDnOYwxzmMIc5zGEOc5jDHOYwhznMYQ7/qYbvutG1juPA168988Fap9uz/Lyq+WhssvrR2FMdBzpZfLy21Vl+gHgaRmk3DCZ67Udkk699Tnf9J2uTbv7V89Mo9NIgmmRQrSTV091zfRHFulXuk88/67Ge+KsvaP5Ye9jrqL755HLPfJDZ/KcV6ovUgK2RXsp2z8Y6PZmk5vpkFhezySgnbe+o39dILAn1/dnv136W2xzBhWqnl0HSTfK7Us7IHA9O6mbX78QbXbb/C1xVbYlvPjqesS90z6ZREhjBl9nDZV7N8jAyX6GKo5tqSEusYOJrMx92nU7Fs5fHx7onXgQ6NPXWXlzT+TwZx9Fsqn317bfqb4vHb7tnl16y+Py7mWA7D0fvvjqaXZCuNx6/Mh7dUE/G6aX6Xrnqn6r1PAxb6tnqM5IwGOn2rrPzvvdhZ+18++KVRLFqf8xeSu879TGzWZTqwtc89vdsxal+g8xhynih9/7jh+4nfaeOjo7mF6+eYq66uO0fq77U5XEea+9TnZM/Vzyn6vPN9Vq8uiNT1qYYFpWSBzl0z7wkCcYT7R+biIjkfX4lP9S7lMsbPZ0ll+269yK7pc/m97P+TArDZ2VeZdc8s65LksbRJ13OZ/7cuk7R1BsF6V05q8WTa7+q3GJpVVdluZCsLit1pkflxcccy+m8uvCoXeVUVasy3cqzfu7ku2qp539e11OY4+lT9etv79S/3/z2Vp2+efvup19+UD+/+eGnY/XjyduTcgKvslVb33qmRVNppJIoTtVkdpXVwUjlkSaJ8pJR1rwEk3EJxeW1NzoPdmavo87LLy6xTmfxRE29ONGvwshL255Z8neyW/ngsfP8sVIXc32L9sB28RLWCX/ebNLLff+ZT/d8sref+PrCm4WpmsZRtobpJx315JuDg+Pjk5MnGw6eIQ5xiEMc4hCHOMQhDnGIQ5w/J45KZlfZP4GVr82DyvfuDFGsfdKQhjSkIQ1pSEMa0pCGNKQhTTHNTf6nWX+gOQ9nmjjEIQ5xiEMc4hCHOMQhDnGIUwfn/nsDHfO9gacz6XsD+07+Dtvz53t7h4ckJSlJSUpSkpKUpCQlKUlJSlKSknQ7SN2c1Esl0l5O2u+77sGQpCQlKUlJSlKSkpSkJCUpSUlKUpJuB2nfkL6KA4HUPcxJHWd/v98nKUlJSlKSkpSkJCUpSUlKUpKSlKTbQbpnSN9dziTSg5z0MDsGL0hKUpKSlKQkJSlJSUpSkpKUpCQl6XaQDgzpv7Qvke7npC9fHh/v75OUpCQlKUlJSlKSkpSkJCUpSUlK0u0gHea/mZhpiXSYkx4fD4ckJSlJSUpSkpKUpCQlKUlJSlKSknRbSPcN6etIShZ0BznpwYHrDgYkJSlJSUpSkpKUpCQlKUlJSlKSkrQx0iWKH3s37bVit900SEN9eulNdTfVt2n7yY/RLE7WY9x9eebL4EpPkiCahDrJFdZIPH2qnvu+8lSupG6C9FIl0ZVWfn/Nmcn1uOtNp3rit1vGu7Wz5oTl0fXSNG63blsdNexVPOkuO8ktf1KS3oV6jrfrTUaXUZyd3wr1RQXahcZFNEl3b3QwvkyNxnkU+uU15vfmdLr7/wXp6FJPzl6F8dlQnd4lu32V/by7p05Hl7sv1I+/hqOrdFd7Sar+84v65eT4hXlWqq9UX/16+h/1ZjQyT32yU3Rjv3+ajOJgmv5DfM73T/3g+uvD4jmyWKalAv+oNTJVf5xdKC+Y6PjMcfotlV++o5YfJNPQu3sWTMJsbPc8jEafvmvJgJnq/DWo9G6anW+u4NOP3rU3f7TwTHNce7GpUHWk/OBqGuruRN+cXo/brW++AtlRe71e/p+1U87o+l7qZcLvf2+F3rkOW89avr7wZmGqpnF0EYS61ZmPnN22njndXqd17YUz3Xo2GHT7hw+O/qDTGpmFKpPI1p7j45OT1udOKVl3M7L9zcjubUZ2sBnZ4WZk9zcje7AZ2cPNyDq9DeluaJ45G5pozoZmmrOhqeZsaK45G5pszoZmm7Oh6eZsaL65G5pv7qb2tQ3NN3dD8821mW8qmV1drXwleJ3OIdZ+BdWy17eaatmrW0217LWtplp2JaumWnYdq6ZadhWrplp2DaumWnYFq6ZaumGoKLuZ2VW6Xagou5n5VbpZqCi7mRlWulWoKLuZOVa6Uagou5lZVrpNqCi7oT1sM7OsdI9QUbb2LLsJJql1e3BunlFetuylrShb9tJWlC17aSvKll3AKsqWXcAqypZdwCrKll3AKsqWXcAqypbuE6rqbmiele4UqupuaKaV7hWq6m5orpXuFqrqbmi2le4XqupuaL6V7hiq6m5qX9vQfCvdNFTVrTbfPpR542LxvqQ6UhN9s3xjJH8/pJ1cjzv5Gxtr3wFZvrmZ6PRFNJv4SXvQ6yjHGXRU3/zkDsq9i3KbYdy/Z+v7x16qx1F89/w2SOZvDt5fixLvoGYCb2Jfx29n5r260icajrtVjtfaS2axnmOYtxsX98D2PeH8DalVq1MdBzpZ4GZOixsyDaO0a94lW2uZfO11rydNunnhTaPQS4NokkG1klRPd8/1RRTrVrlK+lmP9cRffUHzx9rDrAr6phLMm2qO+c/iLde170YvZbtnY52eTFJzfTKLi9lklJO2d9TvJd5zNYT6/uz3a+eGOYIL1U4vgySra3NeOSNzPDipm12/E2902f4vcFW1Jf7iPcaF7tk0SgIj+DJ7uMyrWR5G5itUcXRTDWmJFUx8bSburtOpePby+Fj3xItAh6be2otrOp8n4ziaTbWvvv1W/W3x+G337NJLFuuJmWA7D0fvvjqaXZCuNx6/Mh7dUE/G6aX6Xrnqn6r1PAxb6tnqM5IwGOn2rrPzvvdhZ+18++KVRLFqf8xeSu879TGzWZTqwtc89vcj5VS/QeYwZbzQe//xQ/eTzpa3o6P5xaunmKsubvvHqi91eZzH2vtU5+TPFc+p+nxzvRav7siUtSmGRaXkG2P3bP73RNrP/6IoeZ9fyQ/1LuXyRk9nyWW77r3Ibumz+f2sP5PC8FmZV9k1z6zrkqRx9EmX85k/t65TNPVGQXpXzmrx5NqvKrdYWtVVWS4kq8tKnelRefExx3I6ry48alc5VdWqTLfyrJ87+a5a6vmf1/UU5nj6VP362zv17ze/vVWnb96+++mXH9TPb3746Vj9ePL2pJzAq2zV1reeadFUGqkkyhrpyewqq4ORylvERHnJKGtegsm4hOLy2hudBzuz11Hn5ReXWKezeKKmXpzoV2HkpW3PLPk72a188Nh5/lipi7m+RXtgu3gJ64Q//w/+7vMP79gu/rjTvAH7P/kzVOIQhzjEIQ5xiEMc4hCHOMTZepwv//LFEMXaJw1pSEMa0pCGNKQhDWlIQxrSFNN88TeBhsb8iR9xiEMc4hCHOMQhDnGIQxziEOd/mLb4Tl9Ndeyls1ir9qsd5i0+rrzF2XQa3qnnQazMjdqSzMS9bchM3GssMzH/uW44E0inD9LZA+kMQDpDkM4+SOcApHMI0lnJFLASQlW0gyppB1XTDqqoHVRVO6iydlB17aAK20FVtouqbBe2VqMq20VVtlupsstn+a1I1Q/vs5ARr1D9eD4LGXHe1w/gs5AR53z9iD0LGXG+W4To2eiA6ljexixy8Wx0QKUs72EWUXc2OqBqljcwi/Q6m3UQVM/y7mURSGejA6pneeuqnzG3ImMRKmejI14ei9g4Gx1xulsEw9noiNPdIvrNRkec7jbhblZCqIqWdzCbvDYrIVRRy5uYTQSblRCqruV9zCZVzWplRFW2vJXZBKVZCaEqW97NvhC6/74nx3zf0+lM+r6nvlPu943Pn+/tHR4CLOR/3cIs5H/3wizkfxHDLOTfAsEs5N8PwSzk3xzBLOTfKcEs5N82wSwKfsWK82hgfhf8Yhbn0cAML/h1Ls6jgTle8EtgnEcDs7zgV8c4jwbmecEvnHEeTezjDczzgt9g4zzqzXM39/BSyaNXrq3q9133YAiwkO8GzEK+GTAL+V7ALOQlF2Yhr7gwC3nBhVnI6y3MQl5uYRYFbRXOo4H5XdBW4TwamOEFbRXOo4E5XtBW4TwamOUFbRXOo4F5XtBW4Tya2McbmOcFbRXOo9487xuPV3EgfTv5Ybm2ynH29/t9gIV8N2AW8s2AWcj3AmYhL7kwC3nFhVnICy7MQl5vYRbycguzKGircB4NzO+Ctgrn0cAML2ircB4NzPGCtgrn0cAsL2ircB4NzPOCtgrn0cQ+3sA8L2ircB715vme8Xh3OZM8Dsq1VeYblwYvABby3YBZyDcDZiHfC5iFvOTCLOQVF2YhL7gwC3m9hVnIyy3MoqCtwnk0ML8L2iqcRwMzvKCtwnk0MMcL2iqcRwOzvKCtwnk0MM8L2iqcRxP7eAPzvKCtwnnUm+cD4/Ev7Use++Xaqpcvj4/39wEW8t2AWcg3A2Yh3wuYhbzkwizkFRdmIS+4MAt5vYVZyMstzKKgrcJ5NDC/C9oqnEcDM7ygrcJ5NDDHC9oqnEcDs7ygrcJ5NDDPC9oqnEcT+3gD87ygrcJ51Jvnw7x1m2nJY1iurTo+Hg4hFvLdgFnINwNmId8LmIW85MIs5BUXZiEvuDALeb2FWcjLLcyioK3CeTQwvwvaKpxHAzO8oK3CeTQwxwvaKpxHA7O8oK3CeTQwzwvaKpxHE/t4A/O8oK3CedSb5/vG43Uk/Vm8OyjXVh0cuO5gALAoyrkBWRQl4IAsirJxQBZFeVAgi6KkKJBFUYYUyKIoXQpkUZQ7BbIoDFtDeTQwvwsj2lAeDczwwmA3lEcDc7wwDg7l0cAsLwyRQ3k0MM8Lo+dQHk3s4w3M88IsO5TH+nn+oUzC6yKGWR2pib5ZJsjmwbHt5HrcyRNg10bFLrOcE52+iGYTP2kPeh3lOIOO6puf3EG5uNnbDOM+h9r3j71Uj6P47vltkMyTkO9ff4nA6EzgTezr+O3MBBOXPtFw3K1yvNZeMov1HMNkKy+u+4YTuTnMYQ5zmMMc5jCHOcxhDnOYwxzmMIc5zGEOc5jDHOYwhznMYQ5zmMMc5jCHOcxhDnOYwxzmMIc5zGEOc5jDHOYwhznMYQ5zmMMc5jCHOfynGr7rRtc6jgNfv/bMB2udbs/y86rmo7HJ6kdjT3Uc6GTx8dpWZ/kB4mkYpd0wmOi1H5FNvvY53fWfrE26+VfPT6PQS4NokkG1klRPd8/1RRTrVrlPPv+sx3rir76g+WPtYa+j+uaTyz3zQWbzn1aoL1IDtkZ6Kds9G+v0ZJKa65NZXMwmo5y0vaN+XyOxJNT3Z79f+1lucwQXqp1eBkk3ye9KOSNzPDipm12/E2902f4vcFW1Jb756HjGvtA9m0ZJYARfZg+XeTXLw8h8hSqObqohLbGCia/NfNh1OhXPXh4f6554EejQ1Ft7cU3n82QcR7Op9tW336q/LR6/7Z5desni8+9mgu08HL376mh2QbreePzKeHRDPRmnl+p75ap/qtbzMGypZ6vPSMJgpNu7zs773oedtfPti1cSxar9MXspve/Ux8xmUaoLX/PY37MVp/oNMocp44Xe+48fup/0nTo6OppfvHqKueritn+s+lKXx3msvU91Tv5c8ZyqzzfXa/HqjkxZm2JYVEoe5NA985IkGE+0f2wiIpL3+ZX8UO9SLm/0dJZctuvei+yWPpvfz/ozKQyflXmVXfPMui5JGkefdDmf+XPrOkVTbxSkd+WsFk+u/apyi6VVXZXlQrK6rNSZHpUXH3Msp/PqwqN2lVNVrcp0K8/6uZPvqqWe/3ldT2GOp0/Vr7+9U/9+89tbdfrm7buffvlB/fzmh5+O1Y8nb0/KCbzKVm1965kWTaWRSqI4VZPZVVYHI5VHmiTKS0ZZ8xJMxiUUl9fe6DzYmb2OOi+/uMQ6ncUTNfXiRL8KIy9te2bJ38lu5YPHzvPHSl3M9S3aA9vFS1gn/HmzSS/3/Wc+3fPJ3n7i6wtvFqZqGkfZGqafdNSTbw4Ojo9PTp5sOHiGOMQhDnGIQxziEIc4xCEOcf6cOCqZXWX/BFa+Ng8q37szRLH2SUMa0pCGNKQhDWlIQxrSkIY0xTQ3+Z9m/YHmPJxp4hCHOMQhDnGIQxziEIc4xCFOHZz77w10zPcGns6k7w3sO/k7bM+f7+0dHpKUpCQlKUlJSlKSkpSkJCUpSUlK0u0gdXNSL5VIezlpv++6B0OSkpSkJCUpSUlKUpKSlKQkJSlJSbodpH1D+ioOBFL3MCd1nP39fp+kJCUpSUlKUpKSlKQkJSlJSUpSkm4H6Z4hfXc5k0gPctLD7Bi8IClJSUpSkpKUpCQlKUlJSlKSkpSk20E6MKT/0r5Eup+Tvnx5fLy/T1KSkpSkJCUpSUlKUpKSlKQkJSlJt4N0mP9mYqYl0mFOenw8HJKUpCQlKUlJSlKSkpSkJCUpSUlK0m0h3TekryMpWdAd5KQHB647GJCUpCQlKUlJSlKSkpSkJCUpSUlK0sZIlyh+7N2014rddtMgDfXppTfV3VTfpu0nP0azOFmPcfflmS+DKz1JgmgS6iRXWCPx9Kl67vvKU7mSugnSS5VEV1r5/TVnJtfjrjed6onfbhnv1s6aE5ZH10vTuN26bXXUsFfxpLvsJLf8SUl6F+o53q43GV1GcXZ+K9QXFWgXGhfRJN290cH4MjUa51Hol9eY35v/8/z/zC/wW32pvVS9GY3U6ejyyU7RTfr+aTKKg2n6D/E53z/1g+uvD4vnyGKZlgr8o9bIVPBx9qK9YKLjM8cZtFR+KY5afpBMQ+/uWTAJs7Hd8zAaffquJQNmqvPXoNK7aXa+uRpPP3rX3vzRwjPNce3FptrUkfKDq2mouxN9c3o9bre++QpkR+31evl/1k4fo+t7qZcJv/+9FXrnOmw9a/n6wpuFqZrG0UUQ6lZnPnJ223rmdHud1rUXznTr2fCwe/jgODjstEZmzckUsmXk+PjkpPW5U0rV3YhqfyOqextRHWxEdbgR1f2NqB5sRPVwI6pObzOym5ldzmaml7OZ+eVsZoI5m5lhzmammLOZOeZsZpI5m5ll7mZmmbuhPWwzs8zdzCxzLWaZSmZXVytf412jQ4i1X0G05LWtJlryylYTLXldq4mWXLuqiZZcuaqJlly3qomWXLWqiZZcs6qJlm0MKqpuZE6VbQsqqm5kVpVtCiqqbmRelW0JKqpuZGaVbQgqqm5kbpVtByqqbma/2sjcKtsLVFStO7dugklq2wacmyeUVy15WSuqlrysFVVLXtaKqiWXrIqqJZesiqoll6yKqiWXrIqqJZesiqpl+4GqspuZXWU7gqqym5lfZXuCqrKbmWFlu4KqspuZY2X7gqqym5llZTuDqrIb2sM2M8vKNgdVZSvNsg9l3nBYvDeojtRE3yzf0Mjfx2gn1+NO/obE2nculm8wJjp9Ec0mftIe9DrKcQYd1Tc/uYNy737cZhj375v6/rGX6nEU3z2/DZL5G3T3l6LEu5iZwJvY1/HbmXm/rPSJhuNuleO19pJZrOcY5i2/xS2wfV82fyNp1epUx4FOFriZ0+KGTMMo7Zp3t9ZaJl973etJk25ed9Mo9NIgmmRQrSTV091zfRHFulWukn7WYz3xV1/Q/LH2MKuCvqkE82aYY/6zeNtz7TvCS9nu2VinJ5PUXJ/M4mI2GeWk7R31e4n3PQ2hvj/7/dq5YY7gQrXTyyDJ6tqcV87IHA9O6mbX78QbXbb/C1xVbYm/eG9woXs2jZLACL7MHi7zapaHkfkKVRzdVENaYgUTX5uJu+t0Kp69PD7WPfEi0KGpt/bims7nyTiOZlPtq2+/VX9bPH7bPbv0ksV6YibYzsPRu6+OZhek643Hr4xHN9STcXqpvleu+qdqPQ/Dlnq2+owkDEa6vevsvO992Fk73754JVGs2h+zl9L7Tn3MbBaluvA1j/39SDnVb5A5TBkv9N5//ND9pLPl7ehofvHqKeaqi9v+sepLXR7nsfY+1Tn5c8Vzqj7fXK/FqzsyZW2KYVEp+cbYPZv/TY/287/qSd7nV/JDvUu5vNHTWXLZrnsvslv6bH4/68+kMHxW5lV2zTPruiRpHH3S5Xzmz63rFE29UZDelbNaPLn2q8otllZ1VZYLyeqyUmd6VF58zLGczqsLj9pVTlW1KtOtPOvnTr6rlnr+53U9hTmePlW//vZO/fvNb2/V6Zu373765Qf185sffjpWP568PSkn8CpbtfWtZ1o0lUYqibJGejK7yupgpPIWMVFeMsqal2AyLqG4vPZG58HO7HXUefnFJdbpLJ6oqRcn+lUYeWnbM0v+TnYrHzx2nj9W6mKub9Ee2C5ewjrhz/+Dv738wxuwiz+wNG+o/k/+FJQ4xCEOcYhDHOIQhzjEIQ5xth7nyz9wMUSx9klDGtKQhjSkIQ1pSEMa0pCGNMU0X/xJoKExf+JHHOIQhzjEIQ5xiEMc4hCHOMT5HyYevtNXUx176SzWqv1qh5mHjyrz8F+eqbgfdf4/z6/OAz1JlbllJvlQ+7Ps+u+q/d6rLQlBHG5DCOKwsRDE/KOndUOYQDp9kM4eSGcA0hmCdPZBOgcgnUOQzkq6gJUQqqIdVEk7qJp2UEXtoKraQZW1g6prB1XYDqqyXVRlu7C1GlXZLqqy3UqVXT60b0WqfkyfhYx4hepH8VnIiPO+ftyehYw45+tH6lnIiPPdIjbPRgdUx/I2ZhGGZ6MDKmV5D7OIuLPRAVWzvIFZBNfZrIOgepZ3L4s4OhsdUD3LW1f9kLkVGYtYORsd8fJYRMfZ6IjT3SIezkZHnO4WEXA2OuJ0t4l5sxJCVbS8g9mEt1kJoYpa3sRsItmshFB1Le9jNkFrVisjqrLlrcwmPs1KCFXZ8m7GULStCEXjMIc5zGEOc5jDHOYwhznMYQ5zmMMc5vBjGr7rRtc6jgNfv/bML6qcbo+h+A9eCUPx7w+G4lc6GIrPUPwKB0Px/3gwFP+PB0PxKx4MxWco/lcPhuIThzjEIQ5xiEMc4hCHOMQhDnG2IVKSNKQhDWlIQxrSkIY0pCENabaH5i8TZUkc4hCHOMQhDnGIQxziEIc49f3+B6H4L4MrPUmCaBLqJGEk/uOKxI/iT+rk4iIYBXoyursPwm82An/x7D+MPPz/y5/n/3uvvvjh/n/OI//O/O9lehX+4//5/wFX+qrO"
               },
               {
                  "name" : "annual_peak_electric_demand",
                  "units" : "kW",
                  "value" : 266.65815999999995
               },
               {
                  "name" : "first_year_capital_cost",
                  "units" : "$",
                  "value" : 0
               },
               {
                  "name" : "annual_utility_cost",
                  "units" : "$",
                  "value" : 0
               },
               {
                  "name" : "total_lifecycle_cost",
                  "units" : "$",
                  "value" : 0
               }
            ],
            "step_warnings" : []
         }
      }
   ],
   "updated_at" : "20170710T192103Z",
   "weather_file" : "USA_CO_Denver.Intl.AP.725650_TMY3.epw"
}
