{
   "completed_at" : "20170710T190436Z",
   "completed_status" : "Success",
   "created_at" : "2017-07-10 19:02:30 +0000",
   "current_step" : 5,
   "description" : "",
   "eplusout_err" : "Program Version,EnergyPlus, Version 8.7.0-78a111df4a, YMD=2017.07.10 19:03,IDD_Version 8.7.0\n   ************* IDF Context for following error/warning message:\n   ************* Note -- lines truncated at 300 characters, if necessary...\n   *************      5 Building,\n   ************* indicated Name=NECB 2011-Warehouse-NECB HDD Method-CAN_ON_Windsor.715380_CWEC.epw created: 2017-07-10 19:02:36 +0000\n   ************* Only last 1 lines before error line shown.....\n   *************      6   NECB 2011-Warehouse-NECB HDD Method-CAN_ON_Windsor.715380_CWEC.epw created: 2017-07-10 19:02:36 +0000, !- Name\n   ** Warning ** IP: IDF line~6 Alpha Argument length exceeds maximum, will be truncated=  NECB 2011-Warehouse-NECB HDD Method-CAN_ON_Windsor.715380_CWEC.epw created: 2017-07-10 19:02:36 +000\n   **   ~~~   ** Will be processed as Alpha=NECB 2011-WAREHOUSE-NECB HDD METHOD-CAN_ON_WINDSOR.715380_CWEC.EPW CREATED: 2017-07-10 19:02:36 +0000\n   ************* Beginning Zone Sizing Calculations\n   ** Warning ** ProcessScheduleInput: Schedule:Day:Interval=\"ECONOMIZER MAX OA FRACTION 100 PCT DEFAULT\", Blank Schedule Type Limits Name input -- will not be validated.\n   ** Warning ** ProcessScheduleInput: Schedule:Day:Interval=\"SCHEDULE DAY 1\", Blank Schedule Type Limits Name input -- will not be validated.\n   ** Warning ** ProcessScheduleInput: Schedule:Day:Interval=\"SCHEDULE DAY 10\", Blank Schedule Type Limits Name input -- will not be validated.\n   ** Warning ** ProcessScheduleInput: Schedule:Day:Interval=\"SCHEDULE DAY 11\", Blank Schedule Type Limits Name input -- will not be validated.\n   ** Warning ** ProcessScheduleInput: Schedule:Day:Interval=\"SCHEDULE DAY 12\", Blank Schedule Type Limits Name input -- will not be validated.\n   ** Warning ** ProcessScheduleInput: Schedule:Day:Interval=\"SCHEDULE DAY 13\", Blank Schedule Type Limits Name input -- will not be validated.\n   ** Warning ** ProcessScheduleInput: Schedule:Day:Interval=\"SCHEDULE DAY 14\", Blank Schedule Type Limits Name input -- will not be validated.\n   ** Warning ** ProcessScheduleInput: Schedule:Day:Interval=\"SCHEDULE DAY 15\", Blank Schedule Type Limits Name input -- will not be validated.\n   ** Warning ** ProcessScheduleInput: Schedule:Day:Interval=\"SCHEDULE DAY 16\", Blank Schedule Type Limits Name input -- will not be validated.\n   ** Warning ** ProcessScheduleInput: Schedule:Day:Interval=\"SCHEDULE DAY 17\", Blank Schedule Type Limits Name input -- will not be validated.\n   ** Warning ** ProcessScheduleInput: Schedule:Day:Interval=\"SCHEDULE DAY 18\", Blank Schedule Type Limits Name input -- will not be validated.\n   ** Warning ** ProcessScheduleInput: Schedule:Day:Interval=\"SCHEDULE DAY 19\", Blank Schedule Type Limits Name input -- will not be validated.\n   ** Warning ** ProcessScheduleInput: Schedule:Day:Interval=\"SCHEDULE DAY 2\", Blank Schedule Type Limits Name input -- will not be validated.\n   ** Warning ** ProcessScheduleInput: Schedule:Day:Interval=\"SCHEDULE DAY 5\", Blank Schedule Type Limits Name input -- will not be validated.\n   ** Warning ** ProcessScheduleInput: Schedule:Day:Interval=\"SCHEDULE DAY 6\", Blank Schedule Type Limits Name input -- will not be validated.\n   ** Warning ** ProcessScheduleInput: Schedule:Day:Interval=\"SCHEDULE DAY 7\", Blank Schedule Type Limits Name input -- will not be validated.\n   ** Warning ** ProcessScheduleInput: Schedule:Day:Interval=\"SCHEDULE DAY 8\", Blank Schedule Type Limits Name input -- will not be validated.\n   ** Warning ** ProcessScheduleInput: Schedule:Day:Interval=\"SCHEDULE DAY 9\", Blank Schedule Type Limits Name input -- will not be validated.\n   ** Warning ** ProcessScheduleInput: Schedule:Year=\"ECONOMIZER MAX OA FRACTION 100 PCT\", Blank Schedule Type Limits Name input -- will not be validated.\n   ** Warning ** ProcessScheduleInput: Schedule:Year=\"SCHEDULE RULESET 10\", Blank Schedule Type Limits Name input -- will not be validated.\n   ** Warning ** ProcessScheduleInput: Schedule:Year=\"SCHEDULE RULESET 11\", Blank Schedule Type Limits Name input -- will not be validated.\n   ** Warning ** ProcessScheduleInput: Schedule:Year=\"SCHEDULE RULESET 3\", Blank Schedule Type Limits Name input -- will not be validated.\n   ** Warning ** ProcessScheduleInput: Schedule:Year=\"SCHEDULE RULESET 4\", Blank Schedule Type Limits Name input -- will not be validated.\n   ** Warning ** ProcessScheduleInput: Schedule:Year=\"SCHEDULE RULESET 5\", Blank Schedule Type Limits Name input -- will not be validated.\n   ** Warning ** ProcessScheduleInput: Schedule:Year=\"SCHEDULE RULESET 6\", Blank Schedule Type Limits Name input -- will not be validated.\n   ** Warning ** ProcessScheduleInput: Schedule:Year=\"SCHEDULE RULESET 7\", Blank Schedule Type Limits Name input -- will not be validated.\n   ** Warning ** ProcessScheduleInput: Schedule:Year=\"SCHEDULE RULESET 8\", Blank Schedule Type Limits Name input -- will not be validated.\n   ** Warning ** ProcessScheduleInput: Schedule:Year=\"SCHEDULE RULESET 9\", Blank Schedule Type Limits Name input -- will not be validated.\n   ** Warning ** ProcessScheduleInput: Schedule:Constant=\"ALWAYS OFF DISCRETE\", Blank Schedule Type Limits Name input -- will not be validated.\n   ** Warning ** ProcessScheduleInput: Schedule:Constant=\"ALWAYS ON CONTINUOUS\", Blank Schedule Type Limits Name input -- will not be validated.\n   ** Warning ** CheckUsedConstructions: There are 22 nominally unused constructions in input.\n   **   ~~~   ** For explicit details on each unused construction, use Output:Diagnostics,DisplayExtraWarnings;\n   ************* Beginning System Sizing Calculations\n   ************* Beginning Plant Sizing Calculations\n   ** Warning ** GetDXCoils: Coil:Cooling:DX:SingleSpeed=\"COIL COOLING DX SINGLE SPEED 1 37KBTU/HR 14.0SEER\", invalid\n   **   ~~~   ** ...Part Load Fraction Correlation Curve Name = DXCOOL-NECB2011-REF-COOLPLFFPLR has out of range value.\n   **   ~~~   ** ...Curve maximum must be <= 1.0, curve max at PLR = 0.99 is 1.015\n   **   ~~~   ** ...Setting curve maximum to 1.0 and simulation continues.\n   ** Warning ** GetDXCoils: Coil:Cooling:DX:SingleSpeed=\"COIL COOLING DX SINGLE SPEED 3 194KBTU/HR 9.7EER\", invalid\n   **   ~~~   ** ...Part Load Fraction Correlation Curve Name = DXCOOL-NECB2011-REF-COOLPLFFPLR 2 has out of range value.\n   **   ~~~   ** ...Curve maximum must be <= 1.0, curve max at PLR = 0.99 is 1.015\n   **   ~~~   ** ...Setting curve maximum to 1.0 and simulation continues.\n   ** Warning ** GetDXCoils: Coil:Cooling:DX:SingleSpeed=\"COIL COOLING DX SINGLE SPEED 2 456KBTU/HR 8.21EER\", invalid\n   **   ~~~   ** ...Part Load Fraction Correlation Curve Name = DXCOOL-NECB2011-REF-COOLPLFFPLR 1 has out of range value.\n   **   ~~~   ** ...Curve maximum must be <= 1.0, curve max at PLR = 0.99 is 1.015\n   **   ~~~   ** ...Setting curve maximum to 1.0 and simulation continues.\n   ** Warning ** The Standard Ratings is calculated for Coil:Cooling:DX:SingleSpeed = COIL COOLING DX SINGLE SPEED 1 37KBTU/HR 14.0SEER but not at the AHRI test condition due to curve out of bound.\n   **   ~~~   **  Review the Standard Ratings calculations in the Engineering Reference for this coil type. Also, use Output:Diagnostics, DisplayExtraWarnings for further guidance.\n   ** Warning ** The Standard Ratings is calculated for Coil:Cooling:DX:SingleSpeed = COIL COOLING DX SINGLE SPEED 3 194KBTU/HR 9.7EER but not at the AHRI test condition due to curve out of bound.\n   **   ~~~   **  Review the Standard Ratings calculations in the Engineering Reference for this coil type. Also, use Output:Diagnostics, DisplayExtraWarnings for further guidance.\n   ** Warning ** The Standard Ratings is calculated for Coil:Cooling:DX:SingleSpeed = COIL COOLING DX SINGLE SPEED 2 456KBTU/HR 8.21EER but not at the AHRI test condition due to curve out of bound.\n   **   ~~~   **  Review the Standard Ratings calculations in the Engineering Reference for this coil type. Also, use Output:Diagnostics, DisplayExtraWarnings for further guidance.\n   ** Warning ** Check input. Pump nominal power or motor efficiency is set to 0, for pump=SERVICE WATER LOOP PUMP\n   ** Warning ** Output:Meter: invalid Name=\"DISTRICTCOOLING:FACILITY\" - not found.\n   ** Warning ** Output:Meter: invalid Name=\"DISTRICTHEATING:FACILITY\" - not found.\n   ** Warning ** Output:Meter:MeterFileOnly requested for \"Electricity:Facility\" (TimeStep), already on \"Output:Meter\". Will report to both eplusout.eso and eplusout.mtr\n   ************* Testing Individual Branch Integrity\n   ************* All Branches passed integrity testing\n   ************* Testing Individual Supply Air Path Integrity\n   ************* All Supply Air Paths passed integrity testing\n   ************* Testing Individual Return Air Path Integrity\n   ************* All Return Air Paths passed integrity testing\n   ************* No node connection errors were found.\n   ************* Beginning Simulation\n   ** Warning ** CalcDoe2DXCoil: Coil:Cooling:DX:SingleSpeed \"COIL COOLING DX SINGLE SPEED 1 37KBTU/HR 14.0SEER\" - Air-cooled condenser inlet dry-bulb temperature below 0 C. Outdoor dry-bulb temperature = -3.45\n   **   ~~~   **  ... Occurrence info = RUN PERIOD 1, 01/03 06:03 - 06:05\n   **   ~~~   ** ... Operation at low ambient temperatures may require special performance curves.\n   ** Warning ** CalcDoe2DXCoil: Coil:Cooling:DX:SingleSpeed \"COIL COOLING DX SINGLE SPEED 1 37KBTU/HR 14.0SEER\" - Full load outlet air dry-bulb temperature < 2C. This indicates the possibility of coil frost/freeze. Outlet temperature = 1.66 C.\n   **   ~~~   **  ...Occurrence info = RUN PERIOD 1, 01/10 11:45 - 12:00\n   **   ~~~   ** ... Possible reasons for low outlet air dry-bulb temperatures are: This DX coil\n   **   ~~~   **    1) may have a low inlet air dry-bulb temperature. Inlet air temperature = 17.408 C.\n   **   ~~~   **    2) may have a low air flow rate per watt of cooling capacity. Check inputs.\n   **   ~~~   **    3) is used as part of a HX assisted cooling coil which uses a high sensible effectiveness. Check inputs.\n   ** Warning ** CalcDoe2DXCoil: Coil:Cooling:DX:SingleSpeed \"COIL COOLING DX SINGLE SPEED 2 456KBTU/HR 8.21EER\" - Full load outlet air dry-bulb temperature < 2C. This indicates the possibility of coil frost/freeze. Outlet temperature = 1.85 C.\n   **   ~~~   **  ...Occurrence info = RUN PERIOD 1, 05/25 10:30 - 10:45\n   **   ~~~   ** ... Possible reasons for low outlet air dry-bulb temperatures are: This DX coil\n   **   ~~~   **    1) may have a low inlet air dry-bulb temperature. Inlet air temperature = 17.075 C.\n   **   ~~~   **    2) may have a low air flow rate per watt of cooling capacity. Check inputs.\n   **   ~~~   **    3) is used as part of a HX assisted cooling coil which uses a high sensible effectiveness. Check inputs.\n   ** Warning ** CalcDoe2DXCoil: Coil:Cooling:DX:SingleSpeed \"COIL COOLING DX SINGLE SPEED 3 194KBTU/HR 9.7EER\" - Full load outlet air dry-bulb temperature < 2C. This indicates the possibility of coil frost/freeze. Outlet temperature = 1.93 C.\n   **   ~~~   **  ...Occurrence info = RUN PERIOD 1, 05/25 10:45 - 11:00\n   **   ~~~   ** ... Possible reasons for low outlet air dry-bulb temperatures are: This DX coil\n   **   ~~~   **    1) may have a low inlet air dry-bulb temperature. Inlet air temperature = 17.200 C.\n   **   ~~~   **    2) may have a low air flow rate per watt of cooling capacity. Check inputs.\n   **   ~~~   **    3) is used as part of a HX assisted cooling coil which uses a high sensible effectiveness. Check inputs.\n   ************* Simulation Error Summary *************\n   ************* There are 9 unused schedules in input.\n   ************* There are 9 unused week schedules in input.\n   ************* There are 18 unused day schedules in input.\n   ************* Use Output:Diagnostics,DisplayUnusedSchedules; to see them.\n   *************\n   ************* ===== Recurring Error Summary =====\n   ************* The following recurring error messages occurred.\n   *************\n   *************  ** Warning ** CalcDoe2DXCoil: Coil:Cooling:DX:SingleSpeed=\"COIL COOLING DX SINGLE SPEED 1 37KBTU/HR 14.0SEER\" - Low condenser dry-bulb temperature error continues...\n   *************  **   ~~~   **   This error occurred 249 total times;\n   *************  **   ~~~   **   during Warmup 0 times;\n   *************  **   ~~~   **   during Sizing 0 times.\n   *************  **   ~~~   **   Max=-2.500000E-002 [C]  Min=-20.15 [C]\n   *************\n   *************  ** Warning ** CalcDoe2DXCoil: Coil:Cooling:DX:SingleSpeed=\"COIL COOLING DX SINGLE SPEED 1 37KBTU/HR 14.0SEER\" - Full load outlet temperature indicates a possibility of frost/freeze error continues. Outlet air temperature statistics follow:\n   *************  **   ~~~   **   This error occurred 20 total times;\n   *************  **   ~~~   **   during Warmup 0 times;\n   *************  **   ~~~   **   during Sizing 0 times.\n   *************  **   ~~~   **   Max=1.991408  Min=0.848826\n   *************\n   *************  ** Warning ** CalcDoe2DXCoil: Coil:Cooling:DX:SingleSpeed=\"COIL COOLING DX SINGLE SPEED 2 456KBTU/HR 8.21EER\" - Full load outlet temperature indicates a possibility of frost/freeze error continues. Outlet air temperature statistics follow:\n   *************  **   ~~~   **   This error occurred 4 total times;\n   *************  **   ~~~   **   during Warmup 0 times;\n   *************  **   ~~~   **   during Sizing 0 times.\n   *************  **   ~~~   **   Max=1.90084  Min=1.543421\n   *************\n   *************  ** Warning ** CalcDoe2DXCoil: Coil:Cooling:DX:SingleSpeed=\"COIL COOLING DX SINGLE SPEED 3 194KBTU/HR 9.7EER\" - Full load outlet temperature indicates a possibility of frost/freeze error continues. Outlet air temperature statistics follow:\n   *************  **   ~~~   **   This error occurred 1 total times;\n   *************  **   ~~~   **   during Warmup 0 times;\n   *************  **   ~~~   **   during Sizing 0 times.\n   *************  **   ~~~   **   Max=1.93202  Min=1.93202\n   *************\n   *************\n   ************* ===== Final Error Summary =====\n   ************* The following error categories occurred.  Consider correcting or noting.\n   ************* Nominally Unused Constructions\n   ************* ..The nominally unused constructions warning is provided to alert you to potential conditions that can cause\n   ************* ..extra time during simulation. Each construction is calculated by the algorithm indicated in the HeatBalanceAlgorithm\n   ************* ..object. You may remove the constructions indicated (when you use the DisplayExtraWarnings option).\n   *************\n   ************* EnergyPlus Warmup Error Summary. During Warmup: 0 Warning; 0 Severe Errors.\n   ************* EnergyPlus Sizing Error Summary. During Sizing: 31 Warning; 0 Severe Errors.\n   ************* EnergyPlus Completed Successfully-- 316 Warning; 0 Severe Errors; Elapsed Time=00hr 00min 43.20sec\n",
   "file_format_version" : "0.0.1",
   "file_paths" : [ "../weather", "../seeds", "../seed" ],
   "hash" : "C6C4C099",
   "measure_paths" : [ "../measures" ],
   "name" : "LHS Autogenerated 626",
   "osa_id" : "4fef0e0f-5396-4c55-a6e1-2cd6803db3ab",
   "osd_id" : "75113f34-8c59-468c-b74f-a078e6c3a391",
   "run_directory" : "./run",
   "seed_file" : "seed.osm",
   "started_at" : "20170710T190233Z",
   "steps" : [
      {
         "arguments" : {
            "__SKIP__" : false,
            "building_type" : "Warehouse",
            "climate_zone" : "NECB HDD Method",
            "epw_file" : "CAN_ON_Windsor.715380_CWEC.epw",
            "template" : "NECB 2011"
         },
         "measure_dir_name" : "create_prototype_building",
         "name" : "create_prototype_building",
         "result" : {
            "completed_at" : "20170710T190324Z",
            "measure_class_name" : "CreatePrototypeBuilding",
            "measure_display_name" : "Create Prototype Building",
            "measure_name" : "create_prototype_building",
            "measure_taxonomy" : "Whole Building.Space Types",
            "measure_type" : "ModelMeasure",
            "measure_uid" : "ae90fsd7-a651-467a-bc8d-29d310b0f937",
            "measure_version_id" : "c6ec5c18-5595-459f-a082-09a19c8c869c",
            "measure_version_modified" : "20170519T182315Z",
            "measure_xml_checksum" : "057E8D9D",
            "started_at" : "20170710T190235Z",
            "stderr" : "",
            "stdout" : "[OpenStudio.Measure] <0> OSArgumentVector is deprecated, use OpenStudio::Measure::OSArgumentVector instead.\n[openstudio.EpwFile] <0> Successive data points (1965-Jan-31 to 1977-Feb-01, ending on line 753) are greater than 1 day apart in EPW file '/usr/local/bundle/bundler/gems/openstudio-standards-f448df66933d/openstudio-standards/data/weather/CAN_ON_Windsor.715380_CWEC.epw'. Data will be treated as typical (TMY)\n[openstudio.setFileExtension] <0> Path p, '/usr/local/bundle/bundler/gems/openstudio-standards-f448df66933d/openstudio-standards/data/weather/CAN_ON_Windsor.715380_CWEC.ddy', has an unexpected file extension. Was expecting 'idf'.\n[openstudio.model.YearDescription] <1> 'UseWeatherFile' is not yet a supported option for YearDescription\n[openstudio.model.YearDescription] <1> 'UseWeatherFile' is not yet a supported option for YearDescription\n[openstudio.setFileExtension] <0> Path p, '/usr/local/bundle/bundler/gems/openstudio-standards-f448df66933d/openstudio-standards/data/weather/CAN_ON_Windsor.715380_CWEC.ddy', has an unexpected file extension. Was expecting 'idf'.\n[openstudio.model.YearDescription] <1> 'UseWeatherFile' is not yet a supported option for YearDescription\n[openstudio.model.YearDescription] <1> 'UseWeatherFile' is not yet a supported option for YearDescription\n[openstudio.EpwFile] <0> Successive data points (1965-Jan-31 to 1977-Feb-01, ending on line 753) are greater than 1 day apart in EPW file '/usr/local/bundle/bundler/gems/openstudio-standards-f448df66933d/openstudio-standards/data/weather/CAN_ON_Windsor.715380_CWEC.epw'. Data will be treated as typical (TMY)\n[openstudio.weather.Model] <0> Could not find ground temperatures; will use generic temperatures, which will skew results.\n[openstudio.setFileExtension] <0> Path p, '/usr/local/bundle/bundler/gems/openstudio-standards-f448df66933d/openstudio-standards/data/weather/CAN_ON_Windsor.715380_CWEC.ddy', has an unexpected file extension. Was expecting 'idf'.\n[openstudio.model.YearDescription] <1> 'UseWeatherFile' is not yet a supported option for YearDescription\n[openstudio.model.YearDescription] <1> 'UseWeatherFile' is not yet a supported option for YearDescription\n[openstudio.EpwFile] <0> Successive data points (1965-Jan-31 to 1977-Feb-01, ending on line 753) are greater than 1 day apart in EPW file '/usr/local/bundle/bundler/gems/openstudio-standards-f448df66933d/openstudio-standards/data/weather/CAN_ON_Windsor.715380_CWEC.epw'. Data will be treated as typical (TMY)\n[openstudio.setFileExtension] <0> Path p, '/usr/local/bundle/bundler/gems/openstudio-standards-f448df66933d/openstudio-standards/data/weather/CAN_ON_Windsor.715380_CWEC.ddy', has an unexpected file extension. Was expecting 'idf'.\n[openstudio.model.YearDescription] <1> 'UseWeatherFile' is not yet a supported option for YearDescription\n[openstudio.model.YearDescription] <1> 'UseWeatherFile' is not yet a supported option for YearDescription\n[openstudio.setFileExtension] <0> Path p, '/usr/local/bundle/bundler/gems/openstudio-standards-f448df66933d/openstudio-standards/data/weather/CAN_ON_Windsor.715380_CWEC.ddy', has an unexpected file extension. Was expecting 'idf'.\n[openstudio.model.YearDescription] <1> 'UseWeatherFile' is not yet a supported option for YearDescription\n[openstudio.model.YearDescription] <1> 'UseWeatherFile' is not yet a supported option for YearDescription\n[openstudio.EpwFile] <0> Successive data points (1965-Jan-31 to 1977-Feb-01, ending on line 753) are greater than 1 day apart in EPW file '/usr/local/bundle/bundler/gems/openstudio-standards-f448df66933d/openstudio-standards/data/weather/CAN_ON_Windsor.715380_CWEC.epw'. Data will be treated as typical (TMY)\n[openstudio.setFileExtension] <0> Path p, '/usr/local/bundle/bundler/gems/openstudio-standards-f448df66933d/openstudio-standards/data/weather/CAN_ON_Windsor.715380_CWEC.ddy', has an unexpected file extension. Was expecting 'idf'.\n[openstudio.model.YearDescription] <1> 'UseWeatherFile' is not yet a supported option for YearDescription\n[openstudio.model.YearDescription] <1> 'UseWeatherFile' is not yet a supported option for YearDescription\n[openstudio.setFileExtension] <0> Path p, '/usr/local/bundle/bundler/gems/openstudio-standards-f448df66933d/openstudio-standards/data/weather/CAN_ON_Windsor.715380_CWEC.ddy', has an unexpected file extension. Was expecting 'idf'.\n[openstudio.model.YearDescription] <1> 'UseWeatherFile' is not yet a supported option for YearDescription\n[openstudio.model.YearDescription] <1> 'UseWeatherFile' is not yet a supported option for YearDescription\n[utilities.idf.WorkspaceObject] <0> Object of type 'Schedule:Constant' and named 'Always Off Discrete', points to an object named OnOff 1 from field 1, but that object cannot be located.\n[utilities.idf.WorkspaceObject] <0> Object of type 'Schedule:Constant' and named 'Always On Continuous', points to an object named Fractional 1 from field 1, but that object cannot be located.\n[utilities.idf.WorkspaceObject] <0> Object of type 'Schedule:Constant' and named 'Always Off Discrete', points to an object named OnOff 1 from field 1, but that object cannot be located.\n[utilities.idf.WorkspaceObject] <0> Object of type 'Schedule:Constant' and named 'Always On Continuous', points to an object named Fractional 1 from field 1, but that object cannot be located.\n[openstudio.standards.Fan] <0> For Fan Constant Volume 1, there is no greater nominal HP.  Use the efficiency of the largest motor category.\n[openstudio.standards.Fan] <0> For Fan Constant Volume 2, there is no greater nominal HP.  Use the efficiency of the largest motor category.\n[openstudio.standards.Fan] <0> For Fan Constant Volume 3, there is no greater nominal HP.  Use the efficiency of the largest motor category.\n[openstudio.EpwFile] <0> Successive data points (1965-Jan-31 to 1977-Feb-01, ending on line 753) are greater than 1 day apart in EPW file '/usr/local/bundle/bundler/gems/openstudio-standards-f448df66933d/openstudio-standards/data/weather/CAN_ON_Windsor.715380_CWEC.epw'. Data will be treated as typical (TMY)\n[openstudio.setFileExtension] <0> Path p, '/usr/local/bundle/bundler/gems/openstudio-standards-f448df66933d/openstudio-standards/data/weather/CAN_ON_Windsor.715380_CWEC.ddy', has an unexpected file extension. Was expecting 'idf'.\n[openstudio.model.YearDescription] <1> 'UseWeatherFile' is not yet a supported option for YearDescription\n[openstudio.model.YearDescription] <1> 'UseWeatherFile' is not yet a supported option for YearDescription\n[openstudio.setFileExtension] <0> Path p, '/usr/local/bundle/bundler/gems/openstudio-standards-f448df66933d/openstudio-standards/data/weather/CAN_ON_Windsor.715380_CWEC.ddy', has an unexpected file extension. Was expecting 'idf'.\n[openstudio.model.YearDescription] <1> 'UseWeatherFile' is not yet a supported option for YearDescription\n[openstudio.model.YearDescription] <1> 'UseWeatherFile' is not yet a supported option for YearDescription\n[openstudio.EpwFile] <0> Successive data points (1965-Jan-31 to 1977-Feb-01, ending on line 753) are greater than 1 day apart in EPW file '/usr/local/bundle/bundler/gems/openstudio-standards-f448df66933d/openstudio-standards/data/weather/CAN_ON_Windsor.715380_CWEC.epw'. Data will be treated as typical (TMY)\n[openstudio.setFileExtension] <0> Path p, '/usr/local/bundle/bundler/gems/openstudio-standards-f448df66933d/openstudio-standards/data/weather/CAN_ON_Windsor.715380_CWEC.ddy', has an unexpected file extension. Was expecting 'idf'.\n[openstudio.model.YearDescription] <1> 'UseWeatherFile' is not yet a supported option for YearDescription\n[openstudio.model.YearDescription] <1> 'UseWeatherFile' is not yet a supported option for YearDescription\n[openstudio.setFileExtension] <0> Path p, '/usr/local/bundle/bundler/gems/openstudio-standards-f448df66933d/openstudio-standards/data/weather/CAN_ON_Windsor.715380_CWEC.ddy', has an unexpected file extension. Was expecting 'idf'.\n[openstudio.model.YearDescription] <1> 'UseWeatherFile' is not yet a supported option for YearDescription\n[openstudio.model.YearDescription] <1> 'UseWeatherFile' is not yet a supported option for YearDescription\n[openstudio.EpwFile] <0> Successive data points (1965-Jan-31 to 1977-Feb-01, ending on line 753) are greater than 1 day apart in EPW file '/usr/local/bundle/bundler/gems/openstudio-standards-f448df66933d/openstudio-standards/data/weather/CAN_ON_Windsor.715380_CWEC.epw'. Data will be treated as typical (TMY)\n[openstudio.setFileExtension] <0> Path p, '/usr/local/bundle/bundler/gems/openstudio-standards-f448df66933d/openstudio-standards/data/weather/CAN_ON_Windsor.715380_CWEC.ddy', has an unexpected file extension. Was expecting 'idf'.\n[openstudio.model.YearDescription] <1> 'UseWeatherFile' is not yet a supported option for YearDescription\n[openstudio.model.YearDescription] <1> 'UseWeatherFile' is not yet a supported option for YearDescription\n[openstudio.setFileExtension] <0> Path p, '/usr/local/bundle/bundler/gems/openstudio-standards-f448df66933d/openstudio-standards/data/weather/CAN_ON_Windsor.715380_CWEC.ddy', has an unexpected file extension. Was expecting 'idf'.\n[openstudio.model.YearDescription] <1> 'UseWeatherFile' is not yet a supported option for YearDescription\n[openstudio.model.YearDescription] <1> 'UseWeatherFile' is not yet a supported option for YearDescription\n[openstudio.standards.Fan] <0> For Fan Constant Volume 1, there is no greater nominal HP.  Use the efficiency of the largest motor category.\n[openstudio.standards.Fan] <0> For Fan Constant Volume 2, there is no greater nominal HP.  Use the efficiency of the largest motor category.\n[openstudio.standards.Fan] <0> For Fan Constant Volume 3, there is no greater nominal HP.  Use the efficiency of the largest motor category.\n",
            "step_errors" : [],
            "step_files" : [],
            "step_info" : [
               "Started adding geometry",
               "Finished adding geometry",
               "Started adding weather file for climate zone: NECB HDD Method.",
               "Template =",
               "Setting Zone3 Bulk Storage to Space Function.Warehouse - med/blk",
               "Setting Zone2 Fine Storage to Space Function.Warehouse - fine",
               "Setting Zone1 Office to Space Function.Office - enclosed",
               "Started applying space types (loads)",
               "Space Function Office - enclosed had no people, one has been created.",
               "Space Function Office - enclosed set occupancy to 4.65 people/1000 ft^2.",
               "Space Function Office - enclosed had no lights, one has been created.",
               "Space Function Office - enclosed set LPD to 1.105536975 W/ft^2.",
               "Space Function Office - enclosed had no electric equipment, one has been created.",
               "Space Function Office - enclosed set electric EPD to 0.696767001 W/ft^2.",
               "Space Function Office - enclosed had no ventilation specification, one has been created.",
               "Space Function Office - enclosed set ventilation per area to 0.085 cfm/ft^2.",
               "Space Function Office - enclosed had no infiltration objects, one has been created.",
               "Space Function Office - enclosed set infiltration to 0.0 per ft^2 exterior surface area.",
               "Space Function Office - enclosed set occupancy schedule to NECB-A-Occupancy.",
               "Space Function Office - enclosed set occupant activity schedule to NECB-Activity.",
               "Space Function Office - enclosed set lighting schedule to NECB-A-Lighting.",
               "Space Function Office - enclosed set electric equipment schedule to NECB-A-Electric-Equipment.",
               "Space Function Office - enclosed set infiltration schedule to Always On.",
               "Space Function Office - enclosed set heating setpoint schedule to NECB-A-Thermostat Setpoint-Heating.",
               "Space Function Office - enclosed set cooling setpoint schedule to NECB-A-Thermostat Setpoint-Cooling.",
               "Space Function Warehouse - fine had no people, one has been created.",
               "Space Function Warehouse - fine set occupancy to 1.86 people/1000 ft^2.",
               "Space Function Warehouse - fine had no lights, one has been created.",
               "Space Function Warehouse - fine set LPD to 0.947603122 W/ft^2.",
               "Space Function Warehouse - fine had no electric equipment, one has been created.",
               "Space Function Warehouse - fine set electric EPD to 0.092902267 W/ft^2.",
               "Space Function Warehouse - fine had no ventilation specification, one has been created.",
               "Space Function Warehouse - fine set ventilation per area to 0.06 cfm/ft^2.",
               "Space Function Warehouse - fine had no infiltration objects, one has been created.",
               "Space Function Warehouse - fine set infiltration to 0.0 per ft^2 exterior surface area.",
               "Space Function Warehouse - fine set occupancy schedule to NECB-A-Occupancy.",
               "Space Function Warehouse - fine set occupant activity schedule to NECB-Activity.",
               "Space Function Warehouse - fine set lighting schedule to NECB-A-Lighting.",
               "Space Function Warehouse - fine set electric equipment schedule to NECB-A-Electric-Equipment.",
               "Space Function Warehouse - fine set infiltration schedule to Always On.",
               "Space Function Warehouse - fine set heating setpoint schedule to NECB-A-Thermostat Setpoint-Heating.",
               "Space Function Warehouse - fine set cooling setpoint schedule to NECB-A-Thermostat Setpoint-Cooling.",
               "Space Function Warehouse - med/blk had no people, one has been created.",
               "Space Function Warehouse - med/blk set occupancy to 0.93 people/1000 ft^2.",
               "Space Function Warehouse - med/blk had no lights, one has been created.",
               "Space Function Warehouse - med/blk set LPD to 0.594574508 W/ft^2.",
               "Space Function Warehouse - med/blk had no electric equipment, one has been created.",
               "Space Function Warehouse - med/blk set electric EPD to 0.092902267 W/ft^2.",
               "Space Function Warehouse - med/blk had no ventilation specification, one has been created.",
               "Space Function Warehouse - med/blk set ventilation per area to 0.06 cfm/ft^2.",
               "Space Function Warehouse - med/blk had no infiltration objects, one has been created.",
               "Space Function Warehouse - med/blk set infiltration to 0.0 per ft^2 exterior surface area.",
               "Space Function Warehouse - med/blk set occupancy schedule to NECB-A-Occupancy.",
               "Space Function Warehouse - med/blk set occupant activity schedule to NECB-Activity.",
               "Space Function Warehouse - med/blk set lighting schedule to NECB-A-Lighting.",
               "Space Function Warehouse - med/blk set electric equipment schedule to NECB-A-Electric-Equipment.",
               "Space Function Warehouse - med/blk set infiltration schedule to Always On.",
               "Space Function Warehouse - med/blk set heating setpoint schedule to NECB-A-Thermostat Setpoint-Heating.",
               "Space Function Warehouse - med/blk set cooling setpoint schedule to NECB-A-Thermostat Setpoint-Cooling.",
               "Finished applying space types (loads)",
               "Started applying constructions",
               "Adding construction set: NECB 2011-NECB HDD Method-Warehouse--is_residentialNo",
               "Adding construction Typical Insulated Exterior Mass Floor R-15.63.",
               "Adding construction Typical Insulated Exterior Mass Wall R-12.5.",
               "Adding construction Typical Insulated Metal Building Roof R-20.41.",
               "Adding construction Typical Interior Floor.",
               "Adding construction Typical Interior Wall.",
               "Adding construction Typical Interior Ceiling.",
               "Adding construction Typical Insulated Carpeted 6in Slab Floor.",
               "Adding construction U 0.55 SHGC 0.31 Dbl Ref-D Tint 6mm/6mm Air.",
               "Adding construction Typical Insulated Metal Door R-1.43.",
               "Adding construction U 0.35 SHGC 0.35 Dbl LoE (e2-.1) Tint 6mm/13mm Air.",
               "Adding construction Typical Overhead Door R-2.0.",
               "Adding construction U 0.48 SHGC 0.40 Dbl Ref-D Clr 6mm/13mm.",
               "Adding construction Typical Interior Window.",
               "Adding construction Typical Interior Door.",
               "Adding construction Typical Interior Partition.",
               "Finished applying constructions",
               "WWR NonRes = 0%; window = 0 ft2, wall = 0 ft2.",
               "WWR Res = 0%; window = 0 ft2, wall = 0 ft2.",
               "WWR Semiheated = 0%; window = 0 ft2, wall = 0 ft2.",
               "The skylight to roof ratios (SRRs) are: NonRes: 2%, Res: 0%.",
               "Started creating thermal zones",
               "Finished creating thermal zones",
               "Running simulation /mnt/openstudio/analysis_4fef0e0f-5396-4c55-a6e1-2cd6803db3ab/data_point_75113f34-8c59-468c-b74f-a078e6c3a391/run/000_create_prototype_building/output/Warehouse-NECB 2011-NECB HDD Method-CAN_ON_Windsor.715380_CWEC.epw/SR0.",
               "Finished run.",
               "Started Adding HVAC",
               "Finished adding HVAC",
               "Started Adding Service Water Heating",
               "Adding service water loop.",
               "Adding water heater.",
               "Template =",
               "Finished adding Service Water Heating",
               "Set sizing factors to 1.3 for heating and 1.3 for cooling.",
               "Running simulation /mnt/openstudio/analysis_4fef0e0f-5396-4c55-a6e1-2cd6803db3ab/data_point_75113f34-8c59-468c-b74f-a078e6c3a391/run/000_create_prototype_building/output/Warehouse-NECB 2011-NECB HDD Method-CAN_ON_Windsor.715380_CWEC.epw/SR1.",
               "Finished run.",
               "Started applying multizone vav OA sizing.",
               "Finished applying multizone vav OA sizing.",
               "Started applying prototype HVAC assumptions.",
               "For Fan Constant Volume 1: allowed_hp = 1.01HP; motor eff = 61.5%; total fan eff = 40% based on 1191 cfm.",
               "For Fan Constant Volume 2: allowed_hp = 9.77HP; motor eff = 61.5%; total fan eff = 40% based on 14288 cfm.",
               "For Fan Constant Volume 3: allowed_hp = 4.31HP; motor eff = 61.5%; total fan eff = 40% based on 6305 cfm.",
               "Sp-Zone2 Fine Storage Sys-4 Flr-1 Sch-A HPlcmt-south ZN NECB System 4 PSZ requires an economizer because the total cooling capacity of 194180 Btu/hr exceeds the minimum capacity of 68243 Btu/hr.",
               "Sp-Zone3 Bulk Storage Sys-4 Flr-1 Sch-A HPlcmt-east ZN NECB System 4 PSZ requires an economizer because the total cooling capacity of 456495 Btu/hr exceeds the minimum capacity of 68243 Btu/hr.",
               "Sp-Zone1 Office Sys-3 Flr-1 Sch-A HPlcmt-south ZN NECB System 3 PSZ does not require an economizer because the total cooling capacity of 36853 Btu/hr is less than the minimum capacity of 68243 Btu/hr.",
               "Finished applying prototype HVAC assumptions.",
               "Started applying HVAC efficiency standards.",
               "For Sp-Zone1 Office Sys-3 Flr-1 Sch-A HPlcmt-south ZN NECB System 3 PSZ, ERV not required based on 0% OA flow, design supply air flow of 1191cfm, and climate zone NECB HDD Method.",
               "For Sp-Zone1 Office Sys-3 Flr-1 Sch-A HPlcmt-south ZN NECB System 3 PSZ, ERV not required based on exhaust heat content.",
               "For NECB 2011 NECB HDD Method:  Sp-Zone1 Office Sys-3 Flr-1 Sch-A HPlcmt-south ZN NECB System 3 PSZ: DCV is not required for any system.",
               "For Sp-Zone1 Office Sys-3 Flr-1 Sch-A HPlcmt-south ZN NECB System 3 PSZ: Annual occupied hours = 2860 hr/yr, assuming a 0.15 occupancy threshold.  This schedule will be used as the HVAC operation schedule.",
               "For Sp-Zone1 Office Sys-3 Flr-1 Sch-A HPlcmt-south ZN NECB System 3 PSZ: Setting motorized OA damper schedule to Sp-Zone1 Office Sys-3 Flr-1 Sch-A HPlcmt-south ZN NECB System 3 PSZ Occ Sch.",
               "For Sp-Zone2 Fine Storage Sys-4 Flr-1 Sch-A HPlcmt-south ZN NECB System 4 PSZ, ERV not required based on 0% OA flow, design supply air flow of 6305cfm, and climate zone NECB HDD Method.",
               "For Sp-Zone2 Fine Storage Sys-4 Flr-1 Sch-A HPlcmt-south ZN NECB System 4 PSZ, ERV not required based on exhaust heat content.",
               "For NECB 2011 NECB HDD Method:  Sp-Zone2 Fine Storage Sys-4 Flr-1 Sch-A HPlcmt-south ZN NECB System 4 PSZ: DCV is not required for any system.",
               "For Sp-Zone2 Fine Storage Sys-4 Flr-1 Sch-A HPlcmt-south ZN NECB System 4 PSZ: Annual occupied hours = 2860 hr/yr, assuming a 0.15 occupancy threshold.  This schedule will be used as the HVAC operation schedule.",
               "For Sp-Zone2 Fine Storage Sys-4 Flr-1 Sch-A HPlcmt-south ZN NECB System 4 PSZ: Because the system has an economizer, it requires a motorized OA damper.",
               "For Sp-Zone2 Fine Storage Sys-4 Flr-1 Sch-A HPlcmt-south ZN NECB System 4 PSZ: Setting motorized OA damper schedule to Sp-Zone2 Fine Storage Sys-4 Flr-1 Sch-A HPlcmt-south ZN NECB System 4 PSZ Occ Sch.",
               "For Sp-Zone3 Bulk Storage Sys-4 Flr-1 Sch-A HPlcmt-east ZN NECB System 4 PSZ, ERV not required based on 0% OA flow, design supply air flow of 14288cfm, and climate zone NECB HDD Method.",
               "For Sp-Zone3 Bulk Storage Sys-4 Flr-1 Sch-A HPlcmt-east ZN NECB System 4 PSZ, ERV not required based on exhaust heat content.",
               "For NECB 2011 NECB HDD Method:  Sp-Zone3 Bulk Storage Sys-4 Flr-1 Sch-A HPlcmt-east ZN NECB System 4 PSZ: DCV is not required for any system.",
               "For Sp-Zone3 Bulk Storage Sys-4 Flr-1 Sch-A HPlcmt-east ZN NECB System 4 PSZ: Annual occupied hours = 2860 hr/yr, assuming a 0.15 occupancy threshold.  This schedule will be used as the HVAC operation schedule.",
               "For Sp-Zone3 Bulk Storage Sys-4 Flr-1 Sch-A HPlcmt-east ZN NECB System 4 PSZ: Because the system has an economizer, it requires a motorized OA damper.",
               "For Sp-Zone3 Bulk Storage Sys-4 Flr-1 Sch-A HPlcmt-east ZN NECB System 4 PSZ: Setting motorized OA damper schedule to Sp-Zone3 Bulk Storage Sys-4 Flr-1 Sch-A HPlcmt-east ZN NECB System 4 PSZ Occ Sch.",
               "For Fan Constant Volume 1: motor nameplate = 0.7421742791459257HP, motor eff = 61.5%.",
               "For Fan Constant Volume 2: motor nameplate = 9HP, motor eff = 61.5%.",
               "For Fan Constant Volume 3: motor nameplate = 4HP, motor eff = 61.5%.",
               "For Service Water Loop Pump: brake hp = 0.0HP, motor nameplate = 0.1HP, motor eff = 70.0%.",
               "For Pump Variable Speed 1: brake hp = 1.13HP, motor nameplate = 1.5HP, motor eff = 86.5%.",
               "For NECB 2011: Coil Cooling DX Single Speed 1: AirCooled All Other Single Package Capacity = 37kBtu/hr; SEER = 14.0",
               "For NECB 2011: Coil Cooling DX Single Speed 2: AirCooled All Other Single Package Capacity = 456kBtu/hr; EER = 8.21",
               "For NECB 2011: Coil Cooling DX Single Speed 3: AirCooled All Other Single Package Capacity = 194kBtu/hr; EER = 9.7",
               "For NECB 2011: Primary Boiler: Gas Hot Water Capacity = 419kBtu/hr; Thermal Efficiency = 0.83",
               "For NECB 2011: Secondary Boiler: Gas Hot Water Capacity = 419kBtu/hr; Thermal Efficiency = 0.83",
               "For NECB 2011: 40.0gal NaturalGas Water Heater - 40kBtu/hr 0.82 Therm Eff; thermal efficiency = 0.82, skin-loss UA = 6Btu/hr",
               "Finished applying HVAC efficiency standards.",
               "Started adding daylighting controls.",
               "Finished adding daylighting controls.",
               "Total Time = 48sec."
            ],
            "step_result" : "Success",
            "step_values" : [
               {
                  "name" : "building_type",
                  "value" : "Warehouse"
               },
               {
                  "name" : "template",
                  "value" : "NECB 2011"
               },
               {
                  "name" : "climate_zone",
                  "value" : "NECB HDD Method"
               },
               {
                  "name" : "epw_file",
                  "value" : "CAN_ON_Windsor.715380_CWEC.epw"
               }
            ],
            "step_warnings" : [
               "[openstudio.EpwFile] Successive data points (1965-Jan-31 to 1977-Feb-01, ending on line 753) are greater than 1 day apart in EPW file '/usr/local/bundle/bundler/gems/openstudio-standards-f448df66933d/openstudio-standards/data/weather/CAN_ON_Windsor.715380_CWEC.epw'. Data will be treated as typical (TMY)",
               "[openstudio.EpwFile] Successive data points (1965-Jan-31 to 1977-Feb-01, ending on line 753) are greater than 1 day apart in EPW file '/usr/local/bundle/bundler/gems/openstudio-standards-f448df66933d/openstudio-standards/data/weather/CAN_ON_Windsor.715380_CWEC.epw'. Data will be treated as typical (TMY)",
               "[openstudio.weather.Model] Could not find ground temperatures; will use generic temperatures, which will skew results.",
               "[openstudio.EpwFile] Successive data points (1965-Jan-31 to 1977-Feb-01, ending on line 753) are greater than 1 day apart in EPW file '/usr/local/bundle/bundler/gems/openstudio-standards-f448df66933d/openstudio-standards/data/weather/CAN_ON_Windsor.715380_CWEC.epw'. Data will be treated as typical (TMY)",
               "[openstudio.EpwFile] Successive data points (1965-Jan-31 to 1977-Feb-01, ending on line 753) are greater than 1 day apart in EPW file '/usr/local/bundle/bundler/gems/openstudio-standards-f448df66933d/openstudio-standards/data/weather/CAN_ON_Windsor.715380_CWEC.epw'. Data will be treated as typical (TMY)",
               "[openstudio.standards.Fan] For Fan Constant Volume 1, there is no greater nominal HP.  Use the efficiency of the largest motor category.",
               "[openstudio.standards.Fan] For Fan Constant Volume 2, there is no greater nominal HP.  Use the efficiency of the largest motor category.",
               "[openstudio.standards.Fan] For Fan Constant Volume 3, there is no greater nominal HP.  Use the efficiency of the largest motor category.",
               "[openstudio.EpwFile] Successive data points (1965-Jan-31 to 1977-Feb-01, ending on line 753) are greater than 1 day apart in EPW file '/usr/local/bundle/bundler/gems/openstudio-standards-f448df66933d/openstudio-standards/data/weather/CAN_ON_Windsor.715380_CWEC.epw'. Data will be treated as typical (TMY)",
               "[openstudio.EpwFile] Successive data points (1965-Jan-31 to 1977-Feb-01, ending on line 753) are greater than 1 day apart in EPW file '/usr/local/bundle/bundler/gems/openstudio-standards-f448df66933d/openstudio-standards/data/weather/CAN_ON_Windsor.715380_CWEC.epw'. Data will be treated as typical (TMY)",
               "[openstudio.EpwFile] Successive data points (1965-Jan-31 to 1977-Feb-01, ending on line 753) are greater than 1 day apart in EPW file '/usr/local/bundle/bundler/gems/openstudio-standards-f448df66933d/openstudio-standards/data/weather/CAN_ON_Windsor.715380_CWEC.epw'. Data will be treated as typical (TMY)",
               "[openstudio.standards.Fan] For Fan Constant Volume 1, there is no greater nominal HP.  Use the efficiency of the largest motor category.",
               "[openstudio.standards.Fan] For Fan Constant Volume 2, there is no greater nominal HP.  Use the efficiency of the largest motor category.",
               "[openstudio.standards.Fan] For Fan Constant Volume 3, there is no greater nominal HP.  Use the efficiency of the largest motor category."
            ]
         }
      },
      {
         "arguments" : {
            "__SKIP__" : false
         },
         "measure_dir_name" : "view_model",
         "name" : "view_model",
         "result" : {
            "completed_at" : "20170710T190325Z",
            "measure_class_name" : "ViewModel",
            "measure_display_name" : "ViewModel",
            "measure_name" : "view_model",
            "measure_taxonomy" : "Reporting.QAQC",
            "measure_type" : "ModelMeasure",
            "measure_uid" : "f4669f10-fda5-489d-8e1c-7ca3c2d40378",
            "measure_version_id" : "f4975c5f-7c25-42a2-927b-02d99b4427ef",
            "measure_version_modified" : "20170526T150340Z",
            "measure_xml_checksum" : "1E1F8B97",
            "started_at" : "20170710T190324Z",
            "stderr" : "",
            "stdout" : "[OpenStudio.Measure] <0> OSArgumentVector is deprecated, use OpenStudio::Measure::OSArgumentVector instead.\n",
            "step_errors" : [],
            "step_files" : [
               "/mnt/openstudio/analysis_4fef0e0f-5396-4c55-a6e1-2cd6803db3ab/data_point_75113f34-8c59-468c-b74f-a078e6c3a391/run/001_view_model/report.html",
               "/mnt/openstudio/analysis_4fef0e0f-5396-4c55-a6e1-2cd6803db3ab/data_point_75113f34-8c59-468c-b74f-a078e6c3a391/run/001_view_model/report.json"
            ],
            "step_final_condition" : "Report written to <a href='file:////mnt/openstudio/analysis_4fef0e0f-5396-4c55-a6e1-2cd6803db3ab/data_point_75113f34-8c59-468c-b74f-a078e6c3a391/run/001_view_model/report.html'>report.html</a>.",
            "step_info" : [ "No changes made to the model." ],
            "step_result" : "NA",
            "step_values" : [
               {
                  "name" : "view_model_html_zip",
[...]
IaJSLb2+KF5wlX5Fri1k8nIomupfCGJXcmN+OeO52qA0Vaynprq+SG1dVz0zReHCGz1ze8SR34MtC/KUnn6twVhdd1w9Ekilv3h50YalxGYdq9lf54kiqNiyjw9DUWo/Pb6cmP3RfddxMZX0dJ6qbiTKbTyM+Ef5Zu6ofjZ1tF4/V8OxnF/jT9F/md59uef/PlZvIeWizTEr533Bopdz7Jnt/1QxmfD/otkXfKccvzk2ngzo/8UJ2H070IotHHH1o0Xya6eASRzqfZ/apftq/cG3fxaeGd6soP6bkZi+PVWTyhvD27Gbdb3z1m7IgddbRN9k9pJD040OX9X6dEfVbKjzpH1RnmZ4CN1PSjTnxaVPtbO2+qQGnApjRkU9phU9plU9pjU9pnUzpgUzpkU1o7fNNSis/LHT43d/j83OFzdIfP0x0+V3f4fN3hc3aHz9sHfN4+YJzT+bx9wOftA0Nvf1x4STMDxtIzECroKzOhgp4yEyroJzOhgjnBTKhgRjATKpgPzIQKZgMzoYK5wEyoKPEZKrH5dlHaM1Ri8+6ipGeoxObfRSnPUInNw4sSnqESm48XpTtDJb75m83Hi3KdoZKJjz8qfKGZ5lRtDAOlgm4yVCroJkOlgm4yVCqYCgyVCqYCQ6WCqcBQqWAqMFQqmAoMlYrynakUn5cXZTxTKT4/L8p5plJ8nl6U9Uyl+Hy9KO+ZSvF5e1HmM5VinNP5vL0o+ZlKlXo7DqPHYfRLIY3bcBj9owuH0etg4TB6HEZf5cJh9OrCYfQ4jD6/cBh98TdxGH25gLpwGP1mnNkIHOAABzjAAQ5wgAMc4AAHOBuP840d5Qga0IAGNKABDWhAAxrQgAY0m0PzbZ3ZCBzgAAc4wAEOcIADHOAABzjfFM5XLM72YpT6N346fy1vZCDa/0F5tm+xPNtykDajEpuzAZXYnMYqsfV7/V2WQmxWQkMuoR0uoV0uoT0uoX0uoQMuoUMuobX38u2U2HzbYXNuh827HTb3dtj822FzcIfNwx02F3fYfHzA5uMDvvmbzccHbD4+MPNx/Ypr61rVC67Z6NC9VL3cmo0OPQtUL7Zmo0PPANVLrdno0NFvUWjNSojLowvSm0WVNSshLqcuyG0WJdashLj8uiCxWdRXs5oZuTy7IKtZFFezEuLy7IKUVr2y2rqORWE1KyG6iyzKqlkJ0cFvUVTNSogOfouSalZCdPDbFFSzU2Lz7YLMZlNNzU6Jzb0LkptNKTU7JTYPL8hvNnXU7OZKNh8vSHE2RdTslNh8vCDLoYIaKqihgtojQlRQUxcqqKGCGiqoFVyooIYKakZPhQpqa/YNvo8Kag8vVFC7v2rYsPWNFRoADnCAAxzgAAc4wAEOcIADnI3H+cbqD4AGNKABDWhAAxrQgAY0oAHN5tD8beoeAAc4wAEOcIADHOAABzjAAU51e1+hghoKpn1TBdPORhPpzbJeVq9DJTIVTn8zyqYNNqBs2qCxsml7+UuhVUvccAkNuYR2uIR2uYT2uIT2uYQOuIQOuYTW3r63U2LzbYfNuR0273bY3Nth82+HzcEdNg932FzcYfPxAZuPD/jmbzYfH7D5+MDMx/XLpq1rVS+bZqND91L1smk2OvQsUL1smo0OPQNUL5tmo0NHv0XZNCshLo8uSG8WZdOshLicuiC3WZRNsxLi8uuCxGZRNs1qZuTy7IKsZlE2zUqIy7MLUlr1smnrOhZl06yE6C6yKJtmJUQHv0XZNCshOvgtyqZZCdHBb1M2zU6JzbcLMptN2TQ7JTb3LkhuNmXT7JTYPLwgv9mUTbObK9l8vCDF2ZRNs1Ni8/GCLIeyaSibhrJpjwhRNk1dKJuGsmkom1ZwoWwayqYZPRXKpq3ZN/g+yqY9vFA27f6qYZfWN1ZdADjAAQ5wgAMc4AAHOMABDnA2HucbKzoAGtCABjSgAQ1oQAMa0IAGNJtD87cpdgAc4AAHOMABDnCAAxzgAAc41e2hbNryQtm0+7JpzmaUTRtuQNm0YWNl0/q9AUvVNBudIZPODpPOLpPOHpPOPpPOAZPOIZPO2kv3VkJcHu1wubTD5dMOl1M7XF7tcLm1w+XXDpdjO1yePeDy7AHbXM3l2QMuzx4YebZ+ebQ1qerV0SxkyB6qXhvNQoaM++qV0SxkyJivXhfNQoaMd4uqaDY6TH5MpzGLkmg2OkyuTOcwi3poNjpM3kwnMItiaDbzIJM/09nLohKajQ6TP9Opq3oZtDUZiypoNjpk91jUQLPRIcPdogKajQ4Z7hb1z2x0yHC3qX5mJcTl0XQGsyl9ZiXE5dR0ErOpe2YlxOXXdB6zKXpmNTNyeTadymwqnlkJcXk2nc1Q7gzlzlDu7BEhyp2pC+XOUO4M5c4KLpQ7Q7kzo6dCubM1+wbfR7mzhxfKnd1fNeyu+saqAgAHOMABDnCAAxzgAAc4wAHOxuN8Y8UCQAMa0IAGNKABDWhAAxrQgGZzaP42RQqAAxzgAAc4wAEOcIADHOAAp7o9lDtbXih3tip3NtyMamc7G1DtbKfBamf9XaZyZxZCQy6hHS6hXS6hPS6hfS6hAy6hQy6hz962t1Fi822HzbkdNu922NzbYfNvh83BHTYPd9hc3GHz8QGbjw/45m82Hx+w+fjAzMdNqqA91LIpg1Zdh+4lm0Jo1XXoWcCmFFp1HXoGsCmGVl2Hjn6rcmgWQlweXZDerCqiWQhxOXVBbrMqimYhxOXXBYnNqi6axczI5dkFWc2qNJqFEJdnF6Q0m+poD3WsyqNZCNFdZFUgzUKIDn6rEmkWQnTwWxVJsxCig9+uTJqNEptvF2Q2u0ppNkps7l2Q3OyKpdkosXl4QX6zq5dmM1ey+XhBirMrmWajxObjBVkOVdNQNQ1V0x4RomqaulA1DVXTUDWt4ELVNFRNM3oqVE1bs2/wfVRNe3ihatr9VcMmrW+suABwgAMc4AAHOMABDnCAAxzgbDzON1ZzADSgAQ1oQAMa0IAGNKABDWg2h+ZvU+sAOMABDnCAAxzgAAc4wAEOcKrbQ9W05YWqaauqaTubUTVtdwOqpu02VjVtL38ntGqFGy6hIZfQDpfQLpfQHpfQPpfQAZfQIZfQ2sv3dkpsvu2wObfD5t0Om3s7bP7tsDm4w+bhDpuLO2w+PmDz8QHf/M3m4wM2Hx+Y+bh+1bR1repV02x06F6qXjXNRoeeBapXTbPRoWeA6lXTbHTo6LeommYlxOXRBenNomqalRCXUxfkNouqaVZCXH5dkNgsqqZZzYxcnl2Q1SyqplkJcXl2QUqrXjVtXceiapqVEN1FFlXTrITo4LeommYlRAe/RdU0KyE6+G2qptkpsfl2QWazqZpmp8Tm3gXJzaZqmp0Sm4cX5Debqml2cyWbjxekOJuqaXZKbD5ekOVQNQ1V01A17REhqqapC1XTUDUNVdMKLlRNQ9U0o6dC1bQ1+wbfR9W0hxeqpt1fNWzS+saKCwAHOMABDnCAAxzgAAc4wAHOxuN8YzUHQAMa0IAGNKABDWhAAxrQgGZzaP42tQ6AAxzgAAc4wAEOcIADHOAAp7o9VE1bXqiatqqatrsZVdP2NqBq2l5jVdP6vQFL0TQbnSGTzg6Tzi6Tzh6Tzj6TzgGTziGTzto791ZCXB7tcLm0w+XTDpdTO1xe7XC5tcPl1w6XYztcnj3g8uwB21zN5dkDLs8eGHm2fnW0NanqxdEsZMgeql4azUKGjPvqhdEsZMiYr14WzUKGjHeLomg2Okx+TKcxi4poNjpMrkznMItyaDY6TN5MJzCLWmg28yCTP9PZy6IQmo0Okz/Tqat6FbQ1GYsiaDY6ZPdYlECz0SHD3aIAmo0OGe4W5c9sdMhwtyl+ZiXE5dF0BrOpfGYlxOXUdBKzKXtmJcTl13Qes6l5ZjUzcnk2ncpsCp5ZCXF5Np3NUO0M1c5Q7ewRIaqdqQvVzlDtDNXOCi5UO0O1M6OnQrWzNfsG30e1s4cXqp3dXzVsrvrGigIABzjAAQ5wgAMc4AAHOMABzsbjfGO1AkADGtCABjSgAQ1oQAMa0IBmc2j+NjUKgAMc4AAHOMABDnCAAxzgAKe6PVQ7W16odraqdra3GdXO9jeg2tl+g9XO+rtM5c4shIZcQjtcQrtcQntcQvtcQgdcQodcQp+9bW+jxObbDptzO2ze7bC5t8Pm3w6bgztsHu6wubjD5uMDNh8f8M3fbD4+YPPxgZmPm1RBe6hlUwatug7dSzaF0Krr0LOATSm06jr0DGBTDK26Dh39VuXQLIS4PLogvVlVRLMQ4nLqgtxmVRTNQojLrwsSm1VdNIuZkcuzC7KaVWk0CyEuzy5IaTbV0R7qWJVHsxCiu8iqQJqFEB38ViXSLITo4LcqkmYhRAe/XZk0GyU23y7IbHaV0myU2Ny7ILnZFUuzUWLz8IL8ZlcvzWauZPPxghRnVzLNRonNxwuyHKqmoWoaqqY9IkTVNHWhahqqpqFqWsGFqmmommb0VKiatmbf4PuomvbwQtW0+6uGTVrfWHEB4AAHOMABDnCAAxzgAAc4wNl4nG+s5gBoQAMa0IAGNKABDWhAAxrQbA7N36bWAXCAAxzgAAc4wAEOcIADHOBUt4eqacsLVdNWVdP2N6Nq2sEGVE07aKxq2l7+TmjVCjdcQkMuoR0uoV0uoT0uoX0uoQMuoUMuobWX7+2U2HzbYXNuh827HTb3dtj822FzcIfNwx02F3fYfHzA5uMDvvmbzccHbD4+MPNx/app61rVq6bZ6NC9VL1qmo0OPQtUr5pmo0PPANWrptno0NFvUTXNSojLowvSm0XVNCshLqcuyG0WVdOshLj8uiCxWVRNs5oZuTy7IKtZVE2zEuLy7IKUVr1q2rqORdU0KyG6iyyqplkJ0cFvUTXNSogOfouqaVZCdPDbVE2zU2Lz7YLMZlM1zU6Jzb0LkptN1TQ7JTYPL8hvNlXT7OZKNh8vSHE2VdPslNh8vCDLoWoaqqahatojQlRNUxeqpqFqGqqmFVyomoaqaUZPhappa/YNvo+qaQ8vVE27v2rYpPWNFRcADnCAAxzgAAc4wAEOcIADnI3H+cZqDoAGNKABDWhAAxrQgAY0oAHN5tD8bWodAAc4wAEOcIADHOAABzjAAU51e6iatrxQNW1VNe1gM6qmHW5A1bTDxqqm9XsDlqJpNjpDJp0dJp1dJp09Jp19Jp0DJp1DJp21d+6thLg82uFyaYfLpx0up3a4vNrhcmuHy68dLsd2uDx7wOXZA7a5msuzB1yePTDybP3qaGtS1YujWciQPVS9NJqFDBn31QujWciQMV+9LJqFDBnvFkXRbHSY/JhOYxYV0Wx0mFyZzmEW5dBsdJi8mU5gFrXQbOZBJn+ms5dFITQbHSZ/plNX9SpoazIWRdBsdMjusSiBZqNDhrtFATQbHTLcLcqf2eiQ4W5T/MxKiMuj6QxmU/nMSojLqekkZlP2zEqIy6/pPGZT88xqZuTybDqV2RQ8sxLi8mw6m6HaGaqdodrZI0JUO1MXqp2h2hmqnRVcqHaGamdGT4VqZ2v2Db6PamcPL1Q7u79q2Fz1jRUFAA5wgAMc4AAHOMABDnCAA5yNx/nGagWABjSgAQ1oQAMa0IAGNKABzebQ/G1qFAAHOMABDnCAAxzgAAc4wAFOdXuodra8UO1sVe3scCOqnQ373361s4yxqWpnzk6/139wOTssxc8YZYf1yO7UI7tbj+xePbL79cge1CN7WI/s2rv+nLo1xZlTU6A5NUWaU1OoOTXFmlNTsDk1RZtTU7g5NcXboKZ4G9SV12qKt0FN8TawiTf9qnJFytWLzPGp6vZu9RJ0fKq6M1n1AnV8qrqzWPXydXyqujOYRXE7Rtl6okt7uWBRCY9Rtp4A014rWJTNY5StJ8a0FwoWNfYYs0I9Uaa9SrAoyMcoW0+UaS8RqlfvK1K1KObHKKvbtRal/hhldScwi0KAjLK6E5hFmUBGWd0JzKaIIKduTXGmvVKwqTjIqVtTqGkvFmzKE3Lq1hRt2usFm1qGnHmipnjTXjLYFD7k1K0p3rRXDaiSiCqJqJL4iBBVEtWFKomokogqiQUXqiSiSqLRU6FK4pp9g++jSuLDC1US768aNmV+Y8VEgAMc4AAHOMABDnCAAxzgAGfjcb6xGiOgAQ1oQAMa0IAGNKABDWhAszk0f5vaJsABDnCAAxzgAAc4wAEOcIBT3d5XqJL4Tl5PZeyms1iK9qstFE38toomyvjGH0nxH1d53usomgo1YGqf807/1WYUUHQ2oICi01wBRfX/VSs1MekMmXR2mHR2mXT2mHT2mXQOmHQOmXTWCwzYCHF5tMPl0g6XTztcTu1webXD5dYOl187XI7tcHn2gMuzB2xzNZdnD7g8e2Dk2QaF/R5KWVTyqy5D9pBFrb7qMmTcW1Tjqy5DxrxFvb3qMmS821TUs9Bh8mM6jdkUybPQYXJlOofZ1L2z0GHyZjqB2ZSys5gHmfyZzl421eksdJj8mU5dFgXnHsrYVJiz0CG7x6aGnIUOGe42VeIsdMhwt6kDZ6FDhrtVpTcbIS6PpjOYVfE2GyEup6aTmFU9NhshLr+m85hViTWbmZHLs+lUZlU1zUaIy7PpbPZI6PfYj2I/nQtHdEX7bBZuqZJUe93/44bdvtPN//+lHHXVLzC/nOb6az/ovXixs3N4yGBiUL+JYf0mduo3sVu/ib36TezXb+KgfhOH9ZtYy+x12Wggvp0GAtxpIMKdBkLcaSDGnQaC3Gkgyp0GwtxpIM4HDcT5oIk83kCcDxqI80G1OB/kNtyUstHXW1YNh4PBwR6DCXo02EzQg8Fmgh4LNhP0lMtmgp5x2UzQEy6bCXq+ZTNBT7dsJgqWVXw2GojvgmUVn40GIrxgWcVno4EYL1hW8dloIMoLllV8NhqI84JlFZ+NJvJ4A3FesKzis1EtzofKxqvYJ2wMDvWWVY6zvz8cMpigR4PNBD0YbCbosWAzQU+5bCboGZfNBD3hspmg51s2E/TeKDYTBRsC+WzQO6r4bNCbrfhs0Puw+GzQW7T4bND7Evls0FsW+WzQuxn5bNAbHflsNBDnBcsqPhtN5PEGEnnBsorPRrVUvqNsvJvMKBsHesuqw+za/ZHBBD0abCbowWAzQY8Fmwl6WcVmgl5WsZmgl1VsJuhlFZsJerplM1GwrOKzQS+r+GzQyyo+G/Syis8Gvazis0Evq/hs0MsqPhv0sorPBr2s4rPRQJwXLKv4bDSRxxtI5AXLKj4b1VL5rrLxH+lRNvb1llUvX56c7O8zmKBHg80EPRhsJuixYDNBL6vYTNDLKjYT9LKKzQS9rGIzQU+3bCYKllV8NuhlFZ8NelnFZ4NeVvHZoJdVfDboZRWfDXpZxWeDXlbx2aCXVXw2GojzgmUVn40m8ngDibxgWcVno1oq38uXbjNJ2djTW1adnOztsZigR4PNBD0YbCbosWAzQS+r2EzQyyo2E/Syis0EvaxiM0FPt2wmCpZVfDboZRWfDXpZxWeDXlbx2aCXVXw26GUVnw16WcVng15W8dmgl1V8NhqI84JlFZ+NJvJ4A4m8YFnFZ6NaKt9XNn6NqG3xg129ZdXBwWCwu8tggh4NNhP0YLCZoMeCzQS9rGIzQS+r2EzQyyo2E/Syis1EUd0pJhOFxda4bBRVq+KyUVTIistGUY0rLhtF5a+4bBTVfOOyUVQOjstGUaU4LhtFReS4bDQQ5wXLKj4bTeTxBhJ5wbKKz0Z5Kv+gU+F1WZNZHItQ3q4KyOZ1Y9vJzbiTV4AtLRW7KuycyPTHaBZ6SXu33xGOs9sRQ/V/g129crN3GcZ9UWrPO3FTOY7i+Ys7P1mURb5/fo3q0ZnAm9iT8duZqlKsfaPimK9z/CrdZBbLBYYqtLzs95rLc6MZzWhGM5rRjGY0oxnNaEYzmtGMZjSjGc1oRjOa0YxmNKMZzWhGM5rRjGY0oxnNaEYzmtGMZjSjGc1oRjOa0YxmNKMZzWhGM5rRjGY0o/lJNc970Y2MY9+Tv7rqxVqn17d8X1W9Gpusvxp7JmNfJsvXa1ud1QvE0yBKe4EfytJXZJMvvadb/mZt0suPnp9GgZv6UZhBtZJUTrsX8jKKZUvvzefXcixDb/2BFp+19/odMVRvLvfVi8zqn1YgL1MFViK9ku2dj2V6GqaqfzITl7NwlJO2t8SfJRIrQnl/9/vSd7nV5V+Kdjrxk16Sj4qeIXU9uKmX9d+pO5q0/wI2VVvhq1fHM/al7vk0Snwl+DL7WOdpVpeS+QJVHN2aIa2w/NCTKh66Tsfw7tV1VfXGS18Gyt/ayz5dxMk4jmZT6Ynvvxf/WH5+1zufuMny/XcVYFsPW+dfbM06pOeOx6+UjV4gw3E6Ec/FQPxbtF4EQUscrX8jCfyRbHedrff9D1ul8fboSaJYtK+yR+n/IK4yM0tXXdpVn/0zm3HMB0hdyo2Xeu+vPvQ+yrk4Pj5edF41xVx1OexXpo+6ui5i6X6scvMnw3tMv6/6a/l0x8qtlTMsPSUv5NA7d5PEH4fSO1ElIpL3eU9+qNaVq4GezpJJu+pYZEN6tBjP6pEUBEc6T9lT36xqJUnj6KPUs7P4blVL0dQd+elcz9Tyy5WfKjexMlVVZTWRrE8rVcLDePJR1yqc1yce0RWOqZpJuOmzfurkWVXr+5/K1hTq2t4Wv//xTvz3zR9vxdmbt+9++e0n8frNT7+ciJ9P357qCbzKZm1556olmkgjkURxKsLZdeYHI5GXNEmEm4yyxYsfjjUUV32vdB5kZrcjLvQnl1imszgUUzdO5KsgctO2q6b8rWwoH3x2kX+m1ZnlS7QHZpePUCb8qd5KL/frzzzc82BvP/PkpTsLUjGNo2wOk8864tl3BwcnJ6enz2ouPAMc4AAHOMABDnCAAxzgAAc4TxNHJLPr7Edg4Un1ofDcuSKKpQca0IAGNKABDWhAAxrQgAY0oCmmuc23Zn1GcxHMJHCAAxzgAAc4wAEOcIADHOAApwrO/bmBjjo38GxGnRs4dPK/sL14sbNzeAhSkIIUpCAFKUhBClKQghSkIAUpSDeDdJCTuilF2s9Jh8PB4GAPpCAFKUhBClKQghSkIAUpSEEKUpBuBulQkb6KfYJ0cJiTOs7+/nAIUpCCFKQgBSlIQQpSkIIUpCAFKUg3g3RHkb6bzCjSg5z0MLt2fwQpSEEKUpCCFKQgBSlIQQpSkIIUpJtBuqtI/yM9inQ/J3358uRkfx+kIAUpSEEKUpCCFKQgBSlIQQpSkG4G6V7+m4mZpEj3ctKTk709kIIUpCAFKUhBClKQghSkIAUpSEG6KaT7ivTXiKosONjNSQ8OBoPdXZCCFKQgBSlIQQpSkIIUpCAFKUhB2hjpCsWL3dt2qdhdL/XTQJ5N3KnspfIubT/7OZrFSTnG/PGdL/1rGSZ+FAYyyRVKJLa3xQvPE67IlcStn05EEl1L4Q1L7kxuxj13OpWh124p262tkhtWV89N07jdumt1xF7f8KZ5dtNA/6YknQdygdd1w9EkirP7W4G8NKBdalxGYdq9lf54kiqNiyjw9DUWY3M27f4vCqUj3lxe+iMpzuZJdyheBXHXEWejSfeF+Pn3YHSddpNolg3D/34Tv52e/Ki+lsprMRS/n/1PvBmN1HefbRUN7PPtZBT70/Rf5Heeb3v+zZebyXtosUxL+N5xa6S8/iTrKNcPZXw+HLRE3nvHLc9PpoE7P/LDIGvqXgTR6OMPLZovE108gkjn0+x+1YHbV+6Nu/i08E513bixclBxLDz/ehrIXihvz27G7dZ3jxk7Yqffz/8pDTgl67mpm+m+/7MVuBcyaB21PHnpzoJUTOPo0g9kq7NoOb9rHTm9fqd14wYzufz/kZqXsnuyqebk5PS09amjpTNg0hky6eww6ewy6ewx6ewz6Rww6Rwy6Th9LiEuj3a4XNrh8mmHy6kdLq92uNza4fJrh8uxHS7PHnB59oBtruby7AGXZw+MPFsks+vrtYOqtTJaLD0DGbKPzGTIHjKTIfvHTIaMezMZMurNZMiYN5MhI95Mhox3Mxk6kRnqMPkxncYMdZg8mU5ihjpMvkynMEMdJm+mE5ihDpM/0+nLUIdrXmbyZzp3Gero+/OtH6bmaetCfaSvQ3aPoQ7ZPYY6ZPcY6pDhbqhDhruhDhnuhjpkuBvqkOFuqEPnL1MhLo+mM5ipEJdP0znMVIjLq+ksZirE5dd0HjMV4vJsOpOZCrHN1VyeTSczUyF9z77/y0XpycJUmuuv/aC3OHqYwcSgfhPD+k3s1G9it34Te/Wb2K/fxEH9Jg7rN7GW2euy0UB8Ow0EuNNAhDsNhLjTQIw7DQS500CUOw2EudNAnA8aiPNBE3m8gTgfNBDng2pxXnqAo96yanHCI4MJejTYTNCDwWaCHgs2E/SUy2aCnnHZTNATLpsJer5lM0FPt2wmCpZVfDYaiO+CZRWfjQYivGBZxWejgRgvWFbx2WggyguWVXw2GojzgmUVn40m8ngDcV6wrOKzUS3OS8/J0ltWLQ7SYjBBjwabCXow2EzQY8Fmgp5y2UzQMy6bCXrCZTNBz7dsJui9UWwmCjYE8tmgd1Tx2aA3W/HZoPdh8dmgt2jx2aD3JfLZoLcs8tmgdzPy2aA3OvLZaCDOC5ZVfDaayOMNJPKCZRWfjWqpvPQ4Er1l1eK8EgYT9GiwmaAHg80EPRZsJuhlFZsJelnFZoJeVrGZoJdVbCbo6ZbNRMGyis8Gvazis0Evq/hs0MsqPhv0sorPBr2s4rNBL6v4bNDLKj4b9LKKz0YDcV6wrOKz0UQebyCRFyyr+GxUS+WlVd/1llWLsvAMJujRYDNBDwabCXos2EzQyyo2E/Syis0EvaxiM0Evq9hM0NMtm4mCZRWfDXpZxWeDXlbx2aCXVXw26GUVnw16WcVng15W8dmgl1V8NuhlFZ+NBuK8YFnFZ6OJPN5AIi9YVvHZqJbKS4vr6i2rFtV3GUzQo8Fmgh4MNhP0WLCZoJdVbCboZRWbCXpZxWaCXlaxmaCnWzYTBcsqPhv0sorPBr2s4rNBL6v4bNDLKj4b9LKKzwa9rOKzQS+r+GzQyyo+Gw3EecGyis9GE3m8gUResKzis1EtlZfWMNRbVi2KHDKYoEeDzQQ9GGwm6LFgM0Evq9hM0MsqNhP0sorNBL2sYjNRVHeKyURhsTUuG0XVqrhsFBWy4rJRVOOKy0ZR+SsuG0U137hsFJWD47JRVCmOy0ZRETkuGw3EecGyis9GE3m8gUResKzis1Geyj/oVHhdlm8WxyKUt6sCsnnd2HZyM+7kFWBLS8WuakAnMv0xmoVe0t7td4Tj7HbEUP3fYFev3OxdhnFf2trzTtxUjqN4/uLOTxY1lO+fX6PQdCbwJvZk/HamShpr36g45uscv0o3mcVygaGqMi/7veYi32hGM5rRjGY0oxnNaEYzmtGMZjSjGc1oRjOa0YxmNKMZzWhGM5rRjGY0oxnNaEYzmtGMZjSjGc1oRjOa0YxmNKMZzWhGM5rRjGY0oxnNaH5SzfNedCPj2Pfkr656sdbp9S3fV1Wvxibrr8aeydiXyfL12lZn9QLxNIjSXuCHsvQV2eRL7+mWv1mb9PKj56dR4KZ+FGZQrSSV0+6FvIxi2dJ78/m1HMvQW3+gxWftvX5HDNWby331IrP6pxXIy1SBlUivZHvnY5mehqnqn8zE5Swc5aTtLfFnicSKUN7f/b70XW51+ZeinU78pJfko6JnSF0Pbupl/Xfqjibtv4BN1Vb46tXxjH2pez6NEl8Jvsw+1nma1aVkvkAVR7dmSCssP/Skioeu0zG8e3VdVb3x0peB8rf2sk8XcTKOo9lUeuL778U/lp/f9c4nbrJ8/10F2NbD1vkXW7MO6bnj8StloxfIcJxOxHMxEP8WrRdB0BJH699IAn8k211n633/w1ZpvD16kigW7avsUfo/iKvMzNJVl3bVZ//MZhzzAVKXcuOl3vurD72Pci6Oj48XnVdNMVddDvuV6aOurotYuh+r3PzJ8B7T76v+Wj7dsXJr5QxLT8kLOfTO3STxx6H0TlSJiOR93pMfqnXlaqCns2TSrjoW2ZAeLcazeiQFwZHOU/bUN6taSdI4+ij17Cy+W9VSNHVHfjrXM7X8cuWnyk2sTFVVWU0k69NKlfAwnnzUtQrn9YlHdIVjqmYSbvqsnzp5VtX6/qeyNYW6trfF73+8E/9988dbcfbm7btffvtJvH7z0y8n4ufTt6d6Aq+yWVveuWqJJtJIJFGcinB2nfnBSOQlTRLhJqNs8eKHYw3FVd8rnQeZ2e2IC/3JJZbpLA7F1I0T+SqI3LTtqil/KxvKB59d5J9pdWb5Eu2B2eUjlAl/qrfSy/36Mw/3PNjbzzx56c6CVEzjKJvD5LOOePbdwcHJyenps5oLzwAHOMABDnCAAxzgAAc4wAHO08QRyew6+xFYeFJ9KDx3rohi6YEGNKABDWhAAxrQgAY0oAENaIppbvOtWZ/RXAQzCRzgAAc4wAEOcIADHOAABzjAqYJzf26go84NPJtR5wYOnfwvbC9e7OwcHoIUpCAFKUhBClKQghSkIAUpSEEK0s0gHeSkbkqR9nPS4XAwONgDKUhBClKQghSkIAUpSEEKUpCCFKSbQTpUpK9inyAdHOakjrO/PxyCFKQgBSlIQQpSkIIUpCAFKUhBCtLNIN1RpO8mM4r0ICc9zK7dH0EKUpCCFKQgBSlIQQpSkIIUpCAF6WaQ7irS/0iPIt3PSV++PDnZ3wcpSEEKUpCCFKQgBSlIQQpSkIIUpJtBupf/ZmImKdK9nPTkZG8PpCAFKUhBClKQghSkIAUpSEEKUpBuCum+Iv01oioLDnZz0oODwWB3F6QgBSlIQQpSkIIUpCAFKUhBClKQNka6QvFi97ZdKnbXS/00kGcTdyp7qbxL289+jmZxUo4xf3znS/9ahokfhYFMcoUSie1t8cLzhCtyJXHrpxORRNdSeMOSO5Obcc+dTmXotVvKdmur5IbV1XPTNG637lodsdc3vGme3TTQvylJ54Fc4HXdcDSJ4uz+ViAvDWiXGpdRmHZvpT+epErjIgo8fY3F2JxNu/+LQjkQr/xQirM0it1x9t950t0Rr4K464iz0aT7Qvz8ezC6TrtJNMsG43+/id9OT35UX0vltdgRv5/9T7wZjdR3n20VDe/z7WQU+9P0X+R3nm97/s2Xm8l7aLFMS/jecWukfP8k6y43e8z4fDhsibwPj1uen0wDd37kh0HW1L0IotHHH1o0Xya6eASRzqfZ/aobt6/cG3fxaeGd6rpxY+Wm4lh4/vU0kL1Q3p7djNut7x4zdsROv5//Uxp2StZzUzfTff9nK3AvZNA6anny0p0FqZjG0aUfyFZn0XJ+1zpyev1O68YNZnL5/yM1O2X3ZBPOycnpaetTR0tnwKQzZNLZYdLZZdLZY9LZZ9I5YNI5ZNJx+lxCXB7tcLm0w+XTDpdTO1xe7XC5tcPl1w6XYztcnj3g8uwB21zN5dkDLs8eGHm2SGbX12vHVWtltFh6BjJkH5nJkD1kJkP2j5kMGfdmMmTUm8mQMW8mQ0a8mQwZ72YydCIz1GHyYzqNGeoweTKdxAx1mHyZTmGGOkzeTCcwQx0mf6bTl6EO17zM5M907jLU0ffnWz9MzdPWhfpIX4fsHkMdsnsMdcjuMdQhw91Qhwx3Qx0y3A11yHA31CHD3VCHzl+mQlweTWcwUyEun6ZzmKkQl1fTWcxUiMuv6TxmKsTl2XQmMxVim6u5PJtOZqZC+p59//eL0vOFqTTXX/tBb3EAMYOJQf0mhvWb2KnfxG79JvbqN7Ffv4mD+k0c1m9iLbPXZaOB+HYaCHCngQh3Gghxp4EYdxoIcqeBKHcaCHOngTgfNBDngybyeANxPmggzgfV4rz0GEe9ZdXinEcGE/RosJmgB4PNBD0WbCboKZfNBD3jspmgJ1w2E/R8y2aCnm7ZTBQsq/hsNBDfBcsqPhsNRHjBsorPRgMxXrCs4rPRQJQXLKv4bDQQ5wXLKj4bTeTxBuK8YFnFZ6NanJeelqW3rFocp8Vggh4NNhP0YLCZoMeCzQQ95bKZoGdcNhP0hMtmgp5v2UzQe6PYTBRsCOSzQe+o4rNBb7bis0Hvw+KzQW/R4rNB70vks0FvWeSzQe9m5LNBb3Tks9FAnBcsq/hsNJHHG0jkBcsqPhvVUnnpoSR6y6rFqSUMJujRYDNBDwabCXos2EzQyyo2E/Syis0EvaxiM0Evq9hM0NMtm4mCZRWfDXpZxWeDXlbx2aCXVXw26GUVnw16WcVng15W8dmgl1V8NuhlFZ+NBuK8YFnFZ6OJPN5AIi9YVvHZqJbKS2u/6y2rFsXhGUzQo8Fmgh4MNhP0WLCZoJdVbCboZRWbCXpZxWaCXlaxmaCnWzYTBcsqPhv0sorPBr2s4rNBL6v4bNDLKj4b9LKKzwa9rOKzQS+r+GzQyyo+Gw3EecGyis9GE3m8gUResKzis1EtlZeW2NVbVi1q8DKYoEeDzQQ9GGwm6LFgM0Evq9hM0MsqNhP0sorNBL2sYjNBT7dsJgqWVXw26GUVnw16WcVng15W8dmgl1V8NuhlFZ8NelnFZ4NeVvHZoJdVfDYaiPOCZRWfjSbyeAOJvGBZxWejWiovrWSot6xalDpkMEGPBpsJejDYTNBjwWaCXlaxmaCXVWwm6GUVmwl6WcVmoqjuFJOJwmJrXDaKqlVx2SgqZMVlo6jGFZeNovJXXDaKar5x2SgqB8dlo6hSHJeNoiJyXDYaiPOCZRWfjSbyeAOJvGBZxWejPJV/0KnwuiziLI5FKG9XBWTzurHt5GbcySvAlpaKXVWCTmT6YzQLvaS92+8Ix9ntiKH6v8GuXrnZuwzjvsC15524qRxH8fzFnZ8sKinfP79GuelM4E3syfjtTBU21r5RcczXOX6VbjKL5QJD1WZe9nvNpb7RjGY0oxnNaEYzmtGMZjSjGc1oRjOa0YxmNKMZzWhGM5rRjGY0oxnNaEYzmtGMZjSjGc1oRjOa0YxmNKMZzWhGM5rRjGY0oxnNaEYzmtH8pJrnvehGxrHvyV9d9WKt0+tbvq+qXo1N1l+NPZOxL5Pl67WtzuoF4mkQpb3AD2XpK7LJl97TLX+zNunlR89Po8BN/SjMoFpJKqfdC3kZxbKl9+bzazmWobf+QIvP2nv9jhiqN5f76kVm9U8rkJepAiuRXsn2zscyPQ1T1T+ZictZOMpJ21vizxKJFaG8v/t96bvc6vIvRTud+EkvyUdFz5C6HtzUy/rv1B1N2n8Bm6qt8NWr4xn7Uvd8GiW+EnyZfazzNKtLyXyBKo5uzZBWWH7oSRUPXadjePfquqp646UvA+Vv7WWfLuJkHEezqfTE99+Lfyw/v+udT9xk+f67CrCth63zL7ZmHdJzx+NXykYvkOE4nYjnYiD+LVovgqAljta/kQT+SLa7ztb7/oet0nh79CRRLNpX2aP0fxBXmZmlqy7tqs/+mc045gOkLuXGS733Vx96H+VcHB8fLzqvmmKuuhz2K9NHXV0XsXQ/Vrn5k+E9pt9X/bV8umPl1soZlp6SF3LonbtJ4o9D6Z2oEhHJ+7wnP1TrytVAT2fJpF11LLIhPVqMZ/VICoIjnafsqW9WtZKkcfRR6tlZfLeqpWjqjvx0rmdq+eXKT5WbWJmqqrKaSNanlSrhYTz5qGsVzusTj+gKx1TNJNz0WT91/v/2zrY5bVyL4+/vp9D1zmzIXCAYAnnYZu+khDSdaZtOSGdnm+lkBBbgxNgeS07C7OS7X8uYLCR1kfzQlr1/vQipZf31k3zOkVq5h3hVVbr/cd2eQpadHfLx0yX58/zTBemfX1y+/fCGvDt/87ZLznoXPTWB0yhqswcqt2hEeIR7gSBuOI3sYEjilCacUD6MNi+2O1ZQXMy91FlamWmVDNSDS8BEGLjEpwFnp45HRYXKkL8dPcqla4P4mtJkrt+iLXWbDGGd8GO5mV6e9p+xu8fOXtmy2IiGjiB+4EUxjG1VydYv+/vdbq+3VXLiGeAABzjAAQ5wgAMc4AAHOMD5Z+IQHk6jvwITi8mLxKIzSRQwCzSgAQ1oQAMa0IAGNKABDWhA822a+/jVrGc0AydkwAEOcIADHOAABzjAAQ5wgAOcLDhP3xtoyu8N7Idp3xvYMuMTtuPj3d2DA5CCFKQgBSlIQQpSkIIUpCAFKUhBuhmkzZiUijTSRkzaajWb+x2QghSkIAUpSEEKUpCCFKQgBSlIQboZpC1JehrYKaTNg5jUNPf2Wi2QghSkIAUpSEEKUpCCFKQgBSlIQboZpLuS9HISppHux6QHUWm/BilIQQpSkIIUpCAFKUhBClKQghSkm0HalqR/MCuNdC8mPTnpdvf2QApSkIIUpCAFKUhBClKQghSkIAXpZpB24n+ZCFkaaScm7XY7HZCCFKQgBSlIQQpSkIIUpCAFKUhBuimke5L0vZeWWbDZjkn395vNdhukIAUpSEEKUpCCFKQgBSlIQQpSkH430gWKFdD7ylqxh7qwhcP6E+qzumAPorJ15oUBX48xe9nyxJ4yl9ue6zAeK6yR2Nkhx5ZFKImVyL0tJoR7U0as1pqW/G5cp77PXKtiyL6N7TUNFqVOhQgqxoNRJZ2GZqNZ1Kip3oiLmcPmeDXqDideELU3HDbSoE00Rp4ravfMHk+E1Bh4jqWuMX82fb/22XNZi7wOnVvSF15Ax4z0Z7y2S06doGaS/nBSOyZnH53hVNQY5YJ8/kA+9Lqv5V2CTcku+dj/TM6HQ3nr1va3nu6rHT4MbF/8nnrPqx3Lvvt6dWqbdLFIi9jWkTGUpt+NZovaLguuW7sGiafwyLBs7jt0dmi7TlRVGzje8PY3I50vEp0PgYiZH7WXs7hzQ+/o/Oo3W8pyRwNppeSIWPbUd1jdZff9u3HF+OUlY5XsNhrxj7VeJ2UtKmike/WX4dABc4xDw2IjGjqC+IE3sh1mVOc11w/GoVlvVI076oTMOOwc1A+Wyv5B1RjKUBUpRNGn2+31jMeqkmqzFNVWKaq7pai2S1HtlKK6V4rqfimqB6Womo1yZMvxLrMc9zLL8S+zHAczy/EwsxwXM8vxMbMcJzPL8bJmOV7WLGkNK8fLmuV4WTOHlxEeTqcr3/6dYYcQMEtDVHFu9UQVZ1ZPVHFe9UQVY5eeqGLk0hNVjFt6oopRS09UMWbpiapuDDRVS/Ep1W2BpmopXqW6KdBULcWvVLcEmqqleJbqhkBTtRTfUt0OaKqWs16V4luqewFN1ay+dW+7Iu82YCBvUFdVnFZNVcVp1VRVnFZNVcWQpamqGLI0VRVDlqaqYsjSVFUMWZqqqvsBXdlyvEt1R6ArW45/qe4JdGXL8TDVXYGubDk+prov0JUtx8tUdwa6siWtYeV4mermQFdWy8u+qBw4JEeK5Ii47H5xnhEfY1T43bgaH0isPblYnEtyJl57oWvxSrtRJabZrpKW/K3ZVjv9eIgwno5bLatLBRt7wez4webzc72nqVA4/IwEzgOLBRehPGZTbig5Zqsc7xnlYcDmGPKkMHkEeY9z43Ok1a76LLAZT3CjnpIH4jueqMvDrbVd8q+Nez0pr8d253sOFbbnRlAGF8yvDdjIC5ihZknv2Ji51uqA5tcqncgKWtIS5GGYKX8kp6VrD5IXsvXrMRM9V8j5iboYhe4wJq1sk78UjkslIXtqfbXWN2SxR6QiJjaP7Fq2U+tIlqVG9Wj+enQ4qfwNrKu2wE/OBhPda9/jthQ8iS6rjGZRpMxXqALvXg9pgWW7FpOOWzOrmq0X5SZrw5HNHGlvlWRO534yDrzQZxb59Vfy7+T6Q/16QnkST6SDbS/Xzr5aG01InY7Hp7KPusPcsZiQV6RJ/kuMY8cxyOHqHdyxh6xSM7evGl+21/rbi5F4AancRENp/EZuom4SU036ldf+c0RM/QckizTjRO/q5kv9lkXh7ehoPnnZFGPV5LHf6A51UQYBo7dZGj9qttG9X85XMrojadbSGBJLiRfG+vX8VSBmxS8D8at4Jr9km8rFg/ZDPqlkfRbRIz2cP8/snuQ4hyqjrMs7s/bCReDdMrV+5vdm7cnz6dAWM7WukpszjyruYtFVVpVFIFkNK1ncQzv4yLJw59XAQ2rE1FXTcTd11sdqvKoq3f+4bk8hy84O+fjpkvx5/umC9M8vLt9+eEPenb952yVnvYuemsBpFLXZA5VbNCI8wr1oI+2G08gOhiTeInJC+TDavNjuWEFxMfdSZ2llplUyUA8uARNh4BKfBpydOh4VFSpD/nb0KJeuDeJrSpO5fou21G0yhHXCjz/glc1nB7DJe5nyQPWHvEEKHOAABzjAAQ5wgAMc4AAHOBuP8/IFF0kUMAs0oAENaEADGtCABjSgAQ1oQPNtmhevBEoa+YofcIADHOAABzjAAQ5wgAMc4ADnByZKvGRTnwVUhAEjldNtpEr8qVIl/kGlxZ2x+ON4OrCZK4h8ZDLvIbPCaP5rZK9xuhkpENsbkAKx/d1SIMb/8TRrCqaCdFoF6ewWpNMuSKdTkM5eQTr7BekcFKSzklsgl1BRFm0WZdJmUTZtFmXUZlFWbRZl1mZRdm0WZdhmUZbdLMqym4XF6qIsu1mUZTe1LFs9Zd+KVPYkfTlkUmcoeyK+HDKpfp892V4OmVSfz55QL4dMqr/nSJqXR6cgO05fxnKkwsujU5App69hORLc5dEpyJrTF7AcaevyxMGC7Dl99cqRjC6PTkH2nL50ZU8xtyKTI6lcHp3U6cmROC6PTqq750gOl0cn1d1zJIDLo5Pq7nmSvOUSKsqi01ewPKnbcgkVZdTpi1iehGy5hIqy6/R1LE+atVyRsSjLTl/K8iRPyyVUlGWnr2ZIibYRKdFQjWpUoxrVqEY1qlGNalSjGtWoRjWqUf0zVc/q3h0LAtti76n8hyqz3kBK/KWRICX+U0FKfK2ClPhIia9RkBL/eUFK/OcFKfE1C1LiIyX+VwtS4gMHOMABDnCAAxzgAAc4wAEOcDYhoSRoQAMa0IAGNKABDWhAAxrQbA7N/00iS+AABzjAAQ5wgAMc4AAHOMDJ3t8PSIl/Yk+Zy23PdRjnSIj/cyXE94Jb0huN7KHN3OHsKQ3+902An9z9rGb5z4vf559P6skvTx8Dz5rJz4mYOr//63+pKXY5"
               },
               {
                  "name" : "annual_peak_electric_demand",
                  "units" : "kW",
                  "value" : 113.97892
               },
               {
                  "name" : "first_year_capital_cost",
                  "units" : "$",
                  "value" : 0
               },
               {
                  "name" : "annual_utility_cost",
                  "units" : "$",
                  "value" : 0
               },
               {
                  "name" : "total_lifecycle_cost",
                  "units" : "$",
                  "value" : 0
               }
            ],
            "step_warnings" : []
         }
      }
   ],
   "updated_at" : "20170710T190436Z",
   "weather_file" : "USA_CO_Denver.Intl.AP.725650_TMY3.epw"
}
