{
   "completed_at" : "20170710T191950Z",
   "completed_status" : "Success",
   "created_at" : "2017-07-10 19:17:54 +0000",
   "current_step" : 5,
   "description" : "",
   "eplusout_err" : "Program Version,EnergyPlus, Version 8.7.0-78a111df4a, YMD=2017.07.10 19:19,IDD_Version 8.7.0\n   ************* IDF Context for following error/warning message:\n   ************* Note -- lines truncated at 300 characters, if necessary...\n   *************      5 Building,\n   ************* indicated Name=NECB 2011-Warehouse-NECB HDD Method-CAN_PQ_Riviere.du.Loup.717150_CWEC.epw created: 2017-07-10 19:18:00 +0000\n   ************* Only last 1 lines before error line shown.....\n   *************      6   NECB 2011-Warehouse-NECB HDD Method-CAN_PQ_Riviere.du.Loup.717150_CWEC.epw created: 2017-07-10 19:18:00 +0000, !- Name\n   ** Warning ** IP: IDF line~6 Alpha Argument length exceeds maximum, will be truncated=  NECB 2011-Warehouse-NECB HDD Method-CAN_PQ_Riviere.du.Loup.717150_CWEC.epw created: 2017-07-10 19:18:00 +000\n   **   ~~~   ** Will be processed as Alpha=NECB 2011-WAREHOUSE-NECB HDD METHOD-CAN_PQ_RIVIERE.DU.LOUP.717150_CWEC.EPW CREATED: 2017-07-10 19:18:00 +0000\n   ************* Beginning Zone Sizing Calculations\n   ** Warning ** ProcessScheduleInput: Schedule:Day:Interval=\"ECONOMIZER MAX OA FRACTION 100 PCT DEFAULT\", Blank Schedule Type Limits Name input -- will not be validated.\n   ** Warning ** ProcessScheduleInput: Schedule:Day:Interval=\"SCHEDULE DAY 1\", Blank Schedule Type Limits Name input -- will not be validated.\n   ** Warning ** ProcessScheduleInput: Schedule:Day:Interval=\"SCHEDULE DAY 10\", Blank Schedule Type Limits Name input -- will not be validated.\n   ** Warning ** ProcessScheduleInput: Schedule:Day:Interval=\"SCHEDULE DAY 11\", Blank Schedule Type Limits Name input -- will not be validated.\n   ** Warning ** ProcessScheduleInput: Schedule:Day:Interval=\"SCHEDULE DAY 12\", Blank Schedule Type Limits Name input -- will not be validated.\n   ** Warning ** ProcessScheduleInput: Schedule:Day:Interval=\"SCHEDULE DAY 13\", Blank Schedule Type Limits Name input -- will not be validated.\n   ** Warning ** ProcessScheduleInput: Schedule:Day:Interval=\"SCHEDULE DAY 14\", Blank Schedule Type Limits Name input -- will not be validated.\n   ** Warning ** ProcessScheduleInput: Schedule:Day:Interval=\"SCHEDULE DAY 15\", Blank Schedule Type Limits Name input -- will not be validated.\n   ** Warning ** ProcessScheduleInput: Schedule:Day:Interval=\"SCHEDULE DAY 16\", Blank Schedule Type Limits Name input -- will not be validated.\n   ** Warning ** ProcessScheduleInput: Schedule:Day:Interval=\"SCHEDULE DAY 17\", Blank Schedule Type Limits Name input -- will not be validated.\n   ** Warning ** ProcessScheduleInput: Schedule:Day:Interval=\"SCHEDULE DAY 18\", Blank Schedule Type Limits Name input -- will not be validated.\n   ** Warning ** ProcessScheduleInput: Schedule:Day:Interval=\"SCHEDULE DAY 19\", Blank Schedule Type Limits Name input -- will not be validated.\n   ** Warning ** ProcessScheduleInput: Schedule:Day:Interval=\"SCHEDULE DAY 2\", Blank Schedule Type Limits Name input -- will not be validated.\n   ** Warning ** ProcessScheduleInput: Schedule:Day:Interval=\"SCHEDULE DAY 5\", Blank Schedule Type Limits Name input -- will not be validated.\n   ** Warning ** ProcessScheduleInput: Schedule:Day:Interval=\"SCHEDULE DAY 6\", Blank Schedule Type Limits Name input -- will not be validated.\n   ** Warning ** ProcessScheduleInput: Schedule:Day:Interval=\"SCHEDULE DAY 7\", Blank Schedule Type Limits Name input -- will not be validated.\n   ** Warning ** ProcessScheduleInput: Schedule:Day:Interval=\"SCHEDULE DAY 8\", Blank Schedule Type Limits Name input -- will not be validated.\n   ** Warning ** ProcessScheduleInput: Schedule:Day:Interval=\"SCHEDULE DAY 9\", Blank Schedule Type Limits Name input -- will not be validated.\n   ** Warning ** ProcessScheduleInput: Schedule:Year=\"ECONOMIZER MAX OA FRACTION 100 PCT\", Blank Schedule Type Limits Name input -- will not be validated.\n   ** Warning ** ProcessScheduleInput: Schedule:Year=\"SCHEDULE RULESET 10\", Blank Schedule Type Limits Name input -- will not be validated.\n   ** Warning ** ProcessScheduleInput: Schedule:Year=\"SCHEDULE RULESET 11\", Blank Schedule Type Limits Name input -- will not be validated.\n   ** Warning ** ProcessScheduleInput: Schedule:Year=\"SCHEDULE RULESET 3\", Blank Schedule Type Limits Name input -- will not be validated.\n   ** Warning ** ProcessScheduleInput: Schedule:Year=\"SCHEDULE RULESET 4\", Blank Schedule Type Limits Name input -- will not be validated.\n   ** Warning ** ProcessScheduleInput: Schedule:Year=\"SCHEDULE RULESET 5\", Blank Schedule Type Limits Name input -- will not be validated.\n   ** Warning ** ProcessScheduleInput: Schedule:Year=\"SCHEDULE RULESET 6\", Blank Schedule Type Limits Name input -- will not be validated.\n   ** Warning ** ProcessScheduleInput: Schedule:Year=\"SCHEDULE RULESET 7\", Blank Schedule Type Limits Name input -- will not be validated.\n   ** Warning ** ProcessScheduleInput: Schedule:Year=\"SCHEDULE RULESET 8\", Blank Schedule Type Limits Name input -- will not be validated.\n   ** Warning ** ProcessScheduleInput: Schedule:Year=\"SCHEDULE RULESET 9\", Blank Schedule Type Limits Name input -- will not be validated.\n   ** Warning ** ProcessScheduleInput: Schedule:Constant=\"ALWAYS OFF DISCRETE\", Blank Schedule Type Limits Name input -- will not be validated.\n   ** Warning ** ProcessScheduleInput: Schedule:Constant=\"ALWAYS ON CONTINUOUS\", Blank Schedule Type Limits Name input -- will not be validated.\n   ** Warning ** CheckUsedConstructions: There are 22 nominally unused constructions in input.\n   **   ~~~   ** For explicit details on each unused construction, use Output:Diagnostics,DisplayExtraWarnings;\n   ************* Beginning System Sizing Calculations\n   ************* Beginning Plant Sizing Calculations\n   ** Warning ** GetDXCoils: Coil:Cooling:DX:SingleSpeed=\"COIL COOLING DX SINGLE SPEED 1 29KBTU/HR 14.0SEER\", invalid\n   **   ~~~   ** ...Part Load Fraction Correlation Curve Name = DXCOOL-NECB2011-REF-COOLPLFFPLR has out of range value.\n   **   ~~~   ** ...Curve maximum must be <= 1.0, curve max at PLR = 0.99 is 1.015\n   **   ~~~   ** ...Setting curve maximum to 1.0 and simulation continues.\n   ** Warning ** GetDXCoils: Coil:Cooling:DX:SingleSpeed=\"COIL COOLING DX SINGLE SPEED 3 136KBTU/HR 9.7EER\", invalid\n   **   ~~~   ** ...Part Load Fraction Correlation Curve Name = DXCOOL-NECB2011-REF-COOLPLFFPLR 2 has out of range value.\n   **   ~~~   ** ...Curve maximum must be <= 1.0, curve max at PLR = 0.99 is 1.015\n   **   ~~~   ** ...Setting curve maximum to 1.0 and simulation continues.\n   ** Warning ** GetDXCoils: Coil:Cooling:DX:SingleSpeed=\"COIL COOLING DX SINGLE SPEED 2 384KBTU/HR 8.39EER\", invalid\n   **   ~~~   ** ...Part Load Fraction Correlation Curve Name = DXCOOL-NECB2011-REF-COOLPLFFPLR 1 has out of range value.\n   **   ~~~   ** ...Curve maximum must be <= 1.0, curve max at PLR = 0.99 is 1.015\n   **   ~~~   ** ...Setting curve maximum to 1.0 and simulation continues.\n   ** Warning ** The Standard Ratings is calculated for Coil:Cooling:DX:SingleSpeed = COIL COOLING DX SINGLE SPEED 1 29KBTU/HR 14.0SEER but not at the AHRI test condition due to curve out of bound.\n   **   ~~~   **  Review the Standard Ratings calculations in the Engineering Reference for this coil type. Also, use Output:Diagnostics, DisplayExtraWarnings for further guidance.\n   ** Warning ** The Standard Ratings is calculated for Coil:Cooling:DX:SingleSpeed = COIL COOLING DX SINGLE SPEED 3 136KBTU/HR 9.7EER but not at the AHRI test condition due to curve out of bound.\n   **   ~~~   **  Review the Standard Ratings calculations in the Engineering Reference for this coil type. Also, use Output:Diagnostics, DisplayExtraWarnings for further guidance.\n   ** Warning ** The Standard Ratings is calculated for Coil:Cooling:DX:SingleSpeed = COIL COOLING DX SINGLE SPEED 2 384KBTU/HR 8.39EER but not at the AHRI test condition due to curve out of bound.\n   **   ~~~   **  Review the Standard Ratings calculations in the Engineering Reference for this coil type. Also, use Output:Diagnostics, DisplayExtraWarnings for further guidance.\n   ** Warning ** Check input. Pump nominal power or motor efficiency is set to 0, for pump=SERVICE WATER LOOP PUMP\n   ** Warning ** Output:Meter: invalid Name=\"GAS:FACILITY\" - not found.\n   ** Warning ** Output:Meter: invalid Name=\"DISTRICTCOOLING:FACILITY\" - not found.\n   ** Warning ** Output:Meter: invalid Name=\"DISTRICTHEATING:FACILITY\" - not found.\n   ** Warning ** Output:Meter:MeterFileOnly: invalid Name=\"GAS:FACILITY\" - not found.\n   ** Warning ** Output:Meter:MeterFileOnly requested for \"Electricity:Facility\" (TimeStep), already on \"Output:Meter\". Will report to both eplusout.eso and eplusout.mtr\n   ************* Testing Individual Branch Integrity\n   ************* All Branches passed integrity testing\n   ************* Testing Individual Supply Air Path Integrity\n   ************* All Supply Air Paths passed integrity testing\n   ************* Testing Individual Return Air Path Integrity\n   ************* All Return Air Paths passed integrity testing\n   ************* No node connection errors were found.\n   ************* Beginning Simulation\n   ** Warning ** CalcDoe2DXCoil: Coil:Cooling:DX:SingleSpeed \"COIL COOLING DX SINGLE SPEED 1 29KBTU/HR 14.0SEER\" - Air-cooled condenser inlet dry-bulb temperature below 0 C. Outdoor dry-bulb temperature = -16.80\n   **   ~~~   **  ... Occurrence info = RUN PERIOD 1, 01/03 06:03 - 06:05\n   **   ~~~   ** ... Operation at low ambient temperatures may require special performance curves.\n   ** Warning ** Plant Loop: MAIN SERVICE WATER LOOP Demand Side is storing excess heat the majority of the time.\n   ** Warning ** Plant Loop: MAIN SERVICE WATER LOOP Supply Side is storing excess heat the majority of the time.\n   ************* Simulation Error Summary *************\n   ************* There are 9 unused schedules in input.\n   ************* There are 9 unused week schedules in input.\n   ************* There are 18 unused day schedules in input.\n   ************* Use Output:Diagnostics,DisplayUnusedSchedules; to see them.\n   *************\n   ************* ===== Recurring Error Summary =====\n   ************* The following recurring error messages occurred.\n   *************\n   *************  ** Warning ** Plant loop exceeding upper temperature limit, PlantLoop=\"MAIN SERVICE WATER LOOP\"\n   *************  **   ~~~   **   This error occurred 22254 total times;\n   *************  **   ~~~   **   during Warmup 1014 times;\n   *************  **   ~~~   **   during Sizing 0 times.\n   *************  **   ~~~   **   Max=82.222222\n   *************\n   *************  ** Warning ** CalcDoe2DXCoil: Coil:Cooling:DX:SingleSpeed=\"COIL COOLING DX SINGLE SPEED 1 29KBTU/HR 14.0SEER\" - Low condenser dry-bulb temperature error continues...\n   *************  **   ~~~   **   This error occurred 269 total times;\n   *************  **   ~~~   **   during Warmup 0 times;\n   *************  **   ~~~   **   during Sizing 0 times.\n   *************  **   ~~~   **   Max=-0.15 [C]  Min=-23.775 [C]\n   *************\n   *************\n   ************* ===== Final Error Summary =====\n   ************* The following error categories occurred.  Consider correcting or noting.\n   ************* Nominally Unused Constructions\n   ************* ..The nominally unused constructions warning is provided to alert you to potential conditions that can cause\n   ************* ..extra time during simulation. Each construction is calculated by the algorithm indicated in the HeatBalanceAlgorithm\n   ************* ..object. You may remove the constructions indicated (when you use the DisplayExtraWarnings option).\n   *************\n   ************* EnergyPlus Warmup Error Summary. During Warmup: 0 Warning; 0 Severe Errors.\n   ************* EnergyPlus Sizing Error Summary. During Sizing: 31 Warning; 0 Severe Errors.\n   ************* EnergyPlus Completed Successfully-- 22569 Warning; 0 Severe Errors; Elapsed Time=00hr 00min 31.37sec\n",
   "file_format_version" : "0.0.1",
   "file_paths" : [ "../weather", "../seeds", "../seed" ],
   "hash" : "A7125DFD",
   "measure_paths" : [ "../measures" ],
   "name" : "LHS Autogenerated 841",
   "osa_id" : "4fef0e0f-5396-4c55-a6e1-2cd6803db3ab",
   "osd_id" : "7cd611b7-e31d-40b9-b33c-37d0dd46c3b2",
   "run_directory" : "./run",
   "seed_file" : "seed.osm",
   "started_at" : "20170710T191757Z",
   "steps" : [
      {
         "arguments" : {
            "__SKIP__" : false,
            "building_type" : "Warehouse",
            "climate_zone" : "NECB HDD Method",
            "epw_file" : "CAN_PQ_Riviere.du.Loup.717150_CWEC.epw",
            "template" : "NECB 2011"
         },
         "measure_dir_name" : "create_prototype_building",
         "name" : "create_prototype_building",
         "result" : {
            "completed_at" : "20170710T191851Z",
            "measure_class_name" : "CreatePrototypeBuilding",
            "measure_display_name" : "Create Prototype Building",
            "measure_name" : "create_prototype_building",
            "measure_taxonomy" : "Whole Building.Space Types",
            "measure_type" : "ModelMeasure",
            "measure_uid" : "ae90fsd7-a651-467a-bc8d-29d310b0f937",
            "measure_version_id" : "c6ec5c18-5595-459f-a082-09a19c8c869c",
            "measure_version_modified" : "20170519T182315Z",
            "measure_xml_checksum" : "057E8D9D",
            "started_at" : "20170710T191759Z",
            "stderr" : "",
            "stdout" : "[OpenStudio.Measure] <0> OSArgumentVector is deprecated, use OpenStudio::Measure::OSArgumentVector instead.\n[openstudio.EpwFile] <0> Successive data points (1978-Jan-31 to 1970-Feb-01, ending on line 753) are greater than 1 day apart in EPW file '/usr/local/bundle/bundler/gems/openstudio-standards-f448df66933d/openstudio-standards/data/weather/CAN_PQ_Riviere.du.Loup.717150_CWEC.epw'. Data will be treated as typical (TMY)\n[openstudio.setFileExtension] <0> Path p, '/usr/local/bundle/bundler/gems/openstudio-standards-f448df66933d/openstudio-standards/data/weather/CAN_PQ_Riviere.du.Loup.717150_CWEC.ddy', has an unexpected file extension. Was expecting 'idf'.\n[openstudio.model.YearDescription] <1> 'UseWeatherFile' is not yet a supported option for YearDescription\n[openstudio.model.YearDescription] <1> 'UseWeatherFile' is not yet a supported option for YearDescription\n[openstudio.setFileExtension] <0> Path p, '/usr/local/bundle/bundler/gems/openstudio-standards-f448df66933d/openstudio-standards/data/weather/CAN_PQ_Riviere.du.Loup.717150_CWEC.ddy', has an unexpected file extension. Was expecting 'idf'.\n[openstudio.model.YearDescription] <1> 'UseWeatherFile' is not yet a supported option for YearDescription\n[openstudio.model.YearDescription] <1> 'UseWeatherFile' is not yet a supported option for YearDescription\n[openstudio.EpwFile] <0> Successive data points (1978-Jan-31 to 1970-Feb-01, ending on line 753) are greater than 1 day apart in EPW file '/usr/local/bundle/bundler/gems/openstudio-standards-f448df66933d/openstudio-standards/data/weather/CAN_PQ_Riviere.du.Loup.717150_CWEC.epw'. Data will be treated as typical (TMY)\n[openstudio.weather.Model] <0> Could not find ground temperatures; will use generic temperatures, which will skew results.\n[openstudio.setFileExtension] <0> Path p, '/usr/local/bundle/bundler/gems/openstudio-standards-f448df66933d/openstudio-standards/data/weather/CAN_PQ_Riviere.du.Loup.717150_CWEC.ddy', has an unexpected file extension. Was expecting 'idf'.\n[openstudio.model.YearDescription] <1> 'UseWeatherFile' is not yet a supported option for YearDescription\n[openstudio.model.YearDescription] <1> 'UseWeatherFile' is not yet a supported option for YearDescription\n[openstudio.EpwFile] <0> Successive data points (1978-Jan-31 to 1970-Feb-01, ending on line 753) are greater than 1 day apart in EPW file '/usr/local/bundle/bundler/gems/openstudio-standards-f448df66933d/openstudio-standards/data/weather/CAN_PQ_Riviere.du.Loup.717150_CWEC.epw'. Data will be treated as typical (TMY)\n[openstudio.setFileExtension] <0> Path p, '/usr/local/bundle/bundler/gems/openstudio-standards-f448df66933d/openstudio-standards/data/weather/CAN_PQ_Riviere.du.Loup.717150_CWEC.ddy', has an unexpected file extension. Was expecting 'idf'.\n[openstudio.model.YearDescription] <1> 'UseWeatherFile' is not yet a supported option for YearDescription\n[openstudio.model.YearDescription] <1> 'UseWeatherFile' is not yet a supported option for YearDescription\n[openstudio.setFileExtension] <0> Path p, '/usr/local/bundle/bundler/gems/openstudio-standards-f448df66933d/openstudio-standards/data/weather/CAN_PQ_Riviere.du.Loup.717150_CWEC.ddy', has an unexpected file extension. Was expecting 'idf'.\n[openstudio.model.YearDescription] <1> 'UseWeatherFile' is not yet a supported option for YearDescription\n[openstudio.model.YearDescription] <1> 'UseWeatherFile' is not yet a supported option for YearDescription\n[openstudio.EpwFile] <0> Successive data points (1978-Jan-31 to 1970-Feb-01, ending on line 753) are greater than 1 day apart in EPW file '/usr/local/bundle/bundler/gems/openstudio-standards-f448df66933d/openstudio-standards/data/weather/CAN_PQ_Riviere.du.Loup.717150_CWEC.epw'. Data will be treated as typical (TMY)\n[openstudio.setFileExtension] <0> Path p, '/usr/local/bundle/bundler/gems/openstudio-standards-f448df66933d/openstudio-standards/data/weather/CAN_PQ_Riviere.du.Loup.717150_CWEC.ddy', has an unexpected file extension. Was expecting 'idf'.\n[openstudio.model.YearDescription] <1> 'UseWeatherFile' is not yet a supported option for YearDescription\n[openstudio.model.YearDescription] <1> 'UseWeatherFile' is not yet a supported option for YearDescription\n[openstudio.setFileExtension] <0> Path p, '/usr/local/bundle/bundler/gems/openstudio-standards-f448df66933d/openstudio-standards/data/weather/CAN_PQ_Riviere.du.Loup.717150_CWEC.ddy', has an unexpected file extension. Was expecting 'idf'.\n[openstudio.model.YearDescription] <1> 'UseWeatherFile' is not yet a supported option for YearDescription\n[openstudio.model.YearDescription] <1> 'UseWeatherFile' is not yet a supported option for YearDescription\n[utilities.idf.WorkspaceObject] <0> Object of type 'Schedule:Constant' and named 'Always Off Discrete', points to an object named OnOff 1 from field 1, but that object cannot be located.\n[utilities.idf.WorkspaceObject] <0> Object of type 'Schedule:Constant' and named 'Always On Continuous', points to an object named Fractional 1 from field 1, but that object cannot be located.\n[utilities.idf.WorkspaceObject] <0> Object of type 'Schedule:Constant' and named 'Always Off Discrete', points to an object named OnOff 1 from field 1, but that object cannot be located.\n[utilities.idf.WorkspaceObject] <0> Object of type 'Schedule:Constant' and named 'Always On Continuous', points to an object named Fractional 1 from field 1, but that object cannot be located.\n[openstudio.standards.Fan] <0> For Fan Constant Volume 1, there is no greater nominal HP.  Use the efficiency of the largest motor category.\n[openstudio.standards.Fan] <0> For Fan Constant Volume 2, there is no greater nominal HP.  Use the efficiency of the largest motor category.\n[openstudio.standards.Fan] <0> For Fan Constant Volume 3, there is no greater nominal HP.  Use the efficiency of the largest motor category.\n[openstudio.EpwFile] <0> Successive data points (1978-Jan-31 to 1970-Feb-01, ending on line 753) are greater than 1 day apart in EPW file '/usr/local/bundle/bundler/gems/openstudio-standards-f448df66933d/openstudio-standards/data/weather/CAN_PQ_Riviere.du.Loup.717150_CWEC.epw'. Data will be treated as typical (TMY)\n[openstudio.setFileExtension] <0> Path p, '/usr/local/bundle/bundler/gems/openstudio-standards-f448df66933d/openstudio-standards/data/weather/CAN_PQ_Riviere.du.Loup.717150_CWEC.ddy', has an unexpected file extension. Was expecting 'idf'.\n[openstudio.model.YearDescription] <1> 'UseWeatherFile' is not yet a supported option for YearDescription\n[openstudio.model.YearDescription] <1> 'UseWeatherFile' is not yet a supported option for YearDescription\n[openstudio.setFileExtension] <0> Path p, '/usr/local/bundle/bundler/gems/openstudio-standards-f448df66933d/openstudio-standards/data/weather/CAN_PQ_Riviere.du.Loup.717150_CWEC.ddy', has an unexpected file extension. Was expecting 'idf'.\n[openstudio.model.YearDescription] <1> 'UseWeatherFile' is not yet a supported option for YearDescription\n[openstudio.model.YearDescription] <1> 'UseWeatherFile' is not yet a supported option for YearDescription\n[openstudio.EpwFile] <0> Successive data points (1978-Jan-31 to 1970-Feb-01, ending on line 753) are greater than 1 day apart in EPW file '/usr/local/bundle/bundler/gems/openstudio-standards-f448df66933d/openstudio-standards/data/weather/CAN_PQ_Riviere.du.Loup.717150_CWEC.epw'. Data will be treated as typical (TMY)\n[openstudio.setFileExtension] <0> Path p, '/usr/local/bundle/bundler/gems/openstudio-standards-f448df66933d/openstudio-standards/data/weather/CAN_PQ_Riviere.du.Loup.717150_CWEC.ddy', has an unexpected file extension. Was expecting 'idf'.\n[openstudio.model.YearDescription] <1> 'UseWeatherFile' is not yet a supported option for YearDescription\n[openstudio.model.YearDescription] <1> 'UseWeatherFile' is not yet a supported option for YearDescription\n[openstudio.setFileExtension] <0> Path p, '/usr/local/bundle/bundler/gems/openstudio-standards-f448df66933d/openstudio-standards/data/weather/CAN_PQ_Riviere.du.Loup.717150_CWEC.ddy', has an unexpected file extension. Was expecting 'idf'.\n[openstudio.model.YearDescription] <1> 'UseWeatherFile' is not yet a supported option for YearDescription\n[openstudio.model.YearDescription] <1> 'UseWeatherFile' is not yet a supported option for YearDescription\n[openstudio.EpwFile] <0> Successive data points (1978-Jan-31 to 1970-Feb-01, ending on line 753) are greater than 1 day apart in EPW file '/usr/local/bundle/bundler/gems/openstudio-standards-f448df66933d/openstudio-standards/data/weather/CAN_PQ_Riviere.du.Loup.717150_CWEC.epw'. Data will be treated as typical (TMY)\n[openstudio.setFileExtension] <0> Path p, '/usr/local/bundle/bundler/gems/openstudio-standards-f448df66933d/openstudio-standards/data/weather/CAN_PQ_Riviere.du.Loup.717150_CWEC.ddy', has an unexpected file extension. Was expecting 'idf'.\n[openstudio.model.YearDescription] <1> 'UseWeatherFile' is not yet a supported option for YearDescription\n[openstudio.model.YearDescription] <1> 'UseWeatherFile' is not yet a supported option for YearDescription\n[openstudio.setFileExtension] <0> Path p, '/usr/local/bundle/bundler/gems/openstudio-standards-f448df66933d/openstudio-standards/data/weather/CAN_PQ_Riviere.du.Loup.717150_CWEC.ddy', has an unexpected file extension. Was expecting 'idf'.\n[openstudio.model.YearDescription] <1> 'UseWeatherFile' is not yet a supported option for YearDescription\n[openstudio.model.YearDescription] <1> 'UseWeatherFile' is not yet a supported option for YearDescription\n[openstudio.standards.Fan] <0> For Fan Constant Volume 1, there is no greater nominal HP.  Use the efficiency of the largest motor category.\n[openstudio.standards.Fan] <0> For Fan Constant Volume 2, there is no greater nominal HP.  Use the efficiency of the largest motor category.\n[openstudio.standards.Fan] <0> For Fan Constant Volume 3, there is no greater nominal HP.  Use the efficiency of the largest motor category.\n",
            "step_errors" : [],
            "step_files" : [],
            "step_info" : [
               "Started adding geometry",
               "Finished adding geometry",
               "Started adding weather file for climate zone: NECB HDD Method.",
               "Template =",
               "Setting Zone3 Bulk Storage to Space Function.Warehouse - med/blk",
               "Setting Zone2 Fine Storage to Space Function.Warehouse - fine",
               "Setting Zone1 Office to Space Function.Office - enclosed",
               "Started applying space types (loads)",
               "Space Function Office - enclosed had no people, one has been created.",
               "Space Function Office - enclosed set occupancy to 4.65 people/1000 ft^2.",
               "Space Function Office - enclosed had no lights, one has been created.",
               "Space Function Office - enclosed set LPD to 1.105536975 W/ft^2.",
               "Space Function Office - enclosed had no electric equipment, one has been created.",
               "Space Function Office - enclosed set electric EPD to 0.696767001 W/ft^2.",
               "Space Function Office - enclosed had no ventilation specification, one has been created.",
               "Space Function Office - enclosed set ventilation per area to 0.085 cfm/ft^2.",
               "Space Function Office - enclosed had no infiltration objects, one has been created.",
               "Space Function Office - enclosed set infiltration to 0.0 per ft^2 exterior surface area.",
               "Space Function Office - enclosed set occupancy schedule to NECB-A-Occupancy.",
               "Space Function Office - enclosed set occupant activity schedule to NECB-Activity.",
               "Space Function Office - enclosed set lighting schedule to NECB-A-Lighting.",
               "Space Function Office - enclosed set electric equipment schedule to NECB-A-Electric-Equipment.",
               "Space Function Office - enclosed set infiltration schedule to Always On.",
               "Space Function Office - enclosed set heating setpoint schedule to NECB-A-Thermostat Setpoint-Heating.",
               "Space Function Office - enclosed set cooling setpoint schedule to NECB-A-Thermostat Setpoint-Cooling.",
               "Space Function Warehouse - fine had no people, one has been created.",
               "Space Function Warehouse - fine set occupancy to 1.86 people/1000 ft^2.",
               "Space Function Warehouse - fine had no lights, one has been created.",
               "Space Function Warehouse - fine set LPD to 0.947603122 W/ft^2.",
               "Space Function Warehouse - fine had no electric equipment, one has been created.",
               "Space Function Warehouse - fine set electric EPD to 0.092902267 W/ft^2.",
               "Space Function Warehouse - fine had no ventilation specification, one has been created.",
               "Space Function Warehouse - fine set ventilation per area to 0.06 cfm/ft^2.",
               "Space Function Warehouse - fine had no infiltration objects, one has been created.",
               "Space Function Warehouse - fine set infiltration to 0.0 per ft^2 exterior surface area.",
               "Space Function Warehouse - fine set occupancy schedule to NECB-A-Occupancy.",
               "Space Function Warehouse - fine set occupant activity schedule to NECB-Activity.",
               "Space Function Warehouse - fine set lighting schedule to NECB-A-Lighting.",
               "Space Function Warehouse - fine set electric equipment schedule to NECB-A-Electric-Equipment.",
               "Space Function Warehouse - fine set infiltration schedule to Always On.",
               "Space Function Warehouse - fine set heating setpoint schedule to NECB-A-Thermostat Setpoint-Heating.",
               "Space Function Warehouse - fine set cooling setpoint schedule to NECB-A-Thermostat Setpoint-Cooling.",
               "Space Function Warehouse - med/blk had no people, one has been created.",
               "Space Function Warehouse - med/blk set occupancy to 0.93 people/1000 ft^2.",
               "Space Function Warehouse - med/blk had no lights, one has been created.",
               "Space Function Warehouse - med/blk set LPD to 0.594574508 W/ft^2.",
               "Space Function Warehouse - med/blk had no electric equipment, one has been created.",
               "Space Function Warehouse - med/blk set electric EPD to 0.092902267 W/ft^2.",
               "Space Function Warehouse - med/blk had no ventilation specification, one has been created.",
               "Space Function Warehouse - med/blk set ventilation per area to 0.06 cfm/ft^2.",
               "Space Function Warehouse - med/blk had no infiltration objects, one has been created.",
               "Space Function Warehouse - med/blk set infiltration to 0.0 per ft^2 exterior surface area.",
               "Space Function Warehouse - med/blk set occupancy schedule to NECB-A-Occupancy.",
               "Space Function Warehouse - med/blk set occupant activity schedule to NECB-Activity.",
               "Space Function Warehouse - med/blk set lighting schedule to NECB-A-Lighting.",
               "Space Function Warehouse - med/blk set electric equipment schedule to NECB-A-Electric-Equipment.",
               "Space Function Warehouse - med/blk set infiltration schedule to Always On.",
               "Space Function Warehouse - med/blk set heating setpoint schedule to NECB-A-Thermostat Setpoint-Heating.",
               "Space Function Warehouse - med/blk set cooling setpoint schedule to NECB-A-Thermostat Setpoint-Cooling.",
               "Finished applying space types (loads)",
               "Started applying constructions",
               "Adding construction set: NECB 2011-NECB HDD Method-Warehouse--is_residentialNo",
               "Adding construction Typical Insulated Exterior Mass Floor R-15.63.",
               "Adding construction Typical Insulated Exterior Mass Wall R-12.5.",
               "Adding construction Typical Insulated Metal Building Roof R-20.41.",
               "Adding construction Typical Interior Floor.",
               "Adding construction Typical Interior Wall.",
               "Adding construction Typical Interior Ceiling.",
               "Adding construction Typical Insulated Carpeted 6in Slab Floor.",
               "Adding construction U 0.55 SHGC 0.31 Dbl Ref-D Tint 6mm/6mm Air.",
               "Adding construction Typical Insulated Metal Door R-1.43.",
               "Adding construction U 0.35 SHGC 0.35 Dbl LoE (e2-.1) Tint 6mm/13mm Air.",
               "Adding construction Typical Overhead Door R-2.0.",
               "Adding construction U 0.48 SHGC 0.40 Dbl Ref-D Clr 6mm/13mm.",
               "Adding construction Typical Interior Window.",
               "Adding construction Typical Interior Door.",
               "Adding construction Typical Interior Partition.",
               "Finished applying constructions",
               "WWR NonRes = 0%; window = 0 ft2, wall = 0 ft2.",
               "WWR Res = 0%; window = 0 ft2, wall = 0 ft2.",
               "WWR Semiheated = 0%; window = 0 ft2, wall = 0 ft2.",
               "The skylight to roof ratios (SRRs) are: NonRes: 2%, Res: 0%.",
               "Started creating thermal zones",
               "Finished creating thermal zones",
               "Running simulation /mnt/openstudio/analysis_4fef0e0f-5396-4c55-a6e1-2cd6803db3ab/data_point_7cd611b7-e31d-40b9-b33c-37d0dd46c3b2/run/000_create_prototype_building/output/Warehouse-NECB 2011-NECB HDD Method-CAN_PQ_Riviere.du.Loup.717150_CWEC.epw/SR0.",
               "Finished run.",
               "Started Adding HVAC",
               "Finished adding HVAC",
               "Started Adding Service Water Heating",
               "Adding service water loop.",
               "Adding water heater.",
               "Template =",
               "Finished adding Service Water Heating",
               "Set sizing factors to 1.3 for heating and 1.3 for cooling.",
               "Running simulation /mnt/openstudio/analysis_4fef0e0f-5396-4c55-a6e1-2cd6803db3ab/data_point_7cd611b7-e31d-40b9-b33c-37d0dd46c3b2/run/000_create_prototype_building/output/Warehouse-NECB 2011-NECB HDD Method-CAN_PQ_Riviere.du.Loup.717150_CWEC.epw/SR1.",
               "Finished run.",
               "Started applying multizone vav OA sizing.",
               "Finished applying multizone vav OA sizing.",
               "Started applying prototype HVAC assumptions.",
               "For Fan Constant Volume 1: allowed_hp = 1.01HP; motor eff = 61.5%; total fan eff = 40% based on 1070 cfm.",
               "For Fan Constant Volume 2: allowed_hp = 9.32HP; motor eff = 61.5%; total fan eff = 40% based on 13622 cfm.",
               "For Fan Constant Volume 3: allowed_hp = 3.5HP; motor eff = 61.5%; total fan eff = 40% based on 5119 cfm.",
               "Sp-Zone2 Fine Storage Sys-4 Flr-1 Sch-A HPlcmt-south ZN NECB System 4 PSZ requires an economizer because the total cooling capacity of 136459 Btu/hr exceeds the minimum capacity of 68243 Btu/hr.",
               "Sp-Zone3 Bulk Storage Sys-4 Flr-1 Sch-A HPlcmt-east ZN NECB System 4 PSZ requires an economizer because the total cooling capacity of 384267 Btu/hr exceeds the minimum capacity of 68243 Btu/hr.",
               "Sp-Zone1 Office Sys-3 Flr-1 Sch-A HPlcmt-south ZN NECB System 3 PSZ does not require an economizer because the total cooling capacity of 28812 Btu/hr is less than the minimum capacity of 68243 Btu/hr.",
               "Finished applying prototype HVAC assumptions.",
               "Started applying HVAC efficiency standards.",
               "For Sp-Zone1 Office Sys-3 Flr-1 Sch-A HPlcmt-south ZN NECB System 3 PSZ, ERV not required based on 0% OA flow, design supply air flow of 1070cfm, and climate zone NECB HDD Method.",
               "For Sp-Zone1 Office Sys-3 Flr-1 Sch-A HPlcmt-south ZN NECB System 3 PSZ, ERV not required based on exhaust heat content.",
               "For NECB 2011 NECB HDD Method:  Sp-Zone1 Office Sys-3 Flr-1 Sch-A HPlcmt-south ZN NECB System 3 PSZ: DCV is not required for any system.",
               "For Sp-Zone1 Office Sys-3 Flr-1 Sch-A HPlcmt-south ZN NECB System 3 PSZ: Annual occupied hours = 2860 hr/yr, assuming a 0.15 occupancy threshold.  This schedule will be used as the HVAC operation schedule.",
               "For Sp-Zone1 Office Sys-3 Flr-1 Sch-A HPlcmt-south ZN NECB System 3 PSZ: Setting motorized OA damper schedule to Sp-Zone1 Office Sys-3 Flr-1 Sch-A HPlcmt-south ZN NECB System 3 PSZ Occ Sch.",
               "For Sp-Zone2 Fine Storage Sys-4 Flr-1 Sch-A HPlcmt-south ZN NECB System 4 PSZ, ERV not required based on 0% OA flow, design supply air flow of 5119cfm, and climate zone NECB HDD Method.",
               "For Sp-Zone2 Fine Storage Sys-4 Flr-1 Sch-A HPlcmt-south ZN NECB System 4 PSZ, ERV not required based on exhaust heat content.",
               "For NECB 2011 NECB HDD Method:  Sp-Zone2 Fine Storage Sys-4 Flr-1 Sch-A HPlcmt-south ZN NECB System 4 PSZ: DCV is not required for any system.",
               "For Sp-Zone2 Fine Storage Sys-4 Flr-1 Sch-A HPlcmt-south ZN NECB System 4 PSZ: Annual occupied hours = 2860 hr/yr, assuming a 0.15 occupancy threshold.  This schedule will be used as the HVAC operation schedule.",
               "For Sp-Zone2 Fine Storage Sys-4 Flr-1 Sch-A HPlcmt-south ZN NECB System 4 PSZ: Because the system has an economizer, it requires a motorized OA damper.",
               "For Sp-Zone2 Fine Storage Sys-4 Flr-1 Sch-A HPlcmt-south ZN NECB System 4 PSZ: Setting motorized OA damper schedule to Sp-Zone2 Fine Storage Sys-4 Flr-1 Sch-A HPlcmt-south ZN NECB System 4 PSZ Occ Sch.",
               "For Sp-Zone3 Bulk Storage Sys-4 Flr-1 Sch-A HPlcmt-east ZN NECB System 4 PSZ, ERV not required based on 0% OA flow, design supply air flow of 13622cfm, and climate zone NECB HDD Method.",
               "For Sp-Zone3 Bulk Storage Sys-4 Flr-1 Sch-A HPlcmt-east ZN NECB System 4 PSZ, ERV not required based on exhaust heat content.",
               "For NECB 2011 NECB HDD Method:  Sp-Zone3 Bulk Storage Sys-4 Flr-1 Sch-A HPlcmt-east ZN NECB System 4 PSZ: DCV is not required for any system.",
               "For Sp-Zone3 Bulk Storage Sys-4 Flr-1 Sch-A HPlcmt-east ZN NECB System 4 PSZ: Annual occupied hours = 2860 hr/yr, assuming a 0.15 occupancy threshold.  This schedule will be used as the HVAC operation schedule.",
               "For Sp-Zone3 Bulk Storage Sys-4 Flr-1 Sch-A HPlcmt-east ZN NECB System 4 PSZ: Because the system has an economizer, it requires a motorized OA damper.",
               "For Sp-Zone3 Bulk Storage Sys-4 Flr-1 Sch-A HPlcmt-east ZN NECB System 4 PSZ: Setting motorized OA damper schedule to Sp-Zone3 Bulk Storage Sys-4 Flr-1 Sch-A HPlcmt-east ZN NECB System 4 PSZ Occ Sch.",
               "For Fan Constant Volume 1: motor nameplate = 0.6662980931712893HP, motor eff = 61.5%.",
               "For Fan Constant Volume 2: motor nameplate = 8HP, motor eff = 61.5%.",
               "For Fan Constant Volume 3: motor nameplate = 3HP, motor eff = 61.5%.",
               "For Service Water Loop Pump: brake hp = 0.0HP, motor nameplate = 0.1HP, motor eff = 70.0%.",
               "For NECB 2011: Coil Cooling DX Single Speed 1: AirCooled Electric Resistance or None Single Package Capacity = 29kBtu/hr; SEER = 14.0",
               "For NECB 2011: Coil Cooling DX Single Speed 2: AirCooled Electric Resistance or None Single Package Capacity = 384kBtu/hr; EER = 8.39",
               "For NECB 2011: Coil Cooling DX Single Speed 3: AirCooled Electric Resistance or None Single Package Capacity = 136kBtu/hr; EER = 9.7",
               "For NECB 2011: 40.0gal Electricity Water Heater - 40kBtu/hr 1.0 Therm Eff; thermal efficiency = 1.0, skin-loss UA = 3Btu/hr",
               "Finished applying HVAC efficiency standards.",
               "Started adding daylighting controls.",
               "Finished adding daylighting controls.",
               "Total Time = 49sec."
            ],
            "step_result" : "Success",
            "step_values" : [
               {
                  "name" : "building_type",
                  "value" : "Warehouse"
               },
               {
                  "name" : "template",
                  "value" : "NECB 2011"
               },
               {
                  "name" : "climate_zone",
                  "value" : "NECB HDD Method"
               },
               {
                  "name" : "epw_file",
                  "value" : "CAN_PQ_Riviere.du.Loup.717150_CWEC.epw"
               }
            ],
            "step_warnings" : [
               "[openstudio.EpwFile] Successive data points (1978-Jan-31 to 1970-Feb-01, ending on line 753) are greater than 1 day apart in EPW file '/usr/local/bundle/bundler/gems/openstudio-standards-f448df66933d/openstudio-standards/data/weather/CAN_PQ_Riviere.du.Loup.717150_CWEC.epw'. Data will be treated as typical (TMY)",
               "[openstudio.EpwFile] Successive data points (1978-Jan-31 to 1970-Feb-01, ending on line 753) are greater than 1 day apart in EPW file '/usr/local/bundle/bundler/gems/openstudio-standards-f448df66933d/openstudio-standards/data/weather/CAN_PQ_Riviere.du.Loup.717150_CWEC.epw'. Data will be treated as typical (TMY)",
               "[openstudio.weather.Model] Could not find ground temperatures; will use generic temperatures, which will skew results.",
               "[openstudio.EpwFile] Successive data points (1978-Jan-31 to 1970-Feb-01, ending on line 753) are greater than 1 day apart in EPW file '/usr/local/bundle/bundler/gems/openstudio-standards-f448df66933d/openstudio-standards/data/weather/CAN_PQ_Riviere.du.Loup.717150_CWEC.epw'. Data will be treated as typical (TMY)",
               "[openstudio.EpwFile] Successive data points (1978-Jan-31 to 1970-Feb-01, ending on line 753) are greater than 1 day apart in EPW file '/usr/local/bundle/bundler/gems/openstudio-standards-f448df66933d/openstudio-standards/data/weather/CAN_PQ_Riviere.du.Loup.717150_CWEC.epw'. Data will be treated as typical (TMY)",
               "[openstudio.standards.Fan] For Fan Constant Volume 1, there is no greater nominal HP.  Use the efficiency of the largest motor category.",
               "[openstudio.standards.Fan] For Fan Constant Volume 2, there is no greater nominal HP.  Use the efficiency of the largest motor category.",
               "[openstudio.standards.Fan] For Fan Constant Volume 3, there is no greater nominal HP.  Use the efficiency of the largest motor category.",
               "[openstudio.EpwFile] Successive data points (1978-Jan-31 to 1970-Feb-01, ending on line 753) are greater than 1 day apart in EPW file '/usr/local/bundle/bundler/gems/openstudio-standards-f448df66933d/openstudio-standards/data/weather/CAN_PQ_Riviere.du.Loup.717150_CWEC.epw'. Data will be treated as typical (TMY)",
               "[openstudio.EpwFile] Successive data points (1978-Jan-31 to 1970-Feb-01, ending on line 753) are greater than 1 day apart in EPW file '/usr/local/bundle/bundler/gems/openstudio-standards-f448df66933d/openstudio-standards/data/weather/CAN_PQ_Riviere.du.Loup.717150_CWEC.epw'. Data will be treated as typical (TMY)",
               "[openstudio.EpwFile] Successive data points (1978-Jan-31 to 1970-Feb-01, ending on line 753) are greater than 1 day apart in EPW file '/usr/local/bundle/bundler/gems/openstudio-standards-f448df66933d/openstudio-standards/data/weather/CAN_PQ_Riviere.du.Loup.717150_CWEC.epw'. Data will be treated as typical (TMY)",
               "[openstudio.standards.Fan] For Fan Constant Volume 1, there is no greater nominal HP.  Use the efficiency of the largest motor category.",
               "[openstudio.standards.Fan] For Fan Constant Volume 2, there is no greater nominal HP.  Use the efficiency of the largest motor category.",
               "[openstudio.standards.Fan] For Fan Constant Volume 3, there is no greater nominal HP.  Use the efficiency of the largest motor category."
            ]
         }
      },
      {
         "arguments" : {
            "__SKIP__" : false
         },
         "measure_dir_name" : "view_model",
         "name" : "view_model",
         "result" : {
            "completed_at" : "20170710T191851Z",
            "measure_class_name" : "ViewModel",
            "measure_display_name" : "ViewModel",
            "measure_name" : "view_model",
            "measure_taxonomy" : "Reporting.QAQC",
            "measure_type" : "ModelMeasure",
            "measure_uid" : "f4669f10-fda5-489d-8e1c-7ca3c2d40378",
            "measure_version_id" : "f4975c5f-7c25-42a2-927b-02d99b4427ef",
            "measure_version_modified" : "20170526T150340Z",
            "measure_xml_checksum" : "1E1F8B97",
            "started_at" : "20170710T191851Z",
            "stderr" : "",
            "stdout" : "[OpenStudio.Measure] <0> OSArgumentVector is deprecated, use OpenStudio::Measure::OSArgumentVector instead.\n",
            "step_errors" : [],
            "step_files" : [
               "/mnt/openstudio/analysis_4fef0e0f-5396-4c55-a6e1-2cd6803db3ab/data_point_7cd611b7-e31d-40b9-b33c-37d0dd46c3b2/run/001_view_model/report.html",
               "/mnt/openstudio/analysis_4fef0e0f-5396-4c55-a6e1-2cd6803db3ab/data_point_7cd611b7-e31d-40b9-b33c-37d0dd46c3b2/run/001_view_model/report.json"
            ],
            "step_final_condition" : "Report written to <a href='file:////mnt/openstudio/analysis_4fef0e0f-5396-4c55-a6e1-2cd6803db3ab/data_point_7cd611b7-e31d-40b9-b33c-37d0dd46c3b2/run/001_view_model/report.html'>report.html</a>.",
            "step_info" : [ "No changes made to the model." ],
            "step_result" : "NA",
            "step_values" : [
               {
                  "name" : "view_model_html_zip",
[...]
W4484YVeya3k747m4kXiljC3dqq2GG19d00jZevkNkdaO4kXvjiqO+UpAvx3hWB13PD8TSKrceXnWhqXEVh2rvj/mSaCo3LKPDUNZZX57fTk1e9497HKY9voiR1U3bG01nkZ8JvuZv64eTFVtn1ermdjGN/lv5L+p2X255/+/Vh6T5ysUyL+d6RNRbhfJIdv+uHPL6w9yyWn5Qjy/OTWeAuDv1QvA+ndxlE488/WXK+THR5CCxdzLL9xXnZvnZv3eWnpXuKLX9Jz+2EHa3exRPyu7PbScf64Tljl+2IV9tkPypn0pMXupz/9ZaoL1r5yd6jag/zd4CNxfIj3vi07Pa39r6pEiWHTGlIprRDpjQiU9olU9ojU9onUzogU1p7+aahFF2U23RhbtPFuU0X6DZdpNt0oW7TxbpNF+w2XbQ7dNHuEK7pdNHu0EW7oxntzxsvKWbAmHsaQiXnSk+o5EzpCZWcJz2hkjVBT6hkRdATKlkP9IRKVgM9oZK1QE+oLPFpKpHFdlna01Qii+6ypKepRBbfZSlPU4kswssSnqYSWYyXpTtNJbr1myzGy3KdppJOjD9rfKGY5kRvDA2lktOkqVRymjSVSk6TplLJUqCpVLIUaCqVLAWaSiVLgaZSyVKgqVSW73Sl6KK8LOPpStHFeVnO05Wii/SyrKcrRRfrZXlPV4ou2ssyn64U4ZpOF+1lyU9XqjLa8TJ6vIy+EFLYDS+jf7bhZfQqWHgZPV5GX2fDy+jFhpfR42X0+YaX0Zd/Ey+jrxYQG15GvxnvbAQOcIADHOAABzjAAQ5wgAOcjcf5zl7lCBrQgAY0oAENaEADGtCABjSbQ/N9vbMROMABDnCAAxzgAAc4wAEOcL4rnG/YnO14nPq3frp4x295wDr/QXu277E9W3GRNqMT2/4GdGLbb60T26A/GJE0YjMSGlIJ7VAJjaiEdqmE9qiE9qmEDqiE1p7LN1Mii22bLLhtsui2ycLbJotvmyzAbbIIt8lC3CaLcYcsxh269Zssxh2yGHf0Yly949q6Vv2GayY68rNUv92aiY58FajfbM1ER74C1G+1ZqIjn/0GjdaMhKgiuiS9GXRZMxKiCuqS3GbQYs1IiCquSxKbQX81o5WRKrJLsppBczUjIarILklp9TurresYNFYzEpKfIoO2akZC8slv0FTNSEg++Q1aqhkJySe/SUM1MyWy2C7JbCbd1MyUyMK7JLmZtFIzUyKL8JL8ZtJHzWytJIvxkhRn0kTNTIksxkuyHDqooYMaOqg9I0QHNbGhgxo6qKGDWsmGDmrooKZ1VOigtuav8X10UHu6oYPa49bADVvfWaMB4AAHOMABDnCAAxzgAAc4wNl4nO+s/wBoQAMa0IAGNKABDWhAAxrQbA7N36bvAXCAAxzgAAc4wAEOcIADHODU9/sGHdTQMO27aph2Np5yb56dZfE4VMJTZg82o23awQa0TTtorW3abv5QaN0WN1RCQyqhHSqhEZXQLpXQHpXQPpXQAZXQ2tP3ZkpksW2TBbdNFt02WXjbZPFtkwW4TRbhNlmI22Qx7pDFuEO3fpPFuEMW445ejKu3TVvXqt82zURHfpbqt00z0ZGvAvXbppnoyFeA+m3TTHTks9+gbZqREFVEl6Q3g7ZpRkJUQV2S2wzaphkJUcV1SWIzaJtmtDJSRXZJVjNom2YkRBXZJSmtftu0dR2DtmlGQvJTZNA2zUhIPvkN2qYZCcknv0HbNCMh+eQ3aZtmpkQW2yWZzaRtmpkSWXiXJDeTtmlmSmQRXpLfTNqmma2VZDFekuJM2qaZKZHFeEmWQ9s0tE1D27RnhGibJja0TUPbNLRNK9nQNg1t07SOCm3T1vw1vo+2aU83tE173Bq4S+s76y4AHOAABzjAAQ5wgAMc4AAHOBuP8501HQANaEADGtCABjSgAQ1oQAOazaH52zQ7AA5wgAMc4AAHOMABDnCAA5z6fmibVmxom/bYNs3eiLZpzuD7b5uWMbbVNm3Qd0i6ppnoDIl0doh0RkQ6u0Q6e0Q6+0Q6B0Q6aw/dGwlRRbRNFdI2VUzbVEFtU0W1TRXWNlVc21SBbVNFtkMV2Q7ZWk0V2Q5VZDtaka3eHm1Nqn53NAMZ6Rmq3xvNQEY67+t3RjOQkc75+n3RDGSk892gK5qJDlEcy9OYQUs0Ex2iUJbnMIN+aCY6RNEsT2AGzdBM1kGieJZnL4NOaCY6RPEsT13126CtyRh0QTPRkZ4egx5oJjrS6W7QAc1ERzrdDfqfmehIp7tJ9zMjIaqIlmcwk9ZnRkJUQS1PYiZ9z4yEqOJansdMmp4ZrYxUkS1PZSYdz4yEqCJbns3Q7gztztDu7Bkh2p2JDe3O0O4M7c5KNrQ7Q7szraNCu7M1f43vo93Z0w3tzh63Bu6u+s66AgAHOMABDnCAAxzgAAc4wAHOxuN8Z80CQAMa0IAGNKABDWhAAxrQgGZzaP42TQqAAxzgAAc4wAEOcIADHOAAp74f2p0VG9qdrdqdDTej25m9Ad3O7Ba7nQ1GRO3ODISGVEI7VEIjKqFdKqE9KqF9KqEDKqEvnrY3USKLbZssuG2y6LbJwtsmi2+bLMBtsgi3yULcJotxhyzGHbr1myzGHbIYd/RiXKcL2lMtkzZo9XXkZ8mkEVp9HfkqYNIKrb6OfAUwaYZWX0c++43aoRkIUUV0SXoz6ohmIEQV1CW5zagpmoEQVVyXJDajvmgGKyNVZJdkNaPWaAZCVJFdktJMuqM91TFqj2YgJD9FRg3SDITkk9+oRZqBkHzyGzVJMxCST36zNmkmSmSxXZLZzDqlmSiRhXdJcjNrlmaiRBbhJfnNrF+ayVpJFuMlKc6sZZqJElmMl2Q5dE1D1zR0TXtGiK5pYkPXNHRNQ9e0kg1d09A1Teuo0DVtzV/j++ia9nRD17THrYGbtL6z5gLAAQ5wgAMc4AAHOMABDnCAs/E431nPAdCABjSgAQ1oQAMa0IAGNKDZHJq/Ta8D4AAHOMABDnCAAxzgAAc4wKnvh65pxYauaauuaTub0TXN2YCuaU5rXdN282dC63a4oRIaUgntUAmNqIR2qYT2qIT2qYQOqITWHr43UyKLbZssuG2y6LbJwtsmi2+bLMBtsgi3yULcJotxhyzGHbr1myzGHbIYd/RiXL1r2rpW/a5pJjrys1S/a5qJjnwVqN81zURHvgLU75pmoiOf/QZd04yEqCK6JL0ZdE0zEqIK6pLcZtA1zUiIKq5LEptB1zSjlZEqskuymkHXNCMhqsguSWn1u6at6xh0TTMSkp8ig65pRkLyyW/QNc1ISD75DbqmGQnJJ79J1zQzJbLYLslsJl3TzJTIwrskuZl0TTNTIovwkvxm0jXNbK0ki/GSFGfSNc1MiSzGS7Icuqahaxq6pj0jRNc0saFrGrqmoWtayYauaeiapnVU6Jq25q/xfXRNe7qha9rj1sBNWt9ZcwHgAAc4wAEOcIADHOAABzjA2Xic76znAGhAAxrQgAY0oAENaEADGtBsDs3fptcBcIADHOAABzjAAQ5wgAMc4NT3Q9e0YkPXtFXXtNFmdE0bbkDXtGFrXdMGfYekaZqJzpBIZ4dIZ0Sks0uks0eks0+kc0Cks/bMvZEQVUTbVCFtU8W0TRXUNlVU21RhbVPFtU0V2DZVZDtUke2QrdVUke1QRbajFdnq3dHWpOo3RzOQkZ6h+q3RDGSk875+YzQDGemcr98WzUBGOt8NmqKZ6BDFsTyNGXREM9EhCmV5DjNoh2aiQxTN8gRm0AvNZB0kimd59jJohGaiQxTP8tRVvwvamoxBEzQTHenpMWiBZqIjne4GDdBMdKTT3aD9mYmOdLqbND8zEqKKaHkGM+l8ZiREFdTyJGbS9sxIiCqu5XnMpOeZ0cpIFdnyVGbS8MxIiCqy5dkM3c7Q7Qzdzp4RotuZ2NDtDN3O0O2sZEO3M3Q70zoqdDtb89f4PrqdPd3Q7exxa+Dmqu+sKQBwgAMc4AAHOMABDnCAAxzgbDzOd9YrADSgAQ1oQAMa0IAGNKABDWg2h+Zv06MAOMABDnCAAxzgAAc4wAEOcOr7odtZsaHb2arb2e5mdDvb2YBuZzstdjsbjIjanRkIDamEdqiERlRCu1RCe1RC+1RCB1RCXzxtb6JEFts2WXDbZNFtk4W3TRbfNlmA22QRbpOFuE0W4w5ZjDt06zdZjDtkMe7oxbhOF7SnWiZt0OrryM+SSSO0+jryVcCkFVp9HfkKYNIMrb6OfPYbtUMzEKKK6JL0ZtQRzUCIKqhLcptRUzQDIaq4LklsRn3RDFZGqsguyWpGrdEMhKgiuySlmXRHe6pj1B7NQEh+iowapBkIySe/UYs0AyH55DdqkmYgJJ/8Zm3STJTIYrsks5l1SjNRIgvvkuRm1izNRIkswkvym1m/NJO1kizGS1KcWcs0EyWyGC/Jcuiahq5p6Jr2jBBd08SGrmnomoauaSUbuqaha5rWUaFr2pq/xvfRNe3phq5pj1sDN2l9Z80FgAMc4AAHOMABDnCAAxzgAGfjcb6zngOgAQ1oQAMa0IAGNKABDWhAszk0f5teB8ABDnCAAxzgAAc4wAEOcIBT3w9d04oNXdNWXdP2NqNr2mgDuqaNWuuatps/E1q3ww2V0JBKaIdKaEQltEsltEcltE8ldEAltPbwvZkSWWzbZMFtk0W3TRbeNll822QBbpNFuE0W4jZZjDtkMe7Qrd9kMe6QxbijF+PqXdPWtep3TTPRkZ+l+l3TTHTkq0D9rmkmOvIVoH7XNBMd+ew36JpmJEQV0SXpzaBrmpEQVVCX5DaDrmlGQlRxXZLYDLqmGa2MVJFdktUMuqYZCVFFdklKq981bV3HoGuakZD8FBl0TTMSkk9+g65pRkLyyW/QNc1ISD75TbqmmSmRxXZJZjPpmmamRBbeJcnNpGuamRJZhJfkN5OuaWZrJVmMl6Q4k65pZkpkMV6S5dA1DV3T0DXtGSG6pokNXdPQNQ1d00o2dE1D1zSto0LXtDV/je+ja9rTDV3THrcGbtL6zpoLAAc4wAEOcIADHOAABzjAAc7G43xnPQdAAxrQgAY0oAENaEADGtCAZnNo/ja9DoADHOAABzjAAQ5wgAMc4ACnvh+6phUbuqatuqbtb0bXtN0N6Jq221rXtEHfIWmaZqIzJNLZIdIZEensEunsEensE+kcEOmsPXNvJEQV0TZVSNtUMW1TBbVNFdU2VVjbVHFtUwW2TRXZDlVkO2RrNVVkO1SR7WhFtnp3tDWp+s3RDGSkZ6h+azQDGem8r98YzUBGOufrt0UzkJHOd4OmaCY6RHEsT2MGHdFMdIhCWZ7DDNqhmegQRbM8gRn0QjNZB4niWZ69DBqhmegQxbM8ddXvgrYmY9AEzURHenoMWqCZ6Einu0EDNBMd6XQ3aH9moiOd7ibNz4yEqCJansFMOp8ZCVEFtTyJmbQ9MxKiimt5HjPpeWa0MlJFtjyVmTQ8MxKiimx5NkO3M3Q7Q7ezZ4TodiY2dDtDtzN0OyvZ0O0M3c60jgrdztb8Nb6PbmdPN3Q7e9wauLnqO2sKABzgAAc4wAEOcIADHOAABzgbj/Od9QoADWhAAxrQgAY0oAENaEADms2h+dv0KAAOcIADHOAABzjAAQ5wgAOc+n7odlZs6Ha26nZ2sBndzvY2oNvZXmvdzuydQX/wZLN3SJqfEcoOm5HdaUZ21IzsbjOye83I7jcje9CM7Nqz/pS6Dc0zu6GJZjc00+yGpprd0FyzG5psdkOzzW5outkNzTenofnmNJXXGppvTkPzzTGZb+pd5cqU6zeZo1NVPbv1W9DRqaquZPUb1NGpqq5i9dvX0amqrmAGze0IZZuZXcrlgkEnPELZZiaYcq1g0DaPULaZOaZcKBj02CPMCs3MMuUqwaAhH6FsM7NMuUSo372vTNWgmR+hrOqpNWj1RyiruoAZNAIklFVdwAzaBBLKqi5gJk0EKXUbmmfKlYJJx0FK3YammnKxYNKekFK3odmmXC+Y9DKkzBMNzTflksGk8SGlbkPzTblqQJdEdElEl8RnhOiSKDZ0SUSXRHRJLNnQJRFdErWOCl0S1/w1vo8uiU83dEl83Bq4KfM7ayYCHOAABzjAAQ5wgAMc4AAHOBuP8531GAENaEADGtCABjSgAQ1oQAOazaH52/Q2AQ5wgAMc4AAHOMABDnCAA5z6ft+gS+JHfjPjsZvOY846b7bQNPH7aprI41t/zNl/XBF576JoxsQFE/c57wzebEYDxf0NaKC4314DRfHvup2aiHSGRDo7RDojIp1dIp09Ip19Ip0DIp31BgMmQlQRbVOFtE0V0zZVUNtUUW1ThbVNFdc2VWDbVJHtUEW2Q7ZWU0W2QxXZjlZkazT2eypl0Mmvvoz0DBn06qsvI533Bt346stI57xBv736MtL5btJRz0CHKI7lacykSZ6BDlEoy3OYSd87Ax2iaJYnMJNWdgbrIFE8y7OXSXc6Ax2ieJanLoOGc09lTDrMGehIT49JDzkDHel0N+kSZ6Ajne4mfeAMdKTT3ajTm4kQVUTLM5hR8zYTIaqglicxo35sJkJUcS3PY0Yt1kxWRqrIlqcyo65pJkJUkS3PZs+Efo/9KPbTBbNZj3XO5uGWaEm12/t/btgb2L3836/5uDe0ZWlusPYfesfHOzsHBwQWTvMWw+Ytdpq3GDVvsdu8xV7zFvvNWxw0b7GW2ZvyaGF+2y1McLuFGW63MMXtFua43cIkt1uY5XYL09xuYZ47Lcxzp4083sI8d1qY5069ee7kHm4q8xiolVXDoePs7xJYyK8GmYX8YpBZyK8FmYV8ySWzkK+4ZBbyBZfMQr7eklnIl1syi5Kyis6jhfldUlbRebQww0vKKjqPFuZ4SVlF59HCLC8pq+g8WpjnJWUVnUcbebyFeV5SVtF51JvnQ+HxJvYlHs6BWlll23t7wyGBhfxqkFnILwaZhfxakFnIl1wyC/mKS2YhX3DJLOTrLZmF/N4oMouSGwLpPOR3VNF5yG+2ovOQ34dF5yG/RYvOQ35fIp2H/JZFOg/53Yx0HvIbHek8WpjnJWUVnUcbebyFRF5SVtF51EvlO8Lj43Qu89hXK6sOsm30isBCfjXILOQXg8xCfi3ILORlFZmFvKwis5CXVWQW8rKKzEK+3JJZlJRVdB7ysorOQ15W0XnIyyo6D3lZRechL6voPORlFZ2HvKyi85CXVXQeLczzkrKKzqONPN5CIi8pq+g86qXykfD4D/dkHntqZdXr1ycne3sEFvKrQWYhvxhkFvJrQWYhL6vILORlFZmFvKwis5CXVWQW8uWWzKKkrKLzkJdVdB7ysorOQ15W0XnIyyo6D3lZRechL6voPORlFZ2HvKyi82hhnpeUVXQebeTxFhJ5SVlF51Evle/mpducyzx21cqqk5PdXRIL+dUgs5BfDDIL+bUgs5CXVWQW8rKKzEJeVpFZyMsqMgv5cktmUVJW0XnIyyo6D3lZRechL6voPORlFZ2HvKyi85CXVXQe8rKKzkNeVtF5tDDPS8oqOo828ngLibykrKLzqJfK94THr5HstnhnpFZW7e87zmhEYCG/GmQW8otBZiG/FmQW8rKKzEJeVpFZyMsqMgt5WUVmUdZ3isiitNkalUdZtyoqj7JGVlQeZT2uqDzK2l9ReZT1fKPyKGsHR+VR1imOyqOsiRyVRwvzvKSsovNoI4+3kMhLyio6j+pU/kmlw2vRk5kdsZDfrRrI5n1jO8ntpJt3gK1sFbtq7Jzw9FU0D72kMxp0mW2Pumwo/uWM1NrN3mcYj02pPe/ETfkkihfH936ybIv8ePwK3aMzgfexx+MPc9GlWHlHwbFY5/iVu8k85ksM0Wi5OO8Nt+fGMIYxjGEMYxjDGMYwhjGMYQxjGMMYxjCGMYxhDGMYwxjGMIYxjGEMYxjDGMYwhjGMYQxjGMMYxjCGMYxhDGMYwxjGMIYxjGEMYxjDGMbw/6nhRT+65XHse/xXVzxYa/cHhs+rikdjk/VHY8947POkeLzW6q4eIJ4FUdoP/JBXPiKbfO053eona5N+/ur5WRS4qR+FGZSVpHzWu+RXUcwttSef3/EJD731A1p+1tkddNlQPLk8EA8yix9WwK9SAVYhvZLtX0x4ehqm4vxkFlfzcJyTdrbYnxUSK0L+uPd55bPcYvOvWCed+kk/ya+KmpHYnuzUz87fqTuedv4C1lVb4YtHxzP2QvdiFiW+EHydfaxyNKtNyHyFKo7u9JBWWH7ocTEfenZXc+/Vdl13xyufByLeOsU5Xc6TSRzNZ9xjP/7I/lF8ft+/mLpJ8fy7mGBbT0cXXx3NTkjfnUzeCI9+wMNJOmUvmcP+zazjILDY4fo3ksAf807P3joffNqqnG/PjiSKWec6O5TBT+w6sylCtfAVn/0zW3H0L5DYRBgXeufXn/qf+YIdHR0tT149xVy1uOzXuoe62i5j7n6us/OD5j663xfnqzi6IxHWIhiKSMkbOfQv3CTxJyH3TkSLiOQ8P5Of6p3K1YWezZNpp+61yC7p4fJ61p9JQXCocpR98c26LkkaR5+5ms/yu3Wdopk79tOFmlXx5dpHlVusrOqqrBaS9WWlzvTQXnzEtprO6wsP6zFbV01nuqmzPnTzrKr0/YeqmkJs29vs9z8+sv++/+MDO3v/4eMvv/3M3r3/+ZcT9vb0w6mawJts1eb3rijRWBqxJIpTFs5vsjgYs7ylScLcZJwVL344UVBcnXuh8yQzu112qb64xDydxyGbuXHC3wSRm3ZcseRvZZfyyWeX+WdKJ7O6RHtiWxxClfBDs51eHuvPfLrnk73zwuNX7jxI2SyOsjWMv+iyFz/s75+cnJ6+aLjxDHCAAxzgAAc4wAEOcIADHOD838Rhyfwm+09g5nHxIfPchSCKuQca0IAGNKABDWhAAxrQgAY0oCmnuctvzfqC5jKYc+AABzjAAQ5wgAMc4AAHOMABTh2cx/cG2uK9gWdz2XsDh3b+F7bj452dgwOQghSkIAUpSEEKUpCCFKQgBSlIQboZpE5O6qYy0kFOOhw6zv4uSEEKUpCCFKQgBSlIQQpSkIIUpCDdDNKhIH0T+xJS5yAnte29veEQpCAFKUhBClKQghSkIAUpSEEKUpBuBumOIP04nctI93PSg2wbvQIpSEEKUpCCFKQgBSlIQQpSkIIUpJtBOhKk/+GejHQvJ339+uRkbw+kIAUpSEEKUpCCFKQgBSlIQQpSkG4G6W7+m4k5l5Hu5qQnJ7u7IAUpSEEKUpCCFKQgBSlIQQpSkIJ0U0j3BOmvkayzoDPKSff3HWc0AilIQQpSkIIUpCAFKUhBClKQghSkrZGuULzYvetUit33Uz8N+NnUnfF+yu/Tzou30TxOqjEWz/d87d/wMPGjMOBJrlAhsb3Njj2PuSxXYnd+OmVJdMOZN6zYM7md9N3ZjIdexxLe1lbFDqut76Zp3LHurS7bHWjutMh2ctR3StJFwJd4PTccT6M4298K+JUGbaFxFYVp7477k2kqNC6jwFPXWF6bs1nvf1HIbfb+6sofc3a2SHpD9iaIezY7G097x+zt78H4Ju0l0Ty7DP/7jf12evJKfC3lN2zIfj/7H3s/Hovvvtgqu7Avt5Nx7M/Sf0m/83Lb82+/PizdRy6WaTHfO7LGIupPshPl+iGPL5wDi+Vn78jy/GQWuItDPwyyod5lEI0//2TJ+TLR5SGwdDHL9hcncPvavXWXn5buKbZbNxYByo6Y59/MAt4P+d3Z7aRj/fCcsct2BoP8R+WEE7Kem7qZ7vmfVuBe8sA6tDx+5c6DlM3i6MoPuNVdjlzcW4d2f9C1bt1gzot/j8W6lO2TLTUnJ6en1kNXScch0hkS6ewQ6YyIdHaJdPaIdPaJdA6IdOwBlRBVRNtUIW1TxbRNFdQ2VVTbVGFtU8W1TRXYNlVkO1SR7ZCt1VSR7VBFtqMV2SyZ39ysvahaKaPF3NOQkZ4jPRnpGdKTkZ4fPRnpvNeTkc56PRnpnNeTkc54PRnpfNeTkScyTR2iOJanMU0dokiWJzFNHaJYlqcwTR2iaJYnME0doniWpy9NHap1mSie5blLU0c9nu/8MNVPW5fiI3Ud6enR1JGeHk0d6enR1JFOd00d6XTX1JFOd00d6XTX1JFOd00def7SFaKKaHkG0xWiiml5DtMVoopqeRbTFaKKa3ke0xWiimx5JtMVIlurqSJbnsx0hdQj+/EvF5VvFpalucHaf+gtXz1MYOE0bzFs3mKneYtR8xa7zVvsNW+x37zFQfMWa5m9KY8W5rfdwgS3W5jhdgtT3G5hjtstTHK7hVlutzDN7RbmudPCPHfayOMtzHOnhXnu1JvnlS9wVCurlm94JLCQXw0yC/nFILOQXwsyC/mSS2YhX3HJLOQLLpmFfL0ls5Avt2QWJWUVnUcL87ukrKLzaGGGl5RVdB4tzPGSsorOo4VZXlJW0Xm0MM9Lyio6jzbyeAvzvKSsovOoN88r35OlVlYtX6RFYCG/GmQW8otBZiG/FmQW8iWXzEK+4pJZyBdcMgv5ektmIb83isyi5IZAOg/5HVV0HvKbreg85Pdh0XnIb9Gi85Dfl0jnIb9lkc5DfjcjnYf8Rkc6jxbmeUlZRefRRh5vIZGXlFV0HvVSeeXrSNTKquX7Sggs5FeDzEJ+Mcgs5NeCzEJeVpFZyMsqMgt5WUVmIS+ryCzkyy2ZRUlZRechL6voPORlFZ2HvKyi85CXVXQe8rKKzkNeVtF5yMsqOg95WUXn0cI8Lymr6DzayOMtJPKSsorOo14qr+z6rlZWLdvCE1jIrwaZhfxikFnIrwWZhbysIrOQl1VkFvKyisxCXlaRWciXWzKLkrKKzkNeVtF5yMsqOg95WUXnIS+r6DzkZRWdh7ysovOQl1V0HvKyis6jhXleUlbRebSRx1tI5CVlFZ1HvVRe2VxXraxadt8lsJBfDTIL+cUgs5BfCzILeVlFZiEvq8gs5GUVmYW8rCKzkC+3ZBYlZRWdh7ysovOQl1V0HvKyis5DXlbRecjLKjoPeVlF5yEvq+g85GUVnUcL87ykrKLzaCOPt5DIS8oqOo96qbyyh6FaWbVsckhgIb8aZBbyi0FmIb8WZBbysorMQl5WkVnIyyoyC3lZRWZR1neKyKK02RqVR1m3KiqPskZWVB5lPa6oPMraX1F5lPV8o/IoawdH5VHWKY7Ko6yJHJVHC/O8pKyi82gjj7eQyEvKKjqP6lT+SaXDa9G+mR2xkN+tGsjmfWM7ye2km3eArWwVu+oBnfD0VTQPvaQzGnSZbY+6bCj+5YzU2s3eZxiPra0978RN+SSKF8f3frLsofx4/AqNpjOB97HH4w9z0dJYeUfBsVjn+JW7yTzmSwzRlbk47w03+cYwhjGMYQxjGMMYxjCGMYxhDGMYwxjGMIYxjGEMYxjDGMYwhjGMYQxjGMMYxjCGMYxhDGMYwxjGMIYxjGEMYxjDGMYwhjGMYQxjGMMYxvD/qeFFP7rlcex7/FdXPFhr9weGz6uKR2OT9Udjz3js86R4vNbqrh4gngVR2g/8kFc+Ipt87Tnd6idrk37+6vlZFLipH4UZlJWkfNa75FdRzC21J5/f8QkPvfUDWn7W2R102VA8uTwQDzKLH1bAr1IBViG9ku1fTHh6Gqbi/GQWV/NwnJN2ttifFRIrQv6493nls9xi869YJ536ST/Jr4qakdie7NTPzt+pO552/gLWVVvhi0fHM/ZC92IWJb4QfJ19rHI0q03IfIUqju70kFZYfuhxMR96dldz79V2XXfHK58HIt46xTldzpNJHM1n3GM//sj+UXx+37+Yuknx/LuYYFtPRxdfHc1OSN+dTN4Ij37Aw0k6ZS+Zw/7NrOMgsNjh+jeSwB/zTs/eOh982qqcb8+OJIpZ5zo7lMFP7DqzKUK18BWf/TNbcfQvkNhEGBd659ef+p/5gh0dHS1PXj3FXLW47Ne6h7raLmPufq6z84PmPrrfF+erOLojEdYiGIpIyRs59C/cJPEnIfdORIuI5Dw/k5/qncrVhZ7Nk2mn7rXILunh8nrWn0lBcKhylH3xzbouSRpHn7maz/K7dZ2imTv204WaVfHl2keVW6ys6qqsFpL1ZaXO9NBefMS2ms7rCw/rMVtXTWe6qbM+dPOsqvT9h6qaQmzb2+z3Pz6y/77/4wM7e//h4y+//czevf/5lxP29vTDqZrAm2zV5veuKNFYGrEkilMWzm+yOBizvKVJwtxknBUvfjhRUFyde6HzJDO7XXapvrjEPJ3HIZu5ccLfBJGbdlyx5G9ll/LJZ5f5Z0ons7pEe2JbHEKV8EOznV4e6898uueTvfPC41fuPEjZLI6yNYy/6LIXP+zvn5ycnr5ouPEMcIADHOAABzjAAQ5wgAMc4PzfxGHJ/Cb7T2DmcfEh89yFIIq5BxrQgAY0oAENaEADGtCABjSgKae5y2/N+oLmMphz4AAHOMABDnCAAxzgAAc4wAFOHZzH9wba4r2BZ3PZewOHdv4XtuPjnZ2DA5CCFKQgBSlIQQpSkIIUpCAFKUhBuhmkTk7qpjLSQU46HDrO/i5IQQpSkIIUpCAFKUhBClKQghSkIN0M0qEgfRP7ElLnICe17b294RCkIAUpSEEKUpCCFKQgBSlIQQpSkG4G6Y4g/Tidy0j3c9KDbBu9AilIQQpSkIIUpCAFKUhBClKQghSkm0E6EqT/4Z6MdC8nff365GRvD6QgBSlIQQpSkIIUpCAFKUhBClKQbgbpbv6biTmXke7mpCcnu7sgBSlIQQpSkIIUpCAFKUhBClKQgnRTSPcE6a+RrLOgM8pJ9/cdZzQCKUhBClKQghSkIAUpSEEKUpCCFKStka5QvNi961SK3fdTPw342dSd8X7K79POi7fRPE6qMRbP93zt3/Aw8aMw4EmuUCGxvc2OPY+5LFdid346ZUl0w5k3rNgzuZ303dmMh17HEt7WVsUOq63vpmncse6tLtsdaO60yHZy1HdK0kXAl3g9NxxPozjb3wr4lQZtoXEVhWnvjvuTaSo0LqPAU9dYXpuzWe9/Ucgd9sYPOTtLo9idZP+7SHo77E0Q92x2Np72jtnb34PxTdpLonl2Mf73G/vt9OSV+FrKb9gO+/3sf+z9eCy++2Kr7PK+3E7GsT9L/yX9zsttz7/9+rB0H7lYpsV878gai9g/yU6Xmx1mfDEcWCw/h0eW5yezwF0c+mGQDfUug2j8+SdLzpeJLg+BpYtZtr84jdvX7q27/LR0T7HdurEIU3bEPP9mFvB+yO/Obicd64fnjF22MxjkPyqnnZD13NTNdM//tAL3kgfWoeXxK3cepGwWR1d+wK3ucuTi3jq0+4OudesGc178eyxWp2yfbME5OTk9tR66SjoOkc6QSGeHSGdEpLNLpLNHpLNPpHNApGMPqISoItqmCmmbKqZtqqC2qaLapgprmyqubarAtqki26GKbIdsraaKbIcqsh2tyGbJ/OZm7XXVShkt5p6GjPQc6clIz5CejPT86MlI572ejHTW68lI57yejHTG68lI57uejDyRaeoQxbE8jWnqEEWyPIlp6hDFsjyFaeoQRbM8gWnqEMWzPH1p6lCty0TxLM9dmjrq8Xznh6l+2roUH6nrSE+Ppo709GjqSE+Ppo50umvqSKe7po50umvqSKe7po50umvqyPOXrhBVRMszmK4QVUzLc5iuEFVUy7OYrhBVXMvzmK4QVWTLM5muENlaTRXZ8mSmK6Qe2Y9/v6h8v7AszQ3W/kNv+QJiAguneYth8xY7zVuMmrfYbd5ir3mL/eYtDpq3WMvsTXm0ML/tFia43cIMt1uY4nYLc9xuYZLbLcxyu4Vpbrcwz50W5rnTRh5vYZ47Lcxzp948r3yNo1pZtXzPI4GF/GqQWcgvBpmF/FqQWciXXDIL+YpLZiFfcMks5OstmYV8uSWzKCmr6DxamN8lZRWdRwszvKSsovNoYY6XlFV0Hi3M8pKyis6jhXleUlbRebSRx1uY5yVlFZ1HvXle+bYstbJq+TotAgv51SCzkF8MMgv5tSCzkC+5ZBbyFZfMQr7gklnI11syC/m9UWQWJTcE0nnI76ii85DfbEXnIb8Pi85DfosWnYf8vkQ6D/kti3Qe8rsZ6TzkNzrSebQwz0vKKjqPNvJ4C4m8pKyi86iXyitfSqJWVi3fWkJgIb8aZBbyi0FmIb8WZBbysorMQl5WkVnIyyoyC3lZRWYhX27JLErKKjoPeVlF5yEvq+g85GUVnYe8rKLzkJdVdB7ysorOQ15W0XnIyyo6jxbmeUlZRefRRh5vIZGXlFV0HvVSeWXvd7WyatkcnsBCfjXILOQXg8xCfi3ILORlFZmFvKwis5CXVWQW8rKKzEK+3JJZlJRVdB7ysorOQ15W0XnIyyo6D3lZRechL6voPORlFZ2HvKyi85CXVXQeLczzkrKKzqONPN5CIi8pq+g86qXyyha7amXVsgcvgYX8apBZyC8GmYX8WpBZyMsqMgt5WUVmIS+ryCzkZRWZhXy5JbMoKavoPORlFZ2HvKyi85CXVXQe8rKKzkNeVtF5yMsqOg95WUXnIS+r6DxamOclZRWdRxt5vIVEXlJW0XnUS+WVnQzVyqplq0MCC/nVILOQXwwyC/m1ILOQl1VkFvKyisxCXlaRWcjLKjKLsr5TRBalzdaoPMq6VVF5lDWyovIo63FF5VHW/orKo6znG5VHWTs4Ko+yTnFUHmVN5Kg8WpjnJWUVnUcbebyFRF5SVtF5VKfyTyodXosmzuyIhfxu1UA27xvbSW4n3bwDbGWr2FUn6ISnr6J56CWd0aDLbHvUZUPxL2ek1m72PsN4bHDteSduyidRvDi+95NlJ+XH41doN50JvI89Hn+Yi8bGyjsKjsU6x6/cTeYxX2KI3szFeW+41TeGMYxhDGMYwxjGMIYxjGEMYxjDGMYwhjGMYQxjGMMYxjCGMYxhDGMYwxjGMIYxjGEMYxjDGMYwhjGMYQxjGMMYxjCGMYxhDGMYwxjGMIb/Tw0v+tEtj2Pf47+64sFauz8wfF5VPBqbrD8ae8ZjnyfF47VWd/UA8SyI0n7gh7zyEdnka8/pVj9Zm/TzV8/PosBN/SjMoKwk5bPeJb+KYm6pPfn8jk946K0f0PKzzu6gy4biyeWBeJBZ/LACfpUKsArplWz/YsLT0zAV5yezuJqH45y0s8X+rJBYEfLHvc8rn+UWm3/FOunUT/pJflXUjMT2ZKd+dv5O3fG08xewrtoKXzw6nrEXuhezKPGF4OvsY5WjWW1C5itUcXSnh7TC8kOPi/nQs7uae6+267o7Xvk8EPHWKc7pcp5M4mg+4x778Uf2j+Lz+/7F1E2K59/FBNt6Orr46mh2QvruZPJGePQDHk7SKXvJHPZvZh0HgcUO17+RBP6Yd3r21vng01blfHt2JFHMOtfZoQx+YteZTRGqha/47J/ZiqN/gcQmwrjQO7/+1P/MF+zo6Gh58uop5qrFZb/WPdTVdhlz93OdnR8099H9vjhfxdEdibAWwVBESt7IoX/hJok/Cbl3IlpEJOf5mfxU71SuLvRsnkw7da9FdkkPl9ez/kwKgkOVo+yLb9Z1SdI4+szVfJbfresUzdyxny7UrIov1z6q3GJlVVdltZCsLyt1pof24iO21XReX3hYj9m6ajrTTZ31oZtnVaXvP1TVFGLb3ma///GR/ff9Hx/Y2fsPH3/57Wf27v3Pv5ywt6cfTtUE3mSrNr93RYnG0oglUZyycH6TxcGY5S1NEuYm46x48cOJguLq3AudJ5nZ7bJL9cUl5uk8DtnMjRP+JojctOOKJX8ru5RPPrvMP1M6mdUl2hPb4hCqhB+a7fTyWH/m0z2f7J0XHr9y50HKZnGUrWH8RZe9+GF//+Tk9PRFw41ngAMc4AAHOMABDnCAAxzgAOf/Jg5L5jfZfwIzj4sPmecuBFHMPdCABjSgAQ1oQAMa0IAGNKABTTnNXX5r1hc0l8GcAwc4wAEOcIADHOAABzjAAQ5w6uA8vjfQFu8NPJvL3hs4tPO/sB0f7+wcHIAUpCAFKUhBClKQghSkIAUpSEEK0s0gdXJSN5WRDnLS4dBx9ndBClKQghSkIAUpSEEKUpCCFKQgBelmkA4F6ZvYl5A6Bzmpbe/tDYcgBSlIQQpSkIIUpCAFKUhBClKQgnQzSHcE6cfpXEa6n5MeZNvoFUhBClKQghSkIAUpSEEKUpCCFKQg3QzSkSD9D/dkpHs56evXJyd7eyAFKUhBClKQghSkIAUpSEEKUpCCdDNId/PfTMy5jHQ3Jz052d0FKUhBClKQghSkIAUpSEEKUpCCFKSbQronSH+NZJ0FnVFOur/vOKMRSEEKUpCCFKQgBSlIQQpSkIIUpCBtjXSF4sXuXadS7L6f+mnAz6bujPdTfp92XryN5nFSjbF4vudr/4aHiR+FAU9yhQqJ7W127HnMZbkSu/PTKUuiG868YcWeye2k785mPPQ6lvC2tip2WG19N03jjnVvddnuQHOnRbaTo75Tki4CvsTrueF4GsXZ/lbArzRoC42rKEx7d9yfTFOhcRkFnrrG8tqczXr/i0I+ZK/mwWd2lkaxO+HsbJH0dtibIO7Z7Gw87R2zt78H45u0x90kZf/7jf12evJKfCvlN2yH/X72P/Z+PBZffbFVdnVfbifj2J+l/5J+5+W2599+fVi6j1ws02K+d2SNReifZGfL9UMeXwxti+Wn8Mjy/GQWuItDPwyyod5lEI0//2TJ+TLR5SGwdDHL9hdncfvavXWXn5buKbZbNxZRyo6Y59/MAt4P+d3Z7aRj/fCcsct2BoP8R+WsE7Kem7qZ7vmfVuBe8sA6tDx+5c6DlM3i6MoPuNVdjlzcW4d2f9C1bt1gzq3D3YP+wZNt/6BrjcVSlSlkq8/Jyemp9dBVUnUaUR02orrTiOqoEdXdRlT3GlHdb0T1oBFVe9CMbDOzy25metnNzC+7mQlmNzPD7GammN3MHLObmWR2M7PMaWaWOQ3lsGZmmdPMLHMMZhlL5jc3a2//rlEhxNzTEFU8t3qiimdWT1TxvOqJKq5deqKKK5eeqOK6pSequGrpiSquWXqiqoWBpmojc0q1LNBUbWRWqRYFmqqNzCvVkkBTtZGZpVoQaKo2MrdUywFN1WbyVSNzS7UW0FStO7fu/DA1LQMuxRfUVRVPq6aq4mnVVFU8rZqqikuWpqrikqWpqrhkaaoqLlmaqopLlqaqaj2gK9vM7FKtCHRlm5lfqjWBrmwzM0y1KtCVbWaOqdYFurLNzDLVykBXtqEc1swsUy0OdGW1ZtknlT84FH9SZEcs5Herv2fkf8boJLeTbv4Hicq/XKz+Lpnw9FU0D72kMxp0mW2Pumwo/uWM1P76cZ9hPP651fNO3JRPonhxfO8ny7/rPZ4KhT9+ZgLvY4/HH+biz2zKOwqOxTrHr9xN5jFfYoi/FBaXwPTPufnfkdatznjs86TAzZyKCzILorQv/rhVaZl87birSZN+HnezKHBTPwozKCtJ+ax3ya+imFtqkfSOT3jorR/Q8rPObhYFQxEJ4o9htvhR/LW08g/JK9n+xYSnp2Eqzk9mcTUPxzlpZ4v9qfDnUkHIH/c+r5wbYvOvWCed+kkW12I/NSOxPdmpn52/U3c87fwFrKu2wi/+NljoXsyixBeCr7OPVY5mtQmZr1DF0Z0e0grLDz0uJm7P7mruvdqu6+545fNAxFunOKfLeTKJo/mMe+zHH9k/is/v+xdTNynWEzHBtp6OLr46mp2QvjuZvBEe/YCHk3TKXjKH/ZtZx0FgscP1bySBP+adnr11Pvi0VTnfnh1JFLPOdXYog5/YdWZThGrhKz775xGz9S+Q2EQYF3rn15/6n3m2vB0dLU9ePcVctbjs17qHutouY+5+rrPzg+Y+ut8X56s4uiMR1iIYikjJE2P/YnkrEPfym4GS8/xMfqp3KlcXejZPpp261yK7pIfL61l/JgXBocpR9sU367okaRx95mo+y+/WdYpm7thPF2pWxZdrH1VusbKqq7JaSNaXlTrTQ3vxEdtqOq8vPKzHbF01nemmzvrQzbOq0vcfqmoKsW1vs9//+Mj++/6PD+zs/YePv/z2M3v3/udfTtjb0w+nagJvslWb37uiRGNpxJIoK6TD+U0WB2OWl4gJc5NxVrz44URBcXXuhc6TzOx22aX64hLzdB6HbObGCX8TRG7accWSv5VdyiefXeafKZ3M6hLtiW1xCFXCD9/gls0v/gBb3Jcp/qD6Te4gBQ5wgAMc4AAHOMABDnCAA5yNx3l+g4sgirkHGtCABjSgAQ1oQAMa0IAGNKApp3l2S6CgEbf4AQc4wAEOcIADHOAABzjAAQ5wvmGjxI/8ZsZjN53HnHXebKFV4nfVKvE/roi4tzz/n+ObS5+HKROXTPQ95N48O/89tjd4sxktEJ0NaIHotNYCMX/wtG4LJiKdIZHODpHOiEhnl0hnj0hnn0jngEhnrbeAkRBVRNtUIW1TxbRNFdQ2VVTbVGFtU8W1TRXYNlVkO1SR7ZCt1VSR7VBFtqMV2eot+9ak6jfpM5CRnqH6jfgMZKTzvn6zPQMZ6Zyv31DPQEY63w2a5pnoEMWxPI0ZtMIz0SEKZXkOM2hwZ6JDFM3yBGbQts5kHSSKZ3n2MmhGZ6JDFM/y1FW/xdyajEFTORMd6ekxaBxnoiOd7gbN4Ux0pNPdoAGciY50ups0eTMSoopoeQYzad1mJEQV1PIkZtKQzUiIKq7lecykzZrRykgV2fJUZtI8zUiIKrLl2Qwt0TaiJRqGMYxhDGMYwxjGMIYxjGEMYxjDGMYwhr+n4UU/uuVx7Hv8V1f8osruD9AS/8mRoCX+44aW+FobWuKjJb7Ghpb4X25oif/lhpb4mhta4qMl/lc3tMQHDnCAAxzgAAc4wAEOcIADHOBsQkNJ0IAGNKABDWhAAxrQgAY0oNkcmr9NI0vgAAc4wAEOcIADHOAABzjAqe/3DVriv/ZveJj4URjwJEFD/O+rIX4Uf2anV1f+2OfhePHYBr/dBvjFt78Yefr/V/9e/u+jevGPx/+5jLyF+N9pehP86//7/wEwkn0O"
               },
               {
                  "name" : "annual_peak_electric_demand",
                  "units" : "kW",
                  "value" : 333.24353000000002
               },
               {
                  "name" : "first_year_capital_cost",
                  "units" : "$",
                  "value" : 0
               },
               {
                  "name" : "annual_utility_cost",
                  "units" : "$",
                  "value" : 0
               },
               {
                  "name" : "total_lifecycle_cost",
                  "units" : "$",
                  "value" : 0
               }
            ],
            "step_warnings" : [ "A table in Annual Overview section returned false and was skipped." ]
         }
      }
   ],
   "updated_at" : "20170710T191950Z",
   "weather_file" : "USA_CO_Denver.Intl.AP.725650_TMY3.epw"
}
