{
   "completed_at" : "20170710T191347Z",
   "completed_status" : "Success",
   "created_at" : "2017-07-10 19:11:45 +0000",
   "current_step" : 5,
   "description" : "",
   "eplusout_err" : "Program Version,EnergyPlus, Version 8.7.0-78a111df4a, YMD=2017.07.10 19:12,IDD_Version 8.7.0\n   ************* IDF Context for following error/warning message:\n   ************* Note -- lines truncated at 300 characters, if necessary...\n   *************      5 Building,\n   ************* indicated Name=NECB 2011-SmallOffice-NECB HDD Method-CAN_BC_Victoria.717990_CWEC.epw created: 2017-07-10 19:11:51 +0000\n   ************* Only last 1 lines before error line shown.....\n   *************      6   NECB 2011-SmallOffice-NECB HDD Method-CAN_BC_Victoria.717990_CWEC.epw created: 2017-07-10 19:11:51 +0000, !- Name\n   ** Warning ** IP: IDF line~6 Alpha Argument length exceeds maximum, will be truncated=  NECB 2011-SmallOffice-NECB HDD Method-CAN_BC_Victoria.717990_CWEC.epw created: 2017-07-10 19:11:51 +000\n   **   ~~~   ** Will be processed as Alpha=NECB 2011-SMALLOFFICE-NECB HDD METHOD-CAN_BC_VICTORIA.717990_CWEC.EPW CREATED: 2017-07-10 19:11:51 +0000\n   ************* Beginning Zone Sizing Calculations\n   ** Warning ** ProcessScheduleInput: Schedule:Day:Interval=\"ECONOMIZER MAX OA FRACTION 100 PCT DEFAULT\", Blank Schedule Type Limits Name input -- will not be validated.\n   ** Warning ** ProcessScheduleInput: Schedule:Day:Interval=\"SCHEDULE DAY 1\", Blank Schedule Type Limits Name input -- will not be validated.\n   ** Warning ** ProcessScheduleInput: Schedule:Day:Interval=\"SCHEDULE DAY 10\", Blank Schedule Type Limits Name input -- will not be validated.\n   ** Warning ** ProcessScheduleInput: Schedule:Day:Interval=\"SCHEDULE DAY 11\", Blank Schedule Type Limits Name input -- will not be validated.\n   ** Warning ** ProcessScheduleInput: Schedule:Day:Interval=\"SCHEDULE DAY 12\", Blank Schedule Type Limits Name input -- will not be validated.\n   ** Warning ** ProcessScheduleInput: Schedule:Day:Interval=\"SCHEDULE DAY 13\", Blank Schedule Type Limits Name input -- will not be validated.\n   ** Warning ** ProcessScheduleInput: Schedule:Day:Interval=\"SCHEDULE DAY 14\", Blank Schedule Type Limits Name input -- will not be validated.\n   ** Warning ** ProcessScheduleInput: Schedule:Day:Interval=\"SCHEDULE DAY 15\", Blank Schedule Type Limits Name input -- will not be validated.\n   ** Warning ** ProcessScheduleInput: Schedule:Day:Interval=\"SCHEDULE DAY 16\", Blank Schedule Type Limits Name input -- will not be validated.\n   ** Warning ** ProcessScheduleInput: Schedule:Day:Interval=\"SCHEDULE DAY 17\", Blank Schedule Type Limits Name input -- will not be validated.\n   ** Warning ** ProcessScheduleInput: Schedule:Day:Interval=\"SCHEDULE DAY 18\", Blank Schedule Type Limits Name input -- will not be validated.\n   ** Warning ** ProcessScheduleInput: Schedule:Day:Interval=\"SCHEDULE DAY 19\", Blank Schedule Type Limits Name input -- will not be validated.\n   ** Warning ** ProcessScheduleInput: Schedule:Day:Interval=\"SCHEDULE DAY 2\", Blank Schedule Type Limits Name input -- will not be validated.\n   ** Warning ** ProcessScheduleInput: Schedule:Day:Interval=\"SCHEDULE DAY 5\", Blank Schedule Type Limits Name input -- will not be validated.\n   ** Warning ** ProcessScheduleInput: Schedule:Day:Interval=\"SCHEDULE DAY 6\", Blank Schedule Type Limits Name input -- will not be validated.\n   ** Warning ** ProcessScheduleInput: Schedule:Day:Interval=\"SCHEDULE DAY 7\", Blank Schedule Type Limits Name input -- will not be validated.\n   ** Warning ** ProcessScheduleInput: Schedule:Day:Interval=\"SCHEDULE DAY 8\", Blank Schedule Type Limits Name input -- will not be validated.\n   ** Warning ** ProcessScheduleInput: Schedule:Day:Interval=\"SCHEDULE DAY 9\", Blank Schedule Type Limits Name input -- will not be validated.\n   ** Warning ** ProcessScheduleInput: Schedule:Year=\"ECONOMIZER MAX OA FRACTION 100 PCT\", Blank Schedule Type Limits Name input -- will not be validated.\n   ** Warning ** ProcessScheduleInput: Schedule:Year=\"SCHEDULE RULESET 10\", Blank Schedule Type Limits Name input -- will not be validated.\n   ** Warning ** ProcessScheduleInput: Schedule:Year=\"SCHEDULE RULESET 11\", Blank Schedule Type Limits Name input -- will not be validated.\n   ** Warning ** ProcessScheduleInput: Schedule:Year=\"SCHEDULE RULESET 12\", Blank Schedule Type Limits Name input -- will not be validated.\n   ** Warning ** ProcessScheduleInput: Schedule:Year=\"SCHEDULE RULESET 13\", Blank Schedule Type Limits Name input -- will not be validated.\n   ** Warning ** ProcessScheduleInput: Schedule:Year=\"SCHEDULE RULESET 14\", Blank Schedule Type Limits Name input -- will not be validated.\n   ** Warning ** ProcessScheduleInput: Schedule:Year=\"SCHEDULE RULESET 15\", Blank Schedule Type Limits Name input -- will not be validated.\n   ** Warning ** ProcessScheduleInput: Schedule:Year=\"SCHEDULE RULESET 16\", Blank Schedule Type Limits Name input -- will not be validated.\n   ** Warning ** ProcessScheduleInput: Schedule:Year=\"SCHEDULE RULESET 17\", Blank Schedule Type Limits Name input -- will not be validated.\n   ** Warning ** ProcessScheduleInput: Schedule:Year=\"SCHEDULE RULESET 3\", Blank Schedule Type Limits Name input -- will not be validated.\n   ** Warning ** ProcessScheduleInput: Schedule:Year=\"SCHEDULE RULESET 4\", Blank Schedule Type Limits Name input -- will not be validated.\n   ** Warning ** ProcessScheduleInput: Schedule:Year=\"SCHEDULE RULESET 5\", Blank Schedule Type Limits Name input -- will not be validated.\n   ** Warning ** ProcessScheduleInput: Schedule:Year=\"SCHEDULE RULESET 6\", Blank Schedule Type Limits Name input -- will not be validated.\n   ** Warning ** ProcessScheduleInput: Schedule:Year=\"SCHEDULE RULESET 7\", Blank Schedule Type Limits Name input -- will not be validated.\n   ** Warning ** ProcessScheduleInput: Schedule:Year=\"SCHEDULE RULESET 8\", Blank Schedule Type Limits Name input -- will not be validated.\n   ** Warning ** ProcessScheduleInput: Schedule:Year=\"SCHEDULE RULESET 9\", Blank Schedule Type Limits Name input -- will not be validated.\n   ** Warning ** ProcessScheduleInput: Schedule:Constant=\"ALWAYS OFF DISCRETE\", Blank Schedule Type Limits Name input -- will not be validated.\n   ** Warning ** ProcessScheduleInput: Schedule:Constant=\"ALWAYS ON CONTINUOUS\", Blank Schedule Type Limits Name input -- will not be validated.\n   ** Warning ** CheckUsedConstructions: There are 22 nominally unused constructions in input.\n   **   ~~~   ** For explicit details on each unused construction, use Output:Diagnostics,DisplayExtraWarnings;\n   ************* Beginning System Sizing Calculations\n   ************* Beginning Plant Sizing Calculations\n   ** Warning ** GetDXCoils: Coil:Cooling:DX:SingleSpeed=\"COIL COOLING DX SINGLE SPEED 5 15KBTU/HR 14.0SEER\", invalid\n   **   ~~~   ** ...Part Load Fraction Correlation Curve Name = DXCOOL-NECB2011-REF-COOLPLFFPLR 4 has out of range value.\n   **   ~~~   ** ...Curve maximum must be <= 1.0, curve max at PLR = 0.99 is 1.015\n   **   ~~~   ** ...Setting curve maximum to 1.0 and simulation continues.\n   ** Warning ** GetDXCoils: Coil:Cooling:DX:SingleSpeed=\"COIL COOLING DX SINGLE SPEED 4 16KBTU/HR 14.0SEER\", invalid\n   **   ~~~   ** ...Part Load Fraction Correlation Curve Name = DXCOOL-NECB2011-REF-COOLPLFFPLR 3 has out of range value.\n   **   ~~~   ** ...Curve maximum must be <= 1.0, curve max at PLR = 0.99 is 1.015\n   **   ~~~   ** ...Setting curve maximum to 1.0 and simulation continues.\n   ** Warning ** GetDXCoils: Coil:Cooling:DX:SingleSpeed=\"COIL COOLING DX SINGLE SPEED 2 16KBTU/HR 14.0SEER\", invalid\n   **   ~~~   ** ...Part Load Fraction Correlation Curve Name = DXCOOL-NECB2011-REF-COOLPLFFPLR 1 has out of range value.\n   **   ~~~   ** ...Curve maximum must be <= 1.0, curve max at PLR = 0.99 is 1.015\n   **   ~~~   ** ...Setting curve maximum to 1.0 and simulation continues.\n   ** Warning ** GetDXCoils: Coil:Cooling:DX:SingleSpeed=\"COIL COOLING DX SINGLE SPEED 1 13KBTU/HR 14.0SEER\", invalid\n   **   ~~~   ** ...Part Load Fraction Correlation Curve Name = DXCOOL-NECB2011-REF-COOLPLFFPLR has out of range value.\n   **   ~~~   ** ...Curve maximum must be <= 1.0, curve max at PLR = 0.99 is 1.015\n   **   ~~~   ** ...Setting curve maximum to 1.0 and simulation continues.\n   ** Warning ** GetDXCoils: Coil:Cooling:DX:SingleSpeed=\"COIL COOLING DX SINGLE SPEED 3 18KBTU/HR 14.0SEER\", invalid\n   **   ~~~   ** ...Part Load Fraction Correlation Curve Name = DXCOOL-NECB2011-REF-COOLPLFFPLR 2 has out of range value.\n   **   ~~~   ** ...Curve maximum must be <= 1.0, curve max at PLR = 0.99 is 1.015\n   **   ~~~   ** ...Setting curve maximum to 1.0 and simulation continues.\n   ** Warning ** The Standard Ratings is calculated for Coil:Cooling:DX:SingleSpeed = COIL COOLING DX SINGLE SPEED 5 15KBTU/HR 14.0SEER but not at the AHRI test condition due to curve out of bound.\n   **   ~~~   **  Review the Standard Ratings calculations in the Engineering Reference for this coil type. Also, use Output:Diagnostics, DisplayExtraWarnings for further guidance.\n   ** Warning ** The Standard Ratings is calculated for Coil:Cooling:DX:SingleSpeed = COIL COOLING DX SINGLE SPEED 4 16KBTU/HR 14.0SEER but not at the AHRI test condition due to curve out of bound.\n   **   ~~~   **  Review the Standard Ratings calculations in the Engineering Reference for this coil type. Also, use Output:Diagnostics, DisplayExtraWarnings for further guidance.\n   ** Warning ** The Standard Ratings is calculated for Coil:Cooling:DX:SingleSpeed = COIL COOLING DX SINGLE SPEED 2 16KBTU/HR 14.0SEER but not at the AHRI test condition due to curve out of bound.\n   **   ~~~   **  Review the Standard Ratings calculations in the Engineering Reference for this coil type. Also, use Output:Diagnostics, DisplayExtraWarnings for further guidance.\n   ** Warning ** The Standard Ratings is calculated for Coil:Cooling:DX:SingleSpeed = COIL COOLING DX SINGLE SPEED 1 13KBTU/HR 14.0SEER but not at the AHRI test condition due to curve out of bound.\n   **   ~~~   **  Review the Standard Ratings calculations in the Engineering Reference for this coil type. Also, use Output:Diagnostics, DisplayExtraWarnings for further guidance.\n   ** Warning ** The Standard Ratings is calculated for Coil:Cooling:DX:SingleSpeed = COIL COOLING DX SINGLE SPEED 3 18KBTU/HR 14.0SEER but not at the AHRI test condition due to curve out of bound.\n   **   ~~~   **  Review the Standard Ratings calculations in the Engineering Reference for this coil type. Also, use Output:Diagnostics, DisplayExtraWarnings for further guidance.\n   ** Warning ** Check input. Pump nominal power or motor efficiency is set to 0, for pump=SERVICE WATER LOOP PUMP\n   ** Warning ** Output:Meter: invalid Name=\"DISTRICTCOOLING:FACILITY\" - not found.\n   ** Warning ** Output:Meter: invalid Name=\"DISTRICTHEATING:FACILITY\" - not found.\n   ** Warning ** Output:Meter:MeterFileOnly requested for \"Electricity:Facility\" (TimeStep), already on \"Output:Meter\". Will report to both eplusout.eso and eplusout.mtr\n   ************* Testing Individual Branch Integrity\n   ************* All Branches passed integrity testing\n   ************* Testing Individual Supply Air Path Integrity\n   ************* All Supply Air Paths passed integrity testing\n   ************* Testing Individual Return Air Path Integrity\n   ************* All Return Air Paths passed integrity testing\n   ************* No node connection errors were found.\n   ************* Beginning Simulation\n   ** Warning ** CalcDoe2DXCoil: Coil:Cooling:DX:SingleSpeed \"COIL COOLING DX SINGLE SPEED 5 15KBTU/HR 14.0SEER\" - Air-cooled condenser inlet dry-bulb temperature below 0 C. Outdoor dry-bulb temperature = -0.85\n   **   ~~~   **  ... Occurrence info = RUN PERIOD 1, 01/03 21:15 - 21:18\n   **   ~~~   ** ... Operation at low ambient temperatures may require special performance curves.\n   ** Warning ** CalcDoe2DXCoil: Coil:Cooling:DX:SingleSpeed \"COIL COOLING DX SINGLE SPEED 4 16KBTU/HR 14.0SEER\" - Air-cooled condenser inlet dry-bulb temperature below 0 C. Outdoor dry-bulb temperature = -0.85\n   **   ~~~   **  ... Occurrence info = RUN PERIOD 1, 01/03 21:15 - 21:18\n   **   ~~~   ** ... Operation at low ambient temperatures may require special performance curves.\n   ** Warning ** CalcDoe2DXCoil: Coil:Cooling:DX:SingleSpeed \"COIL COOLING DX SINGLE SPEED 2 16KBTU/HR 14.0SEER\" - Air-cooled condenser inlet dry-bulb temperature below 0 C. Outdoor dry-bulb temperature = -0.85\n   **   ~~~   **  ... Occurrence info = RUN PERIOD 1, 01/03 21:15 - 21:18\n   **   ~~~   ** ... Operation at low ambient temperatures may require special performance curves.\n   ** Warning ** CalcDoe2DXCoil: Coil:Cooling:DX:SingleSpeed \"COIL COOLING DX SINGLE SPEED 1 13KBTU/HR 14.0SEER\" - Air-cooled condenser inlet dry-bulb temperature below 0 C. Outdoor dry-bulb temperature = -0.85\n   **   ~~~   **  ... Occurrence info = RUN PERIOD 1, 01/03 21:15 - 21:18\n   **   ~~~   ** ... Operation at low ambient temperatures may require special performance curves.\n   ** Warning ** CalcDoe2DXCoil: Coil:Cooling:DX:SingleSpeed \"COIL COOLING DX SINGLE SPEED 3 18KBTU/HR 14.0SEER\" - Air-cooled condenser inlet dry-bulb temperature below 0 C. Outdoor dry-bulb temperature = -0.85\n   **   ~~~   **  ... Occurrence info = RUN PERIOD 1, 01/03 21:15 - 21:18\n   **   ~~~   ** ... Operation at low ambient temperatures may require special performance curves.\n   ** Warning ** CalcDoe2DXCoil: Coil:Cooling:DX:SingleSpeed \"COIL COOLING DX SINGLE SPEED 5 15KBTU/HR 14.0SEER\" - Full load outlet air dry-bulb temperature < 2C. This indicates the possibility of coil frost/freeze. Outlet temperature = 1.90 C.\n   **   ~~~   **  ...Occurrence info = RUN PERIOD 1, 02/23 06:03 - 06:05\n   **   ~~~   ** ... Possible reasons for low outlet air dry-bulb temperatures are: This DX coil\n   **   ~~~   **    1) may have a low inlet air dry-bulb temperature. Inlet air temperature = 14.498 C.\n   **   ~~~   **    2) may have a low air flow rate per watt of cooling capacity. Check inputs.\n   **   ~~~   **    3) is used as part of a HX assisted cooling coil which uses a high sensible effectiveness. Check inputs.\n   ************* Simulation Error Summary *************\n   ************* There are 9 unused schedules in input.\n   ************* There are 9 unused week schedules in input.\n   ************* There are 12 unused day schedules in input.\n   ************* Use Output:Diagnostics,DisplayUnusedSchedules; to see them.\n   *************\n   ************* ===== Recurring Error Summary =====\n   ************* The following recurring error messages occurred.\n   *************\n   *************  ** Warning ** CalcDoe2DXCoil: Coil:Cooling:DX:SingleSpeed=\"COIL COOLING DX SINGLE SPEED 5 15KBTU/HR 14.0SEER\" - Low condenser dry-bulb temperature error continues...\n   *************  **   ~~~   **   This error occurred 28 total times;\n   *************  **   ~~~   **   during Warmup 0 times;\n   *************  **   ~~~   **   during Sizing 0 times.\n   *************  **   ~~~   **   Max=-5.000000E-002 [C]  Min=-2.4 [C]\n   *************\n   *************  ** Warning ** CalcDoe2DXCoil: Coil:Cooling:DX:SingleSpeed=\"COIL COOLING DX SINGLE SPEED 4 16KBTU/HR 14.0SEER\" - Low condenser dry-bulb temperature error continues...\n   *************  **   ~~~   **   This error occurred 54 total times;\n   *************  **   ~~~   **   during Warmup 0 times;\n   *************  **   ~~~   **   during Sizing 0 times.\n   *************  **   ~~~   **   Max=-5.000000E-002 [C]  Min=-3.625 [C]\n   *************\n   *************  ** Warning ** CalcDoe2DXCoil: Coil:Cooling:DX:SingleSpeed=\"COIL COOLING DX SINGLE SPEED 2 16KBTU/HR 14.0SEER\" - Low condenser dry-bulb temperature error continues...\n   *************  **   ~~~   **   This error occurred 55 total times;\n   *************  **   ~~~   **   during Warmup 0 times;\n   *************  **   ~~~   **   during Sizing 0 times.\n   *************  **   ~~~   **   Max=-5.000000E-002 [C]  Min=-3.625 [C]\n   *************\n   *************  ** Warning ** CalcDoe2DXCoil: Coil:Cooling:DX:SingleSpeed=\"COIL COOLING DX SINGLE SPEED 1 13KBTU/HR 14.0SEER\" - Low condenser dry-bulb temperature error continues...\n   *************  **   ~~~   **   This error occurred 37 total times;\n   *************  **   ~~~   **   during Warmup 0 times;\n   *************  **   ~~~   **   during Sizing 0 times.\n   *************  **   ~~~   **   Max=-5.000000E-002 [C]  Min=-3.075 [C]\n   *************\n   *************  ** Warning ** CalcDoe2DXCoil: Coil:Cooling:DX:SingleSpeed=\"COIL COOLING DX SINGLE SPEED 3 18KBTU/HR 14.0SEER\" - Low condenser dry-bulb temperature error continues...\n   *************  **   ~~~   **   This error occurred 53 total times;\n   *************  **   ~~~   **   during Warmup 0 times;\n   *************  **   ~~~   **   during Sizing 0 times.\n   *************  **   ~~~   **   Max=-5.000000E-002 [C]  Min=-3.625 [C]\n   *************\n   *************  ** Warning ** CalcDoe2DXCoil: Coil:Cooling:DX:SingleSpeed=\"COIL COOLING DX SINGLE SPEED 5 15KBTU/HR 14.0SEER\" - Full load outlet temperature indicates a possibility of frost/freeze error continues. Outlet air temperature statistics follow:\n   *************  **   ~~~   **   This error occurred 3 total times;\n   *************  **   ~~~   **   during Warmup 0 times;\n   *************  **   ~~~   **   during Sizing 0 times.\n   *************  **   ~~~   **   Max=1.972571  Min=1.789875\n   *************\n   *************\n   ************* ===== Final Error Summary =====\n   ************* The following error categories occurred.  Consider correcting or noting.\n   ************* Nominally Unused Constructions\n   ************* ..The nominally unused constructions warning is provided to alert you to potential conditions that can cause\n   ************* ..extra time during simulation. Each construction is calculated by the algorithm indicated in the HeatBalanceAlgorithm\n   ************* ..object. You may remove the constructions indicated (when you use the DisplayExtraWarnings option).\n   *************\n   ************* EnergyPlus Warmup Error Summary. During Warmup: 0 Warning; 0 Severe Errors.\n   ************* EnergyPlus Sizing Error Summary. During Sizing: 37 Warning; 0 Severe Errors.\n   ************* EnergyPlus Completed Successfully-- 282 Warning; 0 Severe Errors; Elapsed Time=00hr 00min 36.26sec\n",
   "file_format_version" : "0.0.1",
   "file_paths" : [ "../weather", "../seeds", "../seed" ],
   "hash" : "ED914890",
   "measure_paths" : [ "../measures" ],
   "name" : "LHS Autogenerated 756",
   "osa_id" : "4fef0e0f-5396-4c55-a6e1-2cd6803db3ab",
   "osd_id" : "7d69e867-80a1-46f4-9c82-7c10b120f23e",
   "run_directory" : "./run",
   "seed_file" : "seed.osm",
   "started_at" : "20170710T191148Z",
   "steps" : [
      {
         "arguments" : {
            "__SKIP__" : false,
            "building_type" : "SmallOffice",
            "climate_zone" : "NECB HDD Method",
            "epw_file" : "CAN_BC_Victoria.717990_CWEC.epw",
            "template" : "NECB 2011"
         },
         "measure_dir_name" : "create_prototype_building",
         "name" : "create_prototype_building",
         "result" : {
            "completed_at" : "20170710T191238Z",
            "measure_class_name" : "CreatePrototypeBuilding",
            "measure_display_name" : "Create Prototype Building",
            "measure_name" : "create_prototype_building",
            "measure_taxonomy" : "Whole Building.Space Types",
            "measure_type" : "ModelMeasure",
            "measure_uid" : "ae90fsd7-a651-467a-bc8d-29d310b0f937",
            "measure_version_id" : "c6ec5c18-5595-459f-a082-09a19c8c869c",
            "measure_version_modified" : "20170519T182315Z",
            "measure_xml_checksum" : "057E8D9D",
            "started_at" : "20170710T191150Z",
            "stderr" : "",
            "stdout" : "[OpenStudio.Measure] <0> OSArgumentVector is deprecated, use OpenStudio::Measure::OSArgumentVector instead.\n[openstudio.EpwFile] <0> Successive data points (1970-Jan-31 to 1960-Feb-01, ending on line 753) are greater than 1 day apart in EPW file '/usr/local/bundle/bundler/gems/openstudio-standards-f448df66933d/openstudio-standards/data/weather/CAN_BC_Victoria.717990_CWEC.epw'. Data will be treated as typical (TMY)\n[openstudio.setFileExtension] <0> Path p, '/usr/local/bundle/bundler/gems/openstudio-standards-f448df66933d/openstudio-standards/data/weather/CAN_BC_Victoria.717990_CWEC.ddy', has an unexpected file extension. Was expecting 'idf'.\n[openstudio.model.YearDescription] <1> 'UseWeatherFile' is not yet a supported option for YearDescription\n[openstudio.model.YearDescription] <1> 'UseWeatherFile' is not yet a supported option for YearDescription\n[openstudio.setFileExtension] <0> Path p, '/usr/local/bundle/bundler/gems/openstudio-standards-f448df66933d/openstudio-standards/data/weather/CAN_BC_Victoria.717990_CWEC.ddy', has an unexpected file extension. Was expecting 'idf'.\n[openstudio.model.YearDescription] <1> 'UseWeatherFile' is not yet a supported option for YearDescription\n[openstudio.model.YearDescription] <1> 'UseWeatherFile' is not yet a supported option for YearDescription\n[openstudio.EpwFile] <0> Successive data points (1970-Jan-31 to 1960-Feb-01, ending on line 753) are greater than 1 day apart in EPW file '/usr/local/bundle/bundler/gems/openstudio-standards-f448df66933d/openstudio-standards/data/weather/CAN_BC_Victoria.717990_CWEC.epw'. Data will be treated as typical (TMY)\n[openstudio.weather.Model] <0> Could not find ground temperatures; will use generic temperatures, which will skew results.\n[openstudio.setFileExtension] <0> Path p, '/usr/local/bundle/bundler/gems/openstudio-standards-f448df66933d/openstudio-standards/data/weather/CAN_BC_Victoria.717990_CWEC.ddy', has an unexpected file extension. Was expecting 'idf'.\n[openstudio.model.YearDescription] <1> 'UseWeatherFile' is not yet a supported option for YearDescription\n[openstudio.model.YearDescription] <1> 'UseWeatherFile' is not yet a supported option for YearDescription\n[openstudio.EpwFile] <0> Successive data points (1970-Jan-31 to 1960-Feb-01, ending on line 753) are greater than 1 day apart in EPW file '/usr/local/bundle/bundler/gems/openstudio-standards-f448df66933d/openstudio-standards/data/weather/CAN_BC_Victoria.717990_CWEC.epw'. Data will be treated as typical (TMY)\n[openstudio.setFileExtension] <0> Path p, '/usr/local/bundle/bundler/gems/openstudio-standards-f448df66933d/openstudio-standards/data/weather/CAN_BC_Victoria.717990_CWEC.ddy', has an unexpected file extension. Was expecting 'idf'.\n[openstudio.model.YearDescription] <1> 'UseWeatherFile' is not yet a supported option for YearDescription\n[openstudio.model.YearDescription] <1> 'UseWeatherFile' is not yet a supported option for YearDescription\n[openstudio.setFileExtension] <0> Path p, '/usr/local/bundle/bundler/gems/openstudio-standards-f448df66933d/openstudio-standards/data/weather/CAN_BC_Victoria.717990_CWEC.ddy', has an unexpected file extension. Was expecting 'idf'.\n[openstudio.model.YearDescription] <1> 'UseWeatherFile' is not yet a supported option for YearDescription\n[openstudio.model.YearDescription] <1> 'UseWeatherFile' is not yet a supported option for YearDescription\n[openstudio.EpwFile] <0> Successive data points (1970-Jan-31 to 1960-Feb-01, ending on line 753) are greater than 1 day apart in EPW file '/usr/local/bundle/bundler/gems/openstudio-standards-f448df66933d/openstudio-standards/data/weather/CAN_BC_Victoria.717990_CWEC.epw'. Data will be treated as typical (TMY)\n[openstudio.setFileExtension] <0> Path p, '/usr/local/bundle/bundler/gems/openstudio-standards-f448df66933d/openstudio-standards/data/weather/CAN_BC_Victoria.717990_CWEC.ddy', has an unexpected file extension. Was expecting 'idf'.\n[openstudio.model.YearDescription] <1> 'UseWeatherFile' is not yet a supported option for YearDescription\n[openstudio.model.YearDescription] <1> 'UseWeatherFile' is not yet a supported option for YearDescription\n[openstudio.setFileExtension] <0> Path p, '/usr/local/bundle/bundler/gems/openstudio-standards-f448df66933d/openstudio-standards/data/weather/CAN_BC_Victoria.717990_CWEC.ddy', has an unexpected file extension. Was expecting 'idf'.\n[openstudio.model.YearDescription] <1> 'UseWeatherFile' is not yet a supported option for YearDescription\n[openstudio.model.YearDescription] <1> 'UseWeatherFile' is not yet a supported option for YearDescription\n[utilities.idf.WorkspaceObject] <0> Object of type 'Schedule:Constant' and named 'Always Off Discrete', points to an object named OnOff 1 from field 1, but that object cannot be located.\n[utilities.idf.WorkspaceObject] <0> Object of type 'Schedule:Constant' and named 'Always On Continuous', points to an object named Fractional 1 from field 1, but that object cannot be located.\n[utilities.idf.WorkspaceObject] <0> Object of type 'Schedule:Constant' and named 'Always Off Discrete', points to an object named OnOff 1 from field 1, but that object cannot be located.\n[utilities.idf.WorkspaceObject] <0> Object of type 'Schedule:Constant' and named 'Always On Continuous', points to an object named Fractional 1 from field 1, but that object cannot be located.\n[openstudio.standards.Fan] <0> For Fan Constant Volume 1, there is no greater nominal HP.  Use the efficiency of the largest motor category.\n[openstudio.standards.Fan] <0> For Fan Constant Volume 2, there is no greater nominal HP.  Use the efficiency of the largest motor category.\n[openstudio.standards.Fan] <0> For Fan Constant Volume 3, there is no greater nominal HP.  Use the efficiency of the largest motor category.\n[openstudio.standards.Fan] <0> For Fan Constant Volume 4, there is no greater nominal HP.  Use the efficiency of the largest motor category.\n[openstudio.standards.Fan] <0> For Fan Constant Volume 5, there is no greater nominal HP.  Use the efficiency of the largest motor category.\n[openstudio.EpwFile] <0> Successive data points (1970-Jan-31 to 1960-Feb-01, ending on line 753) are greater than 1 day apart in EPW file '/usr/local/bundle/bundler/gems/openstudio-standards-f448df66933d/openstudio-standards/data/weather/CAN_BC_Victoria.717990_CWEC.epw'. Data will be treated as typical (TMY)\n[openstudio.setFileExtension] <0> Path p, '/usr/local/bundle/bundler/gems/openstudio-standards-f448df66933d/openstudio-standards/data/weather/CAN_BC_Victoria.717990_CWEC.ddy', has an unexpected file extension. Was expecting 'idf'.\n[openstudio.model.YearDescription] <1> 'UseWeatherFile' is not yet a supported option for YearDescription\n[openstudio.model.YearDescription] <1> 'UseWeatherFile' is not yet a supported option for YearDescription\n[openstudio.setFileExtension] <0> Path p, '/usr/local/bundle/bundler/gems/openstudio-standards-f448df66933d/openstudio-standards/data/weather/CAN_BC_Victoria.717990_CWEC.ddy', has an unexpected file extension. Was expecting 'idf'.\n[openstudio.model.YearDescription] <1> 'UseWeatherFile' is not yet a supported option for YearDescription\n[openstudio.model.YearDescription] <1> 'UseWeatherFile' is not yet a supported option for YearDescription\n[openstudio.EpwFile] <0> Successive data points (1970-Jan-31 to 1960-Feb-01, ending on line 753) are greater than 1 day apart in EPW file '/usr/local/bundle/bundler/gems/openstudio-standards-f448df66933d/openstudio-standards/data/weather/CAN_BC_Victoria.717990_CWEC.epw'. Data will be treated as typical (TMY)\n[openstudio.setFileExtension] <0> Path p, '/usr/local/bundle/bundler/gems/openstudio-standards-f448df66933d/openstudio-standards/data/weather/CAN_BC_Victoria.717990_CWEC.ddy', has an unexpected file extension. Was expecting 'idf'.\n[openstudio.model.YearDescription] <1> 'UseWeatherFile' is not yet a supported option for YearDescription\n[openstudio.model.YearDescription] <1> 'UseWeatherFile' is not yet a supported option for YearDescription\n[openstudio.setFileExtension] <0> Path p, '/usr/local/bundle/bundler/gems/openstudio-standards-f448df66933d/openstudio-standards/data/weather/CAN_BC_Victoria.717990_CWEC.ddy', has an unexpected file extension. Was expecting 'idf'.\n[openstudio.model.YearDescription] <1> 'UseWeatherFile' is not yet a supported option for YearDescription\n[openstudio.model.YearDescription] <1> 'UseWeatherFile' is not yet a supported option for YearDescription\n[openstudio.EpwFile] <0> Successive data points (1970-Jan-31 to 1960-Feb-01, ending on line 753) are greater than 1 day apart in EPW file '/usr/local/bundle/bundler/gems/openstudio-standards-f448df66933d/openstudio-standards/data/weather/CAN_BC_Victoria.717990_CWEC.epw'. Data will be treated as typical (TMY)\n[openstudio.setFileExtension] <0> Path p, '/usr/local/bundle/bundler/gems/openstudio-standards-f448df66933d/openstudio-standards/data/weather/CAN_BC_Victoria.717990_CWEC.ddy', has an unexpected file extension. Was expecting 'idf'.\n[openstudio.model.YearDescription] <1> 'UseWeatherFile' is not yet a supported option for YearDescription\n[openstudio.model.YearDescription] <1> 'UseWeatherFile' is not yet a supported option for YearDescription\n[openstudio.setFileExtension] <0> Path p, '/usr/local/bundle/bundler/gems/openstudio-standards-f448df66933d/openstudio-standards/data/weather/CAN_BC_Victoria.717990_CWEC.ddy', has an unexpected file extension. Was expecting 'idf'.\n[openstudio.model.YearDescription] <1> 'UseWeatherFile' is not yet a supported option for YearDescription\n[openstudio.model.YearDescription] <1> 'UseWeatherFile' is not yet a supported option for YearDescription\n[openstudio.EpwFile] <0> Successive data points (1970-Jan-31 to 1960-Feb-01, ending on line 753) are greater than 1 day apart in EPW file '/usr/local/bundle/bundler/gems/openstudio-standards-f448df66933d/openstudio-standards/data/weather/CAN_BC_Victoria.717990_CWEC.epw'. Data will be treated as typical (TMY)\n[openstudio.setFileExtension] <0> Path p, '/usr/local/bundle/bundler/gems/openstudio-standards-f448df66933d/openstudio-standards/data/weather/CAN_BC_Victoria.717990_CWEC.ddy', has an unexpected file extension. Was expecting 'idf'.\n[openstudio.model.YearDescription] <1> 'UseWeatherFile' is not yet a supported option for YearDescription\n[openstudio.model.YearDescription] <1> 'UseWeatherFile' is not yet a supported option for YearDescription\n[openstudio.setFileExtension] <0> Path p, '/usr/local/bundle/bundler/gems/openstudio-standards-f448df66933d/openstudio-standards/data/weather/CAN_BC_Victoria.717990_CWEC.ddy', has an unexpected file extension. Was expecting 'idf'.\n[openstudio.model.YearDescription] <1> 'UseWeatherFile' is not yet a supported option for YearDescription\n[openstudio.model.YearDescription] <1> 'UseWeatherFile' is not yet a supported option for YearDescription\n[openstudio.EpwFile] <0> Successive data points (1970-Jan-31 to 1960-Feb-01, ending on line 753) are greater than 1 day apart in EPW file '/usr/local/bundle/bundler/gems/openstudio-standards-f448df66933d/openstudio-standards/data/weather/CAN_BC_Victoria.717990_CWEC.epw'. Data will be treated as typical (TMY)\n[openstudio.setFileExtension] <0> Path p, '/usr/local/bundle/bundler/gems/openstudio-standards-f448df66933d/openstudio-standards/data/weather/CAN_BC_Victoria.717990_CWEC.ddy', has an unexpected file extension. Was expecting 'idf'.\n[openstudio.model.YearDescription] <1> 'UseWeatherFile' is not yet a supported option for YearDescription\n[openstudio.model.YearDescription] <1> 'UseWeatherFile' is not yet a supported option for YearDescription\n[openstudio.setFileExtension] <0> Path p, '/usr/local/bundle/bundler/gems/openstudio-standards-f448df66933d/openstudio-standards/data/weather/CAN_BC_Victoria.717990_CWEC.ddy', has an unexpected file extension. Was expecting 'idf'.\n[openstudio.model.YearDescription] <1> 'UseWeatherFile' is not yet a supported option for YearDescription\n[openstudio.model.YearDescription] <1> 'UseWeatherFile' is not yet a supported option for YearDescription\n[openstudio.standards.Fan] <0> For Fan Constant Volume 1, there is no greater nominal HP.  Use the efficiency of the largest motor category.\n[openstudio.standards.Fan] <0> For Fan Constant Volume 2, there is no greater nominal HP.  Use the efficiency of the largest motor category.\n[openstudio.standards.Fan] <0> For Fan Constant Volume 3, there is no greater nominal HP.  Use the efficiency of the largest motor category.\n[openstudio.standards.Fan] <0> For Fan Constant Volume 4, there is no greater nominal HP.  Use the efficiency of the largest motor category.\n[openstudio.standards.Fan] <0> For Fan Constant Volume 5, there is no greater nominal HP.  Use the efficiency of the largest motor category.\n",
            "step_errors" : [],
            "step_files" : [],
            "step_info" : [
               "Started adding geometry",
               "Finished adding geometry",
               "Started adding weather file for climate zone: NECB HDD Method.",
               "Template =",
               "Setting Attic to Space Function.- undefined -",
               "Setting Core_ZN to Space Function.Office - enclosed",
               "Setting Perimeter_ZN_1 to Space Function.Office - enclosed",
               "Setting Perimeter_ZN_2 to Space Function.Office - enclosed",
               "Setting Perimeter_ZN_3 to Space Function.Office - enclosed",
               "Setting Perimeter_ZN_4 to Space Function.Office - enclosed",
               "Started applying space types (loads)",
               "Space Function - undefined - had no ventilation specification, one has been created.",
               "Space Function - undefined - had no infiltration objects, one has been created.",
               "Space Function - undefined - set infiltration to 0.0 per ft^2 exterior surface area.",
               "Space Function - undefined - set infiltration schedule to Always On.",
               "Space Function Office - enclosed had no people, one has been created.",
               "Space Function Office - enclosed set occupancy to 4.65 people/1000 ft^2.",
               "Space Function Office - enclosed had no lights, one has been created.",
               "Space Function Office - enclosed set LPD to 1.105536975 W/ft^2.",
               "Space Function Office - enclosed had no electric equipment, one has been created.",
               "Space Function Office - enclosed set electric EPD to 0.696767001 W/ft^2.",
               "Space Function Office - enclosed had no ventilation specification, one has been created.",
               "Space Function Office - enclosed set ventilation per area to 0.085 cfm/ft^2.",
               "Space Function Office - enclosed had no infiltration objects, one has been created.",
               "Space Function Office - enclosed set infiltration to 0.0 per ft^2 exterior surface area.",
               "Space Function Office - enclosed set occupancy schedule to NECB-A-Occupancy.",
               "Space Function Office - enclosed set occupant activity schedule to NECB-Activity.",
               "Space Function Office - enclosed set lighting schedule to NECB-A-Lighting.",
               "Space Function Office - enclosed set electric equipment schedule to NECB-A-Electric-Equipment.",
               "Space Function Office - enclosed set infiltration schedule to Always On.",
               "Space Function Office - enclosed set heating setpoint schedule to NECB-A-Thermostat Setpoint-Heating.",
               "Space Function Office - enclosed set cooling setpoint schedule to NECB-A-Thermostat Setpoint-Cooling.",
               "Finished applying space types (loads)",
               "For NECB 2011, no exterior wall area was found, no infiltration will be added.",
               "Started applying constructions",
               "Adding construction set: NECB 2011-NECB HDD Method-Office--is_residentialNo",
               "Adding construction Typical Insulated Exterior Mass Floor R-15.63.",
               "Adding construction Typical Insulated Exterior Mass Wall R-12.5.",
               "Adding construction Typical Insulated Metal Building Roof R-20.41.",
               "Adding construction Typical Interior Floor.",
               "Adding construction Typical Interior Wall.",
               "Adding construction Typical Interior Ceiling.",
               "Adding construction Typical Insulated Carpeted 6in Slab Floor.",
               "Adding construction U 0.55 SHGC 0.31 Dbl Ref-D Tint 6mm/6mm Air.",
               "Adding construction Typical Insulated Metal Door R-1.43.",
               "Adding construction U 0.35 SHGC 0.35 Dbl LoE (e2-.1) Tint 6mm/13mm Air.",
               "Adding construction Typical Overhead Door R-2.0.",
               "Adding construction U 0.48 SHGC 0.40 Dbl Ref-D Clr 6mm/13mm.",
               "Adding construction Typical Interior Window.",
               "Adding construction Typical Interior Door.",
               "Adding construction Typical Interior Partition.",
               "Finished applying constructions",
               "WWR NonRes = 0%; window = 0 ft2, wall = 0 ft2.",
               "WWR Res = 0%; window = 0 ft2, wall = 0 ft2.",
               "WWR Semiheated = 0%; window = 0 ft2, wall = 0 ft2.",
               "The skylight to roof ratios (SRRs) are: NonRes: 0%, Res: 0%.",
               "Started creating thermal zones",
               "Finished creating thermal zones",
               "Running simulation /mnt/openstudio/analysis_4fef0e0f-5396-4c55-a6e1-2cd6803db3ab/data_point_7d69e867-80a1-46f4-9c82-7c10b120f23e/run/000_create_prototype_building/output/SmallOffice-NECB 2011-NECB HDD Method-CAN_BC_Victoria.717990_CWEC.epw/SR0.",
               "Finished run.",
               "Started Adding HVAC",
               "Finished adding HVAC",
               "Started Adding Service Water Heating",
               "Adding service water loop.",
               "Adding water heater.",
               "Template =",
               "Finished adding Service Water Heating",
               "Set sizing factors to 1.3 for heating and 1.3 for cooling.",
               "Running simulation /mnt/openstudio/analysis_4fef0e0f-5396-4c55-a6e1-2cd6803db3ab/data_point_7d69e867-80a1-46f4-9c82-7c10b120f23e/run/000_create_prototype_building/output/SmallOffice-NECB 2011-NECB HDD Method-CAN_BC_Victoria.717990_CWEC.epw/SR1.",
               "Finished run.",
               "Started applying multizone vav OA sizing.",
               "Finished applying multizone vav OA sizing.",
               "Started applying prototype HVAC assumptions.",
               "For Fan Constant Volume 1: allowed_hp = 1.01HP; motor eff = 61.5%; total fan eff = 40% based on 495 cfm.",
               "For Fan Constant Volume 2: allowed_hp = 1.01HP; motor eff = 61.5%; total fan eff = 40% based on 602 cfm.",
               "For Fan Constant Volume 3: allowed_hp = 1.01HP; motor eff = 61.5%; total fan eff = 40% based on 678 cfm.",
               "For Fan Constant Volume 4: allowed_hp = 1.01HP; motor eff = 61.5%; total fan eff = 40% based on 614 cfm.",
               "For Fan Constant Volume 5: allowed_hp = 1.01HP; motor eff = 61.5%; total fan eff = 40% based on 550 cfm.",
               "Sp-Perimeter_ZN_1 Sys-3 Flr-1 Sch-A HPlcmt-south ZN NECB System 3 PSZ does not require an economizer because the total cooling capacity of 16371 Btu/hr is less than the minimum capacity of 68243 Btu/hr.",
               "Sp-Perimeter_ZN_4 Sys-3 Flr-1 Sch-A HPlcmt-west ZN NECB System 3 PSZ does not require an economizer because the total cooling capacity of 18070 Btu/hr is less than the minimum capacity of 68243 Btu/hr.",
               "Sp-Perimeter_ZN_2 Sys-3 Flr-1 Sch-A HPlcmt-east ZN NECB System 3 PSZ does not require an economizer because the total cooling capacity of 16040 Btu/hr is less than the minimum capacity of 68243 Btu/hr.",
               "Sp-Perimeter_ZN_3 Sys-3 Flr-1 Sch-A HPlcmt-north ZN NECB System 3 PSZ does not require an economizer because the total cooling capacity of 13199 Btu/hr is less than the minimum capacity of 68243 Btu/hr.",
               "Sp-Core_ZN Sys-3 Flr-1 Sch-A HPlcmt-core ZN NECB System 3 PSZ does not require an economizer because the total cooling capacity of 14668 Btu/hr is less than the minimum capacity of 68243 Btu/hr.",
               "Finished applying prototype HVAC assumptions.",
               "Started applying HVAC efficiency standards.",
               "For Sp-Core_ZN Sys-3 Flr-1 Sch-A HPlcmt-core ZN NECB System 3 PSZ, ERV not required based on 0% OA flow, design supply air flow of 550cfm, and climate zone NECB HDD Method.",
               "For Sp-Core_ZN Sys-3 Flr-1 Sch-A HPlcmt-core ZN NECB System 3 PSZ, ERV not required based on exhaust heat content.",
               "For NECB 2011 NECB HDD Method:  Sp-Core_ZN Sys-3 Flr-1 Sch-A HPlcmt-core ZN NECB System 3 PSZ: DCV is not required for any system.",
               "For Sp-Core_ZN Sys-3 Flr-1 Sch-A HPlcmt-core ZN NECB System 3 PSZ: Unoccupied fan shutoff not required because system fan HP of 0.56 HP is less than the minimum threshold of 0.75 HP.",
               "For Sp-Core_ZN Sys-3 Flr-1 Sch-A HPlcmt-core ZN NECB System 3 PSZ: Setting motorized OA damper schedule to Always On Discrete.",
               "For Sp-Perimeter_ZN_1 Sys-3 Flr-1 Sch-A HPlcmt-south ZN NECB System 3 PSZ, ERV not required based on 0% OA flow, design supply air flow of 614cfm, and climate zone NECB HDD Method.",
               "For Sp-Perimeter_ZN_1 Sys-3 Flr-1 Sch-A HPlcmt-south ZN NECB System 3 PSZ, ERV not required based on exhaust heat content.",
               "For NECB 2011 NECB HDD Method:  Sp-Perimeter_ZN_1 Sys-3 Flr-1 Sch-A HPlcmt-south ZN NECB System 3 PSZ: DCV is not required for any system.",
               "For Sp-Perimeter_ZN_1 Sys-3 Flr-1 Sch-A HPlcmt-south ZN NECB System 3 PSZ: Unoccupied fan shutoff not required because system fan HP of 0.62 HP is less than the minimum threshold of 0.75 HP.",
               "For Sp-Perimeter_ZN_1 Sys-3 Flr-1 Sch-A HPlcmt-south ZN NECB System 3 PSZ: Setting motorized OA damper schedule to Always On Discrete.",
               "For Sp-Perimeter_ZN_2 Sys-3 Flr-1 Sch-A HPlcmt-east ZN NECB System 3 PSZ, ERV not required based on 0% OA flow, design supply air flow of 602cfm, and climate zone NECB HDD Method.",
               "For Sp-Perimeter_ZN_2 Sys-3 Flr-1 Sch-A HPlcmt-east ZN NECB System 3 PSZ, ERV not required based on exhaust heat content.",
               "For NECB 2011 NECB HDD Method:  Sp-Perimeter_ZN_2 Sys-3 Flr-1 Sch-A HPlcmt-east ZN NECB System 3 PSZ: DCV is not required for any system.",
               "For Sp-Perimeter_ZN_2 Sys-3 Flr-1 Sch-A HPlcmt-east ZN NECB System 3 PSZ: Unoccupied fan shutoff not required because system fan HP of 0.61 HP is less than the minimum threshold of 0.75 HP.",
               "For Sp-Perimeter_ZN_2 Sys-3 Flr-1 Sch-A HPlcmt-east ZN NECB System 3 PSZ: Setting motorized OA damper schedule to Always On Discrete.",
               "For Sp-Perimeter_ZN_3 Sys-3 Flr-1 Sch-A HPlcmt-north ZN NECB System 3 PSZ, ERV not required based on 0% OA flow, design supply air flow of 495cfm, and climate zone NECB HDD Method.",
               "For Sp-Perimeter_ZN_3 Sys-3 Flr-1 Sch-A HPlcmt-north ZN NECB System 3 PSZ, ERV not required based on exhaust heat content.",
               "For NECB 2011 NECB HDD Method:  Sp-Perimeter_ZN_3 Sys-3 Flr-1 Sch-A HPlcmt-north ZN NECB System 3 PSZ: DCV is not required for any system.",
               "For Sp-Perimeter_ZN_3 Sys-3 Flr-1 Sch-A HPlcmt-north ZN NECB System 3 PSZ: Unoccupied fan shutoff not required because system fan HP of 0.5 HP is less than the minimum threshold of 0.75 HP.",
               "For Sp-Perimeter_ZN_3 Sys-3 Flr-1 Sch-A HPlcmt-north ZN NECB System 3 PSZ: Setting motorized OA damper schedule to Always On Discrete.",
               "For Sp-Perimeter_ZN_4 Sys-3 Flr-1 Sch-A HPlcmt-west ZN NECB System 3 PSZ, ERV not required based on 0% OA flow, design supply air flow of 678cfm, and climate zone NECB HDD Method.",
               "For Sp-Perimeter_ZN_4 Sys-3 Flr-1 Sch-A HPlcmt-west ZN NECB System 3 PSZ, ERV not required based on exhaust heat content.",
               "For NECB 2011 NECB HDD Method:  Sp-Perimeter_ZN_4 Sys-3 Flr-1 Sch-A HPlcmt-west ZN NECB System 3 PSZ: DCV is not required for any system.",
               "For Sp-Perimeter_ZN_4 Sys-3 Flr-1 Sch-A HPlcmt-west ZN NECB System 3 PSZ: Unoccupied fan shutoff not required because system fan HP of 0.69 HP is less than the minimum threshold of 0.75 HP.",
               "For Sp-Perimeter_ZN_4 Sys-3 Flr-1 Sch-A HPlcmt-west ZN NECB System 3 PSZ: Setting motorized OA damper schedule to Always On Discrete.",
               "For Fan Constant Volume 1: motor nameplate = 0.3084159540259464HP, motor eff = 61.5%.",
               "For Fan Constant Volume 2: motor nameplate = 0.37482212806906307HP, motor eff = 61.5%.",
               "For Fan Constant Volume 3: motor nameplate = 0.4222565811840371HP, motor eff = 61.5%.",
               "For Fan Constant Volume 4: motor nameplate = 0.382546807026027HP, motor eff = 61.5%.",
               "For Fan Constant Volume 5: motor nameplate = 0.34275132532759955HP, motor eff = 61.5%.",
               "For Service Water Loop Pump: brake hp = 0.0HP, motor nameplate = 0.1HP, motor eff = 70.0%.",
               "For Pump Variable Speed 1: brake hp = 0.07HP, motor nameplate = 0.1HP, motor eff = 70.0%.",
               "For NECB 2011: Coil Cooling DX Single Speed 1: AirCooled All Other Single Package Capacity = 13kBtu/hr; SEER = 14.0",
               "For NECB 2011: Coil Cooling DX Single Speed 2: AirCooled All Other Single Package Capacity = 16kBtu/hr; SEER = 14.0",
               "For NECB 2011: Coil Cooling DX Single Speed 3: AirCooled All Other Single Package Capacity = 18kBtu/hr; SEER = 14.0",
               "For NECB 2011: Coil Cooling DX Single Speed 4: AirCooled All Other Single Package Capacity = 16kBtu/hr; SEER = 14.0",
               "For NECB 2011: Coil Cooling DX Single Speed 5: AirCooled All Other Single Package Capacity = 15kBtu/hr; SEER = 14.0",
               "For NECB 2011: Primary Boiler: Gas Hot Water Capacity = 54kBtu/hr; AFUE = 0.85",
               "For NECB 2011: Secondary Boiler: Gas Hot Water Capacity = 0kBtu/hr; AFUE = 0.85",
               "For NECB 2011: 40.0gal NaturalGas Water Heater - 40kBtu/hr 0.82 Therm Eff; thermal efficiency = 0.82, skin-loss UA = 6Btu/hr",
               "Finished applying HVAC efficiency standards.",
               "Started adding daylighting controls.",
               "For Attic, daylighting control not applicable because no exterior fenestration is present.",
               "For Core_ZN, daylighting control not applicable because no exterior fenestration is present.",
               "Finished adding daylighting controls.",
               "Total Time = 48sec."
            ],
            "step_result" : "Success",
            "step_values" : [
               {
                  "name" : "building_type",
                  "value" : "SmallOffice"
               },
               {
                  "name" : "template",
                  "value" : "NECB 2011"
               },
               {
                  "name" : "climate_zone",
                  "value" : "NECB HDD Method"
               },
               {
                  "name" : "epw_file",
                  "value" : "CAN_BC_Victoria.717990_CWEC.epw"
               }
            ],
            "step_warnings" : [
               "[openstudio.EpwFile] Successive data points (1970-Jan-31 to 1960-Feb-01, ending on line 753) are greater than 1 day apart in EPW file '/usr/local/bundle/bundler/gems/openstudio-standards-f448df66933d/openstudio-standards/data/weather/CAN_BC_Victoria.717990_CWEC.epw'. Data will be treated as typical (TMY)",
               "[openstudio.EpwFile] Successive data points (1970-Jan-31 to 1960-Feb-01, ending on line 753) are greater than 1 day apart in EPW file '/usr/local/bundle/bundler/gems/openstudio-standards-f448df66933d/openstudio-standards/data/weather/CAN_BC_Victoria.717990_CWEC.epw'. Data will be treated as typical (TMY)",
               "[openstudio.weather.Model] Could not find ground temperatures; will use generic temperatures, which will skew results.",
               "[openstudio.EpwFile] Successive data points (1970-Jan-31 to 1960-Feb-01, ending on line 753) are greater than 1 day apart in EPW file '/usr/local/bundle/bundler/gems/openstudio-standards-f448df66933d/openstudio-standards/data/weather/CAN_BC_Victoria.717990_CWEC.epw'. Data will be treated as typical (TMY)",
               "[openstudio.EpwFile] Successive data points (1970-Jan-31 to 1960-Feb-01, ending on line 753) are greater than 1 day apart in EPW file '/usr/local/bundle/bundler/gems/openstudio-standards-f448df66933d/openstudio-standards/data/weather/CAN_BC_Victoria.717990_CWEC.epw'. Data will be treated as typical (TMY)",
               "[openstudio.standards.Fan] For Fan Constant Volume 1, there is no greater nominal HP.  Use the efficiency of the largest motor category.",
               "[openstudio.standards.Fan] For Fan Constant Volume 2, there is no greater nominal HP.  Use the efficiency of the largest motor category.",
               "[openstudio.standards.Fan] For Fan Constant Volume 3, there is no greater nominal HP.  Use the efficiency of the largest motor category.",
               "[openstudio.standards.Fan] For Fan Constant Volume 4, there is no greater nominal HP.  Use the efficiency of the largest motor category.",
               "[openstudio.standards.Fan] For Fan Constant Volume 5, there is no greater nominal HP.  Use the efficiency of the largest motor category.",
               "[openstudio.EpwFile] Successive data points (1970-Jan-31 to 1960-Feb-01, ending on line 753) are greater than 1 day apart in EPW file '/usr/local/bundle/bundler/gems/openstudio-standards-f448df66933d/openstudio-standards/data/weather/CAN_BC_Victoria.717990_CWEC.epw'. Data will be treated as typical (TMY)",
               "[openstudio.EpwFile] Successive data points (1970-Jan-31 to 1960-Feb-01, ending on line 753) are greater than 1 day apart in EPW file '/usr/local/bundle/bundler/gems/openstudio-standards-f448df66933d/openstudio-standards/data/weather/CAN_BC_Victoria.717990_CWEC.epw'. Data will be treated as typical (TMY)",
               "[openstudio.EpwFile] Successive data points (1970-Jan-31 to 1960-Feb-01, ending on line 753) are greater than 1 day apart in EPW file '/usr/local/bundle/bundler/gems/openstudio-standards-f448df66933d/openstudio-standards/data/weather/CAN_BC_Victoria.717990_CWEC.epw'. Data will be treated as typical (TMY)",
               "[openstudio.EpwFile] Successive data points (1970-Jan-31 to 1960-Feb-01, ending on line 753) are greater than 1 day apart in EPW file '/usr/local/bundle/bundler/gems/openstudio-standards-f448df66933d/openstudio-standards/data/weather/CAN_BC_Victoria.717990_CWEC.epw'. Data will be treated as typical (TMY)",
               "[openstudio.EpwFile] Successive data points (1970-Jan-31 to 1960-Feb-01, ending on line 753) are greater than 1 day apart in EPW file '/usr/local/bundle/bundler/gems/openstudio-standards-f448df66933d/openstudio-standards/data/weather/CAN_BC_Victoria.717990_CWEC.epw'. Data will be treated as typical (TMY)",
               "[openstudio.standards.Fan] For Fan Constant Volume 1, there is no greater nominal HP.  Use the efficiency of the largest motor category.",
               "[openstudio.standards.Fan] For Fan Constant Volume 2, there is no greater nominal HP.  Use the efficiency of the largest motor category.",
               "[openstudio.standards.Fan] For Fan Constant Volume 3, there is no greater nominal HP.  Use the efficiency of the largest motor category.",
               "[openstudio.standards.Fan] For Fan Constant Volume 4, there is no greater nominal HP.  Use the efficiency of the largest motor category.",
               "[openstudio.standards.Fan] For Fan Constant Volume 5, there is no greater nominal HP.  Use the efficiency of the largest motor category."
            ]
         }
      },
      {
         "arguments" : {
            "__SKIP__" : false
         },
         "measure_dir_name" : "view_model",
         "name" : "view_model",
         "result" : {
            "completed_at" : "20170710T191239Z",
            "measure_class_name" : "ViewModel",
            "measure_display_name" : "ViewModel",
            "measure_name" : "view_model",
            "measure_taxonomy" : "Reporting.QAQC",
            "measure_type" : "ModelMeasure",
            "measure_uid" : "f4669f10-fda5-489d-8e1c-7ca3c2d40378",
            "measure_version_id" : "f4975c5f-7c25-42a2-927b-02d99b4427ef",
            "measure_version_modified" : "20170526T150340Z",
            "measure_xml_checksum" : "1E1F8B97",
            "started_at" : "20170710T191238Z",
            "stderr" : "",
            "stdout" : "[OpenStudio.Measure] <0> OSArgumentVector is deprecated, use OpenStudio::Measure::OSArgumentVector instead.\n",
            "step_errors" : [],
            "step_files" : [
               "/mnt/openstudio/analysis_4fef0e0f-5396-4c55-a6e1-2cd6803db3ab/data_point_7d69e867-80a1-46f4-9c82-7c10b120f23e/run/001_view_model/report.html",
               "/mnt/openstudio/analysis_4fef0e0f-5396-4c55-a6e1-2cd6803db3ab/data_point_7d69e867-80a1-46f4-9c82-7c10b120f23e/run/001_view_model/report.json"
            ],
            "step_final_condition" : "Report written to <a href='file:////mnt/openstudio/analysis_4fef0e0f-5396-4c55-a6e1-2cd6803db3ab/data_point_7d69e867-80a1-46f4-9c82-7c10b120f23e/run/001_view_model/report.html'>report.html</a>.",
            "step_info" : [ "No changes made to the model." ],
            "step_result" : "NA",
            "step_values" : [
               {
                  "name" : "view_model_html_zip",
[...]
pL+QsB4gXs+DSJPAP6afKzSmmURMA+wCoMbPUpLWp4/5CIedu2W5t3L8rnojZcenwh/ay76dB4nozCYTfmQ/fgj+8fi81vrfOxGi/V7IsB2VmvvHqxNOsRyR6OXwoY14f4oHrPnzGH/Yo0Xk0mDHa1fEU28AW/u2jsf2592cuNtoyVByJqfk6a0f2KfEzMLV13YFZ/9Mxlx9B+QKMKNF3gfP3+yvvA7dnx8PO+8Yogp6uKxf9Zt6rJchNz9UuTmr5r36F4v+mvRumPh1sIZFp6SLkS1zudHD/DhiVjiGn1Me/JTsa5cPujpLBo3iz6L5JEezZ9n8UiaTI5UWmmJK4taieIw+MLV7MyvLWopmLoDL75TM7W4uHCrUhNLU0VRlgPJ+rBSJDy0Bx9RluG8PvCwXWbroumEmzrXr600qypd/zVvTiHK3h77488P7D/v/nzPzt69//D729/Y63e//X7CXp2+P1UDeJmM2vzWFVM0FgcsCsKY+bOrxA8GLF2SHTE3GiSTF88fKSAu+17grGRmt8Uu1AeXkMez0GdTN4z4y0ngxk1XDPk7yaNc+ewi/UypM/OnaCtmF03IA/76CEfEfKOznZ79MlfRfpQTa0AHdEAHdEAHdEAHdEAHdEAHdLaezua5EIJRyIdgAzZgAzZgAzZgAzZgAzZgAzZgk81m42QiwUacOwQ6oAM6oAM6oAM6oAM6oAM6oAM6Reion2KWfsM2P6MMTMEUTMEUTMEUTMEUTMEUTMEUTMEUTLeDae7xminT+eGZYAqmYAqmYAqmYAqmYAqmYAqmYAqmYLodTLXOOE5Zz08wBmuwBmuwBmuwBmuwBmuwBmuwBmuwBmuwfkTWS1rD0L1p5oLdWrEXT/jZ2J1yK+a3cfPZq2AWRvk07jbv/NW74n7kBf6ERylCDsTeHnsxHDKXpUjsxovHLAquOBt2cu6MrkeWO52K40QawnZjJ+eGZbHcOA6bjdtGi/XbmjfdNcShJco3RfGdOHVF0Nt1/cE4CBv3R51oYlwGfrx7w73ROBYYF8FkqI4xfzZvT09+2X2x+24wmE0TNnfPdrKezvO9aBB60/hn6TXP94be9cPV0nvkYAkW84bHjYFw3ZOkta7n8/DcPmywtAuOG0Mvmk7cuyPPF2ff7F5MgsGXnxpyfgnovAksvpsm94te2PvsXrvzTzPvFCU9kOd6xI6X5+74/ObsetRs/LDJscW64hib5Edu1Kwc3vLxr8WJPEeNb2T7Gq15zflt48i22q1GKiDfOGpb7V6rMRAjTXLTQtiv8bWlBORQAXWogLpUQD0qoD4V0D4V0MEakF0Y53ANpzgfu00FtO7Yh8WBHCqgDhVQlwqoRwXUpwJad+z94kAHVH607tmd4uPjumc7xYFsKiCHCohsyHb0xuxN9SS11BbyoQaOPLPp4ch7SQ9H3kd6OPK0pocjz2p6OPKkpocjzWl6MNKUpgcjz2iaONKEpokjzWeaONJ0pokjzWaaONJkpokjzWWaONJUpokjzWSaONJEpjkaSvOYJo40jWniSLOYJg7V8JyRwzaANmQp1PKXEK7QAJInME0geRdpAsm7SBNInsM0geRJTBNInsU0gaRpTBNHmsc0ceSJTBdImsl0gaSpTBdImst0gaTJTBdIms10gaTpTBdIms90gaQJTRdImtF0x0dpStMFkuY0XSBpUtMFIhuyM9LaBpL6zkzFV5HzvZsENjLeUpLZyPhrmMxGxt/JZDYyXnuS2ch4I0pmI+NlKZmNgwpsHFZg45skX5KRKiLdriLU7Spi3a4i2O0qot2uItztKuLdriLg7Soi3qki4p1KcnsVEZ/1rpvOSMGIz90Yozjdmm+dIbCR8UTIbGQ8EDIbGc+DzEbGAExmI2P8JbORMfyS2cgYfclsZAy+ZDayplt0RqqI9KzpFp2RKmI9a7pFZ6SKaM+abtEZqSLes6ZbdEaqiPis6RadkUpyexURnzXdojNSMOK11uAqTr3mq3SJ7WU8qVLsZTy0UuxlPL9S7GUM3qXYyxjHS7GXMaSXYk++CrEUc/LFiqWYy1jTWI49+dLHcuzJV0iWY0++kLIce/L1luXYky/LLMeefPVmOfbkizzLsSdfC1qOPfmS0XKyu3xlaTn25AtQy7EnX6dajr2qpy9Z88+lwU8qOz8We7PYMfP5zXJjSbqfpBldj1rpzpDcLSTLDV4Rj38JZv4wavbaLWbbvRbriN+cnto2lNuExv0etuHwxI35KAjvXtx60XyD1H0HKOwiSwDehUMevp+J/UrKNwoed+s83nA3moV8TkNsuVp0fMm7+VCNalSjGtWoRjWqUY1qVKMa1ahGNapRjWpUoxrVqEY1qlGNalSjGtWoRjWqUY3qLa6+s4JrHobekL9xxcIg22obrrdJBXTXl/ac8dDj0WJ5UKO1XAA1nQSxJVR9c5f4RA+tM8pfGRRZqXDGNJi4sRf4CalGFPPp7gW/DELeUFu59ZqPuD9cb9D8s2a/3WIdsfJKqADb4sdC5jlXAXsJa52PeHzqx6J/EhOXM3+QMm3usL9yIJYM+f3dH3PXooniXbJmPPYiK0qfipohUVZuspL+O3UH4+bfhHXRlvQXosgL3PNpEHkC8NfkY5XWLIuAeYBVGNzoUVrS8vwhF/Gwa7c0716Wz0VvvPT4RPhbc9Gn8zgZhcFsyofsxx/ZPxaf31rnYzdarN8TAbazWnv3YG3SIZY7Gr0UNqwJ90fxmD1nDvsXa7yYTBrsaP2KaOINeHPX3vnY/rSTG28bLQlC1vycNKX9E/ucmFm46sKu+OyfyYij/4BEEW68wPv4+ZP1hd+x4+PjeecVQ0xRF4/9s25Tl+Ui5O6XIjd/1bxH93rRX4vWHQu3Fs6w8JR0Iap1Pj/PgA9PxBLX6GPak5+KdeXyQU9n0bhZ9Fkkj/Ro/jyLR9JkcqTSSktcWdRKFIfBF65mZ35tUUvB1B148Z2aqcXFhVuVmliaKoqyHEjWh5Ui4aE9+IiyDOf1gYftMlsXTSfc1Ll+baVZVen6r3lzClH29tgff35g/3n353t29u79h9/f/sZev/vt9xP26vT9qRrAy2TU5reumKKxOGBREMbMn10lfjBg6ZLsiLnRIJm8eP5IAXHZ9wJnJTO7LXahPriEPJ6FPpu6YcRfTgI3brpiyN9JHuXKZxfpZ0qdmT9FWzG7aEIe8NdHOHfmG83u9ECZuSD3oxyDAzqgAzqgAzqgAzqgAzqgAzqgs/V0No+WEIxCPgQbsAEbsAEbsAEbsAEbsAEbsAGbbDYbZxoJNuLAItABHdABHdABHdABHdABHdABHdApQkf9nLP0G7b5IWZgCqZgCqZgCqZgCqZgCqZgCqZgCqZguh1Mcw/aTJnOT9EEUzAFUzAFUzAFUzAFUzAFUzAFUzAF0+1gqnXIccp6foIxWIM1WIM1WIM1WIM1WIM1WIM1WIM1WIP1I7Je0hqG7k0zF+zWir14ws/G7pRbMb+Nm89eBbMwyqdxt3nnr94V9yMv8Cc8ShFyIPb22IvhkLksRWI3XjxmUXDF2bCTc2d0PbLc6VQcJ9IQths7OTcsi+XGcdhs3DZarN/WvOmuIQ4tUb4piu/EqSuC3q7rD8ZB2Lg/6kQT4zLw490b7o3GscC4CCZDdYz5s3l7evLL7ovdMx5eewPO/u2K7TavuBt7/ujZTtaTer4XDUJvGv8sveb53tC7frhaeo8cLMFi3vC4MRBufJK03PV8Hp477QZLu+O4MfSi6cS9O/J8cQ7O7sUkGHz5qSHnl4DOm8Diu2lyv+iRvc/utTv/NPNOUdLDea5H7Hh5Bo/Pb86uR83GD5scW6wrjrRJfuRG0MpBLh//WpzOc9T4RsKv0ZrXnN82jmyr3WqkYvKNo8OudbhaOq3GQAxBCcJC8a/xtaWE6pSC2ikFtVsKaq8U1H4pqPsrqPs9y6ZBPSgF9bAUVLtdDqxdDqxTDmynHNhuObC9cmD75cCWE2N2OUFmlxNlTjlR5pQTZU45ScwpJ4s5BmlsU5CqwAwh5EMNUMW+1QNV7Fk9UMV+1QNVnB3ogSpODvRAFcctPVDFUUsPVHHM0gNVnRhooiqOWJqoitMCTVTFWYEmquKkQBNVcU6giao4JdBELSWyVCcEmqilxJbqdEATtZTYUp0MaKKWkrFUpwIbqBuCKQWmAUJfRQNVsVs1URW7VRNVsVs1URWnApqoinMBTVTFIUsTVXHI0kRVHLI0UVXnA7qwioOWLqzijEAXVnFKoAurOCfQhVWcFOjCKs4KdGHLiTHVeYEubDlRpjoz0IUtJ8pU5wa6sOVkMdXZwQas+tbrIt8vzHdqExhUfWtDZlD1fQ6ZQdU3PWQGVb/LIDOo+jUHmcH9qg0eVG3wsGqDazOlaixWPtbYlQ82duWjjV35cGNXPt7YlQ84duUjjl35kGNXPuY4lY85TvXzm8rHHOVvrOgsUow5uTsGi0xT5xsMCQyqPkUyg6oPkcyg6jMkM6iaNsgMqmYNMoOqSYPMoGrOIDOomjLIDCpPU+ksVj7WKE9T6SxWPtooT1PpLFY+3ihPU+ksVj7iKE9T6SxWPuYoT1PpLFY/v6l8zFGeptJZpBhztDZ1FJmyzveAEBtXfbqlGFd90KUYV33mpRhXTTmlGFfNPqUYV10/W4px1VW2pRhXXYtbinHlhfHlWFdd2VuOddVl9uVYV12NX4511UX75VhXXdtfjnXVLQDlWH/UkU55Q0E51h91rFPenlCO9Ucd65Sn6+VYf9QZnfI0fmn9k8ouzMWeaXbMfH6z3OSZ7u1sRtejVrpLM3c753LjdcTjX4KZP4yavXaL2XavxTriN6entiX0NqFxv7d8ODxxYz4KwrsXt14037h83xsKu7sTgHfhkIfvZ2IfsfKNgsfdOo833I1mIZ/TEFuhF0/BdL96url23dQZDz0eLegmlhYPZDoJYkvs+M01GT3U7nymkZUuxpkGEzf2Aj8h1YhiPt294JdByBtqnvSaj7g/XG/Q/LNmP/GCjvAEsUPYFj8W28Fzd8ovYa3zEY9P/Vj0T2LicuYPUqbNHfaXwn5wwZDf3/0xNzZE8S5ZMx57UeLX4j41Q6Ks3GQl/XfqDsbNvwnroi3pLzZML3DPp0HkCcBfk49VWrMsAuYBVmFwo0dpScvzh1wE7q7d0rx7WT4XvfHS4xPhb81Fn87jZBQGsykfsh9/ZP9YfH5rnY/daDGeiADbWa29e7A26RDLHY1eChvWhPujeMyeM4f9izVeTCYNdrR+RTTxBry5a+98bH/ayY23jZYEIWt+TprS/ol9TswsXHVhV3z2z2Nm6z8gUYQbL/A+fv5kfeHJ8HZ8PO+8Yogp6uKxf9Zt6rJchNz9UuTmr5r36F4v+mvRumPh1sIZFp6SJkbrfK57wocnIuVGH9Oe/FSsK5cPejqLxs2izyJ5pEfz51k8kiaTI5VWWuLKolaiOAy+cDU782uLWgqm7iCZbamZWlxcuFWpiaWpoijLgWR9WCkSHtqDjyjLcF4feJK5qq2LphNu6ly/ttKsqnT917w5hSh7e+yPPz+w/7z78z07e/f+w+9vf2Ov3/32+wl7dfr+VA3gZTJq81tXTNFYHLAoSCbS/uwq8YMBS6eIEXOjQTJ58fyRAuKy7wXOSmZ2W+xCfXAJeTwLfTZ1w4i/nARu3HTFkL+TPMqVzy7Sz5Q6M3+KtmJ20YQ84K+PoE/1za70VHhqvsv8UeSyQAd0QAd0QAd0QAd0QAd0QAd0tp7OpuqHYBTyIdiADdiADdiADdiADdiADdiADdhks9nQSRJshO4R6IAO6IAO6IAO6IAO6IAO6IAO6BSho64Bln7DNtf0AlMwBVMwBVMwBVMwBVMwBVMwBVMwBdPtYJorppgynYsjgimYgimYgimYgimYgimYgimYgimYgul2MNVSYE1ZzxVVwRqswRqswRqswRqswRqswRqswRqswRqsH5H1ktYwdG+auWC3VuzFE342dqfcivlt3Hz2KpiFUT6Nu807P/CrKQ/deBZy1ny5IzByQPb22IvhkLksxWI3XjxmUXDF2bCTc2d0PbLc6VQcKNIQ1hs7OTcsi+XGcTg/Qqbf1rxJHPjiqN8UxXfi3BVBb9f1B+MgbNwfdqKJcRn48e4N90bjWGBcBJOhOsb86bw9Pfll98XuhzEPr4IodmN2xuNp4CXAJ0Ew8fzRs52s5/V8LxqE3jT+WXrN872hd/1wtfQeOViCxbzhcWMg3Pkkab/r+Tw8d+wGSzvluDH0ounEvTvyfHEezu7FJBh8+akh55eAzpvA4rtpcr/ol73P7rU7/zTzTlHSQ3quR+x4eRaPz2/OrkfNxg+bHFusK462SX7kRtLKgS4f/z4l6hspP9k5qv2u1ZGd/jRX/ls7eyoD1SkFtVMKarcU1F4pqP1SUFfP3Ovvy08A00NdO0vPtnqrqN3CqIeloK4f9EkHa5cD65QD2ykHtlsObK8c2H45sPvlwJYTZHY5UeaUE2VOOVHmlJPEnHKymGOQxjaFqQrMEEI+1ABV7Fs9UMWe1QNV7Fc9UMXZgR6o4uRAD1RxbqAHqjhq6YEqjll6oKoTA01UxRFLE1VxWqCJqjgr0ERVnBRooirOCTRRFacEmqiKMwJN1FJCS3U+oJkDSokt1dmAJmopCUt1LqCJWjRlbQinFJgGCJ0VDVTFbtVEVexWTVTFbtVEVZwKaKIqzgU0URUnA5qoikOWJqrikKWJqjof0IVVHLR0YRVnBLqwilMCXVjFOYEurOKkQBdWcVagC6s4LdCFLSfIVCcGulmhnChTnRrowpaTxFQnB7qwRdOY+hbsIt8vzHdsExhUfWtDZlD1fQ6ZQdU3PWQGVb/LIDOo+jUHmcH9qg0eVG3wsGqDazOlaixWPtbYlQ82duWjjV35cGNXPt7YlQ84duUjjl35kGNXPuY4lY85TvXzm8rHHOVvrOgsUow5uTsHi0xT5xsNCQyqPkUyg6oPkcyg6jMkM6iaNsgMqmYNMoOqSYPMoGrOIDOomjLIDCpPU+ksVj7WKE9T6SxWPtooT1PpLFY+3ihPU+ksVj7iKE9T6SxWPuYoT1PpLFY/v6l8zFGeptJZpBhztDZ3FJmyzveCEBtXfbqlGFd90KUYV33mpRhXTTmlGFfNPqUYV12jXopx1VW2pRhXXYtbinHlhfHlWFdd2VuOddVl9uVYV12NX4511UX75VhXXdtfjnXVLQDlWFfdKVCO9Ucd6pT3HZQzp3nUsU55F0M51h91Qqc8dS/Huu6U7pPKLszF3ml2zHx+s9zkme7tbEbXo1a6SzN3O+dyA3bE41+CmT+Mmr12i9l2r8U64jenp7Yl9Dahcb/HfDg8cWM+CsK7F7deNN++fN8bCru8E4B34ZCH72diN7HyjYLH3TqPN9yNZiGf0xAbohdPwXTferq5dt3UGQ89Hi3oJpYWD2Q6CWJL7PjNNRk91O58ppGVLsaZBhM39gI/IdWIYj7dveCXQcgbap70mo+4P1xv0PyzZj/xgo7wBLFD2BY/FpvCc/fLL2Gt8xGPT/1Y9E9i4nLmD1KmzR32l8KucMGQ39/9MTc2RPEuWTMee1Hi1+I+NUOirNxkJf136g7Gzb8J66It6S82TC9wz6dB5AnAX5OPVVqzLALmAVZhcKNHaUnL84dcBO6u3dK8e1k+F73x0uMT4W/NRZ/O42QUBrMpH7Iff2T/WHx+a52P3WgxnogA21mtvXuwNukQyx2NXgob1oT7o3jMnjOH/Ys1XkwmDXa0fkU08Qa8uWvvfGx/2smNt42WBCFrfk6a0v6JfU7MLFx1YVd89s9jZus/IFGEGy/wPn7+ZH3hyfB2fDzvvGKIKerisX/WbeqyXITc/VLk5q+a9+heL/pr0bpj4dbCGRaekiZG63yuf8KHJyLlRh/TnvxUrCuXD3o6i8bNos8ieaRH8+dZPJImkyOVVlriyqJWojgMvnA1O/Nri1oKpu4gmW2pmVpcXLhVqYmlqaIoy4FkfVgpEh7ag48oy3BeH3iSuaqti6YTbupcv7bSrKp0/de8OYUoe3vsjz8/sP+8+/M9O3v3/sPvb39jr9/99vsJe3X6/lQN4GUyavNbV0zRWBywKEgm0v7sKvGDAUuniBFzo0EyefH8kQLisu8FzkpmdlvsQn1wCXk8C302dcOIv5wEbtx0xZC/kzzKlc8u0s+UOjN/irZidtGEPOCvj6BT9c2u9FSAar7L/FFks0AHdEAHdEAHdEAHdEAHdEAHdLaezqbqh2AU8iHYgA3YgA3YgA3YgA3YgA3YgA3YZLPZ0EkSbITuEeiADuiADuiADuiADuiADuiADugUoaOuAZZ+wzbX9AJTMAVTMAVTMAVTMAVTMAVTMAVTMAXT7WCaK6aYMp2LI4IpmIIpmIIpmIIpmIIpmIIpmIIpmILpdjDVUmBNWc8VVcEarMEarMEarMEarMEarMEarMEarMEarB+R9ZLWMHRvmrlgt1bsxRN+Nnan3Ir5bdx89iqYhVE+jbvNOz/wqykP3XgWctZ8uSMwckD29tiL4ZC5LMViN148ZlFwxdmwk3NndD2y3OlUHCjSENYbOzk3LIvlxnE4P0Km39a8SRz44qjfFMV34twVQW/X9QfjIGzcH3aiiXEZ+PHuDfdG41hgXASToTrG/Om8PT35ZffF7ocxD6+CKHZjdsbjaeAlwK+4G3v+6NlO1vN6vhcNQm8a/yy95vne0Lt+uFp6jxwswWLe8LgxEO58krTf9XwenjtOg6WdctwYetF04t4deb44D2f3YhIMvvzUkPNLQOdNYPHdNLlf9MveZ/fanX+aeaco6SE91yN2vDyLx+c3Z9ejZuOHTY4t1hVH2yQ/ciNp5UCXj3+fEvWNlJ/sHFW7k54BNhDDjzjxaa72t3beVAaSQ4bUIUPqkiH1yJD6ZEj7ZEgHZEiHZEhrh28aQtF5uU3n5jadn9t0jm7TebpN5+o2na/bdM5u03m7Q+ftDuGYTuftDp23O5revim8pJgBQz7UAMroKz2gjJ7SA8roJz2gjDFBDyhjRNADyhgP9IAyRgM9oIyxQA8oK/FpIpH5dlba00Qi8+6spKeJRObfWSlPE4nMw7MSniYSmY9npTtNJLrxm8zHs3KdJpKOj28IXyimOaGNoYGU0U2aSBndpImU0U2aSBlDgSZSxlCgiZQxFGgiZQwFmkgZQ4EmUla+04Wi8/KsjKcLRefnWTlPF4rO07Oyni4Una9n5T1dKDpvz8p8ulCEYzqdt2clP12oXG/HYfQ4jH4BpHAbDqPfKDiMXoUWDqPHYfRFCg6jFwWH0eMw+rTgMPrsK3EYfT6AKDiMfjvObAQd0AEd0AEd0AEd0AEd0AEd0Nl6Ok/sKEewARuwARuwARuwARuwARuwAZvtYfO0zmwEHdABHdABHdABHdABHdABHdB5UnQeUZztxSD2rr347jW/5hPW/Dfk2Z6iPNviIW2HEltnC5TYOpUpsbWtdo9EiM0IqEMF1KUC6lEB9amA9qmADqiADqmA1vblmyGR+bZN5tw2mXfbZO5tk/m3TebgNpmH22QubpP5uEPm4w7d+E3m4w6Zjzt6Pq6uuLaOVVxwzQRH3kvF5dZMcOSjQHGxNRMc+QhQXGrNBEce/QZCa0ZAVB6dkd4MVNaMgKicOiO3GUisGQFR+XVGYjPQVzMaGak8OyOrGYirGQFReXZGSiuurLaOYyCsZgQk7yIDWTUjIHnwG4iqGQHJg99AUs0ISB78JoJqZkhkvp2R2UzU1MyQyNw7I7mZSKmZIZF5eEZ+M9FRMxsryXw8I8WZiKiZIZH5eEaWg4IaFNSgoLbBEApqokBBDQpqUFDLKFBQg4KaVqugoLZmX+N6KKitFiio3ZcSFmw9MaEB0AEd0AEd0AEd0AEd0AEd0AGdrafzxPQHwAZswAZswAZswAZswAZswAZstofNd6N7ADqgAzqgAzqgAzqgAzqgAzqgU9zeIyioQTDtSQmmnQ3GfDhLellsh4p4zOz2dsimdbdANq1bmWxaP90UWlTihgqoQwXUpQLqUQH1qYD2qYAOqIAOqYDWdt+bIZH5tk3m3DaZd9tk7m2T+bdN5uA2mYfbZC5uk/m4Q+bjDt34TebjDpmPO3o+ri6bto5VXDbNBEfeS8Vl00xw5KNAcdk0Exz5CFBcNs0ERx79BrJpRkBUHp2R3gxk04yAqJw6I7cZyKYZAVH5dUZiM5BNMxoZqTw7I6sZyKYZAVF5dkZKKy6bto5jIJtmBCTvIgPZNCMgefAbyKYZAcmD30A2zQhIHvwmsmlmSGS+nZHZTGTTzJDI3DsjuZnIppkhkXl4Rn4zkU0zGyvJfDwjxZnIppkhkfl4RpaDbBpk0yCbtsEQsmmiQDYNsmmQTcsokE2DbJpWqyCbtmZf43rIpq0WyKbdlxJWaT0xdQHQAR3QAR3QAR3QAR3QAR3QAZ2tp/PERAfABmzABmzABmzABmzABmzABmy2h813I3YAOqADOqADOqADOqADOqADOqBT3B5k0xYFsmn3smn2dsim9bZANq1XmWxa23JIVNNMcDpEOF0inB4RTp8IZ58I54AI55AIZ23TvREQlUfbVC5tU/m0TeXUNpVX21RubVP5tU3l2DaVZztUnu2QjdVUnu1Qebaj5dnq8mhrUMXV0QxgpD1UXBvNAEYa98WV0QxgpDFfXBfNAEYa7waqaCY4RH4sT2MGkmgmOESuLM9hBnpoJjhE3ixPYAZiaCbjIJE/y7OXgRKaCQ6RP8tTV3EZtDUYAxU0Exxp9xhooJngSMPdQAHNBEca7gb6ZyY40nA3UT8zAqLyaHkGM5E+MwKicmp5EjPRPTMCovJreR4zET0zGhmpPFueykwUz4yAqDxbns0gdwa5M8idbTCE3JkokDuD3BnkzjIK5M4gd6bVKsidrdnXuB5yZ6sFcmf3pYTVVU9MFQB0QAd0QAd0QAd0QAd0QAd0QGfr6TwxsQCwARuwARuwARuwARuwARuwAZvtYfPdiBSADuiADuiADuiADuiADuiADugUtwe5s0WB3Nm93JmzHXJn/S2QO+tXKHfW7hHpnRkAdaiAulRAPSqgPhXQPhXQARXQIRXQN9vtTZDIfNsmc26bzLttMve2yfzbJnNwm8zDbTIXt8l83CHzcYdu/CbzcYfMxx09H9eRQVvFMtFBK44j7yUTJbTiOPJRwEQLrTiOfAQwUUMrjiOPfiM9NAMgKo/OSG9GkmgGQFROnZHbjFTRDICo/DojsRkJoxmMjFSenZHVjLTRDICoPDsjpZnIo63iGOmjGQDJu8hIIc0ASB78RhppBkDy4DdSSTMAkge/mU6aCRKZb2dkNjOpNBMkMvfOSG5mamkmSGQenpHfzATTTMZKMh/PSHFmmmkmSGQ+npHlIJsG2TTIpm0whGyaKJBNg2waZNMyCmTTIJum1SrIpq3Z17gesmmrBbJp96WEVVpPTF0AdEAHdEAHdEAHdEAHdEAHdEBn6+k8MdEBsAEbsAEbsAEbsAEbsAEbsAGb7WHz3YgdgA7ogA7ogA7ogA7ogA7ogA7oFLcH2bRFgWzavWxaZztk0/a3QDZtvzLZtH66KbSoxA0VUIcKqEsF1KMC6lMB7VMBHVABHVIBre2+N0Mi822bzLltMu+2ydzbJvNvm8zBbTIPt8lc3CbzcYfMxx268ZvMxx0yH3f0fFxdNm0dq7hsmgmOvJeKy6aZ4MhHgeKyaSY48hGguGyaCY48+g1k04yAqDw6I70ZyKYZAVE5dUZuM5BNMwKi8uuMxGYgm2Y0MlJ5dkZWM5BNMwKi8uyMlFZcNm0dx0A2zQhI3kUGsmlGQPLgN5BNMwKSB7+BbJoRkDz4TWTTzJDIfDsjs5nIppkhkbl3RnIzkU0zQyLz8Iz8ZiKbZjZWkvl4RoozkU0zQyLz8YwsB9k0yKZBNm2DIWTTRIFsGmTTIJuWUSCbBtk0rVZBNm3Nvsb1kE1bLZBNuy8lrNJ6YuoCoAM6oAM6oAM6oAM6oAM6oAM6W0/niYkOgA3YgA3YgA3YgA3YgA3YgA3YbA+b70bsAHRAB3RAB3RAB3RAB3RAB3RAp7g9yKYtCmTT7mXTutshm3awBbJpB5XJprUth0Q1zQSnQ4TTJcLpEeH0iXD2iXAOiHAOiXDWNt0bAVF5tE3l0jaVT9tUTm1TebVN5dY2lV/bVI5tU3m2Q+XZDtlYTeXZDpVnO1qerS6PtgZVXB3NAEbaQ8W10QxgpHFfXBnNAEYa88V10QxgpPFuoIpmgkPkx/I0ZiCJZoJD5MryHGagh2aCQ+TN8gRmIIZmMg4S+bM8exkooZngEPmzPHUVl0FbgzFQQTPBkXaPgQaaCY403A0U0ExwpOFuoH9mgiMNdxP1MyMgKo+WZzAT6TMjICqnlicxE90zIyAqv5bnMRPRM6ORkcqz5anMRPHMCIjKs+XZDHJnkDuD3NkGQ8idiQK5M8idQe4so0DuDHJnWq2C3NmafY3rIXe2WiB3dl9KWF31xFQBQAd0QAd0QAd0QAd0QAd0QAd0tp7OExMLABuwARuwARuwARuwARuwARuw2R42341IAeiADuiADuiADuiADuiADuiATnF7kDtbFMid3cud9bZD7uxwC+TODiuUO2v3iPTODIA6VEBdKqAeFVCfCmifCuiACuiQCuib7fYmSGS+bZM5t03m3TaZe9tk/m2TObhN5uE2mYvbZD7ukPm4Qzd+k/m4Q+bjjp6P68igrWKZ6KAVx5H3kokSWnEc+ShgooVWHEc+ApiooRXHkUe/kR6aARCVR2ekNyNJNAMgKqfOyG1GqmgGQFR+nZHYjITRDEZGKs/OyGpG2mgGQFSenZHSTOTRVnGM9NEMgORdZKSQZgAkD34jjTQDIHnwG6mkGQDJg99MJ80Eicy3MzKbmVSaCRKZe2ckNzO1NBMkMg/PyG9mgmkmYyWZj2ekODPNNBMkMh/PyHKQTYNsGmTTNhhCNk0UyKZBNg2yaRkFsmmQTdNqFWTT1uxrXA/ZtNUC2bT7UsIqrSemLgA6oAM6oAM6oAM6oAM6oAM6oLP1dJ6Y6ADYgA3YgA3YgA3YgA3YgA3YgM32sPluxA5AB3RAB3RAB3RAB3RAB3RAB3SK24Ns2qJANu1eNq2/FbJpnfbTl01LOFYlm9ZPN4UWlbihAupQAXWpgHpUQH0qoH0qoAMqoEMqoLXd92ZIZL5tkzm3TebdNpl722T+bZM5uE3m4TaZi9tkPu6Q+bhDN36T+bhD5uOOno+ry6atYxWXTTPBkfdScdk0Exz5KFBcNs0ERz4CFJdNM8GRR7+BbJoREJVHZ6Q3A9k0IyAqp87IbQayaUZAVH6dkdgMZNOMRkYqz87IagayaUZAVJ6dkdKKy6at4xjIphkBybvIQDbNCEge/AayaUZA8uA3kE0zApIHv4lsmhkSmW9nZDYT2TQzJDL3zkhuJrJpZkhkHp6R30xk08zGSjIfz0hxJrJpZkhkPp6R5SCbBtk0yKZtMIRsmiiQTYNsGmTTMgpk0yCbptUqyKat2de4HrJpqwWyafelhFVaT0xdAHRAB3RAB3RAB3RAB3RAB3RAZ+vpPDHRAbABG7ABG7ABG7ABG7ABG7ABm+1h892IHYAO6IAO6IAO6IAO6IAO6IAO6BS3B9m0RYFs2r1s2v52yKbZWyCbZlcmm9a2HBLVNBOcDhFOlwinR4TTJ8LZJ8I5IMI5JMJZ23RvBETl0TaVS9tUPm1TObVN5dU2lVvbVH5tUzm2TeXZDpVnO2RjNZVnO1Se7Wh5tro82hpUcXU0AxhpDxXXRjOAkcZ9cWU0AxhpzBfXRTOAkca7gSqaCQ6RH8vTmIEkmgkOkSvLc5iBHpoJDpE3yxOYgRiayThI5M/y7GWghGaCQ+TP8tRVXAZtDcZABc0ER9o9BhpoJjjScDdQQDPBkYa7gf6ZCY403E3Uz4yAqDxansFMpM+MgKicWp7ETHTPjICo/Fqex0xEz4xGRirPlqcyE8UzIyAqz5ZnM8idQe4McmcbDCF3JgrkziB3BrmzjAK5M8idabUKcmdr9jWuh9zZaoHc2X0pYXXVE1MFAB3QAR3QAR3QAR3QAR3QAR3Q2Xo6T0wsAGzABmzABmzABmzABmzABmzAZnvYfDciBaADOqADOqADOqADOqADOqADOsXtQe5sUSB3tpQ762yH2pmzBWpnToVqZ+0ekdyZAVCHCqhLBdSjAupTAe1TAR1QAR1SAX2z294Eicy3bTLntsm82yZzb5vMv20yB7fJPNwmc3GbzMcdMh936MZvMh93yHzc0fNxHRW0VSwTGbTiOPJeMhFCK44jHwVMpNCK48hHABMxtOI48ug3kkMzAKLy6Iz0ZqSIZgBE5dQZuc1IFM0AiMqvMxKbkS6awchI5dkZWc1IGs0AiMqzM1KaiTraKo6RPJoBkLyLjATSDIDkwW8kkWYAJA9+I5E0AyB58JvJpJkgkfl2RmYzU0ozQSJz74zkZiaWZoJE5uEZ+c1ML81krCTz8YwUZyaZZoJE5uMZWQ6qaVBNg2raBkOopokC1TSopkE1LaNANQ2qaVqtgmramn2N66GatlqgmnZfSlik9cTEBUAHdEAHdEAHdEAHdEAHdEAHdLaezhPTHAAbsAEbsAEbsAEbsAEbsAEbsNkeNt+N1gHogA7ogA7ogA7ogA7ogA7ogE5xe1BNWxSopi1V07rboZrW2QLVtE5lqmn9dE9oUYUbKqAOFVCXCqhHBdSnAtqnAjqgAjqkAlrbfG+GRObbNplz22TebZO5t03m3zaZg9tkHm6TubhN5uMOmY87dOM3mY87ZD7u6Pm4umraOlZx1TQTHHkvFVdNM8GRjwLFVdNMcOQjQHHVNBMcefQbqKYZAVF5dEZ6M1BNMwKicuqM3GagmmYEROXXGYnNQDXNaGSk8uyMrGagmmYEROXZGSmtuGraOo6BapoRkLyLDFTTjIDkwW+gmmYEJA9+A9U0IyB58Juoppkhkfl2RmYzUU0zQyJz74zkZqKaZoZE5uEZ+c1ENc1srCTz8YwUZ6KaZoZE5uMZWQ6qaVBNg2raBkOopokC1TSopkE1LaNANQ2qaVqtgmramn2N66GatlqgmnZfSlik9cTEBUAHdEAHdEAHdEAHdEAHdEAHdLaezhPTHAAbsAEbsAEbsAEbsAEbsAEbsNkeNt+N1gHogA7ogA7ogA7ogA7ogA7ogE5xe1BNWxSopi1V03rboZrW3QLVtG5lqmltyyERTTPB6RDhdIlwekQ4fSKcfSKcAyKcQyKctT33RkBUHm1TubRN5dM2lVPbVF5tU7m1TeXXNpVj21Se7VB5tkM2VlN5tkPl2Y6WZ6uro61BFRdHM4CR9lBxaTQDGGncFxdGM4CRxnxxWTQDGGm8G4iimeAQ+bE8jRkoopngELmyPIcZyKGZ4BB5szyBGWihmYyDRP4sz14GQmgmOET+LE9dxVXQ1mAMRNBMcKTdYyCBZoIjDXcDATQTHGm4G8ifmeBIw91E/MwIiMqj5RnMRPnMCIjKqeVJzET2zAiIyq/lecxE88xoZKTybHkqMxE8MwKi8mx5NoPaGdTOoHa2wRBqZ6JA7QxqZ1A7yyhQO4PamVaroHa2Zl/jeqidrRaond2XEhZXPTFRANABHdABHdABHdABHdABHdABna2n88S0AsAGbMAGbMAGbMAGbMAGbMAGbLaHzXejUQA6oAM6oAM6oAM6oAM6oAM6oFPcHtTOFgVqZ0u1s/52qJ31tkDtrFeh2lm7RyR3ZgDUoQLqUgH1qID6VED7VEAHVECHVEDf7LY3QSLzbZvMuW0y77bJ3Nsm82+bzMFtMg+3yVzcJvNxh8zHHbrxm8zHHTIfd/R8XEcFbRXLRAatOI68l0yE0IrjyEcBEym04jjyEcBEDK04jjz6jeTQDICoPDojvRkpohkAUTl1Rm4zEkUzAKLy64zEZqSLZjAyUnl2RlYzkkYzAKLy7IyUZqKOtopjJI9mACTvIiOBNAMgefAbSaQZAMmD30gkzQBIHvxmMmkmSGS+nZHZzJTSTJDI3DsjuZmJpZkgkXl4Rn4z00szGSvJfDwjxZlJppkgkfl4RpaDahpU06CatsEQqmmiQDUNqmlQTcsoUE2DappWq6CatmZf43qopq0WqKbdlxIWaT0xcQHQAR3QAR3QAR3QAR3QAR3QAZ2tp/PENAfABmzABmzABmzABmzABmzABmy2h813o3UAOqADOqADOqADOqADOqADOqBT3B5U0xYFqmlL1bT97VBN62+Balq/MtW0frontKjCDRVQhwqoSwXUowLqUwHtUwEdUAEdUgGtbb43QyLzbZvMuW0y77bJ3Nsm82+bzMFtMg+3yVzcJvNxh8zHHbrxm8zHHTIfd/R8XF01bR2ruGqaCY68l4qrppngyEeB4qppJjjyEaC4apoJjjz6DVTTjICoPDojvRmophkBUTl1Rm4zUE0zAqLy64zEZqCaZjQyUnl2RlYzUE0zAqLy7IyUVlw1bR3HQDXNCEjeRQaqaUZA8uA3UE0zApIHv4FqmhGQPPhNVNPMkMh8OyOzmaimmSGRuXdGcjNRTTNDIvPwjPxmoppmNlaS+XhGijNRTTNDIvPxjCwH1TSopkE1bYMhVNNEgWoaVNOgmpZRoJoG1TStVkE1bc2+xvVQTVstUE27LyUs0npi4gKgAzqgAzqgAzqgAzqgAzqgAzpbT+eJaQ6ADdiADdiADdiADdiADdiADdhsD5vvRusAdEAHdEAHdEAHdEAHdEAHdECnuD2opi0KVNOWqmkH26Gatr8Fqmn7lammtS2HRDTNBKdDhNMlwukR4fSJcPaJcA6IcA6JcNb23BsBUXm0TeXSNpVP21RObVN5tU3l1jaVX9tUjm1TebZD5dkO2VhN5dkOlWc7Wp6tro62BlVcHM0ARtpDxaXRDGCkcV9cGM0ARhrzxWXRDGCk8W4gimaCQ+TH8jRmoIhmgkPkyvIcZiCHZoJD5M3yBGaghWYyDhL5szx7GQihmeAQ+bM8dRVXQVuDMRBBM8GRdo+BBJoJjjTcDQTQTHCk4W4gf2aCIw13E/EzIyAqj5ZnMBPlMyMgKqeWJzET2TMjICq/lucxE80zo5GRyrPlqcxE8MwIiMqz5dkMamdQO4Pa2QZDqJ2JArUzqJ1B7SyjQO0MamdarYLa2Zp9jeuhdrZaoHZ2X0pYXPXERAFAB3RAB3RAB3RAB3RAB3RAB3S2ns4T0woAG7ABG7ABG7ABG7ABG7ABG7DZHjbfjUYB6IAO6IAO6IAO6IAO6IAO6IBOcXtQO1sUqJ0t1c4Ot0Pt7GAL1M4OKlM7s7ttq71S7C6J+BkhbKcc2G45sL1yYPvlwO6XA3tQDuxhObBre/0pcUuKM7ukQLNLijS7pFCzS4o1u6Rgs0uKNrukcLNLijenpHhzysprJcWbU1K8OSbxpq4ql4VcXGSODlW1d4tL0NGhqo5kxQXq6FBVR7Hi8nV0qKojmIG4HSFsOdGlPF0wUMIjhC0nwJTnCgayeYSw5cSY8kTBQGOPMCuUE2XKswQDQT5C2HKiTHmKUFy9LwvVQMyPEFa1aw2k/ghhVQcwAyFAQljVAcxAJpAQVnUAMxERpMQtKc6UZwomioOUuCWFmvJkwUSekBK3pGhTni+YaBlS5omS4k15ymAifEiJW1K8Kc8aoJIIlUSoJG4whEqiKFBJhEoiVBIzClQSoZKo1SqoJK7Z17geKomrBSqJ96WERZlPTEwEdEAHdEAHdEAHdEAHdEAHdEBn6+k8MY0RsAEbsAEbsAEbsAEbsAEbsAGb7WHz3WibgA7ogA7ogA7ogA7ogA7ogA7oFLf3CCqJH/jVlIduPAs5a77cgWji0xJN5OG1N+Ds367wvNdBMGXigYl1zt32y+0QUDzcAgHFw8oEFPuH1uFKOTgk0U+kQ+2UgtotBbVXCmq/FNT9UlAPSkE9LAV1Td6AELac6LLLCS+7nPiyywkwu5wIs8sJMbucGLPLCTK7nChzyokyp6QcVk6UOeVEmWMQZepCiRnAxXUSyUAVe7a4SiIZqOLYVVwjkQxUcdwqrpBIBqo4ZhnoI9KhlhJTqtMCA3FEOtRSwkp1TmCgjEiHWkpkqU4IDGQR6XJAKbGlOhsw0ESkQy0ltlSnAsUFETNADfQQ6VAVu9VADZEOVXHIMtBCpENVHLIMlBDpUBWHLBMdRELYcqJLdUZgIoJICFtOgKlOCkwUEAlhy4kx1XmBifwhYVYoJ8pUpwYm2oeEsOVEmersAMKHED6E8OEGQwgfigLhQwgfQvgwo0D4EMKHWq2C8OGafY3rIXy4WiB8eF9KWGf5xPRBQAd0QAd0QAd0QAd0QAd0QAd0tp7OE5MNARuwARuwARuwARuwARuwARuw2R42341cCeiADuiADuiADuiADuiADuiATnF7ED58uHy3wodzwcNXPP3fi6sLj/vxXPrwbDDmw1nS/7tsf0skELvtpy+BmHCsSgIx3XhaVIKJCKdDhNMlwukR4fSJcPaJcA6IcA6JcNa0BYyAqDzapnJpm8qnbSqntqm82qZya5vKr20qx7apPNuh8myHbKym8myHyrMdLc9Wl+xbgyou0mcAI+2h4kJ8BjDSuC8utmcAI4354oJ6BjDSeDcQzTPBIfJjeRozkMIzwSFyZXkOMxC4M8Eh8mZ5AjOQrTMZB4n8WZ69DMToTHCI/FmeuopLzK3BGIjKmeBIu8dAOM4ERxruBuJwJjjScDcQgDPBkYa7icibERCVR8szmIl0mxEQlVPLk5iJIJsREJVfy/OYicya0chI5dnyVGYinmYEROXZ8mwGSbStkERDNapRjWpUoxrVqEY1qlGNalSjGtWoRvVTqr6zgmseht6Qv3HFiyrbakMSf6UlkMS/L5DE1yqQxIckvkaBJP63BZL43xZI4msWSOJDEv/BAkl80AEd0AEd0AEd0AEd0AEd0AEd0NkGQUmwARuwARuwARuwARuwARuwAZvtYfPdCFmCDuiADuiADuiADuiADuiADugUt/cIkvi/elfcj7zAn/AogiD+0xLED8Iv7PTy0ht43B/c3cvgVyuAv7j6m5rVfy9/n///Hn3xy/3/LoLhnfj/OL6a/Pxf/x++1wTR"
               },
               {
                  "name" : "annual_peak_electric_demand",
                  "units" : "kW",
                  "value" : 16.145489999999999
               },
               {
                  "name" : "first_year_capital_cost",
                  "units" : "$",
                  "value" : 0
               },
               {
                  "name" : "annual_utility_cost",
                  "units" : "$",
                  "value" : 5217.1799999999994
               },
               {
                  "name" : "total_lifecycle_cost",
                  "units" : "$",
                  "value" : 87848.179999999993
               }
            ],
            "step_warnings" : []
         }
      }
   ],
   "updated_at" : "20170710T191347Z",
   "weather_file" : "USA_CO_Denver.Intl.AP.725650_TMY3.epw"
}
