{
   "completed_at" : "20170710T191221Z",
   "completed_status" : "Success",
   "created_at" : "2017-07-10 18:53:32 +0000",
   "current_step" : 5,
   "description" : "",
   "eplusout_err" : "Program Version,EnergyPlus, Version 8.7.0-78a111df4a, YMD=2017.07.10 19:02,IDD_Version 8.7.0\n   ************* IDF Context for following error/warning message:\n   ************* Note -- lines truncated at 300 characters, if necessary...\n   *************      5 Building,\n   ************* indicated Name=NECB 2011-Hospital-NECB HDD Method-CAN_MB_Winnipeg.718520_CWEC.epw created: 2017-07-10 18:53:41 +0000\n   ************* Only last 1 lines before error line shown.....\n   *************      6   NECB 2011-Hospital-NECB HDD Method-CAN_MB_Winnipeg.718520_CWEC.epw created: 2017-07-10 18:53:41 +0000, !- Name\n   ** Warning ** IP: IDF line~6 Alpha Argument length exceeds maximum, will be truncated=  NECB 2011-Hospital-NECB HDD Method-CAN_MB_Winnipeg.718520_CWEC.epw created: 2017-07-10 18:53:41 +000\n   **   ~~~   ** Will be processed as Alpha=NECB 2011-HOSPITAL-NECB HDD METHOD-CAN_MB_WINNIPEG.718520_CWEC.EPW CREATED: 2017-07-10 18:53:41 +0000\n   ************* IDF Context for following error/warning message:\n   ************* Note -- lines truncated at 300 characters, if necessary...\n   *************   5049 Schedule:Week:Daily,\n   ************* indicated Name=Schedule:Week:Daily {4a3eab79-25cf-40ec-9cca-8c92a864be79}\n   ************* Only last 10 lines before error line shown.....\n   *************   5050   Schedule:Week:Daily {4a3eab79-25cf-40ec-9cca-8c92a864be79}, !- Name\n   *************   5051   Sp-ER_Exam1_Mult4_Flr_1 Sys-3 Flr-1 Sch-H HPlcmt-south ZN NECB System 3 PSZ Occ Sch Sunday, !- Sunday Schedule:Day Name\n   *************   5052   Sp-ER_Exam1_Mult4_Flr_1 Sys-3 Flr-1 Sch-H HPlcmt-south ZN NECB System 3 PSZ Occ Sch Monday, !- Monday Schedule:Day Name\n   *************   5053   Sp-ER_Exam1_Mult4_Flr_1 Sys-3 Flr-1 Sch-H HPlcmt-south ZN NECB System 3 PSZ Occ Sch Tuesday, !- Tuesday Schedule:Day Name\n   *************   5054   Sp-ER_Exam1_Mult4_Flr_1 Sys-3 Flr-1 Sch-H HPlcmt-south ZN NECB System 3 PSZ Occ Sch Wednesday, !- Wednesday Schedule:Day Name\n   *************   5055   Sp-ER_Exam1_Mult4_Flr_1 Sys-3 Flr-1 Sch-H HPlcmt-south ZN NECB System 3 PSZ Occ Sch Thursday, !- Thursday Schedule:Day Name\n   *************   5056   Sp-ER_Exam1_Mult4_Flr_1 Sys-3 Flr-1 Sch-H HPlcmt-south ZN NECB System 3 PSZ Occ Sch Friday, !- Friday Schedule:Day Name\n   *************   5057   Sp-ER_Exam1_Mult4_Flr_1 Sys-3 Flr-1 Sch-H HPlcmt-south ZN NECB System 3 PSZ Occ Sch Saturday, !- Saturday Schedule:Day Name\n   *************   5058   Sp-ER_Exam1_Mult4_Flr_1 Sys-3 Flr-1 Sch-H HPlcmt-south ZN NECB System 3 PSZ Occ Sch Default, !- Holiday Schedule:Day Name\n   *************   5059   Sp-ER_Exam1_Mult4_Flr_1 Sys-3 Flr-1 Sch-H HPlcmt-south ZN NECB System 3 PSZ Occ Sch Summer Design Day, !- SummerDesignDay Schedule:Day Name\n   ** Warning ** IP: IDF line~5059 Alpha Argument length exceeds maximum, will be truncated=  Sp-ER_Exam1_Mult4_Flr_1 Sys-3 Flr-1 Sch-H HPlcmt-south ZN NECB System 3 PSZ Occ Sch Summer Design Da\n   **   ~~~   ** Will be processed as Alpha=SP-ER_EXAM1_MULT4_FLR_1 SYS-3 FLR-1 SCH-H HPLCMT-SOUTH ZN NECB SYSTEM 3 PSZ OCC SCH SUMMER DESIGN DAY\n   ************* IDF Context for following error/warning message:\n   ************* Note -- lines truncated at 300 characters, if necessary...\n   *************   5049 Schedule:Week:Daily,\n   ************* indicated Name=Schedule:Week:Daily {4a3eab79-25cf-40ec-9cca-8c92a864be79}\n   ************* Only last 10 lines before error line shown.....\n   *************   5051   Sp-ER_Exam1_Mult4_Flr_1 Sys-3 Flr-1 Sch-H HPlcmt-south ZN NECB System 3 PSZ Occ Sch Sunday, !- Sunday Schedule:Day Name\n   *************   5052   Sp-ER_Exam1_Mult4_Flr_1 Sys-3 Flr-1 Sch-H HPlcmt-south ZN NECB System 3 PSZ Occ Sch Monday, !- Monday Schedule:Day Name\n   *************   5053   Sp-ER_Exam1_Mult4_Flr_1 Sys-3 Flr-1 Sch-H HPlcmt-south ZN NECB System 3 PSZ Occ Sch Tuesday, !- Tuesday Schedule:Day Name\n   *************   5054   Sp-ER_Exam1_Mult4_Flr_1 Sys-3 Flr-1 Sch-H HPlcmt-south ZN NECB System 3 PSZ Occ Sch Wednesday, !- Wednesday Schedule:Day Name\n   *************   5055   Sp-ER_Exam1_Mult4_Flr_1 Sys-3 Flr-1 Sch-H HPlcmt-south ZN NECB System 3 PSZ Occ Sch Thursday, !- Thursday Schedule:Day Name\n   *************   5056   Sp-ER_Exam1_Mult4_Flr_1 Sys-3 Flr-1 Sch-H HPlcmt-south ZN NECB System 3 PSZ Occ Sch Friday, !- Friday Schedule:Day Name\n   *************   5057   Sp-ER_Exam1_Mult4_Flr_1 Sys-3 Flr-1 Sch-H HPlcmt-south ZN NECB System 3 PSZ Occ Sch Saturday, !- Saturday Schedule:Day Name\n   *************   5058   Sp-ER_Exam1_Mult4_Flr_1 Sys-3 Flr-1 Sch-H HPlcmt-south ZN NECB System 3 PSZ Occ Sch Default, !- Holiday Schedule:Day Name\n   *************   5059   Sp-ER_Exam1_Mult4_Flr_1 Sys-3 Flr-1 Sch-H HPlcmt-south ZN NECB System 3 PSZ Occ Sch Summer Design Day, !- SummerDesignDay Schedule:Day Name\n   *************   5060   Sp-ER_Exam1_Mult4_Flr_1 Sys-3 Flr-1 Sch-H HPlcmt-south ZN NECB System 3 PSZ Occ Sch Winter Design Day, !- WinterDesignDay Schedule:Day Name\n   ** Warning ** IP: IDF line~5060 Alpha Argument length exceeds maximum, will be truncated=  Sp-ER_Exam1_Mult4_Flr_1 Sys-3 Flr-1 Sch-H HPlcmt-south ZN NECB System 3 PSZ Occ Sch Winter Design Da\n   **   ~~~   ** Will be processed as Alpha=SP-ER_EXAM1_MULT4_FLR_1 SYS-3 FLR-1 SCH-H HPLCMT-SOUTH ZN NECB SYSTEM 3 PSZ OCC SCH WINTER DESIGN DAY\n   ************* IDF Context for following error/warning message:\n   ************* Note -- lines truncated at 300 characters, if necessary...\n   *************   5080 Schedule:Day:Interval,\n   ************* indicated Name=Sp-ER_Exam1_Mult4_Flr_1 Sys-3 Flr-1 Sch-H HPlcmt-south ZN NECB System 3 PSZ Occ Sch Summer Design Day\n   ************* Only last 1 lines before error line shown.....\n   *************   5081   Sp-ER_Exam1_Mult4_Flr_1 Sys-3 Flr-1 Sch-H HPlcmt-south ZN NECB System 3 PSZ Occ Sch Summer Design Day, !- Name\n   ** Warning ** IP: IDF line~5081 Alpha Argument length exceeds maximum, will be truncated=  Sp-ER_Exam1_Mult4_Flr_1 Sys-3 Flr-1 Sch-H HPlcmt-south ZN NECB System 3 PSZ Occ Sch Summer Design Da\n   **   ~~~   ** Will be processed as Alpha=SP-ER_EXAM1_MULT4_FLR_1 SYS-3 FLR-1 SCH-H HPLCMT-SOUTH ZN NECB SYSTEM 3 PSZ OCC SCH SUMMER DESIGN DAY\n   ************* IDF Context for following error/warning message:\n   ************* Note -- lines truncated at 300 characters, if necessary...\n   *************   5087 Schedule:Day:Interval,\n   ************* indicated Name=Sp-ER_Exam1_Mult4_Flr_1 Sys-3 Flr-1 Sch-H HPlcmt-south ZN NECB System 3 PSZ Occ Sch Winter Design Day\n   ************* Only last 1 lines before error line shown.....\n   *************   5088   Sp-ER_Exam1_Mult4_Flr_1 Sys-3 Flr-1 Sch-H HPlcmt-south ZN NECB System 3 PSZ Occ Sch Winter Design Day, !- Name\n   ** Warning ** IP: IDF line~5088 Alpha Argument length exceeds maximum, will be truncated=  Sp-ER_Exam1_Mult4_Flr_1 Sys-3 Flr-1 Sch-H HPlcmt-south ZN NECB System 3 PSZ Occ Sch Winter Design Da\n   **   ~~~   ** Will be processed as Alpha=SP-ER_EXAM1_MULT4_FLR_1 SYS-3 FLR-1 SCH-H HPLCMT-SOUTH ZN NECB SYSTEM 3 PSZ OCC SCH WINTER DESIGN DAY\n   ************* IDF Context for following error/warning message:\n   ************* Note -- lines truncated at 300 characters, if necessary...\n   *************   5835 Schedule:Week:Daily,\n   ************* indicated Name=Schedule:Week:Daily {6f26b554-55f8-4bc1-b27a-2962b0fde02d}\n   ************* Only last 10 lines before error line shown.....\n   *************   5836   Schedule:Week:Daily {6f26b554-55f8-4bc1-b27a-2962b0fde02d}, !- Name\n   *************   5837   Sp-ER_NurseStn_Lobby_Flr_1 Sys-3 Flr-1 Sch-H HPlcmt-east ZN NECB System 3 PSZ Occ Sch Sunday, !- Sunday Schedule:Day Name\n   *************   5838   Sp-ER_NurseStn_Lobby_Flr_1 Sys-3 Flr-1 Sch-H HPlcmt-east ZN NECB System 3 PSZ Occ Sch Monday, !- Monday Schedule:Day Name\n   *************   5839   Sp-ER_NurseStn_Lobby_Flr_1 Sys-3 Flr-1 Sch-H HPlcmt-east ZN NECB System 3 PSZ Occ Sch Tuesday, !- Tuesday Schedule:Day Name\n   *************   5840   Sp-ER_NurseStn_Lobby_Flr_1 Sys-3 Flr-1 Sch-H HPlcmt-east ZN NECB System 3 PSZ Occ Sch Wednesday, !- Wednesday Schedule:Day Name\n   *************   5841   Sp-ER_NurseStn_Lobby_Flr_1 Sys-3 Flr-1 Sch-H HPlcmt-east ZN NECB System 3 PSZ Occ Sch Thursday, !- Thursday Schedule:Day Name\n   *************   5842   Sp-ER_NurseStn_Lobby_Flr_1 Sys-3 Flr-1 Sch-H HPlcmt-east ZN NECB System 3 PSZ Occ Sch Friday, !- Friday Schedule:Day Name\n   *************   5843   Sp-ER_NurseStn_Lobby_Flr_1 Sys-3 Flr-1 Sch-H HPlcmt-east ZN NECB System 3 PSZ Occ Sch Saturday, !- Saturday Schedule:Day Name\n   *************   5844   Sp-ER_NurseStn_Lobby_Flr_1 Sys-3 Flr-1 Sch-H HPlcmt-east ZN NECB System 3 PSZ Occ Sch Default, !- Holiday Schedule:Day Name\n   *************   5845   Sp-ER_NurseStn_Lobby_Flr_1 Sys-3 Flr-1 Sch-H HPlcmt-east ZN NECB System 3 PSZ Occ Sch Summer Design Day, !- SummerDesignDay Schedule:Day Name\n   ** Warning ** IP: IDF line~5845 Alpha Argument length exceeds maximum, will be truncated=  Sp-ER_NurseStn_Lobby_Flr_1 Sys-3 Flr-1 Sch-H HPlcmt-east ZN NECB System 3 PSZ Occ Sch Summer Design Da\n   **   ~~~   ** Will be processed as Alpha=SP-ER_NURSESTN_LOBBY_FLR_1 SYS-3 FLR-1 SCH-H HPLCMT-EAST ZN NECB SYSTEM 3 PSZ OCC SCH SUMMER DESIGN DAY\n   ************* IDF Context for following error/warning message:\n   ************* Note -- lines truncated at 300 characters, if necessary...\n   *************   5835 Schedule:Week:Daily,\n   ************* indicated Name=Schedule:Week:Daily {6f26b554-55f8-4bc1-b27a-2962b0fde02d}\n   ************* Only last 10 lines before error line shown.....\n   *************   5837   Sp-ER_NurseStn_Lobby_Flr_1 Sys-3 Flr-1 Sch-H HPlcmt-east ZN NECB System 3 PSZ Occ Sch Sunday, !- Sunday Schedule:Day Name\n   *************   5838   Sp-ER_NurseStn_Lobby_Flr_1 Sys-3 Flr-1 Sch-H HPlcmt-east ZN NECB System 3 PSZ Occ Sch Monday, !- Monday Schedule:Day Name\n   *************   5839   Sp-ER_NurseStn_Lobby_Flr_1 Sys-3 Flr-1 Sch-H HPlcmt-east ZN NECB System 3 PSZ Occ Sch Tuesday, !- Tuesday Schedule:Day Name\n   *************   5840   Sp-ER_NurseStn_Lobby_Flr_1 Sys-3 Flr-1 Sch-H HPlcmt-east ZN NECB System 3 PSZ Occ Sch Wednesday, !- Wednesday Schedule:Day Name\n   *************   5841   Sp-ER_NurseStn_Lobby_Flr_1 Sys-3 Flr-1 Sch-H HPlcmt-east ZN NECB System 3 PSZ Occ Sch Thursday, !- Thursday Schedule:Day Name\n   *************   5842   Sp-ER_NurseStn_Lobby_Flr_1 Sys-3 Flr-1 Sch-H HPlcmt-east ZN NECB System 3 PSZ Occ Sch Friday, !- Friday Schedule:Day Name\n   *************   5843   Sp-ER_NurseStn_Lobby_Flr_1 Sys-3 Flr-1 Sch-H HPlcmt-east ZN NECB System 3 PSZ Occ Sch Saturday, !- Saturday Schedule:Day Name\n   *************   5844   Sp-ER_NurseStn_Lobby_Flr_1 Sys-3 Flr-1 Sch-H HPlcmt-east ZN NECB System 3 PSZ Occ Sch Default, !- Holiday Schedule:Day Name\n   *************   5845   Sp-ER_NurseStn_Lobby_Flr_1 Sys-3 Flr-1 Sch-H HPlcmt-east ZN NECB System 3 PSZ Occ Sch Summer Design Day, !- SummerDesignDay Schedule:Day Name\n   *************   5846   Sp-ER_NurseStn_Lobby_Flr_1 Sys-3 Flr-1 Sch-H HPlcmt-east ZN NECB System 3 PSZ Occ Sch Winter Design Day, !- WinterDesignDay Schedule:Day Name\n   ** Warning ** IP: IDF line~5846 Alpha Argument length exceeds maximum, will be truncated=  Sp-ER_NurseStn_Lobby_Flr_1 Sys-3 Flr-1 Sch-H HPlcmt-east ZN NECB System 3 PSZ Occ Sch Winter Design Da\n   **   ~~~   ** Will be processed as Alpha=SP-ER_NURSESTN_LOBBY_FLR_1 SYS-3 FLR-1 SCH-H HPLCMT-EAST ZN NECB SYSTEM 3 PSZ OCC SCH WINTER DESIGN DAY\n   ************* IDF Context for following error/warning message:\n   ************* Note -- lines truncated at 300 characters, if necessary...\n   *************   5866 Schedule:Day:Interval,\n   ************* indicated Name=Sp-ER_NurseStn_Lobby_Flr_1 Sys-3 Flr-1 Sch-H HPlcmt-east ZN NECB System 3 PSZ Occ Sch Summer Design Day\n   ************* Only last 1 lines before error line shown.....\n   *************   5867   Sp-ER_NurseStn_Lobby_Flr_1 Sys-3 Flr-1 Sch-H HPlcmt-east ZN NECB System 3 PSZ Occ Sch Summer Design Day, !- Name\n   ** Warning ** IP: IDF line~5867 Alpha Argument length exceeds maximum, will be truncated=  Sp-ER_NurseStn_Lobby_Flr_1 Sys-3 Flr-1 Sch-H HPlcmt-east ZN NECB System 3 PSZ Occ Sch Summer Design Da\n   **   ~~~   ** Will be processed as Alpha=SP-ER_NURSESTN_LOBBY_FLR_1 SYS-3 FLR-1 SCH-H HPLCMT-EAST ZN NECB SYSTEM 3 PSZ OCC SCH SUMMER DESIGN DAY\n   ************* IDF Context for following error/warning message:\n   ************* Note -- lines truncated at 300 characters, if necessary...\n   *************   5873 Schedule:Day:Interval,\n   ************* indicated Name=Sp-ER_NurseStn_Lobby_Flr_1 Sys-3 Flr-1 Sch-H HPlcmt-east ZN NECB System 3 PSZ Occ Sch Winter Design Day\n   ************* Only last 1 lines before error line shown.....\n   *************   5874   Sp-ER_NurseStn_Lobby_Flr_1 Sys-3 Flr-1 Sch-H HPlcmt-east ZN NECB System 3 PSZ Occ Sch Winter Design Day, !- Name\n   ** Warning ** IP: IDF line~5874 Alpha Argument length exceeds maximum, will be truncated=  Sp-ER_NurseStn_Lobby_Flr_1 Sys-3 Flr-1 Sch-H HPlcmt-east ZN NECB System 3 PSZ Occ Sch Winter Design Da\n   **   ~~~   ** Will be processed as Alpha=SP-ER_NURSESTN_LOBBY_FLR_1 SYS-3 FLR-1 SCH-H HPLCMT-EAST ZN NECB SYSTEM 3 PSZ OCC SCH WINTER DESIGN DAY\n   ************* IDF Context for following error/warning message:\n   ************* Note -- lines truncated at 300 characters, if necessary...\n   *************   6624 Schedule:Week:Daily,\n   ************* indicated Name=Schedule:Week:Daily {8c45ea18-9f0a-4382-a356-7d6297d61c53}\n   ************* Only last 10 lines before error line shown.....\n   *************   6625   Schedule:Week:Daily {8c45ea18-9f0a-4382-a356-7d6297d61c53}, !- Name\n   *************   6626   Sp-ER_Triage_Mult4_Flr_1 Sys-3 Flr-1 Sch-H HPlcmt-north ZN NECB System 3 PSZ Occ Sch Sunday, !- Sunday Schedule:Day Name\n   *************   6627   Sp-ER_Triage_Mult4_Flr_1 Sys-3 Flr-1 Sch-H HPlcmt-north ZN NECB System 3 PSZ Occ Sch Monday, !- Monday Schedule:Day Name\n   *************   6628   Sp-ER_Triage_Mult4_Flr_1 Sys-3 Flr-1 Sch-H HPlcmt-north ZN NECB System 3 PSZ Occ Sch Tuesday, !- Tuesday Schedule:Day Name\n   *************   6629   Sp-ER_Triage_Mult4_Flr_1 Sys-3 Flr-1 Sch-H HPlcmt-north ZN NECB System 3 PSZ Occ Sch Wednesday, !- Wednesday Schedule:Day Name\n   *************   6630   Sp-ER_Triage_Mult4_Flr_1 Sys-3 Flr-1 Sch-H HPlcmt-north ZN NECB System 3 PSZ Occ Sch Thursday, !- Thursday Schedule:Day Name\n   *************   6631   Sp-ER_Triage_Mult4_Flr_1 Sys-3 Flr-1 Sch-H HPlcmt-north ZN NECB System 3 PSZ Occ Sch Friday, !- Friday Schedule:Day Name\n   *************   6632   Sp-ER_Triage_Mult4_Flr_1 Sys-3 Flr-1 Sch-H HPlcmt-north ZN NECB System 3 PSZ Occ Sch Saturday, !- Saturday Schedule:Day Name\n   *************   6633   Sp-ER_Triage_Mult4_Flr_1 Sys-3 Flr-1 Sch-H HPlcmt-north ZN NECB System 3 PSZ Occ Sch Default, !- Holiday Schedule:Day Name\n   *************   6634   Sp-ER_Triage_Mult4_Flr_1 Sys-3 Flr-1 Sch-H HPlcmt-north ZN NECB System 3 PSZ Occ Sch Summer Design Day, !- SummerDesignDay Schedule:Day Name\n   ** Warning ** IP: IDF line~6634 Alpha Argument length exceeds maximum, will be truncated=  Sp-ER_Triage_Mult4_Flr_1 Sys-3 Flr-1 Sch-H HPlcmt-north ZN NECB System 3 PSZ Occ Sch Summer Design Da\n   **   ~~~   ** Will be processed as Alpha=SP-ER_TRIAGE_MULT4_FLR_1 SYS-3 FLR-1 SCH-H HPLCMT-NORTH ZN NECB SYSTEM 3 PSZ OCC SCH SUMMER DESIGN DAY\n   ************* IDF Context for following error/warning message:\n   ************* Note -- lines truncated at 300 characters, if necessary...\n   *************   6624 Schedule:Week:Daily,\n   ************* indicated Name=Schedule:Week:Daily {8c45ea18-9f0a-4382-a356-7d6297d61c53}\n   ************* Only last 10 lines before error line shown.....\n   *************   6626   Sp-ER_Triage_Mult4_Flr_1 Sys-3 Flr-1 Sch-H HPlcmt-north ZN NECB System 3 PSZ Occ Sch Sunday, !- Sunday Schedule:Day Name\n   *************   6627   Sp-ER_Triage_Mult4_Flr_1 Sys-3 Flr-1 Sch-H HPlcmt-north ZN NECB System 3 PSZ Occ Sch Monday, !- Monday Schedule:Day Name\n   *************   6628   Sp-ER_Triage_Mult4_Flr_1 Sys-3 Flr-1 Sch-H HPlcmt-north ZN NECB System 3 PSZ Occ Sch Tuesday, !- Tuesday Schedule:Day Name\n   *************   6629   Sp-ER_Triage_Mult4_Flr_1 Sys-3 Flr-1 Sch-H HPlcmt-north ZN NECB System 3 PSZ Occ Sch Wednesday, !- Wednesday Schedule:Day Name\n   *************   6630   Sp-ER_Triage_Mult4_Flr_1 Sys-3 Flr-1 Sch-H HPlcmt-north ZN NECB System 3 PSZ Occ Sch Thursday, !- Thursday Schedule:Day Name\n   *************   6631   Sp-ER_Triage_Mult4_Flr_1 Sys-3 Flr-1 Sch-H HPlcmt-north ZN NECB System 3 PSZ Occ Sch Friday, !- Friday Schedule:Day Name\n   *************   6632   Sp-ER_Triage_Mult4_Flr_1 Sys-3 Flr-1 Sch-H HPlcmt-north ZN NECB System 3 PSZ Occ Sch Saturday, !- Saturday Schedule:Day Name\n   *************   6633   Sp-ER_Triage_Mult4_Flr_1 Sys-3 Flr-1 Sch-H HPlcmt-north ZN NECB System 3 PSZ Occ Sch Default, !- Holiday Schedule:Day Name\n   *************   6634   Sp-ER_Triage_Mult4_Flr_1 Sys-3 Flr-1 Sch-H HPlcmt-north ZN NECB System 3 PSZ Occ Sch Summer Design Day, !- SummerDesignDay Schedule:Day Name\n   *************   6635   Sp-ER_Triage_Mult4_Flr_1 Sys-3 Flr-1 Sch-H HPlcmt-north ZN NECB System 3 PSZ Occ Sch Winter Design Day, !- WinterDesignDay Schedule:Day Name\n   ** Warning ** IP: IDF line~6635 Alpha Argument length exceeds maximum, will be truncated=  Sp-ER_Triage_Mult4_Flr_1 Sys-3 Flr-1 Sch-H HPlcmt-north ZN NECB System 3 PSZ Occ Sch Winter Design Da\n   **   ~~~   ** Will be processed as Alpha=SP-ER_TRIAGE_MULT4_FLR_1 SYS-3 FLR-1 SCH-H HPLCMT-NORTH ZN NECB SYSTEM 3 PSZ OCC SCH WINTER DESIGN DAY\n   ************* IDF Context for following error/warning message:\n   ************* Note -- lines truncated at 300 characters, if necessary...\n   *************   6655 Schedule:Day:Interval,\n   ************* indicated Name=Sp-ER_Triage_Mult4_Flr_1 Sys-3 Flr-1 Sch-H HPlcmt-north ZN NECB System 3 PSZ Occ Sch Summer Design Day\n   ************* Only last 1 lines before error line shown.....\n   *************   6656   Sp-ER_Triage_Mult4_Flr_1 Sys-3 Flr-1 Sch-H HPlcmt-north ZN NECB System 3 PSZ Occ Sch Summer Design Day, !- Name\n   ** Warning ** IP: IDF line~6656 Alpha Argument length exceeds maximum, will be truncated=  Sp-ER_Triage_Mult4_Flr_1 Sys-3 Flr-1 Sch-H HPlcmt-north ZN NECB System 3 PSZ Occ Sch Summer Design Da\n   **   ~~~   ** Will be processed as Alpha=SP-ER_TRIAGE_MULT4_FLR_1 SYS-3 FLR-1 SCH-H HPLCMT-NORTH ZN NECB SYSTEM 3 PSZ OCC SCH SUMMER DESIGN DAY\n   ************* IDF Context for following error/warning message:\n   ************* Note -- lines truncated at 300 characters, if necessary...\n   *************   6662 Schedule:Day:Interval,\n   ************* indicated Name=Sp-ER_Triage_Mult4_Flr_1 Sys-3 Flr-1 Sch-H HPlcmt-north ZN NECB System 3 PSZ Occ Sch Winter Design Day\n   ************* Only last 1 lines before error line shown.....\n   *************   6663   Sp-ER_Triage_Mult4_Flr_1 Sys-3 Flr-1 Sch-H HPlcmt-north ZN NECB System 3 PSZ Occ Sch Winter Design Day, !- Name\n   ** Warning ** IP: IDF line~6663 Alpha Argument length exceeds maximum, will be truncated=  Sp-ER_Triage_Mult4_Flr_1 Sys-3 Flr-1 Sch-H HPlcmt-north ZN NECB System 3 PSZ Occ Sch Winter Design Da\n   **   ~~~   ** Will be processed as Alpha=SP-ER_TRIAGE_MULT4_FLR_1 SYS-3 FLR-1 SCH-H HPLCMT-NORTH ZN NECB SYSTEM 3 PSZ OCC SCH WINTER DESIGN DAY\n   ************* IDF Context for following error/warning message:\n   ************* Note -- lines truncated at 300 characters, if necessary...\n   *************   7346 Schedule:Week:Daily,\n   ************* indicated Name=Schedule:Week:Daily {e731148d-52d4-48dc-853c-a73baebef62d}\n   ************* Only last 10 lines before error line shown.....\n   *************   7347   Schedule:Week:Daily {e731148d-52d4-48dc-853c-a73baebef62d}, !- Name\n   *************   7348   Sp-ICU_NurseStn_Lobby_Flr_2 Sys-3 Flr-4 Sch-H HPlcmt-core ZN NECB System 3 PSZ Occ Sch Sunday, !- Sunday Schedule:Day Name\n   *************   7349   Sp-ICU_NurseStn_Lobby_Flr_2 Sys-3 Flr-4 Sch-H HPlcmt-core ZN NECB System 3 PSZ Occ Sch Monday, !- Monday Schedule:Day Name\n   *************   7350   Sp-ICU_NurseStn_Lobby_Flr_2 Sys-3 Flr-4 Sch-H HPlcmt-core ZN NECB System 3 PSZ Occ Sch Tuesday, !- Tuesday Schedule:Day Name\n   *************   7351   Sp-ICU_NurseStn_Lobby_Flr_2 Sys-3 Flr-4 Sch-H HPlcmt-core ZN NECB System 3 PSZ Occ Sch Wednesday, !- Wednesday Schedule:Day Name\n   *************   7352   Sp-ICU_NurseStn_Lobby_Flr_2 Sys-3 Flr-4 Sch-H HPlcmt-core ZN NECB System 3 PSZ Occ Sch Thursday, !- Thursday Schedule:Day Name\n   *************   7353   Sp-ICU_NurseStn_Lobby_Flr_2 Sys-3 Flr-4 Sch-H HPlcmt-core ZN NECB System 3 PSZ Occ Sch Friday, !- Friday Schedule:Day Name\n   *************   7354   Sp-ICU_NurseStn_Lobby_Flr_2 Sys-3 Flr-4 Sch-H HPlcmt-core ZN NECB System 3 PSZ Occ Sch Saturday, !- Saturday Schedule:Day Name\n   *************   7355   Sp-ICU_NurseStn_Lobby_Flr_2 Sys-3 Flr-4 Sch-H HPlcmt-core ZN NECB System 3 PSZ Occ Sch Default, !- Holiday Schedule:Day Name\n   *************   7356   Sp-ICU_NurseStn_Lobby_Flr_2 Sys-3 Flr-4 Sch-H HPlcmt-core ZN NECB System 3 PSZ Occ Sch Summer Design Day, !- SummerDesignDay Schedule:Day Name\n   ** Warning ** IP: IDF line~7356 Alpha Argument length exceeds maximum, will be truncated=  Sp-ICU_NurseStn_Lobby_Flr_2 Sys-3 Flr-4 Sch-H HPlcmt-core ZN NECB System 3 PSZ Occ Sch Summer Design Da\n   **   ~~~   ** Will be processed as Alpha=SP-ICU_NURSESTN_LOBBY_FLR_2 SYS-3 FLR-4 SCH-H HPLCMT-CORE ZN NECB SYSTEM 3 PSZ OCC SCH SUMMER DESIGN DAY\n   ************* IDF Context for following error/warning message:\n   ************* Note -- lines truncated at 300 characters, if necessary...\n   *************   7346 Schedule:Week:Daily,\n   ************* indicated Name=Schedule:Week:Daily {e731148d-52d4-48dc-853c-a73baebef62d}\n   ************* Only last 10 lines before error line shown.....\n   *************   7348   Sp-ICU_NurseStn_Lobby_Flr_2 Sys-3 Flr-4 Sch-H HPlcmt-core ZN NECB System 3 PSZ Occ Sch Sunday, !- Sunday Schedule:Day Name\n   *************   7349   Sp-ICU_NurseStn_Lobby_Flr_2 Sys-3 Flr-4 Sch-H HPlcmt-core ZN NECB System 3 PSZ Occ Sch Monday, !- Monday Schedule:Day Name\n   *************   7350   Sp-ICU_NurseStn_Lobby_Flr_2 Sys-3 Flr-4 Sch-H HPlcmt-core ZN NECB System 3 PSZ Occ Sch Tuesday, !- Tuesday Schedule:Day Name\n   *************   7351   Sp-ICU_NurseStn_Lobby_Flr_2 Sys-3 Flr-4 Sch-H HPlcmt-core ZN NECB System 3 PSZ Occ Sch Wednesday, !- Wednesday Schedule:Day Name\n   *************   7352   Sp-ICU_NurseStn_Lobby_Flr_2 Sys-3 Flr-4 Sch-H HPlcmt-core ZN NECB System 3 PSZ Occ Sch Thursday, !- Thursday Schedule:Day Name\n   *************   7353   Sp-ICU_NurseStn_Lobby_Flr_2 Sys-3 Flr-4 Sch-H HPlcmt-core ZN NECB System 3 PSZ Occ Sch Friday, !- Friday Schedule:Day Name\n   *************   7354   Sp-ICU_NurseStn_Lobby_Flr_2 Sys-3 Flr-4 Sch-H HPlcmt-core ZN NECB System 3 PSZ Occ Sch Saturday, !- Saturday Schedule:Day Name\n   *************   7355   Sp-ICU_NurseStn_Lobby_Flr_2 Sys-3 Flr-4 Sch-H HPlcmt-core ZN NECB System 3 PSZ Occ Sch Default, !- Holiday Schedule:Day Name\n   *************   7356   Sp-ICU_NurseStn_Lobby_Flr_2 Sys-3 Flr-4 Sch-H HPlcmt-core ZN NECB System 3 PSZ Occ Sch Summer Design Day, !- SummerDesignDay Schedule:Day Name\n   *************   7357   Sp-ICU_NurseStn_Lobby_Flr_2 Sys-3 Flr-4 Sch-H HPlcmt-core ZN NECB System 3 PSZ Occ Sch Winter Design Day, !- WinterDesignDay Schedule:Day Name\n   ** Warning ** IP: IDF line~7357 Alpha Argument length exceeds maximum, will be truncated=  Sp-ICU_NurseStn_Lobby_Flr_2 Sys-3 Flr-4 Sch-H HPlcmt-core ZN NECB System 3 PSZ Occ Sch Winter Design Da\n   **   ~~~   ** Will be processed as Alpha=SP-ICU_NURSESTN_LOBBY_FLR_2 SYS-3 FLR-4 SCH-H HPLCMT-CORE ZN NECB SYSTEM 3 PSZ OCC SCH WINTER DESIGN DAY\n   ************* IDF Context for following error/warning message:\n   ************* Note -- lines truncated at 300 characters, if necessary...\n   *************   7377 Schedule:Day:Interval,\n   ************* indicated Name=Sp-ICU_NurseStn_Lobby_Flr_2 Sys-3 Flr-4 Sch-H HPlcmt-core ZN NECB System 3 PSZ Occ Sch Summer Design Day\n   ************* Only last 1 lines before error line shown.....\n   *************   7378   Sp-ICU_NurseStn_Lobby_Flr_2 Sys-3 Flr-4 Sch-H HPlcmt-core ZN NECB System 3 PSZ Occ Sch Summer Design Day, !- Name\n   ** Warning ** IP: IDF line~7378 Alpha Argument length exceeds maximum, will be truncated=  Sp-ICU_NurseStn_Lobby_Flr_2 Sys-3 Flr-4 Sch-H HPlcmt-core ZN NECB System 3 PSZ Occ Sch Summer Design Da\n   **   ~~~   ** Will be processed as Alpha=SP-ICU_NURSESTN_LOBBY_FLR_2 SYS-3 FLR-4 SCH-H HPLCMT-CORE ZN NECB SYSTEM 3 PSZ OCC SCH SUMMER DESIGN DAY\n   ************* IDF Context for following error/warning message:\n   ************* Note -- lines truncated at 300 characters, if necessary...\n   *************   7384 Schedule:Day:Interval,\n   ************* indicated Name=Sp-ICU_NurseStn_Lobby_Flr_2 Sys-3 Flr-4 Sch-H HPlcmt-core ZN NECB System 3 PSZ Occ Sch Winter Design Day\n   ************* Only last 1 lines before error line shown.....\n   *************   7385   Sp-ICU_NurseStn_Lobby_Flr_2 Sys-3 Flr-4 Sch-H HPlcmt-core ZN NECB System 3 PSZ Occ Sch Winter Design Day, !- Name\n   ** Warning ** IP: IDF line~7385 Alpha Argument length exceeds maximum, will be truncated=  Sp-ICU_NurseStn_Lobby_Flr_2 Sys-3 Flr-4 Sch-H HPlcmt-core ZN NECB System 3 PSZ Occ Sch Winter Design Da\n   **   ~~~   ** Will be processed as Alpha=SP-ICU_NURSESTN_LOBBY_FLR_2 SYS-3 FLR-4 SCH-H HPLCMT-CORE ZN NECB SYSTEM 3 PSZ OCC SCH WINTER DESIGN DAY\n   ************* IDF Context for following error/warning message:\n   ************* Note -- lines truncated at 300 characters, if necessary...\n   *************   8183 Schedule:Week:Daily,\n   ************* indicated Name=Schedule:Week:Daily {84330c4d-0157-4a4a-b01c-cdb754c7b66b}\n   ************* Only last 10 lines before error line shown.....\n   *************   8184   Schedule:Week:Daily {84330c4d-0157-4a4a-b01c-cdb754c7b66b}, !- Name\n   *************   8185   Sp-IC_PatRoom3_Mult6_Flr_2 Sys-3 Flr-4 Sch-H HPlcmt-west ZN NECB System 3 PSZ Occ Sch Sunday, !- Sunday Schedule:Day Name\n   *************   8186   Sp-IC_PatRoom3_Mult6_Flr_2 Sys-3 Flr-4 Sch-H HPlcmt-west ZN NECB System 3 PSZ Occ Sch Monday, !- Monday Schedule:Day Name\n   *************   8187   Sp-IC_PatRoom3_Mult6_Flr_2 Sys-3 Flr-4 Sch-H HPlcmt-west ZN NECB System 3 PSZ Occ Sch Tuesday, !- Tuesday Schedule:Day Name\n   *************   8188   Sp-IC_PatRoom3_Mult6_Flr_2 Sys-3 Flr-4 Sch-H HPlcmt-west ZN NECB System 3 PSZ Occ Sch Wednesday, !- Wednesday Schedule:Day Name\n   *************   8189   Sp-IC_PatRoom3_Mult6_Flr_2 Sys-3 Flr-4 Sch-H HPlcmt-west ZN NECB System 3 PSZ Occ Sch Thursday, !- Thursday Schedule:Day Name\n   *************   8190   Sp-IC_PatRoom3_Mult6_Flr_2 Sys-3 Flr-4 Sch-H HPlcmt-west ZN NECB System 3 PSZ Occ Sch Friday, !- Friday Schedule:Day Name\n   *************   8191   Sp-IC_PatRoom3_Mult6_Flr_2 Sys-3 Flr-4 Sch-H HPlcmt-west ZN NECB System 3 PSZ Occ Sch Saturday, !- Saturday Schedule:Day Name\n   *************   8192   Sp-IC_PatRoom3_Mult6_Flr_2 Sys-3 Flr-4 Sch-H HPlcmt-west ZN NECB System 3 PSZ Occ Sch Default, !- Holiday Schedule:Day Name\n   *************   8193   Sp-IC_PatRoom3_Mult6_Flr_2 Sys-3 Flr-4 Sch-H HPlcmt-west ZN NECB System 3 PSZ Occ Sch Summer Design Day, !- SummerDesignDay Schedule:Day Name\n   ** Warning ** IP: IDF line~8193 Alpha Argument length exceeds maximum, will be truncated=  Sp-IC_PatRoom3_Mult6_Flr_2 Sys-3 Flr-4 Sch-H HPlcmt-west ZN NECB System 3 PSZ Occ Sch Summer Design Da\n   **   ~~~   ** Will be processed as Alpha=SP-IC_PATROOM3_MULT6_FLR_2 SYS-3 FLR-4 SCH-H HPLCMT-WEST ZN NECB SYSTEM 3 PSZ OCC SCH SUMMER DESIGN DAY\n   ************* IDF Context for following error/warning message:\n   ************* Note -- lines truncated at 300 characters, if necessary...\n   *************   8183 Schedule:Week:Daily,\n   ************* indicated Name=Schedule:Week:Daily {84330c4d-0157-4a4a-b01c-cdb754c7b66b}\n   ************* Only last 10 lines before error line shown.....\n   *************   8185   Sp-IC_PatRoom3_Mult6_Flr_2 Sys-3 Flr-4 Sch-H HPlcmt-west ZN NECB System 3 PSZ Occ Sch Sunday, !- Sunday Schedule:Day Name\n   *************   8186   Sp-IC_PatRoom3_Mult6_Flr_2 Sys-3 Flr-4 Sch-H HPlcmt-west ZN NECB System 3 PSZ Occ Sch Monday, !- Monday Schedule:Day Name\n   *************   8187   Sp-IC_PatRoom3_Mult6_Flr_2 Sys-3 Flr-4 Sch-H HPlcmt-west ZN NECB System 3 PSZ Occ Sch Tuesday, !- Tuesday Schedule:Day Name\n   *************   8188   Sp-IC_PatRoom3_Mult6_Flr_2 Sys-3 Flr-4 Sch-H HPlcmt-west ZN NECB System 3 PSZ Occ Sch Wednesday, !- Wednesday Schedule:Day Name\n   *************   8189   Sp-IC_PatRoom3_Mult6_Flr_2 Sys-3 Flr-4 Sch-H HPlcmt-west ZN NECB System 3 PSZ Occ Sch Thursday, !- Thursday Schedule:Day Name\n   *************   8190   Sp-IC_PatRoom3_Mult6_Flr_2 Sys-3 Flr-4 Sch-H HPlcmt-west ZN NECB System 3 PSZ Occ Sch Friday, !- Friday Schedule:Day Name\n   *************   8191   Sp-IC_PatRoom3_Mult6_Flr_2 Sys-3 Flr-4 Sch-H HPlcmt-west ZN NECB System 3 PSZ Occ Sch Saturday, !- Saturday Schedule:Day Name\n   *************   8192   Sp-IC_PatRoom3_Mult6_Flr_2 Sys-3 Flr-4 Sch-H HPlcmt-west ZN NECB System 3 PSZ Occ Sch Default, !- Holiday Schedule:Day Name\n   *************   8193   Sp-IC_PatRoom3_Mult6_Flr_2 Sys-3 Flr-4 Sch-H HPlcmt-west ZN NECB System 3 PSZ Occ Sch Summer Design Day, !- SummerDesignDay Schedule:Day Name\n   *************   8194   Sp-IC_PatRoom3_Mult6_Flr_2 Sys-3 Flr-4 Sch-H HPlcmt-west ZN NECB System 3 PSZ Occ Sch Winter Design Day, !- WinterDesignDay Schedule:Day Name\n   ** Warning ** IP: IDF line~8194 Alpha Argument length exceeds maximum, will be truncated=  Sp-IC_PatRoom3_Mult6_Flr_2 Sys-3 Flr-4 Sch-H HPlcmt-west ZN NECB System 3 PSZ Occ Sch Winter Design Da\n   **   ~~~   ** Will be processed as Alpha=SP-IC_PATROOM3_MULT6_FLR_2 SYS-3 FLR-4 SCH-H HPLCMT-WEST ZN NECB SYSTEM 3 PSZ OCC SCH WINTER DESIGN DAY\n   ************* IDF Context for following error/warning message:\n   ************* Note -- lines truncated at 300 characters, if necessary...\n   *************   8214 Schedule:Day:Interval,\n   ************* indicated Name=Sp-IC_PatRoom3_Mult6_Flr_2 Sys-3 Flr-4 Sch-H HPlcmt-west ZN NECB System 3 PSZ Occ Sch Summer Design Day\n   ************* Only last 1 lines before error line shown.....\n   *************   8215   Sp-IC_PatRoom3_Mult6_Flr_2 Sys-3 Flr-4 Sch-H HPlcmt-west ZN NECB System 3 PSZ Occ Sch Summer Design Day, !- Name\n   ** Warning ** IP: IDF line~8215 Alpha Argument length exceeds maximum, will be truncated=  Sp-IC_PatRoom3_Mult6_Flr_2 Sys-3 Flr-4 Sch-H HPlcmt-west ZN NECB System 3 PSZ Occ Sch Summer Design Da\n   **   ~~~   ** Will be processed as Alpha=SP-IC_PATROOM3_MULT6_FLR_2 SYS-3 FLR-4 SCH-H HPLCMT-WEST ZN NECB SYSTEM 3 PSZ OCC SCH SUMMER DESIGN DAY\n   ************* IDF Context for following error/warning message:\n   ************* Note -- lines truncated at 300 characters, if necessary...\n   *************   8221 Schedule:Day:Interval,\n   ************* indicated Name=Sp-IC_PatRoom3_Mult6_Flr_2 Sys-3 Flr-4 Sch-H HPlcmt-west ZN NECB System 3 PSZ Occ Sch Winter Design Day\n   ************* Only last 1 lines before error line shown.....\n   *************   8222   Sp-IC_PatRoom3_Mult6_Flr_2 Sys-3 Flr-4 Sch-H HPlcmt-west ZN NECB System 3 PSZ Occ Sch Winter Design Day, !- Name\n   ** Warning ** IP: IDF line~8222 Alpha Argument length exceeds maximum, will be truncated=  Sp-IC_PatRoom3_Mult6_Flr_2 Sys-3 Flr-4 Sch-H HPlcmt-west ZN NECB System 3 PSZ Occ Sch Winter Design Da\n   **   ~~~   ** Will be processed as Alpha=SP-IC_PATROOM3_MULT6_FLR_2 SYS-3 FLR-4 SCH-H HPLCMT-WEST ZN NECB SYSTEM 3 PSZ OCC SCH WINTER DESIGN DAY\n   ************* IDF Context for following error/warning message:\n   ************* Note -- lines truncated at 300 characters, if necessary...\n   *************  10841 Schedule:Week:Daily,\n   ************* indicated Name=Schedule:Week:Daily {4442b468-e6a3-4d7c-a1b8-0396238c0bda}\n   ************* Only last 10 lines before error line shown.....\n   *************  10842   Schedule:Week:Daily {4442b468-e6a3-4d7c-a1b8-0396238c0bda}, !- Name\n   *************  10843   Sp-NurseStn_Lobby_Flr_5 Sys-3 Flr-6 Sch-H HPlcmt-south ZN NECB System 3 PSZ Occ Sch Sunday, !- Sunday Schedule:Day Name\n   *************  10844   Sp-NurseStn_Lobby_Flr_5 Sys-3 Flr-6 Sch-H HPlcmt-south ZN NECB System 3 PSZ Occ Sch Monday, !- Monday Schedule:Day Name\n   *************  10845   Sp-NurseStn_Lobby_Flr_5 Sys-3 Flr-6 Sch-H HPlcmt-south ZN NECB System 3 PSZ Occ Sch Tuesday, !- Tuesday Schedule:Day Name\n   *************  10846   Sp-NurseStn_Lobby_Flr_5 Sys-3 Flr-6 Sch-H HPlcmt-south ZN NECB System 3 PSZ Occ Sch Wednesday, !- Wednesday Schedule:Day Name\n   *************  10847   Sp-NurseStn_Lobby_Flr_5 Sys-3 Flr-6 Sch-H HPlcmt-south ZN NECB System 3 PSZ Occ Sch Thursday, !- Thursday Schedule:Day Name\n   *************  10848   Sp-NurseStn_Lobby_Flr_5 Sys-3 Flr-6 Sch-H HPlcmt-south ZN NECB System 3 PSZ Occ Sch Friday, !- Friday Schedule:Day Name\n   *************  10849   Sp-NurseStn_Lobby_Flr_5 Sys-3 Flr-6 Sch-H HPlcmt-south ZN NECB System 3 PSZ Occ Sch Saturday, !- Saturday Schedule:Day Name\n   *************  10850   Sp-NurseStn_Lobby_Flr_5 Sys-3 Flr-6 Sch-H HPlcmt-south ZN NECB System 3 PSZ Occ Sch Default, !- Holiday Schedule:Day Name\n   *************  10851   Sp-NurseStn_Lobby_Flr_5 Sys-3 Flr-6 Sch-H HPlcmt-south ZN NECB System 3 PSZ Occ Sch Summer Design Day, !- SummerDesignDay Schedule:Day Name\n   ** Warning ** IP: IDF line~10851 Alpha Argument length exceeds maximum, will be truncated=  Sp-NurseStn_Lobby_Flr_5 Sys-3 Flr-6 Sch-H HPlcmt-south ZN NECB System 3 PSZ Occ Sch Summer Design Da\n   **   ~~~   ** Will be processed as Alpha=SP-NURSESTN_LOBBY_FLR_5 SYS-3 FLR-6 SCH-H HPLCMT-SOUTH ZN NECB SYSTEM 3 PSZ OCC SCH SUMMER DESIGN DAY\n   ************* IDF Context for following error/warning message:\n   ************* Note -- lines truncated at 300 characters, if necessary...\n   *************  10841 Schedule:Week:Daily,\n   ************* indicated Name=Schedule:Week:Daily {4442b468-e6a3-4d7c-a1b8-0396238c0bda}\n   ************* Only last 10 lines before error line shown.....\n   *************  10843   Sp-NurseStn_Lobby_Flr_5 Sys-3 Flr-6 Sch-H HPlcmt-south ZN NECB System 3 PSZ Occ Sch Sunday, !- Sunday Schedule:Day Name\n   *************  10844   Sp-NurseStn_Lobby_Flr_5 Sys-3 Flr-6 Sch-H HPlcmt-south ZN NECB System 3 PSZ Occ Sch Monday, !- Monday Schedule:Day Name\n   *************  10845   Sp-NurseStn_Lobby_Flr_5 Sys-3 Flr-6 Sch-H HPlcmt-south ZN NECB System 3 PSZ Occ Sch Tuesday, !- Tuesday Schedule:Day Name\n   *************  10846   Sp-NurseStn_Lobby_Flr_5 Sys-3 Flr-6 Sch-H HPlcmt-south ZN NECB System 3 PSZ Occ Sch Wednesday, !- Wednesday Schedule:Day Name\n   *************  10847   Sp-NurseStn_Lobby_Flr_5 Sys-3 Flr-6 Sch-H HPlcmt-south ZN NECB System 3 PSZ Occ Sch Thursday, !- Thursday Schedule:Day Name\n   *************  10848   Sp-NurseStn_Lobby_Flr_5 Sys-3 Flr-6 Sch-H HPlcmt-south ZN NECB System 3 PSZ Occ Sch Friday, !- Friday Schedule:Day Name\n   *************  10849   Sp-NurseStn_Lobby_Flr_5 Sys-3 Flr-6 Sch-H HPlcmt-south ZN NECB System 3 PSZ Occ Sch Saturday, !- Saturday Schedule:Day Name\n   *************  10850   Sp-NurseStn_Lobby_Flr_5 Sys-3 Flr-6 Sch-H HPlcmt-south ZN NECB System 3 PSZ Occ Sch Default, !- Holiday Schedule:Day Name\n   *************  10851   Sp-NurseStn_Lobby_Flr_5 Sys-3 Flr-6 Sch-H HPlcmt-south ZN NECB System 3 PSZ Occ Sch Summer Design Day, !- SummerDesignDay Schedule:Day Name\n   *************  10852   Sp-NurseStn_Lobby_Flr_5 Sys-3 Flr-6 Sch-H HPlcmt-south ZN NECB System 3 PSZ Occ Sch Winter Design Day, !- WinterDesignDay Schedule:Day Name\n   ** Warning ** IP: IDF line~10852 Alpha Argument length exceeds maximum, will be truncated=  Sp-NurseStn_Lobby_Flr_5 Sys-3 Flr-6 Sch-H HPlcmt-south ZN NECB System 3 PSZ Occ Sch Winter Design Da\n   **   ~~~   ** Will be processed as Alpha=SP-NURSESTN_LOBBY_FLR_5 SYS-3 FLR-6 SCH-H HPLCMT-SOUTH ZN NECB SYSTEM 3 PSZ OCC SCH WINTER DESIGN DAY\n   ************* IDF Context for following error/warning message:\n   ************* Note -- lines truncated at 300 characters, if necessary...\n   *************  10872 Schedule:Day:Interval,\n   ************* indicated Name=Sp-NurseStn_Lobby_Flr_5 Sys-3 Flr-6 Sch-H HPlcmt-south ZN NECB System 3 PSZ Occ Sch Summer Design Day\n   ************* Only last 1 lines before error line shown.....\n   *************  10873   Sp-NurseStn_Lobby_Flr_5 Sys-3 Flr-6 Sch-H HPlcmt-south ZN NECB System 3 PSZ Occ Sch Summer Design Day, !- Name\n   ** Warning ** IP: IDF line~10873 Alpha Argument length exceeds maximum, will be truncated=  Sp-NurseStn_Lobby_Flr_5 Sys-3 Flr-6 Sch-H HPlcmt-south ZN NECB System 3 PSZ Occ Sch Summer Design Da\n   **   ~~~   ** Will be processed as Alpha=SP-NURSESTN_LOBBY_FLR_5 SYS-3 FLR-6 SCH-H HPLCMT-SOUTH ZN NECB SYSTEM 3 PSZ OCC SCH SUMMER DESIGN DAY\n   ************* IDF Context for following error/warning message:\n   ************* Note -- lines truncated at 300 characters, if necessary...\n   *************  10879 Schedule:Day:Interval,\n   ************* indicated Name=Sp-NurseStn_Lobby_Flr_5 Sys-3 Flr-6 Sch-H HPlcmt-south ZN NECB System 3 PSZ Occ Sch Winter Design Day\n   ************* Only last 1 lines before error line shown.....\n   *************  10880   Sp-NurseStn_Lobby_Flr_5 Sys-3 Flr-6 Sch-H HPlcmt-south ZN NECB System 3 PSZ Occ Sch Winter Design Day, !- Name\n   ** Warning ** IP: IDF line~10880 Alpha Argument length exceeds maximum, will be truncated=  Sp-NurseStn_Lobby_Flr_5 Sys-3 Flr-6 Sch-H HPlcmt-south ZN NECB System 3 PSZ Occ Sch Winter Design Da\n   **   ~~~   ** Will be processed as Alpha=SP-NURSESTN_LOBBY_FLR_5 SYS-3 FLR-6 SCH-H HPLCMT-SOUTH ZN NECB SYSTEM 3 PSZ OCC SCH WINTER DESIGN DAY\n   ************* IDF Context for following error/warning message:\n   ************* Note -- lines truncated at 300 characters, if necessary...\n   *************  13931 Schedule:Week:Daily,\n   ************* indicated Name=Schedule:Week:Daily {c7d0fecb-206f-4354-9504-02ee35813cc7}\n   ************* Only last 10 lines before error line shown.....\n   *************  13932   Schedule:Week:Daily {c7d0fecb-206f-4354-9504-02ee35813cc7}, !- Name\n   *************  13933   Sp-OR_NurseStn_Lobby_Flr_2 Sys-3 Flr-4 Sch-H HPlcmt-south ZN NECB System 3 PSZ Occ Sch Sunday, !- Sunday Schedule:Day Name\n   *************  13934   Sp-OR_NurseStn_Lobby_Flr_2 Sys-3 Flr-4 Sch-H HPlcmt-south ZN NECB System 3 PSZ Occ Sch Monday, !- Monday Schedule:Day Name\n   *************  13935   Sp-OR_NurseStn_Lobby_Flr_2 Sys-3 Flr-4 Sch-H HPlcmt-south ZN NECB System 3 PSZ Occ Sch Tuesday, !- Tuesday Schedule:Day Name\n   *************  13936   Sp-OR_NurseStn_Lobby_Flr_2 Sys-3 Flr-4 Sch-H HPlcmt-south ZN NECB System 3 PSZ Occ Sch Wednesday, !- Wednesday Schedule:Day Name\n   *************  13937   Sp-OR_NurseStn_Lobby_Flr_2 Sys-3 Flr-4 Sch-H HPlcmt-south ZN NECB System 3 PSZ Occ Sch Thursday, !- Thursday Schedule:Day Name\n   *************  13938   Sp-OR_NurseStn_Lobby_Flr_2 Sys-3 Flr-4 Sch-H HPlcmt-south ZN NECB System 3 PSZ Occ Sch Friday, !- Friday Schedule:Day Name\n   *************  13939   Sp-OR_NurseStn_Lobby_Flr_2 Sys-3 Flr-4 Sch-H HPlcmt-south ZN NECB System 3 PSZ Occ Sch Saturday, !- Saturday Schedule:Day Name\n   *************  13940   Sp-OR_NurseStn_Lobby_Flr_2 Sys-3 Flr-4 Sch-H HPlcmt-south ZN NECB System 3 PSZ Occ Sch Default, !- Holiday Schedule:Day Name\n   *************  13941   Sp-OR_NurseStn_Lobby_Flr_2 Sys-3 Flr-4 Sch-H HPlcmt-south ZN NECB System 3 PSZ Occ Sch Summer Design Day, !- SummerDesignDay Schedule:Day Name\n   ** Warning ** IP: IDF line~13941 Alpha Argument length exceeds maximum, will be truncated=  Sp-OR_NurseStn_Lobby_Flr_2 Sys-3 Flr-4 Sch-H HPlcmt-south ZN NECB System 3 PSZ Occ Sch Summer Design Da\n   **   ~~~   ** Will be processed as Alpha=SP-OR_NURSESTN_LOBBY_FLR_2 SYS-3 FLR-4 SCH-H HPLCMT-SOUTH ZN NECB SYSTEM 3 PSZ OCC SCH SUMMER DESIGN DAY\n   ************* IDF Context for following error/warning message:\n   ************* Note -- lines truncated at 300 characters, if necessary...\n   *************  13931 Schedule:Week:Daily,\n   ************* indicated Name=Schedule:Week:Daily {c7d0fecb-206f-4354-9504-02ee35813cc7}\n   ************* Only last 10 lines before error line shown.....\n   *************  13933   Sp-OR_NurseStn_Lobby_Flr_2 Sys-3 Flr-4 Sch-H HPlcmt-south ZN NECB System 3 PSZ Occ Sch Sunday, !- Sunday Schedule:Day Name\n   *************  13934   Sp-OR_NurseStn_Lobby_Flr_2 Sys-3 Flr-4 Sch-H HPlcmt-south ZN NECB System 3 PSZ Occ Sch Monday, !- Monday Schedule:Day Name\n   *************  13935   Sp-OR_NurseStn_Lobby_Flr_2 Sys-3 Flr-4 Sch-H HPlcmt-south ZN NECB System 3 PSZ Occ Sch Tuesday, !- Tuesday Schedule:Day Name\n   *************  13936   Sp-OR_NurseStn_Lobby_Flr_2 Sys-3 Flr-4 Sch-H HPlcmt-south ZN NECB System 3 PSZ Occ Sch Wednesday, !- Wednesday Schedule:Day Name\n   *************  13937   Sp-OR_NurseStn_Lobby_Flr_2 Sys-3 Flr-4 Sch-H HPlcmt-south ZN NECB System 3 PSZ Occ Sch Thursday, !- Thursday Schedule:Day Name\n   *************  13938   Sp-OR_NurseStn_Lobby_Flr_2 Sys-3 Flr-4 Sch-H HPlcmt-south ZN NECB System 3 PSZ Occ Sch Friday, !- Friday Schedule:Day Name\n   *************  13939   Sp-OR_NurseStn_Lobby_Flr_2 Sys-3 Flr-4 Sch-H HPlcmt-south ZN NECB System 3 PSZ Occ Sch Saturday, !- Saturday Schedule:Day Name\n   *************  13940   Sp-OR_NurseStn_Lobby_Flr_2 Sys-3 Flr-4 Sch-H HPlcmt-south ZN NECB System 3 PSZ Occ Sch Default, !- Holiday Schedule:Day Name\n   *************  13941   Sp-OR_NurseStn_Lobby_Flr_2 Sys-3 Flr-4 Sch-H HPlcmt-south ZN NECB System 3 PSZ Occ Sch Summer Design Day, !- SummerDesignDay Schedule:Day Name\n   *************  13942   Sp-OR_NurseStn_Lobby_Flr_2 Sys-3 Flr-4 Sch-H HPlcmt-south ZN NECB System 3 PSZ Occ Sch Winter Design Day, !- WinterDesignDay Schedule:Day Name\n   ** Warning ** IP: IDF line~13942 Alpha Argument length exceeds maximum, will be truncated=  Sp-OR_NurseStn_Lobby_Flr_2 Sys-3 Flr-4 Sch-H HPlcmt-south ZN NECB System 3 PSZ Occ Sch Winter Design Da\n   **   ~~~   ** Will be processed as Alpha=SP-OR_NURSESTN_LOBBY_FLR_2 SYS-3 FLR-4 SCH-H HPLCMT-SOUTH ZN NECB SYSTEM 3 PSZ OCC SCH WINTER DESIGN DAY\n   ************* IDF Context for following error/warning message:\n   ************* Note -- lines truncated at 300 characters, if necessary...\n   *************  13962 Schedule:Day:Interval,\n   ************* indicated Name=Sp-OR_NurseStn_Lobby_Flr_2 Sys-3 Flr-4 Sch-H HPlcmt-south ZN NECB System 3 PSZ Occ Sch Summer Design Day\n   ************* Only last 1 lines before error line shown.....\n   *************  13963   Sp-OR_NurseStn_Lobby_Flr_2 Sys-3 Flr-4 Sch-H HPlcmt-south ZN NECB System 3 PSZ Occ Sch Summer Design Day, !- Name\n   ** Warning ** IP: IDF line~13963 Alpha Argument length exceeds maximum, will be truncated=  Sp-OR_NurseStn_Lobby_Flr_2 Sys-3 Flr-4 Sch-H HPlcmt-south ZN NECB System 3 PSZ Occ Sch Summer Design Da\n   **   ~~~   ** Will be processed as Alpha=SP-OR_NURSESTN_LOBBY_FLR_2 SYS-3 FLR-4 SCH-H HPLCMT-SOUTH ZN NECB SYSTEM 3 PSZ OCC SCH SUMMER DESIGN DAY\n   ************* IDF Context for following error/warning message:\n   ************* Note -- lines truncated at 300 characters, if necessary...\n   *************  13969 Schedule:Day:Interval,\n   ************* indicated Name=Sp-OR_NurseStn_Lobby_Flr_2 Sys-3 Flr-4 Sch-H HPlcmt-south ZN NECB System 3 PSZ Occ Sch Winter Design Day\n   ************* Only last 1 lines before error line shown.....\n   *************  13970   Sp-OR_NurseStn_Lobby_Flr_2 Sys-3 Flr-4 Sch-H HPlcmt-south ZN NECB System 3 PSZ Occ Sch Winter Design Day, !- Name\n   ** Warning ** IP: IDF line~13970 Alpha Argument length exceeds maximum, will be truncated=  Sp-OR_NurseStn_Lobby_Flr_2 Sys-3 Flr-4 Sch-H HPlcmt-south ZN NECB System 3 PSZ Occ Sch Winter Design Da\n   **   ~~~   ** Will be processed as Alpha=SP-OR_NURSESTN_LOBBY_FLR_2 SYS-3 FLR-4 SCH-H HPLCMT-SOUTH ZN NECB SYSTEM 3 PSZ OCC SCH WINTER DESIGN DAY\n   ************* IDF Context for following error/warning message:\n   ************* Note -- lines truncated at 300 characters, if necessary...\n   *************  14270 Schedule:Week:Daily,\n   ************* indicated Name=Schedule:Week:Daily {9382582c-3ef9-42d4-8a3d-718d21e37206}\n   ************* Only last 10 lines before error line shown.....\n   *************  14271   Schedule:Week:Daily {9382582c-3ef9-42d4-8a3d-718d21e37206}, !- Name\n   *************  14272   Sp-PatRoom1_Mult10_Flr_3 Sys-3 Flr-2 Sch-H HPlcmt-south ZN NECB System 3 PSZ Occ Sch Sunday, !- Sunday Schedule:Day Name\n   *************  14273   Sp-PatRoom1_Mult10_Flr_3 Sys-3 Flr-2 Sch-H HPlcmt-south ZN NECB System 3 PSZ Occ Sch Monday, !- Monday Schedule:Day Name\n   *************  14274   Sp-PatRoom1_Mult10_Flr_3 Sys-3 Flr-2 Sch-H HPlcmt-south ZN NECB System 3 PSZ Occ Sch Tuesday, !- Tuesday Schedule:Day Name\n   *************  14275   Sp-PatRoom1_Mult10_Flr_3 Sys-3 Flr-2 Sch-H HPlcmt-south ZN NECB System 3 PSZ Occ Sch Wednesday, !- Wednesday Schedule:Day Name\n   *************  14276   Sp-PatRoom1_Mult10_Flr_3 Sys-3 Flr-2 Sch-H HPlcmt-south ZN NECB System 3 PSZ Occ Sch Thursday, !- Thursday Schedule:Day Name\n   *************  14277   Sp-PatRoom1_Mult10_Flr_3 Sys-3 Flr-2 Sch-H HPlcmt-south ZN NECB System 3 PSZ Occ Sch Friday, !- Friday Schedule:Day Name\n   *************  14278   Sp-PatRoom1_Mult10_Flr_3 Sys-3 Flr-2 Sch-H HPlcmt-south ZN NECB System 3 PSZ Occ Sch Saturday, !- Saturday Schedule:Day Name\n   *************  14279   Sp-PatRoom1_Mult10_Flr_3 Sys-3 Flr-2 Sch-H HPlcmt-south ZN NECB System 3 PSZ Occ Sch Default, !- Holiday Schedule:Day Name\n   *************  14280   Sp-PatRoom1_Mult10_Flr_3 Sys-3 Flr-2 Sch-H HPlcmt-south ZN NECB System 3 PSZ Occ Sch Summer Design Day, !- SummerDesignDay Schedule:Day Name\n   ** Warning ** IP: IDF line~14280 Alpha Argument length exceeds maximum, will be truncated=  Sp-PatRoom1_Mult10_Flr_3 Sys-3 Flr-2 Sch-H HPlcmt-south ZN NECB System 3 PSZ Occ Sch Summer Design Da\n   **   ~~~   ** Will be processed as Alpha=SP-PATROOM1_MULT10_FLR_3 SYS-3 FLR-2 SCH-H HPLCMT-SOUTH ZN NECB SYSTEM 3 PSZ OCC SCH SUMMER DESIGN DAY\n   ************* IDF Context for following error/warning message:\n   ************* Note -- lines truncated at 300 characters, if necessary...\n   *************  14270 Schedule:Week:Daily,\n   ************* indicated Name=Schedule:Week:Daily {9382582c-3ef9-42d4-8a3d-718d21e37206}\n   ************* Only last 10 lines before error line shown.....\n   *************  14272   Sp-PatRoom1_Mult10_Flr_3 Sys-3 Flr-2 Sch-H HPlcmt-south ZN NECB System 3 PSZ Occ Sch Sunday, !- Sunday Schedule:Day Name\n   *************  14273   Sp-PatRoom1_Mult10_Flr_3 Sys-3 Flr-2 Sch-H HPlcmt-south ZN NECB System 3 PSZ Occ Sch Monday, !- Monday Schedule:Day Name\n   *************  14274   Sp-PatRoom1_Mult10_Flr_3 Sys-3 Flr-2 Sch-H HPlcmt-south ZN NECB System 3 PSZ Occ Sch Tuesday, !- Tuesday Schedule:Day Name\n   *************  14275   Sp-PatRoom1_Mult10_Flr_3 Sys-3 Flr-2 Sch-H HPlcmt-south ZN NECB System 3 PSZ Occ Sch Wednesday, !- Wednesday Schedule:Day Name\n   *************  14276   Sp-PatRoom1_Mult10_Flr_3 Sys-3 Flr-2 Sch-H HPlcmt-south ZN NECB System 3 PSZ Occ Sch Thursday, !- Thursday Schedule:Day Name\n   *************  14277   Sp-PatRoom1_Mult10_Flr_3 Sys-3 Flr-2 Sch-H HPlcmt-south ZN NECB System 3 PSZ Occ Sch Friday, !- Friday Schedule:Day Name\n   *************  14278   Sp-PatRoom1_Mult10_Flr_3 Sys-3 Flr-2 Sch-H HPlcmt-south ZN NECB System 3 PSZ Occ Sch Saturday, !- Saturday Schedule:Day Name\n   *************  14279   Sp-PatRoom1_Mult10_Flr_3 Sys-3 Flr-2 Sch-H HPlcmt-south ZN NECB System 3 PSZ Occ Sch Default, !- Holiday Schedule:Day Name\n   *************  14280   Sp-PatRoom1_Mult10_Flr_3 Sys-3 Flr-2 Sch-H HPlcmt-south ZN NECB System 3 PSZ Occ Sch Summer Design Day, !- SummerDesignDay Schedule:Day Name\n   *************  14281   Sp-PatRoom1_Mult10_Flr_3 Sys-3 Flr-2 Sch-H HPlcmt-south ZN NECB System 3 PSZ Occ Sch Winter Design Day, !- WinterDesignDay Schedule:Day Name\n   ** Warning ** IP: IDF line~14281 Alpha Argument length exceeds maximum, will be truncated=  Sp-PatRoom1_Mult10_Flr_3 Sys-3 Flr-2 Sch-H HPlcmt-south ZN NECB System 3 PSZ Occ Sch Winter Design Da\n   **   ~~~   ** Will be processed as Alpha=SP-PATROOM1_MULT10_FLR_3 SYS-3 FLR-2 SCH-H HPLCMT-SOUTH ZN NECB SYSTEM 3 PSZ OCC SCH WINTER DESIGN DAY\n   ************* IDF Context for following error/warning message:\n   ************* Note -- lines truncated at 300 characters, if necessary...\n   *************  14301 Schedule:Day:Interval,\n   ************* indicated Name=Sp-PatRoom1_Mult10_Flr_3 Sys-3 Flr-2 Sch-H HPlcmt-south ZN NECB System 3 PSZ Occ Sch Summer Design Day\n   ************* Only last 1 lines before error line shown.....\n   *************  14302   Sp-PatRoom1_Mult10_Flr_3 Sys-3 Flr-2 Sch-H HPlcmt-south ZN NECB System 3 PSZ Occ Sch Summer Design Day, !- Name\n   ** Warning ** IP: IDF line~14302 Alpha Argument length exceeds maximum, will be truncated=  Sp-PatRoom1_Mult10_Flr_3 Sys-3 Flr-2 Sch-H HPlcmt-south ZN NECB System 3 PSZ Occ Sch Summer Design Da\n   **   ~~~   ** Will be processed as Alpha=SP-PATROOM1_MULT10_FLR_3 SYS-3 FLR-2 SCH-H HPLCMT-SOUTH ZN NECB SYSTEM 3 PSZ OCC SCH SUMMER DESIGN DAY\n   ************* IDF Context for following error/warning message:\n   ************* Note -- lines truncated at 300 characters, if necessary...\n   *************  14308 Schedule:Day:Interval,\n   ************* indicated Name=Sp-PatRoom1_Mult10_Flr_3 Sys-3 Flr-2 Sch-H HPlcmt-south ZN NECB System 3 PSZ Occ Sch Winter Design Day\n   ************* Only last 1 lines before error line shown.....\n   *************  14309   Sp-PatRoom1_Mult10_Flr_3 Sys-3 Flr-2 Sch-H HPlcmt-south ZN NECB System 3 PSZ Occ Sch Winter Design Day, !- Name\n   ** Warning ** IP: IDF line~14309 Alpha Argument length exceeds maximum, will be truncated=  Sp-PatRoom1_Mult10_Flr_3 Sys-3 Flr-2 Sch-H HPlcmt-south ZN NECB System 3 PSZ Occ Sch Winter Design Da\n   **   ~~~   ** Will be processed as Alpha=SP-PATROOM1_MULT10_FLR_3 SYS-3 FLR-2 SCH-H HPLCMT-SOUTH ZN NECB SYSTEM 3 PSZ OCC SCH WINTER DESIGN DAY\n   ************* IDF Context for following error/warning message:\n   ************* Note -- lines truncated at 300 characters, if necessary...\n   *************  14609 Schedule:Week:Daily,\n   ************* indicated Name=Schedule:Week:Daily {44b6d3ff-7a14-45b2-bf64-42da638bf415}\n   ************* Only last 10 lines before error line shown.....\n   *************  14610   Schedule:Week:Daily {44b6d3ff-7a14-45b2-bf64-42da638bf415}, !- Name\n   *************  14611   Sp-PatRoom1_Mult10_Flr_4 Sys-3 Flr-3 Sch-H HPlcmt-south ZN NECB System 3 PSZ Occ Sch Sunday, !- Sunday Schedule:Day Name\n   *************  14612   Sp-PatRoom1_Mult10_Flr_4 Sys-3 Flr-3 Sch-H HPlcmt-south ZN NECB System 3 PSZ Occ Sch Monday, !- Monday Schedule:Day Name\n   *************  14613   Sp-PatRoom1_Mult10_Flr_4 Sys-3 Flr-3 Sch-H HPlcmt-south ZN NECB System 3 PSZ Occ Sch Tuesday, !- Tuesday Schedule:Day Name\n   *************  14614   Sp-PatRoom1_Mult10_Flr_4 Sys-3 Flr-3 Sch-H HPlcmt-south ZN NECB System 3 PSZ Occ Sch Wednesday, !- Wednesday Schedule:Day Name\n   *************  14615   Sp-PatRoom1_Mult10_Flr_4 Sys-3 Flr-3 Sch-H HPlcmt-south ZN NECB System 3 PSZ Occ Sch Thursday, !- Thursday Schedule:Day Name\n   *************  14616   Sp-PatRoom1_Mult10_Flr_4 Sys-3 Flr-3 Sch-H HPlcmt-south ZN NECB System 3 PSZ Occ Sch Friday, !- Friday Schedule:Day Name\n   *************  14617   Sp-PatRoom1_Mult10_Flr_4 Sys-3 Flr-3 Sch-H HPlcmt-south ZN NECB System 3 PSZ Occ Sch Saturday, !- Saturday Schedule:Day Name\n   *************  14618   Sp-PatRoom1_Mult10_Flr_4 Sys-3 Flr-3 Sch-H HPlcmt-south ZN NECB System 3 PSZ Occ Sch Default, !- Holiday Schedule:Day Name\n   *************  14619   Sp-PatRoom1_Mult10_Flr_4 Sys-3 Flr-3 Sch-H HPlcmt-south ZN NECB System 3 PSZ Occ Sch Summer Design Day, !- SummerDesignDay Schedule:Day Name\n   ** Warning ** IP: IDF line~14619 Alpha Argument length exceeds maximum, will be truncated=  Sp-PatRoom1_Mult10_Flr_4 Sys-3 Flr-3 Sch-H HPlcmt-south ZN NECB System 3 PSZ Occ Sch Summer Design Da\n   **   ~~~   ** Will be processed as Alpha=SP-PATROOM1_MULT10_FLR_4 SYS-3 FLR-3 SCH-H HPLCMT-SOUTH ZN NECB SYSTEM 3 PSZ OCC SCH SUMMER DESIGN DAY\n   ************* IDF Context for following error/warning message:\n   ************* Note -- lines truncated at 300 characters, if necessary...\n   *************  14609 Schedule:Week:Daily,\n   ************* indicated Name=Schedule:Week:Daily {44b6d3ff-7a14-45b2-bf64-42da638bf415}\n   ************* Only last 10 lines before error line shown.....\n   *************  14611   Sp-PatRoom1_Mult10_Flr_4 Sys-3 Flr-3 Sch-H HPlcmt-south ZN NECB System 3 PSZ Occ Sch Sunday, !- Sunday Schedule:Day Name\n   *************  14612   Sp-PatRoom1_Mult10_Flr_4 Sys-3 Flr-3 Sch-H HPlcmt-south ZN NECB System 3 PSZ Occ Sch Monday, !- Monday Schedule:Day Name\n   *************  14613   Sp-PatRoom1_Mult10_Flr_4 Sys-3 Flr-3 Sch-H HPlcmt-south ZN NECB System 3 PSZ Occ Sch Tuesday, !- Tuesday Schedule:Day Name\n   *************  14614   Sp-PatRoom1_Mult10_Flr_4 Sys-3 Flr-3 Sch-H HPlcmt-south ZN NECB System 3 PSZ Occ Sch Wednesday, !- Wednesday Schedule:Day Name\n   *************  14615   Sp-PatRoom1_Mult10_Flr_4 Sys-3 Flr-3 Sch-H HPlcmt-south ZN NECB System 3 PSZ Occ Sch Thursday, !- Thursday Schedule:Day Name\n   *************  14616   Sp-PatRoom1_Mult10_Flr_4 Sys-3 Flr-3 Sch-H HPlcmt-south ZN NECB System 3 PSZ Occ Sch Friday, !- Friday Schedule:Day Name\n   *************  14617   Sp-PatRoom1_Mult10_Flr_4 Sys-3 Flr-3 Sch-H HPlcmt-south ZN NECB System 3 PSZ Occ Sch Saturday, !- Saturday Schedule:Day Name\n   *************  14618   Sp-PatRoom1_Mult10_Flr_4 Sys-3 Flr-3 Sch-H HPlcmt-south ZN NECB System 3 PSZ Occ Sch Default, !- Holiday Schedule:Day Name\n   *************  14619   Sp-PatRoom1_Mult10_Flr_4 Sys-3 Flr-3 Sch-H HPlcmt-south ZN NECB System 3 PSZ Occ Sch Summer Design Day, !- SummerDesignDay Schedule:Day Name\n   *************  14620   Sp-PatRoom1_Mult10_Flr_4 Sys-3 Flr-3 Sch-H HPlcmt-south ZN NECB System 3 PSZ Occ Sch Winter Design Day, !- WinterDesignDay Schedule:Day Name\n   ** Warning ** IP: IDF line~14620 Alpha Argument length exceeds maximum, will be truncated=  Sp-PatRoom1_Mult10_Flr_4 Sys-3 Flr-3 Sch-H HPlcmt-south ZN NECB System 3 PSZ Occ Sch Winter Design Da\n   **   ~~~   ** Will be processed as Alpha=SP-PATROOM1_MULT10_FLR_4 SYS-3 FLR-3 SCH-H HPLCMT-SOUTH ZN NECB SYSTEM 3 PSZ OCC SCH WINTER DESIGN DAY\n   ************* IDF Context for following error/warning message:\n   ************* Note -- lines truncated at 300 characters, if necessary...\n   *************  14640 Schedule:Day:Interval,\n   ************* indicated Name=Sp-PatRoom1_Mult10_Flr_4 Sys-3 Flr-3 Sch-H HPlcmt-south ZN NECB System 3 PSZ Occ Sch Summer Design Day\n   ************* Only last 1 lines before error line shown.....\n   *************  14641   Sp-PatRoom1_Mult10_Flr_4 Sys-3 Flr-3 Sch-H HPlcmt-south ZN NECB System 3 PSZ Occ Sch Summer Design Day, !- Name\n   ** Warning ** IP: IDF line~14641 Alpha Argument length exceeds maximum, will be truncated=  Sp-PatRoom1_Mult10_Flr_4 Sys-3 Flr-3 Sch-H HPlcmt-south ZN NECB System 3 PSZ Occ Sch Summer Design Da\n   **   ~~~   ** Will be processed as Alpha=SP-PATROOM1_MULT10_FLR_4 SYS-3 FLR-3 SCH-H HPLCMT-SOUTH ZN NECB SYSTEM 3 PSZ OCC SCH SUMMER DESIGN DAY\n   ************* IDF Context for following error/warning message:\n   ************* Note -- lines truncated at 300 characters, if necessary...\n   *************  14647 Schedule:Day:Interval,\n   ************* indicated Name=Sp-PatRoom1_Mult10_Flr_4 Sys-3 Flr-3 Sch-H HPlcmt-south ZN NECB System 3 PSZ Occ Sch Winter Design Day\n   ************* Only last 1 lines before error line shown.....\n   *************  14648   Sp-PatRoom1_Mult10_Flr_4 Sys-3 Flr-3 Sch-H HPlcmt-south ZN NECB System 3 PSZ Occ Sch Winter Design Day, !- Name\n   ** Warning ** IP: IDF line~14648 Alpha Argument length exceeds maximum, will be truncated=  Sp-PatRoom1_Mult10_Flr_4 Sys-3 Flr-3 Sch-H HPlcmt-south ZN NECB System 3 PSZ Occ Sch Winter Design Da\n   **   ~~~   ** Will be processed as Alpha=SP-PATROOM1_MULT10_FLR_4 SYS-3 FLR-3 SCH-H HPLCMT-SOUTH ZN NECB SYSTEM 3 PSZ OCC SCH WINTER DESIGN DAY\n   ************* IDF Context for following error/warning message:\n   ************* Note -- lines truncated at 300 characters, if necessary...\n   *************  15502 Schedule:Week:Daily,\n   ************* indicated Name=Schedule:Week:Daily {56a1f243-097a-4431-9e59-adbf332b25c1}\n   ************* Only last 10 lines before error line shown.....\n   *************  15503   Schedule:Week:Daily {56a1f243-097a-4431-9e59-adbf332b25c1}, !- Name\n   *************  15504   Sp-PatRoom3_Mult10_Flr_3 Sys-3 Flr-2 Sch-H HPlcmt-east ZN NECB System 3 PSZ Occ Sch Sunday, !- Sunday Schedule:Day Name\n   *************  15505   Sp-PatRoom3_Mult10_Flr_3 Sys-3 Flr-2 Sch-H HPlcmt-east ZN NECB System 3 PSZ Occ Sch Monday, !- Monday Schedule:Day Name\n   *************  15506   Sp-PatRoom3_Mult10_Flr_3 Sys-3 Flr-2 Sch-H HPlcmt-east ZN NECB System 3 PSZ Occ Sch Tuesday, !- Tuesday Schedule:Day Name\n   *************  15507   Sp-PatRoom3_Mult10_Flr_3 Sys-3 Flr-2 Sch-H HPlcmt-east ZN NECB System 3 PSZ Occ Sch Wednesday, !- Wednesday Schedule:Day Name\n   *************  15508   Sp-PatRoom3_Mult10_Flr_3 Sys-3 Flr-2 Sch-H HPlcmt-east ZN NECB System 3 PSZ Occ Sch Thursday, !- Thursday Schedule:Day Name\n   *************  15509   Sp-PatRoom3_Mult10_Flr_3 Sys-3 Flr-2 Sch-H HPlcmt-east ZN NECB System 3 PSZ Occ Sch Friday, !- Friday Schedule:Day Name\n   *************  15510   Sp-PatRoom3_Mult10_Flr_3 Sys-3 Flr-2 Sch-H HPlcmt-east ZN NECB System 3 PSZ Occ Sch Saturday, !- Saturday Schedule:Day Name\n   *************  15511   Sp-PatRoom3_Mult10_Flr_3 Sys-3 Flr-2 Sch-H HPlcmt-east ZN NECB System 3 PSZ Occ Sch Default, !- Holiday Schedule:Day Name\n   *************  15512   Sp-PatRoom3_Mult10_Flr_3 Sys-3 Flr-2 Sch-H HPlcmt-east ZN NECB System 3 PSZ Occ Sch Summer Design Day, !- SummerDesignDay Schedule:Day Name\n   ** Warning ** IP: IDF line~15512 Alpha Argument length exceeds maximum, will be truncated=  Sp-PatRoom3_Mult10_Flr_3 Sys-3 Flr-2 Sch-H HPlcmt-east ZN NECB System 3 PSZ Occ Sch Summer Design Da\n   **   ~~~   ** Will be processed as Alpha=SP-PATROOM3_MULT10_FLR_3 SYS-3 FLR-2 SCH-H HPLCMT-EAST ZN NECB SYSTEM 3 PSZ OCC SCH SUMMER DESIGN DAY\n   ************* IDF Context for following error/warning message:\n   ************* Note -- lines truncated at 300 characters, if necessary...\n   *************  15502 Schedule:Week:Daily,\n   ************* indicated Name=Schedule:Week:Daily {56a1f243-097a-4431-9e59-adbf332b25c1}\n   ************* Only last 10 lines before error line shown.....\n   *************  15504   Sp-PatRoom3_Mult10_Flr_3 Sys-3 Flr-2 Sch-H HPlcmt-east ZN NECB System 3 PSZ Occ Sch Sunday, !- Sunday Schedule:Day Name\n   *************  15505   Sp-PatRoom3_Mult10_Flr_3 Sys-3 Flr-2 Sch-H HPlcmt-east ZN NECB System 3 PSZ Occ Sch Monday, !- Monday Schedule:Day Name\n   *************  15506   Sp-PatRoom3_Mult10_Flr_3 Sys-3 Flr-2 Sch-H HPlcmt-east ZN NECB System 3 PSZ Occ Sch Tuesday, !- Tuesday Schedule:Day Name\n   *************  15507   Sp-PatRoom3_Mult10_Flr_3 Sys-3 Flr-2 Sch-H HPlcmt-east ZN NECB System 3 PSZ Occ Sch Wednesday, !- Wednesday Schedule:Day Name\n   *************  15508   Sp-PatRoom3_Mult10_Flr_3 Sys-3 Flr-2 Sch-H HPlcmt-east ZN NECB System 3 PSZ Occ Sch Thursday, !- Thursday Schedule:Day Name\n   *************  15509   Sp-PatRoom3_Mult10_Flr_3 Sys-3 Flr-2 Sch-H HPlcmt-east ZN NECB System 3 PSZ Occ Sch Friday, !- Friday Schedule:Day Name\n   *************  15510   Sp-PatRoom3_Mult10_Flr_3 Sys-3 Flr-2 Sch-H HPlcmt-east ZN NECB System 3 PSZ Occ Sch Saturday, !- Saturday Schedule:Day Name\n   *************  15511   Sp-PatRoom3_Mult10_Flr_3 Sys-3 Flr-2 Sch-H HPlcmt-east ZN NECB System 3 PSZ Occ Sch Default, !- Holiday Schedule:Day Name\n   *************  15512   Sp-PatRoom3_Mult10_Flr_3 Sys-3 Flr-2 Sch-H HPlcmt-east ZN NECB System 3 PSZ Occ Sch Summer Design Day, !- SummerDesignDay Schedule:Day Name\n   *************  15513   Sp-PatRoom3_Mult10_Flr_3 Sys-3 Flr-2 Sch-H HPlcmt-east ZN NECB System 3 PSZ Occ Sch Winter Design Day, !- WinterDesignDay Schedule:Day Name\n   ** Warning ** IP: IDF line~15513 Alpha Argument length exceeds maximum, will be truncated=  Sp-PatRoom3_Mult10_Flr_3 Sys-3 Flr-2 Sch-H HPlcmt-east ZN NECB System 3 PSZ Occ Sch Winter Design Da\n   **   ~~~   ** Will be processed as Alpha=SP-PATROOM3_MULT10_FLR_3 SYS-3 FLR-2 SCH-H HPLCMT-EAST ZN NECB SYSTEM 3 PSZ OCC SCH WINTER DESIGN DAY\n   ************* IDF Context for following error/warning message:\n   ************* Note -- lines truncated at 300 characters, if necessary...\n   *************  15533 Schedule:Day:Interval,\n   ************* indicated Name=Sp-PatRoom3_Mult10_Flr_3 Sys-3 Flr-2 Sch-H HPlcmt-east ZN NECB System 3 PSZ Occ Sch Summer Design Day\n   ************* Only last 1 lines before error line shown.....\n   *************  15534   Sp-PatRoom3_Mult10_Flr_3 Sys-3 Flr-2 Sch-H HPlcmt-east ZN NECB System 3 PSZ Occ Sch Summer Design Day, !- Name\n   ** Warning ** IP: IDF line~15534 Alpha Argument length exceeds maximum, will be truncated=  Sp-PatRoom3_Mult10_Flr_3 Sys-3 Flr-2 Sch-H HPlcmt-east ZN NECB System 3 PSZ Occ Sch Summer Design Da\n   **   ~~~   ** Will be processed as Alpha=SP-PATROOM3_MULT10_FLR_3 SYS-3 FLR-2 SCH-H HPLCMT-EAST ZN NECB SYSTEM 3 PSZ OCC SCH SUMMER DESIGN DAY\n   ************* IDF Context for following error/warning message:\n   ************* Note -- lines truncated at 300 characters, if necessary...\n   *************  15540 Schedule:Day:Interval,\n   ************* indicated Name=Sp-PatRoom3_Mult10_Flr_3 Sys-3 Flr-2 Sch-H HPlcmt-east ZN NECB System 3 PSZ Occ Sch Winter Design Day\n   ************* Only last 1 lines before error line shown.....\n   *************  15541   Sp-PatRoom3_Mult10_Flr_3 Sys-3 Flr-2 Sch-H HPlcmt-east ZN NECB System 3 PSZ Occ Sch Winter Design Day, !- Name\n   ** Warning ** IP: IDF line~15541 Alpha Argument length exceeds maximum, will be truncated=  Sp-PatRoom3_Mult10_Flr_3 Sys-3 Flr-2 Sch-H HPlcmt-east ZN NECB System 3 PSZ Occ Sch Winter Design Da\n   **   ~~~   ** Will be processed as Alpha=SP-PATROOM3_MULT10_FLR_3 SYS-3 FLR-2 SCH-H HPLCMT-EAST ZN NECB SYSTEM 3 PSZ OCC SCH WINTER DESIGN DAY\n   ************* IDF Context for following error/warning message:\n   ************* Note -- lines truncated at 300 characters, if necessary...\n   *************  15841 Schedule:Week:Daily,\n   ************* indicated Name=Schedule:Week:Daily {9cf9d47f-e93b-46b3-b74e-d85a0314e1a8}\n   ************* Only last 10 lines before error line shown.....\n   *************  15842   Schedule:Week:Daily {9cf9d47f-e93b-46b3-b74e-d85a0314e1a8}, !- Name\n   *************  15843   Sp-PatRoom3_Mult10_Flr_4 Sys-3 Flr-3 Sch-H HPlcmt-east ZN NECB System 3 PSZ Occ Sch Sunday, !- Sunday Schedule:Day Name\n   *************  15844   Sp-PatRoom3_Mult10_Flr_4 Sys-3 Flr-3 Sch-H HPlcmt-east ZN NECB System 3 PSZ Occ Sch Monday, !- Monday Schedule:Day Name\n   *************  15845   Sp-PatRoom3_Mult10_Flr_4 Sys-3 Flr-3 Sch-H HPlcmt-east ZN NECB System 3 PSZ Occ Sch Tuesday, !- Tuesday Schedule:Day Name\n   *************  15846   Sp-PatRoom3_Mult10_Flr_4 Sys-3 Flr-3 Sch-H HPlcmt-east ZN NECB System 3 PSZ Occ Sch Wednesday, !- Wednesday Schedule:Day Name\n   *************  15847   Sp-PatRoom3_Mult10_Flr_4 Sys-3 Flr-3 Sch-H HPlcmt-east ZN NECB System 3 PSZ Occ Sch Thursday, !- Thursday Schedule:Day Name\n   *************  15848   Sp-PatRoom3_Mult10_Flr_4 Sys-3 Flr-3 Sch-H HPlcmt-east ZN NECB System 3 PSZ Occ Sch Friday, !- Friday Schedule:Day Name\n   *************  15849   Sp-PatRoom3_Mult10_Flr_4 Sys-3 Flr-3 Sch-H HPlcmt-east ZN NECB System 3 PSZ Occ Sch Saturday, !- Saturday Schedule:Day Name\n   *************  15850   Sp-PatRoom3_Mult10_Flr_4 Sys-3 Flr-3 Sch-H HPlcmt-east ZN NECB System 3 PSZ Occ Sch Default, !- Holiday Schedule:Day Name\n   *************  15851   Sp-PatRoom3_Mult10_Flr_4 Sys-3 Flr-3 Sch-H HPlcmt-east ZN NECB System 3 PSZ Occ Sch Summer Design Day, !- SummerDesignDay Schedule:Day Name\n   ** Warning ** IP: IDF line~15851 Alpha Argument length exceeds maximum, will be truncated=  Sp-PatRoom3_Mult10_Flr_4 Sys-3 Flr-3 Sch-H HPlcmt-east ZN NECB System 3 PSZ Occ Sch Summer Design Da\n   **   ~~~   ** Will be processed as Alpha=SP-PATROOM3_MULT10_FLR_4 SYS-3 FLR-3 SCH-H HPLCMT-EAST ZN NECB SYSTEM 3 PSZ OCC SCH SUMMER DESIGN DAY\n   ************* IDF Context for following error/warning message:\n   ************* Note -- lines truncated at 300 characters, if necessary...\n   *************  15841 Schedule:Week:Daily,\n   ************* indicated Name=Schedule:Week:Daily {9cf9d47f-e93b-46b3-b74e-d85a0314e1a8}\n   ************* Only last 10 lines before error line shown.....\n   *************  15843   Sp-PatRoom3_Mult10_Flr_4 Sys-3 Flr-3 Sch-H HPlcmt-east ZN NECB System 3 PSZ Occ Sch Sunday, !- Sunday Schedule:Day Name\n   *************  15844   Sp-PatRoom3_Mult10_Flr_4 Sys-3 Flr-3 Sch-H HPlcmt-east ZN NECB System 3 PSZ Occ Sch Monday, !- Monday Schedule:Day Name\n   *************  15845   Sp-PatRoom3_Mult10_Flr_4 Sys-3 Flr-3 Sch-H HPlcmt-east ZN NECB System 3 PSZ Occ Sch Tuesday, !- Tuesday Schedule:Day Name\n   *************  15846   Sp-PatRoom3_Mult10_Flr_4 Sys-3 Flr-3 Sch-H HPlcmt-east ZN NECB System 3 PSZ Occ Sch Wednesday, !- Wednesday Schedule:Day Name\n   *************  15847   Sp-PatRoom3_Mult10_Flr_4 Sys-3 Flr-3 Sch-H HPlcmt-east ZN NECB System 3 PSZ Occ Sch Thursday, !- Thursday Schedule:Day Name\n   *************  15848   Sp-PatRoom3_Mult10_Flr_4 Sys-3 Flr-3 Sch-H HPlcmt-east ZN NECB System 3 PSZ Occ Sch Friday, !- Friday Schedule:Day Name\n   *************  15849   Sp-PatRoom3_Mult10_Flr_4 Sys-3 Flr-3 Sch-H HPlcmt-east ZN NECB System 3 PSZ Occ Sch Saturday, !- Saturday Schedule:Day Name\n   *************  15850   Sp-PatRoom3_Mult10_Flr_4 Sys-3 Flr-3 Sch-H HPlcmt-east ZN NECB System 3 PSZ Occ Sch Default, !- Holiday Schedule:Day Name\n   *************  15851   Sp-PatRoom3_Mult10_Flr_4 Sys-3 Flr-3 Sch-H HPlcmt-east ZN NECB System 3 PSZ Occ Sch Summer Design Day, !- SummerDesignDay Schedule:Day Name\n   *************  15852   Sp-PatRoom3_Mult10_Flr_4 Sys-3 Flr-3 Sch-H HPlcmt-east ZN NECB System 3 PSZ Occ Sch Winter Design Day, !- WinterDesignDay Schedule:Day Name\n   ** Warning ** IP: IDF line~15852 Alpha Argument length exceeds maximum, will be truncated=  Sp-PatRoom3_Mult10_Flr_4 Sys-3 Flr-3 Sch-H HPlcmt-east ZN NECB System 3 PSZ Occ Sch Winter Design Da\n   **   ~~~   ** Will be processed as Alpha=SP-PATROOM3_MULT10_FLR_4 SYS-3 FLR-3 SCH-H HPLCMT-EAST ZN NECB SYSTEM 3 PSZ OCC SCH WINTER DESIGN DAY\n   ************* IDF Context for following error/warning message:\n   ************* Note -- lines truncated at 300 characters, if necessary...\n   *************  15872 Schedule:Day:Interval,\n   ************* indicated Name=Sp-PatRoom3_Mult10_Flr_4 Sys-3 Flr-3 Sch-H HPlcmt-east ZN NECB System 3 PSZ Occ Sch Summer Design Day\n   ************* Only last 1 lines before error line shown.....\n   *************  15873   Sp-PatRoom3_Mult10_Flr_4 Sys-3 Flr-3 Sch-H HPlcmt-east ZN NECB System 3 PSZ Occ Sch Summer Design Day, !- Name\n   ** Warning ** IP: IDF line~15873 Alpha Argument length exceeds maximum, will be truncated=  Sp-PatRoom3_Mult10_Flr_4 Sys-3 Flr-3 Sch-H HPlcmt-east ZN NECB System 3 PSZ Occ Sch Summer Design Da\n   **   ~~~   ** Will be processed as Alpha=SP-PATROOM3_MULT10_FLR_4 SYS-3 FLR-3 SCH-H HPLCMT-EAST ZN NECB SYSTEM 3 PSZ OCC SCH SUMMER DESIGN DAY\n   ************* IDF Context for following error/warning message:\n   ************* Note -- lines truncated at 300 characters, if necessary...\n   *************  15879 Schedule:Day:Interval,\n   ************* indicated Name=Sp-PatRoom3_Mult10_Flr_4 Sys-3 Flr-3 Sch-H HPlcmt-east ZN NECB System 3 PSZ Occ Sch Winter Design Day\n   ************* Only last 1 lines before error line shown.....\n   *************  15880   Sp-PatRoom3_Mult10_Flr_4 Sys-3 Flr-3 Sch-H HPlcmt-east ZN NECB System 3 PSZ Occ Sch Winter Design Day, !- Name\n   ** Warning ** IP: IDF line~15880 Alpha Argument length exceeds maximum, will be truncated=  Sp-PatRoom3_Mult10_Flr_4 Sys-3 Flr-3 Sch-H HPlcmt-east ZN NECB System 3 PSZ Occ Sch Winter Design Da\n   **   ~~~   ** Will be processed as Alpha=SP-PATROOM3_MULT10_FLR_4 SYS-3 FLR-3 SCH-H HPLCMT-EAST ZN NECB SYSTEM 3 PSZ OCC SCH WINTER DESIGN DAY\n   ************* IDF Context for following error/warning message:\n   ************* Note -- lines truncated at 300 characters, if necessary...\n   *************  16734 Schedule:Week:Daily,\n   ************* indicated Name=Schedule:Week:Daily {48c7c3b2-46f2-44fb-a3de-91855d46b1bd}\n   ************* Only last 10 lines before error line shown.....\n   *************  16735   Schedule:Week:Daily {48c7c3b2-46f2-44fb-a3de-91855d46b1bd}, !- Name\n   *************  16736   Sp-PatRoom5_Mult10_Flr_3 Sys-3 Flr-2 Sch-H HPlcmt-north ZN NECB System 3 PSZ Occ Sch Sunday, !- Sunday Schedule:Day Name\n   *************  16737   Sp-PatRoom5_Mult10_Flr_3 Sys-3 Flr-2 Sch-H HPlcmt-north ZN NECB System 3 PSZ Occ Sch Monday, !- Monday Schedule:Day Name\n   *************  16738   Sp-PatRoom5_Mult10_Flr_3 Sys-3 Flr-2 Sch-H HPlcmt-north ZN NECB System 3 PSZ Occ Sch Tuesday, !- Tuesday Schedule:Day Name\n   *************  16739   Sp-PatRoom5_Mult10_Flr_3 Sys-3 Flr-2 Sch-H HPlcmt-north ZN NECB System 3 PSZ Occ Sch Wednesday, !- Wednesday Schedule:Day Name\n   *************  16740   Sp-PatRoom5_Mult10_Flr_3 Sys-3 Flr-2 Sch-H HPlcmt-north ZN NECB System 3 PSZ Occ Sch Thursday, !- Thursday Schedule:Day Name\n   *************  16741   Sp-PatRoom5_Mult10_Flr_3 Sys-3 Flr-2 Sch-H HPlcmt-north ZN NECB System 3 PSZ Occ Sch Friday, !- Friday Schedule:Day Name\n   *************  16742   Sp-PatRoom5_Mult10_Flr_3 Sys-3 Flr-2 Sch-H HPlcmt-north ZN NECB System 3 PSZ Occ Sch Saturday, !- Saturday Schedule:Day Name\n   *************  16743   Sp-PatRoom5_Mult10_Flr_3 Sys-3 Flr-2 Sch-H HPlcmt-north ZN NECB System 3 PSZ Occ Sch Default, !- Holiday Schedule:Day Name\n   *************  16744   Sp-PatRoom5_Mult10_Flr_3 Sys-3 Flr-2 Sch-H HPlcmt-north ZN NECB System 3 PSZ Occ Sch Summer Design Day, !- SummerDesignDay Schedule:Day Name\n   ** Warning ** IP: IDF line~16744 Alpha Argument length exceeds maximum, will be truncated=  Sp-PatRoom5_Mult10_Flr_3 Sys-3 Flr-2 Sch-H HPlcmt-north ZN NECB System 3 PSZ Occ Sch Summer Design Da\n   **   ~~~   ** Will be processed as Alpha=SP-PATROOM5_MULT10_FLR_3 SYS-3 FLR-2 SCH-H HPLCMT-NORTH ZN NECB SYSTEM 3 PSZ OCC SCH SUMMER DESIGN DAY\n   ************* IDF Context for following error/warning message:\n   ************* Note -- lines truncated at 300 characters, if necessary...\n   *************  16734 Schedule:Week:Daily,\n   ************* indicated Name=Schedule:Week:Daily {48c7c3b2-46f2-44fb-a3de-91855d46b1bd}\n   ************* Only last 10 lines before error line shown.....\n   *************  16736   Sp-PatRoom5_Mult10_Flr_3 Sys-3 Flr-2 Sch-H HPlcmt-north ZN NECB System 3 PSZ Occ Sch Sunday, !- Sunday Schedule:Day Name\n   *************  16737   Sp-PatRoom5_Mult10_Flr_3 Sys-3 Flr-2 Sch-H HPlcmt-north ZN NECB System 3 PSZ Occ Sch Monday, !- Monday Schedule:Day Name\n   *************  16738   Sp-PatRoom5_Mult10_Flr_3 Sys-3 Flr-2 Sch-H HPlcmt-north ZN NECB System 3 PSZ Occ Sch Tuesday, !- Tuesday Schedule:Day Name\n   *************  16739   Sp-PatRoom5_Mult10_Flr_3 Sys-3 Flr-2 Sch-H HPlcmt-north ZN NECB System 3 PSZ Occ Sch Wednesday, !- Wednesday Schedule:Day Name\n   *************  16740   Sp-PatRoom5_Mult10_Flr_3 Sys-3 Flr-2 Sch-H HPlcmt-north ZN NECB System 3 PSZ Occ Sch Thursday, !- Thursday Schedule:Day Name\n   *************  16741   Sp-PatRoom5_Mult10_Flr_3 Sys-3 Flr-2 Sch-H HPlcmt-north ZN NECB System 3 PSZ Occ Sch Friday, !- Friday Schedule:Day Name\n   *************  16742   Sp-PatRoom5_Mult10_Flr_3 Sys-3 Flr-2 Sch-H HPlcmt-north ZN NECB System 3 PSZ Occ Sch Saturday, !- Saturday Schedule:Day Name\n   *************  16743   Sp-PatRoom5_Mult10_Flr_3 Sys-3 Flr-2 Sch-H HPlcmt-north ZN NECB System 3 PSZ Occ Sch Default, !- Holiday Schedule:Day Name\n   *************  16744   Sp-PatRoom5_Mult10_Flr_3 Sys-3 Flr-2 Sch-H HPlcmt-north ZN NECB System 3 PSZ Occ Sch Summer Design Day, !- SummerDesignDay Schedule:Day Name\n   *************  16745   Sp-PatRoom5_Mult10_Flr_3 Sys-3 Flr-2 Sch-H HPlcmt-north ZN NECB System 3 PSZ Occ Sch Winter Design Day, !- WinterDesignDay Schedule:Day Name\n   ** Warning ** IP: IDF line~16745 Alpha Argument length exceeds maximum, will be truncated=  Sp-PatRoom5_Mult10_Flr_3 Sys-3 Flr-2 Sch-H HPlcmt-north ZN NECB System 3 PSZ Occ Sch Winter Design Da\n   **   ~~~   ** Will be processed as Alpha=SP-PATROOM5_MULT10_FLR_3 SYS-3 FLR-2 SCH-H HPLCMT-NORTH ZN NECB SYSTEM 3 PSZ OCC SCH WINTER DESIGN DAY\n   ************* IDF Context for following error/warning message:\n   ************* Note -- lines truncated at 300 characters, if necessary...\n   *************  16765 Schedule:Day:Interval,\n   ************* indicated Name=Sp-PatRoom5_Mult10_Flr_3 Sys-3 Flr-2 Sch-H HPlcmt-north ZN NECB System 3 PSZ Occ Sch Summer Design Day\n   ************* Only last 1 lines before error line shown.....\n   *************  16766   Sp-PatRoom5_Mult10_Flr_3 Sys-3 Flr-2 Sch-H HPlcmt-north ZN NECB System 3 PSZ Occ Sch Summer Design Day, !- Name\n   ** Warning ** IP: IDF line~16766 Alpha Argument length exceeds maximum, will be truncated=  Sp-PatRoom5_Mult10_Flr_3 Sys-3 Flr-2 Sch-H HPlcmt-north ZN NECB System 3 PSZ Occ Sch Summer Design Da\n   **   ~~~   ** Will be processed as Alpha=SP-PATROOM5_MULT10_FLR_3 SYS-3 FLR-2 SCH-H HPLCMT-NORTH ZN NECB SYSTEM 3 PSZ OCC SCH SUMMER DESIGN DAY\n   ************* IDF Context for following error/warning message:\n   ************* Note -- lines truncated at 300 characters, if necessary...\n   *************  16772 Schedule:Day:Interval,\n   ************* indicated Name=Sp-PatRoom5_Mult10_Flr_3 Sys-3 Flr-2 Sch-H HPlcmt-north ZN NECB System 3 PSZ Occ Sch Winter Design Day\n   ************* Only last 1 lines before error line shown.....\n   *************  16773   Sp-PatRoom5_Mult10_Flr_3 Sys-3 Flr-2 Sch-H HPlcmt-north ZN NECB System 3 PSZ Occ Sch Winter Design Day, !- Name\n   ** Warning ** IP: IDF line~16773 Alpha Argument length exceeds maximum, will be truncated=  Sp-PatRoom5_Mult10_Flr_3 Sys-3 Flr-2 Sch-H HPlcmt-north ZN NECB System 3 PSZ Occ Sch Winter Design Da\n   **   ~~~   ** Will be processed as Alpha=SP-PATROOM5_MULT10_FLR_3 SYS-3 FLR-2 SCH-H HPLCMT-NORTH ZN NECB SYSTEM 3 PSZ OCC SCH WINTER DESIGN DAY\n   ************* IDF Context for following error/warning message:\n   ************* Note -- lines truncated at 300 characters, if necessary...\n   *************  17073 Schedule:Week:Daily,\n   ************* indicated Name=Schedule:Week:Daily {d9b33d31-f2c3-48c8-bad7-5c09a9a54f48}\n   ************* Only last 10 lines before error line shown.....\n   *************  17074   Schedule:Week:Daily {d9b33d31-f2c3-48c8-bad7-5c09a9a54f48}, !- Name\n   *************  17075   Sp-PatRoom5_Mult10_Flr_4 Sys-3 Flr-3 Sch-H HPlcmt-north ZN NECB System 3 PSZ Occ Sch Sunday, !- Sunday Schedule:Day Name\n   *************  17076   Sp-PatRoom5_Mult10_Flr_4 Sys-3 Flr-3 Sch-H HPlcmt-north ZN NECB System 3 PSZ Occ Sch Monday, !- Monday Schedule:Day Name\n   *************  17077   Sp-PatRoom5_Mult10_Flr_4 Sys-3 Flr-3 Sch-H HPlcmt-north ZN NECB System 3 PSZ Occ Sch Tuesday, !- Tuesday Schedule:Day Name\n   *************  17078   Sp-PatRoom5_Mult10_Flr_4 Sys-3 Flr-3 Sch-H HPlcmt-north ZN NECB System 3 PSZ Occ Sch Wednesday, !- Wednesday Schedule:Day Name\n   *************  17079   Sp-PatRoom5_Mult10_Flr_4 Sys-3 Flr-3 Sch-H HPlcmt-north ZN NECB System 3 PSZ Occ Sch Thursday, !- Thursday Schedule:Day Name\n   *************  17080   Sp-PatRoom5_Mult10_Flr_4 Sys-3 Flr-3 Sch-H HPlcmt-north ZN NECB System 3 PSZ Occ Sch Friday, !- Friday Schedule:Day Name\n   *************  17081   Sp-PatRoom5_Mult10_Flr_4 Sys-3 Flr-3 Sch-H HPlcmt-north ZN NECB System 3 PSZ Occ Sch Saturday, !- Saturday Schedule:Day Name\n   *************  17082   Sp-PatRoom5_Mult10_Flr_4 Sys-3 Flr-3 Sch-H HPlcmt-north ZN NECB System 3 PSZ Occ Sch Default, !- Holiday Schedule:Day Name\n   *************  17083   Sp-PatRoom5_Mult10_Flr_4 Sys-3 Flr-3 Sch-H HPlcmt-north ZN NECB System 3 PSZ Occ Sch Summer Design Day, !- SummerDesignDay Schedule:Day Name\n   ** Warning ** IP: IDF line~17083 Alpha Argument length exceeds maximum, will be truncated=  Sp-PatRoom5_Mult10_Flr_4 Sys-3 Flr-3 Sch-H HPlcmt-north ZN NECB System 3 PSZ Occ Sch Summer Design Da\n   **   ~~~   ** Will be processed as Alpha=SP-PATROOM5_MULT10_FLR_4 SYS-3 FLR-3 SCH-H HPLCMT-NORTH ZN NECB SYSTEM 3 PSZ OCC SCH SUMMER DESIGN DAY\n   ************* IDF Context for following error/warning message:\n   ************* Note -- lines truncated at 300 characters, if necessary...\n   *************  17073 Schedule:Week:Daily,\n   ************* indicated Name=Schedule:Week:Daily {d9b33d31-f2c3-48c8-bad7-5c09a9a54f48}\n   ************* Only last 10 lines before error line shown.....\n   *************  17075   Sp-PatRoom5_Mult10_Flr_4 Sys-3 Flr-3 Sch-H HPlcmt-north ZN NECB System 3 PSZ Occ Sch Sunday, !- Sunday Schedule:Day Name\n   *************  17076   Sp-PatRoom5_Mult10_Flr_4 Sys-3 Flr-3 Sch-H HPlcmt-north ZN NECB System 3 PSZ Occ Sch Monday, !- Monday Schedule:Day Name\n   *************  17077   Sp-PatRoom5_Mult10_Flr_4 Sys-3 Flr-3 Sch-H HPlcmt-north ZN NECB System 3 PSZ Occ Sch Tuesday, !- Tuesday Schedule:Day Name\n   *************  17078   Sp-PatRoom5_Mult10_Flr_4 Sys-3 Flr-3 Sch-H HPlcmt-north ZN NECB System 3 PSZ Occ Sch Wednesday, !- Wednesday Schedule:Day Name\n   *************  17079   Sp-PatRoom5_Mult10_Flr_4 Sys-3 Flr-3 Sch-H HPlcmt-north ZN NECB System 3 PSZ Occ Sch Thursday, !- Thursday Schedule:Day Name\n   *************  17080   Sp-PatRoom5_Mult10_Flr_4 Sys-3 Flr-3 Sch-H HPlcmt-north ZN NECB System 3 PSZ Occ Sch Friday, !- Friday Schedule:Day Name\n   *************  17081   Sp-PatRoom5_Mult10_Flr_4 Sys-3 Flr-3 Sch-H HPlcmt-north ZN NECB System 3 PSZ Occ Sch Saturday, !- Saturday Schedule:Day Name\n   *************  17082   Sp-PatRoom5_Mult10_Flr_4 Sys-3 Flr-3 Sch-H HPlcmt-north ZN NECB System 3 PSZ Occ Sch Default, !- Holiday Schedule:Day Name\n   *************  17083   Sp-PatRoom5_Mult10_Flr_4 Sys-3 Flr-3 Sch-H HPlcmt-north ZN NECB System 3 PSZ Occ Sch Summer Design Day, !- SummerDesignDay Schedule:Day Name\n   *************  17084   Sp-PatRoom5_Mult10_Flr_4 Sys-3 Flr-3 Sch-H HPlcmt-north ZN NECB System 3 PSZ Occ Sch Winter Design Day, !- WinterDesignDay Schedule:Day Name\n   ** Warning ** IP: IDF line~17084 Alpha Argument length exceeds maximum, will be truncated=  Sp-PatRoom5_Mult10_Flr_4 Sys-3 Flr-3 Sch-H HPlcmt-north ZN NECB System 3 PSZ Occ Sch Winter Design Da\n   **   ~~~   ** Will be processed as Alpha=SP-PATROOM5_MULT10_FLR_4 SYS-3 FLR-3 SCH-H HPLCMT-NORTH ZN NECB SYSTEM 3 PSZ OCC SCH WINTER DESIGN DAY\n   ************* IDF Context for following error/warning message:\n   ************* Note -- lines truncated at 300 characters, if necessary...\n   *************  17104 Schedule:Day:Interval,\n   ************* indicated Name=Sp-PatRoom5_Mult10_Flr_4 Sys-3 Flr-3 Sch-H HPlcmt-north ZN NECB System 3 PSZ Occ Sch Summer Design Day\n   ************* Only last 1 lines before error line shown.....\n   *************  17105   Sp-PatRoom5_Mult10_Flr_4 Sys-3 Flr-3 Sch-H HPlcmt-north ZN NECB System 3 PSZ Occ Sch Summer Design Day, !- Name\n   ** Warning ** IP: IDF line~17105 Alpha Argument length exceeds maximum, will be truncated=  Sp-PatRoom5_Mult10_Flr_4 Sys-3 Flr
[...]
stj/lmGexnsrY1Ajvx5lItZmhRrmNxoi43v9/cHg5OTjW9ceAY4wAEOcIADHOAABzjAAQ5w/pk4IptPi1+BRSDVSRH4C0WUygA0oAENaEADGtCABjSgAQ1oQKOnuSv/a9ZfaK6juQQOcIADHOAABzjAAQ5wgAMc4KyD8/jdQE99N/BiTn03sO+Vf2E7Pt7ePjgAKUhBClKQghSkIAUpSEEKUpCCFKSvg7RXkvo5RdotSfv9Xm9/F6QgBSlIQQpSkIIUpCAFKUhBClKQvg7SviI9TUOCtHdQknre3l6/D1KQghSkIAUpSEEKUpCCFKQgBSlIXwfptiL9PJlTpPsl6UFx7LwFKUhBClKQghSkIAUpSEEKUpCCFKSvg3RHkf5HBhTpXkn67t1gsLcHUpCCFKQgBSlIQQpSkIIUpCAFKUhfB+lu+WRiLinS3ZJ0MNjdBSlIQQpSkIIUpCAFKUhBClKQghSkr4V0T5F+SKjKgr2dknR/v9fb2QEpSEEKUpCCFKQgBSlIQQpSkIIUpNZIVyhB6t+1ap3du3mYR/Ji4s+km8v7vLXxPpmnWT3G4u8t34VTGWdhEkcyKz3UuNjaEsdBIHxRehJ3YT4RWTKVIujXtMxux64/m8k4aDlK29msabA6XD/P05Zz77TFbtew0aJo1GveKMsXkazwOn48nCRp0d6J5MiAduljlMR5506G40mufFwnUdDcRzU2F7POJz8/T5Lp3tWHeZR73avTKL3aFheLrNMXxc/FvxfDSee9eP8pGk6VXpaLPz6KjyeDt+qqXE5FX3y6+EOcDYfq0o1N3QC/2cqGaTjL/0Ve82YrCG9fNpNtaGeFLxEGR85Qzf5B0WF+GMv0quftOKLsxiMnCLNZ5C8OwzgqbJ3rKBl+/cmhAQuv1T2IfDEr2que3Lrxb/3qrLalOm79VM1UcSSCcDqLpBvLu4vbccv5/gXIttjudst/akNP+Q383C8cX/7pRP61jJxDJ5AjvxhYMUuTURhJp11Zru6dQ8/ttp1bP5rL5c9DtUIVbYpFZzA4OXEe2o389Jj89Jn8bDP52WHys8vkZ4/Jzz6TnwMmP16XyxHXjPa4prTHNac9rkntcc1qj2tae1zz2uOa2B7XzO5xzewe21rNNbN7XDO7ZzSzRTafTp99srrRjpbKwMAN2UdmbsgeMnND9o+ZGzLuzdyQUW/mhox5MzdkxJu5IePdzA29kRn6YZrH9DZm6IdpJtObmKEfprlMb2GGfphmM72BGfphms/09mXoh2tdZprP9N5l6Kf5fL4L49x827pWp5r7IbvH0A/ZPYZ+yO4x9EOGu6EfMtwN/ZDhbuiHDHdDP2S4G/qh9y9TR1wzmt7BTB1xzWl6DzN1xDWr6V3M1BHXvKb3MVNHXDOb3slMHbGt1Vwzm97MTB01n9mPf8Oo/cYwtc11n/2iV32EmEGi9+0l+t9eYvvbS+x8e4ndby+x9+0l9r+9xMG3l3i2s38rDQvxrXkwy6dBP9ni06AfevFp0E96+TToh8B8GvTzYT4N+tExnwb9VJlv/7MQ5z0b+7iFjbxnYSfvrbeV137KsVlaVX3rkUGCHg02CXow2CTosWCToNMqNgk6rWKToNMqNgk6rWKToNMqNgnNX675NOg//fFp0GkVnwadVvFp0GkVnwadVvFp0GkVnwadVvFp0GkVnwadVvHtfxbiXPMnfj4NCxu5Jq3i01hvK6/9YlaztKr6pBaDBD0abBL0YLBJ0GPBJkGnVWwSdFrFJkGnVWwSdFrFJkGnVWwSmrSKT4Nebvk06LSKT4NOq/g06LSKT4NOq/g06LSKT4NOq/g06LSKT4NOq/j2Pwtxrkmr+DQsbOSatIpPY72tvPbDJM3SqurLJQwS9GiwSdCDwSZBjwWbBJ1WsUnQaRWbBJ1WsUnQaRWbBJ1WsUlo0io+DXq55dOg0yo+DTqt4tOg0yo+DTqt4tOg0yo+DTqt4tOg0yo+DTqt4tv/LMS5Jq3i07CwkWvSKj6N9bby2vrvzdKqqkA8gwQ9GmwS9GCwSdBjwSZBp1VsEnRaxSZBp1VsEnRaxSZBp1VsEpq0ik+DXm75NOi0ik+DTqv4NOi0ik+DTqv4NOi0ik+DTqv4NOi0ik+DTqv49j8Lca5Jq/g0LGzkmrSKT2O9rby2zG6ztKqqw8sgQY8GmwQ9GGwS9FiwSdBpFZsEnVaxSdBpFZsEnVaxSdBpFZuEJq3i06CXWz4NOq3i06DTKj4NOq3i06DTKj4NOq3i06DTKj4NOq3i06DTKr79z0Kca9IqPg0LG7kmreLTWG8rr61m2CytqsodMkjQo8EmQQ8GmwQ9FmwSdFrFJkGnVWwSdFrFJkGnVWwSdFrFJqEttsalQS+3fBq6QlZcGroaV1wauvJXXBq6mm9cGrpycFwaukpxXBq6InJcGrr6clz7n4U411al49KwsJFr0io+jfqt/EuTCq/LQs7iSMTyblVBtiwc28pux+2yAmxtqdhVNehM5m+TeRxkrZ1uW3jeTlv01U+9nWblZu8LjMci10Ew8HM5TtLF8X2YVdWUH++/QcnpwsFZGsj0fK6KGzduqDgWzzk+SD+bp7LCUPWZl/3+jct9wwwzzDDDDDPMMMMMM8wwwwwzzDDDDDPMMMMMM8wwwwwzzDDDDDPMMMMMM8wwwwwzzDDDDDPMMMMMM8wwwwwzzDDDDDPMMMP8jzIv3ORWpmkYyA++erHWc7v/5/uq6tXY7PmrsRcyDWW2fL3Waa9eIJ5FSe5GYSxrX5HNXnpPt/7N2swtPz0/SyI/D5O4gHKyXM4613KUpNJp9ubzr3Is4+D5DVXnWrvdtuirN5e76kVm9Y8TyVGuwGpcr9y6V2OZn8S56p9CYjSPhyVpa1P8WeNiRSgfW1/WvsutjnAkWvkkzNysHJVmQup40sgt+u/EH05a/wM29bbCV6+OF+xLv1ezJAuVw3fF6SZ3szqUmxeo0uTODGmFFcaBVPHQ8dqGrVfHzboNR6GM1HxrLfu0ipNxmsxnMhA//CC+W56/d68mfrZ8/10F2OZT6+JFa9Ehrj8enyoNN5LxOJ+IN6In/i2c4yhyxOHzK7IoHMpWx9u87H7ZrI23v91JkorWTXEr3Z/ETSGznKpLXXXux2LFMR8gdahpvPR3efPF/SoX4ujoqOq89TyWXpfDfmN6q6vjOpX+13UaPxi2Mb1e9dfy7o7UtFaTYTlTykIO7pWfZeE4lsFAlYjILsue/LJeV64GejbPJq11x6IY0sNqPNePpCg6bHKXrrpyXZUsT5OvsplOde26SsnMH4b5opnU8uK176qUWEmt62W1kDxfVtYJD+PFRx2rcH6+8IiO8Ey9mYRbc9aHdrmrNrr+oS6nUMfWlvj022fx+9lv5+Li7PzzLx9/Fr+e/fzLQLw/OT9p5uC0WLXlva9SNJEnIkvSXMTzaTEPhqIsaZIJPxsWyUsYjxt4XPW98vNkZ/bb4rr54pLKfJ7GYuanmTyNEj9v+WrJ3yyG8sm56/Jco86sT9GeyC5voc7xw7et9PKYf5bhXgZ7ayOQI38e5WKWJsUaJjfaYuP7/f3B4ORk4xsXngEOcIADHOAABzjAAQ5wgAOcfyaOyObT4ldgEUh1UgT+QhGlMgANaEADGtCABjSgAQ1oQAMa0Ohp7sr/mvUXmutoLoEDHOAABzjAAQ5wgAMc4AAHOOvgPH430FPfDbyYU98N7HvlX9iOj7e3Dw5AClKQghSkIAUpSEEKUpCCFKQgBenrIO2VpH5OkXZL0n6/19vfBSlIQQpSkIIUpCAFKUhBClKQghSkr4O0r0hP05Ag7R2UpJ63t9fvgxSkIAUpSEEKUpCCFKQgBSlIQQrS10G6rUg/T+YU6X5JelAcO29BClKQghSkIAUpSEEKUpCCFKQgBenrIN1RpP+RAUW6V5K+ezcY7O2BFKQgBSlIQQpSkIIUpCAFKUhBCtLXQbpbPpmYS4p0tyQdDHZ3QQpSkIIUpCAFKUhBClKQghSkIAXpayHdU6QfEqqyYG+nJN3f7/V2dkAKUpCCFKQgBSlIQQpSkIIUpCAFqTXSFUqQ+netWmf3bh7mkbyY+DPp5vI+b228T+ZpVo+x+HvLd+FUxlmYxJHMSg81Lra2xHEQCF+UnsRdmE9ElkylCPo1LbPbsevPZjIOWo7SdjZrGqwO18/ztOXcO22x2zVstCga9Zo3yvJFJCu8jh8PJ0latHciOTKgXfoYJXHeuZPheJIrH9dJFDT3UY3NxazzabLIPk9k6s8WV6dRetUXF4us0xfFz52euBhOOgPx/lM0nOadYZJK8cdH8fFk8FZdlcup6ItPF3+Is+FQXbqxqRvcN1vZMA1n+b/Ia95sBeHty2ayDe2s8CXC4MgZqpk/KDrLD2OZXvW8XUeUXXjkBGE2i/zFYRhHha1zHSXDrz85NGDhtboHkS9mRXvVi1s3/q1fndW2VMetn6pZKo5EEE5nkXRjeXdxO245378A2Rbb3W75T23YKb+Bn/uF48s/nci/lpFz6ARy5M+jXMzSZBRG0mlXlqt759Bzu23n1o/mcvnzUK1ORZtiwRkMTk6ch3YjPz0mP30mP9tMfnaY/Owy+dlj8rPP5OeAyY/X5XLENaM9rintcc1pj2tSe1yz2uOa1h7XvPa4JrbHNbN7XDO7x7ZWc83sHtfM7hnNbJHNp9Nnn6tutKOlMjBwQ/aRmRuyh8zckP1j5oaMezM3ZNSbuSFj3swNGfFmbsh4N3NDb2SGfpjmMb2NGfphmsn0Jmboh2ku01uYoR+m2UxvYIZ+mOYzvX0Z+uFal5nmM713GfppPp/vwjg337au1anmfsjuMfRDdo+hH7J7DP2Q4W7ohwx3Qz9kuBv6IcPd0A8Z7oZ+6P3L1BHXjKZ3MFNHXHOa3sNMHXHNanoXM3XENa/pfczUEdfMpncyU0dsazXXzKY3M1NHzWf2498var8v3Ox5Y/UBYgYJ+rdbNgn69142Cfo3YjYJ+ikQmwT9fIhNgn5yxCZBP1Nik6CfNrFJaB6x8mlYiG/Ng1k+DQsRrnmcy6dhIcY1D4H5NCxEuebRMZ+GhTjXPHDm07Cxj1uIc80TbD6N9eK89jOOzdKq6juPDBL0aLBJ0IPBJkGPBZsEveSySdArLpsEveCySdDrLZsEvdyySWjSKj4NC/GtSav4NCxEuCat4tOwEOOatIpPw0KUa9IqPg0Lca5Jq/g0bOzjFuJck1bxaawX57Vfy2qWVlWf02KQoEeDTYIeDDYJeizYJOgll02CXnHZJOgFl02CXm/ZJOjllk1Ck1bxaViIb01axadhIcI1aRWfhoUY16RVfBoWolyTVvFpWIhzTVrFp2FjH7cQ55q0ik9jvTiv/ShJs7Sq+moJgwQ9GmwS9GCwSdBjwSZBL7lsEvSKyyZBL7hsEvR6yyZBL7dsEpq0ik/DQnxr0io+DQsRrkmr+DQsxLgmreLTsBDlmrSKT8NCnGvSKj4NG/u4hTjXpFV8GuvFeW3t92ZpVVUcnkGCHg02CXow2CTosWCToJdcNgl6xWWToBdcNgl6vWWToJdbNglNWsWnYSG+NWkVn4aFCNekVXwaFmJck1bxaViIck1axadhIc41aRWfho193EKca9IqPo314ry2xG6ztKqqwcsgQY8GmwQ9GGwS9FiwSdBLLpsEveKySdALLpsEvd6ySdDLLZuEJq3i07AQ35q0ik/DQoRr0io+DQsxrkmr+DQsRLkmreLTsBDnmrSKT8PGPm4hzjVpFZ/GenFeW8mwWVpVlTpkkNDVuWGS0FXAYZLQ1cZhktDVg2KS0FWKYpLQ1ZBiktBVl2KS0NWdYpLQFlvj0rAQ39oSbVwaFiJcW9iNS8NCjGvLwXFpWIhybRE5Lg0Lca4tPcelYWMftxDn2lp2XBr1cf6lSYXXZRFncSRiebeqIFsWjm1lt+N2WQG2tlTsqhJ0JvO3yTwOstZOty08b6ct+uqn3k6zcrP3BcZjgesgGPi5HCfp4vg+zKpKyo/336DcdOHgLA1kej5XhY0bN1Qci+ccH6SfzVNZYajazMt+/8alvmGGGWaYYYYZZphhhhlmmGGGGWaYYYYZZphhhhlmmGGGGWaYYYYZZphhhhlmmGGGGWaYYYYZZphhhhlmmGGGGWaYYYYZZphh/keZF25yK9M0DOQHX71Y67nd//N9VfVqbPb81dgLmYYyW75e67RXLxDPoiR3ozCWta/IZi+9p1v/Zm3mlp+enyWRn4dJXEA5WS5nnWs5SlLpNHvz+Vc5lnHw/Iaqc63dblv01ZvLXfUis/rHieQoV2A1rldu3auxzE/iXPVPITGax8OStLUp/qxxsSKUj60va9/lVkc4Eq18EmZuVo5KMyF1PGnkFv134g8nrf8Bm3pb4atXxwv2pd+rWZKFyuG74nSTu1kdys0LVGlyZ4a0wgrjQKp46Hhtw9ar42bdhqNQRmq+tZZ9WsXJOE3mMxmIH34Q3y3P37tXEz9bvv+uAmzzqXXxorXoENcfj0+VhhvJeJxPxBvRE/8WznEUOeLw+RVZFA5lq+NtXna/bNbG29/uJElF66a4le5P4qaQWU7Vpa4692Ox4pgPkDrUNF76u7z54n6VC3F0dFR13noeS6/LYb8xvdXVcZ1K/+s6jR8M25her/preXdHalqrybCcKWUhB/fKz7JwHMtgoEpEZJdlT35ZrytXAz2bZ5PWumNRDOlhNZ7rR1IUHTa5S1ddua5KlqfJV9lMp7p2XaVk5g/DfNFMannx2ndVSqyk1vWyWkieLyvrhIfx4qOOVTg/X3hER3im3kzCrTnrQ7vcVRtd/1CXU6hja0t8+u2z+P3st3NxcXb++ZePP4tfz37+ZSDen5yfNHNwWqza8t5XKZrIE5ElaS7i+bSYB0NRljTJhJ8Ni+QljMcNPK76Xvl5sjP7bXHdfHFJZT5PYzHz00yeRomft3y15G8WQ/nk3HV5rlFn1qdoT2SXt1Dn+OHbVnp5zD/LcC+DvbURyJE/j3IxS5NiDZMbbbHx/f7+YHBysvGNC88ABzjAAQ5wgAMc4AAHOMABzj8TR2TzafErsAikOikCf6GIUhmABjSgAQ1oQAMa0IAGNKABDWj0NHflf836C811NJfAAQ5wgAMc4AAHOMABDnCAA5x1cB6/G+ip7wZezKnvBva98i9sx8fb2wcHIAUpSEEKUpCCFKQgBSlIQQpSkIL0dZD2SlI/p0i7JWm/3+vt74IUpCAFKUhBClKQghSkIAUpSEH63/bOt7lRI1vj7++n6CVVGbkiYYEs+U/Gu+WR7ZncysQpe7KprGvKhUVLwoNBBci2KuXvfmmEvFbGjbrhQOLchxeTiY54nh9Nn+6TIB2B9HWQ9gTpaeRJSO39jNSydnd7PZCCFKQgBSlIQQpSkIIUpCAFKUhB+jpIdwTpp+lcRrqXke6nR/8dSEEKUpCCFKQgBSlIQQpSkIIUpCB9HaR9Qford2Wkuxnp8fFwuLsLUpCCFKQgBSlIQQpSkIIUpCAFKUhfB+kg+z8Tcy4jHWSkw+FgAFKQghSkIAUpSEEKUpCCFKQgBSlIXwvpriD9GMo6C9r9jHRvz7b7fZCCFKQgBSlIQQpSkIIUpCAFKUhB2hjpCsWNnPvWRrEHM/ESn19MnRk3E/6QtN58COdRvBlj8fWZx94tD2IvDHweZwobJLa32ZHrModlSuzeS6YsDm85c3sbzozvJqYzm/HAbRnC29jacMLqMJ0kiVrGg9Fmg67mSYv0JFv9pDhZ+HyJ13GC0TSM0vMNn481aHONcRgknXvuTaaJ0LgOfVddY3lvLmadc8f10pk5WVyd+tHVDrtYxJ0eS/+e/nkxmnY+sA8/+6PbpDMKI87+8xP76WT4Trwr4besx36++A87G43EW99sFd3at9vxKPJmyT+l73m77Xp3L4el58jFUi3muYfGSMz7YTpUjhfw6Mq2dg2WDeCh4XrxzHcWB17gp7HOtR+OvnxvyAFT1eU1sGQxS88XY7h949w5y1cLzxTHnROJOcoOmevdznxuBvz+4m7SMr55AbLNdrrd7I+NSSd0XSdxUuHL3w3fuea+cWC4fOzM/YTNonDs+dxoLyNXD8aBZXbbxp3jz7lx0O+bvf1nR6/fNkZiqUol0tVnODw5MR7bSrJ2PbK9emR36pHt1yM7qEd2tx7ZvXpk9+uRtbo16daUZ1ZNiWbVlGlWTalm1ZRrVk3JZtWUbVZN6WbVlG92Tflm17Wv1ZRvdk35ZlfJNxbPb2/XfhS8TOUQcVdDVXV89VRVR1dPVXVs9VRVVzI9VdV1TE9VdRXTU1Vdw/RUVVcwPVXlgkFTtp7sUi4XNGXryS/lYkFTtp4MUy4VNGXryTHlQkFTtp4sUy4TNGVr2sPqyTLlGkFTtnSW3XtBUrk8uBbvUJdVHVpNWdWh1ZRVHVpNWdUFTFNWdQHTlFVdwDRlVRcwTVnVBUxTVrlO0NWtKc+UKwVd3ZoyTblW0NWtKdeUqwVd3ZqyTble0NWtKd+UKwZd3br2tZryTblo0NXVy7fPKg8u8ieT7JAF/H71YCR7HtKK7ybt7MHGxicgq8ebMU/ehfPAjVv9bptZVr/NeuJvdl/tKcpDivH01NZ1h07CJ2G0OHrw4uXjwaexUHiGmgqcRS6PzufiaZ3yiYJjsc7xkTvxPOJLDPHAMb8HVZ8KZw+k1q0ueOTxOMdNnfIbMvPDxBRPyTZaxi9d92bS2Mwm3iz0ncQLgxTKiBM+61zzcRhxQ20m/cgnPHDXL2j5WmuQzoKemAnioZol/sgfum58Hr2SNa8mPDkJEjE+qcV4Howy0tYW+13hqasg5E9nX27MDXF4Y9ZKpl6czmtxnpqROJ6dZKbjd+KMpq3/AuuqrfDzZ4y57tUsjD0heJy+rHI1q0PIvEAVhfd6SCssL3C5SNyO1dY8e3XclD1x7HFfzLdWPqbLPJlE4XzGXfbtt+wf+esP5tXUifP1RCTY1vPo4sVoOiCmM5mcCg/T58EkmbK3zGb/YsaR7xvsYP0dse+NeKtjbV12P29tzLevriSMWOsmvZTu9+wmtcmnau4rXvvukFn6N0gcYhrnepc3n80vPF3eDg+Xg1dOMVPNb/uN7qWujuuIO1/KnPyoeY7u+8V45Vd3KKa1mAz5TMk2RvNq+Yki7mafKYovs5H8XG4oVzd6No+nrbL3Ir2lB8v7WT6TfP9A5SpN8c6yLnEShV+4ms/yvWWdwpkz8pKFmlX+5tJXlVmsrMqqrBaS9WWlTHpoLz7iWKXz+sLDOszSVdNJN3XWx3a2qyq9/3FTTSGO7W328y+f2G9nv5yzi7PzTz/89J79ePb+hyH7cHJ+oiZwmq7a/MERJRpLQhaHaSEdzG/TeTBiWYkYMycepcWLF0wUFFdjL3Se7cxOm12rLy4RT+ZRwGZOFPNTP3SSliOW/K30Vj577Tp7TWkwN5doz2zzS9gk/PgnfPLzD09s8493igewf8oHUYEDHOAABzjAAQ5wgAMc4ADn1eN8/ckXQRRxFzSgAQ1oQAMa0IAGNKABDWhAU0zz1WcCBY34iB9wgAMc4AAHOMABDnCAAxzgAOdP7Lf4id/OeOQk84iz1ukWOi7+tTouzmczf8GOvIiJG/VKeibuvYaeiXvomajd2gA9E/Vl0TMRPRP1WxugZ2I5XfRMRM9E9ExEz0T0TETPxJdk0TMRPRPRM1G7TEDPRH1Z9ExEz0T0TNQtE9AzsZwueiaiZyJ6JqJn4gsPLtAz8QUO9ExEz0SGnolqWOiZiJ6JZQ70TBQHeiaiZ2J2oGdi8TvRM3GzgDjQM/F1tBYBDnCAAxzgAAc4wAEOcIADnFeP8xfrOAIa0IAGNKABDWhAAxrQgAY0r4fm/02nE+AABzjAAQ5wgAMc4AAHOMAp74eeiS8f6Jm47JnIrFfSNXH/NXRN3G+sa2L297LtmYh0ekQ6O0Q6fSKdAZHOLpHOHpHOPpHOWleBSkJUM9qimtIW1Zy2qCa1RTWrLappbVHNa4tqYltUM9ummtk22VpNNbNtqplta81s9W5+a1Ll2/dVkJGOUPkGfRVkpHlfvgVfBRlpzpdvsldBRprvFdroVdEhmsfybaxCZ7wqOkRTWb6HVWh2V0WHaDbLN7AK/euqrINE81m+e1VoSVdFh2g+y7eu8l3m1mQqtJWroiMdngqN46roSNO9Qmu4KjrSdK/Q/K2KjjTdq7R3qyRENaPlO1iVjm2VhKgmtXwTq9KErZIQ1byW72NV+qpVWhmpZrZ8K6vSKq2SENXMlu9mXwn9HHlh5CULZrEOa13Mgy3Rh2rQ+V8n6HStTvb3Yz7q9CzZNtdd+w+9o6Odnf19Agu7fote/RY79Vv067cY1G+xW7/FXv0W+/VbrO3sdXk0kN9WAwluNZDhVgMpbjWQ41YDSW41kOVWA2luNZDndgN5bjexjzeQ53YDeW6Xy3M783ASmUdXrazq9Wx7b0BgIb8bZBbym0FmIb8XZBbyJZfMQr7iklnIF1wyC/l6S2YhX27JLArKKjqPBvK7oKyi82ggwwvKKjqPBnK8oKyi82ggywvKKjqPBvK8oKyi82hiH28gzwvKKjqPcnneEx6nkSfxsPfVyirL2t3t9Qgs5HeDzEJ+M8gs5PeCzEK+5JJZyFdcMgv5gktmIV9vySzkn40isyj4QCCdh/wTVXQe8g9b0XnIP4dF5yH/iBadh/xziXQe8o8s0nnIP81I5yH/oCOdRwN5XlBW0Xk0sY83sJEXlFV0HuW28h3h8Wk6l3nsqZVV4jeX+u8ILOR3g8xCfjPILOT3gsxCXlaRWcjLKjILeVlFZiEvq8gs5MstmUVBWUXnIS+r6DzkZRWdh7ysovOQl1V0HvKyis5DXlbRecjLKjoPeVlF59FAnheUVXQeTezjDWzkBWUVnUe5rbwvPH7lrsxjV62sOj4eDnd3CSzkd4PMQn4zyCzk94LMQl5WkVnIyyoyC3lZRWYhL6vILOTLLZlFQVlF5yEvq+g85GUVnYe8rKLzkJdVdB7ysorOQ15W0XnIyyo6D3lZRefRQJ4XlFV0Hk3s4w1s5AVlFZ1Hua18kJVucy7zGKiVVcPhYEBiIb8bZBbym0FmIb8XZBbysorMQl5WkVnIyyoyC3lZRWYhX27JLArKKjoPeVlF5yEvq+g85GUVnYe8rKLzkJdVdB7ysorOQ15W0XnIyyo6jwbyvKCsovNoYh9vYCMvKKvoPMpt5bvC42Mo+1i83Vcrq/b2bLvfJ7CQ3w0yC/nNILOQ3wsyC3lZRWYhL6vILORlFZmFvKwisyjqO0VkUdhsjcqjqFsVlUdRIysqj6IeV1QeRe2vqDyKer5ReRS1g6PyKOoUR+VR1ESOyqOBPC8oq+g8mtjHG9jIC8oqOo/NW/lnlQ6veSNmdsgCfr/qIJs1jm3Fd5N21gF2Y6vYVTfnmCfvwnngxq1+t80sq99mPfE3u6/WbvYhxXjqRO26QyfhkzBaHD148bIX8tP1K7SMTgXOIpdH53PRmlj5RMGxWOf4yJ14HvElhuiunI97zT25EUYYYYQRRhhhhBFGGGGEEUYYYYQRRhhhhBFGGGGEEUYYYYQRRhhhhBFGGGGEEUYYYYQRRhhhhBFGGGGEEUYYYYQRRhhhhBH+W4UXZnjHo8hz+UdHfLHWMrsVv68qvhobr3819oJHHo/zr9ca7dUXiGd+mJi+F/CNX5GNX/qe7uZv1sZm9tPzs9B3Ei8MUigjTvisc83HYcQNtW8+/8gnPHDXL2j5WmvQbbOe+OZyV3yRWfxh+HycCLAN0itZ82rCk5MgEeOTWoznwSgjbW2x3zdIrAj509mXG7/LLQ5vzFrJ1IvNOLsrakbieHaSmY7fiTOatv4LrKu2whdfHU/Zc92rWRh7QvA4fVnlalaHkHmBKgrv9ZBWWF7gcpEPHautefbquCl74tjjvphvrXxMl3kyicL5jLvs22/ZP/LXH8yrqRPn338XCbb1PLp4MZoOiOlMJqfCw/R5MEmm7C2z2b+YceT7BjtYf0fseyPe6lhbl93PWxvz7asrCSPWukkvpfs9u0lt8qma+4rXvktXHP0bJA4xjXO9y5vP5he+YIeHh8vBK6eYqea3/Ub3UlfHdcSdL2VOftQ8R/f9YrzyqzsU01pMhnymZI0czCsnjr1JwN2haBERX2Yj+bncUK5u9GweT1tl70V6Sw+W97N8Jvn+gcpVmuKdZV3iJAq/cDWf5XvLOoUzZ+QlCzWr/M2lryqzWFmVVVktJOvLSpn00F58xLFK5/WFh3WYpaumk27qrI/tbFdVev/jpppCHNvb7OdfPrHfzn45Zxdn559++Ok9+/Hs/Q9D9uHk/ERN4DRdtfmDI0o0loQsDqOEBfPbdB6MWNbSJGZOPEqLFy+YKCiuxl7oPNuZnTa7Vl9cIp7Mo4DNnCjmp37oJC1HLPlb6a189tp19prSYG4u0Z7Z5pewSfix3k4vT/Vnlu5ZsrfeuHzszP2EzaIwXcP4mzZ7883e3nB4cvKm5sYzwAEOcIADHOAABzjAAQ5wgPP3xGHx/Db9T2DmcvEic52FIIq4CxrQgAY0oAENaEADGtCABjSgKaa5zz6a9Qeaa3/OgQMc4AAHOMABDnCAAxzgAAc4ZXCefjfQEr8beDGX/W5gz8qesB0d7ezs74MUpCAFKUhBClKQghSkIAUpSEEK0tdBamekTiIj7WakvZ5t7w1AClKQghSkIAUpSEEKUpCCFKQgBenrIO0J0tPIk5Da+xmpZe3u9nogBSlIQQpSkIIUpCAFKUhBClKQgvR1kO4I0k/TuYx0LyPdT4/+O5CCFKQgBSlIQQpSkIIUpCAFKUhB+jpI+4L0V+7KSHcz0uPj4XB3F6QgBSlIQQpSkIIUpCAFKUhBClKQvg7SQfZ/JuZcRjrISIfDwQCkIAUpSEEKUpCCFKQgBSlIQQpSkL4W0l1B+jGUdRa0+xnp3p5t9/sgBSlIQQpSkIIUpCAFKUhBClKQgrQx0hWKGzn3rY1iD2biJT6/mDozbib8IWm9+RDOo3gzxuLrM4+9Wx7EXhj4PM4UNkhsb7Mj12UOy5TYvZdMWRzecub2NpwZ301MZzbjgdsyhLexteGE1WE6SRK1jAejzQZdzZMW6Um2+klxsvD5Eq/jBKNpGKXnGz4fa9DmGuMwSDr33JtME6FxHfquusby3vz76N/LAT7nU+4kzGJnoxG7GE3fbBXdprfb8SjyZsk/pe95u+16dy+HpefIxVIt5rmHxkjM4WF62Y4X8OjKtrsGywbj0HC9eOY7iwMv8NNY59oPR1++N+SAqeryGliymKXni/HYvnHunOWrhWeK486JxHxjh8z1bmc+NwN+f3E3aRnfvADZZjvdbvbHxgQSuq6TOKnw5e+G71xz3zgwXD525n7CZlE49nxutJeRqwfjwDK7bePO8ec8//tIrDPpOenSMRyenBiPbSUdm0inR6SzQ6TTJ9IZEOnsEunsEensE+lYXSohqhltUU1pi2pOW1ST2qKa1RbVtLao5rVFNbEtqpltU81sm2ytpprZNtXMtrVmNovnt7drPzyttKNF3NWQkY6Rnox0hPRkpOOjJyPNez0ZadbryUhzXk9GmvF6MtJ815ORb2SaOkTzWL6NaeoQzWT5JqapQzSX5VuYpg7RbJZvYJo6RPNZvn1p6lCty0TzWb53aeqoz+d7L0j0t61r8ZK6jnR4NHWkw6OpIx0eTR1pumvqSNNdU0ea7po60nTX1JGmu6aOfP/SFaKa0fIdTFeIak7L9zBdIapZLd/FdIWo5rV8H9MVoprZ8p1MV4hsraaa2fLNTFdIfWY/PYnY+EvBsm2uu/YfesufEiawsOu36NVvsVO/Rb9+i0H9Frv1W+zVb7Ffv8Xazl6XRwP5bTWQ4FYDGW41kOJWAzluNZDkVgNZbjWQ5lYDeW43kOd2E/t4A3luN5Dndrk83/iDjGpl1fIXGwks5HeDzEJ+M8gs5PeCzEK+5JJZyFdcMgv5gktmIV9vySzkyy2ZRUFZRefRQH4XlFV0Hg1keEFZRefRQI4XlFV0Hg1keUFZRefRQJ4XlFV0Hk3s4w3keUFZRedRLs83/u6VWlm1/GEsAgv53SCzkN8MMgv5vSCzkC+5ZBbyFZfMQr7gklnI11syC/lno8gsCj4QSOch/0QVnYf8w1Z0HvLPYdF5yD+iRech/1winYf8I4t0HvJPM9J5yD/oSOfRQJ4XfDySzqOBPC/4UCWdRwM7eUFZVeSx8edF1Mqq5e+PEFjIyyoyC/nNILOQ3wsyC3lZRWYhL6vILORlFZmFvKwis5Avt2QWBWUVnYd8uaXzkC+3dB7ysorOQ15W0XnIyyo6D3lZRechL6voPORlFZ1HA3leUFbReTSQ5wVlFZ1HAzt5QVlV5LGxi7taWbVs805gIS+ryCzkN4PMQn4vyCzkZRWZhbysIrOQl1VkFvKyisxCvtySWRSUVXQe8uWWzkO+3NJ5yMsqOg95WUXnIS+r6DzkZRWdh7ysovOQl1V0Hg3keUFZRefRQJ4XlFV0Hg3s5AVlVZHHxma5amXVspsugYW8rCKzkN8MMgv5vSCzkJdVZBbysorMQl5WkVnIyyoyC/lyS2ZRUFbReciXWzoP+XJL5yEvq+g85GUVnYe8rKLzkJdVdB7ysorOQ15W0Xk0kOcFZRWdRwN5XlBW0Xk0sJMXlFVFHht7EqqVVcumhQQW8rKKzEJ+M8gs5PeCzEJeVpFZyMsqMgt5WUVmIS+ryCyK+k4RWRQ2W6PykC+3dB5FjayoPIp6XFF5FLW/ovIo6vlG5VHUDo7Ko6hTHJVHURM5Ko8G8ryw9RyVRwN5XtiwjsqjgZ28oKxaeXxW6fCat2Nmhyzg96sOslnj2FZ8N2lnHWA3topd9XSOefIunAdu3Op328yy+m3WE3+z+2rtZh9SjKdW1a47dBI+CaPF0YMXL3siP12/QuPoVOAscnl0PhctipVPFByLdY6P3InnEV9iiC7L+bjX3LQbYYQRRhhhhBFGGGGEEUYYYYQRRhhhhBFGGGGEEUYYYYQRRhhhhBFGGGGEEUYYYYQRRhhhhBFGGGGEEUYYYYQRRhhhhBFGGOG/VXhhhnc8ijyXf3TEF2sts1vx+6riq7Hx+ldjL3jk8Tj/eq3RXn2BeOaHiel7Ad/4Fdn4pe/pbv5mbWxmPz0/C30n8cIghTLihM8613wcRtxQ++bzj3zCA3f9gpavtQbdNuuJby53xReZxR+Gz8eJANsgvZI1ryY8OQkSMT6pxXgejDLS1hb7fYPEipA/nX258bvc4vDGrJVMvdiMs7uiZiSOZyeZ6fidOKNp67/AumorfPHV8ZQ9172ahbEnBI/Tl1WuZnUImReoovBeD2mF5QUuF/nQsdqaZ6+Om7Injj3ui/nWysd0mSeTKJzPuMu+/Zb9I3/9wbyaOnH+/XeRYFvPo4sXo+mAmM5kcio8TJ8Hk2TK3jKb/YsZR75vsIP1d8S+N+KtjrV12f28tTHfvrqSMGKtm/RSut+zm9Qmn6q5r3jtu3TF0b9B4hDTONe7vPlsfuELdnh4uBy8coqZan7bb3QvdXVcR9z5UubkR81zdN8vxiu/ukMxrcVkyGdK1sjBvHLi2JsE3B2KFhHxZTaSn8sN5epGz+bxtFX2XqS39GB5P8tnku8fqFylKd5Z1iVOovALV/NZvresUzhzRl6yULPK31z6qjKLlVVZldVCsr6slEkP7cVHHKt0Xl94WIdZumo66abO+tjOdlWl9z9uqinEsb3Nfv7lE/vt7JdzdnF2/umHn96zH8/e/zBkH07OT9QETtNVmz84okRjScjiMEpYML9N58GIZS1NYubEo7R48YKJguJq7IXOs53ZabNr9cUl4sk8CtjMiWJ+6odO0nLEkr+V3spnr11nrykN5uYS7ZltfgmbhB/r7fTyVH9m6Z4le+uNy8fO3E/YLArTNYy/abM33+ztDYcnJ29qbjwDHOAABzjAAQ5wgAMc4AAHOH9PHBbPb9P/BGYuFy8y11kIooi7oAENaEADGtCABjSgAQ1oQAOaYpr77KNZf6C59uccOMABDnCAAxzgAAc4wAEOcIBTBufpdwMt8buBF3PZ7wb2rOwJ29HRzs7+PkhBClKQghSkIAUpSEEKUpCCFKQgfR2kdkbqJDLSbkba69n23gCkIAUpSEEKUpCCFKQgBSlIQQpSkL4O0p4gPY08Cam9n5Fa1u5urwdSkIIUpCAFKUhBClKQghSkIAUpSF8H6Y4g/TSdy0j3MtL99Oi/AylIQQpSkIIUpCAFKUhBClKQghSkr4O0L0h/5a6MdDcjPT4eDnd3QQpSkIIUpCAFKUhBClKQghSkIAXp6yAdZP9nYs5lpIOMdDgcDEAKUpCCFKQgBSlIQQpSkIIUpCAF6Wsh3RWkH0NZZ0G7n5Hu7dl2vw9SkIIUpCAFKUhBClKQghSkIAUpSBsjXaG4kXPf2ij2YCZe4vOLqTPjZsIfktabD+E8ijdjLL4+89i75UHshYHP40xhg8T2NjtyXeawTInde8mUxeEtZ25vw5nx3cR0ZjMeuC1DeBtbG05YHaaTJFHLeDDabNDVPGmRnmSrnxQnC58v8TpOMJqGUXq+4fOxBm2uMQ6DpHPPvck0ERrXoe+qayzvzb+P/r0c4HM+5U7CzkYjdjGavtkquklvt+NR5M2Sf0rf83bb9e5eDkvPkYulWsxzD42RmMHD9KIdL+DRlW1bBsuG4tBwvXjmO4sDL/DTWOfaD0dfvjfkgKnq8hpYspil54vR2L5x7pzlq4VniuPOicRsY4fM9W5nPjcDfn9xN2kZ37wA2WY73W72x8b0Ebqukzip8OXvhu9cc984MFw+duZ+wmZROPZ8brSXkasH48Ayu23jzvHn3DgY7Jv7z469/bYxEmtOqpAuI8PhyYnx2FZStWtR7dWiulOLar8W1UEtqru1qO7Vorpfi6rVrUe2nuyy6kkvq578supJMKueDLPqSTGrnhyz6kkyq54ss+vJMrumPayeLLPryTK7QpaxeH57u/Yz3iUqhIi7GqKKY6snqjiyeqKK46onqrh26Ykqrlx6oorrlp6o4qqlJ6q4ZumJqhYGmqq15JRqWaCpWktWqRYFmqq15JVqSaCpWktmqRYEmqq15JZqOaCpWs9+VUtuqdYCmqplc+veC5KqZcC1eIO6quKwaqoqDqumquKwaqoqLlmaqopLlqaq4pKlqaq4ZGmqKi5Zmqqq9YCubD3ZpVoR6MrWk1+qNYGubD0ZploV6MrWk2OqdYGubD1ZploZ6MrWtIfVk2WqxYGurFaWfVZ54JA/G2SHLOD3qwca2XOMVnw3aWcPJDY+uVg9YIx58i6cB27c6nfbzLL6bdYTf7P7ak8/HlKMp+emrjt0Ej4Jo8XRgxcvH9A9DYXCU8xU4CxyeXQ+F8/LlE8UHIt1jo/ciecRX2KIR375Laj6XDZ7kLRudcEjj8c5buqU35CZHyameLq10TJ+6bo3k8ZmNu9moe8kXhikUEac8Fnnmo/DiBtqM+lHPuGBu35By9dag3QW9MRMEA/DLPFH/thz4xPhlax5NeHJSZCI8UktxvNglJG2ttjvCs89BSF/OvtyY26IwxuzVjL14nRei/PUjMTx7CQzHb8TZzRt/RdYV22Fnz8bzHWvZmHsCcHj9GWVq1kdQuYFqii810NaYXmBy0Xidqy25tmr46bsiWOP+2K+tfIxXebJJArnM+6yb79l/8hffzCvpk6cryciwbaeRxcvRtMBMZ3J5FR4mD4PJsmUvWU2+xczjnzfYAfr74h9b8RbHWvrsvt5a2O+fXUlYcRaN+mldL9nN6lNPlVzX/Had4fM0r9B4hDTONe7vPlsfuHp8nZ4uBy8coqZan7bb3QvdXVcR9z5UubkR81zdN8vxiu/ukMxrcVkyGdKtjGaV8vP9HA3+1RPfJmN5OdyQ7m60bN5PG2VvRfpLT1Y3s/ymeT7BypXaYp3lnWJkyj8wtV8lu8t6xTOnJGXLNSs8jeXvqrMYmVVVmW1kKwvK2XSQ3vxEccqndcXHtZhlq6aTrqpsz62s11V6f2Pm2oKcWxvs59/+cR+O/vlnF2cnX/64af37Mez9z8M2YeT8xM1gdN01eYPjijRWBKyOEwL6WB+m86DEctKxJg58SgtXrxgoqC4Gnuh82xndtrsWn1xiXgyjwI2c6KYn/qhk7QcseRvpbfy2WvX2WtKg7m5RHtmm1/CJuHHP+Gzl394AJt/wFI8UP1TPgoKHOAABzjAAQ5wgAMc4AAHOK8e5+sPuAiiiLugAQ1oQAMa0IAGNKABDWhAA5pimq8+EihoxEf8gAMc4AAHOMABDnCAAxzgAAc4f2LHw0/8dsYjJ5lHnLVOt9Dz8C/V8/BXR8y4Dzz7x9HttceDhIlbJjofcneejn+H7XZPX0kTRPs1NEG0G2uCmH31tGwTJiKdHpHODpFOn0hnQKSzS6SzR6SzT6Sz1l2gkhDVjLaoprRFNactqkltUc1qi2paW1Tz2qKa2BbVzLapZrZNtlZTzWybambbWjNbvWnfmlT5Nn0VZKQjVL4VXwUZad6Xb7dXQUaa8+Vb6lWQkeZ7hbZ5VXSI5rF8G6vQDK+KDtFUlu9hFVrcVdEhms3yDaxC47oq6yDRfJbvXhXa0VXRIZrP8q2rfJO5NZkKbeWq6EiHp0LruCo60nSv0B6uio403Su0gKuiI033Km3eKglRzWj5DlaleVslIapJLd/EqrRkqyRENa/l+1iVRmuVVkaqmS3fyqq0T6skRDWz5bsZmqK9iqZoCCOMMMIII4wwwggjjDDCCCOMMMII/5XCCzO841HkufyjI/5HlWV20RT/2ZWgKf7Tgab4Wgea4qMpvsaBpvh/PNAU/48HmuJrHmiKj6b4Lx5oig8c4AAHOMABDnCAAxzgAAc4wHkNLSVBAxrQgAY0oAENaEADGtCA5vXQ/L9pZQkc4AAHOMABDnCAAxzgAAc45f3+hKb4x94tD2IvDHwex2iJ/9dqiR9GX9jJeOyNPB6MFk+N8JttgZ+/+w+R5/+++vvyn0/q+V+e/nEdugvxz2ly6//zf/4Px3Eliw=="
               },
               {
                  "name" : "annual_peak_electric_demand",
                  "units" : "kW",
                  "value" : 2109.9764399999999
               },
               {
                  "name" : "first_year_capital_cost",
                  "units" : "$",
                  "value" : 0
               },
               {
                  "name" : "annual_utility_cost",
                  "units" : "$",
                  "value" : 0
               },
               {
                  "name" : "total_lifecycle_cost",
                  "units" : "$",
                  "value" : 0
               }
            ],
            "step_warnings" : [ "A table in Annual Overview section returned false and was skipped." ]
         }
      }
   ],
   "updated_at" : "20170710T191221Z",
   "weather_file" : "USA_CO_Denver.Intl.AP.725650_TMY3.epw"
}
