{
   "completed_at" : "20170710T190917Z",
   "completed_status" : "Success",
   "created_at" : "2017-07-10 19:07:01 +0000",
   "current_step" : 5,
   "description" : "",
   "eplusout_err" : "Program Version,EnergyPlus, Version 8.7.0-78a111df4a, YMD=2017.07.10 19:08,IDD_Version 8.7.0\n   ************* IDF Context for following error/warning message:\n   ************* Note -- lines truncated at 300 characters, if necessary...\n   *************      5 Building,\n   ************* indicated Name=NECB 2011-RetailStandalone-NECB HDD Method-CAN_BC_Summerland.717680_CWEC.epw created: 2017-07-10 19:07:07 +0000\n   ************* Only last 1 lines before error line shown.....\n   *************      6   NECB 2011-RetailStandalone-NECB HDD Method-CAN_BC_Summerland.717680_CWEC.epw created: 2017-07-10 19:07:07 +0000, !- Name\n   ** Warning ** IP: IDF line~6 Alpha Argument length exceeds maximum, will be truncated=  NECB 2011-RetailStandalone-NECB HDD Method-CAN_BC_Summerland.717680_CWEC.epw created: 2017-07-10 19:07:07 +000\n   **   ~~~   ** Will be processed as Alpha=NECB 2011-RETAILSTANDALONE-NECB HDD METHOD-CAN_BC_SUMMERLAND.717680_CWEC.EPW CREATED: 2017-07-10 19:07:07 +0000\n   ************* Beginning Zone Sizing Calculations\n   ** Warning ** ProcessScheduleInput: Schedule:Day:Interval=\"ECONOMIZER MAX OA FRACTION 100 PCT DEFAULT\", Blank Schedule Type Limits Name input -- will not be validated.\n   ** Warning ** ProcessScheduleInput: Schedule:Day:Interval=\"SCHEDULE DAY 1\", Blank Schedule Type Limits Name input -- will not be validated.\n   ** Warning ** ProcessScheduleInput: Schedule:Day:Interval=\"SCHEDULE DAY 10\", Blank Schedule Type Limits Name input -- will not be validated.\n   ** Warning ** ProcessScheduleInput: Schedule:Day:Interval=\"SCHEDULE DAY 11\", Blank Schedule Type Limits Name input -- will not be validated.\n   ** Warning ** ProcessScheduleInput: Schedule:Day:Interval=\"SCHEDULE DAY 12\", Blank Schedule Type Limits Name input -- will not be validated.\n   ** Warning ** ProcessScheduleInput: Schedule:Day:Interval=\"SCHEDULE DAY 13\", Blank Schedule Type Limits Name input -- will not be validated.\n   ** Warning ** ProcessScheduleInput: Schedule:Day:Interval=\"SCHEDULE DAY 14\", Blank Schedule Type Limits Name input -- will not be validated.\n   ** Warning ** ProcessScheduleInput: Schedule:Day:Interval=\"SCHEDULE DAY 15\", Blank Schedule Type Limits Name input -- will not be validated.\n   ** Warning ** ProcessScheduleInput: Schedule:Day:Interval=\"SCHEDULE DAY 16\", Blank Schedule Type Limits Name input -- will not be validated.\n   ** Warning ** ProcessScheduleInput: Schedule:Day:Interval=\"SCHEDULE DAY 17\", Blank Schedule Type Limits Name input -- will not be validated.\n   ** Warning ** ProcessScheduleInput: Schedule:Day:Interval=\"SCHEDULE DAY 18\", Blank Schedule Type Limits Name input -- will not be validated.\n   ** Warning ** ProcessScheduleInput: Schedule:Day:Interval=\"SCHEDULE DAY 19\", Blank Schedule Type Limits Name input -- will not be validated.\n   ** Warning ** ProcessScheduleInput: Schedule:Day:Interval=\"SCHEDULE DAY 2\", Blank Schedule Type Limits Name input -- will not be validated.\n   ** Warning ** ProcessScheduleInput: Schedule:Day:Interval=\"SCHEDULE DAY 20\", Blank Schedule Type Limits Name input -- will not be validated.\n   ** Warning ** ProcessScheduleInput: Schedule:Day:Interval=\"SCHEDULE DAY 21\", Blank Schedule Type Limits Name input -- will not be validated.\n   ** Warning ** ProcessScheduleInput: Schedule:Day:Interval=\"SCHEDULE DAY 22\", Blank Schedule Type Limits Name input -- will not be validated.\n   ** Warning ** ProcessScheduleInput: Schedule:Day:Interval=\"SCHEDULE DAY 23\", Blank Schedule Type Limits Name input -- will not be validated.\n   ** Warning ** ProcessScheduleInput: Schedule:Day:Interval=\"SCHEDULE DAY 24\", Blank Schedule Type Limits Name input -- will not be validated.\n   ** Warning ** ProcessScheduleInput: Schedule:Day:Interval=\"SCHEDULE DAY 5\", Blank Schedule Type Limits Name input -- will not be validated.\n   ** Warning ** ProcessScheduleInput: Schedule:Day:Interval=\"SCHEDULE DAY 6\", Blank Schedule Type Limits Name input -- will not be validated.\n   ** Warning ** ProcessScheduleInput: Schedule:Day:Interval=\"SCHEDULE DAY 7\", Blank Schedule Type Limits Name input -- will not be validated.\n   ** Warning ** ProcessScheduleInput: Schedule:Day:Interval=\"SCHEDULE DAY 8\", Blank Schedule Type Limits Name input -- will not be validated.\n   ** Warning ** ProcessScheduleInput: Schedule:Day:Interval=\"SCHEDULE DAY 9\", Blank Schedule Type Limits Name input -- will not be validated.\n   ** Warning ** ProcessScheduleInput: Schedule:Year=\"ECONOMIZER MAX OA FRACTION 100 PCT\", Blank Schedule Type Limits Name input -- will not be validated.\n   ** Warning ** ProcessScheduleInput: Schedule:Year=\"SCHEDULE RULESET 10\", Blank Schedule Type Limits Name input -- will not be validated.\n   ** Warning ** ProcessScheduleInput: Schedule:Year=\"SCHEDULE RULESET 11\", Blank Schedule Type Limits Name input -- will not be validated.\n   ** Warning ** ProcessScheduleInput: Schedule:Year=\"SCHEDULE RULESET 12\", Blank Schedule Type Limits Name input -- will not be validated.\n   ** Warning ** ProcessScheduleInput: Schedule:Year=\"SCHEDULE RULESET 13\", Blank Schedule Type Limits Name input -- will not be validated.\n   ** Warning ** ProcessScheduleInput: Schedule:Year=\"SCHEDULE RULESET 14\", Blank Schedule Type Limits Name input -- will not be validated.\n   ** Warning ** ProcessScheduleInput: Schedule:Year=\"SCHEDULE RULESET 3\", Blank Schedule Type Limits Name input -- will not be validated.\n   ** Warning ** ProcessScheduleInput: Schedule:Year=\"SCHEDULE RULESET 4\", Blank Schedule Type Limits Name input -- will not be validated.\n   ** Warning ** ProcessScheduleInput: Schedule:Year=\"SCHEDULE RULESET 5\", Blank Schedule Type Limits Name input -- will not be validated.\n   ** Warning ** ProcessScheduleInput: Schedule:Year=\"SCHEDULE RULESET 6\", Blank Schedule Type Limits Name input -- will not be validated.\n   ** Warning ** ProcessScheduleInput: Schedule:Year=\"SCHEDULE RULESET 7\", Blank Schedule Type Limits Name input -- will not be validated.\n   ** Warning ** ProcessScheduleInput: Schedule:Year=\"SCHEDULE RULESET 8\", Blank Schedule Type Limits Name input -- will not be validated.\n   ** Warning ** ProcessScheduleInput: Schedule:Year=\"SCHEDULE RULESET 9\", Blank Schedule Type Limits Name input -- will not be validated.\n   ** Warning ** ProcessScheduleInput: Schedule:Constant=\"ALWAYS OFF DISCRETE\", Blank Schedule Type Limits Name input -- will not be validated.\n   ** Warning ** ProcessScheduleInput: Schedule:Constant=\"ALWAYS ON CONTINUOUS\", Blank Schedule Type Limits Name input -- will not be validated.\n   ** Warning ** CheckUsedConstructions: There are 25 nominally unused constructions in input.\n   **   ~~~   ** For explicit details on each unused construction, use Output:Diagnostics,DisplayExtraWarnings;\n   ** Severe  ** Problem in interior solar distribution calculation (CHKBKS)\n   **   ~~~   **    Solar Distribution = FullInteriorExterior will not work in Zone=SP-CORE_RETAIL SYS-3 FLR-1 SCH-C HPLCMT-EAST ZN\n   **   ~~~   **    because vertex 2 of back surface=CORE_RETAIL_WALL_EAST_1 is in front of receiving surface=CORE_RETAIL_ROOF\n   **   ~~~   **    (Dot Product indicator=459.6689)\n   **   ~~~   **    Check surface geometry; if OK, use Solar Distribution = FullExterior instead.\n   ** Severe  ** Problem in interior solar distribution calculation (CHKBKS)\n   **   ~~~   **    Solar Distribution = FullInteriorExterior will not work in Zone=SP-CORE_RETAIL SYS-3 FLR-1 SCH-C HPLCMT-EAST ZN\n   **   ~~~   **    because vertex 3 of back surface=CORE_RETAIL_WALL_EAST_1 is in front of receiving surface=CORE_RETAIL_ROOF\n   **   ~~~   **    (Dot Product indicator=459.6689)\n   **   ~~~   **    Check surface geometry; if OK, use Solar Distribution = FullExterior instead.\n   ** Severe  ** Problem in interior solar distribution calculation (CHKBKS)\n   **   ~~~   **    Solar Distribution = FullInteriorExterior will not work in Zone=SP-CORE_RETAIL SYS-3 FLR-1 SCH-C HPLCMT-EAST ZN\n   **   ~~~   **    because vertex 2 of back surface=CORE_RETAIL_WALL_EAST_2 is in front of receiving surface=CORE_RETAIL_ROOF\n   **   ~~~   **    (Dot Product indicator=459.6689)\n   **   ~~~   **    Check surface geometry; if OK, use Solar Distribution = FullExterior instead.\n   ** Severe  ** Problem in interior solar distribution calculation (CHKBKS)\n   **   ~~~   **    Solar Distribution = FullInteriorExterior will not work in Zone=SP-CORE_RETAIL SYS-3 FLR-1 SCH-C HPLCMT-EAST ZN\n   **   ~~~   **    because vertex 3 of back surface=CORE_RETAIL_WALL_EAST_2 is in front of receiving surface=CORE_RETAIL_ROOF\n   **   ~~~   **    (Dot Product indicator=459.6689)\n   **   ~~~   **    Check surface geometry; if OK, use Solar Distribution = FullExterior instead.\n   ** Severe  ** Problem in interior solar distribution calculation (CHKBKS)\n   **   ~~~   **    Solar Distribution = FullInteriorExterior will not work in Zone=SP-CORE_RETAIL SYS-3 FLR-1 SCH-C HPLCMT-EAST ZN\n   **   ~~~   **    because vertex 2 of back surface=CORE_RETAIL_WALL_NORTH is in front of receiving surface=CORE_RETAIL_ROOF\n   **   ~~~   **    (Dot Product indicator=459.6689)\n   **   ~~~   **    Check surface geometry; if OK, use Solar Distribution = FullExterior instead.\n   ** Severe  ** Problem in interior solar distribution calculation (CHKBKS)\n   **   ~~~   **    Solar Distribution = FullInteriorExterior will not work in Zone=SP-CORE_RETAIL SYS-3 FLR-1 SCH-C HPLCMT-EAST ZN\n   **   ~~~   **    because vertex 3 of back surface=CORE_RETAIL_WALL_NORTH is in front of receiving surface=CORE_RETAIL_ROOF\n   **   ~~~   **    (Dot Product indicator=459.6689)\n   **   ~~~   **    Check surface geometry; if OK, use Solar Distribution = FullExterior instead.\n   ** Severe  ** Problem in interior solar distribution calculation (CHKBKS)\n   **   ~~~   **    Solar Distribution = FullInteriorExterior will not work in Zone=SP-CORE_RETAIL SYS-3 FLR-1 SCH-C HPLCMT-EAST ZN\n   **   ~~~   **    because vertex 2 of back surface=CORE_RETAIL_WALL_SOUTH_1 is in front of receiving surface=CORE_RETAIL_ROOF\n   **   ~~~   **    (Dot Product indicator=459.6689)\n   **   ~~~   **    Check surface geometry; if OK, use Solar Distribution = FullExterior instead.\n   ** Severe  ** Problem in interior solar distribution calculation (CHKBKS)\n   **   ~~~   **    Solar Distribution = FullInteriorExterior will not work in Zone=SP-CORE_RETAIL SYS-3 FLR-1 SCH-C HPLCMT-EAST ZN\n   **   ~~~   **    because vertex 3 of back surface=CORE_RETAIL_WALL_SOUTH_1 is in front of receiving surface=CORE_RETAIL_ROOF\n   **   ~~~   **    (Dot Product indicator=459.6689)\n   **   ~~~   **    Check surface geometry; if OK, use Solar Distribution = FullExterior instead.\n   ** Severe  ** Problem in interior solar distribution calculation (CHKBKS)\n   **   ~~~   **    Solar Distribution = FullInteriorExterior will not work in Zone=SP-CORE_RETAIL SYS-3 FLR-1 SCH-C HPLCMT-EAST ZN\n   **   ~~~   **    because vertex 2 of back surface=CORE_RETAIL_WALL_SOUTH_2 is in front of receiving surface=CORE_RETAIL_ROOF\n   **   ~~~   **    (Dot Product indicator=459.6689)\n   **   ~~~   **    Check surface geometry; if OK, use Solar Distribution = FullExterior instead.\n   ** Severe  ** Problem in interior solar distribution calculation (CHKBKS)\n   **   ~~~   **    Solar Distribution = FullInteriorExterior will not work in Zone=SP-CORE_RETAIL SYS-3 FLR-1 SCH-C HPLCMT-EAST ZN\n   **   ~~~   **    because vertex 3 of back surface=CORE_RETAIL_WALL_SOUTH_2 is in front of receiving surface=CORE_RETAIL_ROOF\n   **   ~~~   **    (Dot Product indicator=459.6689)\n   **   ~~~   **    Check surface geometry; if OK, use Solar Distribution = FullExterior instead.\n   ** Severe  ** Problem in interior solar distribution calculation (CHKBKS)\n   **   ~~~   **    Solar Distribution = FullInteriorExterior will not work in Zone=SP-CORE_RETAIL SYS-3 FLR-1 SCH-C HPLCMT-EAST ZN\n   **   ~~~   **    because vertex 2 of back surface=CORE_RETAIL_WALL_SOUTH_3 is in front of receiving surface=CORE_RETAIL_ROOF\n   **   ~~~   **    (Dot Product indicator=459.6689)\n   **   ~~~   **    Check surface geometry; if OK, use Solar Distribution = FullExterior instead.\n   ** Severe  ** Problem in interior solar distribution calculation (CHKBKS)\n   **   ~~~   **    Solar Distribution = FullInteriorExterior will not work in Zone=SP-CORE_RETAIL SYS-3 FLR-1 SCH-C HPLCMT-EAST ZN\n   **   ~~~   **    because vertex 3 of back surface=CORE_RETAIL_WALL_SOUTH_3 is in front of receiving surface=CORE_RETAIL_ROOF\n   **   ~~~   **    (Dot Product indicator=459.6689)\n   **   ~~~   **    Check surface geometry; if OK, use Solar Distribution = FullExterior instead.\n   ** Severe  ** Problem in interior solar distribution calculation (CHKBKS)\n   **   ~~~   **    Solar Distribution = FullInteriorExterior will not work in Zone=SP-CORE_RETAIL SYS-3 FLR-1 SCH-C HPLCMT-EAST ZN\n   **   ~~~   **    because vertex 2 of back surface=CORE_RETAIL_WALL_WEST_1 is in front of receiving surface=CORE_RETAIL_ROOF\n   **   ~~~   **    (Dot Product indicator=459.6689)\n   **   ~~~   **    Check surface geometry; if OK, use Solar Distribution = FullExterior instead.\n   ** Severe  ** Problem in interior solar distribution calculation (CHKBKS)\n   **   ~~~   **    Solar Distribution = FullInteriorExterior will not work in Zone=SP-CORE_RETAIL SYS-3 FLR-1 SCH-C HPLCMT-EAST ZN\n   **   ~~~   **    because vertex 3 of back surface=CORE_RETAIL_WALL_WEST_1 is in front of receiving surface=CORE_RETAIL_ROOF\n   **   ~~~   **    (Dot Product indicator=459.6689)\n   **   ~~~   **    Check surface geometry; if OK, use Solar Distribution = FullExterior instead.\n   ** Severe  ** Problem in interior solar distribution calculation (CHKBKS)\n   **   ~~~   **    Solar Distribution = FullInteriorExterior will not work in Zone=SP-CORE_RETAIL SYS-3 FLR-1 SCH-C HPLCMT-EAST ZN\n   **   ~~~   **    because vertex 2 of back surface=CORE_RETAIL_WALL_WEST_2 is in front of receiving surface=CORE_RETAIL_ROOF\n   **   ~~~   **    (Dot Product indicator=459.6689)\n   **   ~~~   **    Check surface geometry; if OK, use Solar Distribution = FullExterior instead.\n   ** Severe  ** Problem in interior solar distribution calculation (CHKBKS)\n   **   ~~~   **    Solar Distribution = FullInteriorExterior will not work in Zone=SP-CORE_RETAIL SYS-3 FLR-1 SCH-C HPLCMT-EAST ZN\n   **   ~~~   **    because vertex 3 of back surface=CORE_RETAIL_WALL_WEST_2 is in front of receiving surface=CORE_RETAIL_ROOF\n   **   ~~~   **    (Dot Product indicator=459.6689)\n   **   ~~~   **    Check surface geometry; if OK, use Solar Distribution = FullExterior instead.\n   ** Severe  ** Problem in interior solar distribution calculation (CHKBKS)\n   **   ~~~   **    Solar Distribution = FullInteriorExterior will not work in Zone=SP-CORE_RETAIL SYS-3 FLR-1 SCH-C HPLCMT-EAST ZN\n   **   ~~~   **    because vertex 1 of back surface=CORE_RETAIL_FLOOR is in front of receiving surface=CORE_RETAIL_ROOF\n   **   ~~~   **    (Dot Product indicator=459.6689)\n   **   ~~~   **    Check surface geometry; if OK, use Solar Distribution = FullExterior instead.\n   ** Severe  ** Problem in interior solar distribution calculation (CHKBKS)\n   **   ~~~   **    Solar Distribution = FullInteriorExterior will not work in Zone=SP-CORE_RETAIL SYS-3 FLR-1 SCH-C HPLCMT-EAST ZN\n   **   ~~~   **    because vertex 2 of back surface=CORE_RETAIL_FLOOR is in front of receiving surface=CORE_RETAIL_ROOF\n   **   ~~~   **    (Dot Product indicator=459.6689)\n   **   ~~~   **    Check surface geometry; if OK, use Solar Distribution = FullExterior instead.\n   ** Severe  ** Problem in interior solar distribution calculation (CHKBKS)\n   **   ~~~   **    Solar Distribution = FullInteriorExterior will not work in Zone=SP-CORE_RETAIL SYS-3 FLR-1 SCH-C HPLCMT-EAST ZN\n   **   ~~~   **    because vertex 3 of back surface=CORE_RETAIL_FLOOR is in front of receiving surface=CORE_RETAIL_ROOF\n   **   ~~~   **    (Dot Product indicator=459.6689)\n   **   ~~~   **    Check surface geometry; if OK, use Solar Distribution = FullExterior instead.\n   ** Severe  ** Problem in interior solar distribution calculation (CHKBKS)\n   **   ~~~   **    Solar Distribution = FullInteriorExterior will not work in Zone=SP-CORE_RETAIL SYS-3 FLR-1 SCH-C HPLCMT-EAST ZN\n   **   ~~~   **    because vertex 4 of back surface=CORE_RETAIL_FLOOR is in front of receiving surface=CORE_RETAIL_ROOF\n   **   ~~~   **    (Dot Product indicator=459.6689)\n   **   ~~~   **    Check surface geometry; if OK, use Solar Distribution = FullExterior instead.\n   ** Severe  ** Problem in interior solar distribution calculation (CHKBKS)\n   **   ~~~   **    Solar Distribution = FullInteriorExterior will not work in Zone=SP-CORE_RETAIL SYS-3 FLR-1 SCH-C HPLCMT-EAST ZN\n   **   ~~~   **    because vertex 5 of back surface=CORE_RETAIL_FLOOR is in front of receiving surface=CORE_RETAIL_ROOF\n   **   ~~~   **    (Dot Product indicator=459.6689)\n   **   ~~~   **    Check surface geometry; if OK, use Solar Distribution = FullExterior instead.\n   ** Severe  ** Problem in interior solar distribution calculation (CHKBKS)\n   **   ~~~   **    Solar Distribution = FullInteriorExterior will not work in Zone=SP-CORE_RETAIL SYS-3 FLR-1 SCH-C HPLCMT-EAST ZN\n   **   ~~~   **    because vertex 6 of back surface=CORE_RETAIL_FLOOR is in front of receiving surface=CORE_RETAIL_ROOF\n   **   ~~~   **    (Dot Product indicator=459.6689)\n   **   ~~~   **    Check surface geometry; if OK, use Solar Distribution = FullExterior instead.\n   ** Severe  ** Problem in interior solar distribution calculation (CHKBKS)\n   **   ~~~   **    Solar Distribution = FullInteriorExterior will not work in Zone=SP-CORE_RETAIL SYS-3 FLR-1 SCH-C HPLCMT-EAST ZN\n   **   ~~~   **    because vertex 7 of back surface=CORE_RETAIL_FLOOR is in front of receiving surface=CORE_RETAIL_ROOF\n   **   ~~~   **    (Dot Product indicator=459.6689)\n   **   ~~~   **    Check surface geometry; if OK, use Solar Distribution = FullExterior instead.\n   ** Severe  ** Problem in interior solar distribution calculation (CHKBKS)\n   **   ~~~   **    Solar Distribution = FullInteriorExterior will not work in Zone=SP-CORE_RETAIL SYS-3 FLR-1 SCH-C HPLCMT-EAST ZN\n   **   ~~~   **    because vertex 8 of back surface=CORE_RETAIL_FLOOR is in front of receiving surface=CORE_RETAIL_ROOF\n   **   ~~~   **    (Dot Product indicator=459.6689)\n   **   ~~~   **    Check surface geometry; if OK, use Solar Distribution = FullExterior instead.\n   ************* Beginning System Sizing Calculations\n   ************* Beginning Plant Sizing Calculations\n   ** Warning ** GetDXCoils: Coil:Cooling:DX:SingleSpeed=\"COIL COOLING DX SINGLE SPEED 5 41KBTU/HR 14.0SEER\", invalid\n   **   ~~~   ** ...Part Load Fraction Correlation Curve Name = DXCOOL-NECB2011-REF-COOLPLFFPLR 4 has out of range value.\n   **   ~~~   ** ...Curve maximum must be <= 1.0, curve max at PLR = 0.99 is 1.015\n   **   ~~~   ** ...Setting curve maximum to 1.0 and simulation continues.\n   ** Warning ** GetDXCoils: Coil:Cooling:DX:SingleSpeed=\"COIL COOLING DX SINGLE SPEED 1 262KBTU/HR 8.21EER\", invalid\n   **   ~~~   ** ...Part Load Fraction Correlation Curve Name = DXCOOL-NECB2011-REF-COOLPLFFPLR has out of range value.\n   **   ~~~   ** ...Curve maximum must be <= 1.0, curve max at PLR = 0.99 is 1.015\n   **   ~~~   ** ...Setting curve maximum to 1.0 and simulation continues.\n   ** Warning ** GetDXCoils: Coil:Cooling:DX:SingleSpeed=\"COIL COOLING DX SINGLE SPEED 2 9KBTU/HR 14.0SEER\", invalid\n   **   ~~~   ** ...Part Load Fraction Correlation Curve Name = DXCOOL-NECB2011-REF-COOLPLFFPLR 1 has out of range value.\n   **   ~~~   ** ...Curve maximum must be <= 1.0, curve max at PLR = 0.99 is 1.015\n   **   ~~~   ** ...Setting curve maximum to 1.0 and simulation continues.\n   ** Warning ** GetDXCoils: Coil:Cooling:DX:SingleSpeed=\"COIL COOLING DX SINGLE SPEED 4 58KBTU/HR 14.0SEER\", invalid\n   **   ~~~   ** ...Part Load Fraction Correlation Curve Name = DXCOOL-NECB2011-REF-COOLPLFFPLR 3 has out of range value.\n   **   ~~~   ** ...Curve maximum must be <= 1.0, curve max at PLR = 0.99 is 1.015\n   **   ~~~   ** ...Setting curve maximum to 1.0 and simulation continues.\n   ** Warning ** GetDXCoils: Coil:Cooling:DX:SingleSpeed=\"COIL COOLING DX SINGLE SPEED 3 58KBTU/HR 14.0SEER\", invalid\n   **   ~~~   ** ...Part Load Fraction Correlation Curve Name = DXCOOL-NECB2011-REF-COOLPLFFPLR 2 has out of range value.\n   **   ~~~   ** ...Curve maximum must be <= 1.0, curve max at PLR = 0.99 is 1.015\n   **   ~~~   ** ...Setting curve maximum to 1.0 and simulation continues.\n   ** Warning ** The Standard Ratings is calculated for Coil:Cooling:DX:SingleSpeed = COIL COOLING DX SINGLE SPEED 5 41KBTU/HR 14.0SEER but not at the AHRI test condition due to curve out of bound.\n   **   ~~~   **  Review the Standard Ratings calculations in the Engineering Reference for this coil type. Also, use Output:Diagnostics, DisplayExtraWarnings for further guidance.\n   ** Warning ** The Standard Ratings is calculated for Coil:Cooling:DX:SingleSpeed = COIL COOLING DX SINGLE SPEED 1 262KBTU/HR 8.21EER but not at the AHRI test condition due to curve out of bound.\n   **   ~~~   **  Review the Standard Ratings calculations in the Engineering Reference for this coil type. Also, use Output:Diagnostics, DisplayExtraWarnings for further guidance.\n   ** Warning ** The Standard Ratings is calculated for Coil:Cooling:DX:SingleSpeed = COIL COOLING DX SINGLE SPEED 2 9KBTU/HR 14.0SEER but not at the AHRI test condition due to curve out of bound.\n   **   ~~~   **  Review the Standard Ratings calculations in the Engineering Reference for this coil type. Also, use Output:Diagnostics, DisplayExtraWarnings for further guidance.\n   ** Warning ** The Standard Ratings is calculated for Coil:Cooling:DX:SingleSpeed = COIL COOLING DX SINGLE SPEED 4 58KBTU/HR 14.0SEER but not at the AHRI test condition due to curve out of bound.\n   **   ~~~   **  Review the Standard Ratings calculations in the Engineering Reference for this coil type. Also, use Output:Diagnostics, DisplayExtraWarnings for further guidance.\n   ** Warning ** The Standard Ratings is calculated for Coil:Cooling:DX:SingleSpeed = COIL COOLING DX SINGLE SPEED 3 58KBTU/HR 14.0SEER but not at the AHRI test condition due to curve out of bound.\n   **   ~~~   **  Review the Standard Ratings calculations in the Engineering Reference for this coil type. Also, use Output:Diagnostics, DisplayExtraWarnings for further guidance.\n   ** Warning ** Check input. Pump nominal power or motor efficiency is set to 0, for pump=SERVICE WATER LOOP PUMP\n   ** Warning ** Output:Meter: invalid Name=\"DISTRICTCOOLING:FACILITY\" - not found.\n   ** Warning ** Output:Meter: invalid Name=\"DISTRICTHEATING:FACILITY\" - not found.\n   ** Warning ** Output:Meter:MeterFileOnly requested for \"Electricity:Facility\" (TimeStep), already on \"Output:Meter\". Will report to both eplusout.eso and eplusout.mtr\n   ************* Testing Individual Branch Integrity\n   ************* All Branches passed integrity testing\n   ************* Testing Individual Supply Air Path Integrity\n   ************* All Supply Air Paths passed integrity testing\n   ************* Testing Individual Return Air Path Integrity\n   ************* All Return Air Paths passed integrity testing\n   ************* No node connection errors were found.\n   ************* Beginning Simulation\n   ** Warning ** CalcDoe2DXCoil: Coil:Cooling:DX:SingleSpeed \"COIL COOLING DX SINGLE SPEED 4 58KBTU/HR 14.0SEER\" - Air-cooled condenser inlet dry-bulb temperature below 0 C. Outdoor dry-bulb temperature = -7.65\n   **   ~~~   **  ... Occurrence info = RUN PERIOD 1, 01/01 09:03 - 09:06\n   **   ~~~   ** ... Operation at low ambient temperatures may require special performance curves.\n   ** Warning ** CalcDoe2DXCoil: Coil:Cooling:DX:SingleSpeed \"COIL COOLING DX SINGLE SPEED 3 58KBTU/HR 14.0SEER\" - Air-cooled condenser inlet dry-bulb temperature below 0 C. Outdoor dry-bulb temperature = -7.65\n   **   ~~~   **  ... Occurrence info = RUN PERIOD 1, 01/01 09:03 - 09:06\n   **   ~~~   ** ... Operation at low ambient temperatures may require special performance curves.\n   ** Warning ** CalcDoe2DXCoil: Coil:Cooling:DX:SingleSpeed \"COIL COOLING DX SINGLE SPEED 2 9KBTU/HR 14.0SEER\" - Air-cooled condenser inlet dry-bulb temperature below 0 C. Outdoor dry-bulb temperature = -1.95\n   **   ~~~   **  ... Occurrence info = RUN PERIOD 1, 01/01 19:15 - 19:18\n   **   ~~~   ** ... Operation at low ambient temperatures may require special performance curves.\n   ** Warning ** CalcDoe2DXCoil: Coil:Cooling:DX:SingleSpeed \"COIL COOLING DX SINGLE SPEED 2 9KBTU/HR 14.0SEER\" - Full load outlet air dry-bulb temperature < 2C. This indicates the possibility of coil frost/freeze. Outlet temperature = -1.36 C.\n   **   ~~~   **  ...Occurrence info = RUN PERIOD 1, 01/01 19:15 - 19:18\n   **   ~~~   ** ... Possible reasons for low outlet air dry-bulb temperatures are: This DX coil\n   **   ~~~   **    1) may have a low inlet air dry-bulb temperature. Inlet air temperature = 12.586 C.\n   **   ~~~   **    2) may have a low air flow rate per watt of cooling capacity. Check inputs.\n   **   ~~~   **    3) is used as part of a HX assisted cooling coil which uses a high sensible effectiveness. Check inputs.\n   ** Warning ** CalcDoe2DXCoil: Coil:Cooling:DX:SingleSpeed \"COIL COOLING DX SINGLE SPEED 5 41KBTU/HR 14.0SEER\" - Air-cooled condenser inlet dry-bulb temperature below 0 C. Outdoor dry-bulb temperature = -0.60\n   **   ~~~   **  ... Occurrence info = RUN PERIOD 1, 01/02 07:06 - 07:09\n   **   ~~~   ** ... Operation at low ambient temperatures may require special performance curves.\n   ** Warning ** CalcDoe2DXCoil: Coil:Cooling:DX:SingleSpeed \"COIL COOLING DX SINGLE SPEED 1 262KBTU/HR 8.21EER\" - Full load outlet air dry-bulb temperature < 2C. This indicates the possibility of coil frost/freeze. Outlet temperature = 1.94 C.\n   **   ~~~   **  ...Occurrence info = RUN PERIOD 1, 04/04 12:45 - 13:00\n   **   ~~~   ** ... Possible reasons for low outlet air dry-bulb temperatures are: This DX coil\n   **   ~~~   **    1) may have a low inlet air dry-bulb temperature. Inlet air temperature = 15.000 C.\n   **   ~~~   **    2) may have a low air flow rate per watt of cooling capacity. Check inputs.\n   **   ~~~   **    3) is used as part of a HX assisted cooling coil which uses a high sensible effectiveness. Check inputs.\n   ************* Simulation Error Summary *************\n   ************* There are 9 unused schedules in input.\n   ************* There are 9 unused week schedules in input.\n   ************* There are 20 unused day schedules in input.\n   ************* Use Output:Diagnostics,DisplayUnusedSchedules; to see them.\n   *************\n   ************* ===== Recurring Error Summary =====\n   ************* The following recurring error messages occurred.\n   *************\n   *************  ** Warning ** CalcDoe2DXCoil: Coil:Cooling:DX:SingleSpeed=\"COIL COOLING DX SINGLE SPEED 4 58KBTU/HR 14.0SEER\" - Low condenser dry-bulb temperature error continues...\n   *************  **   ~~~   **   This error occurred 405 total times;\n   *************  **   ~~~   **   during Warmup 0 times;\n   *************  **   ~~~   **   during Sizing 0 times.\n   *************  **   ~~~   **   Max=-2.500000E-002 [C]  Min=-12.75 [C]\n   *************\n   *************  ** Warning ** CalcDoe2DXCoil: Coil:Cooling:DX:SingleSpeed=\"COIL COOLING DX SINGLE SPEED 3 58KBTU/HR 14.0SEER\" - Low condenser dry-bulb temperature error continues...\n   *************  **   ~~~   **   This error occurred 405 total times;\n   *************  **   ~~~   **   during Warmup 0 times;\n   *************  **   ~~~   **   during Sizing 0 times.\n   *************  **   ~~~   **   Max=-2.500000E-002 [C]  Min=-12.75 [C]\n   *************\n   *************  ** Warning ** CalcDoe2DXCoil: Coil:Cooling:DX:SingleSpeed=\"COIL COOLING DX SINGLE SPEED 2 9KBTU/HR 14.0SEER\" - Low condenser dry-bulb temperature error continues...\n   *************  **   ~~~   **   This error occurred 128 total times;\n   *************  **   ~~~   **   during Warmup 0 times;\n   *************  **   ~~~   **   during Sizing 0 times.\n   *************  **   ~~~   **   Max=-5.000000E-002 [C]  Min=-4.1 [C]\n   *************\n   *************  ** Warning ** CalcDoe2DXCoil: Coil:Cooling:DX:SingleSpeed=\"COIL COOLING DX SINGLE SPEED 2 9KBTU/HR 14.0SEER\" - Full load outlet temperature indicates a possibility of frost/freeze error continues. Outlet air temperature statistics follow:\n   *************  **   ~~~   **   This error occurred 299 total times;\n   *************  **   ~~~   **   during Warmup 0 times;\n   *************  **   ~~~   **   during Sizing 0 times.\n   *************  **   ~~~   **   Max=1.998387  Min=-2.361431\n   *************\n   *************  ** Warning ** CalcDoe2DXCoil: Coil:Cooling:DX:SingleSpeed=\"COIL COOLING DX SINGLE SPEED 5 41KBTU/HR 14.0SEER\" - Low condenser dry-bulb temperature error continues...\n   *************  **   ~~~   **   This error occurred 106 total times;\n   *************  **   ~~~   **   during Warmup 0 times;\n   *************  **   ~~~   **   during Sizing 0 times.\n   *************  **   ~~~   **   Max=-2.500000E-002 [C]  Min=-12.75 [C]\n   *************\n   *************  ** Warning ** CalcDoe2DXCoil: Coil:Cooling:DX:SingleSpeed=\"COIL COOLING DX SINGLE SPEED 1 262KBTU/HR 8.21EER\" - Full load outlet temperature indicates a possibility of frost/freeze error continues. Outlet air temperature statistics follow:\n   *************  **   ~~~   **   This error occurred 61 total times;\n   *************  **   ~~~   **   during Warmup 0 times;\n   *************  **   ~~~   **   during Sizing 0 times.\n   *************  **   ~~~   **   Max=1.991295  Min=0.11732\n   *************\n   *************\n   ************* ===== Final Error Summary =====\n   ************* The following error categories occurred.  Consider correcting or noting.\n   ************* Nominally Unused Constructions\n   ************* ..The nominally unused constructions warning is provided to alert you to potential conditions that can cause\n   ************* ..extra time during simulation. Each construction is calculated by the algorithm indicated in the HeatBalanceAlgorithm\n   ************* ..object. You may remove the constructions indicated (when you use the DisplayExtraWarnings option).\n   *************\n   ************* EnergyPlus Warmup Error Summary. During Warmup: 0 Warning; 0 Severe Errors.\n   ************* EnergyPlus Sizing Error Summary. During Sizing: 39 Warning; 24 Severe Errors.\n   ************* EnergyPlus Completed Successfully-- 1458 Warning; 24 Severe Errors; Elapsed Time=00hr 00min 44.81sec\n",
   "file_format_version" : "0.0.1",
   "file_paths" : [ "../weather", "../seeds", "../seed" ],
   "hash" : "5C863A28",
   "measure_paths" : [ "../measures" ],
   "name" : "LHS Autogenerated 701",
   "osa_id" : "4fef0e0f-5396-4c55-a6e1-2cd6803db3ab",
   "osd_id" : "7ddcdfc6-47c8-4328-804a-283f05a7bd6c",
   "run_directory" : "./run",
   "seed_file" : "seed.osm",
   "started_at" : "20170710T190704Z",
   "steps" : [
      {
         "arguments" : {
            "__SKIP__" : false,
            "building_type" : "RetailStandalone",
            "climate_zone" : "NECB HDD Method",
            "epw_file" : "CAN_BC_Summerland.717680_CWEC.epw",
            "template" : "NECB 2011"
         },
         "measure_dir_name" : "create_prototype_building",
         "name" : "create_prototype_building",
         "result" : {
            "completed_at" : "20170710T190759Z",
            "measure_class_name" : "CreatePrototypeBuilding",
            "measure_display_name" : "Create Prototype Building",
            "measure_name" : "create_prototype_building",
            "measure_taxonomy" : "Whole Building.Space Types",
            "measure_type" : "ModelMeasure",
            "measure_uid" : "ae90fsd7-a651-467a-bc8d-29d310b0f937",
            "measure_version_id" : "c6ec5c18-5595-459f-a082-09a19c8c869c",
            "measure_version_modified" : "20170519T182315Z",
            "measure_xml_checksum" : "057E8D9D",
            "started_at" : "20170710T190707Z",
            "stderr" : "",
            "stdout" : "[OpenStudio.Measure] <0> OSArgumentVector is deprecated, use OpenStudio::Measure::OSArgumentVector instead.\n[openstudio.EpwFile] <0> Successive data points (1966-Jan-31 to 1965-Feb-01, ending on line 753) are greater than 1 day apart in EPW file '/usr/local/bundle/bundler/gems/openstudio-standards-f448df66933d/openstudio-standards/data/weather/CAN_BC_Summerland.717680_CWEC.epw'. Data will be treated as typical (TMY)\n[openstudio.setFileExtension] <0> Path p, '/usr/local/bundle/bundler/gems/openstudio-standards-f448df66933d/openstudio-standards/data/weather/CAN_BC_Summerland.717680_CWEC.ddy', has an unexpected file extension. Was expecting 'idf'.\n[openstudio.model.YearDescription] <1> 'UseWeatherFile' is not yet a supported option for YearDescription\n[openstudio.model.YearDescription] <1> 'UseWeatherFile' is not yet a supported option for YearDescription\n[openstudio.setFileExtension] <0> Path p, '/usr/local/bundle/bundler/gems/openstudio-standards-f448df66933d/openstudio-standards/data/weather/CAN_BC_Summerland.717680_CWEC.ddy', has an unexpected file extension. Was expecting 'idf'.\n[openstudio.model.YearDescription] <1> 'UseWeatherFile' is not yet a supported option for YearDescription\n[openstudio.model.YearDescription] <1> 'UseWeatherFile' is not yet a supported option for YearDescription\n[openstudio.EpwFile] <0> Successive data points (1966-Jan-31 to 1965-Feb-01, ending on line 753) are greater than 1 day apart in EPW file '/usr/local/bundle/bundler/gems/openstudio-standards-f448df66933d/openstudio-standards/data/weather/CAN_BC_Summerland.717680_CWEC.epw'. Data will be treated as typical (TMY)\n[openstudio.weather.Model] <0> Could not find ground temperatures; will use generic temperatures, which will skew results.\n[openstudio.setFileExtension] <0> Path p, '/usr/local/bundle/bundler/gems/openstudio-standards-f448df66933d/openstudio-standards/data/weather/CAN_BC_Summerland.717680_CWEC.ddy', has an unexpected file extension. Was expecting 'idf'.\n[openstudio.model.YearDescription] <1> 'UseWeatherFile' is not yet a supported option for YearDescription\n[openstudio.model.YearDescription] <1> 'UseWeatherFile' is not yet a supported option for YearDescription\n[openstudio.EpwFile] <0> Successive data points (1966-Jan-31 to 1965-Feb-01, ending on line 753) are greater than 1 day apart in EPW file '/usr/local/bundle/bundler/gems/openstudio-standards-f448df66933d/openstudio-standards/data/weather/CAN_BC_Summerland.717680_CWEC.epw'. Data will be treated as typical (TMY)\n[openstudio.setFileExtension] <0> Path p, '/usr/local/bundle/bundler/gems/openstudio-standards-f448df66933d/openstudio-standards/data/weather/CAN_BC_Summerland.717680_CWEC.ddy', has an unexpected file extension. Was expecting 'idf'.\n[openstudio.model.YearDescription] <1> 'UseWeatherFile' is not yet a supported option for YearDescription\n[openstudio.model.YearDescription] <1> 'UseWeatherFile' is not yet a supported option for YearDescription\n[openstudio.setFileExtension] <0> Path p, '/usr/local/bundle/bundler/gems/openstudio-standards-f448df66933d/openstudio-standards/data/weather/CAN_BC_Summerland.717680_CWEC.ddy', has an unexpected file extension. Was expecting 'idf'.\n[openstudio.model.YearDescription] <1> 'UseWeatherFile' is not yet a supported option for YearDescription\n[openstudio.model.YearDescription] <1> 'UseWeatherFile' is not yet a supported option for YearDescription\n[openstudio.EpwFile] <0> Successive data points (1966-Jan-31 to 1965-Feb-01, ending on line 753) are greater than 1 day apart in EPW file '/usr/local/bundle/bundler/gems/openstudio-standards-f448df66933d/openstudio-standards/data/weather/CAN_BC_Summerland.717680_CWEC.epw'. Data will be treated as typical (TMY)\n[openstudio.setFileExtension] <0> Path p, '/usr/local/bundle/bundler/gems/openstudio-standards-f448df66933d/openstudio-standards/data/weather/CAN_BC_Summerland.717680_CWEC.ddy', has an unexpected file extension. Was expecting 'idf'.\n[openstudio.model.YearDescription] <1> 'UseWeatherFile' is not yet a supported option for YearDescription\n[openstudio.model.YearDescription] <1> 'UseWeatherFile' is not yet a supported option for YearDescription\n[openstudio.setFileExtension] <0> Path p, '/usr/local/bundle/bundler/gems/openstudio-standards-f448df66933d/openstudio-standards/data/weather/CAN_BC_Summerland.717680_CWEC.ddy', has an unexpected file extension. Was expecting 'idf'.\n[openstudio.model.YearDescription] <1> 'UseWeatherFile' is not yet a supported option for YearDescription\n[openstudio.model.YearDescription] <1> 'UseWeatherFile' is not yet a supported option for YearDescription\n[utilities.idf.WorkspaceObject] <0> Object of type 'Schedule:Constant' and named 'Always Off Discrete', points to an object named OnOff 1 from field 1, but that object cannot be located.\n[utilities.idf.WorkspaceObject] <0> Object of type 'Schedule:Constant' and named 'Always On Continuous', points to an object named Fractional 1 from field 1, but that object cannot be located.\n[openstudio.model.Model] <0> The run completed but had the following severe errors: Problem in interior solar distribution calculation (CHKBKS)     Solar Distribution = FullInteriorExterior will not work in Zone=CORE_RETAIL ZN     because vertex 2 of back surface=CORE_RETAIL_WALL_EAST_1 is in front of receiving surface=CORE_RETAIL_ROOF     (Dot Product indicator=459.6689)     Check surface geometry; if OK, use Solar Distribution = FullExterior instead.\\nProblem in interior solar distribution calculation (CHKBKS)     Solar Distribution = FullInteriorExterior will not work in Zone=CORE_RETAIL ZN     because vertex 3 of back surface=CORE_RETAIL_WALL_EAST_1 is in front of receiving surface=CORE_RETAIL_ROOF     (Dot Product indicator=459.6689)     Check surface geometry; if OK, use Solar Distribution = FullExterior instead.\\nProblem in interior solar distribution calculation (CHKBKS)     Solar Distribution = FullInteriorExterior will not work in Zone=CORE_RETAIL ZN     because vertex 2 of back surface=CORE_RETAIL_WALL_EAST_2 is in front of receiving surface=CORE_RETAIL_ROOF     (Dot Product indicator=459.6689)     Check surface geometry; if OK, use Solar Distribution = FullExterior instead.\\nProblem in interior solar distribution calculation (CHKBKS)     Solar Distribution = FullInteriorExterior will not work in Zone=CORE_RETAIL ZN     because vertex 3 of back surface=CORE_RETAIL_WALL_EAST_2 is in front of receiving surface=CORE_RETAIL_ROOF     (Dot Product indicator=459.6689)     Check surface geometry; if OK, use Solar Distribution = FullExterior instead.\\nProblem in interior solar distribution calculation (CHKBKS)     Solar Distribution = FullInteriorExterior will not work in Zone=CORE_RETAIL ZN     because vertex 2 of back surface=CORE_RETAIL_WALL_NORTH is in front of receiving surface=CORE_RETAIL_ROOF     (Dot Product indicator=459.6689)     Check surface geometry; if OK, use Solar Distribution = FullExterior instead.\\nProblem in interior solar distribution calculation (CHKBKS)     Solar Distribution = FullInteriorExterior will not work in Zone=CORE_RETAIL ZN     because vertex 3 of back surface=CORE_RETAIL_WALL_NORTH is in front of receiving surface=CORE_RETAIL_ROOF     (Dot Product indicator=459.6689)     Check surface geometry; if OK, use Solar Distribution = FullExterior instead.\\nProblem in interior solar distribution calculation (CHKBKS)     Solar Distribution = FullInteriorExterior will not work in Zone=CORE_RETAIL ZN     because vertex 2 of back surface=CORE_RETAIL_WALL_SOUTH_1 is in front of receiving surface=CORE_RETAIL_ROOF     (Dot Product indicator=459.6689)     Check surface geometry; if OK, use Solar Distribution = FullExterior instead.\\nProblem in interior solar distribution calculation (CHKBKS)     Solar Distribution = FullInteriorExterior will not work in Zone=CORE_RETAIL ZN     because vertex 3 of back surface=CORE_RETAIL_WALL_SOUTH_1 is in front of receiving surface=CORE_RETAIL_ROOF     (Dot Product indicator=459.6689)     Check surface geometry; if OK, use Solar Distribution = FullExterior instead.\\nProblem in interior solar distribution calculation (CHKBKS)     Solar Distribution = FullInteriorExterior will not work in Zone=CORE_RETAIL ZN     because vertex 2 of back surface=CORE_RETAIL_WALL_SOUTH_2 is in front of receiving surface=CORE_RETAIL_ROOF     (Dot Product indicator=459.6689)     Check surface geometry; if OK, use Solar Distribution = FullExterior instead.\\nProblem in interior solar distribution calculation (CHKBKS)     Solar Distribution = FullInteriorExterior will not work in Zone=CORE_RETAIL ZN     because vertex 3 of back surface=CORE_RETAIL_WALL_SOUTH_2 is in front of receiving surface=CORE_RETAIL_ROOF     (Dot Product indicator=459.6689)     Check surface geometry; if OK, use Solar Distribution = FullExterior instead.\\nProblem in interior solar distribution calculation (CHKBKS)     Solar Distribution = FullInteriorExterior will not work in Zone=CORE_RETAIL ZN     because vertex 2 of back surface=CORE_RETAIL_WALL_SOUTH_3 is in front of receiving surface=CORE_RETAIL_ROOF     (Dot Product indicator=459.6689)     Check surface geometry; if OK, use Solar Distribution = FullExterior instead.\\nProblem in interior solar distribution calculation (CHKBKS)     Solar Distribution = FullInteriorExterior will not work in Zone=CORE_RETAIL ZN     because vertex 3 of back surface=CORE_RETAIL_WALL_SOUTH_3 is in front of receiving surface=CORE_RETAIL_ROOF     (Dot Product indicator=459.6689)     Check surface geometry; if OK, use Solar Distribution = FullExterior instead.\\nProblem in interior solar distribution calculation (CHKBKS)     Solar Distribution = FullInteriorExterior will not work in Zone=CORE_RETAIL ZN     because vertex 2 of back surface=CORE_RETAIL_WALL_WEST_1 is in front of receiving surface=CORE_RETAIL_ROOF     (Dot Product indicator=459.6689)     Check surface geometry; if OK, use Solar Distribution = FullExterior instead.\\nProblem in interior solar distribution calculation (CHKBKS)     Solar Distribution = FullInteriorExterior will not work in Zone=CORE_RETAIL ZN     because vertex 3 of back surface=CORE_RETAIL_WALL_WEST_1 is in front of receiving surface=CORE_RETAIL_ROOF     (Dot Product indicator=459.6689)     Check surface geometry; if OK, use Solar Distribution = FullExterior instead.\\nProblem in interior solar distribution calculation (CHKBKS)     Solar Distribution = FullInteriorExterior will not work in Zone=CORE_RETAIL ZN     because vertex 2 of back surface=CORE_RETAIL_WALL_WEST_2 is in front of receiving surface=CORE_RETAIL_ROOF     (Dot Product indicator=459.6689)     Check surface geometry; if OK, use Solar Distribution = FullExterior instead.\\nProblem in interior solar distribution calculation (CHKBKS)     Solar Distribution = FullInteriorExterior will not work in Zone=CORE_RETAIL ZN     because vertex 3 of back surface=CORE_RETAIL_WALL_WEST_2 is in front of receiving surface=CORE_RETAIL_ROOF     (Dot Product indicator=459.6689)     Check surface geometry; if OK, use Solar Distribution = FullExterior instead.\\nProblem in interior solar distribution calculation (CHKBKS)     Solar Distribution = FullInteriorExterior will not work in Zone=CORE_RETAIL ZN     because vertex 1 of back surface=CORE_RETAIL_FLOOR is in front of receiving surface=CORE_RETAIL_ROOF     (Dot Product indicator=459.6689)     Check surface geometry; if OK, use Solar Distribution = FullExterior instead.\\nProblem in interior solar distribution calculation (CHKBKS)     Solar Distribution = FullInteriorExterior will not work in Zone=CORE_RETAIL ZN     because vertex 2 of back surface=CORE_RETAIL_FLOOR is in front of receiving surface=CORE_RETAIL_ROOF     (Dot Product indicator=459.6689)     Check surface geometry; if OK, use Solar Distribution = FullExterior instead.\\nProblem in interior solar distribution calculation (CHKBKS)     Solar Distribution = FullInteriorExterior will not work in Zone=CORE_RETAIL ZN     because vertex 3 of back surface=CORE_RETAIL_FLOOR is in front of receiving surface=CORE_RETAIL_ROOF     (Dot Product indicator=459.6689)     Check surface geometry; if OK, use Solar Distribution = FullExterior instead.\\nProblem in interior solar distribution calculation (CHKBKS)     Solar Distribution = FullInteriorExterior will not work in Zone=CORE_RETAIL ZN     because vertex 4 of back surface=CORE_RETAIL_FLOOR is in front of receiving surface=CORE_RETAIL_ROOF     (Dot Product indicator=459.6689)     Check surface geometry; if OK, use Solar Distribution = FullExterior instead.\\nProblem in interior solar distribution calculation (CHKBKS)     Solar Distribution = FullInteriorExterior will not work in Zone=CORE_RETAIL ZN     because vertex 5 of back surface=CORE_RETAIL_FLOOR is in front of receiving surface=CORE_RETAIL_ROOF     (Dot Product indicator=459.6689)     Check surface geometry; if OK, use Solar Distribution = FullExterior instead.\\nProblem in interior solar distribution calculation (CHKBKS)     Solar Distribution = FullInteriorExterior will not work in Zone=CORE_RETAIL ZN     because vertex 6 of back surface=CORE_RETAIL_FLOOR is in front of receiving surface=CORE_RETAIL_ROOF     (Dot Product indicator=459.6689)     Check surface geometry; if OK, use Solar Distribution = FullExterior instead.\\nProblem in interior solar distribution calculation (CHKBKS)     Solar Distribution = FullInteriorExterior will not work in Zone=CORE_RETAIL ZN     because vertex 7 of back surface=CORE_RETAIL_FLOOR is in front of receiving surface=CORE_RETAIL_ROOF     (Dot Product indicator=459.6689)     Check surface geometry; if OK, use Solar Distribution = FullExterior instead.\\nProblem in interior solar distribution calculation (CHKBKS)     Solar Distribution = FullInteriorExterior will not work in Zone=CORE_RETAIL ZN     because vertex 8 of back surface=CORE_RETAIL_FLOOR is in front of receiving surface=CORE_RETAIL_ROOF     (Dot Product indicator=459.6689)     Check surface geometry; if OK, use Solar Distribution = FullExterior instead.\n[utilities.idf.WorkspaceObject] <0> Object of type 'Schedule:Constant' and named 'Always Off Discrete', points to an object named OnOff 1 from field 1, but that object cannot be located.\n[utilities.idf.WorkspaceObject] <0> Object of type 'Schedule:Constant' and named 'Always On Continuous', points to an object named Fractional 1 from field 1, but that object cannot be located.\n[openstudio.model.Model] <0> The run completed but had the following severe errors: Problem in interior solar distribution calculation (CHKBKS)     Solar Distribution = FullInteriorExterior will not work in Zone=SP-CORE_RETAIL SYS-3 FLR-1 SCH-C HPLCMT-EAST ZN     because vertex 2 of back surface=CORE_RETAIL_WALL_EAST_1 is in front of receiving surface=CORE_RETAIL_ROOF     (Dot Product indicator=459.6689)     Check surface geometry; if OK, use Solar Distribution = FullExterior instead.\\nProblem in interior solar distribution calculation (CHKBKS)     Solar Distribution = FullInteriorExterior will not work in Zone=SP-CORE_RETAIL SYS-3 FLR-1 SCH-C HPLCMT-EAST ZN     because vertex 3 of back surface=CORE_RETAIL_WALL_EAST_1 is in front of receiving surface=CORE_RETAIL_ROOF     (Dot Product indicator=459.6689)     Check surface geometry; if OK, use Solar Distribution = FullExterior instead.\\nProblem in interior solar distribution calculation (CHKBKS)     Solar Distribution = FullInteriorExterior will not work in Zone=SP-CORE_RETAIL SYS-3 FLR-1 SCH-C HPLCMT-EAST ZN     because vertex 2 of back surface=CORE_RETAIL_WALL_EAST_2 is in front of receiving surface=CORE_RETAIL_ROOF     (Dot Product indicator=459.6689)     Check surface geometry; if OK, use Solar Distribution = FullExterior instead.\\nProblem in interior solar distribution calculation (CHKBKS)     Solar Distribution = FullInteriorExterior will not work in Zone=SP-CORE_RETAIL SYS-3 FLR-1 SCH-C HPLCMT-EAST ZN     because vertex 3 of back surface=CORE_RETAIL_WALL_EAST_2 is in front of receiving surface=CORE_RETAIL_ROOF     (Dot Product indicator=459.6689)     Check surface geometry; if OK, use Solar Distribution = FullExterior instead.\\nProblem in interior solar distribution calculation (CHKBKS)     Solar Distribution = FullInteriorExterior will not work in Zone=SP-CORE_RETAIL SYS-3 FLR-1 SCH-C HPLCMT-EAST ZN     because vertex 2 of back surface=CORE_RETAIL_WALL_NORTH is in front of receiving surface=CORE_RETAIL_ROOF     (Dot Product indicator=459.6689)     Check surface geometry; if OK, use Solar Distribution = FullExterior instead.\\nProblem in interior solar distribution calculation (CHKBKS)     Solar Distribution = FullInteriorExterior will not work in Zone=SP-CORE_RETAIL SYS-3 FLR-1 SCH-C HPLCMT-EAST ZN     because vertex 3 of back surface=CORE_RETAIL_WALL_NORTH is in front of receiving surface=CORE_RETAIL_ROOF     (Dot Product indicator=459.6689)     Check surface geometry; if OK, use Solar Distribution = FullExterior instead.\\nProblem in interior solar distribution calculation (CHKBKS)     Solar Distribution = FullInteriorExterior will not work in Zone=SP-CORE_RETAIL SYS-3 FLR-1 SCH-C HPLCMT-EAST ZN     because vertex 2 of back surface=CORE_RETAIL_WALL_SOUTH_1 is in front of receiving surface=CORE_RETAIL_ROOF     (Dot Product indicator=459.6689)     Check surface geometry; if OK, use Solar Distribution = FullExterior instead.\\nProblem in interior solar distribution calculation (CHKBKS)     Solar Distribution = FullInteriorExterior will not work in Zone=SP-CORE_RETAIL SYS-3 FLR-1 SCH-C HPLCMT-EAST ZN     because vertex 3 of back surface=CORE_RETAIL_WALL_SOUTH_1 is in front of receiving surface=CORE_RETAIL_ROOF     (Dot Product indicator=459.6689)     Check surface geometry; if OK, use Solar Distribution = FullExterior instead.\\nProblem in interior solar distribution calculation (CHKBKS)     Solar Distribution = FullInteriorExterior will not work in Zone=SP-CORE_RETAIL SYS-3 FLR-1 SCH-C HPLCMT-EAST ZN     because vertex 2 of back surface=CORE_RETAIL_WALL_SOUTH_2 is in front of receiving surface=CORE_RETAIL_ROOF     (Dot Product indicator=459.6689)     Check surface geometry; if OK, use Solar Distribution = FullExterior instead.\\nProblem in interior solar distribution calculation (CHKBKS)     Solar Distribution = FullInteriorExterior will not work in Zone=SP-CORE_RETAIL SYS-3 FLR-1 SCH-C HPLCMT-EAST ZN     because vertex 3 of back surface=CORE_RETAIL_WALL_SOUTH_2 is in front of receiving surface=CORE_RETAIL_ROOF     (Dot Product indicator=459.6689)     Check surface geometry; if OK, use Solar Distribution = FullExterior instead.\\nProblem in interior solar distribution calculation (CHKBKS)     Solar Distribution = FullInteriorExterior will not work in Zone=SP-CORE_RETAIL SYS-3 FLR-1 SCH-C HPLCMT-EAST ZN     because vertex 2 of back surface=CORE_RETAIL_WALL_SOUTH_3 is in front of receiving surface=CORE_RETAIL_ROOF     (Dot Product indicator=459.6689)     Check surface geometry; if OK, use Solar Distribution = FullExterior instead.\\nProblem in interior solar distribution calculation (CHKBKS)     Solar Distribution = FullInteriorExterior will not work in Zone=SP-CORE_RETAIL SYS-3 FLR-1 SCH-C HPLCMT-EAST ZN     because vertex 3 of back surface=CORE_RETAIL_WALL_SOUTH_3 is in front of receiving surface=CORE_RETAIL_ROOF     (Dot Product indicator=459.6689)     Check surface geometry; if OK, use Solar Distribution = FullExterior instead.\\nProblem in interior solar distribution calculation (CHKBKS)     Solar Distribution = FullInteriorExterior will not work in Zone=SP-CORE_RETAIL SYS-3 FLR-1 SCH-C HPLCMT-EAST ZN     because vertex 2 of back surface=CORE_RETAIL_WALL_WEST_1 is in front of receiving surface=CORE_RETAIL_ROOF     (Dot Product indicator=459.6689)     Check surface geometry; if OK, use Solar Distribution = FullExterior instead.\\nProblem in interior solar distribution calculation (CHKBKS)     Solar Distribution = FullInteriorExterior will not work in Zone=SP-CORE_RETAIL SYS-3 FLR-1 SCH-C HPLCMT-EAST ZN     because vertex 3 of back surface=CORE_RETAIL_WALL_WEST_1 is in front of receiving surface=CORE_RETAIL_ROOF     (Dot Product indicator=459.6689)     Check surface geometry; if OK, use Solar Distribution = FullExterior instead.\\nProblem in interior solar distribution calculation (CHKBKS)     Solar Distribution = FullInteriorExterior will not work in Zone=SP-CORE_RETAIL SYS-3 FLR-1 SCH-C HPLCMT-EAST ZN     because vertex 2 of back surface=CORE_RETAIL_WALL_WEST_2 is in front of receiving surface=CORE_RETAIL_ROOF     (Dot Product indicator=459.6689)     Check surface geometry; if OK, use Solar Distribution = FullExterior instead.\\nProblem in interior solar distribution calculation (CHKBKS)     Solar Distribution = FullInteriorExterior will not work in Zone=SP-CORE_RETAIL SYS-3 FLR-1 SCH-C HPLCMT-EAST ZN     because vertex 3 of back surface=CORE_RETAIL_WALL_WEST_2 is in front of receiving surface=CORE_RETAIL_ROOF     (Dot Product indicator=459.6689)     Check surface geometry; if OK, use Solar Distribution = FullExterior instead.\\nProblem in interior solar distribution calculation (CHKBKS)     Solar Distribution = FullInteriorExterior will not work in Zone=SP-CORE_RETAIL SYS-3 FLR-1 SCH-C HPLCMT-EAST ZN     because vertex 1 of back surface=CORE_RETAIL_FLOOR is in front of receiving surface=CORE_RETAIL_ROOF     (Dot Product indicator=459.6689)     Check surface geometry; if OK, use Solar Distribution = FullExterior instead.\\nProblem in interior solar distribution calculation (CHKBKS)     Solar Distribution = FullInteriorExterior will not work in Zone=SP-CORE_RETAIL SYS-3 FLR-1 SCH-C HPLCMT-EAST ZN     because vertex 2 of back surface=CORE_RETAIL_FLOOR is in front of receiving surface=CORE_RETAIL_ROOF     (Dot Product indicator=459.6689)     Check surface geometry; if OK, use Solar Distribution = FullExterior instead.\\nProblem in interior solar distribution calculation (CHKBKS)     Solar Distribution = FullInteriorExterior will not work in Zone=SP-CORE_RETAIL SYS-3 FLR-1 SCH-C HPLCMT-EAST ZN     because vertex 3 of back surface=CORE_RETAIL_FLOOR is in front of receiving surface=CORE_RETAIL_ROOF     (Dot Product indicator=459.6689)     Check surface geometry; if OK, use Solar Distribution = FullExterior instead.\\nProblem in interior solar distribution calculation (CHKBKS)     Solar Distribution = FullInteriorExterior will not work in Zone=SP-CORE_RETAIL SYS-3 FLR-1 SCH-C HPLCMT-EAST ZN     because vertex 4 of back surface=CORE_RETAIL_FLOOR is in front of receiving surface=CORE_RETAIL_ROOF     (Dot Product indicator=459.6689)     Check surface geometry; if OK, use Solar Distribution = FullExterior instead.\\nProblem in interior solar distribution calculation (CHKBKS)     Solar Distribution = FullInteriorExterior will not work in Zone=SP-CORE_RETAIL SYS-3 FLR-1 SCH-C HPLCMT-EAST ZN     because vertex 5 of back surface=CORE_RETAIL_FLOOR is in front of receiving surface=CORE_RETAIL_ROOF     (Dot Product indicator=459.6689)     Check surface geometry; if OK, use Solar Distribution = FullExterior instead.\\nProblem in interior solar distribution calculation (CHKBKS)     Solar Distribution = FullInteriorExterior will not work in Zone=SP-CORE_RETAIL SYS-3 FLR-1 SCH-C HPLCMT-EAST ZN     because vertex 6 of back surface=CORE_RETAIL_FLOOR is in front of receiving surface=CORE_RETAIL_ROOF     (Dot Product indicator=459.6689)     Check surface geometry; if OK, use Solar Distribution = FullExterior instead.\\nProblem in interior solar distribution calculation (CHKBKS)     Solar Distribution = FullInteriorExterior will not work in Zone=SP-CORE_RETAIL SYS-3 FLR-1 SCH-C HPLCMT-EAST ZN     because vertex 7 of back surface=CORE_RETAIL_FLOOR is in front of receiving surface=CORE_RETAIL_ROOF     (Dot Product indicator=459.6689)     Check surface geometry; if OK, use Solar Distribution = FullExterior instead.\\nProblem in interior solar distribution calculation (CHKBKS)     Solar Distribution = FullInteriorExterior will not work in Zone=SP-CORE_RETAIL SYS-3 FLR-1 SCH-C HPLCMT-EAST ZN     because vertex 8 of back surface=CORE_RETAIL_FLOOR is in front of receiving surface=CORE_RETAIL_ROOF     (Dot Product indicator=459.6689)     Check surface geometry; if OK, use Solar Distribution = FullExterior instead.\n[openstudio.standards.Fan] <0> For Fan Constant Volume 1, there is no greater nominal HP.  Use the efficiency of the largest motor category.\n[openstudio.standards.Fan] <0> For Fan Constant Volume 2, there is no greater nominal HP.  Use the efficiency of the largest motor category.\n[openstudio.standards.Fan] <0> For Fan Constant Volume 3, there is no greater nominal HP.  Use the efficiency of the largest motor category.\n[openstudio.standards.Fan] <0> For Fan Constant Volume 4, there is no greater nominal HP.  Use the efficiency of the largest motor category.\n[openstudio.standards.Fan] <0> For Fan Constant Volume 5, there is no greater nominal HP.  Use the efficiency of the largest motor category.\n[openstudio.EpwFile] <0> Successive data points (1966-Jan-31 to 1965-Feb-01, ending on line 753) are greater than 1 day apart in EPW file '/usr/local/bundle/bundler/gems/openstudio-standards-f448df66933d/openstudio-standards/data/weather/CAN_BC_Summerland.717680_CWEC.epw'. Data will be treated as typical (TMY)\n[openstudio.setFileExtension] <0> Path p, '/usr/local/bundle/bundler/gems/openstudio-standards-f448df66933d/openstudio-standards/data/weather/CAN_BC_Summerland.717680_CWEC.ddy', has an unexpected file extension. Was expecting 'idf'.\n[openstudio.model.YearDescription] <1> 'UseWeatherFile' is not yet a supported option for YearDescription\n[openstudio.model.YearDescription] <1> 'UseWeatherFile' is not yet a supported option for YearDescription\n[openstudio.setFileExtension] <0> Path p, '/usr/local/bundle/bundler/gems/openstudio-standards-f448df66933d/openstudio-standards/data/weather/CAN_BC_Summerland.717680_CWEC.ddy', has an unexpected file extension. Was expecting 'idf'.\n[openstudio.model.YearDescription] <1> 'UseWeatherFile' is not yet a supported option for YearDescription\n[openstudio.model.YearDescription] <1> 'UseWeatherFile' is not yet a supported option for YearDescription\n[openstudio.EpwFile] <0> Successive data points (1966-Jan-31 to 1965-Feb-01, ending on line 753) are greater than 1 day apart in EPW file '/usr/local/bundle/bundler/gems/openstudio-standards-f448df66933d/openstudio-standards/data/weather/CAN_BC_Summerland.717680_CWEC.epw'. Data will be treated as typical (TMY)\n[openstudio.setFileExtension] <0> Path p, '/usr/local/bundle/bundler/gems/openstudio-standards-f448df66933d/openstudio-standards/data/weather/CAN_BC_Summerland.717680_CWEC.ddy', has an unexpected file extension. Was expecting 'idf'.\n[openstudio.model.YearDescription] <1> 'UseWeatherFile' is not yet a supported option for YearDescription\n[openstudio.model.YearDescription] <1> 'UseWeatherFile' is not yet a supported option for YearDescription\n[openstudio.setFileExtension] <0> Path p, '/usr/local/bundle/bundler/gems/openstudio-standards-f448df66933d/openstudio-standards/data/weather/CAN_BC_Summerland.717680_CWEC.ddy', has an unexpected file extension. Was expecting 'idf'.\n[openstudio.model.YearDescription] <1> 'UseWeatherFile' is not yet a supported option for YearDescription\n[openstudio.model.YearDescription] <1> 'UseWeatherFile' is not yet a supported option for YearDescription\n[openstudio.EpwFile] <0> Successive data points (1966-Jan-31 to 1965-Feb-01, ending on line 753) are greater than 1 day apart in EPW file '/usr/local/bundle/bundler/gems/openstudio-standards-f448df66933d/openstudio-standards/data/weather/CAN_BC_Summerland.717680_CWEC.epw'. Data will be treated as typical (TMY)\n[openstudio.setFileExtension] <0> Path p, '/usr/local/bundle/bundler/gems/openstudio-standards-f448df66933d/openstudio-standards/data/weather/CAN_BC_Summerland.717680_CWEC.ddy', has an unexpected file extension. Was expecting 'idf'.\n[openstudio.model.YearDescription] <1> 'UseWeatherFile' is not yet a supported option for YearDescription\n[openstudio.model.YearDescription] <1> 'UseWeatherFile' is not yet a supported option for YearDescription\n[openstudio.setFileExtension] <0> Path p, '/usr/local/bundle/bundler/gems/openstudio-standards-f448df66933d/openstudio-standards/data/weather/CAN_BC_Summerland.717680_CWEC.ddy', has an unexpected file extension. Was expecting 'idf'.\n[openstudio.model.YearDescription] <1> 'UseWeatherFile' is not yet a supported option for YearDescription\n[openstudio.model.YearDescription] <1> 'UseWeatherFile' is not yet a supported option for YearDescription\n[openstudio.EpwFile] <0> Successive data points (1966-Jan-31 to 1965-Feb-01, ending on line 753) are greater than 1 day apart in EPW file '/usr/local/bundle/bundler/gems/openstudio-standards-f448df66933d/openstudio-standards/data/weather/CAN_BC_Summerland.717680_CWEC.epw'. Data will be treated as typical (TMY)\n[openstudio.setFileExtension] <0> Path p, '/usr/local/bundle/bundler/gems/openstudio-standards-f448df66933d/openstudio-standards/data/weather/CAN_BC_Summerland.717680_CWEC.ddy', has an unexpected file extension. Was expecting 'idf'.\n[openstudio.model.YearDescription] <1> 'UseWeatherFile' is not yet a supported option for YearDescription\n[openstudio.model.YearDescription] <1> 'UseWeatherFile' is not yet a supported option for YearDescription\n[openstudio.setFileExtension] <0> Path p, '/usr/local/bundle/bundler/gems/openstudio-standards-f448df66933d/openstudio-standards/data/weather/CAN_BC_Summerland.717680_CWEC.ddy', has an unexpected file extension. Was expecting 'idf'.\n[openstudio.model.YearDescription] <1> 'UseWeatherFile' is not yet a supported option for YearDescription\n[openstudio.model.YearDescription] <1> 'UseWeatherFile' is not yet a supported option for YearDescription\n[openstudio.EpwFile] <0> Successive data points (1966-Jan-31 to 1965-Feb-01, ending on line 753) are greater than 1 day apart in EPW file '/usr/local/bundle/bundler/gems/openstudio-standards-f448df66933d/openstudio-standards/data/weather/CAN_BC_Summerland.717680_CWEC.epw'. Data will be treated as typical (TMY)\n[openstudio.setFileExtension] <0> Path p, '/usr/local/bundle/bundler/gems/openstudio-standards-f448df66933d/openstudio-standards/data/weather/CAN_BC_Summerland.717680_CWEC.ddy', has an unexpected file extension. Was expecting 'idf'.\n[openstudio.model.YearDescription] <1> 'UseWeatherFile' is not yet a supported option for YearDescription\n[openstudio.model.YearDescription] <1> 'UseWeatherFile' is not yet a supported option for YearDescription\n[openstudio.setFileExtension] <0> Path p, '/usr/local/bundle/bundler/gems/openstudio-standards-f448df66933d/openstudio-standards/data/weather/CAN_BC_Summerland.717680_CWEC.ddy', has an unexpected file extension. Was expecting 'idf'.\n[openstudio.model.YearDescription] <1> 'UseWeatherFile' is not yet a supported option for YearDescription\n[openstudio.model.YearDescription] <1> 'UseWeatherFile' is not yet a supported option for YearDescription\n[openstudio.standards.Fan] <0> For Fan Constant Volume 1, there is no greater nominal HP.  Use the efficiency of the largest motor category.\n[openstudio.standards.Fan] <0> For Fan Constant Volume 2, there is no greater nominal HP.  Use the efficiency of the largest motor category.\n[openstudio.standards.Fan] <0> For Fan Constant Volume 3, there is no greater nominal HP.  Use the efficiency of the largest motor category.\n[openstudio.standards.Fan] <0> For Fan Constant Volume 4, there is no greater nominal HP.  Use the efficiency of the largest motor category.\n[openstudio.standards.Fan] <0> For Fan Constant Volume 5, there is no greater nominal HP.  Use the efficiency of the largest motor category.\n",
            "step_errors" : [],
            "step_files" : [],
            "step_info" : [
               "Started adding geometry",
               "Finished adding geometry",
               "Started adding weather file for climate zone: NECB HDD Method.",
               "Template =",
               "Setting Back_Space to Space Function.Storage area",
               "Setting Core_Retail to Space Function.Retail - sales",
               "Setting Front_Retail to Space Function.Retail - sales",
               "Setting Point_Of_Sale to Space Function.Retail - sales",
               "Setting Front_Entry to Space Function.Lobby - elevator",
               "Started applying space types (loads)",
               "Space Function Lobby - elevator had no people, one has been created.",
               "Space Function Lobby - elevator set occupancy to 9.29 people/1000 ft^2.",
               "Space Function Lobby - elevator had no lights, one has been created.",
               "Space Function Lobby - elevator set LPD to 0.641025641 W/ft^2.",
               "Space Function Lobby - elevator had no electric equipment, one has been created.",
               "Space Function Lobby - elevator set electric EPD to 0.092902267 W/ft^2.",
               "Space Function Lobby - elevator had no ventilation specification, one has been created.",
               "Space Function Lobby - elevator set ventilation per area to 0.81 cfm/ft^2.",
               "Space Function Lobby - elevator had no infiltration objects, one has been created.",
               "Space Function Lobby - elevator set infiltration to 0.0 per ft^2 exterior surface area.",
               "Space Function Lobby - elevator set occupancy schedule to NECB-C-Occupancy.",
               "Space Function Lobby - elevator set occupant activity schedule to NECB-Activity.",
               "Space Function Lobby - elevator set lighting schedule to NECB-C-Lighting.",
               "Space Function Lobby - elevator set electric equipment schedule to NECB-C-Electric-Equipment.",
               "Space Function Lobby - elevator set infiltration schedule to Always On.",
               "Space Function Lobby - elevator set heating setpoint schedule to NECB-C-Thermostat Setpoint-Heating.",
               "Space Function Lobby - elevator set cooling setpoint schedule to NECB-C-Thermostat Setpoint-Cooling.",
               "Space Function Retail - sales had no people, one has been created.",
               "Space Function Retail - sales set occupancy to 3.1 people/1000 ft^2.",
               "Space Function Retail - sales had no lights, one has been created.",
               "Space Function Retail - sales set LPD to 1.681531029 W/ft^2.",
               "Space Function Retail - sales had no electric equipment, one has been created.",
               "Space Function Retail - sales set electric EPD to 0.232255667 W/ft^2.",
               "Space Function Retail - sales had no ventilation specification, one has been created.",
               "Space Function Retail - sales set ventilation per area to 0.233 cfm/ft^2.",
               "Space Function Retail - sales had no infiltration objects, one has been created.",
               "Space Function Retail - sales set infiltration to 0.0 per ft^2 exterior surface area.",
               "Space Function Retail - sales set occupancy schedule to NECB-C-Occupancy.",
               "Space Function Retail - sales set occupant activity schedule to NECB-Activity.",
               "Space Function Retail - sales set lighting schedule to NECB-C-Lighting.",
               "Space Function Retail - sales set electric equipment schedule to NECB-C-Electric-Equipment.",
               "Space Function Retail - sales set infiltration schedule to Always On.",
               "Space Function Retail - sales set heating setpoint schedule to NECB-C-Thermostat Setpoint-Heating.",
               "Space Function Retail - sales set cooling setpoint schedule to NECB-C-Thermostat Setpoint-Cooling.",
               "Space Function Storage area had no people, one has been created.",
               "Space Function Storage area set occupancy to 0.93 people/1000 ft^2.",
               "Space Function Storage area had no lights, one has been created.",
               "Space Function Storage area set LPD to 0.631735414 W/ft^2.",
               "Space Function Storage area had no electric equipment, one has been created.",
               "Space Function Storage area set electric EPD to 0.092902267 W/ft^2.",
               "Space Function Storage area had no ventilation specification, one has been created.",
               "Space Function Storage area set ventilation per area to 0.07 cfm/ft^2.",
               "Space Function Storage area had no infiltration objects, one has been created.",
               "Space Function Storage area set infiltration to 0.0 per ft^2 exterior surface area.",
               "Space Function Storage area set occupancy schedule to NECB-E-Occupancy.",
               "Space Function Storage area set occupant activity schedule to NECB-Activity.",
               "Space Function Storage area set lighting schedule to NECB-E-Lighting.",
               "Space Function Storage area set electric equipment schedule to NECB-E-Electric-Equipment.",
               "Space Function Storage area set infiltration schedule to Always On.",
               "Space Function Storage area set heating setpoint schedule to NECB-E-Thermostat Setpoint-Heating.",
               "Space Function Storage area set cooling setpoint schedule to NECB-E-Thermostat Setpoint-Cooling.",
               "Finished applying space types (loads)",
               "Started applying constructions",
               "Adding construction set: NECB 2011-NECB HDD Method-Retail--is_residentialNo",
               "Adding construction Typical Insulated Exterior Mass Floor R-15.63.",
               "Adding construction Typical Insulated Exterior Mass Wall R-12.5.",
               "Adding construction Typical Insulated Metal Building Roof R-20.41.",
               "Adding construction Typical Interior Floor.",
               "Adding construction Typical Interior Wall.",
               "Adding construction Typical Interior Ceiling.",
               "Adding construction Typical Insulated Carpeted 6in Slab Floor.",
               "Adding construction U 0.55 SHGC 0.31 Dbl Ref-D Tint 6mm/6mm Air.",
               "Adding construction Typical Insulated Metal Door R-1.43.",
               "Adding construction U 0.35 SHGC 0.35 Dbl LoE (e2-.1) Tint 6mm/13mm Air.",
               "Adding construction Typical Overhead Door R-2.0.",
               "Adding construction U 0.48 SHGC 0.40 Dbl Ref-D Clr 6mm/13mm.",
               "Adding construction Typical Interior Window.",
               "Adding construction Typical Interior Door.",
               "Adding construction Typical Interior Partition.",
               "Finished applying constructions",
               "WWR NonRes = 0%; window = 0 ft2, wall = 0 ft2.",
               "WWR Res = 0%; window = 0 ft2, wall = 0 ft2.",
               "WWR Semiheated = 0%; window = 0 ft2, wall = 0 ft2.",
               "The skylight to roof ratios (SRRs) are: NonRes: 1%, Res: 0%.",
               "Started creating thermal zones",
               "Finished creating thermal zones",
               "Running simulation /mnt/openstudio/analysis_4fef0e0f-5396-4c55-a6e1-2cd6803db3ab/data_point_7ddcdfc6-47c8-4328-804a-283f05a7bd6c/run/000_create_prototype_building/output/RetailStandalone-NECB 2011-NECB HDD Method-CAN_BC_Summerland.717680_CWEC.epw/SR0.",
               "Finished run.",
               "Started Adding HVAC",
               "Finished adding HVAC",
               "Started Adding Service Water Heating",
               "Adding service water loop.",
               "Adding water heater.",
               "Template =",
               "Finished adding Service Water Heating",
               "Set sizing factors to 1.3 for heating and 1.3 for cooling.",
               "Running simulation /mnt/openstudio/analysis_4fef0e0f-5396-4c55-a6e1-2cd6803db3ab/data_point_7ddcdfc6-47c8-4328-804a-283f05a7bd6c/run/000_create_prototype_building/output/RetailStandalone-NECB 2011-NECB HDD Method-CAN_BC_Summerland.717680_CWEC.epw/SR1.",
               "Finished run.",
               "Started applying multizone vav OA sizing.",
               "Finished applying multizone vav OA sizing.",
               "Started applying prototype HVAC assumptions.",
               "For Fan Constant Volume 1: allowed_hp = 6.27HP; motor eff = 61.5%; total fan eff = 40% based on 9161 cfm.",
               "For Fan Constant Volume 2: allowed_hp = 1.01HP; motor eff = 61.5%; total fan eff = 40% based on 352 cfm.",
               "For Fan Constant Volume 3: allowed_hp = 1.48HP; motor eff = 61.5%; total fan eff = 40% based on 2167 cfm.",
               "For Fan Constant Volume 4: allowed_hp = 1.49HP; motor eff = 61.5%; total fan eff = 40% based on 2173 cfm.",
               "For Fan Constant Volume 5: allowed_hp = 1.06HP; motor eff = 61.5%; total fan eff = 40% based on 1543 cfm.",
               "Sp-Back_Space Sys-4 Flr-1 Sch-E HPlcmt-north ZN NECB System 4 PSZ does not require an economizer because the total cooling capacity of 41120 Btu/hr is less than the minimum capacity of 68243 Btu/hr.",
               "Sp-Front_Entry Sys-3 Flr-1 Sch-C HPlcmt-south ZN NECB System 3 PSZ does not require an economizer because the total cooling capacity of 9393 Btu/hr is less than the minimum capacity of 68243 Btu/hr.",
               "Sp-Front_Retail Sys-3 Flr-1 Sch-C HPlcmt-south ZN NECB System 3 PSZ does not require an economizer because the total cooling capacity of 57928 Btu/hr is less than the minimum capacity of 68243 Btu/hr.",
               "Sp-Core_Retail Sys-3 Flr-1 Sch-C HPlcmt-east ZN NECB System 3 PSZ requires an economizer because the total cooling capacity of 261758 Btu/hr exceeds the minimum capacity of 68243 Btu/hr.",
               "Sp-Point_Of_Sale Sys-3 Flr-1 Sch-C HPlcmt-south ZN NECB System 3 PSZ does not require an economizer because the total cooling capacity of 57778 Btu/hr is less than the minimum capacity of 68243 Btu/hr.",
               "Finished applying prototype HVAC assumptions.",
               "Started applying HVAC efficiency standards.",
               "For Sp-Back_Space Sys-4 Flr-1 Sch-E HPlcmt-north ZN NECB System 4 PSZ, ERV not required based on 0% OA flow, design supply air flow of 1543cfm, and climate zone NECB HDD Method.",
               "For Sp-Back_Space Sys-4 Flr-1 Sch-E HPlcmt-north ZN NECB System 4 PSZ, ERV not required based on exhaust heat content.",
               "For NECB 2011 NECB HDD Method:  Sp-Back_Space Sys-4 Flr-1 Sch-E HPlcmt-north ZN NECB System 4 PSZ: DCV is not required for any system.",
               "For Sp-Back_Space Sys-4 Flr-1 Sch-E HPlcmt-north ZN NECB System 4 PSZ: Annual occupied hours = 3068 hr/yr, assuming a 0.15 occupancy threshold.  This schedule will be used as the HVAC operation schedule.",
               "For Sp-Back_Space Sys-4 Flr-1 Sch-E HPlcmt-north ZN NECB System 4 PSZ: Setting motorized OA damper schedule to Sp-Back_Space Sys-4 Flr-1 Sch-E HPlcmt-north ZN NECB System 4 PSZ Occ Sch.",
               "For Sp-Core_Retail Sys-3 Flr-1 Sch-C HPlcmt-east ZN NECB System 3 PSZ, ERV not required based on 0% OA flow, design supply air flow of 9161cfm, and climate zone NECB HDD Method.",
               "For Sp-Core_Retail Sys-3 Flr-1 Sch-C HPlcmt-east ZN NECB System 3 PSZ, ERV not required based on exhaust heat content.",
               "For NECB 2011 NECB HDD Method:  Sp-Core_Retail Sys-3 Flr-1 Sch-C HPlcmt-east ZN NECB System 3 PSZ: DCV is not required for any system.",
               "For Sp-Core_Retail Sys-3 Flr-1 Sch-C HPlcmt-east ZN NECB System 3 PSZ: Annual occupied hours = 4168 hr/yr, assuming a 0.15 occupancy threshold.  This schedule will be used as the HVAC operation schedule.",
               "For Sp-Core_Retail Sys-3 Flr-1 Sch-C HPlcmt-east ZN NECB System 3 PSZ: Because the system has an economizer, it requires a motorized OA damper.",
               "For Sp-Core_Retail Sys-3 Flr-1 Sch-C HPlcmt-east ZN NECB System 3 PSZ: Setting motorized OA damper schedule to Sp-Core_Retail Sys-3 Flr-1 Sch-C HPlcmt-east ZN NECB System 3 PSZ Occ Sch.",
               "For Sp-Front_Entry Sys-3 Flr-1 Sch-C HPlcmt-south ZN NECB System 3 PSZ, ERV not required based on 0% OA flow, design supply air flow of 352cfm, and climate zone NECB HDD Method.",
               "For Sp-Front_Entry Sys-3 Flr-1 Sch-C HPlcmt-south ZN NECB System 3 PSZ, ERV not required based on exhaust heat content.",
               "For NECB 2011 NECB HDD Method:  Sp-Front_Entry Sys-3 Flr-1 Sch-C HPlcmt-south ZN NECB System 3 PSZ: DCV is not required for any system.",
               "For Sp-Front_Entry Sys-3 Flr-1 Sch-C HPlcmt-south ZN NECB System 3 PSZ: Unoccupied fan shutoff not required because system fan HP of 0.36 HP is less than the minimum threshold of 0.75 HP.",
               "For Sp-Front_Entry Sys-3 Flr-1 Sch-C HPlcmt-south ZN NECB System 3 PSZ: Setting motorized OA damper schedule to Always On Discrete.",
               "For Sp-Front_Retail Sys-3 Flr-1 Sch-C HPlcmt-south ZN NECB System 3 PSZ, ERV not required based on 0% OA flow, design supply air flow of 2173cfm, and climate zone NECB HDD Method.",
               "For Sp-Front_Retail Sys-3 Flr-1 Sch-C HPlcmt-south ZN NECB System 3 PSZ, ERV not required based on exhaust heat content.",
               "For NECB 2011 NECB HDD Method:  Sp-Front_Retail Sys-3 Flr-1 Sch-C HPlcmt-south ZN NECB System 3 PSZ: DCV is not required for any system.",
               "For Sp-Front_Retail Sys-3 Flr-1 Sch-C HPlcmt-south ZN NECB System 3 PSZ: Annual occupied hours = 4168 hr/yr, assuming a 0.15 occupancy threshold.  This schedule will be used as the HVAC operation schedule.",
               "For Sp-Front_Retail Sys-3 Flr-1 Sch-C HPlcmt-south ZN NECB System 3 PSZ: Setting motorized OA damper schedule to Sp-Front_Retail Sys-3 Flr-1 Sch-C HPlcmt-south ZN NECB System 3 PSZ Occ Sch.",
               "For Sp-Point_Of_Sale Sys-3 Flr-1 Sch-C HPlcmt-south ZN NECB System 3 PSZ, ERV not required based on 0% OA flow, design supply air flow of 2167cfm, and climate zone NECB HDD Method.",
               "For Sp-Point_Of_Sale Sys-3 Flr-1 Sch-C HPlcmt-south ZN NECB System 3 PSZ, ERV not required based on exhaust heat content.",
               "For NECB 2011 NECB HDD Method:  Sp-Point_Of_Sale Sys-3 Flr-1 Sch-C HPlcmt-south ZN NECB System 3 PSZ: DCV is not required for any system.",
               "For Sp-Point_Of_Sale Sys-3 Flr-1 Sch-C HPlcmt-south ZN NECB System 3 PSZ: Annual occupied hours = 4168 hr/yr, assuming a 0.15 occupancy threshold.  This schedule will be used as the HVAC operation schedule.",
               "For Sp-Point_Of_Sale Sys-3 Flr-1 Sch-C HPlcmt-south ZN NECB System 3 PSZ: Setting motorized OA damper schedule to Sp-Point_Of_Sale Sys-3 Flr-1 Sch-C HPlcmt-south ZN NECB System 3 PSZ Occ Sch.",
               "For Fan Constant Volume 1: motor nameplate = 6HP, motor eff = 61.5%.",
               "For Fan Constant Volume 2: motor nameplate = 0.21949819457437775HP, motor eff = 61.5%.",
               "For Fan Constant Volume 3: motor nameplate = 1.3501083183351066HP, motor eff = 61.5%.",
               "For Fan Constant Volume 4: motor nameplate = 1.3536148674266064HP, motor eff = 61.5%.",
               "For Fan Constant Volume 5: motor nameplate = 0.9608611809686554HP, motor eff = 61.5%.",
               "For Service Water Loop Pump: brake hp = 0.0HP, motor nameplate = 0.1HP, motor eff = 70.0%.",
[...]
dMWG7qmLbum9beja9r+FnRN299Y17Rux2Vpmmaj02PS2WPS6TPpDJh09pl0Dph0Dpl0Vu65txLiimiHK6Qdrph2uILa4YpqhyusHa64drgC2+GKbJcrsl22tZorsl2uyHaNIlu/O9qKVPXmaBYy5Bmq3hrNQoac99Ubo1nIkHO+els0Cxlyvls0RbPRYYpjOo1ZdESz0WEKZTqHWbRDs9FhimY6gVn0QrNZB5nimc5eFo3QbHSY4plOXdW7oK3IWDRBs9EhT49FCzQbHXK6WzRAs9Ehp7tF+zMbHXK62zQ/sxLiimg6g9l0PrMS4gpqOonZtD2zEuKKazqP2fQ8s1oZuSKbTmU2Dc+shLgim85m6HaGbmfodvaMEN3O1IZuZ+h2hm5nJRu6naHbmdFRodvZir/B+9Ht7OmGbmePWw0/rvrGmgIABzjAAQ5wgAMc4AAHOMABztbjfGO9AkADGtCABjSgAQ1oQAMa0IBme2j+Mj0KgAMc4AAHOMABDnCAAxzgAKe6H7qdLTZ0O1t2OxtsR7ezgy3odnawwW5n3T5TuzMLoR6X0B6XUJ9LaMAltM8ldMAldMgl9Ke77W2U2GLbYQtuhy26Hbbwdtji22ELcIctwh22EHfYYtxli3GXb/1mi3GXLcZdsxg36YL2VMumDVp1Hfos2TRCq65DrwI2rdCq69ArgE0ztOo69Oy3aodmIcQV0SXpzaojmoUQV1CX5DarpmgWQlxxXZLYrPqiWayMXJFdktWsWqNZCHFFdklKs+mO9lTHqj2ahRB9iqwapFkI0ZPfqkWahRA9+a2apFkI0ZPfrk2ajRJbbJdkNrtOaTZKbOFdktzsmqXZKLFFeEl+s+uXZrNWssV4SYqza5lmo8QW4yVZDl3T0DUNXdOeEaJrmtrQNQ1d09A1rWRD1zR0TTM6KnRNW/E3eD+6pj3d0DXtcavhR1rfWHMB4AAHOMABDnCAAxzgAAc4wNl6nG+s5wBoQAMa0IAGNKABDWhAAxrQbA/NX6bXAXCAAxzgAAc4wAEOcIADHOBU90PXtMWGrmnLrmn729E17XALuqYdbqxr2qC4J7RqhxsuoR6X0B6XUJ9LaMAltM8ldMAldMgltHLzvZ0SW2w7bMHtsEW3wxbeDlt8O2wB7rBFuMMW4g5bjLtsMe7yrd9sMe6yxbhrFuP6XdNWtap3TbPRoc9S9a5pNjr0KlC9a5qNDr0CVO+aZqNDz36LrmlWQlwRXZLeLLqmWQlxBXVJbrPommYlxBXXJYnNomua1crIFdklWc2ia5qVEFdkl6S06l3TVnUsuqZZCdGnyKJrmpUQPfktuqZZCdGT36JrmpUQPfltuqbZKbHFdklms+maZqfEFt4lyc2ma5qdEluEl+Q3m65pdmslW4yXpDibrml2SmwxXpLl0DUNXdPQNe0ZIbqmqQ1d09A1DV3TSjZ0TUPXNKOjQte0FX+D96Nr2tMNXdMetxp+pPWNNRcADnCAAxzgAAc4wAEOcIADnK3H+cZ6DoAGNKABDWhAAxrQgAY0oAHN9tD8ZXodAAc4wAEOcIADHOAABzjAAU51P3RNW2zomrbsmnawFV3T9rrffte0nHFTXdO6HZelaZqNTo9JZ49Jp8+kM2DS2WfSOWDSOWTSWbnn3kqIK6IdrpB2uGLa4QpqhyuqHa6wdrji2uEKbIcrsl2uyHbZ1mquyHa5Its1imz97mgrUtWbo1nIkGeoems0Cxly3ldvjGYhQ8756m3RLGTI+W7RFM1GhymO6TRm0RHNRocplOkcZtEOzUaHKZrpBGbRC81mHWSKZzp7WTRCs9Fhimc6dVXvgrYiY9EEzUaHPD0WLdBsdMjpbtEAzUaHnO4W7c9sdMjpbtP8zEqIK6LpDGbT+cxKiCuo6SRm0/bMSogrruk8ZtPzzGpl5IpsOpXZNDyzEuKKbDqbodsZup2h29kzQnQ7Uxu6naHbGbqdlWzodoZuZ0ZHhW5nK/4G70e3s6cbup09bjX8uOobawoAHOAABzjAAQ5wgAMc4AAHOFuP8431CgANaEADGtCABjSgAQ1oQAOa7aH5y/QoAA5wgAMc4AAHOMABDnCAA5zqfuh2ttjQ7WzZ7exwO7qdOVvQ7czZWLczZ6/b6T7ZnD2W5meMsr16ZPfqke3XIzuoR3a/HtmDemQP65FdudefU7emeebUNNGcmmaaU9NUc2qaa05Nk82pabY5NU03p6b55tY039y68lpN882tab65NvNNv6tcmXL1JnN8qrpnt3oLOj5V3ZWseoM6PlXdVax6+zo+Vd0VzKK5HaNsPbNLu1yw6ITHKFvPBNOuFSza5jHK1jPHtAsFix57jFmhnlmmXSVYNORjlK1nlmmXCNW795WpWjTzY5TVPbUWrf4YZXUXMItGgIyyuguYRZtARlndBcymiSCnbk3zTLtSsOk4yKlb01TTLhZs2hNy6tY027TrBZtehpx5oqb5pl0y2DQ+5NStab5pVw3okoguieiS+IwQXRLVhi6J6JKILoklG7okokui0VGhS+KKv8H70SXx6YYuiY9bDT/K/MaaiQAHOMABDnCAAxzgAAc4wAHO1uN8Yz1GQAMa0IAGNKABDWhAAxrQgGZ7aP4yvU2AAxzgAAc4wAEOcIADHOAAp7rfV+iS+EHeTmTiZdNEiubZDpomfltNE2VyFwyl+JenIu/nOJ4IdcHU75z3umfb0UDR3YIGiu7mGiiqv1ft1MSk02PS2WPS6TPpDJh09pl0Dph0Dpl0VhsM2AhxRbTDFdIOV0w7XEHtcEW1wxXWDldcO1yB7XBFtssV2S7bWs0V2S5XZLtGkW3Q2O+plEUnv+oy5Bmy6NVXXYac9xbd+KrLkHPeot9edRlyvtt01LPQYYpjOo3ZNMmz0GEKZTqH2fS9s9BhimY6gdm0srNYB5nimc5eNt3pLHSY4plOXRYN557K2HSYs9AhT49NDzkLHXK623SJs9Ahp7tNHzgLHXK6W3V6sxHiimg6g1k1b7MR4gpqOolZ9WOzEeKKazqPWbVYs1kZuSKbTmVWXdNshLgim85mz4R+S4I4CbKZcERbNM+n0Y5qSTVo/58XtbtOu/j7Gzls9xwqzXVX/qH36tXe3uEhg4Vbv0Wvfou9+i369VsM6rfYr9/ioH6Lw/otVjJ7XR4bmN/OBia4s4EZ7mxgijsbmOPOBia5s4FZ7mxgmjsbmOfuBua5u4k8voF57m5gnrvV5rlbeHgZ5dHVK6t6Pdc9GDBY0FeDzYK+GGwW9LVgs6CXXDYLesVls6AXXDYLer1ls6CXWzaLkm+u+Tzor/74POhvBfk86C8M+Tw2MMVLyio+jw1M8pKyis9jA9O8pKziy390WcXnsYk8voFEXlJW8XlUm+c95XGWBISHe6hXVjnO/n6vx2BBXw02C/pisFnQ14LNgl5y2SzoFZfNgl5w2Szo9ZbNgv5tFJtFSVnF50GXVXwedFnF50GXVXwe9E+0+Dzo3yXyedA/WeTzoH/NyOdB/9CRz2MD87ykrOLz2EQe30AiLymr+DyqpfI95fFhPKU8DvTKqsN8679msKCvBpsFfTHYLOhrwWZBl1VsFnRZxWZBl1VsFnRZxWZBL7dsFiVlFZ8HXVbxedBlFZ8HXVbxedBlFZ8HXVbxedBlFZ8HXVbxedBlFZ/HBuZ5SVnF57GJPL6BRF5SVvF5VEvlfeXxL+lTHvt6ZdWbNycn+/sMFvTVYLOgLwabBX0t2CzosorNgi6r2CzosorNgi6r2Czo5ZbNoqSs4vOgyyo+D7qs4vOgyyo+D7qs4vOgyyo+D7qs4vOgyyo+D7qs4vPYwDwvKav4PDaRxzeQyEvKKj6Paql8UJRuU0l5DPTKqpOTwYDFgr4abBb0xWCzoK8FmwVdVrFZ0GUVmwVdVrFZ0GUVmwW93LJZlJRVfB50WcXnQZdVfB50WcXnQZdVfB50WcXnQZdVfB50WcXnQZdVfB4bmOclZRWfxyby+AYSeUlZxedRLZXvK49fYupn8W5fr6w6OHDdfp/Bgr4abBb0xWCzoK8FmwVdVrFZ0GUVmwVdVrFZ0GUVm0VZ3ykmi9Jma1weZd2quDzKGllxeZT1uOLyKGt/xeVR1vONy6OsHRyXR1mnOC6PsiZyXB4bmOclZRWfxyby+AYSeUlZxeexPpV/1OnwuujJLI5FJO+XDWSLvrHN9G7UKjrArm0Vu2zsnMrsdTyN/LTZ77aE4/Rboqf+5vb12s0+5BiPTal9/8TL5ChOZq8egnTeFvnx+DW6R+cC7xJfJu+nqkux9o6KY7bK8Yv00mki5xiq0fLivNfcnhvDGMYwhjGMYQxjGMMYxjCGMYxhDGMYwxjGMIYxjGEMYxjDGMYwhjGMYQxjGMMYxjCGMYxhDGMYwxjGMIYxjGEMYxjDGMYwhjGMYQxjGMP/U8OzTnwnkyTw5S+eurHW6XQt71dVt8amq7fGnsskkOni9tpGa3kD8SSMs04YRHLtLbLpl+7TXX9nbdopHj0/iUMvC+Ioh2qkmZy0r+R1nMiG3p3PP8uRjPzVA5q/1hx0W6Kn7lzuqhuZ1R+NUF5nCmyN9FK2czmS2WmUqfOTW1xPo2FB2twRf6yRWBLKx70v1t7LrbbgWjSzcZB20uKq6Bmp7clOnfz8nXrDcfO/wKZqS3x163jOvtC9nMRpoATf5C/rHM1yUzJfoEriezOkJVYQ+VLNh7bTMtx7ud1U3fE6kKGKt+binM7nySiJpxPpi++/F39bvP7QuRx76eL+dzXBdp6Ozr44mp+QjjcanSmPTiijUTYWL4Ur/ikar8KwIY5W35GGwVA2287ORffjztr59uxI4kQ0b/JD6f4gbnKbRagufNVrf89XHPMLpDYVxgu9i5uPnU9yJo6Pj+cnr5piobq47Demh7rcrhLpfaqy82fDfUzfr87X4uiOVVirYFhEStHIoXPppWkwiqR/olpEpBfFmfxY7VQuL/Rkmo6bVa9FfkmP5tez+kwKwyOdo+yod1Z1SbMk/iT1fObvreoUT7xhkM30rBZvrnxUhcXSqqrKciFZXVaqTA/jxUdty+m8uvCItnBM1Uymmz7r51aRVbXe/3ldTaG23V3x2+8fxL/f/f5enL97/+GnX38UP7/78acT8fb0/amewFm+assHT5VoIotFGieZiKa3eRwMRdHSJBVeOsyLlyAaaSguz73SeZKZvZa40l9cEplNk0hMvCSVZ2HsZU1PLfk7+aV88tpV8ZrWyVxfoj2xXRzCOuHP9XZ6eaw/i+leTPbmC19ee9MwE5Mkztcw+aIlXnx3cHBycnr6oubGM8ABDnCAAxzgAAc4wAEOcIDzv4kj0ult/k9g4Uv1ovC9mSJKpA8a0IAGNKABDWhAAxrQgAY0oCmnuS9+mvUnmqtwKoEDHOAABzjAAQ5wgAMc4AAHOFVwHp8b6KjnBp5PqecG9pziG7ZXr/b2Dg9BClKQghSkIAUpSEEKUpCCFKQgBel2kLoFqZdRpN2CtNdz3YMBSEEKUpCCFKQgBSlIQQpSkIIUpCDdDtKeIj1LAoLUPSxIHWd/v9cDKUhBClKQghSkIAUpSEEKUpCCFKTbQbqnSD+MpxTpQUF6mG/91yAFKUhBClKQghSkIAUpSEEKUpCCdDtI+4r0X9KnSPcL0jdvTk7290EKUpCCFKQgBSlIQQpSkIIUpCAF6XaQDopPJqaSIh0UpCcngwFIQQpSkIIUpCAFKUhBClKQghSkIN0W0n1F+ktMdRZ0+wXpwYHr9vsgBSlIQQpSkIIUpCAFKUhBClKQgnRjpEsUP/Hum2vFHjpZkIXyfOxNZCeTD1nzxdt4mqTrMWbP93wT3MooDeIolGmhsEZid1e88n3hiUJJ3AfZWKTxrRR+b82e6d2o400mMvKbDeXd2Fmzw3LreFmWNBsPjZYYdA13muU7ufo7pdkslHO8thcNx3GS798I5bUB7ULjOo6y9r0MRuNMaVzFoa+vMb8255P2a2/46fJ84g2lOJ+l7T1xFiZtR5wPx+1T8fa3cHibtaM4yS/Cf34Vv56evFZvy+St2BO/nf9HvBsO1Xtf7JRd1pe76TAJJtk/yPe83PWDuy8Pk/vQYrmWCPzjxlDF/El+mrwgksnlXq8hinN33PCDdBJ6s6MgCvOh9lUYDz/90KD5ctH5IYhsNsn3V6dv98a78+avlu6ptjsvUeEpjoUf3E5C2Ynk/fndqNn47jljS+x1u8Ufa6ebkvW9zMt1L/5ohN6VDBtHDV9ee9MwE5Mkvg5C2WjNRy4fGkdOp9tq3HnhVC7+PlSrUr5PvtCcnJyeNj63tHRcJp0ek84ek06fSWfApLPPpHPApHPIpON0uYS4ItrhCmmHK6YdrqB2uKLa4QprhyuuHa7Adrgi2+WKbJdtreaKbJcrsl2jyBbp9PZ25THVWhktkb6BDHmOzGTIM2QmQ54fMxly3pvJkLPeTIac82Yy5Iw3kyHnu5kMncgMdZjimE5jhjpMkUwnMUMdplimU5ihDlM00wnMUIcpnun0ZajDtS4zxTOduwx19OP5Pogy87R1pV7S1yFPj6EOeXoMdcjTY6hDTndDHXK6G+qQ091Qh5zuhjrkdDfUofOXqRBXRNMZzFSIK6bpHGYqxBXVdBYzFeKKazqPmQpxRTadyUyF2NZqrsimk5mpkH5kP35vsfa5wlSa6678Q2/+4GEGC7d+i179Fnv1W/TrtxjUb7Ffv8VB/RaH9VusZPa6PDYwv0s+mOXzoD/Z4vOgP/Ti86A/6eXzoD8E5vOgPx/m86A/OubzoD9V5st/G5jn7iby+AYSubuBTO5WS+VrH9+oV1bNn+/IYEFfDTYL+mKwWdDXgs2CLqvYLOiyis2CLqvYLOiyis2CLqvYLEq+uebzoL/64/Ogyyo+D7qs4vOgyyo+D7qs4vOgyyo+D7qs4vOgyyo+D7qs4st/G5jnJV/x83lsIJGXlFV8HtVS+dqnZOmVVfPHaDFY0FeDzYK+GGwW9LVgs6DLKjYLuqxis6DLKjYLuqxis6DLKjaLkrKKz4Nebvk86LKKz4Muq/g86LKKz4Muq/g86LKKz4Muq/g86LKKz4Muq/jy3wbmeUlZxeexgUReUlbxeVRL5WsfRqJXVs2fVsJgQV8NNgv6YrBZ0NeCzYIuq9gs6LKKzYIuq9gs6LKKzYIuq9gsSsoqPg96ueXzoMsqPg+6rOLzoMsqPg+6rOLzoMsqPg+6rOLzoMsqPg+6rOLLfxuY5yVlFZ/HBhJ5SVnF51Etla/t+a5XVs2bwjNY0FeDzYK+GGwW9LVgs6DLKjYLuqxis6DLKjYLuqxis6DLKjaLkrKKz4Nebvk86LKKz4Muq/g86LKKz4Muq/g86LKKz4Muq/g86LKKz4Muq/jy3wbmeUlZxeexgUReUlbxeVRL5Wtb6+qVVfPeuwwW9NVgs6AvBpsFfS3YLOiyis2CLqvYLOiyis2CLqvYLOiyis2ipKzi86CXWz4Puqzi86DLKj4Puqzi86DLKj4Puqzi86DLKj4Puqzi86DLKr78t4F5XlJW8XlsIJGXlFV8HtVS+doOhnpl1bzFIYMFfTXYLOiLwWZBXws2C7qsYrOgyyo2C7qsYrOgyyo2C7qsYrMobbbG5UEvt3weZY2suDzKelxxeZS1v+LyKOv5xuVR1g6Oy6OsUxyXR1kTOS6Psv5yXPlvA/O8tCsdl8cGEnlJWcXnsT6Vf9Tp8Lpo3iyORSTvlw1ki76xzfRu1Co6wK5tFbvsAJ3K7HU8jfy02e+2hOP0W6Kn/ub29drNPuQYj42tff/Ey+QoTmavHoJ03kH58fg12kznAu8SXybvp6qhsfaOimO2yvGL9NJpIucYqifz4rzX3OIbwxjGMIYxjGEMYxjDGMYwhjGMYQxjGMMYxjCGMYxhDGMYwxjGMIYxjGEMYxjDGMYwhjGMYQxjGMMYxjCGMYxhDGMYwxjGMIYxjGEMYxjD/1PDs058J5Mk8OUvnrqx1ul0Le9XVbfGpqu3xp7LJJDp4vbaRmt5A/EkjLNOGERy7S2y6Zfu011/Z23aKR49P4lDLwviKIdqpJmctK/kdZzIht6dzz/LkYz81QOav9YcdFuip+5c7qobmdUfjVBeZwpsjfRStnM5ktlplKnzk1tcT6NhQdrcEX+skVgSyse9L9bey6224Fo0s3GQdtLiqugZqe3JTp38/J16w3Hzv8Cmakt8det4zr7QvZzEaaAE3+Qv6xzNclMyX6BK4nszpCVWEPlSzYe20zLce7ndVN3xOpChirfm4pzO58koiacT6Yvvvxd/W7z+0Lkce+ni/nc1wXaejs6+OJqfkI43Gp0pj04oo1E2Fi+FK/4pGq/CsCGOVt+RhsFQNtvOzkX3487a+fbsSOJENG/yQ+n+IG5ym0WoLnzVa3/PVxzzC6Q2FcYLvYubj51PciaOj4/nJ6+aYqG6uOw3poe63K4S6X2qsvNnw31M36/O1+LojlVYq2BYRErRyKFz6aVpMIqkf6JaRKQXxZn8WO1ULi/0ZJqOm1WvRX5Jj+bXs/pMCsMjnaPsqHdWdUmzJP4k9Xzm763qFE+8YZDN9KwWb658VIXF0qqqynIhWV1WqkwP48VHbcvpvLrwiLZwTNVMpps+6+dWkVW13v95XU2htt1d8dvvH8S/3/3+Xpy/e//hp19/FD+/+/GnE/H29P2pnsBZvmrLB0+VaCKLRRonmYimt3kcDEXR0iQVXjrMi5cgGmkoLs+90nmSmb2WuNJfXBKZTZNITLwklWdh7GVNTy35O/mlfPLaVfGa1slcX6I9sV0cwjrhz/V2enmsP4vpXkz25gtfXnvTMBOTJM7XMPmiJV58d3BwcnJ6+qLmxjPAAQ5wgAMc4AAHOMABDnCA87+JI9Lpbf5PYOFL9aLwvZkiSqQPGtCABjSgAQ1oQAMa0IAGNKApp7kvfpr1J5qrcCqBAxzgAAc4wAEOcIADHOAABzhVcB6fG+io5waeT6nnBvac4hu2V6/29g4PQQpSkIIUpCAFKUhBClKQghSkIAXpdpC6BamXUaTdgrTXc92DAUhBClKQghSkIAUpSEEKUpCCFKQg3Q7SniI9SwKC1D0sSB1nf7/XAylIQQpSkIIUpCAFKUhBClKQghSk20G6p0g/jKcU6UFBephv/dcgBSlIQQpSkIIUpCAFKUhBClKQgnQ7SPuK9F/Sp0j3C9I3b05O9vdBClKQghSkIAUpSEEKUpCCFKQgBel2kA6KTyamkiIdFKQnJ4MBSEEKUpCCFKQgBSlIQQpSkIIUpCDdFtJ9RfpLTHUWdPsF6cGB6/b7IAUpSEEKUpCCFKQgBSlIQQpSkIJ0Y6RLFD/x7ptrxR46WZCF8nzsTWQnkw9Z88XbeJqk6zFmz/d8E9zKKA3iKJRpobBGYndXvPJ94YlCSdwH2Vik8a0Ufm/NnundqONNJjLymw3l3dhZs8Ny63hZljQbD42WGHQNd5rlO7n6O6XZLJRzvLYXDcdxku/fCOW1Ae1C4zqOsva9DEbjTGlcxaGvrzG/NueT9kmcyMv3MvOCUJzP0nZPnIVJ2xHnw3H7RLz9LRzeZm3ppZn4z6/i19OT1+pdmbwVPfHb+X/Eu+FQvfXFTtllfbmbDpNgkv2DfM/LXT+4+/IwuQ8tlmuJwD9uDFXMn+SnyQsimVzu7TVEce6OG36QTkJvdhREYT7Uvgrj4acfGjRfLjo/BJHNJvn+6vTt3nh33vzV0j3VduclKjzFsfCD20koO5G8P78bNRvfPWdsib1ut/hj7XRTsr6XebnuxR+N0LuSYeOo4ctrbxpmYpLE10EoG635yOVD48jpdFuNOy+cysXfh2pVyvfJF5qTk9PTxueWlo7LpNNj0tlj0ukz6QyYdPaZdA6YdA6ZdJwulxBXRDtcIe1wxbTDFdQOV1Q7XGHtcMW1wxXYDldku1yR7bKt1VyR7XJFtmsU2SKd3t6uPKZaK6Ml0jeQIc+RmQx5hsxkyPNjJkPOezMZctabyZBz3kyGnPFmMuR8N5OhE5mhDlMc02nMUIcpkukkZqjDFMt0CjPUYYpmOoEZ6jDFM52+DHW41mWmeKZzl6GOfjzfB1Fmnrau1Ev6OuTpMdQhT4+hDnl6DHXI6W6oQ053Qx1yuhvqkNPdUIec7oY6dP4yFeKKaDqDmQpxxTSdw0yFuKKazmKmQlxxTecxUyGuyKYzmakQ21rNFdl0MjMV0o/sx+8t1j5XmEpz3ZV/6M0fPMxg4dZv0avfYq9+i379FoP6Lfbrtzio3+KwfouVzF6Xxwbmd8kHs3we9CdbfB70h158HvQnvXwe9IfAfB7058N8HvRHx3we9KfKfPlvA/Pc3UQe30AidzeQyd1qqXzt4xv1yqr58x0ZLOirwWZBXww2C/pasFnQZRWbBV1WsVnQZRWbBV1WsVnQZRWbRck313we9Fd/fB50WcXnQZdVfB50WcXnQZdVfB50WcXnQZdVfB50WcXnQZdVfPlvA/O85Ct+Po8NJPKSsorPo1oqX/uULL2yav4YLQYL+mqwWdAXg82CvhZsFnRZxWZBl1VsFnRZxWZBl1VsFnRZxWZRUlbxedDLLZ8HXVbxedBlFZ8HXVbxedBlFZ8HXVbxedBlFZ8HXVbxedBlFV/+28A8Lymr+Dw2kMhLyio+j2qpfO3DSPTKqvnTShgs6KvBZkFfDDYL+lqwWdBlFZsFXVaxWdBlFZsFXVaxWdBlFZtFSVnF50Evt3wedFnF50GXVXwedFnF50GXVXwedFnF50GXVXwedFnF50GXVXz5bwPzvKSs4vPYQCIvKav4PKql8rU93/XKqnlTeAYL+mqwWdAXg82CvhZsFnRZxWZBl1VsFnRZxWZBl1VsFnRZxWZRUlbxedDLLZ8HXVbxedBlFZ8HXVbxedBlFZ8HXVbxedBlFZ8HXVbxedBlFV/+28A8Lymr+Dw2kMhLyio+j2qpfG1rXb2yat57l8GCvhpsFvTFYLOgrwWbBV1WsVnQZRWbBV1WsVnQZRWbBV1WsVmUlFV8HvRyy+dBl1V8HnRZxedBl1V8HnRZxedBl1V8HnRZxedBl1V8HnRZxZf/NjDPS8oqPo8NJPKSsorPo1oqX9vBUK+smrc4ZLCgrwabBX0x2Czoa8FmQZdVbBZ0WcVmQZdVbBZ0WcVmQZdVbBalzda4POjlls+jrJEVl0dZjysuj7L2V1weZT3fuDzK2sFxeZR1iuPyKGsix+VR1l+OK/9tYJ6XdqXj8thAIi8pq/g81qfyjzodXhfNm8WxiOT9soFs0Te2md6NWkUH2LWtYpcdoFOZvY6nkZ82+92WcJx+S/TU39y+XrvZhxzjsbG17594mRzFyezVQ5DOOyg/Hr9Gm+lc4F3iy+T9VDU01t5RccxWOX6RXjpN5BxD9WRenPeaW3xjGMMYxjCGMYxhDGMYwxjGMIYxjGEMYxjDGMYwhjGMYQxjGMMYxjCGMYxhDGMYwxjGMIYxjGEMYxjDGMYwhjGMYQxjGMMYxjCGMYxhDGP4f2p41onvZJIEvvzFUzfWOp2u5f2q6tbYdPXW2HOZBDJd3F7baC1vIJ6EcdYJg0iuvUU2/dJ9uuvvrE07xaPnJ3HoZUEc5VCNNJOT9pW8jhPZ0Lvz+Wc5kpG/ekDz15qDbkv01J3LXXUjs/qjEcrrTIGtkV7Kdi5HMjuNMnV+covraTQsSJs74o81EktC+bj3xdp7udUWXItmNg7STlpcFT0jtT3ZqZOfv1NvOG7+F9hUbYmvbh3P2Re6l5M4DZTgm/xlnaNZbkrmC1RJfG+GtMQKIl+q+dB2WoZ7L7ebqjteBzJU8dZcnNP5PBkl8XQiffH99+Jvi9cfOpdjL13c/64m2M7T0dkXR/MT0vFGozPl0QllNMrG4qVwxT9F41UYNsTR6jvSMBjKZtvZueh+3Fk7354dSZyI5k1+KN0fxE1uswjVha967e/5imN+gdSmwnihd3HzsfNJzsTx8fH85FVTLFQXl/3G9FCX21UivU9Vdv5suI/p+9X5WhzdsQprFQyLSCkaOXQuvTQNRpH0T1SLiPSiOJMfq53K5YWeTNNxs+q1yC/p0fx6Vp9JYXikc5Qd9c6qLmmWxJ+kns/8vVWd4ok3DLKZntXizZWPqrBYWlVVWS4kq8tKlelhvPiobTmdVxce0RaOqZrJdNNn/dwqsqrW+z+vqynUtrsrfvv9g/j3u9/fi/N37z/89OuP4ud3P/50It6evj/VEzjLV2354KkSTWSxSOMkE9H0No+DoShamqTCS4d58RJEIw3F5blXOk8ys9cSV/qLSyKzaRKJiZek8iyMvazpqSV/J7+UT167Kl7TOpnrS7QntotDWCf8ud5OL4/1ZzHdi8nefOHLa28aZmKSxPkaJl+0xIvvDg5OTk5PX9TceAY4wAEOcIADHOAABzjAAQ5w/jdxRDq9zf8JLHypXhS+N1NEifRBAxrQgAY0oAENaEADGtCABjTlNPfFT7P+RHMVTiVwgAMc4AAHOMABDnCAAxzgAKcKzuNzAx313MDzKfXcwJ5TfMP26tXe3uEhSEEKUpCCFKQgBSlIQQpSkIIUpCDdDlK3IPUyirRbkPZ6rnswAClIQQpSkIIUpCAFKUhBClKQghSk20HaU6RnSUCQuocFqePs7/d6IAUpSEEKUpCCFKQgBSlIQQpSkIJ0O0j3FOmH8ZQiPShID/Ot/xqkIAUpSEEKUpCCFKQgBSlIQQpSkG4HaV+R/kv6FOl+QfrmzcnJ/j5IQQpSkIIUpCAFKUhBClKQghSkIN0O0kHxycRUUqSDgvTkZDAAKUhBClKQghSkIAUpSEEKUpCCFKTbQrqvSH+Jqc6Cbr8gPThw3X4fpCAFKUhBClKQghSkIAUpSEEKUpBujHSJ4ifefXOt2EMnC7JQno+9iexk8iFrvngbT5N0Pcbs+Z5vglsZpUEchTItFNZI7O6KV74vPFEoifsgG4s0vpXC763ZM70bdbzJREZ+s6G8GztrdlhuHS/LkmbjodESg67hTrN8J1d/pzSbhXKO1/ai4ThO8v0bobw2oF1oXMdR1r6XwWicKY2rOPT1NebX5nzSPktymcv3MvOCUJzP0nZPnIVJ2xHnw3H7RLz9LRzeZu00nuaX4T+/il9PT16rt2XyVvTEb+f/Ee+GQ/XeFztlF/blbjpMgkn2D/I9L3f94O7Lw+Q+tFiuJQL/uDFUUX+SH6EXRDK53Os3RHH2jht+kE5Cb3YURGE+1L4K4+GnHxo0Xy46PwSRzSb5/uoE7t54d9781dI91XbnJSpAxbHwg9tJKDuRvD+/GzUb3z1nbIm9brf4Y+2EU7K+l3m57sUfjdC7kmHjqOHLa28aZmKSxNdBKBut+cjlQ+PI6XRbjTsvnMrF34dqXcr3yZeak5PT08bnlpaOy6TTY9LZY9LpM+kMmHT2mXQOmHQOmXScLpcQV0Q7XCHtcMW0wxXUDldUO1xh7XDFtcMV2A5XZLtcke2yrdVcke1yRbZrFNkind7erjyoWiujJdI3kCHPkZkMeYbMZMjzYyZDznszGXLWm8mQc95MhpzxZjLkfDeToROZoQ5THNNpzFCHKZLpJGaowxTLdAoz1GGKZjqBGeowxTOdvgx1uNZlpnimc5ehjn483wdRZp62rtRL+jrk6THUIU+PoQ55egx1yOluqENOd0Mdcrob6pDT3VCHnO6GOnT+MhXiimg6g5kKccU0ncNMhbiims5ipkJccU3nMVMhrsimM5mpENtazRXZdDIzFdKP7MdvLtY+WZhKc92Vf+jNHz3MYOHWb9Gr32Kvfot+/RaD+i3267c4qN/isH6Llcxel8cG5nfJB7N8HvQnW3we9IdefB70J718HvSHwHwe9OfDfB70R8d8HvSnynz5bwPz3N1EHt9AInc3kMndaql87QMc9cqq+RMeGSzoq8FmQV8MNgv6WrBZ0GUVmwVdVrFZ0GUVmwVdVrFZ0GUVm0XJN9d8HvRXf3wedFnF50GXVXwedFnF50GXVXwedFnF50GXVXwedFnF50GXVXz5bwPzvOQrfj6PDSTykrKKz6NaKl/7nCy9smr+IC0GC/pqsFnQF4PNgr4WbBZ0WcVmQZdVbBZ0WcVmQZdVbBZ0WcVmUVJW8XnQyy2fB11W8XnQZRWfB11W8XnQZRWfB11W8XnQZRWfB11W8XnQZRVf/tvAPC8pq/g8NpDIS8oqPo9qqXzt40j0yqr580oYLOirwWZBXww2C/pasFnQZRWbBV1WsVnQZRWbBV1WsVnQZRWbRUlZxedBL7d8HnRZxedBl1V8HnRZxedBl1V8HnRZxedBl1V8HnRZxedBl1V8+W8D87ykrOLz2EAiLymr+DyqpfK1Xd/1yqp5W3gGC/pqsFnQF4PNgr4WbBZ0WcVmQZdVbBZ0WcVmQZdVbBZ0WcVmUVJW8XnQyy2fB11W8XnQZRWfB11W8XnQZRWfB11W8XnQZRWfB11W8XnQZRVf/tvAPC8pq/g8NpDIS8oqPo9qqXxtc129smrefZfBgr4abBb0xWCzoK8FmwVdVrFZ0GUVmwVdVrFZ0GUVmwVdVrFZlJRVfB70csvnQZdVfB50WcXnQZdVfB50WcXnQZdVfB50WcXnQZdVfB50WcWX/zYwz0vKKj6PDSTykrKKz6NaKl/bw1CvrJo3OWSwoK8GmwV9Mdgs6GvBZkGXVWwWdFnFZkGXVWwWdFnFZkGXVWwWpc3WuDzo5ZbPo6yRFZdHWY8rLo+y9ldcHmU937g8ytrBcXmUdYrj8ihrIsflUdZfjiv/bWCel3al4/LYQCIvKav4PNan8o86HV4X7ZvFsYjk/bKBbNE3tpnejVpFB9i1rWKXPaBTmb2Op5GfNvvdlnCcfkv01N/cvl672Ycc47G1te+feJkcxcns1UOQznsoPx6/RqPpXOBd4svk/VS1NNbeUXHMVjl+kV46TeQcQ3VlXpz3mpt8YxjDGMYwhjGMYQxjGMMYxjCGMYxhDGMYwxjGMIYxjGEMYxjDGMYwhjGMYQxjGMMYxjCGMYxhDGMYwxjGMIYxjGEMYxjDGMYwhjGMYQxj+H9qeNaJ72SSBL78xVM31jqdruX9qurW2HT11thzmQQyXdxe22gtbyCehHHWCYNIrr1FNv3Sfbrr76xNO8Wj5ydx6GVBHOVQjTSTk/aVvI4T2dC78/lnOZKRv3pA89eag25L9NSdy111I7P6oxHK60yBrZFeynYuRzI7jTJ1fnKL62k0LEibO+KPNRJLQvm498Xae7nVFlyLZjYO0k5aXBU9I7U92amTn79Tbzhu/hfYVG2Jr24dz9kXupeTOA2U4Jv8ZZ2jWW5K5gtUSXxvhrTECiJfqvnQdlqGey+3m6o7XgcyVPHWXJzT+TwZJfF0In3x/ffib4vXHzqXYy9d3P+uJtjO09HZF0fzE9LxRqMz5dEJZTTKxuKlcMU/ReNVGDbE0eo70jAYymbb2bnoftxZO9+eHUmciOZNfijdH8RNbrMI1YWveu3v+YpjfoHUpsJ4oXdx87HzSc7E8fHx/ORVUyxUF5f9xvRQl9tVIr1PVXb+bLiP6fvV+Voc3bEKaxUMi0gpGjl0Lr00DUaR9E9Ui4j0ojiTH6udyuWFnkzTcbPqtcgv6dH8elafSWF4pHOUHfXOqi5plsSfpJ7P/L1VneKJNwyymZ7V4s2Vj6qwWFpVVVkuJKvLSpXpYbz4qG05nVcXHtEWjqmayXTTZ/3cKrKq1vs/r6sp1La7K377/YP497vf34vzd+8//PTrj+Lndz/+dCLenr4/1RM4y1dt+eCpEk1ksUjjJBPR9DaPg6EoWpqkwkuHefESRCMNxeW5VzpPMrPXElf6i0sis2kSiYmXpPIsjL2s6aklfye/lE9euype0zqZ60u0J7aLQ1gn/LneTi+P9Wcx3YvJ3nzhy2tvGmZiksT5GiZftMSL7w4OTk5OT1/U3HgGOMABDnCAAxzgAAc4wAEOcP43cUQ6vc3/CSx8qV4UvjdTRIn0QQMa0IAGNKABDWhAAxrQgAY05TT3xU+z/kRzFU4lcIADHOAABzjAAQ5wgAMc4ACnCs7jcwMd9dzA8yn13MCeU3zD9urV3t7hIUhBClKQghSkIAUpSEEKUpCCFKQg3Q5StyD1Moq0W5D2eq57MAApSEEKUpCCFKQgBSlIQQpSkIIUpNtB2lOkZ0lAkLqHBanj7O/3eiAFKUhBClKQghSkIAUpSEEKUpCCdDtI9xTph/GUIj0oSA/zrf8apCAFKUhBClKQghSkIAUpSEEKUpBuB2lfkf5L+hTpfkH65s3Jyf4+SEEKUpCCFKQgBSlIQQpSkIIUpCDdDtJB8cnEVFKkg4L05GQwAClIQQpSkIIUpCAFKUhBClKQghSk20K6r0h/ianOgm6/ID04cN1+H6QgBSlIQQpSkIIUpCAFKUhBClKQbox0ieIn3n1zrdhDJwuyUJ6PvYnsZPIha754G0+TdD3G7Pmeb4JbGaVBHIUyLRTWSOzuile+LzxRKIn7IBuLNL6Vwu+t2TO9G3W8yURGfrOhvBs7a3ZYbh0vy5Jm46HREoOu4U6zfCdXf6c0m4Vyjtf2ouE4TvL9G6G8NqBdaFzHUda+l8FonCmNqzj09TXm1+Z80v4tDqLs8t315bmXn+3zWdruibMwaTvifDhun4i3v4XD26ydxtP8OvznV/Hr6clr9bZM3oqe+O38P+LdcKje+2Kn7Mq+3E2HSTDJ/kG+5+WuH9x9eZjchxbLtUTgHzeGKuxP8jPlBZFMLvcGDVGcvuOGH6ST0JsdBVGYD7Wvwnj46YcGzZeLzg9BZLNJvr86g7s33p03f7V0T7XdeYmKUHEs/OB2EspOJO/P70bNxnfPGVtir9st/lg745Ss72VernvxRyP0rmTYOGr48tqbhpmYJPF1EMpGaz5y+dA4cjrdVuPOC6eycTQ47Bw+2Q4OW42hWqZyhXzlOTk5PW18bmmpurWo9mpR3atFtV+L6qAW1f1aVA9qUT2sRdXp1iNbz+xy6pleTj3zy6lngjn1zDCnninm1DPHnHommVPPLHPrmWVuTTmsnlnm1jPLXItZJtLp7e3Kk78rVAiJ9A1ENc+tmajmmTUT1TyvZqKaa5eZqObKZSaquW6ZiWquWmaimmuWmahuYWCoWsuc0i0LDFVrmVW6RYGhai3zSrckMFStZWbpFgSGqrXMLd1ywFC1nnxVy9zSrQUMVavOrfsgymzLgCv1Bn1VzdNqqKp5Wg1VNU+roarmkmWoqrlkGapqLlmGqppLlqGq5pJlqKpbD5jK1jO7dCsCU9l65pduTWAqW88M060KTGXrmWO6dYGpbD2zTLcyMJWtKYfVM8t0iwNTWaNZ9lHnC4fF14niWETyfvl9RvE1RjO9G7WKLyTWfnOx/E4yldnreBr5abPfbQnH6bdET/3N7et9+/GQYzx+1er7J14mR3Eye/UQpPPv9B5PhcYXn7nAu8SXyfup+opNe0fFMVvl+EV66TSRcwz1LeHiEth+lVt8j7RqdS6TQKYL3NxpcUEmYZx11Jdbay3TLx33etK0U8TdJA69LIijHKqRZnLSvpLXcSIbepH0sxzJyF89oPlrzUEeBT0VCerLMEf9sfimdO2XyEvZzuVIZqdRps5PbnE9jYYFaXNH/KHxVakilI97X6ydG2oLrkUzGwdpHtdqPz0jtT3ZqZOfv1NvOG7+F9hUbYm/+G5woXs5idNACb7JX9Y5muWmZL5AlcT3ZkhLrCDypZq4badluPdyu6m643UgQxVvzcU5nc+TURJPJ9IX338v/rZ4/aFzOfbSxXqiJtjO09HZF0fzE9LxRqMz5dEJZTTKxuKlcMU/ReNVGDbE0eo70jAYymbb2bnoftxZO9+eHUmciOZNfijdH8RNbrMI1YWveu3vx8Ixv0BqU2G80Lu4+dj5JPPl7fh4fvKqKRaqi8t+Y3qoy+0qkd6nKjt/NtzH9P3qfC2O7liFtQqGRaQUibFzOf8ZkPSLHwKlF8WZ/FjtVC4v9GSajptVr0V+SY/m17P6TArDI52j7Kh3VnVJsyT+JPV85u+t6hRPvGGQzfSsFm+ufFSFxdKqqspyIVldVqpMD+PFR23L6by68Ii2cEzVTKabPuvnVpFVtd7/eV1NobbdXfHb7x/Ev9/9/l6cv3v/4adffxQ/v/vxpxPx9vT9qZ7AWb5qywdPlWgii0Ua54V0NL3N42AoihIxFV46zIuXIBppKC7PvdJ5kpm9lrjSX1wSmU2TSEy8JJVnYexlTU8t+Tv5pXzy2lXxmtbJXF+iPbFdHMI64c9f4eeaf/oCdvGbTPWF6lf59ShwgAMc4AAHOMABDnCAAxzgbD3O8x+4KKJE+qABDWhAAxrQgAY0oAENaEADmnKaZz8JVDTqJ37AAQ5wgAMc4AAHOMABDnCAA5yv2CTxg7ydyMTLpokUzbMdtEn8ptok/stTEfdWFv95dXsVyCgT6pKpvofSn+bnvy32u2fb0QJxfwtaIO5vrAViceNp1RZMTDo9Jp09Jp0+k86ASWefSeeASeeQSWelt4CVEFdEO1wh7XDFtMMV1A5XVDtcYe1wxbXDFdgOV2S7XJHtsq3VXJHtckW2axTZ+i37VqSqN+mzkCHPUPVGfBYy5Lyv3mzPQoac89Ub6lnIkPPdommejQ5THNNpzKIVno0OUyjTOcyiwZ2NDlM00wnMom2dzTrIFM909rJoRmejwxTPdOqq3mJuRcaiqZyNDnl6LBrH2eiQ092iOZyNDjndLRrA2eiQ092myZuVEFdE0xnMpnWblRBXUNNJzKYhm5UQV1zTecymzZrVysgV2XQqs2meZiXEFdl0NkNLtK1oiYZhDGMYwxjGMIYxjGEMYxjDGMYwhjGM4W9peNaJ72SSBL78xVMfVDmdLlriPzkStMR/3NAS32hDS3y0xDfY0BL/zxta4v95Q0t8ww0t8dES/4sbWuIDBzjAAQ5wgAMc4AAHOMABDnC2oaEkaEADGtCABjSgAQ1oQAMa0GwPzV+mkSVwgAMc4AAHOMABDnCAAxzgVPf7Ci3x3wS3MkqDOAplmqIh/rfVED9OPonT6+tgGMhoOHtsg7/ZBviLd/9p5On/L/8+/++j+uIvj/+5iv2Z+u84uw3/8f/+PxEgzNc="
               },
               {
                  "name" : "annual_peak_electric_demand",
                  "units" : "kW",
                  "value" : 88.104179999999999
               },
               {
                  "name" : "first_year_capital_cost",
                  "units" : "$",
                  "value" : 0
               },
               {
                  "name" : "annual_utility_cost",
                  "units" : "$",
                  "value" : 27906.860000000001
               },
               {
                  "name" : "total_lifecycle_cost",
                  "units" : "$",
                  "value" : 470710.92999999999
               }
            ],
            "step_warnings" : []
         }
      }
   ],
   "updated_at" : "20170710T190917Z",
   "weather_file" : "USA_CO_Denver.Intl.AP.725650_TMY3.epw"
}
