{
   "completed_at" : "20170710T193903Z",
   "completed_status" : "Success",
   "created_at" : "2017-07-10 19:22:25 +0000",
   "current_step" : 5,
   "description" : "",
   "eplusout_err" : "Program Version,EnergyPlus, Version 8.7.0-78a111df4a, YMD=2017.07.10 19:27,IDD_Version 8.7.0\n   ************* IDF Context for following error/warning message:\n   ************* Note -- lines truncated at 300 characters, if necessary...\n   *************      5 Building,\n   ************* indicated Name=NECB 2011-HighriseApartment-NECB HDD Method-CAN_NS_Greenwood.713970_CWEC.epw created: 2017-07-10 19:22:34 +0000\n   ************* Only last 1 lines before error line shown.....\n   *************      6   NECB 2011-HighriseApartment-NECB HDD Method-CAN_NS_Greenwood.713970_CWEC.epw created: 2017-07-10 19:22:34 +0000, !- Name\n   ** Warning ** IP: IDF line~6 Alpha Argument length exceeds maximum, will be truncated=  NECB 2011-HighriseApartment-NECB HDD Method-CAN_NS_Greenwood.713970_CWEC.epw created: 2017-07-10 19:22:34 +000\n   **   ~~~   ** Will be processed as Alpha=NECB 2011-HIGHRISEAPARTMENT-NECB HDD METHOD-CAN_NS_GREENWOOD.713970_CWEC.EPW CREATED: 2017-07-10 19:22:34 +0000\n   ************* Beginning Zone Sizing Calculations\n   ** Warning ** ProcessScheduleInput: Schedule:Day:Interval=\"ECONOMIZER MAX OA FRACTION 100 PCT DEFAULT\", Blank Schedule Type Limits Name input -- will not be validated.\n   ** Warning ** ProcessScheduleInput: Schedule:Day:Interval=\"SCHEDULE DAY 1\", Blank Schedule Type Limits Name input -- will not be validated.\n   ** Warning ** ProcessScheduleInput: Schedule:Day:Interval=\"SCHEDULE DAY 10\", Blank Schedule Type Limits Name input -- will not be validated.\n   ** Warning ** ProcessScheduleInput: Schedule:Day:Interval=\"SCHEDULE DAY 100\", Blank Schedule Type Limits Name input -- will not be validated.\n   ** Warning ** ProcessScheduleInput: Schedule:Day:Interval=\"SCHEDULE DAY 101\", Blank Schedule Type Limits Name input -- will not be validated.\n   ** Warning ** ProcessScheduleInput: Schedule:Day:Interval=\"SCHEDULE DAY 102\", Blank Schedule Type Limits Name input -- will not be validated.\n   ** Warning ** ProcessScheduleInput: Schedule:Day:Interval=\"SCHEDULE DAY 103\", Blank Schedule Type Limits Name input -- will not be validated.\n   ** Warning ** ProcessScheduleInput: Schedule:Day:Interval=\"SCHEDULE DAY 104\", Blank Schedule Type Limits Name input -- will not be validated.\n   ** Warning ** ProcessScheduleInput: Schedule:Day:Interval=\"SCHEDULE DAY 105\", Blank Schedule Type Limits Name input -- will not be validated.\n   ** Warning ** ProcessScheduleInput: Schedule:Day:Interval=\"SCHEDULE DAY 106\", Blank Schedule Type Limits Name input -- will not be validated.\n   ** Warning ** ProcessScheduleInput: Schedule:Day:Interval=\"SCHEDULE DAY 107\", Blank Schedule Type Limits Name input -- will not be validated.\n   ** Warning ** ProcessScheduleInput: Schedule:Day:Interval=\"SCHEDULE DAY 108\", Blank Schedule Type Limits Name input -- will not be validated.\n   ** Warning ** ProcessScheduleInput: Schedule:Day:Interval=\"SCHEDULE DAY 109\", Blank Schedule Type Limits Name input -- will not be validated.\n   ** Warning ** ProcessScheduleInput: Schedule:Day:Interval=\"SCHEDULE DAY 11\", Blank Schedule Type Limits Name input -- will not be validated.\n   ** Warning ** ProcessScheduleInput: Schedule:Day:Interval=\"SCHEDULE DAY 110\", Blank Schedule Type Limits Name input -- will not be validated.\n   ** Warning ** ProcessScheduleInput: Schedule:Day:Interval=\"SCHEDULE DAY 111\", Blank Schedule Type Limits Name input -- will not be validated.\n   ** Warning ** ProcessScheduleInput: Schedule:Day:Interval=\"SCHEDULE DAY 112\", Blank Schedule Type Limits Name input -- will not be validated.\n   ** Warning ** ProcessScheduleInput: Schedule:Day:Interval=\"SCHEDULE DAY 113\", Blank Schedule Type Limits Name input -- will not be validated.\n   ** Warning ** ProcessScheduleInput: Schedule:Day:Interval=\"SCHEDULE DAY 114\", Blank Schedule Type Limits Name input -- will not be validated.\n   ** Warning ** ProcessScheduleInput: Schedule:Day:Interval=\"SCHEDULE DAY 115\", Blank Schedule Type Limits Name input -- will not be validated.\n   ** Warning ** ProcessScheduleInput: Schedule:Day:Interval=\"SCHEDULE DAY 116\", Blank Schedule Type Limits Name input -- will not be validated.\n   ** Warning ** ProcessScheduleInput: Schedule:Day:Interval=\"SCHEDULE DAY 117\", Blank Schedule Type Limits Name input -- will not be validated.\n   ** Warning ** ProcessScheduleInput: Schedule:Day:Interval=\"SCHEDULE DAY 118\", Blank Schedule Type Limits Name input -- will not be validated.\n   ** Warning ** ProcessScheduleInput: Schedule:Day:Interval=\"SCHEDULE DAY 119\", Blank Schedule Type Limits Name input -- will not be validated.\n   ** Warning ** ProcessScheduleInput: Schedule:Day:Interval=\"SCHEDULE DAY 12\", Blank Schedule Type Limits Name input -- will not be validated.\n   ** Warning ** ProcessScheduleInput: Schedule:Day:Interval=\"SCHEDULE DAY 120\", Blank Schedule Type Limits Name input -- will not be validated.\n   ** Warning ** ProcessScheduleInput: Schedule:Day:Interval=\"SCHEDULE DAY 121\", Blank Schedule Type Limits Name input -- will not be validated.\n   ** Warning ** ProcessScheduleInput: Schedule:Day:Interval=\"SCHEDULE DAY 122\", Blank Schedule Type Limits Name input -- will not be validated.\n   ** Warning ** ProcessScheduleInput: Schedule:Day:Interval=\"SCHEDULE DAY 123\", Blank Schedule Type Limits Name input -- will not be validated.\n   ** Warning ** ProcessScheduleInput: Schedule:Day:Interval=\"SCHEDULE DAY 124\", Blank Schedule Type Limits Name input -- will not be validated.\n   ** Warning ** ProcessScheduleInput: Schedule:Day:Interval=\"SCHEDULE DAY 125\", Blank Schedule Type Limits Name input -- will not be validated.\n   ** Warning ** ProcessScheduleInput: Schedule:Day:Interval=\"SCHEDULE DAY 126\", Blank Schedule Type Limits Name input -- will not be validated.\n   ** Warning ** ProcessScheduleInput: Schedule:Day:Interval=\"SCHEDULE DAY 127\", Blank Schedule Type Limits Name input -- will not be validated.\n   ** Warning ** ProcessScheduleInput: Schedule:Day:Interval=\"SCHEDULE DAY 128\", Blank Schedule Type Limits Name input -- will not be validated.\n   ** Warning ** ProcessScheduleInput: Schedule:Day:Interval=\"SCHEDULE DAY 129\", Blank Schedule Type Limits Name input -- will not be validated.\n   ** Warning ** ProcessScheduleInput: Schedule:Day:Interval=\"SCHEDULE DAY 13\", Blank Schedule Type Limits Name input -- will not be validated.\n   ** Warning ** ProcessScheduleInput: Schedule:Day:Interval=\"SCHEDULE DAY 130\", Blank Schedule Type Limits Name input -- will not be validated.\n   ** Warning ** ProcessScheduleInput: Schedule:Day:Interval=\"SCHEDULE DAY 131\", Blank Schedule Type Limits Name input -- will not be validated.\n   ** Warning ** ProcessScheduleInput: Schedule:Day:Interval=\"SCHEDULE DAY 132\", Blank Schedule Type Limits Name input -- will not be validated.\n   ** Warning ** ProcessScheduleInput: Schedule:Day:Interval=\"SCHEDULE DAY 133\", Blank Schedule Type Limits Name input -- will not be validated.\n   ** Warning ** ProcessScheduleInput: Schedule:Day:Interval=\"SCHEDULE DAY 134\", Blank Schedule Type Limits Name input -- will not be validated.\n   ** Warning ** ProcessScheduleInput: Schedule:Day:Interval=\"SCHEDULE DAY 135\", Blank Schedule Type Limits Name input -- will not be validated.\n   ** Warning ** ProcessScheduleInput: Schedule:Day:Interval=\"SCHEDULE DAY 136\", Blank Schedule Type Limits Name input -- will not be validated.\n   ** Warning ** ProcessScheduleInput: Schedule:Day:Interval=\"SCHEDULE DAY 137\", Blank Schedule Type Limits Name input -- will not be validated.\n   ** Warning ** ProcessScheduleInput: Schedule:Day:Interval=\"SCHEDULE DAY 138\", Blank Schedule Type Limits Name input -- will not be validated.\n   ** Warning ** ProcessScheduleInput: Schedule:Day:Interval=\"SCHEDULE DAY 139\", Blank Schedule Type Limits Name input -- will not be validated.\n   ** Warning ** ProcessScheduleInput: Schedule:Day:Interval=\"SCHEDULE DAY 14\", Blank Schedule Type Limits Name input -- will not be validated.\n   ** Warning ** ProcessScheduleInput: Schedule:Day:Interval=\"SCHEDULE DAY 140\", Blank Schedule Type Limits Name input -- will not be validated.\n   ** Warning ** ProcessScheduleInput: Schedule:Day:Interval=\"SCHEDULE DAY 141\", Blank Schedule Type Limits Name input -- will not be validated.\n   ** Warning ** ProcessScheduleInput: Schedule:Day:Interval=\"SCHEDULE DAY 142\", Blank Schedule Type Limits Name input -- will not be validated.\n   ** Warning ** ProcessScheduleInput: Schedule:Day:Interval=\"SCHEDULE DAY 143\", Blank Schedule Type Limits Name input -- will not be validated.\n   ** Warning ** ProcessScheduleInput: Schedule:Day:Interval=\"SCHEDULE DAY 144\", Blank Schedule Type Limits Name input -- will not be validated.\n   ** Warning ** ProcessScheduleInput: Schedule:Day:Interval=\"SCHEDULE DAY 145\", Blank Schedule Type Limits Name input -- will not be validated.\n   ** Warning ** ProcessScheduleInput: Schedule:Day:Interval=\"SCHEDULE DAY 146\", Blank Schedule Type Limits Name input -- will not be validated.\n   ** Warning ** ProcessScheduleInput: Schedule:Day:Interval=\"SCHEDULE DAY 147\", Blank Schedule Type Limits Name input -- will not be validated.\n   ** Warning ** ProcessScheduleInput: Schedule:Day:Interval=\"SCHEDULE DAY 148\", Blank Schedule Type Limits Name input -- will not be validated.\n   ** Warning ** ProcessScheduleInput: Schedule:Day:Interval=\"SCHEDULE DAY 149\", Blank Schedule Type Limits Name input -- will not be validated.\n   ** Warning ** ProcessScheduleInput: Schedule:Day:Interval=\"SCHEDULE DAY 15\", Blank Schedule Type Limits Name input -- will not be validated.\n   ** Warning ** ProcessScheduleInput: Schedule:Day:Interval=\"SCHEDULE DAY 150\", Blank Schedule Type Limits Name input -- will not be validated.\n   ** Warning ** ProcessScheduleInput: Schedule:Day:Interval=\"SCHEDULE DAY 151\", Blank Schedule Type Limits Name input -- will not be validated.\n   ** Warning ** ProcessScheduleInput: Schedule:Day:Interval=\"SCHEDULE DAY 152\", Blank Schedule Type Limits Name input -- will not be validated.\n   ** Warning ** ProcessScheduleInput: Schedule:Day:Interval=\"SCHEDULE DAY 153\", Blank Schedule Type Limits Name input -- will not be validated.\n   ** Warning ** ProcessScheduleInput: Schedule:Day:Interval=\"SCHEDULE DAY 154\", Blank Schedule Type Limits Name input -- will not be validated.\n   ** Warning ** ProcessScheduleInput: Schedule:Day:Interval=\"SCHEDULE DAY 155\", Blank Schedule Type Limits Name input -- will not be validated.\n   ** Warning ** ProcessScheduleInput: Schedule:Day:Interval=\"SCHEDULE DAY 156\", Blank Schedule Type Limits Name input -- will not be validated.\n   ** Warning ** ProcessScheduleInput: Schedule:Day:Interval=\"SCHEDULE DAY 157\", Blank Schedule Type Limits Name input -- will not be validated.\n   ** Warning ** ProcessScheduleInput: Schedule:Day:Interval=\"SCHEDULE DAY 158\", Blank Schedule Type Limits Name input -- will not be validated.\n   ** Warning ** ProcessScheduleInput: Schedule:Day:Interval=\"SCHEDULE DAY 159\", Blank Schedule Type Limits Name input -- will not be validated.\n   ** Warning ** ProcessScheduleInput: Schedule:Day:Interval=\"SCHEDULE DAY 16\", Blank Schedule Type Limits Name input -- will not be validated.\n   ** Warning ** ProcessScheduleInput: Schedule:Day:Interval=\"SCHEDULE DAY 160\", Blank Schedule Type Limits Name input -- will not be validated.\n   ** Warning ** ProcessScheduleInput: Schedule:Day:Interval=\"SCHEDULE DAY 161\", Blank Schedule Type Limits Name input -- will not be validated.\n   ** Warning ** ProcessScheduleInput: Schedule:Day:Interval=\"SCHEDULE DAY 162\", Blank Schedule Type Limits Name input -- will not be validated.\n   ** Warning ** ProcessScheduleInput: Schedule:Day:Interval=\"SCHEDULE DAY 163\", Blank Schedule Type Limits Name input -- will not be validated.\n   ** Warning ** ProcessScheduleInput: Schedule:Day:Interval=\"SCHEDULE DAY 164\", Blank Schedule Type Limits Name input -- will not be validated.\n   ** Warning ** ProcessScheduleInput: Schedule:Day:Interval=\"SCHEDULE DAY 165\", Blank Schedule Type Limits Name input -- will not be validated.\n   ** Warning ** ProcessScheduleInput: Schedule:Day:Interval=\"SCHEDULE DAY 166\", Blank Schedule Type Limits Name input -- will not be validated.\n   ** Warning ** ProcessScheduleInput: Schedule:Day:Interval=\"SCHEDULE DAY 167\", Blank Schedule Type Limits Name input -- will not be validated.\n   ** Warning ** ProcessScheduleInput: Schedule:Day:Interval=\"SCHEDULE DAY 168\", Blank Schedule Type Limits Name input -- will not be validated.\n   ** Warning ** ProcessScheduleInput: Schedule:Day:Interval=\"SCHEDULE DAY 169\", Blank Schedule Type Limits Name input -- will not be validated.\n   ** Warning ** ProcessScheduleInput: Schedule:Day:Interval=\"SCHEDULE DAY 17\", Blank Schedule Type Limits Name input -- will not be validated.\n   ** Warning ** ProcessScheduleInput: Schedule:Day:Interval=\"SCHEDULE DAY 170\", Blank Schedule Type Limits Name input -- will not be validated.\n   ** Warning ** ProcessScheduleInput: Schedule:Day:Interval=\"SCHEDULE DAY 171\", Blank Schedule Type Limits Name input -- will not be validated.\n   ** Warning ** ProcessScheduleInput: Schedule:Day:Interval=\"SCHEDULE DAY 172\", Blank Schedule Type Limits Name input -- will not be validated.\n   ** Warning ** ProcessScheduleInput: Schedule:Day:Interval=\"SCHEDULE DAY 173\", Blank Schedule Type Limits Name input -- will not be validated.\n   ** Warning ** ProcessScheduleInput: Schedule:Day:Interval=\"SCHEDULE DAY 174\", Blank Schedule Type Limits Name input -- will not be validated.\n   ** Warning ** ProcessScheduleInput: Schedule:Day:Interval=\"SCHEDULE DAY 175\", Blank Schedule Type Limits Name input -- will not be validated.\n   ** Warning ** ProcessScheduleInput: Schedule:Day:Interval=\"SCHEDULE DAY 176\", Blank Schedule Type Limits Name input -- will not be validated.\n   ** Warning ** ProcessScheduleInput: Schedule:Day:Interval=\"SCHEDULE DAY 177\", Blank Schedule Type Limits Name input -- will not be validated.\n   ** Warning ** ProcessScheduleInput: Schedule:Day:Interval=\"SCHEDULE DAY 178\", Blank Schedule Type Limits Name input -- will not be validated.\n   ** Warning ** ProcessScheduleInput: Schedule:Day:Interval=\"SCHEDULE DAY 179\", Blank Schedule Type Limits Name input -- will not be validated.\n   ** Warning ** ProcessScheduleInput: Schedule:Day:Interval=\"SCHEDULE DAY 18\", Blank Schedule Type Limits Name input -- will not be validated.\n   ** Warning ** ProcessScheduleInput: Schedule:Day:Interval=\"SCHEDULE DAY 180\", Blank Schedule Type Limits Name input -- will not be validated.\n   ** Warning ** ProcessScheduleInput: Schedule:Day:Interval=\"SCHEDULE DAY 181\", Blank Schedule Type Limits Name input -- will not be validated.\n   ** Warning ** ProcessScheduleInput: Schedule:Day:Interval=\"SCHEDULE DAY 182\", Blank Schedule Type Limits Name input -- will not be validated.\n   ** Warning ** ProcessScheduleInput: Schedule:Day:Interval=\"SCHEDULE DAY 183\", Blank Schedule Type Limits Name input -- will not be validated.\n   ** Warning ** ProcessScheduleInput: Schedule:Day:Interval=\"SCHEDULE DAY 184\", Blank Schedule Type Limits Name input -- will not be validated.\n   ** Warning ** ProcessScheduleInput: Schedule:Day:Interval=\"SCHEDULE DAY 185\", Blank Schedule Type Limits Name input -- will not be validated.\n   ** Warning ** ProcessScheduleInput: Schedule:Day:Interval=\"SCHEDULE DAY 186\", Blank Schedule Type Limits Name input -- will not be validated.\n   ** Warning ** ProcessScheduleInput: Schedule:Day:Interval=\"SCHEDULE DAY 187\", Blank Schedule Type Limits Name input -- will not be validated.\n   ** Warning ** ProcessScheduleInput: Schedule:Day:Interval=\"SCHEDULE DAY 188\", Blank Schedule Type Limits Name input -- will not be validated.\n   ** Warning ** ProcessScheduleInput: Schedule:Day:Interval=\"SCHEDULE DAY 189\", Blank Schedule Type Limits Name input -- will not be validated.\n   ** Warning ** ProcessScheduleInput: Schedule:Day:Interval=\"SCHEDULE DAY 19\", Blank Schedule Type Limits Name input -- will not be validated.\n   ** Warning ** ProcessScheduleInput: Schedule:Day:Interval=\"SCHEDULE DAY 190\", Blank Schedule Type Limits Name input -- will not be validated.\n   ** Warning ** ProcessScheduleInput: Schedule:Day:Interval=\"SCHEDULE DAY 191\", Blank Schedule Type Limits Name input -- will not be validated.\n   ** Warning ** ProcessScheduleInput: Schedule:Day:Interval=\"SCHEDULE DAY 192\", Blank Schedule Type Limits Name input -- will not be validated.\n   ** Warning ** ProcessScheduleInput: Schedule:Day:Interval=\"SCHEDULE DAY 193\", Blank Schedule Type Limits Name input -- will not be validated.\n   ** Warning ** ProcessScheduleInput: Schedule:Day:Interval=\"SCHEDULE DAY 194\", Blank Schedule Type Limits Name input -- will not be validated.\n   ** Warning ** ProcessScheduleInput: Schedule:Day:Interval=\"SCHEDULE DAY 195\", Blank Schedule Type Limits Name input -- will not be validated.\n   ** Warning ** ProcessScheduleInput: Schedule:Day:Interval=\"SCHEDULE DAY 196\", Blank Schedule Type Limits Name input -- will not be validated.\n   ** Warning ** ProcessScheduleInput: Schedule:Day:Interval=\"SCHEDULE DAY 197\", Blank Schedule Type Limits Name input -- will not be validated.\n   ** Warning ** ProcessScheduleInput: Schedule:Day:Interval=\"SCHEDULE DAY 198\", Blank Schedule Type Limits Name input -- will not be validated.\n   ** Warning ** ProcessScheduleInput: Schedule:Day:Interval=\"SCHEDULE DAY 199\", Blank Schedule Type Limits Name input -- will not be validated.\n   ** Warning ** ProcessScheduleInput: Schedule:Day:Interval=\"SCHEDULE DAY 2\", Blank Schedule Type Limits Name input -- will not be validated.\n   ** Warning ** ProcessScheduleInput: Schedule:Day:Interval=\"SCHEDULE DAY 20\", Blank Schedule Type Limits Name input -- will not be validated.\n   ** Warning ** ProcessScheduleInput: Schedule:Day:Interval=\"SCHEDULE DAY 200\", Blank Schedule Type Limits Name input -- will not be validated.\n   ** Warning ** ProcessScheduleInput: Schedule:Day:Interval=\"SCHEDULE DAY 201\", Blank Schedule Type Limits Name input -- will not be validated.\n   ** Warning ** ProcessScheduleInput: Schedule:Day:Interval=\"SCHEDULE DAY 202\", Blank Schedule Type Limits Name input -- will not be validated.\n   ** Warning ** ProcessScheduleInput: Schedule:Day:Interval=\"SCHEDULE DAY 203\", Blank Schedule Type Limits Name input -- will not be validated.\n   ** Warning ** ProcessScheduleInput: Schedule:Day:Interval=\"SCHEDULE DAY 204\", Blank Schedule Type Limits Name input -- will not be validated.\n   ** Warning ** ProcessScheduleInput: Schedule:Day:Interval=\"SCHEDULE DAY 205\", Blank Schedule Type Limits Name input -- will not be validated.\n   ** Warning ** ProcessScheduleInput: Schedule:Day:Interval=\"SCHEDULE DAY 206\", Blank Schedule Type Limits Name input -- will not be validated.\n   ** Warning ** ProcessScheduleInput: Schedule:Day:Interval=\"SCHEDULE DAY 207\", Blank Schedule Type Limits Name input -- will not be validated.\n   ** Warning ** ProcessScheduleInput: Schedule:Day:Interval=\"SCHEDULE DAY 208\", Blank Schedule Type Limits Name input -- will not be validated.\n   ** Warning ** ProcessScheduleInput: Schedule:Day:Interval=\"SCHEDULE DAY 209\", Blank Schedule Type Limits Name input -- will not be validated.\n   ** Warning ** ProcessScheduleInput: Schedule:Day:Interval=\"SCHEDULE DAY 21\", Blank Schedule Type Limits Name input -- will not be validated.\n   ** Warning ** ProcessScheduleInput: Schedule:Day:Interval=\"SCHEDULE DAY 210\", Blank Schedule Type Limits Name input -- will not be validated.\n   ** Warning ** ProcessScheduleInput: Schedule:Day:Interval=\"SCHEDULE DAY 211\", Blank Schedule Type Limits Name input -- will not be validated.\n   ** Warning ** ProcessScheduleInput: Schedule:Day:Interval=\"SCHEDULE DAY 212\", Blank Schedule Type Limits Name input -- will not be validated.\n   ** Warning ** ProcessScheduleInput: Schedule:Day:Interval=\"SCHEDULE DAY 213\", Blank Schedule Type Limits Name input -- will not be validated.\n   ** Warning ** ProcessScheduleInput: Schedule:Day:Interval=\"SCHEDULE DAY 214\", Blank Schedule Type Limits Name input -- will not be validated.\n   ** Warning ** ProcessScheduleInput: Schedule:Day:Interval=\"SCHEDULE DAY 215\", Blank Schedule Type Limits Name input -- will not be validated.\n   ** Warning ** ProcessScheduleInput: Schedule:Day:Interval=\"SCHEDULE DAY 216\", Blank Schedule Type Limits Name input -- will not be validated.\n   ** Warning ** ProcessScheduleInput: Schedule:Day:Interval=\"SCHEDULE DAY 217\", Blank Schedule Type Limits Name input -- will not be validated.\n   ** Warning ** ProcessScheduleInput: Schedule:Day:Interval=\"SCHEDULE DAY 218\", Blank Schedule Type Limits Name input -- will not be validated.\n   ** Warning ** ProcessScheduleInput: Schedule:Day:Interval=\"SCHEDULE DAY 219\", Blank Schedule Type Limits Name input -- will not be validated.\n   ** Warning ** ProcessScheduleInput: Schedule:Day:Interval=\"SCHEDULE DAY 22\", Blank Schedule Type Limits Name input -- will not be validated.\n   ** Warning ** ProcessScheduleInput: Schedule:Day:Interval=\"SCHEDULE DAY 220\", Blank Schedule Type Limits Name input -- will not be validated.\n   ** Warning ** ProcessScheduleInput: Schedule:Day:Interval=\"SCHEDULE DAY 221\", Blank Schedule Type Limits Name input -- will not be validated.\n   ** Warning ** ProcessScheduleInput: Schedule:Day:Interval=\"SCHEDULE DAY 222\", Blank Schedule Type Limits Name input -- will not be validated.\n   ** Warning ** ProcessScheduleInput: Schedule:Day:Interval=\"SCHEDULE DAY 223\", Blank Schedule Type Limits Name input -- will not be validated.\n   ** Warning ** ProcessScheduleInput: Schedule:Day:Interval=\"SCHEDULE DAY 224\", Blank Schedule Type Limits Name input -- will not be validated.\n   ** Warning ** ProcessScheduleInput: Schedule:Day:Interval=\"SCHEDULE DAY 225\", Blank Schedule Type Limits Name input -- will not be validated.\n   ** Warning ** ProcessScheduleInput: Schedule:Day:Interval=\"SCHEDULE DAY 226\", Blank Schedule Type Limits Name input -- will not be validated.\n   ** Warning ** ProcessScheduleInput: Schedule:Day:Interval=\"SCHEDULE DAY 227\", Blank Schedule Type Limits Name input -- will not be validated.\n   ** Warning ** ProcessScheduleInput: Schedule:Day:Interval=\"SCHEDULE DAY 228\", Blank Schedule Type Limits Name input -- will not be validated.\n   ** Warning ** ProcessScheduleInput: Schedule:Day:Interval=\"SCHEDULE DAY 229\", Blank Schedule Type Limits Name input -- will not be validated.\n   ** Warning ** ProcessScheduleInput: Schedule:Day:Interval=\"SCHEDULE DAY 23\", Blank Schedule Type Limits Name input -- will not be validated.\n   ** Warning ** ProcessScheduleInput: Schedule:Day:Interval=\"SCHEDULE DAY 230\", Blank Schedule Type Limits Name input -- will not be validated.\n   ** Warning ** ProcessScheduleInput: Schedule:Day:Interval=\"SCHEDULE DAY 231\", Blank Schedule Type Limits Name input -- will not be validated.\n   ** Warning ** ProcessScheduleInput: Schedule:Day:Interval=\"SCHEDULE DAY 232\", Blank Schedule Type Limits Name input -- will not be validated.\n   ** Warning ** ProcessScheduleInput: Schedule:Day:Interval=\"SCHEDULE DAY 233\", Blank Schedule Type Limits Name input -- will not be validated.\n   ** Warning ** ProcessScheduleInput: Schedule:Day:Interval=\"SCHEDULE DAY 234\", Blank Schedule Type Limits Name input -- will not be validated.\n   ** Warning ** ProcessScheduleInput: Schedule:Day:Interval=\"SCHEDULE DAY 235\", Blank Schedule Type Limits Name input -- will not be validated.\n   ** Warning ** ProcessScheduleInput: Schedule:Day:Interval=\"SCHEDULE DAY 236\", Blank Schedule Type Limits Name input -- will not be validated.\n   ** Warning ** ProcessScheduleInput: Schedule:Day:Interval=\"SCHEDULE DAY 237\", Blank Schedule Type Limits Name input -- will not be validated.\n   ** Warning ** ProcessScheduleInput: Schedule:Day:Interval=\"SCHEDULE DAY 238\", Blank Schedule Type Limits Name input -- will not be validated.\n   ** Warning ** ProcessScheduleInput: Schedule:Day:Interval=\"SCHEDULE DAY 239\", Blank Schedule Type Limits Name input -- will not be validated.\n   ** Warning ** ProcessScheduleInput: Schedule:Day:Interval=\"SCHEDULE DAY 24\", Blank Schedule Type Limits Name input -- will not be validated.\n   ** Warning ** ProcessScheduleInput: Schedule:Day:Interval=\"SCHEDULE DAY 240\", Blank Schedule Type Limits Name input -- will not be validated.\n   ** Warning ** ProcessScheduleInput: Schedule:Day:Interval=\"SCHEDULE DAY 241\", Blank Schedule Type Limits Name input -- will not be validated.\n   ** Warning ** ProcessScheduleInput: Schedule:Day:Interval=\"SCHEDULE DAY 242\", Blank Schedule Type Limits Name input -- will not be validated.\n   ** Warning ** ProcessScheduleInput: Schedule:Day:Interval=\"SCHEDULE DAY 243\", Blank Schedule Type Limits Name input -- will not be validated.\n   ** Warning ** ProcessScheduleInput: Schedule:Day:Interval=\"SCHEDULE DAY 244\", Blank Schedule Type Limits Name input -- will not be validated.\n   ** Warning ** ProcessScheduleInput: Schedule:Day:Interval=\"SCHEDULE DAY 245\", Blank Schedule Type Limits Name input -- will not be validated.\n   ** Warning ** ProcessScheduleInput: Schedule:Day:Interval=\"SCHEDULE DAY 246\", Blank Schedule Type Limits Name input -- will not be validated.\n   ** Warning ** ProcessScheduleInput: Schedule:Day:Interval=\"SCHEDULE DAY 247\", Blank Schedule Type Limits Name input -- will not be validated.\n   ** Warning ** ProcessScheduleInput: Schedule:Day:Interval=\"SCHEDULE DAY 248\", Blank Schedule Type Limits Name input -- will not be validated.\n   ** Warning ** ProcessScheduleInput: Schedule:Day:Interval=\"SCHEDULE DAY 249\", Blank Schedule Type Limits Name input -- will not be validated.\n   ** Warning ** ProcessScheduleInput: Schedule:Day:Interval=\"SCHEDULE DAY 25\", Blank Schedule Type Limits Name input -- will not be validated.\n   ** Warning ** ProcessScheduleInput: Schedule:Day:Interval=\"SCHEDULE DAY 250\", Blank Schedule Type Limits Name input -- will not be validated.\n   ** Warning ** ProcessScheduleInput: Schedule:Day:Interval=\"SCHEDULE DAY 251\", Blank Schedule Type Limits Name input -- will not be validated.\n   ** Warning ** ProcessScheduleInput: Schedule:Day:Interval=\"SCHEDULE DAY 26\", Blank Schedule Type Limits Name input -- will not be validated.\n   ** Warning ** ProcessScheduleInput: Schedule:Day:Interval=\"SCHEDULE DAY 27\", Blank Schedule Type Limits Name input -- will not be validated.\n   ** Warning ** ProcessScheduleInput: Schedule:Day:Interval=\"SCHEDULE DAY 28\", Blank Schedule Type Limits Name input -- will not be validated.\n   ** Warning ** ProcessScheduleInput: Schedule:Day:Interval=\"SCHEDULE DAY 29\", Blank Schedule Type Limits Name input -- will not be validated.\n   ** Warning ** ProcessScheduleInput: Schedule:Day:Interval=\"SCHEDULE DAY 30\", Blank Schedule Type Limits Name input -- will not be validated.\n   ** Warning ** ProcessScheduleInput: Schedule:Day:Interval=\"SCHEDULE DAY 31\", Blank Schedule Type Limits Name input -- will not be validated.\n   ** Warning ** ProcessScheduleInput: Schedule:Day:Interval=\"SCHEDULE DAY 32\", Blank Schedule Type Limits Name input -- will not be validated.\n   ** Warning ** ProcessScheduleInput: Schedule:Day:Interval=\"SCHEDULE DAY 33\", Blank Schedule Type Limits Name input -- will not be validated.\n   ** Warning ** ProcessScheduleInput: Schedule:Day:Interval=\"SCHEDULE DAY 34\", Blank Schedule Type Limits Name input -- will not be validated.\n   ** Warning ** ProcessScheduleInput: Schedule:Day:Interval=\"SCHEDULE DAY 35\", Blank Schedule Type Limits Name input -- will not be validated.\n   ** Warning ** ProcessScheduleInput: Schedule:Day:Interval=\"SCHEDULE DAY 36\", Blank Schedule Type Limits Name input -- will not be validated.\n   ** Warning ** ProcessScheduleInput: Schedule:Day:Interval=\"SCHEDULE DAY 37\", Blank Schedule Type Limits Name input -- will not be validated.\n   ** Warning ** ProcessScheduleInput: Schedule:Day:Interval=\"SCHEDULE DAY 38\", Blank Schedule Type Limits Name input -- will not be validated.\n   ** Warning ** ProcessScheduleInput: Schedule:Day:Interval=\"SCHEDULE DAY 39\", Blank Schedule Type Limits Name input -- will not be validated.\n   ** Warning ** ProcessScheduleInput: Schedule:Day:Interval=\"SCHEDULE DAY 40\", Blank Schedule Type Limits Name input -- will not be validated.\n   ** Warning ** ProcessScheduleInput: Schedule:Day:Interval=\"SCHEDULE DAY 41\", Blank Schedule Type Limits Name input -- will not be validated.\n   ** Warning ** ProcessScheduleInput: Schedule:Day:Interval=\"SCHEDULE DAY 42\", Blank Schedule Type Limits Name input -- will not be validated.\n   ** Warning ** ProcessScheduleInput: Schedule:Day:Interval=\"SCHEDULE DAY 43\", Blank Schedule Type Limits Name input -- will not be validated.\n   ** Warning ** ProcessScheduleInput: Schedule:Day:Interval=\"SCHEDULE DAY 44\", Blank Schedule Type Limits Name input -- will not be validated.\n   ** Warning ** ProcessScheduleInput: Schedule:Day:Interval=\"SCHEDULE DAY 45\", Blank Schedule Type Limits Name input -- will not be validated.\n   ** Warning ** ProcessScheduleInput: Schedule:Day:Interval=\"SCHEDULE DAY 46\", Blank Schedule Type Limits Name input -- will not be validated.\n   ** Warning ** ProcessScheduleInput: Schedule:Day:Interval=\"SCHEDULE DAY 47\", Blank Schedule Type Limits Name input -- will not be validated.\n   ** Warning ** ProcessScheduleInput: Schedule:Day:Interval=\"SCHEDULE DAY 48\", Blank Schedule Type Limits Name input -- will not be validated.\n   ** Warning ** ProcessScheduleInput: Schedule:Day:Interval=\"SCHEDULE DAY 49\", Blank Schedule Type Limits Name input -- will not be validated.\n   ** Warning ** ProcessScheduleInput: Schedule:Day:Interval=\"SCHEDULE DAY 50\", Blank Schedule Type Limits Name input -- will not be validated.\n   ** Warning ** ProcessScheduleInput: Schedule:Day:Interval=\"SCHEDULE DAY 51\", Blank Schedule Type Limits Name input -- will not be validated.\n   ** Warning ** ProcessScheduleInput: Schedule:Day:Interval=\"SCHEDULE DAY 52\", Blank Schedule Type Limits Name input -- will not be validated.\n   ** Warning ** ProcessScheduleInput: Schedule:Day:Interval=\"SCHEDULE DAY 53\", Blank Schedule Type Limits Name input -- will not be validated.\n   ** Warning ** ProcessScheduleInput: Schedule:Day:Interval=\"SCHEDULE DAY 54\", Blank Schedule Type Limits Name input -- will not be validated.\n   ** Warning ** ProcessScheduleInput: Schedule:Day:Interval=\"SCHEDULE DAY 55\", Blank Schedule Type Limits Name input -- will not be validated.\n   ** Warning ** ProcessScheduleInput: Schedule:Day:Interval=\"SCHEDULE DAY 56\", Blank Schedule Type Limits Name input -- will not be validated.\n   ** Warning ** ProcessScheduleInput: Schedule:Day:Interval=\"SCHEDULE DAY 57\", Blank Schedule Type Limits Name input -- will not be validated.\n   ** Warning ** ProcessScheduleInput: Schedule:Day:Interval=\"SCHEDULE DAY 58\", Blank Schedule Type Limits Name input -- will not be validated.\n   ** Warning ** ProcessScheduleInput: Schedule:Day:Interval=\"SCHEDULE DAY 59\", Blank Schedule Type Limits Name input -- will not be validated.\n   ** Warning ** ProcessScheduleInput: Schedule:Day:Interval=\"SCHEDULE DAY 60\", Blank Schedule Type Limits Name input -- will not be validated.\n   ** Warning ** ProcessScheduleInput: Schedule:Day:Interval=\"SCHEDULE DAY 61\", Blank Schedule Type Limits Name input -- will not be validated.\n   ** Warning ** ProcessScheduleInput: Schedule:Day:Interval=\"SCHEDULE DAY 62\", Blank Schedule Type Limits Name input -- will not be validated.\n   ** Warning ** ProcessScheduleInput: Schedule:Day:Interval=\"SCHEDULE DAY 63\", Blank Schedule Type Limits Name input -- will not be validated.\n   ** Warning ** ProcessScheduleInput: Schedule:Day:Interval=\"SCHEDULE DAY 64\", Blank Schedule Type Limits Name input -- will not be validated.\n   ** Warning ** ProcessScheduleInput: Schedule:Day:Interval=\"SCHEDULE DAY 65\", Blank Schedule Type Limits Name input -- will not be validated.\n   ** Warning ** ProcessScheduleInput: Schedule:Day:Interval=\"SCHEDULE DAY 66\", Blank Schedule Type Limits Name input -- will not be validated.\n   ** Warning ** ProcessScheduleInput: Schedule:Day:Interval=\"SCHEDULE DAY 67\", Blank Schedule Type Limits Name input -- will not be validated.\n   ** Warning ** ProcessScheduleInput: Schedule:Day:Interval=\"SCHEDULE DAY 68\", Blank Schedule Type Limits Name input -- will not be validated.\n   ** Warning ** ProcessScheduleInput: Schedule:Day:Interval=\"SCHEDULE DAY 69\", Blank Schedule Type Limits Name input -- will not be validated.\n   ** Warning ** ProcessScheduleInput: Schedule:Day:Interval=\"SCHEDULE DAY 70\", Blank Schedule Type Limits Name input -- will not be validated.\n   ** Warning ** ProcessScheduleInput: Schedule:Day:Interval=\"SCHEDULE DAY 71\", Blank Schedule Type Limits Name input -- will not be validated.\n   ** Warning ** ProcessScheduleInput: Schedule:Day:Interval=\"SCHEDULE DAY 72\", Blank Schedule Type Limits Name input -- will not be validated.\n   ** Warning ** ProcessScheduleInput: Schedule:Day:Interval=\"SCHEDULE DAY 73\", Blank Schedule Type Limits Name input -- will not be validated.\n   ** Warning ** ProcessScheduleInput: Schedule:Day:Interval=\"SCHEDULE DAY 74\", Blank Schedule Type Limits Name input -- will not be validated.\n   ** Warning ** ProcessScheduleInput: Schedule:Day:Interval=\"SCHEDULE DAY 75\", Blank Schedule Type Limits Name input -- will not be validated.\n   ** Warning ** ProcessScheduleInput: Schedule:Day:Interval=\"SCHEDULE DAY 76\", Blank Schedule Type Limits Name input -- will not be validated.\n   ** Warning ** ProcessScheduleInput: Schedule:Day:Interval=\"SCHEDULE DAY 77\", Blank Schedule Type Limits Name input -- will not be validated.\n   ** Warning ** ProcessScheduleInput: Schedule:Day:Interval=\"SCHEDULE DAY 78\", Blank Schedule Type Limits Name input -- will not be validated.\n   ** Warning ** ProcessScheduleInput: Schedule:Day:Interval=\"SCHEDULE DAY 79\", Blank Schedule Type Limits Name input -- will not be validated.\n   ** Warning ** ProcessScheduleInput: Schedule:Day:Interval=\"SCHEDULE DAY 8\", Blank Schedule Type Limits Name input -- will not be validated.\n   ** Warning ** ProcessScheduleInput: Schedule:Day:Interval=\"SCHEDULE DAY 80\", Blank Schedule Type Limits Name input -- will not be validated.\n   ** Warning ** ProcessScheduleInput: Schedule:Day:Interval=\"SCHEDULE DAY 81\", Blank Schedule Type Limits Name input -- will not be validated.\n   ** Warning ** ProcessScheduleInput: Schedule:Day:Interval=\"SCHEDULE DAY 82\", Blank Schedule Type Limits Name input -- will not be validated.\n   ** Warning ** ProcessScheduleInput: Schedule:Day:Interval=\"SCHEDULE DAY 83\", Blank Schedule Type Limits Name input -- will not be validated.\n   ** Warning ** ProcessScheduleInput: Schedule:Day:Interval=\"SCHEDULE DAY 84\", Blank Schedule Type Limits Name input -- will not be validated.\n   ** Warning ** ProcessScheduleInput: Schedule:Day:Interval=\"SCHEDULE DAY 85\", Blank Schedule Type Limits Name input -- will not be validated.\n   ** Warning ** ProcessScheduleInput: Schedule:Day:Interval=\"SCHEDULE DAY 86\", Blank Schedule Type Limits Name input -- will not be validated.\n   ** Warning ** ProcessScheduleInput: Schedule:Day:Interval=\"SCHEDULE DAY 87\", Blank Schedule Type Limits Name input -- will not be validated.\n   ** Warning ** ProcessScheduleInput: Schedule:Day:Interval=\"SCHEDULE DAY 88\", Blank Schedule Type Limits Name input -- will not be validated.\n   ** Warning ** ProcessScheduleInput: Schedule:Day:Interval=\"SCHEDULE DAY 89\", Blank Schedule Type Limits Name input -- will not be validated.\n   ** Warning ** ProcessScheduleInput: Schedule:Day:Interval=\"SCHEDULE DAY 9\", Blank Schedule Type Limits Name input -- will not be validated.\n   ** Warning ** ProcessScheduleInput: Schedule:Day:Interval=\"SCHEDULE DAY 90\", Blank Schedule Type Limits Name input -- will not be validated.\n   ** Warning ** ProcessScheduleInput: Schedule:Day:Interval=\"SCHEDULE DAY 91\", Blank Schedule Type Limits Name input -- will not be validated.\n   ** Warning ** ProcessScheduleInput: Schedule:Day:Interval=\"SCHEDULE DAY 92\", Blank Schedule Type Limits Name input -- will not be validated.\n   ** Warning ** ProcessScheduleInput: Schedule:Day:Interval=\"SCHEDULE DAY 93\", Blank Schedule Type Limits Name input -- will not be validated.\n   ** Warning ** ProcessScheduleInput: Schedule:Day:Interval=\"SCHEDULE DAY 94\", Blank Schedule Type Limits Name input -- will not be validated.\n   ** Warning ** ProcessScheduleInput: Schedule:Day:Interval=\"SCHEDULE DAY 95\", Blank Schedule Type Limits Name input -- will not be validated.\n   ** Warning ** ProcessScheduleInput: Schedule:Day:Interval=\"SCHEDULE DAY 96\", Blank Schedule Type Limits Name input -- will not be validated.\n   ** Warning ** ProcessScheduleInput: Schedule:Day:Interval=\"SCHEDULE DAY 97\", Blank Schedule Type Limits Name input -- will not be validated.\n   ** Warning ** ProcessScheduleInput: Schedule:Day:Interval=\"SCHEDULE DAY 98\", Blank Schedule Type Limits Name input -- will not be validated.\n   ** Warning ** ProcessScheduleInput: Schedule:Day:Interval=\"SCHEDULE DAY 99\", Blank Schedule Type Limits Name input -- will not be validated.\n   ** Warning ** ProcessScheduleInput: Schedule:Year=\"ECONOMIZER MAX OA FRACTION 100 PCT\", Blank Schedule Type Limits Name input -- will not be validated.\n   ** Warning ** ProcessScheduleInput: Schedule:Year=\"SCHEDULE RULESET 10\", Blank Schedule Type Limits Name input -- will not be validated.\n   ** Warning ** ProcessScheduleInput: Schedule:Year=\"SCHEDULE RULESET 100\", Blank Schedule Type Limits Name input -- will not be validated.\n   ** Warning ** ProcessScheduleInput: Schedule:Year=\"SCHEDULE RULESET 101\", Blank Schedule Type Limits Name input -- will not be validated.\n   ** Warning ** ProcessScheduleInput: Schedule:Year=\"SCHEDULE RULESET 102\", Blank Schedule Type Limits Name input -- will not be validated.\n   ** Warning ** ProcessScheduleInput: Schedule:Year=\"SCHEDULE RULESET 103\", Blank Schedule Type Limits Name input -- will not be validated.\n   ** Warning ** ProcessScheduleInput: Schedule:Year=\"SCHEDULE RULESET 104\", Blank Schedule Type Limits Name input -- will not be validated.\n   ** Warning ** ProcessScheduleInput: Schedule:Year=\"SCHEDULE RULESET 105\", Blank Schedule Type Limits Name input -- will not be validated.\n   ** Warning ** ProcessScheduleInput: Schedule:Year=\"SCHEDULE RULESET 106\", Blank Schedule Type Limits Name input -- will not be validated.\n   ** Warning ** ProcessScheduleInput: Schedule:Year=\"SCHEDULE RULESET 107\", Blank Schedule Type Limits Name input -- will not be validated.\n   ** Warning ** ProcessScheduleInput: Schedule:Year=\"SCHEDULE RULESET 108\", Blank Schedule Type Limits Name input -- will not be validated.\n   ** Warning ** ProcessScheduleInput: Schedule:Year=\"SCHEDULE RULESET 109\", Blank Schedule Type Limits Name input -- will not be validated.\n   ** Warning ** ProcessScheduleInput: Schedule:Year=\"SCHEDULE RULESET 11\", Blank Schedule Type Limits Name input -- will not be validated.\n   ** Warning ** ProcessScheduleInput: Schedule:Year=\"SCHEDULE RULESET 110\", Blank Schedule Type Limits Name input -- will not be validated.\n   ** Warning ** ProcessScheduleInput: Schedule:Year=\"SCHEDULE RULESET 111\", Blank Schedule Type Limits Name input -- will not be validated.\n   ** Warning ** ProcessScheduleInput: Schedule:Year=\"SCHEDULE RULESET 112\", Blank Schedule Type Limits Name input -- will not be validated.\n   ** Warning ** ProcessScheduleInput: Schedule:Year=\"SCHEDULE RULESET 113\", Blank Schedule Type Limits Name input -- will not be validated.\n   ** Warning ** ProcessScheduleInput: Schedule:Year=\"SCHEDULE RULESET 114\", Blank Schedule Type Limits Name input -- will not be validated.\n   ** Warning ** ProcessScheduleInput: Schedule:Year=\"SCHEDULE RULESET 115\", Blank Schedule Type Limits Name input -- will not be validated.\n   ** Warning ** ProcessScheduleInput: Schedule:Year=\"SCHEDULE RULESET 116\", Blank Schedule Type Limits Name input -- will not be validated.\n   ** Warning ** ProcessScheduleInput: Schedule:Year=\"SCHEDULE RULESET 117\", Blank Schedule Type Limits Name input -- will not be validated.\n   ** Warning ** ProcessScheduleInput: Schedule:Year=\"SCHEDULE RULESET 118\", Blank Schedule Type Limits Name input -- will not be validated.\n   ** Warning ** ProcessScheduleInput: Schedule:Year=\"SCHEDULE RULESET 119\", Blank Schedule Type Limits Name input -- will not be validated.\n   ** Warning ** ProcessScheduleInput: Schedule:Year=\"SCHEDULE RULESET 12\", Blank Schedule Type Limits Name input -- will not be validated.\n   ** Warning ** ProcessScheduleInput: Schedule:Year=\"SCHEDULE RULESET 120\", Blank Schedule Type Limits Name input -- will not be validated.\n   ** Warning ** ProcessScheduleInput: Schedule:Year=\"SCHEDULE RULESET 121\", Blank Schedule Type Limits Name input -- will not be validated.\n   ** Warning ** ProcessScheduleInput: Schedule:Year=\"SCHEDULE RULESET 122\", Blank Schedule Type Limits Name input -- will not be validated.\n   ** Warning ** ProcessScheduleInput: Schedule:Year=\"SCHEDULE RULESET 123\", Blank Schedule Type Limits Name input -- will not be validated.\n   ** Warning ** ProcessScheduleInput: Schedule:Year=\"SCHEDULE RULESET 124\", Blank Schedule Type Limits Name input -- will not be validated.\n   ** Warning ** ProcessScheduleInput: Schedule:Year=\"SCHEDULE RULESET 125\", Blank Schedule Type Limits Name input -- will not be validated.\n   ** Warning ** ProcessScheduleInput: Schedule:Year=\"SCHEDULE RULESET 126\", Blank Schedule Type Limits Name input -- will not be validated.\n   ** Warning ** ProcessScheduleInput: Schedule:Year=\"SCHEDULE RULESET 127\", Blank Schedule Type Limits Name input -- will not be validated.\n   ** Warning ** ProcessScheduleInput: Schedule:Year=\"SCHEDULE RULESET 128\", Blank Schedule Type Limits Name input -- will not be validated.\n   ** Warning ** ProcessScheduleInput: Schedule:Year=\"SCHEDULE RULESET 129\", Blank Schedule Type Limits Name input -- will not be validated.\n   ** Warning ** ProcessScheduleInput: Schedule:Year=\"SCHEDULE RULESET 13\", Blank Schedule Type Limits Name input -- will not be validated.\n   ** Warning ** ProcessScheduleInput: Schedule:Year=\"SCHEDULE RULESET 130\", Blank Schedule Type Limits Name input -- will not be validated.\n   ** Warning ** ProcessScheduleInput: Schedule:Year=\"SCHEDULE RULESET 131\", Blank Schedule Type Limits Name input -- will not be validated.\n   ** Warning ** ProcessScheduleInput: Schedule:Year=\"SCHEDULE RULESET 132\", Blank Schedule Type Limits Name input -- will not be validated.\n   ** Warning ** ProcessScheduleInput: Schedule:Year=\"SCHEDULE RULESET 133\", Blank Schedule Type Limits Name input -- will not be validated.\n   ** Warning ** ProcessScheduleInput: Schedule:Year=\"SCHEDULE RULESET 134\", Blank Schedule Type Limits Name input -- will not be validated.\n   ** Warning ** ProcessScheduleInput: Schedule:Year=\"SCHEDULE RULESET 135\", Blank Schedule Type Limits Name input -- will not be validated.\n   ** Warning ** ProcessScheduleInput: Schedule:Year=\"SCHEDULE RULESET 136\", Blank Schedule Type Limits Name input -- will not be validated.\n   ** Warning ** ProcessScheduleInput: Schedule:Year=\"SCHEDULE RULESET 137\", Blank Schedule Type Limits Name input -- will not be validated.\n   ** Warning ** ProcessScheduleInput: Schedule:Year=\"SCHEDULE RULESET 138\", Blank Schedule Type Limits Name input -- will not be validated.\n   ** Warning ** ProcessScheduleInput: Schedule:Year=\"SCHEDULE RULESET 139\", Blank Schedule Type Limits Name input -- will not be validated.\n   ** Warning ** ProcessScheduleInput: Schedule:Year=\"SCHEDULE RULESET 14\", Blank Schedule Type Limits Name input -- will not be validated.\n   ** Warning ** ProcessScheduleInput: Schedule:Year=\"SCHEDULE RULESET 140\", Blank Schedule Type Limits Name input -- will not be validated.\n   ** Warning ** ProcessScheduleInput: Schedule:Year=\"SCHEDULE RULESET 141\", Blank Schedule Type Limits Name input -- will not be validated.\n   ** Warning ** ProcessScheduleInput: Schedule:Year=\"SCHEDULE RULESET 142\", Blank Schedule Type Limits Name input -- will not be validated.\n   ** Warning ** ProcessScheduleInput: Schedule:Year=\"SCHEDULE RULESET 143\", Blank Schedule Type Limits Name input -- will not be validated.\n   ** Warning ** ProcessScheduleInput: Schedule:Year=\"SCHEDULE RULESET 144\", Blank Schedule Type Limits Name input -- will not be validated.\n   ** Warning ** ProcessScheduleInput: Schedule:Year=\"SCHEDULE RULESET 145\", Blank Schedule Type Limits Name input -- will not be validated.\n   ** Warning ** ProcessScheduleInput: Schedule:Year=\"SCHEDULE RULESET 146\", Blank Schedule Type Limits Name input -- will not be validated.\n   ** Warning ** ProcessScheduleInput: Schedule:Year=\"SCHEDULE RULESET 147\", Blank Schedule Type Limits Name input -- will not be validated.\n   ** Warning ** ProcessScheduleInput: Schedule:Year=\"SCHEDULE RULESET 148\", Blank Schedule Type Limits Name input -- will not be validated.\n   ** Warning ** ProcessScheduleInput: Schedule:Year=\"SCHEDULE RULESET 149\", Blank Schedule Type Limits Name input -- will not be validated.\n   ** Warning ** ProcessScheduleInput: Schedule:Year=\"SCHEDULE RULESET 15\", Blank Schedule Type Limits Name input -- will not be validated.\n   ** Warning ** ProcessScheduleInput: Schedule:Year=\"SCHEDULE RULESET 150\", Blank Schedule Type Limits Name input -- will not be validated.\n   ** Warning ** ProcessScheduleInput: Schedule:Year=\"SCHEDULE RULESET 151\", Blank Schedule Type Limits Name input -- will not be validated.\n   ** Warning ** ProcessScheduleInput: Schedule:Year=\"SCHEDULE RULESET 152\", Blank Schedule Type Limits Name input -- will not be validated.\n   ** Warning ** ProcessScheduleInput: Schedule:Year=\"SCHEDULE RULESET 153\", Blank Schedule Type Limits Name input -- will not be validated.\n   ** Warning ** ProcessScheduleInput: Schedule:Year=\"SCHEDULE RULESET 154\", Blank Schedule Type Limits Name input -- will not be validated.\n   ** Warning ** ProcessScheduleInput: Schedule:Year=\"SCHEDULE RULESET 155\", Blank Schedule Type Limits Name input -- will not be validated.\n   ** Warning ** ProcessScheduleInput: Schedule:Year=\"SCHEDULE RULESET 156\", Blank Schedule Type Limits Name input -- will not be validated.\n   ** Warning ** ProcessScheduleInput: Schedule:Year=\"SCHEDULE RULESET 157\", Blank Schedule Type Limits Name input -- will not be validated.\n   ** Warning ** ProcessScheduleInput: Schedule:Year=\"SCHEDULE RULESET 158\", Blank Schedule Type Limits Name input -- will not be validated.\n   ** Warning ** ProcessScheduleInput: Schedule:Year=\"SCHEDULE RULESET 159\", Blank Schedule Type Limits Name input -- will not be validated.\n   ** Warning ** ProcessScheduleInput: Schedule:Year=\"SCHEDULE RULESET 16\", Blank Schedule Type Limits Name input -- will not be validated.\n   ** Warning ** ProcessScheduleInput: Schedule:Year=\"SCHEDULE RULESET 160\", Blank Schedule Type Limits Name input -- will not be validated.\n   ** Warning ** ProcessScheduleInput: Schedule:Year=\"SCHEDULE RULESET 161\", Blank Schedule Type Limits Name input -- will not be validated.\n   ** Warning ** ProcessScheduleInput: Schedule:Year=\"SCHEDULE RULESET 162\", Blank Schedule Type Limits Name input -- will not be validated.\n   ** Warning ** ProcessScheduleInput: Schedule:Year=\"SCHEDULE RULESET 163\", Blank Schedule Type Limits Name input -- will not be validated.\n   ** Warning ** ProcessScheduleInput: Schedule:Year=\"SCHEDULE RULESET 164\", Blank Schedule Type Limits Name input -- will not be validated.\n   ** Warning ** ProcessScheduleInput: Schedule:Year=\"SCHEDULE RULESET 165\", Blank Schedule Type Limits Name input -- will not be validated.\n   ** Warning ** ProcessScheduleInput: Schedule:Year=\"SCHEDULE RULESET 166\", Blank Schedule Type Limits Name input -- will not be validated.\n   ** Warning ** ProcessScheduleInput: Schedule:Year=\"SCHEDULE RULESET 167\", Blank Schedule Type Limits Name input -- will not be validated.\n   ** Warning ** ProcessScheduleInput: Schedule:Year=\"SCHEDULE RULESET 168\", Blank Schedule Type Limits Name input -- will not be validated.\n   ** Warning ** ProcessScheduleInput: Schedule:Year=\"SCHEDULE RULESET 169\", Blank Schedule Type Limits Name input -- will not be validated.\n   ** Warning ** ProcessScheduleInput: Schedule:Year=\"SCHEDULE RULESET 17\", Blank Schedule Type Limits Name input -- will not be validated.\n   ** Warning ** ProcessScheduleInput: Schedule:Year=\"SCHEDULE RULESET 170\", Blank Schedule Type Limits Name input -- will not be validated.\n   ** Warning ** ProcessScheduleInput: Schedule:Year=\"SCHEDULE RULESET 171\", Blank Schedule Type Limits Name input -- will not be validated.\n   ** Warning ** ProcessScheduleInput: Schedule:Year=\"SCHEDULE RULESET 172\", Blank Schedule Type Limits Name input -- will not be validated.\n   ** Warning ** ProcessScheduleInput: Schedule:Year=\"SCHEDULE RULESET 173\", Blank Schedule Type Limits Name input -- will not be validated.\n   ** Warning ** ProcessScheduleInput: Schedule:Year=\"SCHEDULE RULESET 174\", Blank Schedule Type Limits Name input -- will not be validated.\n   ** Warning ** ProcessScheduleInput: Schedule:Year=\"SCHEDULE RULESET 175\", Blank Schedule Type Limits Name input -- will not be validated.\n   ** Warning ** ProcessScheduleInput: Schedule:Year=\"SCHEDULE RULESET 176\", Blank Schedule Type Limits Name input -- will not be validated.\n   ** Warning ** ProcessScheduleInput: Schedule:Year=\"SCHEDULE RULESET 177\", Blank Schedule Type Limits Name input -- will not be validated.\n   ** Warning ** ProcessScheduleInput: Schedule:Year=\"SCHEDULE RULESET 178\", Blank Schedule Type Limits Name input -- will not be validated.\n   ** Warning ** ProcessScheduleInput: Schedule:Year=\"SCHEDULE RULESET 179\", Blank Schedule Type Limits Name input -- will not be validated.\n   ** Warning ** ProcessScheduleInput: Schedule:Year=\"SCHEDULE RULESET 18\", Blank Schedule Type Limits Name input -- will not be validated.\n   ** Warning ** ProcessScheduleInput: Schedule:Year=\"SCHEDULE RULESET 180\", Blank Schedule Type Limits Name input -- will not be validated.\n   ** Warning ** ProcessScheduleInput: Schedule:Year=\"SCHEDULE RULESET 181\", Blank Schedule Type Limits Name input -- will not be validated.\n   ** Warning ** ProcessScheduleInput: Schedule:Year=\"SCHEDULE RULESET 182\", Blank Schedule Type Limits Name input -- will not be validated.\n   ** Warning ** ProcessScheduleInput: Schedule:Year=\"SCHEDULE RULESET 183\", Blank Schedule Type Limits Name input -- will not be validated.\n   ** Warning ** ProcessScheduleInput: Schedule:Year=\"SCHEDULE RULESET 184\", Blank Schedule Type Limits Name input -- will not be validated.\n   ** Warning ** ProcessScheduleInput: Schedule:Year=\"SCHEDULE RULESET 185\", Blank Schedule Type Limits Name input -- will not be validated.\n   ** Warning ** ProcessScheduleInput: Schedule:Year=\"SCHEDULE RULESET 186\", Blank Schedule Type Limits Name input -- will not be validated.\n   ** Warning ** ProcessScheduleInput: Schedule:Year=\"SCHEDULE RULESET 187\", Blank Schedule Type Limits Name input -- will not be validated.\n   ** Warning ** ProcessScheduleInput: Schedule:Year=\"SCHEDULE RULESET 188\", Blank Schedule Type Limits Name input -- will not be validated.\n   ** Warning ** ProcessScheduleInput: Schedule:Year=\"SCHEDULE RULESET 189\", Blank Schedule Type Limits Name input -- will not be validated.\n   ** Warning ** ProcessScheduleInput: Schedule:Year=\"SCHEDULE RULESET 19\", Blank Schedule Type Limits Name input -- will not be validated.\n   ** Warning ** ProcessScheduleInput: Schedule:Year=\"SCHEDULE RULESET 190\", Blank Schedule Type Limits Name input -- will not be validated.\n   ** Warning ** ProcessScheduleInput: Schedule:Year=\"SCHEDULE RULESET 191\", Blank Schedule Type Limits Name input -- will not be validated.\n   ** Warning ** ProcessScheduleInput: Schedule:Year=\"SCHEDULE RULESET 192\", Blank Schedule Type Limits Name input -- will not be validated.\n   ** Warning ** ProcessScheduleInput: Schedule:Year=\"SCHEDULE RULESET 193\", Blank Schedule Type Limits Name input -- will not be validated.\n   ** Warning ** ProcessScheduleInput: Schedule:Year=\"SCHEDULE RULESET 194\", Blank Schedule Type Limits Name input -- will not be validated.\n   ** Warning ** ProcessScheduleInput: Schedule:Year=\"SCHEDULE RULESET 195\", Blank Schedule Type Limits Name input -- will not be validated.\n   ** Warning ** ProcessScheduleInput: Schedule:Year=\"SCHEDULE RULESET 196\", Blank Schedule Type Limits Name input -- will not be validated.\n   ** Warning ** ProcessScheduleInput: Schedule:Year=\"SCHEDULE RULESET 197\", Blank Schedule Type Limits Name input -- will not be validated.\n   ** Warning ** ProcessScheduleInput: Schedule:Year=\"SCHEDULE RULESET 198\", Blank Schedule Type Limits Name input -- will not be validated.\n   ** Warning ** ProcessScheduleInput: Schedule:Year=\"SCHEDULE RULESET 199\", Blank Schedule Type Limits Name input -- will not be validated.\n   ** Warning ** ProcessScheduleInput: Schedule:Year=\"SCHEDULE RULESET 20\", Blank Schedule Type Limits Name input -- will not be validated.\n   ** Warning ** ProcessScheduleInput: Schedule:Year=\"SCHEDULE RULESET 200\", Blank Schedule Type Limits Name input -- will not be validated.\n   ** Warning ** ProcessScheduleInput: Schedule:Year=\"SCHEDULE RULESET 201\", Blank Schedule Type Limits Name input -- will not be validated.\n   ** Warning ** ProcessScheduleInput: Schedule:Year=\"SCHEDULE RULESET 202\", Blank Schedule Type Limits Name input -- will not be validated.\n   ** Warning ** ProcessScheduleInput: Schedule:Year=\"SCHEDULE RULESET 203\", Blank Schedule Type Limits Name input -- will not be validated.\n   ** Warning ** ProcessScheduleInput: Schedule:Year=\"SCHEDULE RULESET 204\", Blank Schedule Type Limits Name input -- will not be validated.\n   ** Warning ** ProcessScheduleInput: Schedule:Year=\"SCHEDULE RULESET 205\", Blank Schedule Type Limits Name input -- will not be validated.\n   ** Warning ** ProcessScheduleInput: Schedule:Year=\"SCHEDULE RULESET 206\", Blank Schedule Type Limits Name input -- will not be validated.\n   ** Warning ** ProcessScheduleInput: Schedule:Year=\"SCHEDULE RULESET 207\", Blank Schedule Type Limits Name input -- will not be validated.\n   ** Warning ** ProcessScheduleInput: Schedule:Year=\"SCHEDULE RULESET 208\", Blank Schedule Type Limits Name input -- will not be validated.\n   ** Warning ** ProcessScheduleInput: Schedule:Year=\"SCHEDULE RULESET 209\", Blank Schedule Type Limits Name input -- will not be validated.\n   ** Warning ** ProcessScheduleInput: Schedule:Year=\"SCHEDULE RULESET 21\", Blank Schedule Type Limits Name input -- will not be validated.\n   ** Warning ** ProcessScheduleInput: Schedule:Year=\"SCHEDULE RULESET 210\", Blank Schedule Type Limits Name input -- will not be validated.\n   ** Warning ** ProcessScheduleInput: Schedule:Year=\"SCHEDULE RULESET 211\", Blank Schedule Type Limits Name input -- will not be validated.\n   ** Warning ** ProcessScheduleInput: Schedule:Year=\"SCHEDULE RULESET 212\", Blank Schedule Type Limits Name input -- will not be validated.\n   ** Warning ** ProcessScheduleInput: Schedule:Year=\"SCHEDULE RULESET 213\", Blank Schedule Type Limits Name input -- will not be validated.\n   ** Warning ** ProcessScheduleInput: Schedule:Year=\"SCHEDULE RULESET 214\", Blank Schedule Type Limits Name input -- will not be validated.\n   ** Warning ** ProcessScheduleInput: Schedule:Year=\"SCHEDULE RULESET 215\", Blank Schedule Type Limits Name input -- will not be validated.\n   ** Warning ** ProcessScheduleInput: Schedule:Year=\"SCHEDULE RULESET 216\", Blank Schedule Type Limits Name input -- will not be validated.\n   ** Warning ** ProcessScheduleInput: Schedule:Year=\"SCHEDULE RULESET 217\", Blank Schedule Type Limits Name input -- will not be validated.\n   ** Warning ** ProcessScheduleInput: Schedule:Year=\"SCHEDULE RULESET 218\", Blank Schedule Type Limits Name input -- will not be validated.\n   ** Warning ** ProcessScheduleInput: Schedule:Year=\"SCHEDULE RULESET 219\", Blank Schedule Type Limits Name input -- will not be validated.\n   ** Warning ** ProcessScheduleInput: Schedule:Year=\"SCHEDULE RULESET 22\", Blank Schedule Type Limits Name input -- will not be validated.\n   ** Warning ** ProcessScheduleInput: Schedule:Year=\"SCHEDULE RULESET 220\", Blank Schedule Type Limits Name input -- will not be validated.\n   ** Warning ** ProcessScheduleInput: Schedule:Year=\"SCHEDULE RULESET 221\", Blank Schedule Type Limits Name input -- will not be validated.\n   ** Warning ** ProcessScheduleInput: Schedule:Year=\"SCHEDULE RULESET 222\", Blank Schedule Type Limits Name input -- will not be validated.\n   ** Warning ** ProcessScheduleInput: Schedule:Year=\"SCHEDULE RULESET 223\", Blank Schedule Type Limits Name input -- will not be validated.\n   ** Warning ** ProcessScheduleInput: Schedule:Year=\"SCHEDULE RULESET 224\", Blank Schedule Type Limits Name input -- will not be validated.\n   ** Warning ** ProcessScheduleInput: Schedule:Year=\"SCHEDULE RULESET 225\", Blank Schedule Type Limits Name input -- will not be validated.\n   ** Warning ** ProcessScheduleInput: Schedule:Year=\"SCHEDULE RULESET 226\", Blank Schedule Type Limits Name input -- will not be validated.\n   ** Warning ** ProcessScheduleInput: Schedule:Year=\"SCHEDULE RULESET 227\", Blank Schedule Type Limits Name input -- will not be validated.\n   ** Warning ** ProcessScheduleInput: Schedule:Year=\"SCHEDULE RULESET 228\", Blank Schedule Type Limits Name input -- will not be validated.\n   ** Warning ** ProcessScheduleInput: Schedule:Year=\"SCHEDULE RULESET 229\", Blank Schedule Type Limits Name input -- will not be validated.\n   ** Warning ** ProcessScheduleInput: Schedule:Year=\"SCHEDULE RULESET 23\", Blank Schedule Type Limits Name input -- will not be validated.\n   ** Warning ** ProcessScheduleInput: Schedule:Year=\"SCHEDULE RULESET 230\", Blank Schedule Type Limits Name input -- will not be validated.\n   ** Warning ** ProcessScheduleInput: Schedule:Year=\"SCHEDULE RULESET 231\", Blank Schedule Type Limits Name input -- will not be validated.\n   ** Warning ** ProcessScheduleInput: Schedule:Year=\"SCHEDULE RULESET 232\", Blank Schedule Type Limits Name input -- will not be validated.\n   ** Warning ** ProcessScheduleInput: Schedule:Year=\"SCHEDULE RULESET 233\", Blank Schedule Type Limits Name input -- will not be validated.\n   ** Warning ** ProcessScheduleInput: Schedule:Year=\"SCHEDULE RULESET 234\", Blank Schedule Type Limits Name input -- will not be validated.\n   ** Warning ** ProcessScheduleInput: Schedule:Year=\"SCHEDULE RULESET 235\", Blank Schedule Type Limits Name input -- will not be validated.\n   ** Warning ** ProcessScheduleInput: Schedule:Year=\"SCHEDULE RULESET 236\", Blank Schedule Type Limits Name input -- will not be validated.\n   ** Warning ** ProcessScheduleInput: Schedule:Year=\"SCHEDULE RULESET 237\", Blank Schedule Type Limits Name input -- will not be validated.\n   ** Warning ** ProcessScheduleInput: Schedule:Year=\"SCHEDULE RULESET 238\", Blank Schedule Type Limits Name input -- will not be validated.\n   ** Warning ** ProcessScheduleInput: Schedule:Year=\"SCHEDULE RULESET 239\", Blank Schedule Type Limits Name input -- will not be validated.\n   ** Warning ** ProcessScheduleInput: Schedule:Year=\"SCHEDULE RULESET 24\", Blank Schedule Type Limits Name input -- will not be validated.\n   ** Warning ** ProcessScheduleInput: Schedule:Year=\"SCHEDULE RULESET 240\", Blank Schedule Type Limits Name input -- will not be validated.\n   ** Warning ** ProcessScheduleInput: Schedule:Year=\"SCHEDULE RULESET 241\", Blank Schedule Type Limits Name input -- will not be validated.\n   ** Warning ** ProcessScheduleInput: Schedule:Year=\"SCHEDULE RULESET 242\", Blank Schedule Type Limits Name input -- will not be validated.\n   ** Warning ** ProcessScheduleInput: Schedule:Year=\"SCHEDULE RULESET 25\", Blank Schedule Type Limits Name input -- will not be validated.\n   ** Warning ** ProcessScheduleInput: Schedule:Year=\"SCHEDULE RULESET 26\", Blank Schedule Type Limits Name input -- will not be validated.\n   ** Warning ** ProcessScheduleInput: Schedule:Year=\"SCHEDULE RULESET 27\", Blank Schedule Type Limits Name input -- will not be validated.\n   ** Warning ** ProcessScheduleInput: Schedule:Year=\"SCHEDULE RULESET 28\", Blank Schedule Type Limits Name input -- will not be validated.\n   ** Warning ** ProcessScheduleInput: Schedule:Year=\"SCHEDULE RULESET 29\", Blank Schedule Type Limits Name input -- will not be validated.\n   ** Warning ** ProcessScheduleInput: Schedule:Year=\"SCHEDULE RULESET 3\", Blank Schedule Type Limits Name input -- will not be validated.\n   ** Warning ** ProcessScheduleInput: Schedule:Year=\"SCHEDULE RULESET 30\", Blank Schedule Type Limits Name input -- will not be validated.\n   ** Warning ** ProcessScheduleInput: Schedule:Year=\"SCHEDULE RULESET 31\", Blank Schedule Type Limits Name input -- will not be validated.\n   ** Warning ** ProcessScheduleInput: Schedule:Year=\"SCHEDULE RULESET 32\", Blank Schedule Type Limits Name input -- will not be validated.\n   ** Warning ** ProcessScheduleInput: Schedule:Year=\"SCHEDULE RULESET 33\", Blank Schedule Type Limits Name input -- will not be validated.\n   ** Warning ** ProcessScheduleInput: Schedule:Year=\"SCHEDULE RULESET 34\", Blank Schedule Type Limits Name input -- will not be validated.\n   ** Warning ** ProcessScheduleInput: Schedule:Year=\"SCHEDULE RULESET 35\", Blank Schedule Type Limits Name input -- will not be validated.\n   ** Warning ** ProcessScheduleInput: Schedule:Year=\"SCHEDULE RULESET 36\", Blank Schedule Type Limits Name input -- will not be validated.\n   ** Warning ** ProcessScheduleInput: Schedule:Year=\"SCHEDULE RULESET 37\", Blank Schedule Type Limits Name input -- will not be validated.\n   ** Warning ** ProcessScheduleInput: Schedule:Year=\"SCHEDULE RULESET 38\", Blank Schedule Type Limits Name input -- will not be validated.\n   ** Warning ** ProcessScheduleInput: Schedule:Year=\"SCHEDULE RULESET 39\", Blank Schedule Type Limits Name input -- will not be validated.\n   ** Warning ** ProcessScheduleInput: Schedule:Year=\"SCHEDULE RULESET 4\", Blank Schedule Type Limits Name input -- will not be validated.\n   ** Warning ** ProcessScheduleInput: Schedule:Year=\"SCHEDULE RULESET 40\", Blank Schedule Type Limits Name input -- will not be validated.\n   ** Warning ** ProcessScheduleInput: Schedule:Year=\"SCHEDULE RULESET 41\", Blank Schedule Type Limits Name input -- will not be validated.\n   ** Warning ** ProcessScheduleInput: Schedule:Year=\"SCHEDULE RULESET 42\", Blank Schedule Type Limits Name input -- will not be validated.\n   ** Warning ** ProcessScheduleInput: Schedule:Year=\"SCHEDULE RULESET 43\", Blank Schedule Type Limits Name input -- will not be validated.\n   ** Warning ** ProcessScheduleInput: Schedule:Year=\"SCHEDULE RULESET 44\", Blank Schedule Type Limits Name input -- will not be validated.\n   ** Warning ** ProcessScheduleInput: Schedule:Year=\"SCHEDULE RULESET 45\", Blank Schedule Type Limits Name input -- will not be validated.\n   ** Warning ** ProcessScheduleInput: Schedule:Year=\"SCHEDULE RULESET 46\", Blank Schedule Type Limits Name input -- will not be validated.\n   ** Warning ** ProcessScheduleInput: Schedule:Year=\"SCHEDULE RULESET 47\", Blank Schedule Type Limits Name input -- will not be validated.\n   ** Warning ** ProcessScheduleInput: Schedule:Year=\"SCHEDULE RULESET 48\", Blank Schedule Type Limits Name input -- will not be validated.\n   ** Warning ** ProcessScheduleInput: Schedule:Year=\"SCHEDULE RULESET 49\", Blank Schedule Type Limits Name input -- will not be validated.\n   ** Warning ** ProcessScheduleInput: Schedule:Year=\"SCHEDULE RULESET 5\", Blank Schedule Type Limits Name input -- will not be validated.\n   ** Warning ** ProcessScheduleInput: Schedule:Year=\"SCHEDULE RULESET 50\", Blank Schedule Type Limits Name input -- will not be validated.\n   ** Warning ** ProcessScheduleInput: Schedule:Year=\"SCHEDULE RULESET 51\", Blank Schedule Type Limits Name input -- will not be validated.\n   ** Warning ** ProcessScheduleInput: Schedule:Year=\"SCHEDULE RULESET 52\", Blank Schedule Type Limits Name input -- will not be validated.\n   ** Warning ** ProcessScheduleInput: Schedule:Year=\"SCHEDULE RULESET 53\", Blank Schedule Type Limits Name input -- will not be validated.\n   ** Warning ** ProcessScheduleInput: Schedule:Year=\"SCHEDULE RULESET 54\", Blank Schedule Type Limits Name input -- will not be validated.\n   ** Warning ** ProcessScheduleInput: Schedule:Year=\"SCHEDULE RULESET 55\", Blank Schedule Type Limits Name input -- will not be validated.\n   ** Warning ** ProcessScheduleInput: Schedule:Year=\"SCHEDULE RULESET 56\", Blank Schedule Type Limits Name input -- will not be validated.\n   ** Warning ** ProcessScheduleInput: Schedule:Year=\"SCHEDULE RULESET 57\", Blank Schedule Type Limits Name input -- will not be validated.\n   ** Warning ** ProcessScheduleInput: Schedule:Year=\"SCHEDULE RULESET 58\", Blank Schedule Type Limits Name input -- will not be validated.\n   ** Warning ** ProcessScheduleInput: Schedule:Year=\"SCHEDULE RULESET 59\", Blank Schedule Type Limits Name input -- will not be validated.\n   ** Warning ** ProcessScheduleInput: Schedule:Year=\"SCHEDULE RULESET 6\", Blank Schedule Type Limits Name input -- will not be validated.\n   ** Warning ** ProcessScheduleInput: Schedule:Year=\"SCHEDULE RULESET 60\", Blank Schedule Type Limits Name input -- will not be validated.\n   ** Warning ** ProcessScheduleInput: Schedule:Year=\"SCHEDULE RULESET 61\", Blank Schedule Type Limits Name input -- will not be validated.\n   ** Warning ** ProcessScheduleInput: Schedule:Year=\"SCHEDULE RULESET 62\", Blank Schedule Type Limits Name input -- will not be validated.\n   ** Warning ** ProcessScheduleInput: Schedule:Year=\"SCHEDULE RULESET 63\", Blank Schedule Type Limits Name input -- will not be validated.\n   ** Warning ** ProcessScheduleInput: Schedule:Year=\"SCHEDULE RULESET 64\", Blank Schedule Type Limits Name input -- will not be validated.\n   ** Warning ** ProcessScheduleInput: Schedule:Year=\"SCHEDULE RULESET 65\", Blank Schedule Type Limits Name input -- will not be validated.\n   ** Warning ** ProcessScheduleInput: Schedule:Year=\"SCHEDULE RULESET 66\", Blank Schedule Type Limits Name input -- will not be validated.\n   ** Warning ** ProcessScheduleInput: Schedule:Year=\"SCHEDULE RULESET 67\", Blank Schedule Type Limits Name input -- will not be validated.\n   ** Warning ** ProcessScheduleInput: Schedule:Year=\"SCHEDULE RULESET 68\", Blank Schedule Type Limits Name input -- will not be validated.\n   ** Warning ** ProcessScheduleInput: Schedule:Year=\"SCHEDULE RULESET 69\", Blank Schedule Type Limits Name input -- will not be validated.\n   ** Warning ** ProcessScheduleInput: Schedule:Year=\"SCHEDULE RULESET 7\", Blank Schedule Type Limits Name input -- will not be validated.\n   ** Warning ** ProcessScheduleInput: Schedule:Year=\"SCHEDULE RULESET 70\", Blank Schedule Type Limits Name input -- will not be validated.\n   ** Warning ** ProcessScheduleInput: Schedule:Year=\"SCHEDULE RULESET 71\", Blank Schedule Type Limits Name input -- will not be validated.\n   ** Warning ** ProcessScheduleInput: Schedule:Year=\"SCHEDULE RULESET 72\", Blank Schedule Type Limits Name input -- will not be validated.\n   ** Warning ** ProcessScheduleInput: Schedule:Year=\"SCHEDULE RULESET 73\", Blank Schedule Type Limits Name input -- will not be validated.\n   ** Warning ** ProcessScheduleInput: Schedule:Year=\"SCHEDULE RULESET 74\", Blank Schedule Type Limits Name input -- will not be validated.\n   ** Warning ** ProcessScheduleInput: Schedule:Year=\"SCHEDULE RULESET 75\", Blank Schedule Type Limits Name input -- will not be validated.\n   ** Warning ** ProcessScheduleInput: Schedule:Year=\"SCHEDULE RULESET 76\", Blank Schedule Type Limits Name input -- will not be validated.\n   ** Warning ** ProcessScheduleInput: Schedule:Year=\"SCHEDULE RULESET 77\", Blank Schedule Type Limits Name input -- will not be validated.\n   ** Warning ** ProcessScheduleInput: Schedule:Year=\"SCHEDULE RULESET 78\", Blank Schedule Type Limits Name input -- will not be validated.\n   ** Warning ** ProcessScheduleInput: Schedule:Year=\"SCHEDULE RULESET 79\", Blank Schedule Type Limits Name input -- will not be validated.\n   ** Warning ** ProcessScheduleInput: Schedule:Year=\"SCHEDULE RULESET 8\", Blank Schedule Type Limits Name input -- will not be validated.\n   ** Warning ** ProcessScheduleInput: Schedule:Year=\"SCHEDULE RULESET 80\", Blank Schedule Type Limits Name input -- will not be validated.\n   ** Warning ** ProcessScheduleInput: Schedule:Year=\"SCHEDULE RULESET 81\", Blank Schedule Type Limits Name input -- will not be validated.\n   ** Warning ** ProcessScheduleInput: Schedule:Year=\"SCHEDULE RULESET 82\", Blank Schedule Type Limits Name input -- will not be validated.\n   ** Warning ** ProcessScheduleInput: Schedule:Year=\"SCHEDULE RULESET 83\", Blank Schedule Type Limits Name input -- will not be validated.\n   ** Warning ** ProcessScheduleInput: Schedule:Year=\"SCHEDULE RULESET 84\", Blank Schedule Type Limits Name input -- will not be validated.\n   ** Warning ** ProcessScheduleInput: Schedule:Year=\"SCHEDULE RULESET 85\", Blank Schedule Type Limits Name input -- will not be validated.\n   ** Warning ** ProcessScheduleInput: Schedule:Year=\"SCHEDULE RULESET 86\", Blank Schedule Type Limits Name input -- will not be validated.\n   ** Warning ** ProcessScheduleInput: Schedule:Year=\"SCHEDULE RULESET 87\", Blank Schedule Type Limits Name input -- will not be validated.\n   ** Warning ** ProcessScheduleInput: Schedule:Year=\"SCHEDULE RULESET 88\", Blank Schedule Type Limits Name input -- will not be validated.\n   ** Warning ** ProcessScheduleInput: Schedule:Year=\"SCHEDULE RULESET 89\", Blank Schedule Type Limits Name input -- will not be validated.\n   ** Warning ** ProcessScheduleInput: Schedule:Year=\"SCHEDULE RULESET 9\", Blank Schedule Type Limits Name input -- will not be validated.\n   ** Warning ** ProcessScheduleInput: Schedule:Year=\"SCHEDULE RULESET 90\", Blank Schedule Type Limits Name input -- will not be validated.\n   ** Warning ** ProcessScheduleInput: Schedule:Year=\"SCHEDULE RULESET 91\", Blank Schedule Type Limits Name input -- will not be validated.\n   ** Warning ** ProcessScheduleInput: Schedule:Year=\"SCHEDULE RULESET 92\", Blank Schedule Type Limits Name input -- will not be validated.\n   ** Warning ** ProcessScheduleInput: Schedule:Year=\"SCHEDULE RULESET 93\", Blank Schedule Type Limits Name input -- will not be validated.\n   ** Warning ** ProcessScheduleInput: Schedule:Year=\"SCHEDULE RULESET 94\", Blank Schedule Type Limits Name input -- will not be validated.\n   ** Warning ** ProcessScheduleInput: Schedule:Year=\"SCHEDULE RULESET 95\", Blank Schedule Type Limits Name input -- will not be validated.\n   ** Warning ** ProcessScheduleInput: Schedule:Year=\"SCHEDULE RULESET 96\", Blank Schedule Type Limits Name input -- will not be validated.\n   ** Warning ** ProcessScheduleInput: Schedule:Year=\"SCHEDULE RULESET 97\", Blank Schedule Type Limits Name input -- will not be validated.\n   ** Warning ** ProcessScheduleInput: Schedule:Year=\"SCHEDULE RULESET 98\", Blank Schedule Type Limits Name input -- will not be validated.\n   ** Warning ** ProcessScheduleInput: Schedule:Year=\"SCHEDULE RULESET 99\", Blank Schedule Type Limits Name input -- will not be validated.\n   ** Warning ** ProcessScheduleInput: Schedule:Constant=\"ALWAYS OFF DISCRETE\", Blank Schedule Type Limits Name input -- will not be validated.\n   ** Warning ** ProcessScheduleInput: Schedule:Constant=\"ALWAYS ON CONTINUOUS\", Blank Schedule Type Limits Name input -- will not be validated.\n   ** Warning ** CheckUsedConstructions: There are 24 nominally unused constructions in input.\n   **   ~~~   ** For explicit details on each unused construction, use Output:Diagnostics,DisplayExtraWarnings;\n   ************* Beginning System Sizing Calculations\n   ** Warning ** GetDXCoils: Coil:Cooling:DX:SingleSpeed=\"COIL COOLING DX SINGLE SPEED 58 6KBTU/HR 11.0EER\", invalid\n   **   ~~~   ** ...Part Load Fraction Correlation Curve Name = DXCOOL-NECB2011-REF-COOLPLFFPLR 53 has out of range value.\n   **   ~~~   ** ...Curve maximum must be <= 1.0, curve max at PLR = 0.99 is 1.015\n   **   ~~~   ** ...Setting curve maximum to 1.0 and simulation continues.\n   ** Warning ** GetDXCoils: Coil:Cooling:DX:SingleSpeed=\"COIL COOLING DX SINGLE SPEED 55 5KBTU/HR 11.0EER\", invalid\n   **   ~~~   ** ...Part Load Fraction Correlation Curve Name = DXCOOL-NECB2011-REF-COOLPLFFPLR 50 has out of range value.\n   **   ~~~   ** ...Curve maximum must be <= 1.0, curve max at PLR = 0.99 is 1.015\n   **   ~~~   ** ...Setting curve maximum to 1.0 and simulation continues.\n   ** Warning ** GetDXCoils: Coil:Cooling:DX:SingleSpeed=\"COIL COOLING DX SINGLE SPEED 56 5KBTU/HR 11.0EER\", invalid\n   **   ~~~   ** ...Part Load Fraction Correlation Curve Name = DXCOOL-NECB2011-REF-COOLPLFFPLR 51 has out of range value.\n   **   ~~~   ** ...Curve maximum must be <= 1.0, curve max at PLR = 0.99 is 1.015\n   **   ~~~   ** ...Setting curve maximum to 1.0 and simulation continues.\n   ** Warning ** GetDXCoils: Coil:Cooling:DX:SingleSpeed=\"COIL COOLING DX SINGLE SPEED 57 9KBTU/HR 10.6EER\", invalid\n   **   ~~~   ** ...Part Load Fraction Correlation Curve Name = DXCOOL-NECB2011-REF-COOLPLFFPLR 52 has out of range value.\n   **   ~~~   ** ...Curve maximum must be <= 1.0, curve max at PLR = 0.99 is 1.015\n   **   ~~~   ** ...Setting curve maximum to 1.0 and simulation continues.\n   ** Warning ** GetDXCoils: Coil:Cooling:DX:SingleSpeed=\"COIL COOLING DX SINGLE SPEED 54 9KBTU/HR 10.5EER\", invalid\n   **   ~~~   ** ...Part Load Fraction Correlation Curve Name = DXCOOL-NECB2011-REF-COOLPLFFPLR 49 has out of range value.\n   **   ~~~   ** ...Curve maximum must be <= 1.0, curve max at PLR = 0.99 is 1.015\n   **   ~~~   ** ...Setting curve maximum to 1.0 and simulation continues.\n   ** Warning ** GetDXCoils: Coil:Cooling:DX:SingleSpeed=\"COIL COOLING DX SINGLE SPEED 62 6KBTU/HR 11.0EER\", invalid\n   **   ~~~   ** ...Part Load Fraction Correlation Curve Name = DXCOOL-NECB2011-REF-COOLPLFFPLR 58 has out of range value.\n   **   ~~~   ** ...Curve maximum must be <= 1.0, curve max at PLR = 0.99 is 1.015\n   **   ~~~   ** ...Setting curve maximum to 1.0 and simulation continues.\n   ** Warning ** GetDXCoils: Coil:Cooling:DX:SingleSpeed=\"COIL COOLING DX SINGLE SPEED 61 7KBTU/HR 11.0EER\", invalid\n   **   ~~~   ** ...Part Load Fraction Correlation Curve Name = DXCOOL-NECB2011-REF-COOLPLFFPLR 57 has out of range value.\n   **   ~~~   ** ...Curve maximum must be <= 1.0, curve max at PLR = 0.99 is 1.015\n   **   ~~~   ** ...Setting curve maximum to 1.0 and simulation continues.\n   ** Warning ** GetDXCoils: Coil:Cooling:DX:SingleSpeed=\"COIL COOLING DX SINGLE SPEED 59 9KBTU/HR 10.5EER\", invalid\n   **   ~~~   ** ...Part Load Fraction Correlation Curve Name = DXCOOL-NECB2011-REF-COOLPLFFPLR 54 has out of range value.\n   **   ~~~   ** ...Curve maximum must be <= 1.0, curve max at PLR = 0.99 is 1.015\n   **   ~~~   ** ...Setting curve maximum to 1.0 and simulation continues.\n   ** Warning ** GetDXCoils: Coil:Cooling:DX:SingleSpeed=\"COIL COOLING DX SINGLE SPEED 60 11KBTU/HR 10.2EER\", invalid\n   **   ~~~   ** ...Part Load Fraction Correlation Curve Name = DXCOOL-NECB2011-REF-COOLPLFFPLR 56 has out of range value.\n   **   ~~~   ** ...Curve maximum must be <= 1.0, curve max at PLR = 0.99 is 1.015\n   **   ~~~   ** ...Setting curve maximum to 1.0 and simulation continues.\n   ** Warning ** GetDXCoils: Coil:Cooling:DX:SingleSpeed=\"COIL COOLING DX SINGLE SPEED 76 6KBTU/HR 11.0EER\", invalid\n   **   ~~~   ** ...Part Load Fraction Correlation Curve Name = DXCOOL-NECB2011-REF-COOLPLFFPLR 73 has out of range value.\n   **   ~~~   ** ...Curve maximum must be <= 1.0, curve max at PLR = 0.99 is 1.015\n   **   ~~~   ** ...Setting curve maximum to 1.0 and simulation continues.\n   ** Warning ** GetDXCoils: Coil:Cooling:DX:SingleSpeed=\"COIL COOLING DX SINGLE SPEED 72 5KBTU/HR 11.0EER\", invalid\n   **   ~~~   ** ...Part Load Fraction Correlation Curve Name = DXCOOL-NECB2011-REF-COOLPLFFPLR 69 has out of range value.\n   **   ~~~   ** ...Curve maximum must be <= 1.0, curve max at PLR = 0.99 is 1.015\n   **   ~~~   ** ...Setting curve maximum to 1.0 and simulation continues.\n   ** Warning ** GetDXCoils: Coil:Cooling:DX:SingleSpeed=\"COIL COOLING DX SINGLE SPEED 74 5KBTU/HR 11.0EER\", invalid\n   **   ~~~   ** ...Part Load Fraction Correlation Curve Name = DXCOOL-NECB2011-REF-COOLPLFFPLR 71 has out of range value.\n   **   ~~~   ** ...Curve maximum must be <= 1.0, curve max at PLR = 0.99 is 1.015\n   **   ~~~   ** ...Setting curve maximum to 1.0 and simulation continues.\n   ** Warning ** GetDXCoils: Coil:Cooling:DX:SingleSpeed=\"COIL COOLING DX SINGLE SPEED 75 9KBTU/HR 10.6EER\", invalid\n   **   ~~~   ** ...Part Load Fraction Correlation Curve Name = DXCOOL-NECB2011-REF-COOLPLFFPLR 72 has out of range value.\n   **   ~~~   ** ...Curve maximum must be <= 1.0, curve max at PLR = 0.99 is 1.015\n   **   ~~~   ** ...Setting curve maximum to 1.0 and simulation continues.\n   ** Warning ** GetDXCoils: Coil:Cooling:DX:SingleSpeed=\"COIL COOLING DX SINGLE SPEED 73 10KBTU/HR 10.5EER\", invalid\n   **   ~~~   ** ...Part Load Fraction Correlation Curve Name = DXCOOL-NECB2011-REF-COOLPLFFPLR 70 has out of range value.\n   **   ~~~   ** ...Curve maximum must be <= 1.0, curve max at PLR = 0.99 is 1.015\n   **   ~~~   ** ...Setting curve maximum to 1.0 and simulation continues.\n   ** Warning ** GetDXCoils: Coil:Cooling:DX:SingleSpeed=\"COIL COOLING DX SINGLE SPEED 80 7KBTU/HR 11.0EER\", invalid\n   **   ~~~   ** ...Part Load Fraction Correlation Curve Name = DXCOOL-NECB2011-REF-COOLPLFFPLR 78 has out of range value.\n   **   ~~~   ** ...Curve maximum must be <= 1.0, curve max at PLR = 0.99 is 1.015\n   **   ~~~   ** ...Setting curve maximum to 1.0 and simulation continues.\n   ** Warning ** GetDXCoils: Coil:Cooling:DX:SingleSpeed=\"COIL COOLING DX SINGLE SPEED 79 7KBTU/HR 11.0EER\", invalid\n   **   ~~~   ** ...Part Load Fraction Correlation Curve Name = DXCOOL-NECB2011-REF-COOLPLFFPLR 76 has out of range value.\n   **   ~~~   ** ...Curve maximum must be <= 1.0, curve max at PLR = 0.99 is 1.015\n   **   ~~~   ** ...Setting curve maximum to 1.0 and simulation continues.\n   ** Warning ** GetDXCoils: Coil:Cooling:DX:SingleSpeed=\"COIL COOLING DX SINGLE SPEED 77 9KBTU/HR 10.5EER\", invalid\n   **   ~~~   ** ...Part Load Fraction Correlation Curve Name = DXCOOL-NECB2011-REF-COOLPLFFPLR 74 has out of range value.\n   **   ~~~   ** ...Curve maximum must be <= 1.0, curve max at PLR = 0.99 is 1.015\n   **   ~~~   ** ...Setting curve maximum to 1.0 and simulation continues.\n   ** Warning ** GetDXCoils: Coil:Cooling:DX:SingleSpeed=\"COIL COOLING DX SINGLE SPEED 78 11KBTU/HR 10.1EER\", invalid\n   **   ~~~   ** ...Part Load Fraction Correlation Curve Name = DXCOOL-NECB2011-REF-COOLPLFFPLR 75 has out of range v
[...]
caHV58S3gGJDq8+JbwDFh1afE59+yYgmBLkaXRhvkhRNCHKVujDbJC+aEOTqdWGwSWo04WZ0Nbsw1SQ7mhDkanZhpCmCtP0cyZAmBMVvkeRIE4Liwy9Z0oSg+PBLnjQhKD78milNSbJ1uzDZNFmakmSrd2G4ab40JcnW8MJ805Rpyl1p63hhxGnWNCXJ1vHClEOchjgNcdoDQsRpzUKchjgNcVphIU5DnNbrVSFOa+3f4/mI0/YX4rTdGuB7WkfmFwAHHHDAAQcccMABBxxwwBk9zpFpB6CBBhpooIEGGmiggQYaaMZD82R0B+CAAw444IADDjjggAMOOPX7IU7bLsRpO3HaYiTitPUYxGnrg4nTFnc/C62V3LiCpq6gmSto7gpauIKWrqCVK2jtCmr9/l5LsnU72cqdbO1OtnonW7+TreDJ1vBkq3iydTzbOp5997et49nW8dyv493Fae2senGakhO/S/XiNCUnvgXqxWlKTnwD1IvTlJz49AviNCnI1ejCeBPEaVKQq9SF2SaI06QgV68Lg00Qp0k3o6vZhakmiNOkIFezCyOtXpzWzhHEaVJQ/BYJ4jQpKD78gjhNCooPvyBOk4Liw6+I07QkW7cLk00Rp2lJtnoXhpsiTtOSbA0vzDdFnKbdlbaOF0acIk7TkmwdL0w5xGmI0xCnPSBEnNYsxGmI0xCnFRbiNMRpvV4V4rTW/j2ejzhtfyFO260Bvqd1ZH4BcMABBxxwwAEHHHDAAQec0eMcmXYAGmiggQYaaKCBBhpooIFmPDRPRncADjjggAMOOOCAAw444IBTvx/itO1CnLYTpy3HIU6bn45AnHYLeShx2ulJtnjTlJypKWdmypmbchamnKUpZ2XKWZtyWj+7l4JcjU6uSidXp5Or1MnV6uSqdXL1OrmKnVzNzq5mZ9td7Wp2djU792p2d0FaK6rejybEhO9QvR1NiAnPfb0bTYgJz3y9GU2ICc+74EVTckw9jseYIEVTckxVjmeYYERTckxtjgeYoENT7kFTn+PpJbjQlBxTn+PRVS9Ca8UIHjQlJ3x7BAuakhMed8GBpuSEx10woCk54XFX/GdSkKvR8QRT5GdSkKvU8RBTzGdSkKvX8RxTtGfSzehqdjzKFOeZFORqdjzNEJ4hPEN49oAQ4VmzEJ4hPEN4VlgIzxCe9XpVCM9a+/d4PsKz/YXwbLcG+H7VkXkBwAEHHHDAAQcccMABBxxwRo9zZLoAaKCBBhpooIEGGmiggQaa8dA8GU0BOOCAAw444IADDjjggANO/X4Iz7YL4dlOeLYaifAsjUF4lg4oPDudm4xnQtDUFTRzBc1dQQtX0NIVtHIFrV1BH/3gXkmydTvZyp1s7U62eidbv5Ot4MnW8GSreLJ1PNs6nn33t63j2dbx3K/jfURo+1mKCa0+J36XFBdafU58Cyg2tPqc+AZQfGj1OfHpl4xoQpCr0YXxJknRhCBXqQuzTfKiCUGuXhcGm6RGE25GV7MLU02yowlBrmYXRpoiSNvPkQxpQlD8FkmONCEoPvySJU0Iig+/5EkTguLDr5nSlCRbtwuTTZOlKUm2eheGm+ZLU5JsDS/MN02ZptyVto4XRpxmTVOSbB0vTDnEaYjTEKc9IESc1izEaYjTEKcVFuI0xGm9XhXitNb+PZ6POG1/IU7brQG+p3VkfgFwwAEHHHDAAQcccMABB5zR4xyZdgAaaKCBBhpooIEGGmiggWY8NE9GdwAOOOCAAw444IADDjjggFO/H+K07UKcthOnrUciTstjEKflg4nTFnc/C62V3LiCpq6gmSto7gpauIKWrqCVK2jtCmr9/l5LsnU72cqdbO1OtnonW7+TreDJ1vBkq3iydTzbOp5997et49nW8dyv493Fae2senGakhO/S/XiNCUnvgXqxWlKTnwD1IvTlJz49AviNCnI1ejCeBPEaVKQq9SF2SaI06QgV68Lg00Qp0k3o6vZhakmiNOkIFezCyOtXpzWzhHEaVJQ/BYJ4jQpKD78gjhNCooPvyBOk4Liw6+I07QkW7cLk00Rp2lJtnoXhpsiTtOSbA0vzDdFnKbdlbaOF0acIk7TkmwdL0w5xGmI0xCnPSBEnNYsxGmI0xCnFRbiNMRpvV4V4rTW/j2ejzhtfyFO260Bvqd1ZH4BcMABBxxwwAEHHHDAAQec0eMcmXYAGmiggQYaaKCBBhpooIFmPDRPRncADjjggAMOOOCAAw444IBTvx/itO1CnHYvTluNxJs2HYM3bYo3rS4Ib9rjQXjTOiXhTcObhjcNbxreNLxpeNPwpuFN+9mbEW/a40F40x4NwpuGNw1vGt40WxLetG5JeNNiGLxpeNM+XnjT7vHxpn288KZ1WXjT+j0fbxretF6vCm9aa/8ez8ebtr/wpu3WAF/TOjK9ADjggAMOOOCAAw444IADzuhxjsw6AA000EADDTTQQAMNNNBAMx6aJ2M7AAcccMABBxxwwAEHHHDAqd8Pb9p24U3bedNORyJOm41BnDY7mDjt9CRbvGlKztSUMzPlzE05C1PO0pSzMuWsTTmtn91LQa5GJ1elk6vTyVXq5Gp1ctU6uXqdXMVOrmZnV7Oz7a52NTu7mp17Nbu7IK0VVe9HE2LCd6jejibEhOe+3o0mxIRnvt6MJsSE513woik5ph7HY0yQoik5pirHM0wwoik5pjbHA0zQoSn3oKnP8fQSXGhKjqnP8eiqF6G1YgQPmpITvj2CBU3JCY+74EBTcsLjLhjQlJzwuCv+MynI1eh4ginyMynIVep4iCnmMynI1et4jinaM+lmdDU7HmWK80wKcjU7nmYIzxCeITx7QIjwrFkIzxCeITwrLIRnCM96vSqEZ639ezwf4dn+Qni2WwN8v+rIvADggAMOOOCAAw444IADDjijxzkyXQA00EADDTTQQAMNNNBAA814aJ6MpgAccMABBxxwwAEHHHDAAad+P4Rn24XwbCc8SyMRns3HIDybH1B4djo3Gc+EoKkraOYKmruCFq6gpSto5Qpau4I++sG9kmTrdrKVO9nanWz1TrZ+J1vBk63hyVbxZOt4tnU8++5vW8ezreO5X8f7iND2sxQTWn1O/C4pLrT6nPgWUGxo9TnxDaD40Opz4tMvGdGEIFejC+NNkqIJQa5SF2ab5EUTgly9Lgw2SY0m3IyuZhemmmRHE4JczS6MNEWQtp8jGdKEoPgtkhxpQlB8+CVLmhAUH37JkyYExYdfM6UpSbZuFyabJktTkmz1Lgw3zZemJNkaXphvmjJNuSttHS+MOM2apiTZOl6YcojTEKchTntAiDitWYjTEKchTissxGmI03q9KsRprf17PB9x2v5CnLZbA3xP68j8AuCAAw444IADDjjggAMOOKPHOTLtADTQQAMNNNBAAw000EADzXhonozuABxwwAEHHHDAAQcccMABp34/xGnbhThtJ07LIxGnLcYgTlscTJy2uPtZaK3kxhU0dQXNXEFzV9DCFbR0Ba1cQWtXUOv391qSrdvJVu5ka3ey1TvZ+p1sBU+2hidbxZOt49nW8ey7v20dz7aO534d7y5Oa2fVi9OUnPhdqhenKTnxLVAvTlNy4hugXpym5MSnXxCnSUGuRhfGmyBOk4JcpS7MNkGcJgW5el0YbII4TboZXc0uTDVBnCYFuZpdGGn14rR2jiBOk4Lit0gQp0lB8eEXxGlSUHz4BXGaFBQffkWcpiXZul2YbIo4TUuy1bsw3BRxmpZka3hhviniNO2utHW8MOIUcZqWZOt4YcohTkOchjjtASHitGYhTkOchjitsBCnIU7r9aoQp7X27/F8xGn7C3Habg3wPa0j8wuAAw444IADDjjggAMOOOCMHufItAPQQAMNNNBAAw000EADDTTjoXkyugNwwAEHHHDAAQcccMABB5z6/RCnbRfitJ04bToScdpyDOK05cHEaacn2eJNU3KmppyZKWduylmYcpamnJUpZ23Kaf3sXgpyNTq5Kp1cnU6uUidXq5Or1snV6+QqdnI1O7uanW13tavZ2dXs3KvZ3QVprah6P5oQE75D9XY0ISY89/VuNCEmPPP1ZjQhJjzvghdNyTH1OB5jghRNyTFVOZ5hghFNyTG1OR5ggg5NuQdNfY6nl+BCU3JMfY5HV70IrRUjeNCUnPDtESxoSk543AUHmpITHnfBgKbkhMdd8Z9JQa5GxxNMkZ9JQa5Sx0NMMZ9JQa5ex3NM0Z5JN6Or2fEoU5xnUpCr2fE0Q3iG8Azh2QNChGfNQniG8AzhWWEhPEN41utVITxr7d/j+QjP9hfCs90a4PtVR+YFAAcccMABBxxwwAEHHHDAGT3OkekCoIEGGmiggQYaaKCBBhpoxkPzZDQF4IADDjjggAMOOOCAAw449fshPNsuhGc74dlsJMKz1RiEZ6sDCs9O5ybjmRA0dQXNXEFzV9DCFbR0Ba1cQWtX0Ec/uFeSbN1OtnInW7uTrd7J1u9kK3iyNTzZKp5sHc+2jmff/W3reLZ1PPfreB8R2n6WYkKrz4nfJcWFVp8T3wKKDa0+J74BFB9afU58+iUjmhDkanRhvElSNCHIVerCbJO8aEKQq9eFwSap0YSb0dXswlST7GhCkKvZhZGmCNL2cyRDmhAUv0WSI00Iig+/ZEkTguLDL3nShKD48GumNCXJ1u3CZNNkaUqSrd6F4ab50pQkW8ML801Tpil3pa3jhRGnWdOUJFvHC1MOcRriNMRpDwgRpzULcRriNMRphYU4DXFar1eFOK21f4/nI07bX4jTdmuA72kdmV8AHHDAAQcccMABBxxwwAFn9DhHph2ABhpooIEGGmiggQYaaKAZD82T0R2AAw444IADDjjggAMOOODU74c4bbsQp+3EafORiNPWYxCnrQ8mTlvc/Sy0VnLjCpq6gmauoLkraOEKWrqCVq6gtSuo9ft7LcnW7WQrd7K1O9nqnWz9TraCJ1vDk63iydbxbOt49t3fto5nW8dzv453F6e1s+rFaUpO/C7Vi9OUnPgWqBenKTnxDVAvTlNy4tMviNOkIFejC+NNEKdJQa5SF2abIE6Tgly9Lgw2QZwm3YyuZhemmiBOk4JczS6MtHpxWjtHEKdJQfFbJIjTpKD48AviNCkoPvyCOE0Kig+/Ik7TkmzdLkw2RZymJdnqXRhuijhNS7I1vDDfFHGadlfaOl4YcYo4TUuydbww5RCnIU5DnPaAEHFasxCnIU5DnFZYiNMQp/V6VYjTWvv3eD7itP2FOG23Bvie1pH5BcABBxxwwAEHHHDAAQcccEaPc2TaAWiggQYaaKCBBhpooIEGmvHQPBndATjggAMOOOCAAw444IADTv1+iNO2C3HaTpy2GIc4bXE6AnHaLeShxGmnJ9niTVNypqacmSlnbspZmHKWppyVKWdtymn97F4KcjU6uSqdXJ1OrlInV6uTq9bJ1evkKnZyNTu7mp1td7Wr2dnV7Nyr2d0Faa2oej+aEBO+Q/V2NCEmPPf1bjQhJjzz9WY0ISY874IXTckx9TgeY4IUTckxVTmeYYIRTckxtTkeYIIOTbkHTX2Op5fgQlNyTH2OR1e9CK0VI3jQlJzw7REsaEpOeNwFB5qSEx53wYCm5ITHXfGfSUGuRscTTJGfSUGuUsdDTDGfSUGuXsdzTNGeSTejq9nxKFOcZ1KQq9nxNEN4hvAM4dkDQoRnzUJ4hvAM4VlhITxDeNbrVSE8a+3f4/kIz/YXwrPdGuD7VUfmBQAHHHDAAQcccMABBxxwwBk9zpHpAqCBBhpooIEGGmiggQYaaMZD82Q0BeCAAw444IADDjjggAMOOPX7ITzbLoRnO+HZciTCszQG4Vk6oPDsdG4ynglBU1fQzBU0dwUtXEFLV9DKFbR2BX30g3slydbtZCt3srU72eqdbP1OtoInW8OTreLJ1vFs63j23d+2jmdbx3O/jvcRoe1nKSa0+pz4XVJcaPU58S2g2NDqc+IbQPGh1efEp18yoglBrkYXxpskRROCXKUuzDbJiyYEuXpdGGySGk24GV3NLkw1yY4mBLmaXRhpiiBtP0cypAlB8VskOdKEoPjwS5Y0ISg+/JInTQiKD79mSlOSbN0uTDZNlqYk2epdGG6aL01JsjW8MN80ZZpyV9o6XhhxmjVNSbJ1vDDlEKchTkOc9oAQcVqzEKchTkOcVliI0xCn9XpViNNa+/d4PuK0/YU4bbcG+J7WkfkFwAEHHHDAAQcccMABBxxwRo9zZNoBaKCBBhpooIEGGmiggQaa8dA8Gd0BOOCAAw444IADDjjggANO/X6I07YLcdpOnLYaiTgtj0Gclg8mTlvc/Sy0VnLjCpq6gmauoLkraOEKWrqCVq6gtSuo9ft7LcnW7WQrd7K1O9nqnWz9TraCJ1vDk63iydbxbOt49t3fto5nW8dzv453F6e1s+rFaUpO/C7Vi9OUnPgWqBenKTnxDVAvTlNy4tMviNOkIFejC+NNEKdJQa5SF2abIE6Tgly9Lgw2QZwm3YyuZhemmiBOk4JczS6MtHpxWjtHEKdJQfFbJIjTpKD48AviNCkoPvyCOE0Kig+/Ik7TkmzdLkw2RZymJdnqXRhuijhNS7I1vDDfFHGadlfaOl4YcYo4TUuydbww5RCnIU5DnPaAEHFasxCnIU5DnFZYiNMQp/V6VYjTWvv3eD7itP2FOG23Bvie1pH5BcABBxxwwAEHHHDAAQcccEaPc2TaAWiggQYaaKCBBhpooIEGmvHQPBndATjggAMOOOCAAw444IADTv1+iNO2C3HaTpy2Hok4bToGcdr0YOK005Ns8aYpOVNTzsyUMzflLEw5S1POypSzNuW0fnYvBbkanVyVTq5OJ1epk6vVyVXr5Op1chU7uZqdXc3Otrva1ezsanbu1ezugrRWVL0fTYgJ36F6O5oQE577ejeaEBOe+XozmhATnnfBi6bkmHocjzFBiqbkmKoczzDBiKbkmNocDzBBh6bcg6Y+x9NLcKEpOaY+x6OrXoTWihE8aEpO+PYIFjQlJzzuggNNyQmPu2BAU3LC4674z6QgV6PjCabIz6QgV6njIaaYz6QgV6/jOaZoz6Sb0dXseJQpzjMpyNXseJohPEN4hvDsASHCs2YhPEN4hvCssBCeITzr9aoQnrX27/F8hGf7C+HZbg3w/aoj8wKAAw444IADDjjggAMOOOCMHufIdAHQQAMNNNBAAw000EADDTTjoXkymgJwwAEHHHDAAQcccMABB5z6/RCebRfCs3vh2Vh8Z7Mx+M5m+M7wnT3+M3t8Z/jO8J3hO+sShO8M3xm+M3xn+M7wneE7w3fWa3DhO8N31ikI39njQfjOHg/Cd/Z4EL6zCAbfGb6zjxe+s3t8fGcfL3xnXRa+s37Px3eG76zXq8J31tq/x/Pxne0vfGe7NcDXq45MCwAOOOCAAw444IADDjjggDN6nCOzBUADDTTQQAMNNNBAAw000IyH5slYCsABBxxwwAEHHHDAAQcccOr3w3e2XfjOdr6z05EIz+ZjEJ7NDyg8O52bjGdC0NQVNHMFzV1BC1fQ0hW0cgWtXUEf/eBeSbJ1O9nKnWztTrZ6J1u/k63gydbwZKt4snU82zqeffe3rePZ1vHcr+N9RGj7WYoJrT4nfpcUF1p9TnwLKDa0+pz4BlB8aPU58emXjGhCkKvRhfEmSdGEIFepC7NN8qIJQa5eFwabpEYTbkZXswtTTbKjCUGuZhdGmiJI28+RDGlCUPwWSY40ISg+/JIlTQiKD7/kSROC4sOvmdKUJFu3C5NNk6UpSbZ6F4ab5ktTkmwNL8w3TZmm3JW2jhdGnGZNU5JsHS9MOcRpiNMQpz0gRJzWLMRpiNMQpxUW4jTEab1eFeK01v49no84bX8hTtutAb6ndWR+AXDAAQcccMABBxxwwAEHnNHjHJl2ABpooIEGGmiggQYaaKCBZjw0T0Z3AA444IADDjjggAMOOOCAU78f4rTtQpy2E6elkYjTFmMQpy0OJk5b3P0stFZy4wqauoJmrqC5K2jhClq6glauoLUrqPX7ey3J1u1kK3eytTvZ6p1s/U62gidbw5Ot4snW8WzrePbd37aOZ1vHc7+OdxentbPqxWlKTvwu1YvTlJz4FqgXpyk58Q1QL05TcuLTL4jTpCBXowvjTRCnSUGuUhdmmyBOk4JcvS4MNkGcJt2MrmYXppogTpOCXM0ujLR6cVo7RxCnSUHxWySI06Sg+PAL4jQpKD78gjhNCooPvyJO05Js3S5MNkWcpiXZ6l0Yboo4TUuyNbww3xRxmnZX2jpeGHGKOE1LsnW8MOUQpyFOQ5z2gBBxWrMQpyFOQ5xWWIjTEKf1elWI01r793g+4rT9hThttwb4ntaR+QXAAQcccMABBxxwwAEHHHBGj3Nk2gFooIEGGmiggQYaaKCBBprx0DwZ3QE44IADDjjggAMOOOCAA079fojTtgtx2k6clkciTluOQZy2PJg47fQkW7xpSs7UlDMz5cxNOQtTztKUszLlrE05rZ/dS0GuRidXpZOr08lV6uRqdXLVOrl6nVzFTq5mZ1ezs+2udjU7u5qdezW7uyCtFVXvRxNiwneo3o4mxITnvt6NJsSEZ77ejCbEhOdd8KIpOaYex2NMkKIpOaYqxzNMMKIpOaY2xwNM0KEp96Cpz/H0ElxoSo6pz/HoqhehtWIED5qSE749ggVNyQmPu+BAU3LC4y4Y0JSc8Lgr/jMpyNXoeIIp8jMpyFXqeIgp5jMpyNXreI4p2jPpZnQ1Ox5livNMCnI1O55mCM8QniE8e0CI8KxZCM8QniE8KyyEZwjPer0qhGet/Xs8H+HZ/kJ4tlsDfL/qyLwA4IADDjjggAMOOOCAAw44o8c5Ml0ANNBAAw000EADDTTQQAPNeGiejKYAHHDAAQcccMABBxxwwAGnfj+EZ9uF8GwnPJuORHi2GoPwbHVA4dnp3GQ8E4KmrqCZK2juClq4gpauoJUraO0K+ugH90qSrdvJVu5ka3ey1TvZ+p1sBU+2hidbxZOt49nW8ey7v20dz7aO534d7yNC289STGj1OfG7pLjQ6nPiW0CxodXnxDeA4kOrz4lPv2REE4JcjS6MN0mKJgS5Sl2YbZIXTQhy9bow2CQ1mnAzuppdmGqSHU0IcjW7MNIUQdp+jmRIE4Lit0hypAlB8eGXLGlCUHz4JU+aEBQffs2UpiTZul2YbJosTUmy1bsw3DRfmpJka3hhvmnKNOWutHW8MOI0a5qSZOt4YcohTkOchjjtASHitGYhTkOchjitsBCnIU7r9aoQp7X27/F8xGn7C3Habg3wPa0j8wuAAw444IADDjjggAMOOOCMHufItAPQQAMNNNBAAw000EADDTTjoXkyugNwwAEHHHDAAQcccMABB5z6/RCnbRfitJ04bTYScdp6DOK09cHEaYu7n4XWSm5cQVNX0MwVNHcFLVxBS1fQyhW0dgW1fn+vJdm6nWzlTrZ2J1u9k63fyVbwZGt4slU82TqebR3Pvvvb1vFs63ju1/Hu4rR2Vr04TcmJ36V6cZqSE98C9eI0JSe+AerFaUpOfPoFcZoU5Gp0YbwJ4jQpyFXqwmwTxGlSkKvXhcEmiNOkm9HV7MJUE8RpUpCr2YWRVi9Oa+cI4jQpKH6LBHGaFBQffkGcJgXFh18Qp0lB8eFXxGlakq3bhcmmiNO0JFu9C8NNEadpSbaGF+abIk7T7kpbxwsjThGnaUm2jhemHOI0xGmI0x4QIk5rFuI0xGmI0woLcRritF6vCnFaa/8ez0ectr8Qp+3WAN/TOjK/ADjggAMOOOCAAw444IADzuhxjkw7AA000EADDTTQQAMNNNBAMx6aJ6M7AAcccMABBxxwwAEHHHDAqd8Pcdp2IU7bidPm4xCnLU9HIE67hTyUOO30JFu8aUrO1JQzM+XMTTkLU87SlLMy5axNOa2f3UtBrkYnV6WTq9PJVerkanVy1Tq5ep1cxU6uZmdXs7PtrnY1O7uanXs1u7sgrRVV70cTYsJ3qN6OJsSE577ejSbEhGe+3owmxITnXfCiKTmmHsdjTJCiKTmmKsczTDCiKTmmNscDTNChKfegqc/x9BJcaEqOqc/x6KoXobViBA+akhO+PYIFTckJj7vgQFNywuMuGNCUnPC4K/4zKcjV6HiCKfIzKchV6niIKeYzKcjV63iOKdoz6WZ0NTseZYrzTApyNTueZgjPEJ4hPHtAiPCsWQjPEJ4hPCsshGcIz3q9KoRnrf17PB/h2f5CeLZbA3y/6si8AOCAAw444IADDjjggAMOOKPHOTJdADTQQAMNNNBAAw000EADzXhonoymABxwwAEHHHDAAQcccMABp34/hGfbhfBsJzxbjER4lsYgPEsHFJ6dzk3GMyFo6gqauYLmrqCFK2jpClq5gtauoI9+cK8k2bqdbOVOtnYnW72Trd/JVvBka3iyVTzZOp5tHc+++9vW8WzreO7X8T4itP0sxYRWnxO/S4oLrT4nvgUUG1p9TnwDKD60+pz49EtGNCHI1ejCeJOkaEKQq9SF2SZ50YQgV68Lg01Sowk3o6vZhakm2dGEIFezCyNNEaTt50iGNCEofoskR5oQFB9+yZImBMWHX/KkCUHx4ddMaUqSrduFyabJ0pQkW70Lw03zpSlJtoYX5pumTFPuSlvHCyNOs6YpSbaOF6Yc4jTEaYjTHhAiTmsW4jTEaYjTCgtxGuK0Xq8KcVpr/x7PR5y2vxCn7dYA39M6Mr8AOOCAAw444IADDjjggAPO6HGOTDsADTTQQAMNNNBAAw000EAzHponozsABxxwwAEHHHDAAQcccMCp3w9x2nYhTtuJ05YjEaflMYjT8sHEaYu7n4XWSm5cQVNX0MwVNHcFLVxBS1fQyhW0dgW1fn+vJdm6nWzlTrZ2J1u9k63fyVbwZGt4slU82TqebR3Pvvvb1vFs63ju1/Hu4rR2Vr04TcmJ36V6cZqSE98C9eI0JSe+AerFaUpOfPoFcZoU5Gp0YbwJ4jQpyFXqwmwTxGlSkKvXhcEmiNOkm9HV7MJUE8RpUpCr2YWRVi9Oa+cI4jQpKH6LBHGaFBQffkGcJgXFh18Qp0lB8eFXxGlakq3bhcmmiNO0JFu9C8NNEadpSbaGF+abIk7T7kpbxwsjThGnaUm2jhemHOI0xGmI0x4QIk5rFuI0xGmI0woLcRritF6vCnFaa/8ez0ectr8Qp+3WAN/TOjK/ADjggAMOOOCAAw444IADzuhxjkw7AA000EADDTTQQAMNNNBAMx6aJ6M7AAcccMABBxxwwAEHHHDAqd8Pcdp2IU7bidNWIxGnTccgTpseTJx2epIt3jQlZ2rKmZly5qachSlnacpZmXLWppzWz+6lIFejk6vSydXp5Cp1crU6uWqdXL1OrmInV7Ozq9nZdle7mp1dzc69mt1dkNaKqvejCTHhO1RvRxNiwnNf70YTYsIzX29GE2LC8y540ZQcU4/jMSZI0ZQcU5XjGSYY0ZQcU5vjASbo0JR70NTneHoJLjQlx9TneHTVi9BaMYIHTckJ3x7BgqbkhMddcKApOeFxFwxoSk543BX/mRTkanQ8wRT5mRTkKnU8xBTzmRTk6nU8xxTtmXQzupodjzLFeSYFuZodTzOEZwjPEJ49IER41iyEZwjPEJ4VFsIzhGe9XhXCs9b+PZ6P8Gx/ITzbrQG+X3VkXgBwwAEHHHDAAQcccMABB5zR4xyZLgAaaKCBBhpooIEGGmiggWY8NE9GUwAOOOCAAw444IADDjjggFO/H8Kz7UJ4thOerUciPJuNQXg2O5jwLM1OT073VppZ/GfG2OkwsbNhYufDxC6GiV0OE7saJnY9TGzr5/7O3IHOWRrooKWBTloa6Kilgc5aGuiwpYFOWxrouKWBzlse6LzloebaQOctD3TesnLeuovlSsn1njlfatd3t95C50vtepPVO+p8qV1vsXqDnS+16w0m+O2MscOcrs4fFwQZnjF2mAPW+bOCYM4zxg5zxjp/UBA0e8apMMwp6/wpQXDyGWOHOWWdPyLUC/xKqYLPzxjb9a0VbH/G2K4XmOACNMZ2vcAEU6AxtusFpngEnbkDnbPOnxQU6aAzd6Cj1vnDgmIodOYOdNo6f15QdIbOOTHQeev8kUFxHzpzBzpvnT81IEpElIgo8QEhosRmIUpElIgosbAQJSJK7PWqECW29u/xfESJ+wtR4m4N8L3MI/OJgAMOOOCAAw444IADDjjgjB7nyDQj0EADDTTQQAMNNNBAAw0046F5MnoTcMABBxxwwAEHHHDAAQec+v3+E0SJf9x8/3ZzdXbz7mozef7VJ3gTj8ubuLn64fzlZvLvZ03zfnN5+XbS/IU133OenX41EoXifAwKxfnBFIrz+cl0vbemc4tC0Rg7HSZ2NkzsfJjYxTCxy2FiV8PEroeJbZkOnLkDnbM00EFLA520NNBRSwOdtTTQYUsDnbY00HFLA523PNB5y0PNtYHOWx7ovGXlvHVXKJaS6xWKvtSu7269QtGX2vUmq1co+lK73mL1CkVfatcbTFAoGmOHOV2dPy4ICkVj7DAHrPNnBUGhaIwd5ox1/qAgKBSNU2GYU9b5U4KgUDTGDnPKOn9EqFcollIFhaIxtutbKygUjbFdLzBBoWiM7XqBCQpFY2zXC0xRKDpzBzpnnT8pKApFZ+5AR63zhwVFoejMHei0df68oCgUnXNioPPW+SODolB05g503jp/akChiEIRheIDQhSKzUKhiEIRhWJhoVBEodjrVaFQbO3f4/koFPcXCsXdGuAbm0dmGgEHHHDAAQcccMABBxxwwBk9zpEJSKCBBhpooIEGGmiggQYaaMZD82TEJ+CAAw444IADDjjggAMOOPX7oVD8+fV0FYrv3r69eD/5/PzqTp04EmfiYgzOxMXBnIl3/7lWzmTKmZpyZqacuSlnYcpZmnJWppy1KaflFJCCXI1OrkonV6eTq9TJ1erkqnVy9Tq5ip1czc6uZmfbXe1qdnY1O/dqdneXXyuqXt4nxITvUL2eT4gJz329gE+ICc98vWJPiAnPuyDRU3JMPY7HmODFU3JMVY5nmKC6U3JMbY4HmGCvU+5BU5/j6SUI6ZQcU5/j0VXvmGvFCFI5JSd8ewRtnJITHndBDKfkhMddUL8pOeFxV+RuUpCr0fEEU3xtUpCr1PEQUxRsUpCr1/EcU6xq0s3oanY8yhRRmhTkanY8zR4E/evV+eXV+c37SZp8Onn+h3dvPmksVItP/+fZm09P06d3//nXm5efTlM05k5b/x+9zz+fzdZrwxZ5+C2mw28xG36L+fBbLIbfYjn8Fqvht1gPv0Vrsg+1xwHOdzrAAU8HOOHpAEc8HeCMpwMc8nSAU54OcMzTAc55PsA5z4eY4wc45/kA5zzXnfN8t8fZTbTHabePVdNpzquFYYv4b8O2RfyXYdsi/ruwbRFfubYt4hvXtkV84dq2iO9b2xbxdWvbovCxyrfHAc534WOVb48DnPDCxyrfHgc444WPVb49DnDKCx+rfHsc4JwXPlb59jjEHD/AOS98rPLtUXfOp80eX12dB3vkdbePVSktl9OpYYv4b8O2RfyXYdsi/ruwbRFfubYt4hvXtkV84dq2iL8BZdsi/m6UbYvCFwJ9e8TfqPLtEX/ZyrdH/D0s3x7xV7R8e8TfS/TtEX9l0bdH/G1G3x4HOOaF70D65t8Bznnhm5O+PQ5wzgvft/TtUTfKZ80ef/z2XbTHqtvHqua/cWn+j4Yt4o9Vti3ij1W2LeK/C9sW8ccq2xbxxyrbFvHHKtsW8X1r2yK+bm1bFD5W+faIr1vfHvF169sjvm59e8Qfq3x7xB+rfHvEH6t8e8Qfq3x7HOCYFz5W+ebfAc554WOVb48DnPPCxyrfHnWjfN7s8e+bV9Eey24fq3796y++WC4NW8Qfq2xbxB+rbFvEfxe2LeKPVbYt4o9Vti3ij1W2LeL71rZFfN3atih8rPLtEV+3vj3i69a3R3zd+vaIP1b59og/Vvn2iD9W+faIP1b59jjAMS98rPLNvwOc88LHKt8eBzjnhY9Vvj3qRvni7qPbu020x6Lbx6ovvlgsLFvEH6tsW8Qfq2xbxH8Xti3ij1W2LeKPVbYt4o9Vti3i+9a2RXzd2rYofKzy7RFft7494uvWt0d83fr2iD9W+faIP1b59og/Vvn2iD9W+fY4wDEvfKzyzb8DnPPCxyrfHgc454WPVb496kb5stnjt5fR1+LzvNvHqtUq5/ncsEX8scq2RfyxyrZF/Hdh2yL+WGXbIv5YZdsi/lhl26JklzJtUfJOmbYoytZce8TXrW+PksjKtUfJceXao6S/cu1Rcr659ijp4Fx7lExxrj0OcMyLfjnX/DvAOS9a6Vx7HOCcF112rj0eH+V/7mJ43WqYJ59N3mx+vDfI3oljn1//8PrFnQH2UVXsvcv5enPzj5fv3ry6fj4/fTFJaf5iMm3+U553083+dIux81C/evXF2c3m9eXV+89/Or/+YELevf4OwujbgN9dvdpc/f5dIybu/Acbjvdtjt9uzq7fXW0+YDRu5e37PrCRm4d5mId5mId5mId5mId5mId5mId5mId5mId5mId5mId5mId5mId5mId5mId5mId5mId5mId5mId5mId5mId5mId5mId5mId5mId5mId5mId5mId5mIf/n3r4/cnlD5urq/NXm9+eNT+sTSen4u9Vm5/GXrd/GvuHzdX55nr789pnL+5/QPz24vLm5OL8zebRn8he/9zvdB//Ze31yd1/9fzby4uzm/PLN7dQz65vNm8//XrzzeXV5lm3Xz7/ZvN68+ZV+wV9+GfPF6cvJtPml8unzQ+Zm//x7GLzzU0D9kj0fezJX15vbr58c9O8P7dbfPPuzcs70uefTP7jkYh7ws3uT//p0d9yN+v8m8nzm2/Pr0+u7/5Wum3UrL0/dHL7/n159vLb5/8XuG/aPX7z0/Fb9m3uX95eXp83gb++/cddXs39amJ+hurq8sd+SPdY529ebZrz8Gl60fNP36/vav/gN+ebi6Zvz7fv6Ydz8vrq8t3bzavJ3/3d5L9s//lPJ3/59ux6+/v35oB9sv/o+5999PYNOTl7/fqrZo+Ti82b1zffTv5hkif/Y/Ls84uLZ5NftZ9xfXH+cvP80/TJn07//Mmj5+3BK7m8mjz/7valnP795LvbbbZV3e7b/LP/dnvj9P8LalZT423en77788lfN+8nn3322Yc3ry7xLnX71/5d35d6v76+2pz9teYP/63nn+n7/Ob92r66z5paN2XYNuVO5HDyl7Pr6/PXbzavvmgUEdd/unsn/1z3Vt7/Rb99d/3t89q/i9u/0l99+PusP0kXF7/q8ipPmmfW7nJ9c3X51023fT48t3any7dnL89v3nfbavvk6ld1t8X9VrUp9xdJ+1qpOR69L59m3R/n9sUz+XSS+qb1OW7dWf/24m6qdnr+3x77TNGsX/5y8q//9sfJ//ndv/1+8off/f6P//K//mnym9/90798MfnnL3//ZbeAr25v7c1PZ81HtMnN5eT68upm8ubd97c9eDm5U5pcT86uX95+eDl/87pD4v173+TsTeazF5Ovu18uV5ubd1dvJm/Prq43X11cnt08P2uu/E9u/yr3/tnXd/+s05v5+Ee0vW23L+Gx4L8Na3rZff68O+53h/35L15tvjl7d3EzeXt1eXuHbX7xYvKL/7paffHFl1/+YmDxDDjggAMOOOCAAw444IADzv+bOJPrd9/f/n+BJ682zT+cvDp73xBdbV5BAw000EADDTTQQAMNNNBAU6b58e6rWR/RfH3xbgMOOOCAAw444IADDjjggANODc7uvzcwNf+9gX94F/33Bk7T3b9h+/zz2Wy9hhRSSCGFFFJIIYUUUkghhRRSSMdBmu9Iz24i0tM70uk059UCUkghhRRSSCGFFFJIIYUUUkghHQfptCH96uo8IM3rO9KUlsvpFFJIIYUUUkghhRRSSCGFFFJIIR0H6awh/eO37yLS1R3p+nbN/xFSSCGFFFJIIYUUUkghhRRSSCEdB+m8If33zauIdHlH+utff/HFcgkppJBCCimkkEIKKaSQQgoppJCOg3Rx93+ZeLeJSBd3pF98sVhACimkkEIKKaSQQgoppJBCCimkYyFdNqS/vYzMgnl+R7pa5TyfQwoppJBCCimkkEIKKaSQQgoppAcjvUd5dXX24/NHw346uTm/udj84duzt5uTm81PN89/8c+X766uH8d4//BP/vr8+82b6/PLNxeb67uERyJ++cvJ569eTc4md0mTH89vvp1cX36/mbyaPvInr394fXL29u3mzavnz5q9n33yyB+4XydnNzdXz5/99OzFZHHa8w+9v/1Dufsfur55f7H5gPfp2ZuX315e3f75Zxebb3rQbjO+uXxz8+mPm/PX3940GV9fXrzqnvHh7+Z/f/6/P7zBv998uzm7mfzu5cvJH15++4tPSn9J//DL65dX529v/nv4nH/45avzH37+4fDPxGG3WZPzV589e9k0+IvbF312/mZz9Ze8XD6b3L0Vnz17dX799uLs/a/O31zcPvbp1xeXL//6989iwNvUD69hcvP+7e2fb96NX3539sPZh39a/JPN+uHsqmnb5LPJq/Pv315sTt5sfvzDD6+fP/uvPwP5YjI7Pb37H48enyb31dnN2W3wn/7j2cXZ15uLZ7969mrzzdm7i5vJ26vLb84vNs9efHjkLz89+1U6OX3x7Iezi3ebZ79arE/We2u1fvHsZXPn3CbcXiNffPHll8/+9qJTah4kdTpI6myQ1PkgqYtBUpeDpK4GSV0PkppOh4kd5nSlYY5XGuZ8pWEOWBrmhKVhjlga5oylYQ5ZGuaU5WFOWR5ohg1zyvIwpywLp2xy/e7771v/Nd4VnxCuNq96hHZ8b/uFdnxn+4V2fF/7hXa8u/qFdry5+oV2vLf6hXa8tfqFdryz+oV2/WDQM3WQM9X1Y0HP1EFOVdcPBT1TBzlXXT8S9Ewd5GR1/UDQM3WQs9X140DP1GHm1SBnq+tngZ6ptWfrx/M3N+rHgK+bJ3RP7fi29kzt+Lb2TO34tvZM7Xhl9UzteGX1TO14ZfVM7Xhl9UzteGX1TO36eaBv7DCnq+sngr6xw5yvrp8J+sYOc8K6firoGzvMGev6uaBv7DCnrOsng76xA82wYU5Z1w8HfWN7nbI/d/kXDtt/Nzj5bPJm8+P9v9C4+/cYz69/eP3i7l9IPPpvLu7/BeP15uYfL9+9eXX9fH76YpLS/MVk2vynPO/2bz9+usXY/XvTV6++OLvZvL68ev/5T+fXH/4F3e6t6PBvMW8Dfnf1anP1+3fNvy/r/Acbjvdtjt9uzq7fXW0+YDT/ym/7V6D+e9m7f5HU3uoPm6vzzfUW93an7V/I24vLm5Pm3249uuX1z73ux0mvT+569/by4uzm/PLNLdSz65vN20+/3nxzebV51q1Jv9m83rx51X5BH/7Z88VtC6ZNE5p/GZaa/7H9156P/hvh+9iTv7ze3Hz55qZ5f263+Obdm5d3pM8/mfxHh3/v2RBudn/6T4+ejWadfzN5fvPt+fVtr5s/122jZu39oZPb9+/Ls5ffPv+/wH3T7vG3/25wm/uXt5fX503gr2//cZdXc7+amJ+hurr8sR/SPdb5m1eb5uB+ml70/NP367vaP/jN+eai6dvz7Xv64Zy8vrp893bzavJ3fzf5L9t//tPJX749u97eJ80B+2T/0fc/++jtG3Jy9vr1V80eJxebN69vvp38wyRP/sfk2ecXF88mv2o/4/ri/OXm+afpkz+d/vmTR8/bg1dyeTV5/t3tSzn9+8l3t9tsq7rdt/ln/+2zSer/F9SspsbbvD999+eTv25ur7fPPvvw5tUl3qVu/9q/6/tS79fXV5uzv9b84b/1/DN9n9+8X9tX91lT66YM26bcDcaTv3z4Ts/m1d23eq7/dPdO/rnurbz/i3777vrb57V/F7d/pb/68PdZf5IuLn7V5VWeNM+s3eX65uryr5tu+3x4bu1Ol2/PXp7fvO+21fbJ1a/qbov7rWpT7i+S9rVSczx6Xz7Nuj/O7Ytn8ukk9U3rc9y6s/7txd1U7fT8vz32maJZv/zl5F//7Y+T//O7f/v95A+/+/0f/+V//dPkN7/7p3/5YvLPX/7+y24BX93e2pufzpqPaJOby8n15e0H6Tfvvr/twcvJ3UfE68nZ9cvbDy/nb153SLx/75ucvcl89mLydffL5Wpz8+7qzeTt2dX15quLy7Ob52fNlf/J7V/l3j/7+u6fdXozH/+Itrft9iU8Fvy3/4TvXn70L2C3X7Bs/oXqf8pXQcEBBxxwwAEHHHDAAQcccEaP8/ALLg3R1eYVNNBAAw000EADDTTQQAMNNGWaB18JbGiar/iBAw444IADDjjggAMOOOCA859oPPzj5vu3m6uzm3dXm8nzrz7BeXhUzsN/P2sa98+bu//1+fdfn2/e3Eyav7LGfLh59e72/f90sjz9aiQSxNUYJIirg0kQ7356WithMuVMTTkzU87clLMw5SxNOStTztqU07ILSEGuRidXpZOr08lV6uRqdXLVOrl6nVzFTq5mZ1ezs+2udjU7u5qdezW7u7SvFVWv6RNiwneoXsUnxITnvl63J8SEZ75eqSfEhOdd0OYpOaYex2NMkOEpOaYqxzNMUNwpOaY2xwNMENcp96Cpz/H0EnR0So6pz/HoqpfMtWIErZySE749gjpOyQmPu6CHU3LC4y4o4JSc8LgrmjcpyNXoeIIp8jYpyFXqeIgpSjYpyNXreI4pojXpZnQ1Ox5lij5NCnI1O55mSNFGIUXjYR7mYR7mYR7mYR7mYR7mYR7mYR7mYR7m4WN6+P3J5Q+bq6vzV5vfnjX/h6p0cooUf++VIMXfLaT4vRZSfKT4PRZS/I8XUvyPF1L8ngspPlL8n11I8cEBBxxwwAEHHHDAAQcccMAZg1ISGmiggQYaaKCBBhpooIFmPDRPRmUJDjjggAMOOOCAAw444IBTv99/ghT/1+ffb95cn1++udhcX6PEPy4l/uXVXydffvPN+cvzzZuX73ci/MMq8LfP/uiR/f/3/X/+8L936dv/sPtfX1++et/8729vvr/47//f/w/IPB1W"
               },
               {
                  "name" : "annual_peak_electric_demand",
                  "units" : "kW",
                  "value" : 153.72671
               },
               {
                  "name" : "first_year_capital_cost",
                  "units" : "$",
                  "value" : 0
               },
               {
                  "name" : "annual_utility_cost",
                  "units" : "$",
                  "value" : 93352.149999999994
               },
               {
                  "name" : "total_lifecycle_cost",
                  "units" : "$",
                  "value" : 1630476.77
               }
            ],
            "step_warnings" : []
         }
      }
   ],
   "updated_at" : "20170710T193903Z",
   "weather_file" : "USA_CO_Denver.Intl.AP.725650_TMY3.epw"
}
