{
   "completed_at" : "20170710T193843Z",
   "completed_status" : "Success",
   "created_at" : "2017-07-10 19:20:03 +0000",
   "current_step" : 5,
   "description" : "",
   "eplusout_err" : "Program Version,EnergyPlus, Version 8.7.0-78a111df4a, YMD=2017.07.10 19:28,IDD_Version 8.7.0\n   ************* IDF Context for following error/warning message:\n   ************* Note -- lines truncated at 300 characters, if necessary...\n   *************      5 Building,\n   ************* indicated Name=NECB 2011-Hospital-NECB HDD Method-CAN_PQ_Sept-Iles.718110_CWEC.epw created: 2017-07-10 19:20:12 +0000\n   ************* Only last 1 lines before error line shown.....\n   *************      6   NECB 2011-Hospital-NECB HDD Method-CAN_PQ_Sept-Iles.718110_CWEC.epw created: 2017-07-10 19:20:12 +0000, !- Name\n   ** Warning ** IP: IDF line~6 Alpha Argument length exceeds maximum, will be truncated=  NECB 2011-Hospital-NECB HDD Method-CAN_PQ_Sept-Iles.718110_CWEC.epw created: 2017-07-10 19:20:12 +000\n   **   ~~~   ** Will be processed as Alpha=NECB 2011-HOSPITAL-NECB HDD METHOD-CAN_PQ_SEPT-ILES.718110_CWEC.EPW CREATED: 2017-07-10 19:20:12 +0000\n   ************* IDF Context for following error/warning message:\n   ************* Note -- lines truncated at 300 characters, if necessary...\n   *************   5647 Schedule:Week:Daily,\n   ************* indicated Name=Schedule:Week:Daily {5fddae24-1127-4203-9a2c-3a42d5260a3e}\n   ************* Only last 10 lines before error line shown.....\n   *************   5648   Schedule:Week:Daily {5fddae24-1127-4203-9a2c-3a42d5260a3e}, !- Name\n   *************   5649   Sp-ER_NurseStn_Lobby_Flr_1 Sys-3 Flr-1 Sch-H HPlcmt-east ZN NECB System 3 PSZ Occ Sch Sunday, !- Sunday Schedule:Day Name\n   *************   5650   Sp-ER_NurseStn_Lobby_Flr_1 Sys-3 Flr-1 Sch-H HPlcmt-east ZN NECB System 3 PSZ Occ Sch Monday, !- Monday Schedule:Day Name\n   *************   5651   Sp-ER_NurseStn_Lobby_Flr_1 Sys-3 Flr-1 Sch-H HPlcmt-east ZN NECB System 3 PSZ Occ Sch Tuesday, !- Tuesday Schedule:Day Name\n   *************   5652   Sp-ER_NurseStn_Lobby_Flr_1 Sys-3 Flr-1 Sch-H HPlcmt-east ZN NECB System 3 PSZ Occ Sch Wednesday, !- Wednesday Schedule:Day Name\n   *************   5653   Sp-ER_NurseStn_Lobby_Flr_1 Sys-3 Flr-1 Sch-H HPlcmt-east ZN NECB System 3 PSZ Occ Sch Thursday, !- Thursday Schedule:Day Name\n   *************   5654   Sp-ER_NurseStn_Lobby_Flr_1 Sys-3 Flr-1 Sch-H HPlcmt-east ZN NECB System 3 PSZ Occ Sch Friday, !- Friday Schedule:Day Name\n   *************   5655   Sp-ER_NurseStn_Lobby_Flr_1 Sys-3 Flr-1 Sch-H HPlcmt-east ZN NECB System 3 PSZ Occ Sch Saturday, !- Saturday Schedule:Day Name\n   *************   5656   Sp-ER_NurseStn_Lobby_Flr_1 Sys-3 Flr-1 Sch-H HPlcmt-east ZN NECB System 3 PSZ Occ Sch Default, !- Holiday Schedule:Day Name\n   *************   5657   Sp-ER_NurseStn_Lobby_Flr_1 Sys-3 Flr-1 Sch-H HPlcmt-east ZN NECB System 3 PSZ Occ Sch Summer Design Day, !- SummerDesignDay Schedule:Day Name\n   ** Warning ** IP: IDF line~5657 Alpha Argument length exceeds maximum, will be truncated=  Sp-ER_NurseStn_Lobby_Flr_1 Sys-3 Flr-1 Sch-H HPlcmt-east ZN NECB System 3 PSZ Occ Sch Summer Design Da\n   **   ~~~   ** Will be processed as Alpha=SP-ER_NURSESTN_LOBBY_FLR_1 SYS-3 FLR-1 SCH-H HPLCMT-EAST ZN NECB SYSTEM 3 PSZ OCC SCH SUMMER DESIGN DAY\n   ************* IDF Context for following error/warning message:\n   ************* Note -- lines truncated at 300 characters, if necessary...\n   *************   5647 Schedule:Week:Daily,\n   ************* indicated Name=Schedule:Week:Daily {5fddae24-1127-4203-9a2c-3a42d5260a3e}\n   ************* Only last 10 lines before error line shown.....\n   *************   5649   Sp-ER_NurseStn_Lobby_Flr_1 Sys-3 Flr-1 Sch-H HPlcmt-east ZN NECB System 3 PSZ Occ Sch Sunday, !- Sunday Schedule:Day Name\n   *************   5650   Sp-ER_NurseStn_Lobby_Flr_1 Sys-3 Flr-1 Sch-H HPlcmt-east ZN NECB System 3 PSZ Occ Sch Monday, !- Monday Schedule:Day Name\n   *************   5651   Sp-ER_NurseStn_Lobby_Flr_1 Sys-3 Flr-1 Sch-H HPlcmt-east ZN NECB System 3 PSZ Occ Sch Tuesday, !- Tuesday Schedule:Day Name\n   *************   5652   Sp-ER_NurseStn_Lobby_Flr_1 Sys-3 Flr-1 Sch-H HPlcmt-east ZN NECB System 3 PSZ Occ Sch Wednesday, !- Wednesday Schedule:Day Name\n   *************   5653   Sp-ER_NurseStn_Lobby_Flr_1 Sys-3 Flr-1 Sch-H HPlcmt-east ZN NECB System 3 PSZ Occ Sch Thursday, !- Thursday Schedule:Day Name\n   *************   5654   Sp-ER_NurseStn_Lobby_Flr_1 Sys-3 Flr-1 Sch-H HPlcmt-east ZN NECB System 3 PSZ Occ Sch Friday, !- Friday Schedule:Day Name\n   *************   5655   Sp-ER_NurseStn_Lobby_Flr_1 Sys-3 Flr-1 Sch-H HPlcmt-east ZN NECB System 3 PSZ Occ Sch Saturday, !- Saturday Schedule:Day Name\n   *************   5656   Sp-ER_NurseStn_Lobby_Flr_1 Sys-3 Flr-1 Sch-H HPlcmt-east ZN NECB System 3 PSZ Occ Sch Default, !- Holiday Schedule:Day Name\n   *************   5657   Sp-ER_NurseStn_Lobby_Flr_1 Sys-3 Flr-1 Sch-H HPlcmt-east ZN NECB System 3 PSZ Occ Sch Summer Design Day, !- SummerDesignDay Schedule:Day Name\n   *************   5658   Sp-ER_NurseStn_Lobby_Flr_1 Sys-3 Flr-1 Sch-H HPlcmt-east ZN NECB System 3 PSZ Occ Sch Winter Design Day, !- WinterDesignDay Schedule:Day Name\n   ** Warning ** IP: IDF line~5658 Alpha Argument length exceeds maximum, will be truncated=  Sp-ER_NurseStn_Lobby_Flr_1 Sys-3 Flr-1 Sch-H HPlcmt-east ZN NECB System 3 PSZ Occ Sch Winter Design Da\n   **   ~~~   ** Will be processed as Alpha=SP-ER_NURSESTN_LOBBY_FLR_1 SYS-3 FLR-1 SCH-H HPLCMT-EAST ZN NECB SYSTEM 3 PSZ OCC SCH WINTER DESIGN DAY\n   ************* IDF Context for following error/warning message:\n   ************* Note -- lines truncated at 300 characters, if necessary...\n   *************   5678 Schedule:Day:Interval,\n   ************* indicated Name=Sp-ER_NurseStn_Lobby_Flr_1 Sys-3 Flr-1 Sch-H HPlcmt-east ZN NECB System 3 PSZ Occ Sch Summer Design Day\n   ************* Only last 1 lines before error line shown.....\n   *************   5679   Sp-ER_NurseStn_Lobby_Flr_1 Sys-3 Flr-1 Sch-H HPlcmt-east ZN NECB System 3 PSZ Occ Sch Summer Design Day, !- Name\n   ** Warning ** IP: IDF line~5679 Alpha Argument length exceeds maximum, will be truncated=  Sp-ER_NurseStn_Lobby_Flr_1 Sys-3 Flr-1 Sch-H HPlcmt-east ZN NECB System 3 PSZ Occ Sch Summer Design Da\n   **   ~~~   ** Will be processed as Alpha=SP-ER_NURSESTN_LOBBY_FLR_1 SYS-3 FLR-1 SCH-H HPLCMT-EAST ZN NECB SYSTEM 3 PSZ OCC SCH SUMMER DESIGN DAY\n   ************* IDF Context for following error/warning message:\n   ************* Note -- lines truncated at 300 characters, if necessary...\n   *************   5685 Schedule:Day:Interval,\n   ************* indicated Name=Sp-ER_NurseStn_Lobby_Flr_1 Sys-3 Flr-1 Sch-H HPlcmt-east ZN NECB System 3 PSZ Occ Sch Winter Design Day\n   ************* Only last 1 lines before error line shown.....\n   *************   5686   Sp-ER_NurseStn_Lobby_Flr_1 Sys-3 Flr-1 Sch-H HPlcmt-east ZN NECB System 3 PSZ Occ Sch Winter Design Day, !- Name\n   ** Warning ** IP: IDF line~5686 Alpha Argument length exceeds maximum, will be truncated=  Sp-ER_NurseStn_Lobby_Flr_1 Sys-3 Flr-1 Sch-H HPlcmt-east ZN NECB System 3 PSZ Occ Sch Winter Design Da\n   **   ~~~   ** Will be processed as Alpha=SP-ER_NURSESTN_LOBBY_FLR_1 SYS-3 FLR-1 SCH-H HPLCMT-EAST ZN NECB SYSTEM 3 PSZ OCC SCH WINTER DESIGN DAY\n   ************* IDF Context for following error/warning message:\n   ************* Note -- lines truncated at 300 characters, if necessary...\n   *************   7064 Schedule:Week:Daily,\n   ************* indicated Name=Schedule:Week:Daily {9a67b2ea-bdae-4699-8f60-f0fd6169726f}\n   ************* Only last 10 lines before error line shown.....\n   *************   7065   Schedule:Week:Daily {9a67b2ea-bdae-4699-8f60-f0fd6169726f}, !- Name\n   *************   7066   Sp-ICU_NurseStn_Lobby_Flr_2 Sys-3 Flr-4 Sch-H HPlcmt-core ZN NECB System 3 PSZ Occ Sch Sunday, !- Sunday Schedule:Day Name\n   *************   7067   Sp-ICU_NurseStn_Lobby_Flr_2 Sys-3 Flr-4 Sch-H HPlcmt-core ZN NECB System 3 PSZ Occ Sch Monday, !- Monday Schedule:Day Name\n   *************   7068   Sp-ICU_NurseStn_Lobby_Flr_2 Sys-3 Flr-4 Sch-H HPlcmt-core ZN NECB System 3 PSZ Occ Sch Tuesday, !- Tuesday Schedule:Day Name\n   *************   7069   Sp-ICU_NurseStn_Lobby_Flr_2 Sys-3 Flr-4 Sch-H HPlcmt-core ZN NECB System 3 PSZ Occ Sch Wednesday, !- Wednesday Schedule:Day Name\n   *************   7070   Sp-ICU_NurseStn_Lobby_Flr_2 Sys-3 Flr-4 Sch-H HPlcmt-core ZN NECB System 3 PSZ Occ Sch Thursday, !- Thursday Schedule:Day Name\n   *************   7071   Sp-ICU_NurseStn_Lobby_Flr_2 Sys-3 Flr-4 Sch-H HPlcmt-core ZN NECB System 3 PSZ Occ Sch Friday, !- Friday Schedule:Day Name\n   *************   7072   Sp-ICU_NurseStn_Lobby_Flr_2 Sys-3 Flr-4 Sch-H HPlcmt-core ZN NECB System 3 PSZ Occ Sch Saturday, !- Saturday Schedule:Day Name\n   *************   7073   Sp-ICU_NurseStn_Lobby_Flr_2 Sys-3 Flr-4 Sch-H HPlcmt-core ZN NECB System 3 PSZ Occ Sch Default, !- Holiday Schedule:Day Name\n   *************   7074   Sp-ICU_NurseStn_Lobby_Flr_2 Sys-3 Flr-4 Sch-H HPlcmt-core ZN NECB System 3 PSZ Occ Sch Summer Design Day, !- SummerDesignDay Schedule:Day Name\n   ** Warning ** IP: IDF line~7074 Alpha Argument length exceeds maximum, will be truncated=  Sp-ICU_NurseStn_Lobby_Flr_2 Sys-3 Flr-4 Sch-H HPlcmt-core ZN NECB System 3 PSZ Occ Sch Summer Design Da\n   **   ~~~   ** Will be processed as Alpha=SP-ICU_NURSESTN_LOBBY_FLR_2 SYS-3 FLR-4 SCH-H HPLCMT-CORE ZN NECB SYSTEM 3 PSZ OCC SCH SUMMER DESIGN DAY\n   ************* IDF Context for following error/warning message:\n   ************* Note -- lines truncated at 300 characters, if necessary...\n   *************   7064 Schedule:Week:Daily,\n   ************* indicated Name=Schedule:Week:Daily {9a67b2ea-bdae-4699-8f60-f0fd6169726f}\n   ************* Only last 10 lines before error line shown.....\n   *************   7066   Sp-ICU_NurseStn_Lobby_Flr_2 Sys-3 Flr-4 Sch-H HPlcmt-core ZN NECB System 3 PSZ Occ Sch Sunday, !- Sunday Schedule:Day Name\n   *************   7067   Sp-ICU_NurseStn_Lobby_Flr_2 Sys-3 Flr-4 Sch-H HPlcmt-core ZN NECB System 3 PSZ Occ Sch Monday, !- Monday Schedule:Day Name\n   *************   7068   Sp-ICU_NurseStn_Lobby_Flr_2 Sys-3 Flr-4 Sch-H HPlcmt-core ZN NECB System 3 PSZ Occ Sch Tuesday, !- Tuesday Schedule:Day Name\n   *************   7069   Sp-ICU_NurseStn_Lobby_Flr_2 Sys-3 Flr-4 Sch-H HPlcmt-core ZN NECB System 3 PSZ Occ Sch Wednesday, !- Wednesday Schedule:Day Name\n   *************   7070   Sp-ICU_NurseStn_Lobby_Flr_2 Sys-3 Flr-4 Sch-H HPlcmt-core ZN NECB System 3 PSZ Occ Sch Thursday, !- Thursday Schedule:Day Name\n   *************   7071   Sp-ICU_NurseStn_Lobby_Flr_2 Sys-3 Flr-4 Sch-H HPlcmt-core ZN NECB System 3 PSZ Occ Sch Friday, !- Friday Schedule:Day Name\n   *************   7072   Sp-ICU_NurseStn_Lobby_Flr_2 Sys-3 Flr-4 Sch-H HPlcmt-core ZN NECB System 3 PSZ Occ Sch Saturday, !- Saturday Schedule:Day Name\n   *************   7073   Sp-ICU_NurseStn_Lobby_Flr_2 Sys-3 Flr-4 Sch-H HPlcmt-core ZN NECB System 3 PSZ Occ Sch Default, !- Holiday Schedule:Day Name\n   *************   7074   Sp-ICU_NurseStn_Lobby_Flr_2 Sys-3 Flr-4 Sch-H HPlcmt-core ZN NECB System 3 PSZ Occ Sch Summer Design Day, !- SummerDesignDay Schedule:Day Name\n   *************   7075   Sp-ICU_NurseStn_Lobby_Flr_2 Sys-3 Flr-4 Sch-H HPlcmt-core ZN NECB System 3 PSZ Occ Sch Winter Design Day, !- WinterDesignDay Schedule:Day Name\n   ** Warning ** IP: IDF line~7075 Alpha Argument length exceeds maximum, will be truncated=  Sp-ICU_NurseStn_Lobby_Flr_2 Sys-3 Flr-4 Sch-H HPlcmt-core ZN NECB System 3 PSZ Occ Sch Winter Design Da\n   **   ~~~   ** Will be processed as Alpha=SP-ICU_NURSESTN_LOBBY_FLR_2 SYS-3 FLR-4 SCH-H HPLCMT-CORE ZN NECB SYSTEM 3 PSZ OCC SCH WINTER DESIGN DAY\n   ************* IDF Context for following error/warning message:\n   ************* Note -- lines truncated at 300 characters, if necessary...\n   *************   7095 Schedule:Day:Interval,\n   ************* indicated Name=Sp-ICU_NurseStn_Lobby_Flr_2 Sys-3 Flr-4 Sch-H HPlcmt-core ZN NECB System 3 PSZ Occ Sch Summer Design Day\n   ************* Only last 1 lines before error line shown.....\n   *************   7096   Sp-ICU_NurseStn_Lobby_Flr_2 Sys-3 Flr-4 Sch-H HPlcmt-core ZN NECB System 3 PSZ Occ Sch Summer Design Day, !- Name\n   ** Warning ** IP: IDF line~7096 Alpha Argument length exceeds maximum, will be truncated=  Sp-ICU_NurseStn_Lobby_Flr_2 Sys-3 Flr-4 Sch-H HPlcmt-core ZN NECB System 3 PSZ Occ Sch Summer Design Da\n   **   ~~~   ** Will be processed as Alpha=SP-ICU_NURSESTN_LOBBY_FLR_2 SYS-3 FLR-4 SCH-H HPLCMT-CORE ZN NECB SYSTEM 3 PSZ OCC SCH SUMMER DESIGN DAY\n   ************* IDF Context for following error/warning message:\n   ************* Note -- lines truncated at 300 characters, if necessary...\n   *************   7102 Schedule:Day:Interval,\n   ************* indicated Name=Sp-ICU_NurseStn_Lobby_Flr_2 Sys-3 Flr-4 Sch-H HPlcmt-core ZN NECB System 3 PSZ Occ Sch Winter Design Day\n   ************* Only last 1 lines before error line shown.....\n   *************   7103   Sp-ICU_NurseStn_Lobby_Flr_2 Sys-3 Flr-4 Sch-H HPlcmt-core ZN NECB System 3 PSZ Occ Sch Winter Design Day, !- Name\n   ** Warning ** IP: IDF line~7103 Alpha Argument length exceeds maximum, will be truncated=  Sp-ICU_NurseStn_Lobby_Flr_2 Sys-3 Flr-4 Sch-H HPlcmt-core ZN NECB System 3 PSZ Occ Sch Winter Design Da\n   **   ~~~   ** Will be processed as Alpha=SP-ICU_NURSESTN_LOBBY_FLR_2 SYS-3 FLR-4 SCH-H HPLCMT-CORE ZN NECB SYSTEM 3 PSZ OCC SCH WINTER DESIGN DAY\n   ************* IDF Context for following error/warning message:\n   ************* Note -- lines truncated at 300 characters, if necessary...\n   *************   7901 Schedule:Week:Daily,\n   ************* indicated Name=Schedule:Week:Daily {46b4aa89-d66a-4d48-a012-685a81110aa0}\n   ************* Only last 10 lines before error line shown.....\n   *************   7902   Schedule:Week:Daily {46b4aa89-d66a-4d48-a012-685a81110aa0}, !- Name\n   *************   7903   Sp-IC_PatRoom3_Mult6_Flr_2 Sys-3 Flr-4 Sch-H HPlcmt-west ZN NECB System 3 PSZ Occ Sch Sunday, !- Sunday Schedule:Day Name\n   *************   7904   Sp-IC_PatRoom3_Mult6_Flr_2 Sys-3 Flr-4 Sch-H HPlcmt-west ZN NECB System 3 PSZ Occ Sch Monday, !- Monday Schedule:Day Name\n   *************   7905   Sp-IC_PatRoom3_Mult6_Flr_2 Sys-3 Flr-4 Sch-H HPlcmt-west ZN NECB System 3 PSZ Occ Sch Tuesday, !- Tuesday Schedule:Day Name\n   *************   7906   Sp-IC_PatRoom3_Mult6_Flr_2 Sys-3 Flr-4 Sch-H HPlcmt-west ZN NECB System 3 PSZ Occ Sch Wednesday, !- Wednesday Schedule:Day Name\n   *************   7907   Sp-IC_PatRoom3_Mult6_Flr_2 Sys-3 Flr-4 Sch-H HPlcmt-west ZN NECB System 3 PSZ Occ Sch Thursday, !- Thursday Schedule:Day Name\n   *************   7908   Sp-IC_PatRoom3_Mult6_Flr_2 Sys-3 Flr-4 Sch-H HPlcmt-west ZN NECB System 3 PSZ Occ Sch Friday, !- Friday Schedule:Day Name\n   *************   7909   Sp-IC_PatRoom3_Mult6_Flr_2 Sys-3 Flr-4 Sch-H HPlcmt-west ZN NECB System 3 PSZ Occ Sch Saturday, !- Saturday Schedule:Day Name\n   *************   7910   Sp-IC_PatRoom3_Mult6_Flr_2 Sys-3 Flr-4 Sch-H HPlcmt-west ZN NECB System 3 PSZ Occ Sch Default, !- Holiday Schedule:Day Name\n   *************   7911   Sp-IC_PatRoom3_Mult6_Flr_2 Sys-3 Flr-4 Sch-H HPlcmt-west ZN NECB System 3 PSZ Occ Sch Summer Design Day, !- SummerDesignDay Schedule:Day Name\n   ** Warning ** IP: IDF line~7911 Alpha Argument length exceeds maximum, will be truncated=  Sp-IC_PatRoom3_Mult6_Flr_2 Sys-3 Flr-4 Sch-H HPlcmt-west ZN NECB System 3 PSZ Occ Sch Summer Design Da\n   **   ~~~   ** Will be processed as Alpha=SP-IC_PATROOM3_MULT6_FLR_2 SYS-3 FLR-4 SCH-H HPLCMT-WEST ZN NECB SYSTEM 3 PSZ OCC SCH SUMMER DESIGN DAY\n   ************* IDF Context for following error/warning message:\n   ************* Note -- lines truncated at 300 characters, if necessary...\n   *************   7901 Schedule:Week:Daily,\n   ************* indicated Name=Schedule:Week:Daily {46b4aa89-d66a-4d48-a012-685a81110aa0}\n   ************* Only last 10 lines before error line shown.....\n   *************   7903   Sp-IC_PatRoom3_Mult6_Flr_2 Sys-3 Flr-4 Sch-H HPlcmt-west ZN NECB System 3 PSZ Occ Sch Sunday, !- Sunday Schedule:Day Name\n   *************   7904   Sp-IC_PatRoom3_Mult6_Flr_2 Sys-3 Flr-4 Sch-H HPlcmt-west ZN NECB System 3 PSZ Occ Sch Monday, !- Monday Schedule:Day Name\n   *************   7905   Sp-IC_PatRoom3_Mult6_Flr_2 Sys-3 Flr-4 Sch-H HPlcmt-west ZN NECB System 3 PSZ Occ Sch Tuesday, !- Tuesday Schedule:Day Name\n   *************   7906   Sp-IC_PatRoom3_Mult6_Flr_2 Sys-3 Flr-4 Sch-H HPlcmt-west ZN NECB System 3 PSZ Occ Sch Wednesday, !- Wednesday Schedule:Day Name\n   *************   7907   Sp-IC_PatRoom3_Mult6_Flr_2 Sys-3 Flr-4 Sch-H HPlcmt-west ZN NECB System 3 PSZ Occ Sch Thursday, !- Thursday Schedule:Day Name\n   *************   7908   Sp-IC_PatRoom3_Mult6_Flr_2 Sys-3 Flr-4 Sch-H HPlcmt-west ZN NECB System 3 PSZ Occ Sch Friday, !- Friday Schedule:Day Name\n   *************   7909   Sp-IC_PatRoom3_Mult6_Flr_2 Sys-3 Flr-4 Sch-H HPlcmt-west ZN NECB System 3 PSZ Occ Sch Saturday, !- Saturday Schedule:Day Name\n   *************   7910   Sp-IC_PatRoom3_Mult6_Flr_2 Sys-3 Flr-4 Sch-H HPlcmt-west ZN NECB System 3 PSZ Occ Sch Default, !- Holiday Schedule:Day Name\n   *************   7911   Sp-IC_PatRoom3_Mult6_Flr_2 Sys-3 Flr-4 Sch-H HPlcmt-west ZN NECB System 3 PSZ Occ Sch Summer Design Day, !- SummerDesignDay Schedule:Day Name\n   *************   7912   Sp-IC_PatRoom3_Mult6_Flr_2 Sys-3 Flr-4 Sch-H HPlcmt-west ZN NECB System 3 PSZ Occ Sch Winter Design Day, !- WinterDesignDay Schedule:Day Name\n   ** Warning ** IP: IDF line~7912 Alpha Argument length exceeds maximum, will be truncated=  Sp-IC_PatRoom3_Mult6_Flr_2 Sys-3 Flr-4 Sch-H HPlcmt-west ZN NECB System 3 PSZ Occ Sch Winter Design Da\n   **   ~~~   ** Will be processed as Alpha=SP-IC_PATROOM3_MULT6_FLR_2 SYS-3 FLR-4 SCH-H HPLCMT-WEST ZN NECB SYSTEM 3 PSZ OCC SCH WINTER DESIGN DAY\n   ************* IDF Context for following error/warning message:\n   ************* Note -- lines truncated at 300 characters, if necessary...\n   *************   7932 Schedule:Day:Interval,\n   ************* indicated Name=Sp-IC_PatRoom3_Mult6_Flr_2 Sys-3 Flr-4 Sch-H HPlcmt-west ZN NECB System 3 PSZ Occ Sch Summer Design Day\n   ************* Only last 1 lines before error line shown.....\n   *************   7933   Sp-IC_PatRoom3_Mult6_Flr_2 Sys-3 Flr-4 Sch-H HPlcmt-west ZN NECB System 3 PSZ Occ Sch Summer Design Day, !- Name\n   ** Warning ** IP: IDF line~7933 Alpha Argument length exceeds maximum, will be truncated=  Sp-IC_PatRoom3_Mult6_Flr_2 Sys-3 Flr-4 Sch-H HPlcmt-west ZN NECB System 3 PSZ Occ Sch Summer Design Da\n   **   ~~~   ** Will be processed as Alpha=SP-IC_PATROOM3_MULT6_FLR_2 SYS-3 FLR-4 SCH-H HPLCMT-WEST ZN NECB SYSTEM 3 PSZ OCC SCH SUMMER DESIGN DAY\n   ************* IDF Context for following error/warning message:\n   ************* Note -- lines truncated at 300 characters, if necessary...\n   *************   7939 Schedule:Day:Interval,\n   ************* indicated Name=Sp-IC_PatRoom3_Mult6_Flr_2 Sys-3 Flr-4 Sch-H HPlcmt-west ZN NECB System 3 PSZ Occ Sch Winter Design Day\n   ************* Only last 1 lines before error line shown.....\n   *************   7940   Sp-IC_PatRoom3_Mult6_Flr_2 Sys-3 Flr-4 Sch-H HPlcmt-west ZN NECB System 3 PSZ Occ Sch Winter Design Day, !- Name\n   ** Warning ** IP: IDF line~7940 Alpha Argument length exceeds maximum, will be truncated=  Sp-IC_PatRoom3_Mult6_Flr_2 Sys-3 Flr-4 Sch-H HPlcmt-west ZN NECB System 3 PSZ Occ Sch Winter Design Da\n   **   ~~~   ** Will be processed as Alpha=SP-IC_PATROOM3_MULT6_FLR_2 SYS-3 FLR-4 SCH-H HPLCMT-WEST ZN NECB SYSTEM 3 PSZ OCC SCH WINTER DESIGN DAY\n   ************* IDF Context for following error/warning message:\n   ************* Note -- lines truncated at 300 characters, if necessary...\n   *************  10559 Schedule:Week:Daily,\n   ************* indicated Name=Schedule:Week:Daily {d563d17a-7c6c-4e7e-81a5-3d4a0e51e4d0}\n   ************* Only last 10 lines before error line shown.....\n   *************  10560   Schedule:Week:Daily {d563d17a-7c6c-4e7e-81a5-3d4a0e51e4d0}, !- Name\n   *************  10561   Sp-NurseStn_Lobby_Flr_5 Sys-3 Flr-6 Sch-H HPlcmt-south ZN NECB System 3 PSZ Occ Sch Sunday, !- Sunday Schedule:Day Name\n   *************  10562   Sp-NurseStn_Lobby_Flr_5 Sys-3 Flr-6 Sch-H HPlcmt-south ZN NECB System 3 PSZ Occ Sch Monday, !- Monday Schedule:Day Name\n   *************  10563   Sp-NurseStn_Lobby_Flr_5 Sys-3 Flr-6 Sch-H HPlcmt-south ZN NECB System 3 PSZ Occ Sch Tuesday, !- Tuesday Schedule:Day Name\n   *************  10564   Sp-NurseStn_Lobby_Flr_5 Sys-3 Flr-6 Sch-H HPlcmt-south ZN NECB System 3 PSZ Occ Sch Wednesday, !- Wednesday Schedule:Day Name\n   *************  10565   Sp-NurseStn_Lobby_Flr_5 Sys-3 Flr-6 Sch-H HPlcmt-south ZN NECB System 3 PSZ Occ Sch Thursday, !- Thursday Schedule:Day Name\n   *************  10566   Sp-NurseStn_Lobby_Flr_5 Sys-3 Flr-6 Sch-H HPlcmt-south ZN NECB System 3 PSZ Occ Sch Friday, !- Friday Schedule:Day Name\n   *************  10567   Sp-NurseStn_Lobby_Flr_5 Sys-3 Flr-6 Sch-H HPlcmt-south ZN NECB System 3 PSZ Occ Sch Saturday, !- Saturday Schedule:Day Name\n   *************  10568   Sp-NurseStn_Lobby_Flr_5 Sys-3 Flr-6 Sch-H HPlcmt-south ZN NECB System 3 PSZ Occ Sch Default, !- Holiday Schedule:Day Name\n   *************  10569   Sp-NurseStn_Lobby_Flr_5 Sys-3 Flr-6 Sch-H HPlcmt-south ZN NECB System 3 PSZ Occ Sch Summer Design Day, !- SummerDesignDay Schedule:Day Name\n   ** Warning ** IP: IDF line~10569 Alpha Argument length exceeds maximum, will be truncated=  Sp-NurseStn_Lobby_Flr_5 Sys-3 Flr-6 Sch-H HPlcmt-south ZN NECB System 3 PSZ Occ Sch Summer Design Da\n   **   ~~~   ** Will be processed as Alpha=SP-NURSESTN_LOBBY_FLR_5 SYS-3 FLR-6 SCH-H HPLCMT-SOUTH ZN NECB SYSTEM 3 PSZ OCC SCH SUMMER DESIGN DAY\n   ************* IDF Context for following error/warning message:\n   ************* Note -- lines truncated at 300 characters, if necessary...\n   *************  10559 Schedule:Week:Daily,\n   ************* indicated Name=Schedule:Week:Daily {d563d17a-7c6c-4e7e-81a5-3d4a0e51e4d0}\n   ************* Only last 10 lines before error line shown.....\n   *************  10561   Sp-NurseStn_Lobby_Flr_5 Sys-3 Flr-6 Sch-H HPlcmt-south ZN NECB System 3 PSZ Occ Sch Sunday, !- Sunday Schedule:Day Name\n   *************  10562   Sp-NurseStn_Lobby_Flr_5 Sys-3 Flr-6 Sch-H HPlcmt-south ZN NECB System 3 PSZ Occ Sch Monday, !- Monday Schedule:Day Name\n   *************  10563   Sp-NurseStn_Lobby_Flr_5 Sys-3 Flr-6 Sch-H HPlcmt-south ZN NECB System 3 PSZ Occ Sch Tuesday, !- Tuesday Schedule:Day Name\n   *************  10564   Sp-NurseStn_Lobby_Flr_5 Sys-3 Flr-6 Sch-H HPlcmt-south ZN NECB System 3 PSZ Occ Sch Wednesday, !- Wednesday Schedule:Day Name\n   *************  10565   Sp-NurseStn_Lobby_Flr_5 Sys-3 Flr-6 Sch-H HPlcmt-south ZN NECB System 3 PSZ Occ Sch Thursday, !- Thursday Schedule:Day Name\n   *************  10566   Sp-NurseStn_Lobby_Flr_5 Sys-3 Flr-6 Sch-H HPlcmt-south ZN NECB System 3 PSZ Occ Sch Friday, !- Friday Schedule:Day Name\n   *************  10567   Sp-NurseStn_Lobby_Flr_5 Sys-3 Flr-6 Sch-H HPlcmt-south ZN NECB System 3 PSZ Occ Sch Saturday, !- Saturday Schedule:Day Name\n   *************  10568   Sp-NurseStn_Lobby_Flr_5 Sys-3 Flr-6 Sch-H HPlcmt-south ZN NECB System 3 PSZ Occ Sch Default, !- Holiday Schedule:Day Name\n   *************  10569   Sp-NurseStn_Lobby_Flr_5 Sys-3 Flr-6 Sch-H HPlcmt-south ZN NECB System 3 PSZ Occ Sch Summer Design Day, !- SummerDesignDay Schedule:Day Name\n   *************  10570   Sp-NurseStn_Lobby_Flr_5 Sys-3 Flr-6 Sch-H HPlcmt-south ZN NECB System 3 PSZ Occ Sch Winter Design Day, !- WinterDesignDay Schedule:Day Name\n   ** Warning ** IP: IDF line~10570 Alpha Argument length exceeds maximum, will be truncated=  Sp-NurseStn_Lobby_Flr_5 Sys-3 Flr-6 Sch-H HPlcmt-south ZN NECB System 3 PSZ Occ Sch Winter Design Da\n   **   ~~~   ** Will be processed as Alpha=SP-NURSESTN_LOBBY_FLR_5 SYS-3 FLR-6 SCH-H HPLCMT-SOUTH ZN NECB SYSTEM 3 PSZ OCC SCH WINTER DESIGN DAY\n   ************* IDF Context for following error/warning message:\n   ************* Note -- lines truncated at 300 characters, if necessary...\n   *************  10590 Schedule:Day:Interval,\n   ************* indicated Name=Sp-NurseStn_Lobby_Flr_5 Sys-3 Flr-6 Sch-H HPlcmt-south ZN NECB System 3 PSZ Occ Sch Summer Design Day\n   ************* Only last 1 lines before error line shown.....\n   *************  10591   Sp-NurseStn_Lobby_Flr_5 Sys-3 Flr-6 Sch-H HPlcmt-south ZN NECB System 3 PSZ Occ Sch Summer Design Day, !- Name\n   ** Warning ** IP: IDF line~10591 Alpha Argument length exceeds maximum, will be truncated=  Sp-NurseStn_Lobby_Flr_5 Sys-3 Flr-6 Sch-H HPlcmt-south ZN NECB System 3 PSZ Occ Sch Summer Design Da\n   **   ~~~   ** Will be processed as Alpha=SP-NURSESTN_LOBBY_FLR_5 SYS-3 FLR-6 SCH-H HPLCMT-SOUTH ZN NECB SYSTEM 3 PSZ OCC SCH SUMMER DESIGN DAY\n   ************* IDF Context for following error/warning message:\n   ************* Note -- lines truncated at 300 characters, if necessary...\n   *************  10597 Schedule:Day:Interval,\n   ************* indicated Name=Sp-NurseStn_Lobby_Flr_5 Sys-3 Flr-6 Sch-H HPlcmt-south ZN NECB System 3 PSZ Occ Sch Winter Design Day\n   ************* Only last 1 lines before error line shown.....\n   *************  10598   Sp-NurseStn_Lobby_Flr_5 Sys-3 Flr-6 Sch-H HPlcmt-south ZN NECB System 3 PSZ Occ Sch Winter Design Day, !- Name\n   ** Warning ** IP: IDF line~10598 Alpha Argument length exceeds maximum, will be truncated=  Sp-NurseStn_Lobby_Flr_5 Sys-3 Flr-6 Sch-H HPlcmt-south ZN NECB System 3 PSZ Occ Sch Winter Design Da\n   **   ~~~   ** Will be processed as Alpha=SP-NURSESTN_LOBBY_FLR_5 SYS-3 FLR-6 SCH-H HPLCMT-SOUTH ZN NECB SYSTEM 3 PSZ OCC SCH WINTER DESIGN DAY\n   ************* IDF Context for following error/warning message:\n   ************* Note -- lines truncated at 300 characters, if necessary...\n   *************  13649 Schedule:Week:Daily,\n   ************* indicated Name=Schedule:Week:Daily {6b757193-df2a-46b0-9fc9-79595b80c25b}\n   ************* Only last 10 lines before error line shown.....\n   *************  13650   Schedule:Week:Daily {6b757193-df2a-46b0-9fc9-79595b80c25b}, !- Name\n   *************  13651   Sp-OR_NurseStn_Lobby_Flr_2 Sys-3 Flr-4 Sch-H HPlcmt-south ZN NECB System 3 PSZ Occ Sch Sunday, !- Sunday Schedule:Day Name\n   *************  13652   Sp-OR_NurseStn_Lobby_Flr_2 Sys-3 Flr-4 Sch-H HPlcmt-south ZN NECB System 3 PSZ Occ Sch Monday, !- Monday Schedule:Day Name\n   *************  13653   Sp-OR_NurseStn_Lobby_Flr_2 Sys-3 Flr-4 Sch-H HPlcmt-south ZN NECB System 3 PSZ Occ Sch Tuesday, !- Tuesday Schedule:Day Name\n   *************  13654   Sp-OR_NurseStn_Lobby_Flr_2 Sys-3 Flr-4 Sch-H HPlcmt-south ZN NECB System 3 PSZ Occ Sch Wednesday, !- Wednesday Schedule:Day Name\n   *************  13655   Sp-OR_NurseStn_Lobby_Flr_2 Sys-3 Flr-4 Sch-H HPlcmt-south ZN NECB System 3 PSZ Occ Sch Thursday, !- Thursday Schedule:Day Name\n   *************  13656   Sp-OR_NurseStn_Lobby_Flr_2 Sys-3 Flr-4 Sch-H HPlcmt-south ZN NECB System 3 PSZ Occ Sch Friday, !- Friday Schedule:Day Name\n   *************  13657   Sp-OR_NurseStn_Lobby_Flr_2 Sys-3 Flr-4 Sch-H HPlcmt-south ZN NECB System 3 PSZ Occ Sch Saturday, !- Saturday Schedule:Day Name\n   *************  13658   Sp-OR_NurseStn_Lobby_Flr_2 Sys-3 Flr-4 Sch-H HPlcmt-south ZN NECB System 3 PSZ Occ Sch Default, !- Holiday Schedule:Day Name\n   *************  13659   Sp-OR_NurseStn_Lobby_Flr_2 Sys-3 Flr-4 Sch-H HPlcmt-south ZN NECB System 3 PSZ Occ Sch Summer Design Day, !- SummerDesignDay Schedule:Day Name\n   ** Warning ** IP: IDF line~13659 Alpha Argument length exceeds maximum, will be truncated=  Sp-OR_NurseStn_Lobby_Flr_2 Sys-3 Flr-4 Sch-H HPlcmt-south ZN NECB System 3 PSZ Occ Sch Summer Design Da\n   **   ~~~   ** Will be processed as Alpha=SP-OR_NURSESTN_LOBBY_FLR_2 SYS-3 FLR-4 SCH-H HPLCMT-SOUTH ZN NECB SYSTEM 3 PSZ OCC SCH SUMMER DESIGN DAY\n   ************* IDF Context for following error/warning message:\n   ************* Note -- lines truncated at 300 characters, if necessary...\n   *************  13649 Schedule:Week:Daily,\n   ************* indicated Name=Schedule:Week:Daily {6b757193-df2a-46b0-9fc9-79595b80c25b}\n   ************* Only last 10 lines before error line shown.....\n   *************  13651   Sp-OR_NurseStn_Lobby_Flr_2 Sys-3 Flr-4 Sch-H HPlcmt-south ZN NECB System 3 PSZ Occ Sch Sunday, !- Sunday Schedule:Day Name\n   *************  13652   Sp-OR_NurseStn_Lobby_Flr_2 Sys-3 Flr-4 Sch-H HPlcmt-south ZN NECB System 3 PSZ Occ Sch Monday, !- Monday Schedule:Day Name\n   *************  13653   Sp-OR_NurseStn_Lobby_Flr_2 Sys-3 Flr-4 Sch-H HPlcmt-south ZN NECB System 3 PSZ Occ Sch Tuesday, !- Tuesday Schedule:Day Name\n   *************  13654   Sp-OR_NurseStn_Lobby_Flr_2 Sys-3 Flr-4 Sch-H HPlcmt-south ZN NECB System 3 PSZ Occ Sch Wednesday, !- Wednesday Schedule:Day Name\n   *************  13655   Sp-OR_NurseStn_Lobby_Flr_2 Sys-3 Flr-4 Sch-H HPlcmt-south ZN NECB System 3 PSZ Occ Sch Thursday, !- Thursday Schedule:Day Name\n   *************  13656   Sp-OR_NurseStn_Lobby_Flr_2 Sys-3 Flr-4 Sch-H HPlcmt-south ZN NECB System 3 PSZ Occ Sch Friday, !- Friday Schedule:Day Name\n   *************  13657   Sp-OR_NurseStn_Lobby_Flr_2 Sys-3 Flr-4 Sch-H HPlcmt-south ZN NECB System 3 PSZ Occ Sch Saturday, !- Saturday Schedule:Day Name\n   *************  13658   Sp-OR_NurseStn_Lobby_Flr_2 Sys-3 Flr-4 Sch-H HPlcmt-south ZN NECB System 3 PSZ Occ Sch Default, !- Holiday Schedule:Day Name\n   *************  13659   Sp-OR_NurseStn_Lobby_Flr_2 Sys-3 Flr-4 Sch-H HPlcmt-south ZN NECB System 3 PSZ Occ Sch Summer Design Day, !- SummerDesignDay Schedule:Day Name\n   *************  13660   Sp-OR_NurseStn_Lobby_Flr_2 Sys-3 Flr-4 Sch-H HPlcmt-south ZN NECB System 3 PSZ Occ Sch Winter Design Day, !- WinterDesignDay Schedule:Day Name\n   ** Warning ** IP: IDF line~13660 Alpha Argument length exceeds maximum, will be truncated=  Sp-OR_NurseStn_Lobby_Flr_2 Sys-3 Flr-4 Sch-H HPlcmt-south ZN NECB System 3 PSZ Occ Sch Winter Design Da\n   **   ~~~   ** Will be processed as Alpha=SP-OR_NURSESTN_LOBBY_FLR_2 SYS-3 FLR-4 SCH-H HPLCMT-SOUTH ZN NECB SYSTEM 3 PSZ OCC SCH WINTER DESIGN DAY\n   ************* IDF Context for following error/warning message:\n   ************* Note -- lines truncated at 300 characters, if necessary...\n   *************  13680 Schedule:Day:Interval,\n   ************* indicated Name=Sp-OR_NurseStn_Lobby_Flr_2 Sys-3 Flr-4 Sch-H HPlcmt-south ZN NECB System 3 PSZ Occ Sch Summer Design Day\n   ************* Only last 1 lines before error line shown.....\n   *************  13681   Sp-OR_NurseStn_Lobby_Flr_2 Sys-3 Flr-4 Sch-H HPlcmt-south ZN NECB System 3 PSZ Occ Sch Summer Design Day, !- Name\n   ** Warning ** IP: IDF line~13681 Alpha Argument length exceeds maximum, will be truncated=  Sp-OR_NurseStn_Lobby_Flr_2 Sys-3 Flr-4 Sch-H HPlcmt-south ZN NECB System 3 PSZ Occ Sch Summer Design Da\n   **   ~~~   ** Will be processed as Alpha=SP-OR_NURSESTN_LOBBY_FLR_2 SYS-3 FLR-4 SCH-H HPLCMT-SOUTH ZN NECB SYSTEM 3 PSZ OCC SCH SUMMER DESIGN DAY\n   ************* IDF Context for following error/warning message:\n   ************* Note -- lines truncated at 300 characters, if necessary...\n   *************  13687 Schedule:Day:Interval,\n   ************* indicated Name=Sp-OR_NurseStn_Lobby_Flr_2 Sys-3 Flr-4 Sch-H HPlcmt-south ZN NECB System 3 PSZ Occ Sch Winter Design Day\n   ************* Only last 1 lines before error line shown.....\n   *************  13688   Sp-OR_NurseStn_Lobby_Flr_2 Sys-3 Flr-4 Sch-H HPlcmt-south ZN NECB System 3 PSZ Occ Sch Winter Design Day, !- Name\n   ** Warning ** IP: IDF line~13688 Alpha Argument length exceeds maximum, will be truncated=  Sp-OR_NurseStn_Lobby_Flr_2 Sys-3 Flr-4 Sch-H HPlcmt-south ZN NECB System 3 PSZ Occ Sch Winter Design Da\n   **   ~~~   ** Will be processed as Alpha=SP-OR_NURSESTN_LOBBY_FLR_2 SYS-3 FLR-4 SCH-H HPLCMT-SOUTH ZN NECB SYSTEM 3 PSZ OCC SCH WINTER DESIGN DAY\n   ************* IDF Context for following error/warning message:\n   ************* Note -- lines truncated at 300 characters, if necessary...\n   *************  13988 Schedule:Week:Daily,\n   ************* indicated Name=Schedule:Week:Daily {75585a5f-0ba3-48d0-b68d-5b03125cf0e5}\n   ************* Only last 10 lines before error line shown.....\n   *************  13989   Schedule:Week:Daily {75585a5f-0ba3-48d0-b68d-5b03125cf0e5}, !- Name\n   *************  13990   Sp-PatRoom1_Mult10_Flr_3 Sys-3 Flr-2 Sch-H HPlcmt-south ZN NECB System 3 PSZ Occ Sch Sunday, !- Sunday Schedule:Day Name\n   *************  13991   Sp-PatRoom1_Mult10_Flr_3 Sys-3 Flr-2 Sch-H HPlcmt-south ZN NECB System 3 PSZ Occ Sch Monday, !- Monday Schedule:Day Name\n   *************  13992   Sp-PatRoom1_Mult10_Flr_3 Sys-3 Flr-2 Sch-H HPlcmt-south ZN NECB System 3 PSZ Occ Sch Tuesday, !- Tuesday Schedule:Day Name\n   *************  13993   Sp-PatRoom1_Mult10_Flr_3 Sys-3 Flr-2 Sch-H HPlcmt-south ZN NECB System 3 PSZ Occ Sch Wednesday, !- Wednesday Schedule:Day Name\n   *************  13994   Sp-PatRoom1_Mult10_Flr_3 Sys-3 Flr-2 Sch-H HPlcmt-south ZN NECB System 3 PSZ Occ Sch Thursday, !- Thursday Schedule:Day Name\n   *************  13995   Sp-PatRoom1_Mult10_Flr_3 Sys-3 Flr-2 Sch-H HPlcmt-south ZN NECB System 3 PSZ Occ Sch Friday, !- Friday Schedule:Day Name\n   *************  13996   Sp-PatRoom1_Mult10_Flr_3 Sys-3 Flr-2 Sch-H HPlcmt-south ZN NECB System 3 PSZ Occ Sch Saturday, !- Saturday Schedule:Day Name\n   *************  13997   Sp-PatRoom1_Mult10_Flr_3 Sys-3 Flr-2 Sch-H HPlcmt-south ZN NECB System 3 PSZ Occ Sch Default, !- Holiday Schedule:Day Name\n   *************  13998   Sp-PatRoom1_Mult10_Flr_3 Sys-3 Flr-2 Sch-H HPlcmt-south ZN NECB System 3 PSZ Occ Sch Summer Design Day, !- SummerDesignDay Schedule:Day Name\n   ** Warning ** IP: IDF line~13998 Alpha Argument length exceeds maximum, will be truncated=  Sp-PatRoom1_Mult10_Flr_3 Sys-3 Flr-2 Sch-H HPlcmt-south ZN NECB System 3 PSZ Occ Sch Summer Design Da\n   **   ~~~   ** Will be processed as Alpha=SP-PATROOM1_MULT10_FLR_3 SYS-3 FLR-2 SCH-H HPLCMT-SOUTH ZN NECB SYSTEM 3 PSZ OCC SCH SUMMER DESIGN DAY\n   ************* IDF Context for following error/warning message:\n   ************* Note -- lines truncated at 300 characters, if necessary...\n   *************  13988 Schedule:Week:Daily,\n   ************* indicated Name=Schedule:Week:Daily {75585a5f-0ba3-48d0-b68d-5b03125cf0e5}\n   ************* Only last 10 lines before error line shown.....\n   *************  13990   Sp-PatRoom1_Mult10_Flr_3 Sys-3 Flr-2 Sch-H HPlcmt-south ZN NECB System 3 PSZ Occ Sch Sunday, !- Sunday Schedule:Day Name\n   *************  13991   Sp-PatRoom1_Mult10_Flr_3 Sys-3 Flr-2 Sch-H HPlcmt-south ZN NECB System 3 PSZ Occ Sch Monday, !- Monday Schedule:Day Name\n   *************  13992   Sp-PatRoom1_Mult10_Flr_3 Sys-3 Flr-2 Sch-H HPlcmt-south ZN NECB System 3 PSZ Occ Sch Tuesday, !- Tuesday Schedule:Day Name\n   *************  13993   Sp-PatRoom1_Mult10_Flr_3 Sys-3 Flr-2 Sch-H HPlcmt-south ZN NECB System 3 PSZ Occ Sch Wednesday, !- Wednesday Schedule:Day Name\n   *************  13994   Sp-PatRoom1_Mult10_Flr_3 Sys-3 Flr-2 Sch-H HPlcmt-south ZN NECB System 3 PSZ Occ Sch Thursday, !- Thursday Schedule:Day Name\n   *************  13995   Sp-PatRoom1_Mult10_Flr_3 Sys-3 Flr-2 Sch-H HPlcmt-south ZN NECB System 3 PSZ Occ Sch Friday, !- Friday Schedule:Day Name\n   *************  13996   Sp-PatRoom1_Mult10_Flr_3 Sys-3 Flr-2 Sch-H HPlcmt-south ZN NECB System 3 PSZ Occ Sch Saturday, !- Saturday Schedule:Day Name\n   *************  13997   Sp-PatRoom1_Mult10_Flr_3 Sys-3 Flr-2 Sch-H HPlcmt-south ZN NECB System 3 PSZ Occ Sch Default, !- Holiday Schedule:Day Name\n   *************  13998   Sp-PatRoom1_Mult10_Flr_3 Sys-3 Flr-2 Sch-H HPlcmt-south ZN NECB System 3 PSZ Occ Sch Summer Design Day, !- SummerDesignDay Schedule:Day Name\n   *************  13999   Sp-PatRoom1_Mult10_Flr_3 Sys-3 Flr-2 Sch-H HPlcmt-south ZN NECB System 3 PSZ Occ Sch Winter Design Day, !- WinterDesignDay Schedule:Day Name\n   ** Warning ** IP: IDF line~13999 Alpha Argument length exceeds maximum, will be truncated=  Sp-PatRoom1_Mult10_Flr_3 Sys-3 Flr-2 Sch-H HPlcmt-south ZN NECB System 3 PSZ Occ Sch Winter Design Da\n   **   ~~~   ** Will be processed as Alpha=SP-PATROOM1_MULT10_FLR_3 SYS-3 FLR-2 SCH-H HPLCMT-SOUTH ZN NECB SYSTEM 3 PSZ OCC SCH WINTER DESIGN DAY\n   ************* IDF Context for following error/warning message:\n   ************* Note -- lines truncated at 300 characters, if necessary...\n   *************  14019 Schedule:Day:Interval,\n   ************* indicated Name=Sp-PatRoom1_Mult10_Flr_3 Sys-3 Flr-2 Sch-H HPlcmt-south ZN NECB System 3 PSZ Occ Sch Summer Design Day\n   ************* Only last 1 lines before error line shown.....\n   *************  14020   Sp-PatRoom1_Mult10_Flr_3 Sys-3 Flr-2 Sch-H HPlcmt-south ZN NECB System 3 PSZ Occ Sch Summer Design Day, !- Name\n   ** Warning ** IP: IDF line~14020 Alpha Argument length exceeds maximum, will be truncated=  Sp-PatRoom1_Mult10_Flr_3 Sys-3 Flr-2 Sch-H HPlcmt-south ZN NECB System 3 PSZ Occ Sch Summer Design Da\n   **   ~~~   ** Will be processed as Alpha=SP-PATROOM1_MULT10_FLR_3 SYS-3 FLR-2 SCH-H HPLCMT-SOUTH ZN NECB SYSTEM 3 PSZ OCC SCH SUMMER DESIGN DAY\n   ************* IDF Context for following error/warning message:\n   ************* Note -- lines truncated at 300 characters, if necessary...\n   *************  14026 Schedule:Day:Interval,\n   ************* indicated Name=Sp-PatRoom1_Mult10_Flr_3 Sys-3 Flr-2 Sch-H HPlcmt-south ZN NECB System 3 PSZ Occ Sch Winter Design Day\n   ************* Only last 1 lines before error line shown.....\n   *************  14027   Sp-PatRoom1_Mult10_Flr_3 Sys-3 Flr-2 Sch-H HPlcmt-south ZN NECB System 3 PSZ Occ Sch Winter Design Day, !- Name\n   ** Warning ** IP: IDF line~14027 Alpha Argument length exceeds maximum, will be truncated=  Sp-PatRoom1_Mult10_Flr_3 Sys-3 Flr-2 Sch-H HPlcmt-south ZN NECB System 3 PSZ Occ Sch Winter Design Da\n   **   ~~~   ** Will be processed as Alpha=SP-PATROOM1_MULT10_FLR_3 SYS-3 FLR-2 SCH-H HPLCMT-SOUTH ZN NECB SYSTEM 3 PSZ OCC SCH WINTER DESIGN DAY\n   ************* IDF Context for following error/warning message:\n   ************* Note -- lines truncated at 300 characters, if necessary...\n   *************  14327 Schedule:Week:Daily,\n   ************* indicated Name=Schedule:Week:Daily {eb9b90d6-218f-4e01-9fb2-3f5ebab30df3}\n   ************* Only last 10 lines before error line shown.....\n   *************  14328   Schedule:Week:Daily {eb9b90d6-218f-4e01-9fb2-3f5ebab30df3}, !- Name\n   *************  14329   Sp-PatRoom1_Mult10_Flr_4 Sys-3 Flr-3 Sch-H HPlcmt-south ZN NECB System 3 PSZ Occ Sch Sunday, !- Sunday Schedule:Day Name\n   *************  14330   Sp-PatRoom1_Mult10_Flr_4 Sys-3 Flr-3 Sch-H HPlcmt-south ZN NECB System 3 PSZ Occ Sch Monday, !- Monday Schedule:Day Name\n   *************  14331   Sp-PatRoom1_Mult10_Flr_4 Sys-3 Flr-3 Sch-H HPlcmt-south ZN NECB System 3 PSZ Occ Sch Tuesday, !- Tuesday Schedule:Day Name\n   *************  14332   Sp-PatRoom1_Mult10_Flr_4 Sys-3 Flr-3 Sch-H HPlcmt-south ZN NECB System 3 PSZ Occ Sch Wednesday, !- Wednesday Schedule:Day Name\n   *************  14333   Sp-PatRoom1_Mult10_Flr_4 Sys-3 Flr-3 Sch-H HPlcmt-south ZN NECB System 3 PSZ Occ Sch Thursday, !- Thursday Schedule:Day Name\n   *************  14334   Sp-PatRoom1_Mult10_Flr_4 Sys-3 Flr-3 Sch-H HPlcmt-south ZN NECB System 3 PSZ Occ Sch Friday, !- Friday Schedule:Day Name\n   *************  14335   Sp-PatRoom1_Mult10_Flr_4 Sys-3 Flr-3 Sch-H HPlcmt-south ZN NECB System 3 PSZ Occ Sch Saturday, !- Saturday Schedule:Day Name\n   *************  14336   Sp-PatRoom1_Mult10_Flr_4 Sys-3 Flr-3 Sch-H HPlcmt-south ZN NECB System 3 PSZ Occ Sch Default, !- Holiday Schedule:Day Name\n   *************  14337   Sp-PatRoom1_Mult10_Flr_4 Sys-3 Flr-3 Sch-H HPlcmt-south ZN NECB System 3 PSZ Occ Sch Summer Design Day, !- SummerDesignDay Schedule:Day Name\n   ** Warning ** IP: IDF line~14337 Alpha Argument length exceeds maximum, will be truncated=  Sp-PatRoom1_Mult10_Flr_4 Sys-3 Flr-3 Sch-H HPlcmt-south ZN NECB System 3 PSZ Occ Sch Summer Design Da\n   **   ~~~   ** Will be processed as Alpha=SP-PATROOM1_MULT10_FLR_4 SYS-3 FLR-3 SCH-H HPLCMT-SOUTH ZN NECB SYSTEM 3 PSZ OCC SCH SUMMER DESIGN DAY\n   ************* IDF Context for following error/warning message:\n   ************* Note -- lines truncated at 300 characters, if necessary...\n   *************  14327 Schedule:Week:Daily,\n   ************* indicated Name=Schedule:Week:Daily {eb9b90d6-218f-4e01-9fb2-3f5ebab30df3}\n   ************* Only last 10 lines before error line shown.....\n   *************  14329   Sp-PatRoom1_Mult10_Flr_4 Sys-3 Flr-3 Sch-H HPlcmt-south ZN NECB System 3 PSZ Occ Sch Sunday, !- Sunday Schedule:Day Name\n   *************  14330   Sp-PatRoom1_Mult10_Flr_4 Sys-3 Flr-3 Sch-H HPlcmt-south ZN NECB System 3 PSZ Occ Sch Monday, !- Monday Schedule:Day Name\n   *************  14331   Sp-PatRoom1_Mult10_Flr_4 Sys-3 Flr-3 Sch-H HPlcmt-south ZN NECB System 3 PSZ Occ Sch Tuesday, !- Tuesday Schedule:Day Name\n   *************  14332   Sp-PatRoom1_Mult10_Flr_4 Sys-3 Flr-3 Sch-H HPlcmt-south ZN NECB System 3 PSZ Occ Sch Wednesday, !- Wednesday Schedule:Day Name\n   *************  14333   Sp-PatRoom1_Mult10_Flr_4 Sys-3 Flr-3 Sch-H HPlcmt-south ZN NECB System 3 PSZ Occ Sch Thursday, !- Thursday Schedule:Day Name\n   *************  14334   Sp-PatRoom1_Mult10_Flr_4 Sys-3 Flr-3 Sch-H HPlcmt-south ZN NECB System 3 PSZ Occ Sch Friday, !- Friday Schedule:Day Name\n   *************  14335   Sp-PatRoom1_Mult10_Flr_4 Sys-3 Flr-3 Sch-H HPlcmt-south ZN NECB System 3 PSZ Occ Sch Saturday, !- Saturday Schedule:Day Name\n   *************  14336   Sp-PatRoom1_Mult10_Flr_4 Sys-3 Flr-3 Sch-H HPlcmt-south ZN NECB System 3 PSZ Occ Sch Default, !- Holiday Schedule:Day Name\n   *************  14337   Sp-PatRoom1_Mult10_Flr_4 Sys-3 Flr-3 Sch-H HPlcmt-south ZN NECB System 3 PSZ Occ Sch Summer Design Day, !- SummerDesignDay Schedule:Day Name\n   *************  14338   Sp-PatRoom1_Mult10_Flr_4 Sys-3 Flr-3 Sch-H HPlcmt-south ZN NECB System 3 PSZ Occ Sch Winter Design Day, !- WinterDesignDay Schedule:Day Name\n   ** Warning ** IP: IDF line~14338 Alpha Argument length exceeds maximum, will be truncated=  Sp-PatRoom1_Mult10_Flr_4 Sys-3 Flr-3 Sch-H HPlcmt-south ZN NECB System 3 PSZ Occ Sch Winter Design Da\n   **   ~~~   ** Will be processed as Alpha=SP-PATROOM1_MULT10_FLR_4 SYS-3 FLR-3 SCH-H HPLCMT-SOUTH ZN NECB SYSTEM 3 PSZ OCC SCH WINTER DESIGN DAY\n   ************* IDF Context for following error/warning message:\n   ************* Note -- lines truncated at 300 characters, if necessary...\n   *************  14358 Schedule:Day:Interval,\n   ************* indicated Name=Sp-PatRoom1_Mult10_Flr_4 Sys-3 Flr-3 Sch-H HPlcmt-south ZN NECB System 3 PSZ Occ Sch Summer Design Day\n   ************* Only last 1 lines before error line shown.....\n   *************  14359   Sp-PatRoom1_Mult10_Flr_4 Sys-3 Flr-3 Sch-H HPlcmt-south ZN NECB System 3 PSZ Occ Sch Summer Design Day, !- Name\n   ** Warning ** IP: IDF line~14359 Alpha Argument length exceeds maximum, will be truncated=  Sp-PatRoom1_Mult10_Flr_4 Sys-3 Flr-3 Sch-H HPlcmt-south ZN NECB System 3 PSZ Occ Sch Summer Design Da\n   **   ~~~   ** Will be processed as Alpha=SP-PATROOM1_MULT10_FLR_4 SYS-3 FLR-3 SCH-H HPLCMT-SOUTH ZN NECB SYSTEM 3 PSZ OCC SCH SUMMER DESIGN DAY\n   ************* IDF Context for following error/warning message:\n   ************* Note -- lines truncated at 300 characters, if necessary...\n   *************  14365 Schedule:Day:Interval,\n   ************* indicated Name=Sp-PatRoom1_Mult10_Flr_4 Sys-3 Flr-3 Sch-H HPlcmt-south ZN NECB System 3 PSZ Occ Sch Winter Design Day\n   ************* Only last 1 lines before error line shown.....\n   *************  14366   Sp-PatRoom1_Mult10_Flr_4 Sys-3 Flr-3 Sch-H HPlcmt-south ZN NECB System 3 PSZ Occ Sch Winter Design Day, !- Name\n   ** Warning ** IP: IDF line~14366 Alpha Argument length exceeds maximum, will be truncated=  Sp-PatRoom1_Mult10_Flr_4 Sys-3 Flr-3 Sch-H HPlcmt-south ZN NECB System 3 PSZ Occ Sch Winter Design Da\n   **   ~~~   ** Will be processed as Alpha=SP-PATROOM1_MULT10_FLR_4 SYS-3 FLR-3 SCH-H HPLCMT-SOUTH ZN NECB SYSTEM 3 PSZ OCC SCH WINTER DESIGN DAY\n   ************* IDF Context for following error/warning message:\n   ************* Note -- lines truncated at 300 characters, if necessary...\n   *************  15220 Schedule:Week:Daily,\n   ************* indicated Name=Schedule:Week:Daily {d1345f62-3054-4314-995a-4c662e4d1a40}\n   ************* Only last 10 lines before error line shown.....\n   *************  15221   Schedule:Week:Daily {d1345f62-3054-4314-995a-4c662e4d1a40}, !- Name\n   *************  15222   Sp-PatRoom3_Mult10_Flr_3 Sys-3 Flr-2 Sch-H HPlcmt-east ZN NECB System 3 PSZ Occ Sch Sunday, !- Sunday Schedule:Day Name\n   *************  15223   Sp-PatRoom3_Mult10_Flr_3 Sys-3 Flr-2 Sch-H HPlcmt-east ZN NECB System 3 PSZ Occ Sch Monday, !- Monday Schedule:Day Name\n   *************  15224   Sp-PatRoom3_Mult10_Flr_3 Sys-3 Flr-2 Sch-H HPlcmt-east ZN NECB System 3 PSZ Occ Sch Tuesday, !- Tuesday Schedule:Day Name\n   *************  15225   Sp-PatRoom3_Mult10_Flr_3 Sys-3 Flr-2 Sch-H HPlcmt-east ZN NECB System 3 PSZ Occ Sch Wednesday, !- Wednesday Schedule:Day Name\n   *************  15226   Sp-PatRoom3_Mult10_Flr_3 Sys-3 Flr-2 Sch-H HPlcmt-east ZN NECB System 3 PSZ Occ Sch Thursday, !- Thursday Schedule:Day Name\n   *************  15227   Sp-PatRoom3_Mult10_Flr_3 Sys-3 Flr-2 Sch-H HPlcmt-east ZN NECB System 3 PSZ Occ Sch Friday, !- Friday Schedule:Day Name\n   *************  15228   Sp-PatRoom3_Mult10_Flr_3 Sys-3 Flr-2 Sch-H HPlcmt-east ZN NECB System 3 PSZ Occ Sch Saturday, !- Saturday Schedule:Day Name\n   *************  15229   Sp-PatRoom3_Mult10_Flr_3 Sys-3 Flr-2 Sch-H HPlcmt-east ZN NECB System 3 PSZ Occ Sch Default, !- Holiday Schedule:Day Name\n   *************  15230   Sp-PatRoom3_Mult10_Flr_3 Sys-3 Flr-2 Sch-H HPlcmt-east ZN NECB System 3 PSZ Occ Sch Summer Design Day, !- SummerDesignDay Schedule:Day Name\n   ** Warning ** IP: IDF line~15230 Alpha Argument length exceeds maximum, will be truncated=  Sp-PatRoom3_Mult10_Flr_3 Sys-3 Flr-2 Sch-H HPlcmt-east ZN NECB System 3 PSZ Occ Sch Summer Design Da\n   **   ~~~   ** Will be processed as Alpha=SP-PATROOM3_MULT10_FLR_3 SYS-3 FLR-2 SCH-H HPLCMT-EAST ZN NECB SYSTEM 3 PSZ OCC SCH SUMMER DESIGN DAY\n   ************* IDF Context for following error/warning message:\n   ************* Note -- lines truncated at 300 characters, if necessary...\n   *************  15220 Schedule:Week:Daily,\n   ************* indicated Name=Schedule:Week:Daily {d1345f62-3054-4314-995a-4c662e4d1a40}\n   ************* Only last 10 lines before error line shown.....\n   *************  15222   Sp-PatRoom3_Mult10_Flr_3 Sys-3 Flr-2 Sch-H HPlcmt-east ZN NECB System 3 PSZ Occ Sch Sunday, !- Sunday Schedule:Day Name\n   *************  15223   Sp-PatRoom3_Mult10_Flr_3 Sys-3 Flr-2 Sch-H HPlcmt-east ZN NECB System 3 PSZ Occ Sch Monday, !- Monday Schedule:Day Name\n   *************  15224   Sp-PatRoom3_Mult10_Flr_3 Sys-3 Flr-2 Sch-H HPlcmt-east ZN NECB System 3 PSZ Occ Sch Tuesday, !- Tuesday Schedule:Day Name\n   *************  15225   Sp-PatRoom3_Mult10_Flr_3 Sys-3 Flr-2 Sch-H HPlcmt-east ZN NECB System 3 PSZ Occ Sch Wednesday, !- Wednesday Schedule:Day Name\n   *************  15226   Sp-PatRoom3_Mult10_Flr_3 Sys-3 Flr-2 Sch-H HPlcmt-east ZN NECB System 3 PSZ Occ Sch Thursday, !- Thursday Schedule:Day Name\n   *************  15227   Sp-PatRoom3_Mult10_Flr_3 Sys-3 Flr-2 Sch-H HPlcmt-east ZN NECB System 3 PSZ Occ Sch Friday, !- Friday Schedule:Day Name\n   *************  15228   Sp-PatRoom3_Mult10_Flr_3 Sys-3 Flr-2 Sch-H HPlcmt-east ZN NECB System 3 PSZ Occ Sch Saturday, !- Saturday Schedule:Day Name\n   *************  15229   Sp-PatRoom3_Mult10_Flr_3 Sys-3 Flr-2 Sch-H HPlcmt-east ZN NECB System 3 PSZ Occ Sch Default, !- Holiday Schedule:Day Name\n   *************  15230   Sp-PatRoom3_Mult10_Flr_3 Sys-3 Flr-2 Sch-H HPlcmt-east ZN NECB System 3 PSZ Occ Sch Summer Design Day, !- SummerDesignDay Schedule:Day Name\n   *************  15231   Sp-PatRoom3_Mult10_Flr_3 Sys-3 Flr-2 Sch-H HPlcmt-east ZN NECB System 3 PSZ Occ Sch Winter Design Day, !- WinterDesignDay Schedule:Day Name\n   ** Warning ** IP: IDF line~15231 Alpha Argument length exceeds maximum, will be truncated=  Sp-PatRoom3_Mult10_Flr_3 Sys-3 Flr-2 Sch-H HPlcmt-east ZN NECB System 3 PSZ Occ Sch Winter Design Da\n   **   ~~~   ** Will be processed as Alpha=SP-PATROOM3_MULT10_FLR_3 SYS-3 FLR-2 SCH-H HPLCMT-EAST ZN NECB SYSTEM 3 PSZ OCC SCH WINTER DESIGN DAY\n   ************* IDF Context for following error/warning message:\n   ************* Note -- lines truncated at 300 characters, if necessary...\n   *************  15251 Schedule:Day:Interval,\n   ************* indicated Name=Sp-PatRoom3_Mult10_Flr_3 Sys-3 Flr-2 Sch-H HPlcmt-east ZN NECB System 3 PSZ Occ Sch Summer Design Day\n   ************* Only last 1 lines before error line shown.....\n   *************  15252   Sp-PatRoom3_Mult10_Flr_3 Sys-3 Flr-2 Sch-H HPlcmt-east ZN NECB System 3 PSZ Occ Sch Summer Design Day, !- Name\n   ** Warning ** IP: IDF line~15252 Alpha Argument length exceeds maximum, will be truncated=  Sp-PatRoom3_Mult10_Flr_3 Sys-3 Flr-2 Sch-H HPlcmt-east ZN NECB System 3 PSZ Occ Sch Summer Design Da\n   **   ~~~   ** Will be processed as Alpha=SP-PATROOM3_MULT10_FLR_3 SYS-3 FLR-2 SCH-H HPLCMT-EAST ZN NECB SYSTEM 3 PSZ OCC SCH SUMMER DESIGN DAY\n   ************* IDF Context for following error/warning message:\n   ************* Note -- lines truncated at 300 characters, if necessary...\n   *************  15258 Schedule:Day:Interval,\n   ************* indicated Name=Sp-PatRoom3_Mult10_Flr_3 Sys-3 Flr-2 Sch-H HPlcmt-east ZN NECB System 3 PSZ Occ Sch Winter Design Day\n   ************* Only last 1 lines before error line shown.....\n   *************  15259   Sp-PatRoom3_Mult10_Flr_3 Sys-3 Flr-2 Sch-H HPlcmt-east ZN NECB System 3 PSZ Occ Sch Winter Design Day, !- Name\n   ** Warning ** IP: IDF line~15259 Alpha Argument length exceeds maximum, will be truncated=  Sp-PatRoom3_Mult10_Flr_3 Sys-3 Flr-2 Sch-H HPlcmt-east ZN NECB System 3 PSZ Occ Sch Winter Design Da\n   **   ~~~   ** Will be processed as Alpha=SP-PATROOM3_MULT10_FLR_3 SYS-3 FLR-2 SCH-H HPLCMT-EAST ZN NECB SYSTEM 3 PSZ OCC SCH WINTER DESIGN DAY\n   ************* IDF Context for following error/warning message:\n   ************* Note -- lines truncated at 300 characters, if necessary...\n   *************  15559 Schedule:Week:Daily,\n   ************* indicated Name=Schedule:Week:Daily {b35a138f-415c-4cb2-9ddb-eadeef4d55e1}\n   ************* Only last 10 lines before error line shown.....\n   *************  15560   Schedule:Week:Daily {b35a138f-415c-4cb2-9ddb-eadeef4d55e1}, !- Name\n   *************  15561   Sp-PatRoom3_Mult10_Flr_4 Sys-3 Flr-3 Sch-H HPlcmt-east ZN NECB System 3 PSZ Occ Sch Sunday, !- Sunday Schedule:Day Name\n   *************  15562   Sp-PatRoom3_Mult10_Flr_4 Sys-3 Flr-3 Sch-H HPlcmt-east ZN NECB System 3 PSZ Occ Sch Monday, !- Monday Schedule:Day Name\n   *************  15563   Sp-PatRoom3_Mult10_Flr_4 Sys-3 Flr-3 Sch-H HPlcmt-east ZN NECB System 3 PSZ Occ Sch Tuesday, !- Tuesday Schedule:Day Name\n   *************  15564   Sp-PatRoom3_Mult10_Flr_4 Sys-3 Flr-3 Sch-H HPlcmt-east ZN NECB System 3 PSZ Occ Sch Wednesday, !- Wednesday Schedule:Day Name\n   *************  15565   Sp-PatRoom3_Mult10_Flr_4 Sys-3 Flr-3 Sch-H HPlcmt-east ZN NECB System 3 PSZ Occ Sch Thursday, !- Thursday Schedule:Day Name\n   *************  15566   Sp-PatRoom3_Mult10_Flr_4 Sys-3 Flr-3 Sch-H HPlcmt-east ZN NECB System 3 PSZ Occ Sch Friday, !- Friday Schedule:Day Name\n   *************  15567   Sp-PatRoom3_Mult10_Flr_4 Sys-3 Flr-3 Sch-H HPlcmt-east ZN NECB System 3 PSZ Occ Sch Saturday, !- Saturday Schedule:Day Name\n   *************  15568   Sp-PatRoom3_Mult10_Flr_4 Sys-3 Flr-3 Sch-H HPlcmt-east ZN NECB System 3 PSZ Occ Sch Default, !- Holiday Schedule:Day Name\n   *************  15569   Sp-PatRoom3_Mult10_Flr_4 Sys-3 Flr-3 Sch-H HPlcmt-east ZN NECB System 3 PSZ Occ Sch Summer Design Day, !- SummerDesignDay Schedule:Day Name\n   ** Warning ** IP: IDF line~15569 Alpha Argument length exceeds maximum, will be truncated=  Sp-PatRoom3_Mult10_Flr_4 Sys-3 Flr-3 Sch-H HPlcmt-east ZN NECB System 3 PSZ Occ Sch Summer Design Da\n   **   ~~~   ** Will be processed as Alpha=SP-PATROOM3_MULT10_FLR_4 SYS-3 FLR-3 SCH-H HPLCMT-EAST ZN NECB SYSTEM 3 PSZ OCC SCH SUMMER DESIGN DAY\n   ************* IDF Context for following error/warning message:\n   ************* Note -- lines truncated at 300 characters, if necessary...\n   *************  15559 Schedule:Week:Daily,\n   ************* indicated Name=Schedule:Week:Daily {b35a138f-415c-4cb2-9ddb-eadeef4d55e1}\n   ************* Only last 10 lines before error line shown.....\n   *************  15561   Sp-PatRoom3_Mult10_Flr_4 Sys-3 Flr-3 Sch-H HPlcmt-east ZN NECB System 3 PSZ Occ Sch Sunday, !- Sunday Schedule:Day Name\n   *************  15562   Sp-PatRoom3_Mult10_Flr_4 Sys-3 Flr-3 Sch-H HPlcmt-east ZN NECB System 3 PSZ Occ Sch Monday, !- Monday Schedule:Day Name\n   *************  15563   Sp-PatRoom3_Mult10_Flr_4 Sys-3 Flr-3 Sch-H HPlcmt-east ZN NECB System 3 PSZ Occ Sch Tuesday, !- Tuesday Schedule:Day Name\n   *************  15564   Sp-PatRoom3_Mult10_Flr_4 Sys-3 Flr-3 Sch-H HPlcmt-east ZN NECB System 3 PSZ Occ Sch Wednesday, !- Wednesday Schedule:Day Name\n   *************  15565   Sp-PatRoom3_Mult10_Flr_4 Sys-3 Flr-3 Sch-H HPlcmt-east ZN NECB System 3 PSZ Occ Sch Thursday, !- Thursday Schedule:Day Name\n   *************  15566   Sp-PatRoom3_Mult10_Flr_4 Sys-3 Flr-3 Sch-H HPlcmt-east ZN NECB System 3 PSZ Occ Sch Friday, !- Friday Schedule:Day Name\n   *************  15567   Sp-PatRoom3_Mult10_Flr_4 Sys-3 Flr-3 Sch-H HPlcmt-east ZN NECB System 3 PSZ Occ Sch Saturday, !- Saturday Schedule:Day Name\n   *************  15568   Sp-PatRoom3_Mult10_Flr_4 Sys-3 Flr-3 Sch-H HPlcmt-east ZN NECB System 3 PSZ Occ Sch Default, !- Holiday Schedule:Day Name\n   *************  15569   Sp-PatRoom3_Mult10_Flr_4 Sys-3 Flr-3 Sch-H HPlcmt-east ZN NECB System 3 PSZ Occ Sch Summer Design Day, !- SummerDesignDay Schedule:Day Name\n   *************  15570   Sp-PatRoom3_Mult10_Flr_4 Sys-3 Flr-3 Sch-H HPlcmt-east ZN NECB System 3 PSZ Occ Sch Winter Design Day, !- WinterDesignDay Schedule:Day Name\n   ** Warning ** IP: IDF line~15570 Alpha Argument length exceeds maximum, will be truncated=  Sp-PatRoom3_Mult10_Flr_4 Sys-3 Flr-3 Sch-H HPlcmt-east ZN NECB System 3 PSZ Occ Sch Winter Design Da\n   **   ~~~   ** Will be processed as Alpha=SP-PATROOM3_MULT10_FLR_4 SYS-3 FLR-3 SCH-H HPLCMT-EAST ZN NECB SYSTEM 3 PSZ OCC SCH WINTER DESIGN DAY\n   ************* IDF Context for following error/warning message:\n   ************* Note -- lines truncated at 300 characters, if necessary...\n   *************  15590 Schedule:Day:Interval,\n   ************* indicated Name=Sp-PatRoom3_Mult10_Flr_4 Sys-3 Flr-3 Sch-H HPlcmt-east ZN NECB System 3 PSZ Occ Sch Summer Design Day\n   ************* Only last 1 lines before error line shown.....\n   *************  15591   Sp-PatRoom3_Mult10_Flr_4 Sys-3 Flr-3 Sch-H HPlcmt-east ZN NECB System 3 PSZ Occ Sch Summer Design Day, !- Name\n   ** Warning ** IP: IDF line~15591 Alpha Argument length exceeds maximum, will be truncated=  Sp-PatRoom3_Mult10_Flr_4 Sys-3 Flr-3 Sch-H HPlcmt-east ZN NECB System 3 PSZ Occ Sch Summer Design Da\n   **   ~~~   ** Will be processed as Alpha=SP-PATROOM3_MULT10_FLR_4 SYS-3 FLR-3 SCH-H HPLCMT-EAST ZN NECB SYSTEM 3 PSZ OCC SCH SUMMER DESIGN DAY\n   ************* IDF Context for following error/warning message:\n   ************* Note -- lines truncated at 300 characters, if necessary...\n   *************  15597 Schedule:Day:Interval,\n   ************* indicated Name=Sp-PatRoom3_Mult10_Flr_4 Sys-3 Flr-3 Sch-H HPlcmt-east ZN NECB System 3 PSZ Occ Sch Winter Design Day\n   ************* Only last 1 lines before error line shown.....\n   *************  15598   Sp-PatRoom3_Mult10_Flr_4 Sys-3 Flr-3 Sch-H HPlcmt-east ZN NECB System 3 PSZ Occ Sch Winter Design Day, !- Name\n   ** Warning ** IP: IDF line~15598 Alpha Argument length exceeds maximum, will be truncated=  Sp-PatRoom3_Mult10_Flr_4 Sys-3 Flr-3 Sch-H HPlcmt-east ZN NECB System 3 PSZ Occ Sch Winter Design Da\n   **   ~~~   ** Will be processed as Alpha=SP-PATROOM3_MULT10_FLR_4 SYS-3 FLR-3 SCH-H HPLCMT-EAST ZN NECB SYSTEM 3 PSZ OCC SCH WINTER DESIGN DAY\n   ************* IDF Context for following error/warning message:\n   ************* Note -- lines truncated at 300 characters, if necessary...\n   *************  16452 Schedule:Week:Daily,\n   ************* indicated Name=Schedule:Week:Daily {e81ab61d-ca02-41b4-a097-e0b7f9993835}\n   ************* Only last 10 lines before error line shown.....\n   *************  16453   Schedule:Week:Daily {e81ab61d-ca02-41b4-a097-e0b7f9993835}, !- Name\n   *************  16454   Sp-PatRoom5_Mult10_Flr_3 Sys-3 Flr-2 Sch-H HPlcmt-north ZN NECB System 3 PSZ Occ Sch Sunday, !- Sunday Schedule:Day Name\n   *************  16455   Sp-PatRoom5_Mult10_Flr_3 Sys-3 Flr-2 Sch-H HPlcmt-north ZN NECB System 3 PSZ Occ Sch Monday, !- Monday Schedule:Day Name\n   *************  16456   Sp-PatRoom5_Mult10_Flr_3 Sys-3 Flr-2 Sch-H HPlcmt-north ZN NECB System 3 PSZ Occ Sch Tuesday, !- Tuesday Schedule:Day Name\n   *************  16457   Sp-PatRoom5_Mult10_Flr_3 Sys-3 Flr-2 Sch-H HPlcmt-north ZN NECB System 3 PSZ Occ Sch Wednesday, !- Wednesday Schedule:Day Name\n   *************  16458   Sp-PatRoom5_Mult10_Flr_3 Sys-3 Flr-2 Sch-H HPlcmt-north ZN NECB System 3 PSZ Occ Sch Thursday, !- Thursday Schedule:Day Name\n   *************  16459   Sp-PatRoom5_Mult10_Flr_3 Sys-3 Flr-2 Sch-H HPlcmt-north ZN NECB System 3 PSZ Occ Sch Friday, !- Friday Schedule:Day Name\n   *************  16460   Sp-PatRoom5_Mult10_Flr_3 Sys-3 Flr-2 Sch-H HPlcmt-north ZN NECB System 3 PSZ Occ Sch Saturday, !- Saturday Schedule:Day Name\n   *************  16461   Sp-PatRoom5_Mult10_Flr_3 Sys-3 Flr-2 Sch-H HPlcmt-north ZN NECB System 3 PSZ Occ Sch Default, !- Holiday Schedule:Day Name\n   *************  16462   Sp-PatRoom5_Mult10_Flr_3 Sys-3 Flr-2 Sch-H HPlcmt-north ZN NECB System 3 PSZ Occ Sch Summer Design Day, !- SummerDesignDay Schedule:Day Name\n   ** Warning ** IP: IDF line~16462 Alpha Argument length exceeds maximum, will be truncated=  Sp-PatRoom5_Mult10_Flr_3 Sys-3 Flr-2 Sch-H HPlcmt-north ZN NECB System 3 PSZ Occ Sch Summer Design Da\n   **   ~~~   ** Will be processed as Alpha=SP-PATROOM5_MULT10_FLR_3 SYS-3 FLR-2 SCH-H HPLCMT-NORTH ZN NECB SYSTEM 3 PSZ OCC SCH SUMMER DESIGN DAY\n   ************* IDF Context for following error/warning message:\n   ************* Note -- lines truncated at 300 characters, if necessary...\n   *************  16452 Schedule:Week:Daily,\n   ************* indicated Name=Schedule:Week:Daily {e81ab61d-ca02-41b4-a097-e0b7f9993835}\n   ************* Only last 10 lines before error line shown.....\n   *************  16454   Sp-PatRoom5_Mult10_Flr_3 Sys-3 Flr-2 Sch-H HPlcmt-north ZN NECB System 3 PSZ Occ Sch Sunday, !- Sunday Schedule:Day Name\n   *************  16455   Sp-PatRoom5_Mult10_Flr_3 Sys-3 Flr-2 Sch-H HPlcmt-north ZN NECB System 3 PSZ Occ Sch Monday, !- Monday Schedule:Day Name\n   *************  16456   Sp-PatRoom5_Mult10_Flr_3 Sys-3 Flr-2 Sch-H HPlcmt-north ZN NECB System 3 PSZ Occ Sch Tuesday, !- Tuesday Schedule:Day Name\n   *************  16457   Sp-PatRoom5_Mult10_Flr_3 Sys-3 Flr-2 Sch-H HPlcmt-north ZN NECB System 3 PSZ Occ Sch Wednesday, !- Wednesday Schedule:Day Name\n   *************  16458   Sp-PatRoom5_Mult10_Flr_3 Sys-3 Flr-2 Sch-H HPlcmt-north ZN NECB System 3 PSZ Occ Sch Thursday, !- Thursday Schedule:Day Name\n   *************  16459   Sp-PatRoom5_Mult10_Flr_3 Sys-3 Flr-2 Sch-H HPlcmt-north ZN NECB System 3 PSZ Occ Sch Friday, !- Friday Schedule:Day Name\n   *************  16460   Sp-PatRoom5_Mult10_Flr_3 Sys-3 Flr-2 Sch-H HPlcmt-north ZN NECB System 3 PSZ Occ Sch Saturday, !- Saturday Schedule:Day Name\n   *************  16461   Sp-PatRoom5_Mult10_Flr_3 Sys-3 Flr-2 Sch-H HPlcmt-north ZN NECB System 3 PSZ Occ Sch Default, !- Holiday Schedule:Day Name\n   *************  16462   Sp-PatRoom5_Mult10_Flr_3 Sys-3 Flr-2 Sch-H HPlcmt-north ZN NECB System 3 PSZ Occ Sch Summer Design Day, !- SummerDesignDay Schedule:Day Name\n   *************  16463   Sp-PatRoom5_Mult10_Flr_3 Sys-3 Flr-2 Sch-H HPlcmt-north ZN NECB System 3 PSZ Occ Sch Winter Design Day, !- WinterDesignDay Schedule:Day Name\n   ** Warning ** IP: IDF line~16463 Alpha Argument length exceeds maximum, will be truncated=  Sp-PatRoom5_Mult10_Flr_3 Sys-3 Flr-2 Sch-H HPlcmt-north ZN NECB System 3 PSZ Occ Sch Winter Design Da\n   **   ~~~   ** Will be processed as Alpha=SP-PATROOM5_MULT10_FLR_3 SYS-3 FLR-2 SCH-H HPLCMT-NORTH ZN NECB SYSTEM 3 PSZ OCC SCH WINTER DESIGN DAY\n   ************* IDF Context for following error/warning message:\n   ************* Note -- lines truncated at 300 characters, if necessary...\n   *************  16483 Schedule:Day:Interval,\n   ************* indicated Name=Sp-PatRoom5_Mult10_Flr_3 Sys-3 Flr-2 Sch-H HPlcmt-north ZN NECB System 3 PSZ Occ Sch Summer Design Day\n   ************* Only last 1 lines before error line shown.....\n   *************  16484   Sp-PatRoom5_Mult10_Flr_3 Sys-3 Flr-2 Sch-H HPlcmt-north ZN NECB System 3 PSZ Occ Sch Summer Design Day, !- Name\n   ** Warning ** IP: IDF line~16484 Alpha Argument length exceeds maximum, will be truncated=  Sp-PatRoom5_Mult10_Flr_3 Sys-3 Flr-2 Sch-H HPlcmt-north ZN NECB System 3 PSZ Occ Sch Summer Design Da\n   **   ~~~   ** Will be processed as Alpha=SP-PATROOM5_MULT10_FLR_3 SYS-3 FLR-2 SCH-H HPLCMT-NORTH ZN NECB SYSTEM 3 PSZ OCC SCH SUMMER DESIGN DAY\n   ************* IDF Context for following error/warning message:\n   ************* Note -- lines truncated at 300 characters, if necessary...\n   *************  16490 Schedule:Day:Interval,\n   ************* indicated Name=Sp-PatRoom5_Mult10_Flr_3 Sys-3 Flr-2 Sch-H HPlcmt-north ZN NECB System 3 PSZ Occ Sch Winter Design Day\n   ************* Only last 1 lines before error line shown.....\n   *************  16491   Sp-PatRoom5_Mult10_Flr_3 Sys-3 Flr-2 Sch-H HPlcmt-north ZN NECB System 3 PSZ Occ Sch Winter Design Day, !- Name\n   ** Warning ** IP: IDF line~16491 Alpha Argument length exceeds maximum, will be truncated=  Sp-PatRoom5_Mult10_Flr_3 Sys-3 Flr-2 Sch-H HPlcmt-north ZN NECB System 3 PSZ Occ Sch Winter Design Da\n   **   ~~~   ** Will be processed as Alpha=SP-PATROOM5_MULT10_FLR_3 SYS-3 FLR-2 SCH-H HPLCMT-NORTH ZN NECB SYSTEM 3 PSZ OCC SCH WINTER DESIGN DAY\n   ************* IDF Context for following error/warning message:\n   ************* Note -- lines truncated at 300 characters, if necessary...\n   *************  16791 Schedule:Week:Daily,\n   ************* indicated Name=Schedule:Week:Daily {6b774b17-f8c1-46a0-9c4b-1d2b18e5fad9}\n   ************* Only last 10 lines before error line shown.....\n   *************  16792   Schedule:Week:Daily {6b774b17-f8c1-46a0-9c4b-1d2b18e5fad9}, !- Name\n   *************  16793   Sp-PatRoom5_Mult10_Flr_4 Sys-3 Flr-3 Sch-H HPlcmt-north ZN NECB System 3 PSZ Occ Sch Sunday, !- Sunday Schedule:Day Name\n   *************  16794   Sp-PatRoom5_Mult10_Flr_4 Sys-3 Flr-3 Sch-H HPlcmt-north ZN NECB System 3 PSZ Occ Sch Monday, !- Monday Schedule:Day Name\n   *************  16795   Sp-PatRoom5_Mult10_Flr_4 Sys-3 Flr-3 Sch-H HPlcmt-north ZN NECB System 3 PSZ Occ Sch Tuesday, !- Tuesday Schedule:Day Name\n   *************  16796   Sp-PatRoom5_Mult10_Flr_4 Sys-3 Flr-3 Sch-H HPlcmt-north ZN NECB System 3 PSZ Occ Sch Wednesday, !- Wednesday Schedule:Day Name\n   *************  16797   Sp-PatRoom5_Mult10_Flr_4 Sys-3 Flr-3 Sch-H HPlcmt-north ZN NECB System 3 PSZ Occ Sch Thursday, !- Thursday Schedule:Day Name\n   *************  16798   Sp-PatRoom5_Mult10_Flr_4 Sys-3 Flr-3 Sch-H HPlcmt-north ZN NECB System 3 PSZ Occ Sch Friday, !- Friday Schedule:Day Name\n   *************  16799   Sp-PatRoom5_Mult10_Flr_4 Sys-3 Flr-3 Sch-H HPlcmt-north ZN NECB System 3 PSZ Occ Sch Saturday, !- Saturday Schedule:Day Name\n   *************  16800   Sp-PatRoom5_Mult10_Flr_4 Sys-3 Flr-3 Sch-H HPlcmt-north ZN NECB System 3 PSZ Occ Sch Default, !- Holiday Schedule:Day Name\n   *************  16801   Sp-PatRoom5_Mult10_Flr_4 Sys-3 Flr-3 Sch-H HPlcmt-north ZN NECB System 3 PSZ Occ Sch Summer Design Day, !- SummerDesignDay Schedule:Day Name\n   ** Warning ** IP: IDF line~16801 Alpha Argument length exceeds maximum, will be truncated=  Sp-PatRoom5_Mult10_Flr_4 Sys-3 Flr-3 Sch-H HPlcmt-north ZN NECB System 3 PSZ Occ Sch Summer Design Da\n   **   ~~~   ** Will be processed as Alpha=SP-PATROOM5_MULT10_FLR_4 SYS-3 FLR-3 SCH-H HPLCMT-NORTH ZN NECB SYSTEM 3 PSZ OCC SCH SUMMER DESIGN DAY\n   ************* IDF Context for following error/warning message:\n   ************* Note -- lines truncated at 300 characters, if necessary...\n   *************  16791 Schedule:Week:Daily,\n   ************* indicated Name=Schedule:Week:Daily {6b774b17-f8c1-46a0-9c4b-1d2b18e5fad9}\n   ************* Only last 10 lines before error line shown.....\n   *************  16793   Sp-PatRoom5_Mult10_Flr_4 Sys-3 Flr-3 Sch-H HPlcmt-north ZN NECB System 3 PSZ Occ Sch Sunday, !- Sunday Schedule:Day Name\n   *************  16794   Sp-PatRoom5_Mult10_Flr_4 Sys-3 Flr-3 Sch-H HPlcmt-north ZN NECB System 3 PSZ Occ Sch Monday, !- Monday Schedule:Day Name\n   *************  16795   Sp-PatRoom5_Mult10_Flr_4 Sys-3 Flr-3 Sch-H HPlcmt-north ZN NECB System 3 PSZ Occ Sch Tuesday, !- Tuesday Schedule:Day Name\n   *************  16796   Sp-PatRoom5_Mult10_Flr_4 Sys-3 Flr-3 Sch-H HPlcmt-north ZN NECB System 3 PSZ Occ Sch Wednesday, !- Wednesday Schedule:Day Name\n   *************  16797   Sp-PatRoom5_Mult10_Flr_4 Sys-3 Flr-3 Sch-H HPlcmt-north ZN NECB System 3 PSZ Occ Sch Thursday, !- Thursday Schedule:Day Name\n   *************  16798   Sp-PatRoom5_Mult10_Flr_4 Sys-3 Flr-3 Sch-H HPlcmt-north ZN NECB System 3 PSZ Occ Sch Friday, !- Friday Schedule:Day Name\n   *************  16799   Sp-PatRoom5_Mult10_Flr_4 Sys-3 Flr-3 Sch-H HPlcmt-north ZN NECB System 3 PSZ Occ Sch Saturday, !- Saturday Schedule:Day Name\n   *************  16800   Sp-PatRoom5_Mult10_Flr_4 Sys-3 Flr-3 Sch-H HPlcmt-north ZN NECB System 3 PSZ Occ Sch Default, !- Holiday Schedule:Day Name\n   *************  16801   Sp-PatRoom5_Mult10_Flr_4 Sys-3 Flr-3 Sch-H HPlcmt-north ZN NECB System 3 PSZ Occ Sch Summer Design Day, !- SummerDesignDay Schedule:Day Name\n   *************  16802   Sp-PatRoom5_Mult10_Flr_4 Sys-3 Flr-3 Sch-H HPlcmt-north ZN NECB System 3 PSZ Occ Sch Winter Design Day, !- WinterDesignDay Schedule:Day Name\n   ** Warning ** IP: IDF line~16802 Alpha Argument length exceeds maximum, will be truncated=  Sp-PatRoom5_Mult10_Flr_4 Sys-3 Flr-3 Sch-H HPlcmt-north ZN NECB System 3 PSZ Occ Sch Winter Design Da\n   **   ~~~   ** Will be processed as Alpha=SP-PATROOM5_MULT10_FLR_4 SYS-3 FLR-3 SCH-H HPLCMT-NORTH ZN NECB SYSTEM 3 PSZ OCC SCH WINTER DESIGN DAY\n   ************* IDF Context for following error/warning message:\n   ************* Note -- lines truncated at 300 characters, if necessary...\n   *************  16822 Schedule:Day:Interval,\n   ************* indicated Name=Sp-PatRoom5_Mult10_Flr_4 Sys-3 Flr-3 Sch-H HPlcmt-north ZN NECB System 3 PSZ Occ Sch Summer Design Day\n   ************* Only last 1 lines before error line shown.....\n   *************  16823   Sp-PatRoom5_Mult10_Flr_4 Sys-3 Flr-3 Sch-H HPlcmt-north ZN NECB System 3 PSZ Occ Sch Summer Design Day, !- Name\n   ** Warning ** IP: IDF line~16823 Alpha Argument length exceeds maximum, will be truncated=  Sp-PatRoom5_Mult10_Flr_4 Sys-3 Flr-3 Sch-H HPlcmt-north ZN NECB System 3 PSZ Occ Sch Summer Design Da\n   **   ~~~   ** Will be processed as Alpha=SP-PATROOM5_MULT10_FLR_4 SYS-3 FLR-3 SCH-H HPLCMT-NORTH ZN NECB SYSTEM 3 PSZ OCC SCH SUMMER DESIGN DAY\n   ************* IDF Context for following error/warning message:\n   ************* Note -- lines truncated at 300 characters, if necessary...\n   *************  16829 Schedule:Day:Interval,\n   ************* indicated Name=Sp-PatRoom5_Mult10_Flr_4 Sys-3 Flr-3 Sch-H HPlcmt-north ZN NECB System 3 PSZ Occ Sch Winter Design Day\n   ************* Only last 1 lines before error line shown.....\n   *************  16830   Sp-PatRoom5_Mult10_Flr_4 Sys-3 Flr-3 Sch-H HPlcmt-north ZN NECB System 3 PSZ Occ Sch Winter Design Day, !- Name\n   ** Warning ** IP: IDF line~16830 Alpha Argument length exceeds maximum, will be truncated=  Sp-PatRoom5_Mult10_Flr_4 Sys-3 Flr-3 Sch-H HPlcmt-north ZN NECB System 3 PSZ Occ Sch Winter Design Da\n   **   ~~~   ** Will be processed as Alpha=SP-PATROOM5_MULT10_FLR_4 SYS-3 FLR-3 SCH-H HPLCMT-NORTH ZN NECB SYSTEM 3 PSZ OCC SCH WINTER DESIGN DAY\n   ************* IDF Context for following error/warning message:\n   ************* Note -- lines truncated at 300 characters, if necessary...\n   *************  17684 Schedule:Week:Daily,\n   ************* indicated Name=Schedule:Week:Daily {92fef626-e31c-42ae-9cce-3e0fb0257707}\n   ************* Only last 10 lines before error line shown.....\n   *************  17685   Schedule:Week:Daily {92fef626-e31c-42ae-9cce-3e0fb0257707}, !- Name\n   *************  17686   Sp-PatRoom7_Mult10_Flr_3 Sys-3 Flr-2 Sch-H HPlcmt-west ZN NECB System 3 PSZ Occ Sch Sunday, !- Sunday Schedule:Day Name\n   *************  17687   Sp-PatRoom7_Mult10_Flr_3 Sys-3 Flr-2 Sch-H HPlcmt-west ZN NECB System 3 PSZ Occ Sch Monday, !- Monday Schedule:Day Name\n   *************  17688   Sp-PatRoom7_Mult10_Flr_3 Sys-3 Flr-2 Sch-H HPlcmt-west ZN NECB System 3 PSZ Occ Sch Tuesday, !- Tuesday Schedule:Day Name\n   *************  17689   Sp-PatRoom7_Mult10_Flr_3 Sys-3 Flr-2 Sch-H HPlcmt-west ZN NECB System 3 PSZ Occ Sch Wednesday, !- Wednesday Schedule:Day Name\n   *************  17690   Sp-PatRoom7_Mult10_Flr_3 Sys-3 Flr-2 Sch-H HPlcmt-west ZN NECB System 3 PSZ Occ Sch Thursday, !- Thursday Schedule:Day Name\n   *************  17691   Sp-PatRoom7_Mult10_Flr_3 Sys-3 Flr-2 Sch-H HPlcmt-west ZN NECB System 3 PSZ Occ Sch Friday, !- Friday Schedule:Day Name\n   *************  17692   Sp-PatRoom7_Mult10_Flr_3 Sys-3 Flr-2 Sch-H HPlcmt-west ZN NECB System 3 PSZ Occ Sch Saturday, !- Saturday Schedule:Day Name\n   *************  17693   Sp-PatRoom7_Mult10_Flr_3 Sys-3 Flr-2 Sch-H HPlcmt-west ZN NECB System 3 PSZ Occ Sch Default, !- Holiday Schedule:Day Name\n   *************  17694   Sp-PatRoom7_Mult10_Flr_3 Sys-3 Flr-2 Sch-H HPlcmt-west ZN NECB System 3 PSZ Occ Sch Summer Design Day, !- SummerDesignDay Schedule:Day Name\n   ** Warning ** IP: IDF line~17694 Alpha Argument length exceeds maximum, will be truncated=  Sp-PatRoom7_Mult10_Flr_3 Sys-3 Flr-2 Sch-H HPlcmt-west ZN NECB System 3 PSZ Occ Sch Summer Design Da\n   **   ~~~   ** Will be processed as Alpha=SP-PATROOM7_MULT10_FLR_3 SYS-3 FLR-2 SCH-H HPLCMT-WEST ZN NECB SYSTEM 3 PSZ OCC SCH SUMMER DESIGN DAY\n   ************* IDF Context for following error/warning message:\n   ************* Note -- lines truncated at 300 characters, if necessary...\n   *************  17684 Schedule:Week:Daily,\n   ************* indicated Name=Schedule:Week:Daily {92fef626-e31c-42ae-9cce-3e0fb0257707}\n   ************* Only last 10 lines before error line shown.....\n   *************  17686   Sp-PatRoom7_Mult10_Flr_3 Sys-3 Flr-2 Sch-H HPlcmt-west ZN NECB System 3 PSZ Occ Sch Sunday, !- Sunday Schedule:Day Name\n   *************  17687   Sp-PatRoom7_Mult10_Flr_3 Sys-3 Flr-2 Sch-H HPlcmt-west ZN NECB System 3 PSZ Occ Sch Monday, !- Monday Schedule:Day Name\n   *************  17688   Sp-PatRoom7_Mult10_Flr_3 Sys-3 Flr-2 Sch-H HPlcmt-west ZN NECB System 3 PSZ Occ Sch Tuesday, !- Tuesday Schedule:Day Name\n   *************  17689   Sp-PatRoom7_Mult10_Flr_3 Sys-3 Flr-2 Sch-H HPlcmt-west ZN NECB System 3 PSZ Occ Sch Wednesday, !- Wednesday Schedule:Day Name\n   *************  17690   Sp-PatRoom7_Mult10_Flr_3 Sys-3 Flr-2 Sch-H HPlcmt-west ZN NECB System 3 PSZ Occ Sch Thursday, !- Thursday Schedule:Day Name\n   *************  17691   Sp-PatRoom7_Mult10_Flr_3 Sys-3 Flr-2 Sch-H HPlcmt-west ZN NECB System 3 PSZ Occ Sch Friday, !- Friday Schedule:Day Name\n   *************  17692   Sp-PatRoom7_Mult10_Flr_3 Sys-3 Flr-2 Sch-H HPlcmt-west ZN NECB System 3 PSZ Occ Sch Saturday, !- Saturday Schedule:Day Name\n   *************  17693   Sp-PatRoom7_Mult10_Flr_3 Sys-3 Flr-2 Sch-H HPlcmt-west ZN NECB System 3 PSZ Occ Sch Default, !- Holiday Schedule:Day Name\n   *************  17694   Sp-PatRoom7_Mult10_Flr_3 Sys-3 Flr-2 Sch-H HPlcmt-west ZN NECB System 3 PSZ Occ Sch Summer Design Day, !- SummerDesignDay Schedule:Day Name\n   *************  17695   Sp-PatRoom7_Mult10_Flr_3 Sys-3 Flr-2 Sch-H HPlcmt-west ZN NECB System 3 PSZ Occ Sch Winter Design Day, !- WinterDesignDay Schedule:Day Name\n   ** Warning ** IP: IDF line~17695 Alpha Argument length exceeds maximum, will be truncated=  Sp-PatRoom7_Mult10_Flr_3 Sys-3 Flr-2 Sch-H HPlcmt-west ZN NECB System 3 PSZ Occ Sch Winter Design Da\n   **   ~~~   ** Will be processed as Alpha=SP-PATROOM7_MULT10_FLR_3 SYS-3 FLR-2 SCH-H HPLCMT-WEST ZN NECB SYSTEM 3 PSZ OCC SCH WINTER DESIGN DAY\n   ************* IDF Context for following error/warning message:\n   ************* Note -- lines truncated at 300 characters, if necessary...\n   *************  17715 Schedule:Day:Interval,\n   ************* indicated Name=Sp-PatRoom7_Mult10_Flr_3 Sys-3 Flr-2 Sch-H HPlcmt-west ZN NECB System 3 PSZ Occ Sch Summer Design Day\n   ************* Only last 1 lines before error line shown.....\n   *************  17716   Sp-PatRoom7_Mult10_Flr_3 Sys-3 Flr-2 Sch-H HPlcmt-west ZN NECB System 3 PSZ Occ Sch Summer Design Day, !- Name\n   ** Warning ** IP: IDF line~17716 Alpha Argument length exceeds maximum, will be truncated=  Sp-PatRoom7_Mult10_Flr_3 Sys-3 Flr-2 Sch-H HPlcmt-west ZN NECB System 3 PSZ Occ Sch Summer Design Da\n   **   ~~~   ** Will be processed as Alpha=SP-PATROOM7_MULT10_FLR_3 SYS-3 FLR-2 SCH-H HPLCMT-WEST ZN NECB SYSTEM 3 PSZ OCC SCH SUMMER DESIGN DAY\n   ************* IDF Context for following error/warning message:\n   ************* Note -- lines truncated at 300 characters, if necessary...\n   *************  17722 Schedule:Day:Interval,\n   ************* indicated Name=Sp-PatRoom7_Mult10_Flr_3 Sys-3 Flr-2 Sch-H HPlcmt-west ZN NECB System 3 PSZ Occ Sch Winter Design Day\n   ************* Only last 1 lines before error line shown.....\n   *************  17723   Sp-PatRoom7_Mult10_Flr_3 Sys-3 Flr-2 Sch-H HPlcmt-west ZN NECB System 3 PSZ Occ Sch Winter Design Day, !- Name\n   ** Warning ** IP: IDF line~17723 Alpha Argument length exceeds maximum, will be truncated=  Sp-PatRoom7_Mult10_Flr_3 Sys-3 Flr-2 Sch-H HPlcmt-west ZN NECB System 3 PSZ Occ Sch Winter Design Da\n   **   ~~~   ** Will be processed as Alpha=SP-PATROOM7_MULT10_FLR_3 SYS-3 FLR-2 SCH-H HPLCMT-WEST ZN NECB SYSTEM 3 PSZ OCC SCH WINTER DESIGN DAY\n   ************* IDF Context for following error/warning message:\n   ************* Note -- lines truncated at 300 characters, if necessary...\n   *************  18023 Schedule:Week:Daily,\n   ************* indicated Name=Schedule:Week:Daily {55605de8-ab94-49d2-be0a-b5500da6e403}\n   ************* Only last 10 lines before error line shown.....\n   *************  18024   Schedule:Week:Daily {55605de8-ab94-49d2-be0a-b5500da6e403}, !- Name\n   *************  18025   Sp-PatRoom7_Mult10_Flr_4 Sys-3 Flr-3 Sch-H HPlcmt-west ZN NECB System 3 PSZ Occ Sch Sunday, !- Sunday Schedule:Day Name\n   *************  18026   Sp-PatRoom7_Mult10_Flr_4 Sys-3 Flr-3 Sch-H HPlcmt-west ZN NECB System 3 PSZ Occ Sch Monday, !- Monday Schedule:Day Name\n   *************  18027   Sp-PatRoom7_Mult10_Flr_4 Sys-3 Flr-3 Sch-H HPlcmt-west ZN NECB System 3 PSZ Occ Sch Tuesday, !- Tuesday Schedule:Day Name\n   *************  18028   Sp-PatRoom7_Mult10_Flr_4 Sys-3 Flr-3 Sch-H HPlcmt-west ZN NECB System 3 PSZ Occ Sch Wednesday, !- Wednesday Schedule:Day Name\n   *************  18029   Sp-PatRoom7_Mult10_Flr_4 Sys-3 Flr-3 Sch-H HPlcmt-west ZN NECB System 3 PSZ Occ Sch Thursday, !- Thursday Schedule:Day Name\n   *************  18030   Sp-PatRoom7_Mult10_Flr_4 Sys-3 Flr-3 Sch-H HPlcmt-west ZN NECB System 3 PSZ Occ Sch Friday, !- Friday Schedule:Day Name\n   *************  18031   Sp-PatRoom7_Mult10_Flr_4 Sys-3 Flr-3 Sch-H HPlcmt-west ZN NECB System 3 PSZ Occ Sch Saturday, !- Saturday Schedule:Day Name\n   *************  18032   Sp-PatRoom7_Mult10_Flr_4 Sys-3 Flr-3 Sch-H HPlcmt-west ZN NECB System 3 PSZ Occ Sch Default, !- Holiday Schedule:Day Name\n   *************  18033   Sp-PatRoom7_Mult10_Flr_4 Sys-3 Flr-3 Sch-H HPlcmt-west ZN NECB System 3 PSZ Occ Sch Summer Design Day, !- SummerDesignDay Schedule:Day Name\n   ** Warning ** IP: IDF line~18033 Alpha Argument length exceeds maximum, will be truncated=  Sp-PatRoom7_Mult10_Flr_4 Sys-3 Flr-3 Sch-H HPlcmt-west ZN NECB System 3 PSZ Occ Sch Summer Design Da\n   **   ~~~   ** Will be processed as Alpha=SP-PATROOM7_MULT10_FLR_4 SYS-3 FLR-3 SCH-H HPLCMT-WEST ZN NECB SYSTEM 3 PSZ OCC SCH SUMMER DESIGN DAY\n   ************* IDF Context for following error/warning message:\n   ************* Note -- lines truncated at 300 characters, if necessary...\n   *************  18023 Schedule:Week:Daily,\n   ************* indicated Name=Schedule:Week:Daily {55605de8-ab94-49d2-be0a-b5500da6e403}\n   ************* Only last 10 lines before error line shown.....\n   *************  18025   Sp-PatRoom7_Mult10_Flr_4 Sys-3 Flr-3 Sch-H HPlcmt-west ZN NECB System 3 PSZ Occ Sch Sunday, !- Sunday Schedule:Day Name\n   *************  18026   Sp-PatRoom7_Mult10_Flr_4 Sys-3 Flr-3 Sch-H HPlcmt-west ZN NECB System 3 PSZ Occ Sch Monday, !- Monday Schedule:Day Name\n   *************  18027   Sp-PatRoom7_Mult10_Flr_4 Sys-3 Flr-3 Sch-H HPlcmt-west ZN NECB System 3 PSZ Occ Sch Tuesday, !- Tuesday Schedule:Day Name\n   *************  18028   Sp-PatRoom7_Mult10_Flr_4 Sys-3 Flr-3 Sch-H HPlcmt-west ZN NECB System 3 PSZ Occ Sch Wednesday, !- Wednesday Schedule:Day Name\n   *************  18029   Sp-PatRoom7_Mult10_Flr_4 Sys-3 Flr-3 Sch-H HPlcmt-west ZN NECB System 3 PSZ Occ Sch Thursday, !- Thursday Schedule:Day Name\n   *************  18030   Sp-PatRoom7_Mult10_Flr_4 Sys-3 Flr-3 Sch-H HPlcmt-west ZN NECB System 3 PSZ Occ Sch Friday, !- Friday Schedule:Day Name\n   *************  18031   Sp-PatRoom7_Mult10_Flr_4 Sys-3 Flr-3 Sch-H HPlcmt-west ZN NECB System 3 PSZ Occ Sch Saturday, !- Saturday Schedule:Day Name\n   *************  18032   Sp-PatRoom7_Mult10_Flr_4 Sys-3 Flr-3 Sch-H HPlcmt-west ZN NECB System 3 PSZ Occ Sch Default, !- Holiday Schedule:Day Name\n   *************  18033   Sp-PatRoom7_Mult10_Flr_4 Sys-3 Flr-3 Sch-H HPlcmt-west ZN NECB System 3 PSZ Occ Sch Summer Design Day, !- SummerDesignDay Schedule:Day Name\n   *************  18034   Sp-PatRoom7_Mult10_Flr_4 Sys-3 Flr-3 Sch-H HPlcmt-west ZN NECB System 3 PSZ Occ Sch Winter Design Day, !- WinterDesignDay Schedule:Day Name\n   ** Warning ** IP: IDF line~18034 Alpha Argument length exceeds maximum, will be truncated=  Sp-PatRoom7_Mult10_Flr_4 Sys-3 Flr-3 Sch-H HPlcmt-west ZN NECB System 3 PSZ Occ Sch Winter Design Da\n   **   ~~~   ** Will be processed as Alpha=SP-PATROOM7_MULT10_FLR_4 SYS-3 FLR-3 SCH-H HPLCMT-WEST ZN NECB SYSTEM 3 PSZ OCC SCH WINTER DESIGN DAY\n   ************* IDF Context for following error/warning message:\n   ************* Note -- lines truncated at 300 characters, if necessary...\n   *************  18054 Schedule:Day:Interval,\n   ************* indicated Name=Sp-PatRoom7_Mult10_Flr_4 Sys-3 Flr-3 Sch-H HPlcmt-west ZN NECB System 3 PSZ Occ Sch Summer Design Day\n   ************* Only last 1 lines before error line shown.....\n   *************  18055   Sp-PatRoom7_Mult10_Flr_4 Sys-3 Flr-3 Sch-H HPlcmt-west ZN NECB System 3 PSZ Occ Sch Summer Design Day, !- Name\n   ** Warning ** IP: IDF line~18055 Alpha Argument length exceeds maximum, will be truncated=  Sp-PatRoom7_Mult10_Flr_4 Sys-3 Flr-3 Sch-H HPlc
[...]
8yH8sm5q+Jcpc4sT9GeyC5voczxw3orvTzmn0W4F8He2vDk2M2CVMziKF/D5EZbbPywtzccHh9vrLnwDHCAAxzgAAc4wAEOcIADHOD8NXFEkt3kfwILT6qTwnPniiiWHmhAAxrQgAY0oAENaEADGtCARk9zV/xr1n/RXAWZBA5wgAMc4AAHOMABDnCAAxzg1MF5fG+go94beJ5R7w3sO8U3bEdH29v7+yAFKUhBClKQghSkIAUpSEEKUpCC9G2Q9gpSN6VIuwVpv9/r7e2AFKQgBSlIQQpSkIIUpCAFKUhBCtK3QdpXpCexT5D29gtSx9nd7fdBClKQghSkIAUpSEEKUpCCFKQgBenbIN1WpF+nGUW6V5Du58fgPUhBClKQghSkIAUpSEEKUpCCFKQgfRukA0X6L+lRpLsF6YcPw+HuLkhBClKQghSkIAUpSEEKUpCCFKQgfRukO8UnE5mkSHcK0uFwZwekIAUpSEEKUpCCFKQgBSlIQQpSkL4V0l1F+imiKgv2BgXp3l6vNxiAFKQgBSlIQQpSkIIUpCAFKUhBCtLGSFcoXuzetUqd3dupnwbyfOrOpJ3K+7S18THK4qQcY/7nlh/8GxkmfhQGMik8lLjY2hJHnidcUXgSd346FUl0I4XXL2mZ3E5sdzaTodeylLa1WdJgddhumsYt695qi52uYaN53qhXvVGSzgO5wOu44WgaxXl7K5BjA9qlj3EUpp076U+mqfJxFQVedR+LsTmfdb646VkU3exefsqC1OlengTx5bY4nyedvsh/z3+ej6adj+Ljl2B0o/SSVPz+WXw+Hr5XV6XyRvTFl/PfxelopC7d2NQN8LutZBT7s/Qf5DXvtjz/9mUz2YZ2lvsSvndojdTsH+Yd5vqhjC97Ts8SRTceWp6fzAJ3fuCHQW7rXAXR6PtPFg2Ye13cg0jns7y96smta/fWXZzVtlTHrRurmSoOheffzAJph/Lu/HbSsn54AbIttrvd4kdp6Cm/npu6ueOLP6zAvZKBdWB5cuzmAytmcTT2A2m1F5bLe+vAsbtt69YNMrn8faRWqLxNvugMh8fH1kO7kp8ek58+k59tJj8DJj87TH52mfzsMfnZZ/LjdLkccc1oh2tKO1xz2uGa1A7XrHa4prXDNa8drontcM3sHtfM7rGt1Vwzu8c1s3tGM1sk2c3Ns1dWV9rRYukZuCH7yMwN2UNmbsj+MXNDxr2ZGzLqzdyQMW/mhox4MzdkvJu5oTcyQz9M85jexgz9MM1kehMz9MM0l+ktzNAP02ymNzBDP0zzmd6+DP1wrctM85neuwz9VJ/Pd36Ymm9bV+pUdT9k9xj6IbvH0A/ZPYZ+yHA39EOGu6EfMtwN/ZDhbuiHDHdDP/T+ZeqIa0bTO5ipI645Te9hpo64ZjW9i5k64prX9D5m6ohrZtM7makjtrWaa2bTm5mpo+oz+/E7jNJ3DFPbXPfZH3qLlxAzSPTWL9Ffv8T2+iUG65fYWb/E7vol9tYvsb9+iWc7+7o0GohvzQezfBr0J1t8GvSHXnwa9Ce9fBr0h8B8GvTnw3wa9EfHfBr0p8p8+18Dcd5rYh9vYCPvNbCT9+pt5aWvcqyWVi3e9cggQY8GmwQ9GGwS9FiwSdBpFZsEnVaxSdBpFZsEnVaxSdBpFZuE5ptrPg36qz8+DTqt4tOg0yo+DTqt4tOg0yo+DTqt4tOg0yo+DTqt4tOg0yq+/a+BONd8xc+n0cBGrkmr+DTqbeWlb8yqllYtXqnFIEGPBpsEPRhsEvRYsEnQaRWbBJ1WsUnQaRWbBJ1WsUnQaRWbhCat4tOgl1s+DTqt4tOg0yo+DTqt4tOg0yo+DTqt4tOg0yo+DTqt4tOg0yq+/a+BONekVXwaDWzkmrSKT6PeVl76YpJqadXizSUMEvRosEnQg8EmQY8FmwSdVrFJ0GkVmwSdVrFJ0GkVmwSdVrFJaNIqPg16ueXToNMqPg06reLToNMqPg06reLToNMqPg06reLToNMqPg06reLb/xqIc01axafRwEauSav4NOpt5aX136ulVYsC8QwS9GiwSdCDwSZBjwWbBJ1WsUnQaRWbBJ1WsUnQaRWbBJ1WsUlo0io+DXq55dOg0yo+DTqt4tOg0yo+DTqt4tOg0yo+DTqt4tOg0yo+DTqt4tv/GohzTVrFp9HARq5Jq/g06m3lpWV2q6VVizq8DBL0aLBJ0IPBJkGPBZsEnVaxSdBpFZsEnVaxSdBpFZsEnVaxSWjSKj4Nernl06DTKj4NOq3i06DTKj4NOq3i06DTKj4NOq3i06DTKj4NOq3i2/8aiHNNWsWn0cBGrkmr+DTqbeWl1QyrpVWLcocMEvRosEnQg8EmQY8FmwSdVrFJ0GkVmwSdVrFJ0GkVmwSdVrFJaIutcWnQyy2fhq6QFZeGrsYVl4au/BWXhq7mG5eGrhwcl4auUhyXhq6IHJeGrr4c1/7XQJxrq9JxaTSwkWvSKj6N8q38W5UKr8tCzuJQhPJuVUG2KBzbSm4n7aICbGmp2FU16ESm76Ms9JLWoNsWjjNoi776rTeoVm72Psd4LHLteUM3lZMonh/d+8mimvLj/VcoOZ07OI09GZ9lqrhx5YaKY/6c45N0kyyWCwxVn3nZ72su9w0zzDDDDDPMMMMMM8wwwwwzzDDDDDPMMMMMM8wwwwwzzDDDDDPMMMMMM8wwwwwzzDDDDDPMMMMMM8wwwwwzzDDDDDPMMMMM81/KPLejWxnHvic/uerBWsfuvvJ5VfVobPL80dhzGfsyWT5ea7VXDxDPgii1Az+UpY/IJi89p1v+ZG1iF6+en0WBm/pRmENZSSpnnSs5jmJpVXvy+Vc5kaH3/IYW51o73bboqyeXu+pBZvXDCuQ4VWAlrldu7cuJTI/DVPVPLjHOwlFB2toUf5S4WBHKx9YXpc9yq8Mfi1Y69RM7KUalmpA6njSy8/47dkfT1n+ATb2t8NWj4zn70u/lLEp85fBDfrrK3awO5eYFqji6M0NaYfmhJ1U8dJy2YevVcV234diXgZpvrWWfLuJkEkfZTHrixx/F35bn7+3LqZssn39XAbb51Dp/0Zp3iO1OJidKww5kOEmn4p3oiX8K6ygILHHw/Iok8Eey1XE2L7rfNkvj7U93EsWidZ3fSvcncZ3LLKfqUled+3u+4pgPkDrUNF76u7j+Zn+Xc3F4eLjovHoeC6/LYb82vdXVcRVL93udxg+GbUyvV/21vLtDNa3VZFjOlKKQg33pJok/CaU3VCUikouiJ7/V68rVQM+yZNqqOxb5kB4sxrN+JAXBQZW7tNWVdVWSNI6+y2o6i2vrKkUzd+Sn82pSy4tr31UhsZKq62W1kDxfVuqEh/Hio45VOD9feERHOKbeTMKtOutDu9hVK13/UJZTqGNrS3z57av49+lvZ+L89OzrL59/Fr+e/vzLUHw8Pjuu5uAkX7XlvatSNJFGIoniVITZTT4PRqIoaZIINxnlyYsfTip4XPW98vNkZ3bb4qr64hLLNItDMXPjRJ4EkZu2XLXkb+ZD+eTcVXGuUmeWp2hPZJe3UOb4Yb2VXh7zzyLci2BvbXhy7GZBKmZxlK9hcqMtNn7Y2xsOj4831lx4BjjAAQ5wgAMc4AAHOMABDnD+mjgiyW7yP4GFJ9VJ4blzRRRLDzSgAQ1oQAMa0IAGNKABDWhAo6e5K/41679oroJMAgc4wAEOcIADHOAABzjAAQ5w6uA8vjfQUe8NPM+o9wb2neIbtqOj7e39fZCCFKQgBSlIQQpSkIIUpCAFKUhB+jZIewWpm1Kk3YK03+/19nZAClKQghSkIAUpSEEKUpCCFKQgBenbIO0r0pPYJ0h7+wWp4+zu9vsgBSlIQQpSkIIUpCAFKUhBClKQgvRtkG4r0q/TjCLdK0j382PwHqQgBSlIQQpSkIIUpCAFKUhBClKQvg3SgSL9l/Qo0t2C9MOH4XB3F6QgBSlIQQpSkIIUpCAFKUhBClKQvg3SneKTiUxSpDsF6XC4swNSkIIUpCAFKUhBClKQghSkIAUpSN8K6a4i/RRRlQV7g4J0b6/XGwxAClKQghSkIAUpSEEKUpCCFKQgBWljpCsUL3bvWqXO7u3UTwN5PnVn0k7lfdra+BhlcVKOMf9zyw/+jQwTPwoDmRQeSlxsbYkjzxOuKDyJOz+diiS6kcLrl7RMbie2O5vJ0GtZStvaLGmwOmw3TeOWdW+1xU7XsNE8b9Sr3ihJ54Fc4HXccDSN4ry9FcixAe3SxzgK086d9CfTVPm4igKvuo/F2JzPOl+m8+TrVMbubH55EsSXfXE+Tzp9kf/e6Ynz0bQzFB+/BKObtDOKYil+/yw+Hw/fq6tSeSP64sv57+J0NFKXbmzqBvfdVjKK/Vn6D/Kad1uef/uymWxDO8t9Cd87tEZq5g/zznL9UMaXPadviaILDy3PT2aBOz/wwyC3da6CaPT9J4sGzL0u7kGk81neXvXi1rV76y7Oaluq49aN1SwVh8Lzb2aBtEN5d347aVk/vADZFtvdbvGjNOyUX89N3dzxxR9W4F7JwDqwPDl2syAVszga+4G02gvL5b114NjdtnXrBplc/j5Sq1PeJl9whsPjY+uhXclPj8lPn8nPNpOfAZOfHSY/u0x+9pj87DP5cbpcjrhmtMM1pR2uOe1wTWqHa1Y7XNPa4ZrXDtfEdrhmdo9rZvfY1mqumd3jmtk9o5ktkuzm5tnrqivtaLH0DNyQfWTmhuwhMzdk/5i5IePezA0Z9WZuyJg3c0NGvJkbMt7N3NAbmaEfpnlMb2OGfphmMr2JGfphmsv0Fmboh2k20xuYoR+m+UxvX4Z+uNZlpvlM712GfqrP5zs/TM23rSt1qrofsnsM/ZDdY+iH7B5DP2S4G/ohw93QDxnuhn7IcDf0Q4a7oR96/zJ1xDWj6R3M1BHXnKb3MFNHXLOa3sVMHXHNa3ofM3XENbPpnczUEdtazTWz6c3M1FH1mf34/UXp+4Wrfd64eAExgwT91y2bBP13L5sE/RcxmwT9KRCbBP35EJsE/ckRmwT9mRKbBP1pE5uE5iNWPo0G4lvzwSyfRgMRrvk4l0+jgRjXfAjMp9FAlGs+OubTaCDONR8482k0sY83EOeaT7D5NOrFeelrHKulVYv3PDJI0KPBJkEPBpsEPRZsEvSSyyZBr7hsEvSCyyZBr7dsEvRyyyahSav4NBqIb01axafRQIRr0io+jQZiXJNW8Wk0EOWatIpPo4E416RVfBpN7OMNxLkmreLTqBfnpW/LqpZWLV6nxSBBjwabBD0YbBL0WLBJ0EsumwS94rJJ0AsumwS93rJJ0Mstm4QmreLTaCC+NWkVn0YDEa5Jq/g0GohxTVrFp9FAlGvSKj6NBuJck1bxaTSxjzcQ55q0ik+jXpyXvpSkWlq1eGsJgwQ9GmwS9GCwSdBjwSZBL7lsEvSKyyZBL7hsEvR6yyZBL7dsEpq0ik+jgfjWpFV8Gg1EuCat4tNoIMY1aRWfRgNRrkmr+DQaiHNNWsWn0cQ+3kCca9IqPo16cV5a+71aWrUoDs8gQY8GmwQ9GGwS9FiwSdBLLpsEveKySdALLpsEvd6ySdDLLZuEJq3i02ggvjVpFZ9GAxGuSav4NBqIcU1axafRQJRr0io+jQbiXJNW8Wk0sY83EOeatIpPo16cl5bYrZZWLWrwMkjQo8EmQQ8GmwQ9FmwS9JLLJkGvuGwS9ILLJkGvt2wS9HLLJqFJq/g0GohvTVrFp9FAhGvSKj6NBmJck1bxaTQQ5Zq0ik+jgTjXpFV8Gk3s4w3EuSat4tOoF+ellQyrpVWLUocMEro6N0wSugo4TBK62jhMErp6UEwSukpRTBK6GlJMErrqUkwSurpTTBLaYmtcGg3Et7ZEG5dGAxGuLezGpdFAjGvLwXFpNBDl2iJyXBoNxLm29ByXRhP7eANxrq1lx6VRHuffqlR4XRZxFocilHerCrJF4dhWcjtpFxVgS0vFripBJzJ9H2Whl7QG3bZwnEFb9NVvvUG1crP3OcZjgWvPG7qpnETx/OjeTxaVlB/vv0K56dzBaezJ+CxThY0rN1Qc8+ccn6SbZLFcYKjazMt+X3Opb5hhhhlmmGGGGWaYYYYZZphhhhlmmGGGGWaYYYYZZphhhhlmmGGGGWaYYYYZZphhhhlmmGGGGWaYYYYZZphhhhlmmGGGGWaY/1LmuR3dyjj2PfnJVQ/WOnb3lc+rqkdjk+ePxp7L2JfJ8vFaq716gHgWRKkd+KEsfUQ2eek53fInaxO7ePX8LArc1I/CHMpKUjnrXMlxFEur2pPPv8qJDL3nN7Q419rptkVfPbncVQ8yqx9WIMepAitxvXJrX05kehymqn9yiXEWjgrS1qb4o8TFilA+tr4ofZZbHf5YtNKpn9hJMSrVhNTxpJGd99+xO5q2/gNs6m2Frx4dz9mXfi9nUeIrhx/y01XuZnUoNy9QxdGdGdIKyw89qeKh47QNW6+O67oNx74M1HxrLft0ESeTOMpm0hM//ij+tjx/b19O3WT5/LsKsM2n1vmL1rxDbHcyOVEadiDDSToV70RP/FNYR0FgiYPnVySBP5KtjrN50f22WRpvf7qTKBat6/xWuj+J61xmOVWXuurc3/MVx3yA1KGm8dLfxfU3+7uci8PDw0Xn1fNYeF0O+7Xpra6Oq1i63+s0fjBsY3q96q/l3R2qaa0mw3KmFIUc7Es3SfxJKL2hKhGRXBQ9+a1eV64GepYl01bdsciH9GAxnvUjKQgOqtylra6sq5KkcfRdVtNZXFtXKZq5Iz+dV5NaXlz7rgqJlVRdL6uF5PmyUic8jBcfdazC+fnCIzrCMfVmEm7VWR/axa5a6fqHspxCHVtb4stvX8W/T387E+enZ19/+fyz+PX051+G4uPx2XE1Byf5qi3vXZWiiTQSSRSnIsxu8nkwEkVJk0S4yShPXvxwUsHjqu+Vnyc7s9sWV9UXl1imWRyKmRsn8iSI3LTlqiV/Mx/KJ+euinOVOrM8RXsiu7yFMscP66308ph/FuFeBHtrw5NjNwtSMYujfA2TG22x8cPe3nB4fLyx5sIzwAEOcIADHOAABzjAAQ5wgPPXxBFJdpP/CSw8qU4Kz50rolh6oAENaEADGtCABjSgAQ1oQAMaPc1d8a9Z/0VzFWQSOMABDnCAAxzgAAc4wAEOcIBTB+fxvYGOem/geUa9N7DvFN+wHR1tb+/vgxSkIAUpSEEKUpCCFKQgBSlIQQrSt0HaK0jdlCLtFqT9fq+3twNSkIIUpCAFKUhBClKQghSkIAUpSN8GaV+RnsQ+QdrbL0gdZ3e33wcpSEEKUpCCFKQgBSlIQQpSkIIUpG+DdFuRfp1mFOleQbqfH4P3IAUpSEEKUpCCFKQgBSlIQQpSkIL0bZAOFOm/pEeR7hakHz4Mh7u7IAUpSEEKUpCCFKQgBSlIQQpSkIL0bZDuFJ9MZJIi3SlIh8OdHZCCFKQgBSlIQQpSkIIUpCAFKUhB+lZIdxXpp4iqLNgbFKR7e73eYABSkIIUpCAFKUhBClKQghSkIAUpSBsjXaF4sXvXKnV2b6d+GsjzqTuTdirv09bGxyiLk3KM+Z9bfvBvZJj4URjIpPBQ4mJrSxx5nnBF4Unc+elUJNGNFF6/pGVyO7Hd2UyGXstS2tZmSYPVYbtpGrese6stdrqGjeZ5o171Rkk6D+QCr+OGo2kU5+2tQI4NaJc+xlGYdu6kP5mmysdVFHjVfSzG5nzWOXM9P5+Zk/nlSRBfbovzedLpi/z3/Of5aNr5KD5+CUY3aWcUxVL8/ll8Ph6+V1el8kb0xZfz38XpaKQu3djUDe27rWQU+7P0H+Q177Y8//ZlM9mGdpb7Er53aI3UvB/mXeX6oYwve862JYoOPLQ8P5kF7vzAD4Pc1rkKotH3nywaMPe6uAeRzmd5e9WHW9furbs4q22pjls3VnNUHArPv5kF0g7l3fntpGX98AJkW2x3u8WP0qBTfj03dXPHF39YgXslA+vA8uTYzYJUzOJo7AfSai8sl/fWgWN329atG2TSOhgM7P7+k6M/aFsjtVTlLvLVZzg8PrYe2pXc9tbjtr8et9vrcTtYj9ud9bjdXY/bvfW43V+PW6e7Jr9rijNnTYHmrCnSnDWFmrOmWHPWFGzOmqLNWVO4OWuKt96a4q23rn1tTfHWW1O89V4TbyLJbm6evRS8TuYQS8/Aa9X+NfNatXfNvFbtWzOvVVcyM69V1zEzr1VXMTOvVdcwM69VVzAzr5UTBkO364muyumCodv1xFflZMHQ7XoirHKqYOh2PTFWOVEwdLueKKucJhi6XdMetp4oq5wjGLqtHWV3fpi+Oj24UldUd1u1aw3dVu1aQ7dVu9bQbdUFzNBt1QXM0G3VBczQbdUFzNBt1QXM0G3lPMHU75rirHKmYOp3TZFWOVcw9bumWKucLZj6XVO0Vc4XTP2uKd4qZwymfte1r60p3ionDaZ+zeLtW5UvLpbfTIpDEcq71RcjxfchreR20i6+2Cj9BmT19WYi0/dRFnpJa9BtC8cZtEVf/dYbVPsW5T7HePzW1vOGbionUTw/uveTxdeDj31R4TvU3MFp7Mn4LFPf1lVuqDjmzzk+STfJYrnAUF84Lsfgtd8KF19IPZc6l7EvkyVurrQckFkQpbb6lqxUMnnpvstJE7uYeLMocFM/CnMoK0nlrHMlx1EsrWoz6Vc5kaH3/IYW51o7+Szoq5mgvlRz1I/ll66l30ev3NqXE5keh6nqn1xinIWjgrS1Kf6o8K2rIpSPrS9KY0Md/li00qmf5PNatasmpI4njey8/47d0bT1H2BTbyv85XeMS7+XsyjxlcMP+ekqd7M6lJsXqOLozgxpheWHnlSB23Hahq1Xx3XdhmNfBmq+tZZ9uoiTSRxlM+mJH38Uf1uev7cvp26yXE9UgG0+tc5ftOYdYruTyYnSsAMZTtKpeCd64p/COgoCSxw8vyIJ/JFsdZzNi+63zdJ4+9OdRLFoXee30v1JXOcyy6m61FXn/n4oHPMBUoeaxkt/F9ff7O8yX94ODxedV89j4XU57Nemt7o6rmLpfq/T+MGwjen1qr+Wd3eoprWaDMuZUmyM9uXiP4qkV/xPUXJR9OS3el25GuhZlkxbdcciH9KDxXjWj6QgOKhyl7a6sq5KksbRd1lNZ3FtXaVo5o78dF5Nanlx7bsqJFZSdb2sFpLny0qd8DBefNSxCufnC4/oCMfUm0m4VWd9aBe7aqXrH8pyCnVsbYkvv30V/z797Uycn559/eXzz+LX059/GYqPx2fH1Ryc5Ku2vHdViibSSCRRnkiH2U0+D0aiSBET4SajPHnxw0kFj6u+V36e7MxuW1xVX1ximWZxKGZunMiTIHLTlquW/M18KJ+cuyrOVerM8hTtiezyFsocP/wv/Ofnf31ju/z3TvUF7P/KP6ICBzjAAQ5wgAMc4AAHOMABzpvH+fN/viiiWHqgAQ1oQAMa0IAGNKABDWhAAxo9zZ/+J1DRqH/xAw5wgAMc4AAHOMABDnCAAxzg/C/WW/wqb2YydtMslqJ1somKi/9vVVzMZrNgLo78WKiBeiM1EwdvoWbiADUTjUsboGaiuVvUTETNRPPSBqiZWM8vaiaiZiJqJqJmImomombiS25RMxE1E1Ez0ThNQM1Ec7eomYiaiaiZaJomoGZiPb+omYiaiaiZiJqJL3xxgZqJL3CgZiJqJgrUTKyGhZqJqJlY50DNRHWgZiJqJhYHaibqr0TNxHIH6kDNxLdRWgQ4wAEOcIADHOAABzjAAQ5w3jzO/2MVR0ADGtCABjSgAQ1oQAMa0IDm7dD8f1PpBDjAAQ5wgAMc4AAHOMABDnDq66Fm4ssHaiYuaiYK541UTdx5C1UTdxqrmlj8Xrc8E5OfPpOfbSY/AyY/O0x+dpn87DH52Wfy86yqwKsccc1oh2tKO1xz2uGa1A7XrHa4prXDNa8drontcM3sHtfM7rGt1Vwzu8c1s3tGM7t6Nb9nruqX73uFG7KH6hfoe4UbMu7rl+B7hRsy5usX2XuFGzLeX1FG7zV+mOYxvY29ojLea/wwTWV6D3tFsbvX+GGazfQG9or6da9ZB5nmM717vaIk3Wv8MM1neuuqX2XumZtXlJV7jR+ye15ROO41fshwf0VpuNf4IcP9FcXfXuOHDPfXlHd7lSOuGU3vYK+p2PYqR1yTmt7EXlOE7VWOuOY1vY+9pq7aq1ZGrplNb2WvKZX2KkdcM5vezf7k6EvsR7GfzoUjOqJ1noWbqg7VTuf/uGGn63SK3z/IUafvUNtc99kfekdH29v7+wwSvfVL9Ncvsb1+icH6JXbWL7G7fom99Uvsr1/i2c6+Lo0G4ttpIMCdBiLcaSDEnQZi3GkgyJ0GotxpIMydBuK810Cc95rYxxuI814Dcd6rF+e9QsNNKY1utbSq3+/19nYYJOjRYJOgB4NNgh4LNgl6yWWToFdcNgl6wWWToNdbNgl6uWWT0KRVfBoNxLcmreLTaCDCNWkVn0YDMa5Jq/g0GohyTVrFp9FAnGvSKj6NJvbxBuJck1bxadSL877SOIl9QqO3Xy2tcpzd3X6fQYIeDTYJejDYJOixYJOgl1w2CXrFZZOgF1w2CXq9ZZOg/zeKTULzD4F8GvR/VPFp0P9sxadB/x8Wnwb9L1p8GvT/JfJp0P+yyKdB/zcjnwb9j458Gg3EuSat4tNoYh9vYCPXpFV8GvW28m2l8XWaURp71dIq9c6lwXsGCXo02CTowWCToMeCTYJOq9gk6LSKTYJOq9gk6LSKTYJebtkkNGkVnwadVvFp0GkVnwadVvFp0GkVnwadVvFp0GkVnwadVvFp0GkVn0YDca5Jq/g0mtjHG9jINWkVn0a9rXygNP4lPUpjt1pa9eHDcLi7yyBBjwabBD0YbBL0WLBJ0GkVmwSdVrFJ0GkVmwSdVrFJ0Mstm4QmreLToNMqPg06reLToNMqPg06reLToNMqPg06reLToNMqPg06reLTaCDONWkVn0YT+3gDG7kmreLTqLeV7xSpWyYpjZ1qadVwuLPDIkGPBpsEPRhsEvRYsEnQaRWbBJ1WsUnQaRWbBJ1WsUnQyy2bhCat4tOg0yo+DTqt4tOg0yo+DTqt4tOg0yo+DTqt4tOg0yo+DTqt4tNoIM41aRWfRhP7eAMbuSat4tOot5XvKo1PEfVv8b1BtbRqb6/XGwwYJOjRYJOgB4NNgh4LNgk6rWKToNMqNgk6rWKToNMqNgld3SkmCW2xNS4NXbUqLg1dISsuDV2NKy4NXfkrLg1dzTcuDV05OC4NXaU4Lg1dETkujQbiXJNW8Wk0sY83sJFr0io+jfKt/FuVCq/LQsziUITyblVBtigc20puJ+2iAmxpqdhVNedEpu+jLPSS1qDbFo4zaIu++q03qFZu9j7HeKxE7XlDN5WTKJ4f3fvJohby4/1XKBmdOziNPRmfZao0ceWGimP+nOOTdJMslgsMVV152e9rrskNM8wwwwwzzDDDDDPMMMMMM8wwwwwzzDDDDDPMMMMMM8wwwwwzzDDDDDPMMMMMM8wwwwwzzDDDDDPMMMMMM8wwwwwzzDDDDPNfyjy3o1sZx74nP7nqwVrH7r7yeVX1aGzy/NHYcxn7Mlk+Xmu1Vw8Qz4IotQM/lKWPyCYvPadb/mRtYhevnp9FgZv6UZhDWUkqZ50rOY5iaVV78vlXOZGh9/yGFudaO9226Ksnl7vqQWb1wwrkOFVgJa5Xbu3LiUyPw1T1Ty4xzsJRQdraFH+UuFgRysfWF6XPcqvDH4tWOvUTOylGpZqQOp40svP+O3ZH09Z/gE29rfDVo+M5+9Lv5SxKfOXwQ366yt2sDuXmBao4ujNDWmH5oSdVPHSctmHr1XFdt+HYl4Gab61lny7iZBJH2Ux64scfxd+W5+/ty6mbLJ9/VwG2+dQ6f9Gad4jtTiYnSsMOZDhJp+Kd6Il/CusoCCxx8PyKJPBHstVxNi+63zZL4+1PdxLFonWd30r3J3Gdyyyn6lJXnft7vuKYD5A61DRe+ru4/mZ/l3NxeHi46Lx6Hguvy2G/Nr3V1XEVS/d7ncYPhm1Mr1f9tby7QzWt1WRYzpSikIN96SaJPwmlN1QlIpKLoie/1evK1UDPsmTaqjsW+ZAeLMazfiQFwUGVu7TVlXVVkjSOvstqOotr6ypFM3fkp/NqUsuLa99VIbGSqutltZA8X1bqhIfx4qOOVTg/X3hERzim3kzCrTrrQ7vYVStd/1CWU6hja0t8+e2r+Pfpb2fi/PTs6y+ffxa/nv78y1B8PD47rubgJF+15b2rUjSRRiKJ4lSE2U0+D0aiKGmSCDcZ5cmLH04qeFz1vfLzZGd22+Kq+uISyzSLQzFz40SeBJGbtly15G/mQ/nk3FVxrlJnlqdoT2SXt1Dm+GG9lV4e888i3Itgb214cuxmQSpmcZSvYXKjLTZ+2NsbDo+PN9ZceAY4wAEOcIADHOAABzjAAQ5w/po4Islu8j+BhSfVSeG5c0UUSw80oAENaEADGtCABjSgAQ1oQKOnuSv+Neu/aK6CTAIHOMABDnCAAxzgAAc4wAEOcOrgPL430FHvDTzPqPcG9p3iG7ajo+3t/X2QghSkIAUpSEEKUpCCFKQgBSlIQfo2SHsFqZtSpN2CtN/v9fZ2QApSkIIUpCAFKUhBClKQghSkIAXp2yDtK9KT2CdIe/sFqePs7vb7IAUpSEEKUpCCFKQgBSlIQQpSkIL0bZBuK9Kv04wi3StI9/Nj8B6kIAUpSEEKUpCCFKQgBSlIQQpSkL4N0oEi/Zf0KNLdgvTDh+FwdxekIAUpSEEKUpCCFKQgBSlIQQpSkL4N0p3ik4lMUqQ7BelwuLMDUpCCFKQgBSlIQQpSkIIUpCAFKUjfCumuIv0UUZUFe4OCdG+v1xsMQApSkIIUpCAFKUhBClKQghSkIAVpY6QrFC9271qlzu7t1E8DeT51Z9JO5X3a2vgYZXFSjjH/c8sP/o0MEz8KA5kUHkpcbG2JI88Trig8iTs/nYokupHC65e0TG4ntjubydBrWUrb2ixpsDpsN03jlnVvtcVO17DRPG/Uq94oSeeBXOB13HA0jeK8vRXIsQHt0sc4CtPOnfQn01T5uIoCr7qPxdj8z9H/LDr4TE6lmwpHnI5G4nw03djUDdO7rWQU+7P0H+Q177Y8//ZlM9mGdpb7Er53aI3UHB7mt+36oYwve86uJYrOOLQ8P5kF7vzAD4Pc1rkKotH3nywaMPe6uAeRzmd5e9UfW9furbs4q22pjls3VvNNHArPv5kF0g7l3fntpGX98AJkW2x3u8WP0gBSfj03dXPHF39YgXslA+vA8uTYzYJUzOJo7AfSai8sl/fWgWN329atG2Ry+ftIrTN5m3zpGA6Pj62HdiU/PSY/fSY/20x+Bkx+dpj87DL52WPys8/kx+lyOeKa0Q7XlHa45rTDNakdrlntcE1rh2teO1wT2+Ga2T2umd1jW6u5ZnaPa2b3jGa2SLKbm2cvnq60o8XSM3BD9pGZG7KHzNyQ/WPmhox7Mzdk1Ju5IWPezA0Z8WZuyHg3c0NvZIZ+mOYxvY0Z+mGayfQmZuiHaS7TW5ihH6bZTG9ghn6Y5jO9fRn64VqXmeYzvXcZ+qk+n+/8MDXftq7Uqep+yO4x9EN2j6EfsnsM/ZDhbuiHDHdDP2S4G/ohw93QDxnuhn7o/cvUEdeMpncwU0dcc5rew0wdcc1qehczdcQ1r+l9zNQR18ymdzJTR2xrNdfMpjczU0fVZ/bjNxGlbwqmtrnusz/0Fq8SZpDorV+iv36J7fVLDNYvsbN+id31S+ytX2J//RLPdvZ1aTQQ304DAe40EOFOAyHuNBDjTgNB7jQQ5U4DYe40EOe9BuK818Q+3kCc9xqI8169OC99IWO1tGrxxkYGCXo02CTowWCToMeCTYJectkk6BWXTYJecNkk6PWWTYJebtkkNGkVn0YD8a1Jq/g0GohwTVrFp9FAjGvSKj6NBqJck1bxaTQQ55q0ik+jiX28gTjXpFV8GvXivPS9V9XSqsWLsRgk6NFgk6AHg02CHgs2CXrJZZOgV1w2CXrBZZOg11s2Cfp/o9gkNP8QyKdB/0cVnwb9z1Z8GvT/YfFp0P+ixadB/18inwb9L4t8GvR/M/Jp0P/oyKfRQJxr/j2ST6OBONf8UyWfRgM7uSat0mmUvl6kWlq1eP8IgwSdVrFJ0IPBJkGPBZsEnVaxSdBpFZsEnVaxSdBpFZsEvdyySWjSKj4Nernl06CXWz4NOq3i06DTKj4NOq3i06DTKj4NOq3i06DTKj6NBuJck1bxaTQQ55q0ik+jgZ1ck1bpNEqruFdLqxZl3hkk6LSKTYIeDDYJeizYJOi0ik2CTqvYJOi0ik2CTqvYJOjllk1Ck1bxadDLLZ8GvdzyadBpFZ8GnVbxadBpFZ8GnVbxadBpFZ8GnVbxaTQQ55q0ik+jgTjXpFV8Gg3s5Jq0SqdRWiy3Wlq1qKbLIEGnVWwS9GCwSdBjwSZBp1VsEnRaxSZBp1VsEnRaxSZBL7dsEpq0ik+DXm75NOjllk+DTqv4NOi0ik+DTqv4NOi0ik+DTqv4NOi0ik+jgTjXpFV8Gg3EuSat4tNoYCfXpFU6jdKahNXSqkXRQgYJOq1ik6AHg02CHgs2CTqtYpOg0yo2CTqtYpOg0yo2CV3dKSYJbbE1Lg16ueXT0BWy4tLQ1bji0tCVv+LS0NV849LQlYPj0tBViuPS0BWR49JoIM61pee4NBqIc23BOi6NBnZyTVq10vhWpcLrshyzOBShvFtVkC0Kx7aS20m7qABbWip2VdM5ken7KAu9pDXotoXjDNqir37rDaqVm73PMR5LVXve0E3lJIrnR/d+sqiJ/Hj/FQpH5w5OY0/GZ5kqUVy5oeKYP+f4JN0ki+UCQ1VZXvb7mot2wwwzzDDDDDPMMMMMM8wwwwwzzDDDDDPMMMMMM8wwwwwzzDDDDDPMMMMMM8wwwwwzzDDDDDPMMMMMM8wwwwwzzDDDDDPMMMP8lzLP7ehWxrHvyU+uerDWsbuvfF5VPRqbPH809lzGvkyWj9da7dUDxLMgSu3AD2XpI7LJS8/plj9Zm9jFq+dnUeCmfhTmUFaSylnnSo6jWFrVnnz+VU5k6D2/ocW51k63LfrqyeWuepBZ/bACOU4VWInrlVv7ciLT4zBV/ZNLjLNwVJC2NsUfJS5WhPKx9UXps9zq8MeilU79xE6KUakmpI4njey8/47d0bT1H2BTbyt89eh4zr70ezmLEl85/JCfrnI3q0O5eYEqju7MkFZYfuhJFQ8dp23YenVc12049mWg5ltr2aeLOJnEUTaTnvjxR/G35fl7+3LqJsvn31WAbT61zl+05h1iu5PJidKwAxlO0ql4J3rin8I6CgJLHDy/Ign8kWx1nM2L7rfN0nj7051EsWhd57fS/Ulc5zLLqbrUVef+nq845gOkDjWNl/4urr/Z3+VcHB4eLjqvnsfC63LYr01vdXVcxdL9Xqfxg2Eb0+tVfy3v7lBNazUZljOlKORgX7pJ4k9C6Q1ViYjkoujJb/W6cjXQsyyZtuqORT6kB4vxrB9JQXBQ5S5tdWVdlSSNo++yms7i2rpK0cwd+em8mtTy4tp3VUispOp6WS0kz5eVOuFhvPioYxXOzxce0RGOqTeTcKvO+tAudtVK1z+U5RTq2NoSX377Kv59+tuZOD89+/rL55/Fr6c//zIUH4/Pjqs5OMlXbXnvqhRNpJFIojgVYXaTz4ORKEqaJMJNRnny4oeTCh5Xfa/8PNmZ3ba4qr64xDLN4lDM3DiRJ0Hkpi1XLfmb+VA+OXdVnKvUmeUp2hPZ5S2UOX5Yb6WXx/yzCPci2Fsbnhy7WZCKWRzla5jcaIuNH/b2hsPj4401F54BDnCAAxzgAAc4wAEOcIADnL8mjkiym/xPYOFJdVJ47lwRxdIDDWhAAxrQgAY0oAENaEADGtDoae6Kf836L5qrIJPAAQ5wgAMc4AAHOMABDnCAA5w6OI/vDXTUewPPM+q9gX2n+Ibt6Gh7e38fpCAFKUhBClKQghSkIAUpSEEKUpC+DdJeQeqmFGm3IO33e729HZCCFKQgBSlIQQpSkIIUpCAFKUhB+jZI+4r0JPYJ0t5+Qeo4u7v9PkhBClKQghSkIAUpSEEKUpCCFKQgfRuk24r06zSjSPcK0v38GLwHKUhBClKQghSkIAUpSEEKUpCCFKRvg3SgSP8lPYp0tyD98GE43N0FKUhBClKQghSkIAUpSEEKUpCCFKRvg3Sn+GQikxTpTkE6HO7sgBSkIAUpSEEKUpCCFKQgBSlIQQrSt0K6q0g/RVRlwd6gIN3b6/UGA5CCFKQgBSlIQQpSkIIUpCAFKUhB2hjpCsWL3btWqbN7O/XTQJ5P3Zm0U3mftjY+RlmclGPM/9zyg38jw8SPwkAmhYcSF1tb4sjzhCsKT+LOT6ciiW6k8PolLZPbie3OZjL0WpbStjZLGqwO203TuGXdW22x0zVsNM8b9ao3StJ5IBd4HTccTaM4b28FcmxAu/QxjsK0cyf9yTRVPq6iwKvuYzE2/3P0P4sOPpNT6abidDQS56PpxqZukN5tJaPYn6X/IK95t+X5ty+byTa0s9yX8L1Da6Rm8DC/adcPZXzZc/YsUXTFoeX5ySxw5wd+GOS2zlUQjb7/ZNGAudfFPYh0Psvbq97YunZv3cVZbUt13Lqxmm3iUHj+zSyQdijvzm8nLeuHFyDbYrvbLX6Uho/y67mpmzu++MMK3CsZWAeWJ8duFqRiFkdjP5BWe2G5vLcOHLvbtm7dIJPWwc6+vf/k2NtvWyO15uQe8mVkODw+th7albz21uK1vxav22vxOliL1521eN1di9e9tXjdX4tXp7set+uJLmc94eWsJ76c9QSYs54Ic9YTYs56YsxZT5A564my3nqirLemPWw9UdZbT5T1XhFlIslubp69xrtGhhBLz8Bpxb41c1qxZ82cVuxXM6cV1y4zpxVXLjOnFdctM6cVVy0zpxXXLDOnVRMDQ69riamqaYGh17VEVdWkwNDrWuKqakpg6HUtkVU1ITD0upbYqpoOGHpdz361ltiqmgsYeq0bW3d+mL42DbhSF1T3WrFbDb1W7FZDrxW71dBrxSXL0GvFJcvQa8Uly9BrxSXL0GvFJcvQa9V8wNTteqKrakZg6nY98VU1JzB1u54Iq5oVmLpdT4xVzQtM3a4nyqpmBqZu17SHrSfKqiYHpm6NouxblS8clt8NikMRyrvVFxrF9xit5HbSLr6QKP3mYvUFYyLT91EWeklr0G0Lxxm0RV/91htU+/bjPsd4/N7U84ZuKidRPD+695PFF3SPXVHhW8zcwWnsyfgsU9+XVW6oOObPOT5JN8liucBQX/kth+C138sWXyQ9lzqXsS+TJW6utByQWRCltvp2q1Qyeem+y0kTu5h3syhwUz8KcygrSeWscyXHUSytajPpVzmRoff8hhbnWjv5LOirmaC+DHPUj+XXnqXfCK/c2pcTmR6HqeqfXGKchaOCtLUp/qjwvacilI+tL0pjQx3+WLTSqZ/k81q1qyakjieN7Lz/jt3RtPUfYFNvK/zld4NLv5ezKPGVww/56Sp3szqUmxeo4ujODGmF5YeeVIHbcdqGrVfHdd2GY18Gar61ln26iJNJHGUz+X/bOb/etGEoir/vU3h9qEBrU8L+dO3GpmorbaVtnbpW01RVUwAXAiFBSZjKA999cQgIaD0S36tStOOXtLnh+Gf72o6Ke1pie1s8z+7fWb87TpStJ2qCleejowejSYdYTrtdV3VYnvTbcUe8F1XxUWwded6WOFx8IvLcpizt2uXryk155Xy715IgFKVu0pTKO9FNqslSNatX3XtRE3bxAVJFpXGmd929sXoyWd5qtUnnmSmmqtmwd4s2dVoaoXR6Jh8eF/xM0edVf2Wtq6m0VsmQZUq6MVq/J2d6ZCs91RNdpz15Y9aV04EeDKNOyXQskiE9nIyn+UzyvMM8rbTUk6a1RHEY9GS+eibPmtYUDJymG4/yVZU9bNyqtIppVaYq04VkcVkxmR6FFx9VptN5ceERu8IuqlZkuuVnHe+ku2qu58er3ilU2dsT368uxa/zqwvx4/zi8uzbifhyfnL2SZweXxznE6gnq7a8c9QrmogDEQXJi7Q/7Cd50BTpK2IknKiZvLy4fjuH4rTvlc7czuzsiEb+xSWU8TD0xcAJI1n3AicuOWrJLydDOXevkd7L1ZmrX9Hmqs2asEp4vIazl0tfwGYHLNUXqms5Cgoc4AAHOMABDnCAAxzgAAc4G49z/4CLIgplCzSgAQ1oQAMa0IAGNKABDWhA82+ae0cCFY064gcc4AAHOMABDnCAAxzgAAc4wFmj4+Gl7A9k6MTDUIpSvQzPwyflefjTURl3KtPLUb/hSj8WasiU86FsDZP+3xX7lfqGmCAebIIJ4sGjmSCm/3pqasLEpPOSSecVk85rJp03TDr7TDpvmXQOmHQW3AVIQlwZbXOltM2V0zZXUttcWW1zpbXNldc2V2LbXJld5crsKttazZXZVa7MrhbK7PymfQtS5jZ9BBltD5lb8RFktPPe3G6PIKOd8+aWegQZ7Xwn2OZRdJjyWL+NEczwKDpMqazfwwgWdxQdpmzWb2AE4zrKOsiUz/rdi2BHR9Fhymf91mVuMrcgQ7CVo+hou4dgHUfR0U53gj0cRUc73QkWcBQd7XSn2LyRhLgyWr+DUczbSEJcSa3fxCiWbCQhrrzW72MUozXSysiV2fqtjGKfRhLiymz9bgZTtI0wRUMYYYQRRhhhhBFGGGGEEUYYYYQRRvgphUdW8EeGoduSXx31hyrbqsAUf64lMMWfFZjiFyowxYcpfoECU/zlAlP85QJT/IIFpvgwxX+wwBQfOMABDnCAAxzgAAc4wAEOcICzCZaSoAENaEADGtCABjSgAQ1oQLM5NP+NlSVwgAMc4AAHOMABDnCAAxzgmNe3BlP8z25f+pEb+J6MIljiPy1L/CDsiePbW7fpSr85mhnhP64Ffvb0UmT+9+nPk+tMPfthdmkErZG6duK+9+HZX2OZ8uY="
               },
               {
                  "name" : "annual_peak_electric_demand",
                  "units" : "kW",
                  "value" : 1946.19245
               },
               {
                  "name" : "first_year_capital_cost",
                  "units" : "$",
                  "value" : 0
               },
               {
                  "name" : "annual_utility_cost",
                  "units" : "$",
                  "value" : 0
               },
               {
                  "name" : "total_lifecycle_cost",
                  "units" : "$",
                  "value" : 0
               }
            ],
            "step_warnings" : [ "A table in Annual Overview section returned false and was skipped." ]
         }
      }
   ],
   "updated_at" : "20170710T193843Z",
   "weather_file" : "USA_CO_Denver.Intl.AP.725650_TMY3.epw"
}
