{
   "completed_at" : "20170710T192807Z",
   "completed_status" : "Success",
   "created_at" : "2017-07-10 19:01:22 +0000",
   "current_step" : 5,
   "description" : "",
   "eplusout_err" : "Program Version,EnergyPlus, Version 8.7.0-78a111df4a, YMD=2017.07.10 19:12,IDD_Version 8.7.0\n   ************* IDF Context for following error/warning message:\n   ************* Note -- lines truncated at 300 characters, if necessary...\n   *************      5 Building,\n   ************* indicated Name=NECB 2011-Outpatient-NECB HDD Method-CAN_PQ_Lake.Eon.714210_CWEC.epw created: 2017-07-10 19:01:40 +0000\n   ************* Only last 1 lines before error line shown.....\n   *************      6   NECB 2011-Outpatient-NECB HDD Method-CAN_PQ_Lake.Eon.714210_CWEC.epw created: 2017-07-10 19:01:40 +0000, !- Name\n   ** Warning ** IP: IDF line~6 Alpha Argument length exceeds maximum, will be truncated=  NECB 2011-Outpatient-NECB HDD Method-CAN_PQ_Lake.Eon.714210_CWEC.epw created: 2017-07-10 19:01:40 +000\n   **   ~~~   ** Will be processed as Alpha=NECB 2011-OUTPATIENT-NECB HDD METHOD-CAN_PQ_LAKE.EON.714210_CWEC.EPW CREATED: 2017-07-10 19:01:40 +0000\n   ************* IDF Context for following error/warning message:\n   ************* Note -- lines truncated at 300 characters, if necessary...\n   *************  33172 Schedule:Week:Daily,\n   ************* indicated Name=Schedule:Week:Daily {7eee128d-0431-4698-832a-bab45f36519c}\n   ************* Only last 10 lines before error line shown.....\n   *************  33173   Schedule:Week:Daily {7eee128d-0431-4698-832a-bab45f36519c}, !- Name\n   *************  33174   Sp-Floor 3 Physical Therapy 1 Sys-3 Flr-2 Sch-C HPlcmt-south ZN NECB System 3 PSZ Occ Sch Sunday, !- Sunday Schedule:Day Name\n   *************  33175   Sp-Floor 3 Physical Therapy 1 Sys-3 Flr-2 Sch-C HPlcmt-south ZN NECB System 3 PSZ Occ Sch Monday, !- Monday Schedule:Day Name\n   *************  33176   Sp-Floor 3 Physical Therapy 1 Sys-3 Flr-2 Sch-C HPlcmt-south ZN NECB System 3 PSZ Occ Sch Tuesday, !- Tuesday Schedule:Day Name\n   *************  33177   Sp-Floor 3 Physical Therapy 1 Sys-3 Flr-2 Sch-C HPlcmt-south ZN NECB System 3 PSZ Occ Sch Wednesday, !- Wednesday Schedule:Day Name\n   *************  33178   Sp-Floor 3 Physical Therapy 1 Sys-3 Flr-2 Sch-C HPlcmt-south ZN NECB System 3 PSZ Occ Sch Thursday, !- Thursday Schedule:Day Name\n   *************  33179   Sp-Floor 3 Physical Therapy 1 Sys-3 Flr-2 Sch-C HPlcmt-south ZN NECB System 3 PSZ Occ Sch Friday, !- Friday Schedule:Day Name\n   *************  33180   Sp-Floor 3 Physical Therapy 1 Sys-3 Flr-2 Sch-C HPlcmt-south ZN NECB System 3 PSZ Occ Sch Saturday, !- Saturday Schedule:Day Name\n   *************  33181   Sp-Floor 3 Physical Therapy 1 Sys-3 Flr-2 Sch-C HPlcmt-south ZN NECB System 3 PSZ Occ Sch Default, !- Holiday Schedule:Day Name\n   *************  33182   Sp-Floor 3 Physical Therapy 1 Sys-3 Flr-2 Sch-C HPlcmt-south ZN NECB System 3 PSZ Occ Sch Summer Design Day, !- SummerDesignDay Schedule:Day Name\n   ** Warning ** IP: IDF line~33182 Alpha Argument length exceeds maximum, will be truncated=  Sp-Floor 3 Physical Therapy 1 Sys-3 Flr-2 Sch-C HPlcmt-south ZN NECB System 3 PSZ Occ Sch Summer Design Da\n   **   ~~~   ** Will be processed as Alpha=SP-FLOOR 3 PHYSICAL THERAPY 1 SYS-3 FLR-2 SCH-C HPLCMT-SOUTH ZN NECB SYSTEM 3 PSZ OCC SCH SUMMER DESIGN DAY\n   ************* IDF Context for following error/warning message:\n   ************* Note -- lines truncated at 300 characters, if necessary...\n   *************  33172 Schedule:Week:Daily,\n   ************* indicated Name=Schedule:Week:Daily {7eee128d-0431-4698-832a-bab45f36519c}\n   ************* Only last 10 lines before error line shown.....\n   *************  33174   Sp-Floor 3 Physical Therapy 1 Sys-3 Flr-2 Sch-C HPlcmt-south ZN NECB System 3 PSZ Occ Sch Sunday, !- Sunday Schedule:Day Name\n   *************  33175   Sp-Floor 3 Physical Therapy 1 Sys-3 Flr-2 Sch-C HPlcmt-south ZN NECB System 3 PSZ Occ Sch Monday, !- Monday Schedule:Day Name\n   *************  33176   Sp-Floor 3 Physical Therapy 1 Sys-3 Flr-2 Sch-C HPlcmt-south ZN NECB System 3 PSZ Occ Sch Tuesday, !- Tuesday Schedule:Day Name\n   *************  33177   Sp-Floor 3 Physical Therapy 1 Sys-3 Flr-2 Sch-C HPlcmt-south ZN NECB System 3 PSZ Occ Sch Wednesday, !- Wednesday Schedule:Day Name\n   *************  33178   Sp-Floor 3 Physical Therapy 1 Sys-3 Flr-2 Sch-C HPlcmt-south ZN NECB System 3 PSZ Occ Sch Thursday, !- Thursday Schedule:Day Name\n   *************  33179   Sp-Floor 3 Physical Therapy 1 Sys-3 Flr-2 Sch-C HPlcmt-south ZN NECB System 3 PSZ Occ Sch Friday, !- Friday Schedule:Day Name\n   *************  33180   Sp-Floor 3 Physical Therapy 1 Sys-3 Flr-2 Sch-C HPlcmt-south ZN NECB System 3 PSZ Occ Sch Saturday, !- Saturday Schedule:Day Name\n   *************  33181   Sp-Floor 3 Physical Therapy 1 Sys-3 Flr-2 Sch-C HPlcmt-south ZN NECB System 3 PSZ Occ Sch Default, !- Holiday Schedule:Day Name\n   *************  33182   Sp-Floor 3 Physical Therapy 1 Sys-3 Flr-2 Sch-C HPlcmt-south ZN NECB System 3 PSZ Occ Sch Summer Design Day, !- SummerDesignDay Schedule:Day Name\n   *************  33183   Sp-Floor 3 Physical Therapy 1 Sys-3 Flr-2 Sch-C HPlcmt-south ZN NECB System 3 PSZ Occ Sch Winter Design Day, !- WinterDesignDay Schedule:Day Name\n   ** Warning ** IP: IDF line~33183 Alpha Argument length exceeds maximum, will be truncated=  Sp-Floor 3 Physical Therapy 1 Sys-3 Flr-2 Sch-C HPlcmt-south ZN NECB System 3 PSZ Occ Sch Winter Design Da\n   **   ~~~   ** Will be processed as Alpha=SP-FLOOR 3 PHYSICAL THERAPY 1 SYS-3 FLR-2 SCH-C HPLCMT-SOUTH ZN NECB SYSTEM 3 PSZ OCC SCH WINTER DESIGN DAY\n   ************* IDF Context for following error/warning message:\n   ************* Note -- lines truncated at 300 characters, if necessary...\n   *************  33203 Schedule:Day:Interval,\n   ************* indicated Name=Sp-Floor 3 Physical Therapy 1 Sys-3 Flr-2 Sch-C HPlcmt-south ZN NECB System 3 PSZ Occ Sch Summer Design Day\n   ************* Only last 1 lines before error line shown.....\n   *************  33204   Sp-Floor 3 Physical Therapy 1 Sys-3 Flr-2 Sch-C HPlcmt-south ZN NECB System 3 PSZ Occ Sch Summer Design Day, !- Name\n   ** Warning ** IP: IDF line~33204 Alpha Argument length exceeds maximum, will be truncated=  Sp-Floor 3 Physical Therapy 1 Sys-3 Flr-2 Sch-C HPlcmt-south ZN NECB System 3 PSZ Occ Sch Summer Design Da\n   **   ~~~   ** Will be processed as Alpha=SP-FLOOR 3 PHYSICAL THERAPY 1 SYS-3 FLR-2 SCH-C HPLCMT-SOUTH ZN NECB SYSTEM 3 PSZ OCC SCH SUMMER DESIGN DAY\n   ************* IDF Context for following error/warning message:\n   ************* Note -- lines truncated at 300 characters, if necessary...\n   *************  33210 Schedule:Day:Interval,\n   ************* indicated Name=Sp-Floor 3 Physical Therapy 1 Sys-3 Flr-2 Sch-C HPlcmt-south ZN NECB System 3 PSZ Occ Sch Winter Design Day\n   ************* Only last 1 lines before error line shown.....\n   *************  33211   Sp-Floor 3 Physical Therapy 1 Sys-3 Flr-2 Sch-C HPlcmt-south ZN NECB System 3 PSZ Occ Sch Winter Design Day, !- Name\n   ** Warning ** IP: IDF line~33211 Alpha Argument length exceeds maximum, will be truncated=  Sp-Floor 3 Physical Therapy 1 Sys-3 Flr-2 Sch-C HPlcmt-south ZN NECB System 3 PSZ Occ Sch Winter Design Da\n   **   ~~~   ** Will be processed as Alpha=SP-FLOOR 3 PHYSICAL THERAPY 1 SYS-3 FLR-2 SCH-C HPLCMT-SOUTH ZN NECB SYSTEM 3 PSZ OCC SCH WINTER DESIGN DAY\n   ************* IDF Context for following error/warning message:\n   ************* Note -- lines truncated at 300 characters, if necessary...\n   *************  35078 Schedule:Week:Daily,\n   ************* indicated Name=Schedule:Week:Daily {56a6d658-b8a0-4b2f-8f62-44819c6213f1}\n   ************* Only last 10 lines before error line shown.....\n   *************  35079   Schedule:Week:Daily {56a6d658-b8a0-4b2f-8f62-44819c6213f1}, !- Name\n   *************  35080   Sp-Floor 3 Undeveloped 1 Sys-4 Flr-2 Sch-E HPlcmt-south ZN NECB System 4 PSZ Occ Sch Sunday, !- Sunday Schedule:Day Name\n   *************  35081   Sp-Floor 3 Undeveloped 1 Sys-4 Flr-2 Sch-E HPlcmt-south ZN NECB System 4 PSZ Occ Sch Monday, !- Monday Schedule:Day Name\n   *************  35082   Sp-Floor 3 Undeveloped 1 Sys-4 Flr-2 Sch-E HPlcmt-south ZN NECB System 4 PSZ Occ Sch Tuesday, !- Tuesday Schedule:Day Name\n   *************  35083   Sp-Floor 3 Undeveloped 1 Sys-4 Flr-2 Sch-E HPlcmt-south ZN NECB System 4 PSZ Occ Sch Wednesday, !- Wednesday Schedule:Day Name\n   *************  35084   Sp-Floor 3 Undeveloped 1 Sys-4 Flr-2 Sch-E HPlcmt-south ZN NECB System 4 PSZ Occ Sch Thursday, !- Thursday Schedule:Day Name\n   *************  35085   Sp-Floor 3 Undeveloped 1 Sys-4 Flr-2 Sch-E HPlcmt-south ZN NECB System 4 PSZ Occ Sch Friday, !- Friday Schedule:Day Name\n   *************  35086   Sp-Floor 3 Undeveloped 1 Sys-4 Flr-2 Sch-E HPlcmt-south ZN NECB System 4 PSZ Occ Sch Saturday, !- Saturday Schedule:Day Name\n   *************  35087   Sp-Floor 3 Undeveloped 1 Sys-4 Flr-2 Sch-E HPlcmt-south ZN NECB System 4 PSZ Occ Sch Default, !- Holiday Schedule:Day Name\n   *************  35088   Sp-Floor 3 Undeveloped 1 Sys-4 Flr-2 Sch-E HPlcmt-south ZN NECB System 4 PSZ Occ Sch Summer Design Day, !- SummerDesignDay Schedule:Day Name\n   ** Warning ** IP: IDF line~35088 Alpha Argument length exceeds maximum, will be truncated=  Sp-Floor 3 Undeveloped 1 Sys-4 Flr-2 Sch-E HPlcmt-south ZN NECB System 4 PSZ Occ Sch Summer Design Da\n   **   ~~~   ** Will be processed as Alpha=SP-FLOOR 3 UNDEVELOPED 1 SYS-4 FLR-2 SCH-E HPLCMT-SOUTH ZN NECB SYSTEM 4 PSZ OCC SCH SUMMER DESIGN DAY\n   ************* IDF Context for following error/warning message:\n   ************* Note -- lines truncated at 300 characters, if necessary...\n   *************  35078 Schedule:Week:Daily,\n   ************* indicated Name=Schedule:Week:Daily {56a6d658-b8a0-4b2f-8f62-44819c6213f1}\n   ************* Only last 10 lines before error line shown.....\n   *************  35080   Sp-Floor 3 Undeveloped 1 Sys-4 Flr-2 Sch-E HPlcmt-south ZN NECB System 4 PSZ Occ Sch Sunday, !- Sunday Schedule:Day Name\n   *************  35081   Sp-Floor 3 Undeveloped 1 Sys-4 Flr-2 Sch-E HPlcmt-south ZN NECB System 4 PSZ Occ Sch Monday, !- Monday Schedule:Day Name\n   *************  35082   Sp-Floor 3 Undeveloped 1 Sys-4 Flr-2 Sch-E HPlcmt-south ZN NECB System 4 PSZ Occ Sch Tuesday, !- Tuesday Schedule:Day Name\n   *************  35083   Sp-Floor 3 Undeveloped 1 Sys-4 Flr-2 Sch-E HPlcmt-south ZN NECB System 4 PSZ Occ Sch Wednesday, !- Wednesday Schedule:Day Name\n   *************  35084   Sp-Floor 3 Undeveloped 1 Sys-4 Flr-2 Sch-E HPlcmt-south ZN NECB System 4 PSZ Occ Sch Thursday, !- Thursday Schedule:Day Name\n   *************  35085   Sp-Floor 3 Undeveloped 1 Sys-4 Flr-2 Sch-E HPlcmt-south ZN NECB System 4 PSZ Occ Sch Friday, !- Friday Schedule:Day Name\n   *************  35086   Sp-Floor 3 Undeveloped 1 Sys-4 Flr-2 Sch-E HPlcmt-south ZN NECB System 4 PSZ Occ Sch Saturday, !- Saturday Schedule:Day Name\n   *************  35087   Sp-Floor 3 Undeveloped 1 Sys-4 Flr-2 Sch-E HPlcmt-south ZN NECB System 4 PSZ Occ Sch Default, !- Holiday Schedule:Day Name\n   *************  35088   Sp-Floor 3 Undeveloped 1 Sys-4 Flr-2 Sch-E HPlcmt-south ZN NECB System 4 PSZ Occ Sch Summer Design Day, !- SummerDesignDay Schedule:Day Name\n   *************  35089   Sp-Floor 3 Undeveloped 1 Sys-4 Flr-2 Sch-E HPlcmt-south ZN NECB System 4 PSZ Occ Sch Winter Design Day, !- WinterDesignDay Schedule:Day Name\n   ** Warning ** IP: IDF line~35089 Alpha Argument length exceeds maximum, will be truncated=  Sp-Floor 3 Undeveloped 1 Sys-4 Flr-2 Sch-E HPlcmt-south ZN NECB System 4 PSZ Occ Sch Winter Design Da\n   **   ~~~   ** Will be processed as Alpha=SP-FLOOR 3 UNDEVELOPED 1 SYS-4 FLR-2 SCH-E HPLCMT-SOUTH ZN NECB SYSTEM 4 PSZ OCC SCH WINTER DESIGN DAY\n   ************* IDF Context for following error/warning message:\n   ************* Note -- lines truncated at 300 characters, if necessary...\n   *************  35109 Schedule:Day:Interval,\n   ************* indicated Name=Sp-Floor 3 Undeveloped 1 Sys-4 Flr-2 Sch-E HPlcmt-south ZN NECB System 4 PSZ Occ Sch Summer Design Day\n   ************* Only last 1 lines before error line shown.....\n   *************  35110   Sp-Floor 3 Undeveloped 1 Sys-4 Flr-2 Sch-E HPlcmt-south ZN NECB System 4 PSZ Occ Sch Summer Design Day, !- Name\n   ** Warning ** IP: IDF line~35110 Alpha Argument length exceeds maximum, will be truncated=  Sp-Floor 3 Undeveloped 1 Sys-4 Flr-2 Sch-E HPlcmt-south ZN NECB System 4 PSZ Occ Sch Summer Design Da\n   **   ~~~   ** Will be processed as Alpha=SP-FLOOR 3 UNDEVELOPED 1 SYS-4 FLR-2 SCH-E HPLCMT-SOUTH ZN NECB SYSTEM 4 PSZ OCC SCH SUMMER DESIGN DAY\n   ************* IDF Context for following error/warning message:\n   ************* Note -- lines truncated at 300 characters, if necessary...\n   *************  35116 Schedule:Day:Interval,\n   ************* indicated Name=Sp-Floor 3 Undeveloped 1 Sys-4 Flr-2 Sch-E HPlcmt-south ZN NECB System 4 PSZ Occ Sch Winter Design Day\n   ************* Only last 1 lines before error line shown.....\n   *************  35117   Sp-Floor 3 Undeveloped 1 Sys-4 Flr-2 Sch-E HPlcmt-south ZN NECB System 4 PSZ Occ Sch Winter Design Day, !- Name\n   ** Warning ** IP: IDF line~35117 Alpha Argument length exceeds maximum, will be truncated=  Sp-Floor 3 Undeveloped 1 Sys-4 Flr-2 Sch-E HPlcmt-south ZN NECB System 4 PSZ Occ Sch Winter Design Da\n   **   ~~~   ** Will be processed as Alpha=SP-FLOOR 3 UNDEVELOPED 1 SYS-4 FLR-2 SCH-E HPLCMT-SOUTH ZN NECB SYSTEM 4 PSZ OCC SCH WINTER DESIGN DAY\n   ************* IDF Context for following error/warning message:\n   ************* Note -- lines truncated at 300 characters, if necessary...\n   *************  49768 AirLoopHVAC,\n   ************* indicated Name=Sp-Floor 1 Electrical Room Sys-4 Flr-3 Sch-H HPlcmt-east ZN NECB System 4 PSZ\n   ************* Only last 3 lines before error line shown.....\n   *************  49769   Sp-Floor 1 Electrical Room Sys-4 Flr-3 Sch-H HPlcmt-east ZN NECB System 4 PSZ, !- Name\n   *************  49770   ,                                       !- Controller List Name\n   *************  49771   Sp-Floor 1 Electrical Room Sys-4 Flr-3 Sch-H HPlcmt-east ZN NECB System 4 PSZAvailability Manager List, !- Availability Manager List Name\n   ** Warning ** IP: IDF line~49771 Alpha Argument length exceeds maximum, will be truncated=  Sp-Floor 1 Electrical Room Sys-4 Flr-3 Sch-H HPlcmt-east ZN NECB System 4 PSZAvailability Manager Lis\n   **   ~~~   ** Will be processed as Alpha=SP-FLOOR 1 ELECTRICAL ROOM SYS-4 FLR-3 SCH-H HPLCMT-EAST ZN NECB SYSTEM 4 PSZAVAILABILITY MANAGER LIST\n   ************* IDF Context for following error/warning message:\n   ************* Note -- lines truncated at 300 characters, if necessary...\n   *************  49827 AvailabilityManagerAssignmentList,\n   ************* indicated Name=Sp-Floor 1 Electrical Room Sys-4 Flr-3 Sch-H HPlcmt-east ZN NECB System 4 PSZAvailability Manager List\n   ************* Only last 1 lines before error line shown.....\n   *************  49828   Sp-Floor 1 Electrical Room Sys-4 Flr-3 Sch-H HPlcmt-east ZN NECB System 4 PSZAvailability Manager List, !- Name\n   ** Warning ** IP: IDF line~49828 Alpha Argument length exceeds maximum, will be truncated=  Sp-Floor 1 Electrical Room Sys-4 Flr-3 Sch-H HPlcmt-east ZN NECB System 4 PSZAvailability Manager Lis\n   **   ~~~   ** Will be processed as Alpha=SP-FLOOR 1 ELECTRICAL ROOM SYS-4 FLR-3 SCH-H HPLCMT-EAST ZN NECB SYSTEM 4 PSZAVAILABILITY MANAGER LIST\n   ************* IDF Context for following error/warning message:\n   ************* Note -- lines truncated at 300 characters, if necessary...\n   *************  50090 AirLoopHVAC,\n   ************* indicated Name=Sp-Floor 1 Elevator Pump Room Sys-3 Flr-3 Sch-H HPlcmt-north ZN NECB System 3 PSZ\n   ************* Only last 3 lines before error line shown.....\n   *************  50091   Sp-Floor 1 Elevator Pump Room Sys-3 Flr-3 Sch-H HPlcmt-north ZN NECB System 3 PSZ, !- Name\n   *************  50092   ,                                       !- Controller List Name\n   *************  50093   Sp-Floor 1 Elevator Pump Room Sys-3 Flr-3 Sch-H HPlcmt-north ZN NECB System 3 PSZAvailability Manager List, !- Availability Manager List Name\n   ** Warning ** IP: IDF line~50093 Alpha Argument length exceeds maximum, will be truncated=  Sp-Floor 1 Elevator Pump Room Sys-3 Flr-3 Sch-H HPlcmt-north ZN NECB System 3 PSZAvailability Manager Lis\n   **   ~~~   ** Will be processed as Alpha=SP-FLOOR 1 ELEVATOR PUMP ROOM SYS-3 FLR-3 SCH-H HPLCMT-NORTH ZN NECB SYSTEM 3 PSZAVAILABILITY MANAGER LIST\n   ************* IDF Context for following error/warning message:\n   ************* Note -- lines truncated at 300 characters, if necessary...\n   *************  50090 AirLoopHVAC,\n   ************* indicated Name=Sp-Floor 1 Elevator Pump Room Sys-3 Flr-3 Sch-H HPlcmt-north ZN NECB System 3 PSZ\n   ************* Only last 10 lines before error line shown.....\n   *************  50091   Sp-Floor 1 Elevator Pump Room Sys-3 Flr-3 Sch-H HPlcmt-north ZN NECB System 3 PSZ, !- Name\n   *************  50092   ,                                       !- Controller List Name\n   *************  50093   Sp-Floor 1 Elevator Pump Room Sys-3 Flr-3 Sch-H HPlcmt-north ZN NECB System 3 PSZAvailability Manager List, !- Availability Manager List Name\n   *************  50094   AutoSize,                               !- Design Supply Air Flow Rate {m3/s}\n   *************  50095   Sp-Floor 1 Elevator Pump Room Sys-3 Flr-3 Sch-H HPlcmt-north ZN NECB System 3 PSZ Supply Branches, !- Branch List Name\n   *************  50096   ,                                       !- Connector List Name\n   *************  50097   Node 592,                               !- Supply Side Inlet Node Name\n   *************  50098   Node 595,                               !- Demand Side Outlet Node Name\n   *************  50099   Sp-Floor 1 Elevator Pump Room Sys-3 Flr-3 Sch-H HPlcmt-north ZN NECB System 3 PSZ Demand Inlet Nodes, !- Demand Side Inlet Node Names\n   *************  50100   Sp-Floor 1 Elevator Pump Room Sys-3 Flr-3 Sch-H HPlcmt-north ZN NECB System 3 PSZ Supply Outlet Nodes; !- Supply Side Outlet Node Names\n   ** Warning ** IP: IDF line~50100 Alpha Argument length exceeds maximum, will be truncated=  Sp-Floor 1 Elevator Pump Room Sys-3 Flr-3 Sch-H HPlcmt-north ZN NECB System 3 PSZ Supply Outlet Node\n   **   ~~~   ** Will be processed as Alpha=SP-FLOOR 1 ELEVATOR PUMP ROOM SYS-3 FLR-3 SCH-H HPLCMT-NORTH ZN NECB SYSTEM 3 PSZ SUPPLY OUTLET NODES\n   ************* IDF Context for following error/warning message:\n   ************* Note -- lines truncated at 300 characters, if necessary...\n   *************  50102 NodeList,\n   ************* indicated Name=Sp-Floor 1 Elevator Pump Room Sys-3 Flr-3 Sch-H HPlcmt-north ZN NECB System 3 PSZ Supply Outlet Nodes\n   ************* Only last 1 lines before error line shown.....\n   *************  50103   Sp-Floor 1 Elevator Pump Room Sys-3 Flr-3 Sch-H HPlcmt-north ZN NECB System 3 PSZ Supply Outlet Nodes, !- Name\n   ** Warning ** IP: IDF line~50103 Alpha Argument length exceeds maximum, will be truncated=  Sp-Floor 1 Elevator Pump Room Sys-3 Flr-3 Sch-H HPlcmt-north ZN NECB System 3 PSZ Supply Outlet Node\n   **   ~~~   ** Will be processed as Alpha=SP-FLOOR 1 ELEVATOR PUMP ROOM SYS-3 FLR-3 SCH-H HPLCMT-NORTH ZN NECB SYSTEM 3 PSZ SUPPLY OUTLET NODES\n   ************* IDF Context for following error/warning message:\n   ************* Note -- lines truncated at 300 characters, if necessary...\n   *************  50149 AvailabilityManagerAssignmentList,\n   ************* indicated Name=Sp-Floor 1 Elevator Pump Room Sys-3 Flr-3 Sch-H HPlcmt-north ZN NECB System 3 PSZAvailability Manager List\n   ************* Only last 1 lines before error line shown.....\n   *************  50150   Sp-Floor 1 Elevator Pump Room Sys-3 Flr-3 Sch-H HPlcmt-north ZN NECB System 3 PSZAvailability Manager List, !- Name\n   ** Warning ** IP: IDF line~50150 Alpha Argument length exceeds maximum, will be truncated=  Sp-Floor 1 Elevator Pump Room Sys-3 Flr-3 Sch-H HPlcmt-north ZN NECB System 3 PSZAvailability Manager Lis\n   **   ~~~   ** Will be processed as Alpha=SP-FLOOR 1 ELEVATOR PUMP ROOM SYS-3 FLR-3 SCH-H HPLCMT-NORTH ZN NECB SYSTEM 3 PSZAVAILABILITY MANAGER LIST\n   ************* IDF Context for following error/warning message:\n   ************* Note -- lines truncated at 300 characters, if necessary...\n   *************  50149 AvailabilityManagerAssignmentList,\n   ************* indicated Name=Sp-Floor 1 Elevator Pump Room Sys-3 Flr-3 Sch-H HPlcmt-north ZN NECB System 3 PSZAvailability Manager List\n   ************* Only last 3 lines before error line shown.....\n   *************  50150   Sp-Floor 1 Elevator Pump Room Sys-3 Flr-3 Sch-H HPlcmt-north ZN NECB System 3 PSZAvailability Manager List, !- Name\n   *************  50151   AvailabilityManager:Scheduled,          !- Availability Manager Object Type 1\n   *************  50152   Sp-Floor 1 Elevator Pump Room Sys-3 Flr-3 Sch-H HPlcmt-north ZN NECB System 3 PSZ Availability Manager; !- Availability Manager Name 1\n   ** Warning ** IP: IDF line~50152 Alpha Argument length exceeds maximum, will be truncated=  Sp-Floor 1 Elevator Pump Room Sys-3 Flr-3 Sch-H HPlcmt-north ZN NECB System 3 PSZ Availability Manage\n   **   ~~~   ** Will be processed as Alpha=SP-FLOOR 1 ELEVATOR PUMP ROOM SYS-3 FLR-3 SCH-H HPLCMT-NORTH ZN NECB SYSTEM 3 PSZ AVAILABILITY MANAGER\n   ************* IDF Context for following error/warning message:\n   ************* Note -- lines truncated at 300 characters, if necessary...\n   *************  50154 AvailabilityManager:Scheduled,\n   ************* indicated Name=Sp-Floor 1 Elevator Pump Room Sys-3 Flr-3 Sch-H HPlcmt-north ZN NECB System 3 PSZ Availability Manager\n   ************* Only last 1 lines before error line shown.....\n   *************  50155   Sp-Floor 1 Elevator Pump Room Sys-3 Flr-3 Sch-H HPlcmt-north ZN NECB System 3 PSZ Availability Manager, !- Name\n   ** Warning ** IP: IDF line~50155 Alpha Argument length exceeds maximum, will be truncated=  Sp-Floor 1 Elevator Pump Room Sys-3 Flr-3 Sch-H HPlcmt-north ZN NECB System 3 PSZ Availability Manage\n   **   ~~~   ** Will be processed as Alpha=SP-FLOOR 1 ELEVATOR PUMP ROOM SYS-3 FLR-3 SCH-H HPLCMT-NORTH ZN NECB SYSTEM 3 PSZ AVAILABILITY MANAGER\n   ************* IDF Context for following error/warning message:\n   ************* Note -- lines truncated at 300 characters, if necessary...\n   *************  50390 AirLoopHVAC:SupplyPath,\n   ************* indicated Name=Sp-Floor 1 Elevator Pump Room Sys-3 Flr-3 Sch-H HPlcmt-north ZN NECB System 3 PSZ Node 594 Supply Path\n   ************* Only last 1 lines before error line shown.....\n   *************  50391   Sp-Floor 1 Elevator Pump Room Sys-3 Flr-3 Sch-H HPlcmt-north ZN NECB System 3 PSZ Node 594 Supply Path, !- Name\n   ** Warning ** IP: IDF line~50391 Alpha Argument length exceeds maximum, will be truncated=  Sp-Floor 1 Elevator Pump Room Sys-3 Flr-3 Sch-H HPlcmt-north ZN NECB System 3 PSZ Node 594 Supply Pat\n   **   ~~~   ** Will be processed as Alpha=SP-FLOOR 1 ELEVATOR PUMP ROOM SYS-3 FLR-3 SCH-H HPLCMT-NORTH ZN NECB SYSTEM 3 PSZ NODE 594 SUPPLY PATH\n   ************* IDF Context for following error/warning message:\n   ************* Note -- lines truncated at 300 characters, if necessary...\n   *************  51700 AirLoopHVAC,\n   ************* indicated Name=Sp-Floor 1 Locker Room Hall Sys-4 Flr-3 Sch-H HPlcmt-core ZN NECB System 4 PSZ\n   ************* Only last 3 lines before error line shown.....\n   *************  51701   Sp-Floor 1 Locker Room Hall Sys-4 Flr-3 Sch-H HPlcmt-core ZN NECB System 4 PSZ, !- Name\n   *************  51702   ,                                       !- Controller List Name\n   *************  51703   Sp-Floor 1 Locker Room Hall Sys-4 Flr-3 Sch-H HPlcmt-core ZN NECB System 4 PSZAvailability Manager List, !- Availability Manager List Name\n   ** Warning ** IP: IDF line~51703 Alpha Argument length exceeds maximum, will be truncated=  Sp-Floor 1 Locker Room Hall Sys-4 Flr-3 Sch-H HPlcmt-core ZN NECB System 4 PSZAvailability Manager Lis\n   **   ~~~   ** Will be processed as Alpha=SP-FLOOR 1 LOCKER ROOM HALL SYS-4 FLR-3 SCH-H HPLCMT-CORE ZN NECB SYSTEM 4 PSZAVAILABILITY MANAGER LIST\n   ************* IDF Context for following error/warning message:\n   ************* Note -- lines truncated at 300 characters, if necessary...\n   *************  51759 AvailabilityManagerAssignmentList,\n   ************* indicated Name=Sp-Floor 1 Locker Room Hall Sys-4 Flr-3 Sch-H HPlcmt-core ZN NECB System 4 PSZAvailability Manager List\n   ************* Only last 1 lines before error line shown.....\n   *************  51760   Sp-Floor 1 Locker Room Hall Sys-4 Flr-3 Sch-H HPlcmt-core ZN NECB System 4 PSZAvailability Manager List, !- Name\n   ** Warning ** IP: IDF line~51760 Alpha Argument length exceeds maximum, will be truncated=  Sp-Floor 1 Locker Room Hall Sys-4 Flr-3 Sch-H HPlcmt-core ZN NECB System 4 PSZAvailability Manager Lis\n   **   ~~~   ** Will be processed as Alpha=SP-FLOOR 1 LOCKER ROOM HALL SYS-4 FLR-3 SCH-H HPLCMT-CORE ZN NECB SYSTEM 4 PSZAVAILABILITY MANAGER LIST\n   ************* IDF Context for following error/warning message:\n   ************* Note -- lines truncated at 300 characters, if necessary...\n   *************  52666 AirLoopHVAC,\n   ************* indicated Name=Sp-Floor 1 MRI Control Room Sys-3 Flr-3 Sch-H HPlcmt-north ZN NECB System 3 PSZ\n   ************* Only last 3 lines before error line shown.....\n   *************  52667   Sp-Floor 1 MRI Control Room Sys-3 Flr-3 Sch-H HPlcmt-north ZN NECB System 3 PSZ, !- Name\n   *************  52668   ,                                       !- Controller List Name\n   *************  52669   Sp-Floor 1 MRI Control Room Sys-3 Flr-3 Sch-H HPlcmt-north ZN NECB System 3 PSZAvailability Manager List, !- Availability Manager List Name\n   ** Warning ** IP: IDF line~52669 Alpha Argument length exceeds maximum, will be truncated=  Sp-Floor 1 MRI Control Room Sys-3 Flr-3 Sch-H HPlcmt-north ZN NECB System 3 PSZAvailability Manager Lis\n   **   ~~~   ** Will be processed as Alpha=SP-FLOOR 1 MRI CONTROL ROOM SYS-3 FLR-3 SCH-H HPLCMT-NORTH ZN NECB SYSTEM 3 PSZAVAILABILITY MANAGER LIST\n   ************* IDF Context for following error/warning message:\n   ************* Note -- lines truncated at 300 characters, if necessary...\n   *************  52725 AvailabilityManagerAssignmentList,\n   ************* indicated Name=Sp-Floor 1 MRI Control Room Sys-3 Flr-3 Sch-H HPlcmt-north ZN NECB System 3 PSZAvailability Manager List\n   ************* Only last 1 lines before error line shown.....\n   *************  52726   Sp-Floor 1 MRI Control Room Sys-3 Flr-3 Sch-H HPlcmt-north ZN NECB System 3 PSZAvailability Manager List, !- Name\n   ** Warning ** IP: IDF line~52726 Alpha Argument length exceeds maximum, will be truncated=  Sp-Floor 1 MRI Control Room Sys-3 Flr-3 Sch-H HPlcmt-north ZN NECB System 3 PSZAvailability Manager Lis\n   **   ~~~   ** Will be processed as Alpha=SP-FLOOR 1 MRI CONTROL ROOM SYS-3 FLR-3 SCH-H HPLCMT-NORTH ZN NECB SYSTEM 3 PSZAVAILABILITY MANAGER LIST\n   ************* IDF Context for following error/warning message:\n   ************* Note -- lines truncated at 300 characters, if necessary...\n   *************  55242 AirLoopHVAC,\n   ************* indicated Name=Sp-Floor 1 Operating Room 1 Sys-3 Flr-3 Sch-H HPlcmt-east ZN NECB System 3 PSZ\n   ************* Only last 3 lines before error line shown.....\n   *************  55243   Sp-Floor 1 Operating Room 1 Sys-3 Flr-3 Sch-H HPlcmt-east ZN NECB System 3 PSZ, !- Name\n   *************  55244   ,                                       !- Controller List Name\n   *************  55245   Sp-Floor 1 Operating Room 1 Sys-3 Flr-3 Sch-H HPlcmt-east ZN NECB System 3 PSZAvailability Manager List, !- Availability Manager List Name\n   ** Warning ** IP: IDF line~55245 Alpha Argument length exceeds maximum, will be truncated=  Sp-Floor 1 Operating Room 1 Sys-3 Flr-3 Sch-H HPlcmt-east ZN NECB System 3 PSZAvailability Manager Lis\n   **   ~~~   ** Will be processed as Alpha=SP-FLOOR 1 OPERATING ROOM 1 SYS-3 FLR-3 SCH-H HPLCMT-EAST ZN NECB SYSTEM 3 PSZAVAILABILITY MANAGER LIST\n   ************* IDF Context for following error/warning message:\n   ************* Note -- lines truncated at 300 characters, if necessary...\n   *************  55301 AvailabilityManagerAssignmentList,\n   ************* indicated Name=Sp-Floor 1 Operating Room 1 Sys-3 Flr-3 Sch-H HPlcmt-east ZN NECB System 3 PSZAvailability Manager List\n   ************* Only last 1 lines before error line shown.....\n   *************  55302   Sp-Floor 1 Operating Room 1 Sys-3 Flr-3 Sch-H HPlcmt-east ZN NECB System 3 PSZAvailability Manager List, !- Name\n   ** Warning ** IP: IDF line~55302 Alpha Argument length exceeds maximum, will be truncated=  Sp-Floor 1 Operating Room 1 Sys-3 Flr-3 Sch-H HPlcmt-east ZN NECB System 3 PSZAvailability Manager Lis\n   **   ~~~   ** Will be processed as Alpha=SP-FLOOR 1 OPERATING ROOM 1 SYS-3 FLR-3 SCH-H HPLCMT-EAST ZN NECB SYSTEM 3 PSZAVAILABILITY MANAGER LIST\n   ************* IDF Context for following error/warning message:\n   ************* Note -- lines truncated at 300 characters, if necessary...\n   *************  55564 AirLoopHVAC,\n   ************* indicated Name=Sp-Floor 1 Operating Room 2 Sys-3 Flr-3 Sch-H HPlcmt-east ZN NECB System 3 PSZ\n   ************* Only last 3 lines before error line shown.....\n   *************  55565   Sp-Floor 1 Operating Room 2 Sys-3 Flr-3 Sch-H HPlcmt-east ZN NECB System 3 PSZ, !- Name\n   *************  55566   ,                                       !- Controller List Name\n   *************  55567   Sp-Floor 1 Operating Room 2 Sys-3 Flr-3 Sch-H HPlcmt-east ZN NECB System 3 PSZAvailability Manager List, !- Availability Manager List Name\n   ** Warning ** IP: IDF line~55567 Alpha Argument length exceeds maximum, will be truncated=  Sp-Floor 1 Operating Room 2 Sys-3 Flr-3 Sch-H HPlcmt-east ZN NECB System 3 PSZAvailability Manager Lis\n   **   ~~~   ** Will be processed as Alpha=SP-FLOOR 1 OPERATING ROOM 2 SYS-3 FLR-3 SCH-H HPLCMT-EAST ZN NECB SYSTEM 3 PSZAVAILABILITY MANAGER LIST\n   ************* IDF Context for following error/warning message:\n   ************* Note -- lines truncated at 300 characters, if necessary...\n   *************  55623 AvailabilityManagerAssignmentList,\n   ************* indicated Name=Sp-Floor 1 Operating Room 2 Sys-3 Flr-3 Sch-H HPlcmt-east ZN NECB System 3 PSZAvailability Manager List\n   ************* Only last 1 lines before error line shown.....\n   *************  55624   Sp-Floor 1 Operating Room 2 Sys-3 Flr-3 Sch-H HPlcmt-east ZN NECB System 3 PSZAvailability Manager List, !- Name\n   ** Warning ** IP: IDF line~55624 Alpha Argument length exceeds maximum, will be truncated=  Sp-Floor 1 Operating Room 2 Sys-3 Flr-3 Sch-H HPlcmt-east ZN NECB System 3 PSZAvailability Manager Lis\n   **   ~~~   ** Will be processed as Alpha=SP-FLOOR 1 OPERATING ROOM 2 SYS-3 FLR-3 SCH-H HPLCMT-EAST ZN NECB SYSTEM 3 PSZAVAILABILITY MANAGER LIST\n   ************* IDF Context for following error/warning message:\n   ************* Note -- lines truncated at 300 characters, if necessary...\n   *************  55886 AirLoopHVAC,\n   ************* indicated Name=Sp-Floor 1 Operating Room 3 Sys-3 Flr-3 Sch-H HPlcmt-core ZN NECB System 3 PSZ\n   ************* Only last 3 lines before error line shown.....\n   *************  55887   Sp-Floor 1 Operating Room 3 Sys-3 Flr-3 Sch-H HPlcmt-core ZN NECB System 3 PSZ, !- Name\n   *************  55888   ,                                       !- Controller List Name\n   *************  55889   Sp-Floor 1 Operating Room 3 Sys-3 Flr-3 Sch-H HPlcmt-core ZN NECB System 3 PSZAvailability Manager List, !- Availability Manager List Name\n   ** Warning ** IP: IDF line~55889 Alpha Argument length exceeds maximum, will be truncated=  Sp-Floor 1 Operating Room 3 Sys-3 Flr-3 Sch-H HPlcmt-core ZN NECB System 3 PSZAvailability Manager Lis\n   **   ~~~   ** Will be processed as Alpha=SP-FLOOR 1 OPERATING ROOM 3 SYS-3 FLR-3 SCH-H HPLCMT-CORE ZN NECB SYSTEM 3 PSZAVAILABILITY MANAGER LIST\n   ************* IDF Context for following error/warning message:\n   ************* Note -- lines truncated at 300 characters, if necessary...\n   *************  55945 AvailabilityManagerAssignmentList,\n   ************* indicated Name=Sp-Floor 1 Operating Room 3 Sys-3 Flr-3 Sch-H HPlcmt-core ZN NECB System 3 PSZAvailability Manager List\n   ************* Only last 1 lines before error line shown.....\n   *************  55946   Sp-Floor 1 Operating Room 3 Sys-3 Flr-3 Sch-H HPlcmt-core ZN NECB System 3 PSZAvailability Manager List, !- Name\n   ** Warning ** IP: IDF line~55946 Alpha Argument length exceeds maximum, will be truncated=  Sp-Floor 1 Operating Room 3 Sys-3 Flr-3 Sch-H HPlcmt-core ZN NECB System 3 PSZAvailability Manager Lis\n   **   ~~~   ** Will be processed as Alpha=SP-FLOOR 1 OPERATING ROOM 3 SYS-3 FLR-3 SCH-H HPLCMT-CORE ZN NECB SYSTEM 3 PSZAVAILABILITY MANAGER LIST\n   ************* IDF Context for following error/warning message:\n   ************* Note -- lines truncated at 300 characters, if necessary...\n   *************  57496 AirLoopHVAC,\n   ************* indicated Name=Sp-Floor 1 Procedure Room Sys-3 Flr-3 Sch-H HPlcmt-north ZN NECB System 3 PSZ\n   ************* Only last 3 lines before error line shown.....\n   *************  57497   Sp-Floor 1 Procedure Room Sys-3 Flr-3 Sch-H HPlcmt-north ZN NECB System 3 PSZ, !- Name\n   *************  57498   ,                                       !- Controller List Name\n   *************  57499   Sp-Floor 1 Procedure Room Sys-3 Flr-3 Sch-H HPlcmt-north ZN NECB System 3 PSZAvailability Manager List, !- Availability Manager List Name\n   ** Warning ** IP: IDF line~57499 Alpha Argument length exceeds maximum, will be truncated=  Sp-Floor 1 Procedure Room Sys-3 Flr-3 Sch-H HPlcmt-north ZN NECB System 3 PSZAvailability Manager Lis\n   **   ~~~   ** Will be processed as Alpha=SP-FLOOR 1 PROCEDURE ROOM SYS-3 FLR-3 SCH-H HPLCMT-NORTH ZN NECB SYSTEM 3 PSZAVAILABILITY MANAGER LIST\n   ************* IDF Context for following error/warning message:\n   ************* Note -- lines truncated at 300 characters, if necessary...\n   *************  57555 AvailabilityManagerAssignmentList,\n   ************* indicated Name=Sp-Floor 1 Procedure Room Sys-3 Flr-3 Sch-H HPlcmt-north ZN NECB System 3 PSZAvailability Manager List\n   ************* Only last 1 lines before error line shown.....\n   *************  57556   Sp-Floor 1 Procedure Room Sys-3 Flr-3 Sch-H HPlcmt-north ZN NECB System 3 PSZAvailability Manager List, !- Name\n   ** Warning ** IP: IDF line~57556 Alpha Argument length exceeds maximum, will be truncated=  Sp-Floor 1 Procedure Room Sys-3 Flr-3 Sch-H HPlcmt-north ZN NECB System 3 PSZAvailability Manager Lis\n   **   ~~~   ** Will be processed as Alpha=SP-FLOOR 1 PROCEDURE ROOM SYS-3 FLR-3 SCH-H HPLCMT-NORTH ZN NECB SYSTEM 3 PSZAVAILABILITY MANAGER LIST\n   ************* IDF Context for following error/warning message:\n   ************* Note -- lines truncated at 300 characters, if necessary...\n   *************  58140 AirLoopHVAC,\n   ************* indicated Name=Sp-Floor 1 Recovery Room Sys-3 Flr-3 Sch-H HPlcmt-south ZN NECB System 3 PSZ\n   ************* Only last 3 lines before error line shown.....\n   *************  58141   Sp-Floor 1 Recovery Room Sys-3 Flr-3 Sch-H HPlcmt-south ZN NECB System 3 PSZ, !- Name\n   *************  58142   ,                                       !- Controller List Name\n   *************  58143   Sp-Floor 1 Recovery Room Sys-3 Flr-3 Sch-H HPlcmt-south ZN NECB System 3 PSZAvailability Manager List, !- Availability Manager List Name\n   ** Warning ** IP: IDF line~58143 Alpha Argument length exceeds maximum, will be truncated=  Sp-Floor 1 Recovery Room Sys-3 Flr-3 Sch-H HPlcmt-south ZN NECB System 3 PSZAvailability Manager Lis\n   **   ~~~   ** Will be processed as Alpha=SP-FLOOR 1 RECOVERY ROOM SYS-3 FLR-3 SCH-H HPLCMT-SOUTH ZN NECB SYSTEM 3 PSZAVAILABILITY MANAGER LIST\n   ************* IDF Context for following error/warning message:\n   ************* Note -- lines truncated at 300 characters, if necessary...\n   *************  58199 AvailabilityManagerAssignmentList,\n   ************* indicated Name=Sp-Floor 1 Recovery Room Sys-3 Flr-3 Sch-H HPlcmt-south ZN NECB System 3 PSZAvailability Manager List\n   ************* Only last 1 lines before error line shown.....\n   *************  58200   Sp-Floor 1 Recovery Room Sys-3 Flr-3 Sch-H HPlcmt-south ZN NECB System 3 PSZAvailability Manager List, !- Name\n   ** Warning ** IP: IDF line~58200 Alpha Argument length exceeds maximum, will be truncated=  Sp-Floor 1 Recovery Room Sys-3 Flr-3 Sch-H HPlcmt-south ZN NECB System 3 PSZAvailability Manager Lis\n   **   ~~~   ** Will be processed as Alpha=SP-FLOOR 1 RECOVERY ROOM SYS-3 FLR-3 SCH-H HPLCMT-SOUTH ZN NECB SYSTEM 3 PSZAVAILABILITY MANAGER LIST\n   ************* IDF Context for following error/warning message:\n   ************* Note -- lines truncated at 300 characters, if necessary...\n   *************  60394 AirLoopHVAC,\n   ************* indicated Name=Sp-Floor 1 Sterile Storage Sys-4 Flr-3 Sch-E HPlcmt-core ZN NECB System 4 PSZ\n   ************* Only last 3 lines before error line shown.....\n   *************  60395   Sp-Floor 1 Sterile Storage Sys-4 Flr-3 Sch-E HPlcmt-core ZN NECB System 4 PSZ, !- Name\n   *************  60396   ,                                       !- Controller List Name\n   *************  60397   Sp-Floor 1 Sterile Storage Sys-4 Flr-3 Sch-E HPlcmt-core ZN NECB System 4 PSZAvailability Manager List, !- Availability Manager List Name\n   ** Warning ** IP: IDF line~60397 Alpha Argument length exceeds maximum, will be truncated=  Sp-Floor 1 Sterile Storage Sys-4 Flr-3 Sch-E HPlcmt-core ZN NECB System 4 PSZAvailability Manager Lis\n   **   ~~~   ** Will be processed as Alpha=SP-FLOOR 1 STERILE STORAGE SYS-4 FLR-3 SCH-E HPLCMT-CORE ZN NECB SYSTEM 4 PSZAVAILABILITY MANAGER LIST\n   ************* IDF Context for following error/warning message:\n   ************* Note -- lines truncated at 300 characters, if necessary...\n   *************  60453 AvailabilityManagerAssignmentList,\n   ************* indicated Name=Sp-Floor 1 Sterile Storage Sys-4 Flr-3 Sch-E HPlcmt-core ZN NECB System 4 PSZAvailability Manager List\n   ************* Only last 1 lines before error line shown.....\n   *************  60454   Sp-Floor 1 Sterile Storage Sys-4 Flr-3 Sch-E HPlcmt-core ZN NECB System 4 PSZAvailability Manager List, !- Name\n   ** Warning ** IP: IDF line~60454 Alpha Argument length exceeds maximum, will be truncated=  Sp-Floor 1 Sterile Storage Sys-4 Flr-3 Sch-E HPlcmt-core ZN NECB System 4 PSZAvailability Manager Lis\n   **   ~~~   ** Will be processed as Alpha=SP-FLOOR 1 STERILE STORAGE SYS-4 FLR-3 SCH-E HPLCMT-CORE ZN NECB SYSTEM 4 PSZAVAILABILITY MANAGER LIST\n   ************* IDF Context for following error/warning message:\n   ************* Note -- lines truncated at 300 characters, if necessary...\n   *************  61682 AirLoopHVAC,\n   ************* indicated Name=Sp-Floor 1 Utility Janitor Sys-4 Flr-3 Sch-E HPlcmt-core ZN NECB System 4 PSZ\n   ************* Only last 3 lines before error line shown.....\n   *************  61683   Sp-Floor 1 Utility Janitor Sys-4 Flr-3 Sch-E HPlcmt-core ZN NECB System 4 PSZ, !- Name\n   *************  61684   ,                                       !- Controller List Name\n   *************  61685   Sp-Floor 1 Utility Janitor Sys-4 Flr-3 Sch-E HPlcmt-core ZN NECB System 4 PSZAvailability Manager List, !- Availability Manager List Name\n   ** Warning ** IP: IDF line~61685 Alpha Argument length exceeds maximum, will be truncated=  Sp-Floor 1 Utility Janitor Sys-4 Flr-3 Sch-E HPlcmt-core ZN NECB System 4 PSZAvailability Manager Lis\n   **   ~~~   ** Will be processed as Alpha=SP-FLOOR 1 UTILITY JANITOR SYS-4 FLR-3 SCH-E HPLCMT-CORE ZN NECB SYSTEM 4 PSZAVAILABILITY MANAGER LIST\n   ************* IDF Context for following error/warning message:\n   ************* Note -- lines truncated at 300 characters, if necessary...\n   *************  61741 AvailabilityManagerAssignmentList,\n   ************* indicated Name=Sp-Floor 1 Utility Janitor Sys-4 Flr-3 Sch-E HPlcmt-core ZN NECB System 4 PSZAvailability Manager List\n   ************* Only last 1 lines before error line shown.....\n   *************  61742   Sp-Floor 1 Utility Janitor Sys-4 Flr-3 Sch-E HPlcmt-core ZN NECB System 4 PSZAvailability Manager List, !- Name\n   ** Warning ** IP: IDF line~61742 Alpha Argument length exceeds maximum, will be truncated=  Sp-Floor 1 Utility Janitor Sys-4 Flr-3 Sch-E HPlcmt-core ZN NECB System 4 PSZAvailability Manager Lis\n   **   ~~~   ** Will be processed as Alpha=SP-FLOOR 1 UTILITY JANITOR SYS-4 FLR-3 SCH-E HPLCMT-CORE ZN NECB SYSTEM 4 PSZAVAILABILITY MANAGER LIST\n   ************* IDF Context for following error/warning message:\n   ************* Note -- lines truncated at 300 characters, if necessary...\n   *************  62970 AirLoopHVAC,\n   ************* indicated Name=Sp-Floor 2 Conference Toilet Sys-3 Flr-1 Sch-H HPlcmt-core ZN NECB System 3 PSZ\n   ************* Only last 3 lines before error line shown.....\n   *************  62971   Sp-Floor 2 Conference Toilet Sys-3 Flr-1 Sch-H HPlcmt-core ZN NECB System 3 PSZ, !- Name\n   *************  62972   ,                                       !- Controller List Name\n   *************  62973   Sp-Floor 2 Conference Toilet Sys-3 Flr-1 Sch-H HPlcmt-core ZN NECB System 3 PSZAvailability Manager List, !- Availability Manager List Name\n   ** Warning ** IP: IDF line~62973 Alpha Argument length exceeds maximum, will be truncated=  Sp-Floor 2 Conference Toilet Sys-3 Flr-1 Sch-H HPlcmt-core ZN NECB System 3 PSZAvailability Manager Lis\n   **   ~~~   ** Will be processed as Alpha=SP-FLOOR 2 CONFERENCE TOILET SYS-3 FLR-1 SCH-H HPLCMT-CORE ZN NECB SYSTEM 3 PSZAVAILABILITY MANAGER LIST\n   ************* IDF Context for following error/warning message:\n   ************* Note -- lines truncated at 300 characters, if necessary...\n   *************  63029 AvailabilityManagerAssignmentList,\n   ************* indicated Name=Sp-Floor 2 Conference Toilet Sys-3 Flr-1 Sch-H HPlcmt-core ZN NECB System 3 PSZAvailability Manager List\n   ************* Only last 1 lines before error line shown.....\n   *************  63030   Sp-Floor 2 Conference Toilet Sys-3 Flr-1 Sch-H HPlcmt-core ZN NECB System 3 PSZAvailability Manager List, !- Name\n   ** Warning ** IP: IDF line~63030 Alpha Argument length exceeds maximum, will be truncated=  Sp-Floor 2 Conference Toilet Sys-3 Flr-1 Sch-H HPlcmt-core ZN NECB System 3 PSZAvailability Manager Lis\n   **   ~~~   ** Will be processed as Alpha=SP-FLOOR 2 CONFERENCE TOILET SYS-3 FLR-1 SCH-H HPLCMT-CORE ZN NECB SYSTEM 3 PSZAVAILABILITY MANAGER LIST\n   ************* IDF Context for following error/warning message:\n   ************* Note -- lines truncated at 300 characters, if necessary...\n   *************  68766 AirLoopHVAC,\n   ************* indicated Name=Sp-Floor 2 Nurse Station 1 Sys-3 Flr-1 Sch-H HPlcmt-core ZN NECB System 3 PSZ\n   ************* Only last 3 lines before error line shown.....\n   *************  68767   Sp-Floor 2 Nurse Station 1 Sys-3 Flr-1 Sch-H HPlcmt-core ZN NECB System 3 PSZ, !- Name\n   *************  68768   ,                                       !- Controller List Name\n   *************  68769   Sp-Floor 2 Nurse Station 1 Sys-3 Flr-1 Sch-H HPlcmt-core ZN NECB System 3 PSZAvailability Manager List, !- Availability Manager List Name\n   ** Warning ** IP: IDF line~68769 Alpha Argument length exceeds maximum, will be truncated=  Sp-Floor 2 Nurse Station 1 Sys-3 Flr-1 Sch-H HPlcmt-core ZN NECB System 3 PSZAvailability Manager Lis\n   **   ~~~   ** Will be processed as Alpha=SP-FLOOR 2 NURSE STATION 1 SYS-3 FLR-1 SCH-H HPLCMT-CORE ZN NECB SYSTEM 3 PSZAVAILABILITY MANAGER LIST\n   ************* IDF Context for following error/warning message:\n   ************* Note -- lines truncated at 300 characters, if necessary...\n   *************  68825 AvailabilityManagerAssignmentList,\n   ************* indicated Name=Sp-Floor 2 Nurse Station 1 Sys-3 Flr-1 Sch-H HPlcmt-core ZN NECB System 3 PSZAvailability Manager List\n   ************* Only last 1 lines before error line shown.....\n   *************  68826   Sp-Floor 2 Nurse Station 1 Sys-3 Flr-1 Sch-H HPlcmt-core ZN NECB System 3 PSZAvailability Manager List, !- Name\n   ** Warning ** IP: IDF line~68826 Alpha Argument length exceeds maximum, will be truncated=  Sp-Floor 2 Nurse Station 1 Sys-3 Flr-1 Sch-H HPlcmt-core ZN NECB System 3 PSZAvailability Manager Lis\n   **   ~~~   ** Will be processed as Alpha=SP-FLOOR 2 NURSE STATION 1 SYS-3 FLR-1 SCH-H HPLCMT-CORE ZN NECB SYSTEM 3 PSZAVAILABILITY MANAGER LIST\n   ************* IDF Context for following error/warning message:\n   ************* Note -- lines truncated at 300 characters, if necessary...\n   *************  69088 AirLoopHVAC,\n   ************* indicated Name=Sp-Floor 2 Nurse Station 2 Sys-3 Flr-1 Sch-H HPlcmt-core ZN NECB System 3 PSZ\n   ************* Only last 3 lines before error line shown.....\n   *************  69089   Sp-Floor 2 Nurse Station 2 Sys-3 Flr-1 Sch-H HPlcmt-core ZN NECB System 3 PSZ, !- Name\n   *************  69090   ,                                       !- Controller List Name\n   *************  69091   Sp-Floor 2 Nurse Station 2 Sys-3 Flr-1 Sch-H HPlcmt-core ZN NECB System 3 PSZAvailability Manager List, !- Availability Manager List Name\n   ** Warning ** IP: IDF line~69091 Alpha Argument length exceeds maximum, will be truncated=  Sp-Floor 2 Nurse Station 2 Sys-3 Flr-1 Sch-H HPlcmt-core ZN NECB System 3 PSZAvailability Manager Lis\n   **   ~~~   ** Will be processed as Alpha=SP-FLOOR 2 NURSE STATION 2 SYS-3 FLR-1 SCH-H HPLCMT-CORE ZN NECB SYSTEM 3 PSZAVAILABILITY MANAGER LIST\n   ************* IDF Context for following error/warning message:\n   ************* Note -- lines truncated at 300 characters, if necessary...\n   *************  69147 AvailabilityManagerAssignmentList,\n   ************* indicated Name=Sp-Floor 2 Nurse Station 2 Sys-3 Flr-1 Sch-H HPlcmt-core ZN NECB System 3 PSZAvailability Manager List\n   ************* Only last 1 lines before error line shown.....\n   *************  69148   Sp-Floor 2 Nurse Station 2 Sys-3 Flr-1 Sch-H HPlcmt-core ZN NECB System 3 PSZAvailability Manager List, !- Name\n   ** Warning ** IP: IDF line~69148 Alpha Argument length exceeds maximum, will be truncated=  Sp-Floor 2 Nurse Station 2 Sys-3 Flr-1 Sch-H HPlcmt-core ZN NECB System 3 PSZAvailability Manager Lis\n   **   ~~~   ** Will be processed as Alpha=SP-FLOOR 2 NURSE STATION 2 SYS-3 FLR-1 SCH-H HPLCMT-CORE ZN NECB SYSTEM 3 PSZAVAILABILITY MANAGER LIST\n   ************* IDF Context for following error/warning message:\n   ************* Note -- lines truncated at 300 characters, if necessary...\n   *************  69410 AirLoopHVAC,\n   ************* indicated Name=Sp-Floor 2 Reception Hall Sys-3 Flr-1 Sch-H HPlcmt-south ZN NECB System 3 PSZ\n   ************* Only last 3 lines before error line shown.....\n   *************  69411   Sp-Floor 2 Reception Hall Sys-3 Flr-1 Sch-H HPlcmt-south ZN NECB System 3 PSZ, !- Name\n   *************  69412   ,                                       !- Controller List Name\n   *************  69413   Sp-Floor 2 Reception Hall Sys-3 Flr-1 Sch-H HPlcmt-south ZN NECB System 3 PSZAvailability Manager List, !- Availability Manager List Name\n   ** Warning ** IP: IDF line~69413 Alpha Argument length exceeds maximum, will be truncated=  Sp-Floor 2 Reception Hall Sys-3 Flr-1 Sch-H HPlcmt-south ZN NECB System 3 PSZAvailability Manager Lis\n   **   ~~~   ** Will be processed as Alpha=SP-FLOOR 2 RECEPTION HALL SYS-3 FLR-1 SCH-H HPLCMT-SOUTH ZN NECB SYSTEM 3 PSZAVAILABILITY MANAGER LIST\n   ************* IDF Context for following error/warning message:\n   ************* Note -- lines truncated at 300 characters, if necessary...\n   *************  69469 AvailabilityManagerAssignmentList,\n   ************* indicated Name=Sp-Floor 2 Reception Hall Sys-3 Flr-1 Sch-H HPlcmt-south ZN NECB System 3 PSZAvailability Manager List\n   ************* Only last 1 lines before error line shown.....\n   *************  69470   Sp-Floor 2 Reception Hall Sys-3 Flr-1 Sch-H HPlcmt-south ZN NECB System 3 PSZAvailability Manager List, !- Name\n   ** Warning ** IP: IDF line~69470 Alpha Argument length exceeds maximum, will be truncated=  Sp-Floor 2 Reception Hall Sys-3 Flr-1 Sch-H HPlcmt-south ZN NECB System 3 PSZAvailability Manager Lis\n   **   ~~~   ** Will be processed as Alpha=SP-FLOOR 2 RECEPTION HALL SYS-3 FLR-1 SCH-H HPLCMT-SOUTH ZN NECB SYSTEM 3 PSZAVAILABILITY MANAGER LIST\n   ************* IDF Context for following error/warning message:\n   ************* Note -- lines truncated at 300 characters, if necessary...\n   *************  70054 AirLoopHVAC,\n   ************* indicated Name=Sp-Floor 2 Reception Toilet Sys-3 Flr-1 Sch-H HPlcmt-core ZN NECB System 3 PSZ\n   ************* Only last 3 lines before error line shown.....\n   *************  70055   Sp-Floor 2 Reception Toilet Sys-3 Flr-1 Sch-H HPlcmt-core ZN NECB System 3 PSZ, !- Name\n   *************  70056   ,                                       !- Controller List Name\n   *************  70057   Sp-Floor 2 Reception Toilet Sys-3 Flr-1 Sch-H HPlcmt-core ZN NECB System 3 PSZAvailability Manager List, !- Availability Manager List Name\n   ** Warning ** IP: IDF line~70057 Alpha Argument length exceeds maximum, will be truncated=  Sp-Floor 2 Reception Toilet Sys-3 Flr-1 Sch-H HPlcmt-core ZN NECB System 3 PSZAvailability Manager Lis\n   **   ~~~   ** Will be processed as Alpha=SP-FLOOR 2 RECEPTION TOILET SYS-3 FLR-1 SCH-H HPLCMT-CORE ZN NECB SYSTEM 3 PSZAVAILABILITY MANAGER LIST\n   ************* IDF Context for following error/warning message:\n   ************* Note -- lines truncated at 300 characters, if necessary...\n   *************  70113 AvailabilityManagerAssignmentList,\n   ************* indicated Name=Sp-Floor 2 Reception Toilet Sys-3 Flr-1 Sch-H HPlcmt-core ZN NECB System 3 PSZAvailability Manager List\n   ************* Only last 1 lines before error line shown.....\n   *************  70114   Sp-Floor 2 Reception Toilet Sys-3 Flr-1 Sch-H HPlcmt-core ZN NECB System 3 PSZAvailability Manager List, !- Name\n   ** Warning ** IP: IDF line~70114 Alpha Argument length exceeds maximum, will be truncated=  Sp-Floor 2 Reception Toilet Sys-3 Flr-1 Sch-H HPlcmt-core ZN NECB System 3 PSZAvailability Manager Lis\n   **   ~~~   ** Will be processed as Alpha=SP-FLOOR 2 RECEPTION TOILET SYS-3 FLR-1 SCH-H HPLCMT-CORE ZN NECB SYSTEM 3 PSZAVAILABILITY MANAGER LIST\n   ************* IDF Context for following error/warning message:\n   ************* Note -- lines truncated at 300 characters, if necessary...\n   *************  72952 AirLoopHVAC,\n   ************* indicated Name=Sp-Floor 3 Lounge Toilet Sys-3 Flr-2 Sch-H HPlcmt-north ZN NECB System 3 PSZ\n   ************* Only last 3 lines before error line shown.....\n   *************  72953   Sp-Floor 3 Lounge Toilet Sys-3 Flr-2 Sch-H HPlcmt-north ZN NECB System 3 PSZ, !- Name\n   *************  72954   ,                                       !- Controller List Name\n   *************  72955   Sp-Floor 3 Lounge Toilet Sys-3 Flr-2 Sch-H HPlcmt-north ZN NECB System 3 PSZAvailability Manager List, !- Availability Manager List Name\n   ** Warning ** IP: IDF line~72955 Alpha Argument length exceeds maximum, will be truncated=  Sp-Floor 3 Lounge Toilet Sys-3 Flr-2 Sch-H HPlcmt-north ZN NECB System 3 PSZAvailability Manager Lis\n   **   ~~~   ** Will be processed as Alpha=SP-FLOOR 3 LOUNGE TOILET SYS-3 FLR-2 SCH-H HPLCMT-NORTH ZN NECB SYSTEM 3 PSZAVAILABILITY MANAGER LIST\n   ************* IDF Context for following error/warning message:\n   ************* Note -- lines truncated at 300 characters, if necessary...\n   *************  73011 AvailabilityManagerAssignmentList,\n   ************* indicated Name=Sp-Floor 3 Lounge Toilet Sys-3 Flr-2 Sch-H HPlcmt-north ZN NECB System 3 PSZAvailability Manager List\n   ************* Only last 1 lines before error line shown.....\n   *************  73012   Sp-Floor 3 Lounge Toilet Sys-3 Flr-2 Sch-H HPlcmt-north ZN NECB System 3 PSZAvailability Manager List, !- Name\n   ** Warning ** IP: IDF line~73012 Alpha Argument length exceeds maximum, will be truncated=  Sp-Floor 3 Lounge Toilet Sys-3 Flr-2 Sch-H HPlcmt-north ZN NECB System 3 PSZAvailability Manager Lis\n   **   ~~~   ** Will be processed as Alpha=SP-FLOOR 3 LOUNGE TOILET SYS-3 FLR-2 SCH-H HPLCMT-NORTH ZN NECB SYSTEM 3 PSZAVAILABILITY MANAGER LIST\n   ************* IDF Context for following error/warning message:\n   ************* Note -- lines truncated at 300 characters, if necessary...\n   *************  73274 AirLoopHVAC,\n   ************* indicated Name=Sp-Floor 3 Mechanical Hall Sys-3 Flr-2 Sch-H HPlcmt-core ZN NECB System 3 PSZ\n   ************* Only last 3 lines before error line shown.....\n   *************  73275   Sp-Floor 3 Mechanical Hall Sys-3 Flr-2 Sch-H HPlcmt-core ZN NECB System 3 PSZ, !- Name\n   *************  73276   ,                                       !- Controller List Name\n   *************  73277   Sp-Floor 3 Mechanical Hall Sys-3 Flr-2 Sch-H HPlcmt-core ZN NECB System 3 PSZAvailability Manager List, !- Availability Manager List Name\n   ** Warning ** IP: IDF line~73277 Alpha Argument length exceeds maximum, will be truncated=  Sp-Floor 3 Mechanical Hall Sys-3 Flr-2 Sch-H HPlcmt-core ZN NECB System 3 PSZAvailability Manager Lis\n   **   ~~~   ** Will be processed as Alpha=SP-FLOOR 3 MECHANICAL HALL SYS-3 FLR-2 SCH-H HPLCMT-CORE ZN NECB SYSTEM 3 PSZAVAILABILITY MANAGER LIST\n   ************* IDF Context for following error/warning message:\n   ************* Note -- lines truncated at 300 characters, if necessary...\n   *************  73333 AvailabilityManagerAssignmentList,\n   ************* indicated Name=Sp-Floor 3 Mechanical Hall Sys-3 Flr-2 Sch-H HPlcmt-core ZN NECB System 3 PSZAvailability Manager List\n   ************* Only last 1 lines before error line shown.....\n   *************  73334   Sp-Floor 3 Mechanical Hall Sys-3 Flr-2 Sch-H HPlcmt-core ZN NECB System 3 PSZAvailability Manager List, !- Name\n   ** Warning ** IP: IDF line~73334 Alpha Argument length exceeds maximum, will be truncated=  Sp-Floor 3 Mechanical Hall Sys-3 Flr-2 Sch-H HPlcmt-core ZN NECB System 3 PSZAvailability Manager Lis\n   **   ~~~   ** Will be processed as Alpha=SP-FLOOR 3 MECHANICAL HALL SYS-3 FLR-2 SCH-H HPLCMT-CORE ZN NECB SYSTEM 3 PSZAVAILABILITY MANAGER LIST\n   ************* IDF Context for following error/warning message:\n   ************* Note -- lines truncated at 300 characters, if necessary...\n   *************  74240 AirLoopHVAC,\n   ************* indicated Name=Sp-Floor 3 Physical Therapy 1 Sys-3 Flr-2 Sch-C HPlcmt-south ZN NECB System 3 PSZ\n   ************* Only last 3 lines before error line shown.....\n   *************  74241   Sp-Floor 3 Physical Therapy 1 Sys-3 Flr-2 Sch-C HPlcmt-south ZN NECB System 3 PSZ, !- Name\n   *************  74242   ,                                       !- Controller List Name\n   *************  74243   Sp-Floor 3 Physical Therapy 1 Sys-3 Flr-2 Sch-C HPlcmt-south ZN NECB System 3 PSZAvailability Manager List, !- Availability Manager List Name\n   ** Warning ** IP: IDF line~74243 Alpha Argument length exceeds maximum, will be truncated=  Sp-Floor 3 Physical Therapy 1 Sys-3 Flr-2 Sch-C HPlcmt-south ZN NECB System 3 PSZAvailability Manager Lis\n   **   ~~~   ** Will be processed as Alpha=SP-FLOOR 3 PHYSICAL THERAPY 1 SYS-3 FLR-2 SCH-C HPLCMT-SOUTH ZN NECB SYSTEM 3 PSZAVAILABILITY MANAGER LIST\n   ************* IDF Context for following error/warning message:\n   ************* Note -- lines truncated at 300 characters, if necessary...\n   *************  74240 AirLoopHVAC,\n   ************* indicated Name=Sp-Floor 3 Physical Therapy 1 Sys-3 Flr-2 Sch-C HPlcmt-south ZN NECB System 3 PSZ\n   ************* Only last 10 lines before error line shown.....\n   *************  74241   Sp-Floor 3 Physical Therapy 1 Sys-3 Flr-2 Sch-C HPlcmt-south ZN NECB System 3 PSZ, !- Name\n   *************  74242   ,                                       !- Controller List Name\n   *************  74243   Sp-Floor 3 Physical Therapy 1 Sys-3 Flr-2 Sch-C HPlcmt-south ZN NECB System 3 PSZAvailability Manager List, !- Availability Manager List Name\n   *************  74244   AutoSize,                               !- Design Supply Air Flow Rate {m3/s}\n   *************  74245   Sp-Floor 3 Physical Therapy 1 Sys-3 Flr-2 Sch-C HPlcmt-south ZN NECB System 3 PSZ Supply Branches, !- Branch List Name\n   *************  74246   ,                                       !- Connector List Name\n   *************  74247   Node 383,                               !- Supply Side Inlet Node Name\n   *************  74248   Node 386,                               !- Demand Side Outlet Node Name\n   *************  74249   Sp-Floor 3 Physical Therapy 1 Sys-3 Flr-2 Sch-C HPlcmt-south ZN NECB System 3 PSZ Demand Inlet Nodes, !- Demand Side Inlet Node Names\n   *************  74250   Sp-Floor 3 Physical Therapy 1 Sys-3 Flr-2 Sch-C HPlcmt-south ZN NECB System 3 PSZ Supply Outlet Nodes; !- Supply Side Outlet Node Names\n   ** Warning ** IP: IDF line~74250 Alpha Argument length exceeds maximum, will be truncated=  Sp-Floor 3 Physical Therapy 1 Sys-3 Flr-2 Sch-C HPlcmt-south ZN NECB System 3 PSZ Supply Outlet Node\n   **   ~~~   ** Will be processed as Alpha=SP-FLOOR 3 PHYSICAL THERAPY 1 SYS-3 FLR-2 SCH-C HPLCMT-SOUTH ZN NECB SYSTEM 3 PSZ SUPPLY OUTLET NODES\n   ************* IDF Context for following error/warning message:\n   ************* Note -- lines truncated at 300 characters, if necessary...\n   *************  74252 NodeList,\n   ************* indicated Name=Sp-Floor 3 Physical Therapy 1 Sys-3 Flr-2 Sch-C HPlcmt-south ZN NECB System 3 PSZ Supply Outlet Nodes\n   ************* Only last 1 lines before error line shown.....\n   *************  74253   Sp-Floor 3 Physical Therapy 1 Sys-3 Flr-2 Sch-C HPlcmt-south ZN NECB System 3 PSZ Supply Outlet Nodes, !- Name\n   ** Warning ** IP: IDF line~74253 Alpha Argument length exceeds maximum, will be truncated=  Sp-Floor 3 Physical Therapy 1 Sys-3 Flr-2 Sch-C HPlcmt-south ZN NECB System 3 PSZ Supply Outlet Node\n   **   ~~~   ** Will be processed as Alpha=SP-FLOOR 3 PHYSICAL THERAPY 1 SYS-3 FLR-2 SCH-C HPLCMT-SOUTH ZN NECB SYSTEM 3 PSZ SUPPLY OUTLET NODES\n   ************* IDF Context for following error/warning message:\n   ************* Note -- lines truncated at 300 characters, if necessary...\n   *************  74299 AvailabilityManagerAssignmentList,\n   ************* indicated Name=Sp-Floor 3 Physical Therapy 1 Sys-3 Flr-2 Sch-C HPlcmt-south ZN NECB System 3 PSZAvailability Manager List\n   ************* Only last 1 lines before error line shown.....\n   *************  74300   Sp-Floor 3 Physical Therapy 1 Sys-3 Flr-2 Sch-C HPlcmt-south ZN NECB System 3 PSZAvailability Manager List, !- Name\n   ** Warning ** IP: IDF line~74300 Alpha Argument length exceeds maximum, will be truncated=  Sp-Floor 3 Physical Therapy 1 Sys-3 Flr-2 Sch-C HPlcmt-south ZN NECB System 3 PSZAvailability Manager Lis\n   **   ~~~   ** Will be processed as Alpha=SP-FLOOR 3 PHYSICAL THERAPY 1 SYS-3 FLR-2 SCH-C HPLCMT-SOUTH ZN NECB SYSTEM 3 PSZAVAILABILITY MANAGER LIST\n   ************* IDF Context for following error/warning message:\n   ************* Note -- lines truncated at 300 characters, if necessary...\n   *************  74544 AirLoopHVAC:SupplyPath,\n   ************* indicated Name=Sp-Floor 3 Physical Therapy 1 Sys-3 Flr-2 Sch-C HPlcmt-south ZN NECB System 3 PSZ Node 385 Supply Path\n   ************* Only last 1 lines before error line shown.....\n   *************  74545   Sp-Floor 3 Physical Therapy 1 Sys-3 Flr-2 Sch-C HPlcmt-south ZN NECB System 3 PSZ Node 385 Supply Path, !- Name\n   ** Warning ** IP: IDF line~74545 Alpha Argument length exceeds maximum, will be truncated=  Sp-Floor 3 Physical Therapy 1 Sys-3 Flr-2 Sch-C HPlcmt-south ZN NECB System 3 PSZ Node 385 Supply Pat\n   **   ~~~   ** Will be processed as Alpha=SP-FLOOR 3 PHYSICAL THERAPY 1 SYS-3 FLR-2 SCH-C HPLCMT-SOUTH ZN NECB SYSTEM 3 PSZ NODE 385 SUPPLY PATH\n   ************* IDF Context for following error/warning message:\n   ************* Note -- lines truncated at 300 characters, if necessary...\n   *************  74566 AirLoopHVAC,\n   ************* indicated Name=Sp-Floor 3 Physical Therapy 2 Sys-3 Flr-2 Sch-C HPlcmt-core ZN NECB System 3 PSZ\n   ************* Only last 3 lines before error line shown.....\n   *************  74567   Sp-Floor 3 Physical Therapy 2 Sys-3 Flr-2 Sch-C HPlcmt-core ZN NECB System 3 PSZ, !- Name\n   *************  74568   ,                                       !- Controller List Name\n   *************  74569   Sp-Floor 3 Physical Therapy 2 Sys-3 Flr-2 Sch-C HPlcmt-core ZN NECB System 3 PSZAvailability Manager List, !- Availability Manager List Name\n   ** Warning ** IP: IDF line~74569 Alpha Argument length exceeds maximum, will be truncated=  Sp-Floor 3 Physical Therapy 2 Sys-3 Flr-2 Sch-C HPlcmt-core ZN NECB System 3 PSZAvailability Manager Lis\n   **   ~~~   ** Will be processed as Alpha=SP-FLOOR 3 PHYSICAL THERAPY 2 SYS-3 FLR-2 SCH-C HPLCMT-CORE ZN NECB SYSTEM 3 PSZAVAILABILITY MANAGER LIST\n   ************* IDF Context for following error/warning message:\n   ************* Note -- lines truncated at 300 characters, if necessary...\n   *************  74625 AvailabilityManagerAssignmentList,\n   ************* indicated Name=Sp-Floor 3 Physical Therapy 2 Sys-3 Flr-2 Sch-C HPlcmt-core ZN NECB System 3 PSZAvailability Manager List\n   ************* Only last 1 lines before error line shown.....\n   *************  74626   Sp-Floor 3 Physical Therapy 2 Sys-3 Flr-2 Sch-C HPlcmt-core ZN NECB System 3 PSZAvailability Manager List, !- Name\n   ** Warning ** IP: IDF line~74626 Alpha Argument length exceeds maximum, will be truncated=  Sp-Floor 3 Physical Therapy 2 Sys-3 Flr-2 Sch-C HPlcmt-core ZN NECB System 3 PSZAvailability Manager Lis\n   **   ~~~   ** Will be processed as Alpha=SP-FLOOR 3 PHYSICAL THERAPY 2 SYS-3 FLR-2 SCH-C HPLCMT-CORE ZN NECB SYSTEM 3 PSZAVAILABILITY MANAGER LIST\n   ************* IDF Context for following error/warning message:\n   ************* Note -- lines truncated at 300 characters, if necessary...\n   *************  74625 AvailabilityManagerAssignmentList,\n   ************* indicated Name=Sp-Floor 3 Physical Therapy 2 Sys-3 Flr-2 Sch-C HPlcmt-core ZN NECB System 3 PSZAvailability Manager List\n   ************* Only last 3 lines before error line shown.....\n   *************  74626   Sp-Floor 3 Physical Therapy 2 Sys-3 Flr-2 Sch-C HPlcmt-core ZN NECB System 3 PSZAvailability Manager List, !- Name\n   *************  74627   AvailabilityManager:Scheduled,          !- Availability Manager Object Type 1\n   *************  74628   Sp-Floor 3 Physical Therapy 2 Sys-3 Flr-2 Sch-C HPlcmt-core ZN NECB System 3 PSZ Availability Manager; !- Availability Manager Name 1\n   ** Warning ** IP: IDF line~74628 Alpha Argument length exceeds maximum, will be truncated=  Sp-Floor 3 Physical Therapy 2 Sys-3 Flr-2 Sch-C HPlcmt-core ZN NECB System 3 PSZ Availability Manage\n   **   ~~~   ** Will be processed as Alpha=SP-FLOOR 3 PHYSICAL THERAPY 2 SYS-3 FLR-2 SCH-C HPLCMT-CORE ZN NECB SYSTEM 3 PSZ AVAILABILITY MANAGER\n   ************* IDF Context for following error/warning message:\n   ************* Note -- lines truncated at 300 characters, if necessary...\n   *************  74630 AvailabilityManager:Scheduled,\n   ************* indicated Name=Sp-Floor 3 Physical Therapy 2 Sys-3 Flr-2 Sch-C HPlcmt-core ZN NECB System 3 PSZ Availability Manager\n   ************* Only last 1 lines before error line shown.....\n   *************  74631   Sp-Floor 3 Physical Therapy 2 Sys-3 Flr-2 Sch-C HPlcmt-core ZN NECB System 3 PSZ Availability Manager, !- Name\n   ** Warning ** IP: IDF line~74631 Alpha Argument length exceeds maximum, will be truncated=  Sp-Floor 3 Physical Therapy 2 Sys-3 Flr-2 Sch-C HPlcmt-core ZN NECB System 3 PSZ Availability Manage\n   **   ~~~   ** Will be processed as Alpha=SP-FLOOR 3 PHYSICAL THERAPY 2 SYS-3 FLR-2 SCH-C HPLCMT-CORE ZN NECB SYSTEM 3 PSZ AVAILABILITY MANAGER\n   ************* IDF Context for following error/warning message:\n   ************* Note -- lines truncated at 300 characters, if necessary...\n   *************  74866 AirLoopHVAC:SupplyPath,\n   ************* indicated Name=Sp-Floor 3 Physical Therapy 2 Sys-3 Flr-2 Sch-C HPlcmt-core ZN NECB System 3 PSZ Node 396 Supply Path\n   ************* Only last 1 lines before error line shown.....\n   *************  74867   Sp-Floor 3 Physical Therapy 2 Sys-3 Flr-2 Sch-C HPlcmt-core ZN NECB System 3 PSZ Node 396 Supply Path, !- Name\n   ** Warning ** IP: IDF line~74867 Alpha Argument length exceeds maximum, will be truncated=  Sp-Floor 3 Physical Therapy 2 Sys-3 Flr-2 Sch-C HPlcmt-core ZN NECB System 3 PSZ Node 396 Supply Pat\n   **   ~~~   ** Will be processed as Alpha=SP-FLOOR 3 PHYSICAL THERAPY 2 SYS-3 FLR-2 SCH-C HPLCMT-CORE ZN NECB SYSTEM 3 PSZ NODE 396 SUPPLY PATH\n   ************* IDF Context for following error/warning message:\n   ************* Note -- lines truncated at 300 characters, if necessary...\n   *************  74888 AirLoopHVAC,\n   ************* indicated Name=Sp-Floor 3 Physical Therapy Toilet Sys-4 Flr-2 Sch-H HPlcmt-core ZN NECB System 4 PSZ\n   ************* Only last 3 lines before error line shown.....\n   *************  74889   Sp-Floor 3 Physical Therapy Toilet Sys-4 Flr-2 Sch-H HPlcmt-core ZN NECB System 4 PSZ, !- Name\n   *************  74890   ,                                       !- Controller List Name\n   *************  74891   Sp-Floor 3 Physical Therapy Toilet Sys-4 Flr-2 Sch-H HPlcmt-core ZN NECB System 4 PSZAvailability Manager List, !- Availability Manager List Name\n   ** Warning ** IP: IDF line~74891 Alpha Argument length exceeds maximum, will be truncated=  Sp-Floor 3 Physical Therapy Toilet Sys-4 Flr-2 Sch-H HPlcmt-core ZN NECB System 4 PSZAvailability Manager Lis\n   **   ~~~   ** Will be processed as Alpha=SP-FLOOR 3 PHYSICAL THERAPY TOILET SYS-4 FLR-2 SCH-H HPLCMT-CORE ZN NECB SYSTEM 4 PSZAVAILABILITY MANAGER LIST\n   ************* IDF Context for following error/warning message:\n   ************* Note -- lines truncated at 300 characters, if necessary...\n   *************  74888 AirLoopHVAC,\n   ************* indicated Name=Sp-Floor 3 Physical Therapy Toilet Sys-4 Flr-2 Sch-H HPlcmt-core ZN NECB System 4 PSZ\n   ************* Only last 5 lines before error line shown.....\n   *************  74889   Sp-Floor 3 Physical Therapy Toilet Sys-4 Flr-2 Sch-H HPlcmt-core ZN NECB System 4 PSZ, !- Name\n   *************  74890   ,                                       !- Controller List Name\n   *************  74891   Sp-Floor 3 Physical Therapy Toilet Sys-4 Flr-2 Sch-H HPlcmt-core ZN NECB System 4 PSZAvailability Manager List, !- Availability Manager List Name\n   *************  74892   AutoSize,                               !- Design Supply Air Flow Rate {m3/s}\n   *************  74893   Sp-Floor 3 Physical Therapy Toilet Sys-4 Flr-2 Sch-H HPlcmt-core ZN NECB System 4 PSZ Supply Branches, !- Branch List Name\n   ** Warning ** IP: IDF line~74893 Alpha Argument length exceeds maximum, will be truncated=  Sp-Floor 3 Physical Therapy Toilet Sys-4 Flr-2 Sch-H HPlcmt-core ZN NECB System 4 PSZ Supply Branche\n   **   ~~~   ** Will be processed as Alpha=SP-FLOOR 3 PHYSICAL THERAPY TOILET SYS-4 FLR-2 SCH-H HPLCMT-CORE ZN NECB SYSTEM 4 PSZ SUPPLY BRANCHES\n   ************* IDF Context for following error/warning message:\n   ************* Note -- lines truncated at 300 characters, if necessary...\n   *************  74888 AirLoopHVAC,\n   ************* indicated Name=Sp-Floor 3 Physical Therapy Toilet Sys-4 Flr-2 Sch-H HPlcmt-core ZN NECB System 4 PSZ\n   ************* Only last 9 lines before error line shown.....\n   *************  74889   Sp-Floor 3 Physical Therapy Toilet Sys-4 Flr-2 Sch-H HPlcmt-core ZN NECB System 4 PSZ, !- Name\n   *************  74890   ,                                       !- Controller List Name\n   *************  74891   Sp-Floor 3 Physical Therapy Toilet Sys-4 Flr-2 Sch-H HPlcmt-core ZN NECB System 4 PSZAvailability Manager List, !- Availability Manager List Name\n   *************  74892   AutoSize,                               !- Design Supply Air Flow Rate {m3/s}\n   *************  74893   Sp-Floor 3 Physical Therapy Toilet Sys-4 Flr-2 Sch-H HPlcmt-core ZN NECB System 4 PSZ Supply Branches, !- Branch List Name\n   *************  74894   ,                                       !- Connector List Name\n   *************  74895   Node 933,                               !- Supply Side Inlet Node Name\n   *************  74896   Node 936,                               !- Demand Side Outlet Node Name\n   *************  74897   Sp-Floor 3 Physical Therapy Toilet Sys-4 Flr-2 Sch-H HPlcmt-core ZN NECB System 4 PSZ Demand Inlet Nodes, !- Demand Side Inlet Node Names\n   ** Warning ** IP: IDF line~74897 Alpha Argument length exceeds maximum, will be truncated=  Sp-Floor 3 Physical Therapy Toilet Sys-4 Flr-2 Sch-H HPlcmt-core ZN NECB System 4 PSZ Demand Inlet Node\n   **   ~~~   ** Will be processed as Alpha=SP-FLOOR 3 PHYSICAL THERAPY TOILET SYS-4 FLR-2 SCH-H HPLCMT-CORE ZN NECB SYSTEM 4 PSZ DEMAND INLET NODES\n   ************* IDF Context for following error/warning message:\n   ************* Note -- lines truncated at 300 characters, if necessary...\n   *************  74888 AirLoopHVAC,\n   ************* indicated Name=Sp-Floor 3 Physical Therapy Toilet Sys-4 Flr-2 Sch-H HPlcmt-core ZN NECB System 4 PSZ\n   ************* Only last 10 lines before error line shown.....\n   *************  74889   Sp-Floor 3 Physical Therapy Toilet Sys-4 Flr-2 Sch-H HPlcmt-core ZN NECB System 4 PSZ, !- Name\n   *************  74890   ,                                       !- Controller List Name\n   *************  74891   Sp-Floor 3 Physical Therapy Toilet Sys-4 Flr-2 Sch-H HPlcmt-core ZN NECB System 4 PSZAvailability Manager List, !- Availability Manager List Name\n   *************  74892   AutoSize,                               !- Design Supply Air Flow Rate {m3/s}\n   *************  74893   Sp-Floor 3 Physical Therapy Toilet Sys-4 Flr-2 Sch-H HPlcmt-core ZN NECB System 4 PSZ Supply Branches, !- Branch List Name\n   *************  74894   ,                                       !- Connector List Name\n   *************  74895   Node 933,                               !- Supply Side Inlet Node Name\n   *************  74896   Node 936,                               !- Demand Side Outlet Node Name\n   *************  74897   Sp-Floor 3 Physical Therapy Toilet Sys-4 Flr-2 Sch-H HPlcmt-core ZN NECB System 4 PSZ Demand Inlet Nodes, !- Demand Side Inlet Node Names\n   *************  74898   Sp-Floor 3 Physical Therapy Toilet Sys-4 Flr-2 Sch-H HPlcmt-core ZN NECB System 4 PSZ Supply Outlet Nodes; !- Supply Side Outlet Node Names\n   ** Warning ** IP: IDF line~74898 Alpha Argument length exceeds maximum, will be truncated=  Sp-Floor 3 Physical Therapy Toilet Sys-4 Flr-2 Sch-H HPlcmt-core ZN NECB System 4 PSZ Supply Outlet Node\n   **   ~~~   ** Will be processed as Alpha=SP-FLOOR 3 PHYSICAL THERAPY TOILET SYS-4 FLR-2 SCH-H HPLCMT-CORE ZN NECB SYSTEM 4 PSZ SUPPLY OUTLET NODES\n   ************* IDF Context for following error/warning message:\n   ************* Note -- lines truncated at 300 characters, if necessary...\n   *************  74900 NodeList,\n   ************* indicated Name=Sp-Floor 3 Physical Therapy Toilet Sys-4 Flr-2 Sch-H HPlcmt-core ZN NECB System 4 PSZ Supply Outlet Nodes\n   ************* Only last 1 lines before error line shown.....\n   *************  74901   Sp-Floor 3 Physical Therapy Toilet Sys-4 Flr-2 Sch-H HPlcmt-core ZN NECB System 4 PSZ Supply Outlet Nodes, !- Name\n   ** Warning ** IP: IDF line~74901 Alpha Argument length exceeds maximum, will be truncated=  Sp-Floor 3 Physical Therapy Toilet Sys-4 Flr-2 Sch-H HPlcmt-core ZN NECB System 4 PSZ Supply Outlet Node\n   **   ~~~   ** Will be processed as Alpha=SP-FLOOR 3 PHYSICAL THERAPY TOILET SYS-4 FLR-2 SCH-H HPLCMT-CORE ZN NECB SYSTEM 4 PSZ SUPPLY OUTLET NODES\n   ************* IDF Context for following error/warning message:\n   ************* Note -- lines truncated at 300 characters, if necessary...\n   *************  74904 NodeList,\n   ************* indicated Name=Sp-Floor 3 Physical Therapy Toilet Sys-4 Flr-2 Sch-H HPlcmt-core ZN NECB System 4 PSZ Demand Inlet Nodes\n   ************* Only last 1 lines before error line shown.....\n   *************  74905   Sp-Floor 3 Physical Therapy Toilet Sys-4 Flr-2 Sch-H HPlcmt-core ZN NECB System 4 PSZ Demand Inlet Nodes, !- Name\n   ** Warning ** IP: IDF line~74905 Alpha Argument length exceeds maximum, will be truncated=  Sp-Floor 3 Physical Therapy Toilet Sys-4 Flr-2 Sch-H HPlcmt-core ZN NECB System 4 PSZ Demand Inlet Node\n   **   ~~~   ** Will be processed as Alpha=SP-FLOOR 3 PHYSICAL THERAPY TOILET SYS-4 FLR-2 SCH-H HPLCMT-CORE ZN NECB SYSTEM 4 PSZ DEMAND INLET NODES\n   ************* IDF Context for following error/warning message:\n   ************* Note -- lines truncated at 300 characters, if necessary...\n   *************  74947 AvailabilityManagerAssignmentList,\n   ************* indicated Name=Sp-Floor 3 Physical Therapy Toilet Sys-4 Flr-2 Sch-H HPlcmt-core ZN NECB System 4 PSZAvailability Manager List\n   ************* Only last 1 lines before error line shown.....\n   *************  74948   Sp-Floor 3 Physical Therapy Toilet Sys-4 Flr-2 Sch-H HPlcmt-core ZN NECB System 4 PSZAvailability Manager List, !- Name\n   ** Warning ** IP: IDF line~74948 Alpha Argument length exceeds maximum, will be truncated=  Sp-Floor 3 Physical Therapy Toilet Sys-4 Flr-2 Sch-H HPlcmt-core ZN NECB System 4 PSZAvailability Manager Lis\n   **   ~~~   ** Will be processed as Alpha=SP-FLOOR 3 PHYSICAL THERAPY TOILET SYS-4 FLR-2 SCH-H HPLCMT-CORE ZN NECB SYSTEM 4 PSZAVAILABILITY MANAGER LIST\n   ************* IDF Context for following error/warning message:\n   ************* Note -- lines truncated at 300 characters, if necessary...\n   *************  74947 AvailabilityManagerAssignmentList,\n   ************* indicated Name=Sp-Floor 3 Physical Therapy Toilet Sys-4 Flr-2 Sch-H HPlcmt-core ZN NECB System 4 PSZAvailability Manager List\n   ************* Only last 3 lines before error line shown.....\n   *************  74948   Sp-Floor 3 Physical Therapy Toilet Sys-4 Flr-2 Sch-H HPlcmt-core ZN NECB System 4 PSZAvailability Manager List, !- Name\n   *************  74949   AvailabilityManager:Scheduled,          !- Availability Manager Object Type 1\n   *************  74950   Sp-Floor 3 Physical Therapy Toilet Sys-4 Flr-2 Sch-H HPlcmt-core ZN NECB System 4 PSZ Availability Manager; !- Availability Manager Name 1\n   ** Warning ** IP: IDF line~74950 Alpha Argument length exceeds maximum, will be truncated=  Sp-Floor 3 Physical Therapy Toilet Sys-4 Flr-2 Sch-H HPlcmt-core ZN NECB System 4 PSZ Availability Manage\n   **   ~~~   ** Will be processed as Alpha=SP-FLOOR 3 PHYSICAL THERAPY TOILET SYS-4 FLR-2 SCH-H HPLCMT-CORE ZN NECB SYSTEM 4 PSZ AVAILABILITY MANAGER\n   ************* IDF Context for following error/warning message:\n   ************* Note -- lines truncated at 300 characters, if necessary...\n   *************  74952 AvailabilityManager:Scheduled,\n   ************* indicated Name=Sp-Floor 3 Physical Therapy Toilet Sys-4 Flr-2 Sch-H HPlcmt-core ZN NECB System 4 PSZ Availability Manager\n   ************* Only last 1 lines before error line shown.....\n   *************  74953   Sp-Floor 3 Physical Therapy Toilet Sys-4 Flr-2 Sch-H HPlcmt-core ZN NECB System 4 PSZ Availability Manager, !- Name\n   ** Warning ** IP: IDF line~74953 Alpha Argument length exceeds maximum, will be truncated=  Sp-Floor 3 Physical Therapy Toilet Sys-4 Flr-2 Sch-H HPlcmt-core ZN NECB System 4 PSZ Availability Manage\n   **   ~~~   ** Will be processed as Alpha=SP-FLOOR 3 PHYSICAL THERAPY TOILET SYS-4 FLR-2 SCH-H HPLCMT-CORE ZN NECB SYSTEM 4 PSZ AVAILABILITY MANAGER\n   ************* IDF Context for following error/warning message:\n   ************* Note -- lines truncated at 300 characters, if necessary...\n   *************  74956 BranchList,\n   ************* indicated Name=Sp-Floor 3 Physical Therapy Toilet Sys-4 Flr-2 Sch-H HPlcmt-core ZN NECB System 4 PSZ Supply Branches\n   ************* Only last 1 lines before error line shown.....\n   *************  74957   Sp-Floor 3 Physical Therapy Toilet Sys-4 Flr-2 Sch-H HPlcmt-core ZN NECB System 4 PSZ Supply Branches, !- Name\n   ** Warning ** IP: IDF line~74957 Alpha Argument length exceeds maximum, will be truncated=  Sp-Floor 3 Physical Therapy Toilet Sys-4 Flr-2 Sch-H HPlcmt-core ZN NECB System 4 PSZ Supply Branche\n   **   ~~~   ** Will be processed as Alpha=SP-FLOOR 3 PHYSICAL THERAPY TOILET SYS-4 FLR-2 SCH-H HPLCMT-CORE ZN NECB SYSTEM 4 PSZ SUPPLY BRANCHES\n   ************* IDF Context for following error/warning message:\n   ************* Note -- lines truncated at 300 characters, if necessary...\n   *************  75188 AirLoopHVAC:SupplyPath,\n   ************* indicated Name=Sp-Floor 3 Physical Therapy Toilet Sys-4 Flr-2 Sch-H HPlcmt-core ZN NECB System 4 PSZ Node 935 Supply Path\n   ************* Only last 1 lines before error line shown.....\n   *************  75189   Sp-Floor 3 Physical Therapy Toilet Sys-4 Flr-2 Sch-H HPlcmt-core ZN NECB System 4 PSZ Node 935 Supply Path, !- Name\n   ** Warning ** IP: IDF line~75189 Alpha Argument length exceeds maximum, will be truncated=  Sp-Floor 3 Physical Therapy Toilet Sys-4 Flr-2 Sch-H HPlcmt-core ZN NECB System 4 PSZ Node 935 Supply Pat\n   **   ~~~   ** Will be processed as Alpha=SP-FLOOR 3 PHYSICAL THERAPY TOILET SYS-4 FLR-2 SCH-H HPLCMT-CORE ZN NECB SYSTEM 4 PSZ NODE 935 SUPPLY PATH\n   ************* IDF Context for following error/warning message:\n   ************* Note -- lines truncated at 300 characters, if necessary...\n   *************  76176 AirLoopHVAC,\n   ************* indicated Name=Sp-Floor 3 Undeveloped 1 Sys-4 Flr-2 Sch-E HPlcmt-south ZN NECB System 4 PSZ\n   ************* Only last 3 lines before error line shown.....\n   *************  76177   Sp-Floor 3 Undeveloped 1 Sys-4 Flr-2 Sch-E HPlcmt-south ZN NECB System 4 PSZ, !- Name\n   *************  76178   ,                                       !- Controller List Name\n   *************  76179   Sp-Floor 3 Undeveloped 1 Sys-4 Flr-2 Sch-E HPlcmt-south ZN NECB System 4 PSZAvailability Manager List, !- Availability Manager List Name\n   ** Warning ** IP: IDF line~76179 Alpha Argument length exceeds maximum, will be truncated=  Sp-Floor 3 Undeveloped 1 Sys-4 Flr-2 Sch-E HPlcmt-south ZN NECB System 4 PSZAvailability Manager Lis\n   **   ~~~   ** Will be processed as Alpha=SP-FLOOR 3 UNDEVELOPED 1 SYS-4 FLR-2 SCH-E HPLCMT-SOUTH ZN NECB SYSTEM 4 PSZAVAILABILITY MANAGER LIST\n   ************* IDF Context for following error/warning message:\n   ************* Note -- lines truncated at 300 characters, if necessary...\n   *************  76235 AvailabilityManagerAssignmentList,\n   ************* indicated Name=Sp-Floor 3 Undeveloped 1 Sys-4 Flr-2 Sch-E HPlcmt-south ZN NECB System 4 PSZAvailability Manager List\n   ************* Only last 1 lines before error line shown.....\n   *************  76236   Sp-Floor 3 Undeveloped 1 Sys-4 Flr-2 Sch-E HPlcmt-south ZN NECB System 4 PSZAvailability Manager List, !- Name\n   ** Warning ** IP: IDF line~76236 Alpha Argument length exceeds maximum, will be truncated=  Sp-Floor 3 Undeveloped 1 Sys-4 Flr-2 Sch-E HPlcmt-south ZN NECB System 4 PSZAvailability Manager Lis\n   **   ~~~   ** Will be processed as A
[...]
/hN6ws+fI+ON1K5jNwsmw2chiNw72HLAerSBJombjtnHo9dqOB92lB/n5D4qTu3G4xDsKJpc30yg9vjEOrxxoVxpX00ly9CkcXd8kmcbFdDzMr7G8N69mR8/H02nkdbxfb+7i0WUw9n67CaNglv1+xKu7+KjjPR9HR7736vLm6Mz78dfx5YfkKJ7O05vyv//w/nF+9n32tiT8kEm8+l/vxeVl9t5HB7bb/N3j+DIazZL/Ed/z3ePh6OOXp8VjZLFUyxsNTxuXWQ2cpZctGE3C6K3fbze8xcU8bQxH8Wwc3D0ZTcbp3NHFeHr5/tuGDJiqLs/BS+5m6fHZ9Xz8LvgYLF+1HpmNj0GU5at36g1HH2bjsDUJP736eN1s/PULkIfecbu9+M/eAsx0h0ESpMKv/2iMg4tw3HjSGIZXwXyceLNoejUah43D5czb28YT02ofNj4G43m4+vdltk6lx6RLz9nZ+Xnj82EuHR+k0wHpHIN0uiCdHkinD9IZgHROQDqmjRJCZbRBpbRB5bRBJbVBZbVBpbVB5bVBJbZBZbaPymwftlajMttHZbbvlNlePP/wYeeHq3N1tCgcOsiI18hNRrxCbjLi9XGTEeveTUasejcZsebdZMSKd5MR691NRm5kjjqgPJbbmKMOKJPlJuaoA8pluYU56oCyWW5gjjqgfJbbl6MOal0G5bPcuxx18ufzp9EkcW9bF9lL+XXEy+OoI14eRx3x8jjqiOXuqCOWu6OOWO6OOmK5O+qI5e6oI/cvVyFURssdzFUIldNyD3MVQmW13MVchVB5LfcxVyFUZsudzFUItlajMltuZq5C+TN780nG3l8altpce+d/9JY/RQwI4ZcfolN+iOPyQ3TLD9ErP0S//BCD8kOclB9ip7OXFaOC+jYVFLipoMJNBSVuKqhxU0GRmwqq3FRQ5qaCOvcrqHO/ij5eQZ37FdS5X6zO9/6gY75t1fIXHwEh5LsBCyHfDFgI+V7AQshLLiyEvOLCQsgLLiyEvN7CQsjLLSyE5ZNrXAz5oz9cDPlTQVwM+QNDXIwKStyyrcLFqKDILdsqXIwKytyyrcL1P3lbhYtRRR+voJFbtlW4GMXqfO/vZuXbVi1/WAsQQr4bsBDyzYCFkO8FLIS85MJCyCsuLIS84MJCyOstLIT83ShYCMu2ChdD3lbhYsjbKlwMeVuFiyF/RQsXQ/5eIi6G/JVFXAz524y4GPIXHXExKqhzy7YKF6OKPl5BI7dsq3AxirXyvT9Pkm9btfz9EkAI+W7AQsg3AxZCvhewEPK2ChZC3lbBQsjbKlgIeVsFCyEvt7AQlm0VLoa8rcLFkLdVuBjytgoXQ95W4WLI2ypcDHlbhYshb6twMeRtFS5GBXVu2VbhYlTRxyto5JZtFS5GsVa+1wU+37ZqaRMPCCHfDVgI+WbAQsj3AhZC3lbBQsjbKlgIeVsFCyFvq2Ah5OUWFsKyrcLFkLdVuBjytgoXQ95W4WLI2ypcDHlbhYshb6twMeRtFS6GvK3Cxaigzi3bKlyMKvp4BY3csq3CxSjWyvea7ebbVi3deAEh5LsBCyHfDFgI+V7AQsjbKlgIeVsFCyFvq2Ah5G0VLIS83MJCWLZVuBjytgoXQ95W4WLI2ypcDHlbhYshb6twMeRtFS6GvK3CxZC3VbgYFdS5ZVuFi1FFH6+gkVu2VbgYxVr5Xk/DfNuqpekhIIR8N2Ah5JsBCyHfC1gIeVsFCyFvq2Ah5G0VLIS8rYKFsPlOgUJYzdZQMWxuVagYNiMrVAybxxUqhs3+ChXD5vmGimGzg0PFsDnFoWLYTORQMSqoc8u2Chejij5eQSO3bKtwMfa38jd5HF5Xds7eqTcJP60dZBfGsc344/XhwgF2r1Xs2hM6DpPvp/PJMG5224eeMd1Dr5P9y+/ms5u9TTE2VtfD4VmQhNfT6O7p7Sheeipvzj+H8XQq8CIahtHLeWZxnPvAjONul+OXMIjnUbjEyFyaV9e9ZNNvTnOa05zmNKc5zWlOc5rTnOY0pznNaU5zmtOc5jSnOc1pTnOa05zmNKc5zWlOc5rTnOY0pznNaU5zmtOc5jSnOc1pTnOa05zmNKc5zWlO/1dN37WmH8MoGg3DX4LswVrTaiufV80ejY13H419FUajMF49Xts4XD9APBtPk9Z4NAn3PiIbf+k53f1P1satxU/Pz6bjIBlNJylUI07C2dFFeDWNwka+J59/Dq/DyXD3hJavNXvtQ6+TPbnczh5kzv7TGIdXSQa2R3ot23p7HSbnkyS7PmmIq/nkckHaPPD+2COxJgw3R7/e+yx3NkZXXjO5GcWteHFX8gXKxtZBrfT6nQeXN83/ALuqrfGzR8dT9pXu29k0HmWCz9KX85zNemQyX6CKpp/ckNZYo8kwzOrhyBw6Hr0e74oeeDUKx1m+NVfXdFkn19F0PguH3jffeH9ZvX7bensTxKvn37MCO9ievfvibHpBWsH19fMsRmscTq6TG+87z/f+7jWejscN78nuO+Lx6DJsHpmD1+03B3vr7d6ZTCOv+S49lfa33rs0zCpVV3Gz1/6WrjjuNygbWRqv9F6/e9N6H955p6eny4tXTHGhurrt71xPdT0uojB4X+Tgz47HuL4/u16rszvN0jpLhlWmLIwcWm+DOB5dT8LhWWYREb9eXMk3xS7l+kbP5vFNs+i9SG/pk+X9LF5J4/GTPGfZyt5ZNEqcRNP3Yb44y/cWjTSdBZej5C5fqNWbC5/VIsQ6VFGV9UKyu6wUKQ/nxScb63LeXXi8I8+4qrmUW37Wz4eLrprr/Z/37Smy8fix9+vvv3n/fvH7S+/Vi5e//fSPH7yfX/zw05n34/nL83wCz9NVO7wNsi2al0y9eBol3mT+Ic2DS29haRJ7QXyZbl5Gk+sciutrn+lsdebg0LvIv7hEYTKPJt4siOLw+XgaJM0gW/IP0lu59drF4rVcF3P/Fm0r7OoU9gl/LtfpZbP/XJT7otibj4bhVTAfJ94smqZrWPjo0Hv018Hg7Oz8/FHJxjPEIQ5xiEMc4hCHOMQhDnGI89+J48XzD+n/AnvDMHvRGwZ3GVEUDklDGtKQhjSkIQ1pSEMa0pCGNHaaT4uvZv2J5mI8D4lDHOIQhzjEIQ5xiEMc4hCHOEVwNr8baLLfDXw1l343sGMWn7A9fXp8fHJCUpKSlKQkJSlJSUpSkpKUpCQlKUnrQeovSINEIm0vSDsd3x/0SEpSkpKUpCQlKUlJSlKSkpSkJCVpPUg7GenzaCSQ+icLUmP6/U6HpCQlKUlJSlKSkpSkJCUpSUlKUpLWg/Q4I/3tZi6RDhakJ+nofk9SkpKUpCQlKUlJSlKSkpSkJCUpSetB2s1I/xUOJdL+gvTZs7Ozfp+kJCUpSUlKUpKSlKQkJSlJSUpSktaDtLf4y8Q8lEh7C9Kzs16PpCQlKUlJSlKSkpSkJCUpSUlKUpLWhbSfkf4ylZwF/e6CdDDw/W6XpCQlKUlJSlKSkpSkJCUpSUlKUpJWRrpGGUbBp+ZesdtWMkrG4aubYBa2kvA2aT76cTqP4v0Yd/ePfDb6EE7i0XQyDuOFwh6Jx4+9p8OhF3gLJe/TKLnx4umH0Bt29hwZf7xuBbNZOBk2G1nsxsGeA9ajFSRJ1GzcNg69XtvxoLv0ID//QXFyNw6XeEfB5PJmGqXHN8bhlQPtSuNqOkmOPoWj65sk07iYjof5NZb35tXs6Pl4Oo28jvf7ZBh+DMfTWTj0jPfqLj469p6PoyPfe3V5c3Tu/fjr+PJDchRP5+n9+N9/eP84P/s+e1sSfvCOvV9f/a/34vIye++jA9sd/u5xfBmNZsn/iO/57vFw9PHL0+Ixsliq5Y2Gp43LLP3P0isWjCZh9Nbvm4a3uI6njeEono2DuyejyTidO7oYTy/ff9uQAVPV5Tl4yd0sPT67lI/fBR+D5avWI7PxMYiyVPVOveHow2wctibhp1cfr5uNv34B8tA7brcX/9lbe5nuMEiCVPj1H41xcBGOG08aw/AqmI8TbxZNr0bjsHG4nHl723hiWu3DxsdgPA8bT7rdVudka3S6h43LbMVKJdJF6Ozs/Lzx+TCXrF+ObKcc2eNyZLvlyPbKke2XIzsoR/akHFnTLkm3pDozJRWaKanSTEmlZkqqNVNSsZmSqs2UVG6mpHrzS6o3v6y+VlK9+SXVm6+pNy+ef/iw89vgRXYOUTh0UM17fd1U815dN9W819ZNNe9K5qaadx1zU827irmp5l3D3FTzrmBuqrk3DI6y5VRX7u2Co2w59ZV7s+AoW06F5d4qOMqWU2O5NwqOsuVUWe5tgqNsST2snCrLvUdwlC1cZZ9Gk0S9PbjI3pFfNu+ldZTNe2kdZfNeWkfZvAuYo2zeBcxRNu8C5iibdwFzlM27gDnK5t4nuOqWVGe5dwquuiVVWu69gqtuSbWWe7fgqltSteXeL7jqllRvuXcMrrpl9bWS6i33psFV163e3uT54GL1AaV36k3CT+sPRhafhzTjj9eHiw829n4Csv6UMw6T76fzyTBudtuHnjHdQ6+T/cvv5vsU5TbF2Hx4OxyeBUl4PY3unt6O4uWnhJtrkeOj1FTgRTQMo5fz7EO73AdmHHe7HL+EQTyPwiVG9rnj6h5oPxxefCC1G+pVGI3CeIWbRlrdkNl4mrSyT8n2hoy/dN77SePWIvFm03GQjKaTFKoRJ+Hs6CK8mkZhI18m/Rxeh5Ph7gktX2v20izoZJmQfahmsv+sPnvd+7H0Wrb19jpMzidJdn3SEFfzyeWCtHng/ZHjw9eMMNwc/XpvbWRjdOU1k5tRnOZ1dly+QNnYOqiVXr/z4PKm+R9gV7U1/uozxpXu29k0HmWCz9KX85zNemQyX6CKpp/ckNZYo8kwzAr3yBw6Hr0e74oeeDUKx1m+NVfXdFkn19F0nn2a/s033l9Wr9+23t4E8Wo9yQrsYHv27ouz6QVpBdfXz7MYrXE4uU5uvO883/u713g6Hje8J7vviMejy7B5ZA5et98c7K23e2cyjbzmu/RU2t9679Iwq1Rdxc1e+9upZ9xvUDayNF7pvX73pvU+TJe309PlxSumuFBd3fZ3rqe6HhdRGLwvcvBnx2Nc359dr9XZnWZpnSXDKlMWjbH1dvnFonC4+GpR/HpxJd8Uu5TrGz2bxzfNovcivaVPlvezeCWNx0/ynGUre2fRKHESTd+H+eIs31s00nQWXI6Su3yhVm8ufFaLEOtQRVXWC8nuslKkPJwXn2ysy3l34fGOPOOq5lJu+Vk/Hy66aq73f963p8jG48fer7//5v37xe8vvVcvXv720z9+8H5+8cNPZ96P5y/P8wk8T1ft8DbItmheMvXiabqRnsw/pHlw6S22iLEXxJfp5mU0uc6huL72mc5WZw4OvYv8i0sUJvNo4s2CKA6fj6dB0gyyJf8gvZVbr10sXst1Mfdv0bbCrk5hn/Dn/4MvgP7pE9vVtzyzD2D/T76PShziEIc4xCEOcYhDHOIQhzi1x7n/zZeMKAqHpCENaUhDGtKQhjSkIQ1pSEMaO8297wRmNNlX/IhDHOIQhzjEIQ5xiEMc4hCHOP+Htou/hR9mYRQk8yj0ms8PaLz4sIwX57PZ+M57Ooq87EbVxDPRr4Nnok/PRGdrA3omusvSM5Geie7WBvRMLKZLz0R6JtIzkZ6J9EykZ+KXZOmZSM9EeiY6bxPomeguS89EeibSM9F1m0DPxGK69EykZyI9E+mZ+IUPLuiZ+AUOeibSM9GjZ2I+LHom0jOxyKBnYjbomUjPxMWgZ6L9nfRM3C+QDXom1sNahDjEIQ5xiEMc4hCHOMQhDnFqj/PAHEdIQxrSkIY0pCENaUhDGtKQpj40X43TCXGIQxziEIc4xCEOcYhDHOIUj0fPxC8PeiYuPRM9UxPXxE4dXBM7dE10Njega6K7LF0T6Zrobm5A18RiunRNpGsiXRPpmkjXRLomfkmWrol0TaRrovM2ga6J7rJ0TaRrIl0TXbcJdE0spkvXRLom0jWRrolf+OCCrolf4KBrIl0TPbom5sOiayJdE4sMuiZmg66JdE1cDLom2t9J18T9Atmga2I9zEWIQxziEIc4xCEOcYhDHOIQp/Y4D8xzhDSkIQ1pSEMa0pCGNKQhDWnqQ/PVeJ0QhzjEIQ5xiEMc4hCHOMQhTvF4dE388qBr4so10a+Ja+JxHVwTjytzTVz8u6g9E0inA9I5Bul0QTo9kE4fpDMA6ZyAdHZcBVRCqIw2qJQ2qJw2qKQ2qKw2qLQ2qLw2qMQ2qMz2UZntw9ZqVGb7qMz2nTI7v5vfjlRx+z6FjHiFihv0KWTEui9uwaeQEWu+uMmeQkasd4WNnkYHlMdyG1M442l0QKks9zCF2Z1GB5TNcgNT+Ndp1kFQPsvdS2FJp9EB5bPcuoq7zO3IKGzlNDri5VEYx2l0xHJXWMNpdMRyV5i/aXTEctfYu6mEUBktdzCNY5tKCJXUchPTmLCphFB5Lfcxja+aamVEZbbcyjRWaSohVGbL3eye0K/RaBqNkjvPeEde89V8cpD5UPWO/l8wOWqbo8W/n4WXRx0jtbn2zv/oPX16fHxyAgjhlx+iU36I4/JDdMsP0Ss/RL/8EIPyQ5yUH2Kns5cVo4L6NhUUuKmgwk0FJW4qqHFTQZGbCqrcVFDmpoI69yuoc7+KPl5BnfsV1LlfrM79RYwgkWK0822rOh3fH/QAIeS7AQsh3wxYCPlewELISy4shLziwkLICy4shLzewkLIyy0shGVbhYtRQX1btlW4GBVUuGVbhYtRQY1btlW4GBVUuWVbhYtRQZ1btlW4GFX08Qrq3LKtwsUoVuedLMbzaCTE8E/ybauM6fc7HUAI+W7AQsg3AxZCvhewEPKSCwshr7iwEPKCCwshfwMKFkL+bhQshOULgbgY8jeqcDHkL1vhYsjfw8LFkL+ihYshfy8RF0P+yiIuhvxtRlyMCsrc8h1IXP+roM4t35zExaigzi3ft8TFKNbKj7MYv93MpRiDfNuq7DeXut8DQsjbKlgIeVsFCyHfC1gIeVsFCyFvq2Ah5G0VLIS83sJCyMstLIRlW4WLIS+3uBjycouLIS+3uBjytgoXQ95W4WLI2ypcDHlbhYtRQZlbtlW4/ldBnVu2VbgYFdS5ZVuFi1GslXezGP8Kh1KMfr5t1bNnZ2f9PiCEvK2ChZC3VbAQ8r2AhZC3VbAQ8rYKFkLeVsFCyOstLIS83MJCWLZVuBjycouLIS+3uBjycouLIW+rcDHkbRUuhrytwsWQt1W4GBWUuWVbhet/FdS5ZVuFi1FBnVu2VbgYxVp5b7F1m4dSjF6+bdXZWa8HCSFvq2Ah5G0VLIR8L2Ah5G0VLIS8rYKFkLdVsBDyegsLIS+3sBCWbRUuhrzc4mLIyy0uhrzc4mLI2ypcDHlbhYshb6twMeRtFS5GBWVu2Vbh+l8FdW7ZVuFiVFDnlm0VLkaxVt7PYvwylb4W73fzbasGA9/vdgEh5G0VLIS8rYKFkO8FLIS8rYKFkLdVsBDytgoWwuYuBQph850ChbCaraFiyMstLobNyAoVw+ZxhYphs79CxbB5vqFi2OzgUDFsTnGoGBWUudVfDtX/KqhzqysdKkYFdW71skPF2N/K3+RxeF0ZMXun3iT8tHaQXRjHNuOP14cLB9i9VrFrN+c4TL6fzifDuNltH3rGdA+9TvYvv5vPbvY2xdg4UQ+HZ0ESXk+ju6e3o3jphbw5/xyW0anAi2gYRi/nmTVx7gMzjrtdjl/CIJ5H4RIjc1deXfeSPbk5zWlOc5rTnOY0pznNaU5zmtOc5jSnOc1pTnOa05zmNKc5zWlOc5rTnOY0pznNaU5zmtOc5jSnOc1pTnOa05zmNKc5zWlOc5rTnOY0pzn9XzV915p+DKNoNAx/CbIHa02rrXxeNXs0Nt59NPZVGI3CePV4beNw/QDxbDxNWuPRJNz7iGz8ped09z9ZG7cWPz0/m46DZDSdpFCNOAlnRxfh1TQKG/mefP45vA4nw90TWr7W7LUPvU725HI7e5A5+09jHF4lGdge6bVs6+11mJxPkuz6pCGu5pPLBWnzwPtjj8SaMNwc/Xrvs9zZGF15zeRmFLfixV3JFygbWwe10ut3HlzeNP8D7Kq2xs8eHU/ZV7pvZ9N4lAk+S1/Oczbrkcl8gSqafnJDWmONJsMwq4cjc+h49Hq8K3rg1SgcZ/nWXF3TZZ1cR9P5LBx633zj/WX1+m3r7U0Qr55/zwrsYHv27ouz6QVpBdfXz7MYrXE4uU5uvO883/u713g6Hje8J7vviMejy7B5ZA5et98c7K23e2cyjbzmu/RU2t9679Iwq1Rdxc1e+1u64rjfoGxkabzSe/3uTet9eOednp4uL14xxYXq6ra/cz3V9biIwuB9kYM/Ox7j+v7seq3O7jRL6ywZVpmyMHJovQ3ieHQ9CYdnmUVE/HpxJd8Uu5TrGz2bxzfNovcivaVPlvezeCWNx0/ynGUre2fRKHESTd+H+eIs31s00nQWXI6Su3yhVm8ufFaLEOtQRVXWC8nuslKkPJwXn2ysy3l34fGOPOOq5lJu+Vk/Hy66aq73f963p8jG48fer7//5v37xe8vvVcvXv720z9+8H5+8cNPZ96P5y/P8wk8T1ft8DbItmheMvXiaZR4k/mHNA8uvYWlSewF8WW6eRlNrnMorq99prPVmYND7yL/4hKFyTyaeLMgisPn42mQNINsyT9Ib+XWaxeL13JdzP1btK2wq1PYJ/y5XKeXzf5zUe6LYm8+GoZXwXyceLNomq5h4aND79FfB4Ozs/PzRyUbzxCHOMQhDnGIQxziEIc4xCHOfyeOF88/pP8L7A3D7EVvGNxlRFE4JA1pSEMa0pCGNKQhDWlIQxrS2Gk+Lb6a9Seai/E8JA5xiEMc4hCHOMQhDnGIQxziFMHZ/G6gyX438NVc+t3Ajll8wvb06fHxyQlJSUpSkpKUpCQlKUlJSlKSkpSkJK0Hqb8gDRKJtL0g7XR8f9AjKUlJSlKSkpSkJCUpSUlKUpKSlKT1IO1kpM+jkUDqnyxIjen3Ox2SkpSkJCUpSUlKUpKSlKQkJSlJSVoP0uOM9LebuUQ6WJCepKP7PUlJSlKSkpSkJCUpSUlKUpKSlKQkrQdpNyP9VziUSPsL0mfPzs76fZKSlKQkJSlJSUpSkpKUpCQlKUlJWg/S3uIvE/NQIu0tSM/Oej2SkpSkJCUpSUlKUpKSlKQkJSlJSVoX0n5G+stUchb0uwvSwcD3u12SkpSkJCUpSUlKUpKSlKQkJSlJSVoZ6RplGAWfmnvFblvJKBmHr26CWdhKwtuk+ejH6TyK92Pc3T/y2ehDOIlH08k4jBcKeyQeP/aeDode4C2UvE+j5MaLpx9Cb9jZc2T88boVzGbhZNhsZLEbB3sOWI9WkCRRs3HbOPR6bceD7tKD/PwHxcndOFziHQWTy5tplB7fGIdXDrQrjavpJDn6FI6ub5JM42I6HubXWN6bfz795/ICvwxvwiDxjPfi8tJ7dXnz6MB2m757HF9Go1nyP+J7vns8HH388rR4jCyWanmj4WnjMsvhs/S0g9EkjN76/W7DW1yM08ZwFM/Gwd2T0WSczh1djKeX779tyICp6vIcvORulh6fXY/H74KPwfJV65HZ+BhEWb55p95w9GE2DluT8NOrj9fNxl+/AHnoHbfbi//sLaBMdxgkQSr8+o/GOLgIx40njWF4FczHiTeLplejcdg4XM68vW08Ma32YeNjMJ6Hq39fZutMeky6dJydnZ83Ph/m0vFBOh2QzjFIpwvS6YF0+iCdAUjnBKRj2ighVEYbVEobVE4bVFIbVFYbVFobVF4bVGIbVGb7qMz2YWs1KrN9VGb7TpntxfMPH3Z+eDpXR4vCoYOMeI3cZMQr5CYjXh83GbHu3WTEqneTEWveTUaseDcZsd7dZORG5qgDymO5jTnqgDJZbmKOOqBclluYow4om+UG5qgDyme5fTnqoNZlUD7LvctRJ38+fxpNEve2dZG9lF9HvDyOOuLlcdQRL4+jjljujjpiuTvqiOXuqCOWu6OOWO6OOnL/chVCZbTcwVyFUDkt9zBXIVRWy13MVQiV13IfcxVCZbbcyVyFYGs1KrPlZuYqlD+zN59E7P2lYKnNtXf+R2/5U8KAEH75ITrlhzguP0S3/BC98kP0yw8xKD/ESfkhdjp7WTEqqG9TQYGbCircVFDipoIaNxUUuamgyk0FZW4qqHO/gjr3q+jjFdS5X0Gd+8XqfO8PMubbVi1/sREQQr4bsBDyzYCFkO8FLIS85MJCyCsuLIS84MJCyOstLIS83MJCWLZVuBgV1LdlW4WLUUGFW7ZVuBgV1LhlW4WLUUGVW7ZVuBgV1LllW4WLUUUfr6DOLdsqXIxidb73d6/ybauWP4wFCCHfDVgI+WbAQsj3AhZCXnJhIeQVFxZCXnBhIeRvQMFCyN+NgoWwfCEQF0P+RhUuhvxlK1wM+XtYuBjyV7RwMeTvJeJiyF9ZxMWQv82Ii1FBmVu+A4nrfxXUueWbk7gYFdS55fuWuBjFWvnenxfJt61a/v4IIIS8rYKFkLdVsBDyvYCFkLdVsBDytgoWQt5WwULI6y0shLzcwkJYtlW4GPJyi4shL7e4GPJyi4shb6twMeRtFS6GvK3CxZC3VbgYFZS5ZVuF638V1LllW4WLUUGdW7ZVuBjFWvleF/d826qlzTsghLytgoWQt1WwEPK9gIWQt1WwEPK2ChZC3lbBQsjrLSyEvNzCQli2VbgY8nKLiyEvt7gY8nKLiyFvq3Ax5G0VLoa8rcLFkLdVuBgVlLllW4XrfxXUuWVbhYtRQZ1btlW4GMVa+V6z3HzbqqWbLiCEvK2ChZC3VbAQ8r2AhZC3VbAQ8rYKFkLeVsFCyOstLIS83MJCWLZVuBjycouLIS+3uBjycouLIW+rcDHkbRUuhrytwsWQt1W4GBWUuWVbhet/FdS5ZVuFi1FBnVu2VbgYxVr5Xk/CfNuqpWkhIIS8rYKFkLdVsBDyvYCFkLdVsBDytgoWQt5WwULY3KVAIWy+U6AQVrM1VAx5ucXFsBlZoWLYPK5QMWz2V6gYNs83VAybHRwqhs0pDhWjgjK3+suh+l8FdW51pUPFqKDOrV52qBj7W/mbPA6vKztm79SbhJ/WDrIL49hm/PH6cOEAu9cqdu3pHIfJ99P5ZBg3u+1Dz5juodfJ/uV389nN3qYYG6vq4fAsSMLraXT39HYULz2RN+efwzg6FXgRDcPo5TyzKM59YMZxt8vxSxjE8yhcYmQuy6vrXrJpN6c5zWlOc5rTnOY0pznNaU5zmtOc5jSnOc1pTnOa05zmNKc5zWlOc5rTnOY0pznNaU5zmtOc5jSnOc1pTnOa05zmNKc5zWlOc5rTnOY0p/+rpu9a049hFI2G4S9B9mCtabWVz6tmj8bGu4/GvgqjURivHq9tHK4fIJ6Np0lrPJqEex+Rjb/0nO7+J2vj1uKn52fTcZCMppMUqhEn4ezoIryaRmEj35PPP4fX4WS4e0LL15q99qHXyZ5cbmcPMmf/aYzDqyQD2yO9lm29vQ6T80mSXZ80xNV8crkgbR54f+yRWBOGm6Nf732WOxujK6+Z3IziVry4K/kCZWProFZ6/c6Dy5vmf4Bd1db42aPjKftK9+1sGo8ywWfpy3nOZj0ymS9QRdNPbkhrrNFkGGb1cGQOHY9ej3dFD7waheMs35qra7qsk+toOp+FQ++bb7y/rF6/bb29CeLV8+9ZgR1sz959cTa9IK3g+vp5FqM1DifXyY33ned7f/caT8fjhvdk9x3xeHQZNo/Mwev2m4O99XbvTKaR13yXnkr7W+9dGmaVqqu42Wt/S1cc9xuUjSyNV3qv371pvQ/vvNPT0+XFK6a4UF3d9neup7oeF1EYvC9y8GfHY1zfn12v1dmdZmmdJcMqUxZGDq23QRyPrifh8CyziIhfL67km2KXcn2jZ/P4pln0XqS39MnyfhavpPH4SZ6zbGXvLBolTqLp+zBfnOV7i0aazoLLUXKXL9TqzYXPahFiHaqoynoh2V1WipSH8+KTjXU57y483pFnXNVcyi0/6+fDRVfN9f7P+/YU2Xj82Pv199+8f7/4/aX36sXL3376xw/ezy9++OnM+/H85Xk+gefpqh3eBtkWzUumXjyNEm8y/5DmwaW3sDSJvSC+TDcvo8l1DsX1tc90tjpzcOhd5F9cojCZRxNvFkRx+Hw8DZJmkC35B+mt3HrtYvFarou5f4u2FXZ1CvuEP5fr9LLZfy7KfVHszUfD8CqYjxNvFk3TNSx8dOg9+utgcHZ2fv6oZOMZ4hCHOMQhDnGIQxziEIc4xPnvxPHi+Yf0f4G9YZi96A2Du4woCoekIQ1pSEMa0pCGNKQhDWlIQxo7zafFV7P+RHMxnofEIQ5xiEMc4hCHOMQhDnGIQ5wiOJvfDTTZ7wa+mku/G9gxi0/Ynj49Pj45ISlJSUpSkpKUpCQlKUlJSlKSkpSk9SD1F6RBIpG2F6Sdju8PeiQlKUlJSlKSkpSkJCUpSUlKUpKStB6knYz0eTQSSP2TBakx/X6nQ1KSkpSkJCUpSUlKUpKSlKQkJSlJ60F6nJH+djOXSAcL0pN0dL8nKUlJSlKSkpSkJCUpSUlKUpKSlKT1IO1mpP8KhxJpf0H67NnZWb9PUpKSlKQkJSlJSUpSkpKUpCQlKUnrQdpb/GViHkqkvQXp2VmvR1KSkpSkJCUpSUlKUpKSlKQkJSlJ60Laz0h/mUrOgn53QToY+H63S1KSkpSkJCUpSUlKUpKSlKQkJSlJKyNdowyj4FNzr9htKxkl4/DVTTALW0l4mzQf/TidR/F+jLv7Rz4bfQgn8Wg6GYfxQmGPxOPH3tPh0Au8hZL3aZTcePH0Q+gNO3uOjD9et4LZLJwMm40sduNgzwHr0QqSJGo2bhuHXq/teNBdepCf/6A4uRuHS7yjYHJ5M43S4xvj8MqBdqVxNZ0kR5/C0fVNkmlcTMfD/BrLe/PPp/9cXuCX4U0YJJ7vvbi89F5d3jw6sN2m7x7Hl9FolvyP+J7vHg9HH788LR4ji6Va3mh42rjMcvgsPe1gNAmjt36/1/AWF+O0MRzFs3Fw92Q0GadzRxfj6eX7bxsyYKq6PAcvuZulx2fX4/G74GOwfNV6ZDY+BlGWb96pNxx9mI3D1iT89OrjdbPx1y9AHnrH7fbiP3sLKNMdBkmQCr/+ozEOLsJx40ljGF4F83HizaLp1WgcNg6XM29vG09Mq33Y+BiM5+Hq35fZOpMeky4dZ2fn543Ph7l0fJBOB6RzDNLpgnR6IJ0+SGcA0jkB6Zg2SgiV0QaV0gaV0waV1AaV1QaV1gaV1waV2AaV2T4qs33YWo3KbB+V2b5TZnvx/MOHnR+eztXRonDoICNeIzcZ8Qq5yYjXx01GrHs3GbHq3WTEmneTESveTUasdzcZuZE56oDyWG5jjjqgTJabmKMOKJflFuaoA8pmuYE56oDyWW5fjjqodRmUz3LvctTJn8+fRpPEvW1dZC/l1xEvj6OOeHkcdcTL46gjlrujjljujjpiuTvqiOXuqCOWu6OO3L9chVAZLXcwVyFUTss9zFUIldVyF3MVQuW13MdchVCZLXcyVyHYWo3KbLmZuQrlz+zNJxF7fyk4398blz8lDAgh/98tLIT8/72wEPL/EcNCyH8FgoWQ/z4ECyH/5QgWQv6bEiyE/NcmWAjLn1hxMSqob8sfZnExKqhwy59zcTEqqHHLH4FxMSqocsufjnExKqhzyx+ccTGq6OMV1LnlL9i4GMXqfO8PMubbVi1/sREQQr4bsBDyzYCFkO8FLIS85MJCyCsuLIS84MJCyOstLIS83MJCWLZVuBgV1LdlW4WLUUGFW7ZVuBgV1LhlW4WLUUGVW7ZVuBgV1LllW4WLUUUfr6DOLdsqXIxidb73d6/ybauWP4wFCCHfDVgI+WbAQsj3AhZCXnJhIeQVFxZCXnBhIeT1FhZCXm5hISzbKlyMCurbsq3Cxaigwi3bKlyMCmrcsq3Cxaigyi3bKlyMCurcsq3Cxaiij1dQ55ZtFS5GsTrf+/Mi+bZVy98fAYSQ7wYshHwzYCHkewELIS+5sBDyigsLIS+4sBDyegsLIS+3sBCWbRUuRgX1bdlW4WJUUOGWbRUuRgU1btlW4WJUUOWWbRUuRgV1btlW4WJU0ccrqHPLtgoXo1id73Vxz7etWtq8A0LIdwMWQr4ZsBDyvYCFkJdcWAh5xYWFkBdcWAh5vYWFkJdbWAjLtgoXo4L6tmyrcDEqqHDLtgoXo4Iat2yrcDEqqHLLtgoXo4I6t2yrcDGq6OMV1LllW4WLUazO95rl5ttWLd10ASHkuwELId8MWAj5XsBCyEsuLIS84sJCyAsuLIS83sJCyMstLIRlW4WLUUF9W7ZVuBgVVLhlW4WLUUGNW7ZVuBgVVLllW4WLUUGdW7ZVuBhV9PEK6tyyrcLFKFbnez0J822rlqaFgBA2nxtQCJsDDiiEzRsHFMLmBwUKYXOKAoWweUiBQtjcpUAhbL5ToBBWszVUjArq22rRhopRQYVbjd1QMSqocasdHCpGBVVuNZFDxaigzq3Wc6gYVfTxCurc6mWHirG/zt/kcXhd2TF7p94k/LR2kF0Yxzbjj9eHCwfYvVaxa0/nOEy+n84nw7jZbR96xnQPvU72L7+bz272NsXYWFUPh2dBEl5Po7unt6N46Ym8Of8cxtGpwItoGEYv55lFce4DM467XY5fwiCeR+ESI3NZXl33kk27Oc1pTnOa05zmNKc5zWlOc5rTnOY0pznNaU5zmtOc5jSnOc1pTnOa05zmNKc5zWlOc5rTnOY0pznNaU5zmtOc5jSnOc1pTnOa05zmNKc5/V81fdeafgyjaDQMfwmyB2tNq618XjV7NDbefTT2VRiNwnj1eG3jcP0A8Ww8TVrj0STc+4hs/KXndPc/WRu3Fj89P5uOg2Q0naRQjTgJZ0cX4dU0Chv5nnz+ObwOJ8PdE1q+1uy1D71O9uRyO3uQOftPYxxeJRnYHum1bOvtdZicT5Ls+qQhruaTywVp88D7Y4/EmjDcHP1677Pc2Rhdec3kZhS34sVdyRcoG1sHtdLrdx5c3jT/A+yqtsbPHh1P2Ve6b2fTeJQJPktfznM265HJfIEqmn5yQ1pjjSbDMKuHI3PoePR6vCt64NUoHGf51lxd02WdXEfT+Swcet984/1l9fpt6+1NEK+ef88K7GB79u6Ls+kFaQXX18+zGK1xOLlObrzvPN/7u9d4Oh43vCe774jHo8uweWQOXrffHOytt3tnMo285rv0VNrfeu/SMKtUXcXNXvtbuuK436BsZGm80nv97k3rfXjnnZ6eLi9eMcWF6uq2v3M91fW4iMLgfZGDPzse4/r+7Hqtzu40S+ssGVaZsjByaL0N4nh0PQmHZ5lFRPx6cSXfFLuU6xs9m8c3zaL3Ir2lT5b3s3gljcdP8pxlK3tn0ShxEk3fh/niLN9bNNJ0FlyOkrt8oVZvLnxWixDrUEVV1gvJ7rJSpDycF59srMt5d+HxjjzjquZSbvlZPx8uumqu93/et6fIxuPH3q+//+b9+8XvL71XL17+9tM/fvB+fvHDT2fej+cvz/MJPE9X7fA2yLZoXjL14mmUeJP5hzQPLr2FpUnsBfFlunkZTa5zKK6vfaaz1ZmDQ+8i/+IShck8mnizIIrD5+NpkDSDbMk/SG/l1msXi9dyXcz9W7StsKtT2Cf8uVynl83+c1Hui2JvPhqGV8F8nHizaJquYeGjQ+/RXweDs7Pz80clG88QhzjEIQ5xiEMc4hCHOMQhzn8njhfPP6T/C+wNw+xFbxjcZURROCQNaUhDGtKQhjSkIQ1pSEMa0thpPi2+mvUnmovxPCQOcYhDHOIQhzjEIQ5xiEMc4hTB2fxuoMl+N/DVXPrdwI5ZfML29Onx8ckJSUlKUpKSlKQkJSlJSUpSkpKUpCStB6m/IA0SibS9IO10fH/QIylJSUpSkpKUpCQlKUlJSlKSkpSk9SDtZKTPo5FA6p8sSI3p9zsdkpKUpCQlKUlJSlKSkpSkJCUpSUlaD9LjjPS3m7lEOliQnqSj+z1JSUpSkpKUpCQlKUlJSlKSkpSkJK0HaTcj/Vc4lEj7C9Jnz87O+n2SkpSkJCUpSUlKUpKSlKQkJSlJSVoP0t7iLxPzUCLtLUjPzno9kpKUpCQlKUlJSlKSkpSkJCUpSUlaF9J+RvrLVHIW9LsL0sHA97tdkpKUpCQlKUlJSlKSkpSkJCUpSUlaGekaZRgFn5p7xW5bySgZh69uglnYSsLbpPnox+k8ivdj3N0/8tnoQziJR9PJOIwXCnskHj/2ng6HXuAtlLxPo+TGi6cfQm/Y2XNk/PG6Fcxm4WTYbGSxGwd7DliPVpAkUbNx2zj0em3Hg+7Sg/z8B8XJ3Thc4h0Fk8ubaZQe3xiHVw60K42r6SQ5+hSOrm+STONiOh7m11jem38+/efyAr8Mb8Ig8V5cXnqvLm8eHdhu0neP48toNEv+R3zPd4+Ho49fnhaPkcVSLW80PG1cZhl8lp50MJqE0Vu/3294i0tx2hiO4tk4uHsymozTuaOL8fTy/bcNGTBVXZ6Dl9zN0uOzq/H4XfAxWL5qPTIbH4Moyzbv1BuOPszGYWsSfnr18brZ+OsXIA+943Z78Z+95ZPpDoMkSIVf/9EYBxfhuPGkMQyvgvk48WbR9Go0DhuHy5m3t40nptU+bHwMxvOw8aR30jrZGoOTw8ZltuakCukycnZ2ft74fJhL1S9FtVOK6nEpqt1SVHulqPZLUR2UonpSiqpplyNbTnWZcsrLlFNfppwCM+VUmCmnxEw5NWbKKTJTTpX55VSZX1IPK6fK/HKqzFdUmRfPP3zY+RnvAjuEKBw6iOa8tm6iOa+sm2jO6+ommnPtchPNuXK5ieZct9xEc65abqI51yw30bwbA0fVUmoq77bAUbWUqsq7KXBULaWu8m4JHFVLqay8GwJH1VJqK+92wFG1nH5VSm3l3Qs4qhatrU+jSaLdBlxkb8ivmvOyOqrmvKyOqjkvq6NqziXLUTXnkuWomnPJclTNuWQ5quZcshxV8+4HXGXLqa68OwJX2XLqK++ewFW2nArLuytwlS2nxvLuC1xly6myvDsDV9mSelg5VZZ3c+Aq61Rlb/J84LD6bNA79Sbhp/UHGovPMZrxx+vDxQcSez+5WH/AGIfJ99P5ZBg3u+1Dz5juodfJ/uV38336cZtibD43HQ7PgiS8nkZ3T29H8fIDus2lyPEpZirwIhqG0ct59nlZ7gMzjrtdjl/CIJ5H4RIj+8hvdQu0n8suPkjaDfUqjEZhvMJNI61uyGw8TVrZp1t7Q8ZfOu/9pHFrkXez6ThIRtNJCtWIk3B2dBFeTaOwkS+Tfg6vw8lw94SWrzV7aRZ0skzIPgwz2X9WH3vu/UR4Ldt6ex0m55Mkuz5piKv55HJB2jzw/sjxuWdGGG6Ofr23NrIxuvKayc0oTvM6Oy5foGxsHdRKr995cHnT/A+wq9oaf/XZ4Er37WwajzLBZ+nLec5mPTKZL1BF009uSGus0WQYZoV7ZA4dj16Pd0UPvBqF4yzfmqtruqyT62g6n4VD75tvvL+sXr9tvb0J4tV6khXYwfbs3Rdn0wvSCq6vn///ds6oN20YisLv+xVWn0BrKWHr2nVjU7WVttK2Tl2raUJoCuCWQEhQEqbxwH9fHBIEdB6J71UB7fglwA3Hn+1rOyruUXVUXOk9RD3xVtTEe7F35rp74nT5jtB1OrJ0YJWb1VZ57Xx71BI/EKV+3JTqG9GPq0lTNa1Xffa8LqziA6SKSuNUr9lvVQYyXt7q9VnnmSkmqumw94s2NSvtQNoDky9PC36n6P2qv9LW1VVaq2RIMyXZGCs/Z2d6ZDc51RM2k55smXVlNtCjcdgrmY5FPKSns/E0n0mue5qnlRV1p2ktYRT4A5mvntm9pjX5I7vjRJN8VaU3G7cqqSKrylQlW0iWlxWT6VF48VElm87LC484EFZRtSLTLT/rdD/ZVXPdP133TKHK4aH4encrflzf3Yhv1ze3V18uxKfri6sP4vL85jyfQCNeteVvWz2iicgXoR8/SHvjYZwHHZE8IobCDjvxw4vjPeRQzPpe6SzszPa+aOdfXAIZjQNPjOwglA3Xt6OSrZb8cjyUC5+1k89ydeb6R7SFatMmrBOebuDs5coPsOkBS/WD6kaOggIHOMABDnCAAxzgAAc4wAHOzuM8PuCiiALZBQ1oQAMa0IAGNKABDWhAAxrQ/Jvm0ZFARaOO+AEHOMABDnCAAxzgAAc4wAEOcDboeHgrhyMZ2NE4kKLUKMPzcKs8D7/bKuMuZXI5G7Yd6UVCDZlyPpTdcdz/B+K42tgRE8STXTBBPHkyE8TkX09NTZiYdF4w6bxk0jli0nnFpHPMpHPCpPOaSWfJXYAkxJXRFldKW1w5bXEltcWV1RZXWltceW1xJbbFldk1rsyusa3VXJld48rsWqHMzm/atyRlbtNHkNH2kLkVH0FGO+/N7fYIMto5b26pR5DRzneCbR5FhymP9dsYwQyPosOUyvo9jGBxR9Fhymb9BkYwrqOsg0z5rN+9CHZ0FB2mfNZvXeYmc0syBFs5io62ewjWcRQd7XQn2MNRdLTTnWABR9HRTneKzRtJiCuj9TsYxbyNJMSV1PpNjGLJRhLiymv9PkYxWiOtjFyZrd/KKPZpJCGuzNbvZjBF2wlTNIQRRhhhhBFGGGGEEUYYYYQRRhhhhLcpPKn4v2QQOF352VZ/qLIqVZjiL7QEpvjzAlP8QgWm+DDFL1Bgir9aYIq/WmCKX7DAFB+m+H8tMMUHDnCAAxzgAAc4wAEOcIADHODsgqUkaEADGtCABjSgAQ1oQAMa0OwOzX9jZQkc4AAHOMABDnCAAxzgAAc45vVtwBT/ozOUXuj4nivDEJb422WJ7wcDcX5/73Qc6XUmcyP8p7XAT+9eiSy+z17PrnP19MX80va7E3XtRUP33bM/xy7ezA=="
               },
               {
                  "name" : "annual_peak_electric_demand",
                  "units" : "kW",
                  "value" : 384.83937000000003
               },
               {
                  "name" : "first_year_capital_cost",
                  "units" : "$",
                  "value" : 0
               },
               {
                  "name" : "annual_utility_cost",
                  "units" : "$",
                  "value" : 125859.96000000001
               },
               {
                  "name" : "total_lifecycle_cost",
                  "units" : "$",
                  "value" : 2107199.3799999999
               }
            ],
            "step_warnings" : [ "A table in Annual Overview section returned false and was skipped." ]
         }
      }
   ],
   "updated_at" : "20170710T192807Z",
   "weather_file" : "USA_CO_Denver.Intl.AP.725650_TMY3.epw"
}
