{
   "completed_at" : "20170710T191503Z",
   "completed_status" : "Success",
   "created_at" : "2017-07-10 19:08:08 +0000",
   "current_step" : 5,
   "description" : "",
   "eplusout_err" : "Program Version,EnergyPlus, Version 8.7.0-78a111df4a, YMD=2017.07.10 19:11,IDD_Version 8.7.0\n   ************* IDF Context for following error/warning message:\n   ************* Note -- lines truncated at 300 characters, if necessary...\n   *************      5 Building,\n   ************* indicated Name=NECB 2011-PrimarySchool-NECB HDD Method-CAN_PQ_Montreal.Intl.AP.716270_CWEC.epw created: 2017-07-10 19:08:14 +0000\n   ************* Only last 1 lines before error line shown.....\n   *************      6   NECB 2011-PrimarySchool-NECB HDD Method-CAN_PQ_Montreal.Intl.AP.716270_CWEC.epw created: 2017-07-10 19:08:14 +0000, !- Name\n   ** Warning ** IP: IDF line~6 Alpha Argument length exceeds maximum, will be truncated=  NECB 2011-PrimarySchool-NECB HDD Method-CAN_PQ_Montreal.Intl.AP.716270_CWEC.epw created: 2017-07-10 19:08:14 +000\n   **   ~~~   ** Will be processed as Alpha=NECB 2011-PRIMARYSCHOOL-NECB HDD METHOD-CAN_PQ_MONTREAL.INTL.AP.716270_CWEC.EPW CREATED: 2017-07-10 19:08:14 +0000\n   ************* IDF Context for following error/warning message:\n   ************* Note -- lines truncated at 300 characters, if necessary...\n   *************   1050 Schedule:Week:Daily,\n   ************* indicated Name=Schedule:Week:Daily {556fbd89-7c01-47a0-9b8a-cf0e0c858d9f}\n   ************* Only last 10 lines before error line shown.....\n   *************   1051   Schedule:Week:Daily {556fbd89-7c01-47a0-9b8a-cf0e0c858d9f}, !- Name\n   *************   1052   Sp-Cafeteria_ZN_1_FLR_1 Sys-3 Flr-1 Sch-C HPlcmt-north ZN NECB System 3 PSZ Occ Sch Sunday, !- Sunday Schedule:Day Name\n   *************   1053   Sp-Cafeteria_ZN_1_FLR_1 Sys-3 Flr-1 Sch-C HPlcmt-north ZN NECB System 3 PSZ Occ Sch Monday, !- Monday Schedule:Day Name\n   *************   1054   Sp-Cafeteria_ZN_1_FLR_1 Sys-3 Flr-1 Sch-C HPlcmt-north ZN NECB System 3 PSZ Occ Sch Tuesday, !- Tuesday Schedule:Day Name\n   *************   1055   Sp-Cafeteria_ZN_1_FLR_1 Sys-3 Flr-1 Sch-C HPlcmt-north ZN NECB System 3 PSZ Occ Sch Wednesday, !- Wednesday Schedule:Day Name\n   *************   1056   Sp-Cafeteria_ZN_1_FLR_1 Sys-3 Flr-1 Sch-C HPlcmt-north ZN NECB System 3 PSZ Occ Sch Thursday, !- Thursday Schedule:Day Name\n   *************   1057   Sp-Cafeteria_ZN_1_FLR_1 Sys-3 Flr-1 Sch-C HPlcmt-north ZN NECB System 3 PSZ Occ Sch Friday, !- Friday Schedule:Day Name\n   *************   1058   Sp-Cafeteria_ZN_1_FLR_1 Sys-3 Flr-1 Sch-C HPlcmt-north ZN NECB System 3 PSZ Occ Sch Saturday, !- Saturday Schedule:Day Name\n   *************   1059   Sp-Cafeteria_ZN_1_FLR_1 Sys-3 Flr-1 Sch-C HPlcmt-north ZN NECB System 3 PSZ Occ Sch Default, !- Holiday Schedule:Day Name\n   *************   1060   Sp-Cafeteria_ZN_1_FLR_1 Sys-3 Flr-1 Sch-C HPlcmt-north ZN NECB System 3 PSZ Occ Sch Summer Design Day, !- SummerDesignDay Schedule:Day Name\n   ** Warning ** IP: IDF line~1060 Alpha Argument length exceeds maximum, will be truncated=  Sp-Cafeteria_ZN_1_FLR_1 Sys-3 Flr-1 Sch-C HPlcmt-north ZN NECB System 3 PSZ Occ Sch Summer Design Da\n   **   ~~~   ** Will be processed as Alpha=SP-CAFETERIA_ZN_1_FLR_1 SYS-3 FLR-1 SCH-C HPLCMT-NORTH ZN NECB SYSTEM 3 PSZ OCC SCH SUMMER DESIGN DAY\n   ************* IDF Context for following error/warning message:\n   ************* Note -- lines truncated at 300 characters, if necessary...\n   *************   1050 Schedule:Week:Daily,\n   ************* indicated Name=Schedule:Week:Daily {556fbd89-7c01-47a0-9b8a-cf0e0c858d9f}\n   ************* Only last 10 lines before error line shown.....\n   *************   1052   Sp-Cafeteria_ZN_1_FLR_1 Sys-3 Flr-1 Sch-C HPlcmt-north ZN NECB System 3 PSZ Occ Sch Sunday, !- Sunday Schedule:Day Name\n   *************   1053   Sp-Cafeteria_ZN_1_FLR_1 Sys-3 Flr-1 Sch-C HPlcmt-north ZN NECB System 3 PSZ Occ Sch Monday, !- Monday Schedule:Day Name\n   *************   1054   Sp-Cafeteria_ZN_1_FLR_1 Sys-3 Flr-1 Sch-C HPlcmt-north ZN NECB System 3 PSZ Occ Sch Tuesday, !- Tuesday Schedule:Day Name\n   *************   1055   Sp-Cafeteria_ZN_1_FLR_1 Sys-3 Flr-1 Sch-C HPlcmt-north ZN NECB System 3 PSZ Occ Sch Wednesday, !- Wednesday Schedule:Day Name\n   *************   1056   Sp-Cafeteria_ZN_1_FLR_1 Sys-3 Flr-1 Sch-C HPlcmt-north ZN NECB System 3 PSZ Occ Sch Thursday, !- Thursday Schedule:Day Name\n   *************   1057   Sp-Cafeteria_ZN_1_FLR_1 Sys-3 Flr-1 Sch-C HPlcmt-north ZN NECB System 3 PSZ Occ Sch Friday, !- Friday Schedule:Day Name\n   *************   1058   Sp-Cafeteria_ZN_1_FLR_1 Sys-3 Flr-1 Sch-C HPlcmt-north ZN NECB System 3 PSZ Occ Sch Saturday, !- Saturday Schedule:Day Name\n   *************   1059   Sp-Cafeteria_ZN_1_FLR_1 Sys-3 Flr-1 Sch-C HPlcmt-north ZN NECB System 3 PSZ Occ Sch Default, !- Holiday Schedule:Day Name\n   *************   1060   Sp-Cafeteria_ZN_1_FLR_1 Sys-3 Flr-1 Sch-C HPlcmt-north ZN NECB System 3 PSZ Occ Sch Summer Design Day, !- SummerDesignDay Schedule:Day Name\n   *************   1061   Sp-Cafeteria_ZN_1_FLR_1 Sys-3 Flr-1 Sch-C HPlcmt-north ZN NECB System 3 PSZ Occ Sch Winter Design Day, !- WinterDesignDay Schedule:Day Name\n   ** Warning ** IP: IDF line~1061 Alpha Argument length exceeds maximum, will be truncated=  Sp-Cafeteria_ZN_1_FLR_1 Sys-3 Flr-1 Sch-C HPlcmt-north ZN NECB System 3 PSZ Occ Sch Winter Design Da\n   **   ~~~   ** Will be processed as Alpha=SP-CAFETERIA_ZN_1_FLR_1 SYS-3 FLR-1 SCH-C HPLCMT-NORTH ZN NECB SYSTEM 3 PSZ OCC SCH WINTER DESIGN DAY\n   ************* IDF Context for following error/warning message:\n   ************* Note -- lines truncated at 300 characters, if necessary...\n   *************   1081 Schedule:Day:Interval,\n   ************* indicated Name=Sp-Cafeteria_ZN_1_FLR_1 Sys-3 Flr-1 Sch-C HPlcmt-north ZN NECB System 3 PSZ Occ Sch Summer Design Day\n   ************* Only last 1 lines before error line shown.....\n   *************   1082   Sp-Cafeteria_ZN_1_FLR_1 Sys-3 Flr-1 Sch-C HPlcmt-north ZN NECB System 3 PSZ Occ Sch Summer Design Day, !- Name\n   ** Warning ** IP: IDF line~1082 Alpha Argument length exceeds maximum, will be truncated=  Sp-Cafeteria_ZN_1_FLR_1 Sys-3 Flr-1 Sch-C HPlcmt-north ZN NECB System 3 PSZ Occ Sch Summer Design Da\n   **   ~~~   ** Will be processed as Alpha=SP-CAFETERIA_ZN_1_FLR_1 SYS-3 FLR-1 SCH-C HPLCMT-NORTH ZN NECB SYSTEM 3 PSZ OCC SCH SUMMER DESIGN DAY\n   ************* IDF Context for following error/warning message:\n   ************* Note -- lines truncated at 300 characters, if necessary...\n   *************   1088 Schedule:Day:Interval,\n   ************* indicated Name=Sp-Cafeteria_ZN_1_FLR_1 Sys-3 Flr-1 Sch-C HPlcmt-north ZN NECB System 3 PSZ Occ Sch Winter Design Day\n   ************* Only last 1 lines before error line shown.....\n   *************   1089   Sp-Cafeteria_ZN_1_FLR_1 Sys-3 Flr-1 Sch-C HPlcmt-north ZN NECB System 3 PSZ Occ Sch Winter Design Day, !- Name\n   ** Warning ** IP: IDF line~1089 Alpha Argument length exceeds maximum, will be truncated=  Sp-Cafeteria_ZN_1_FLR_1 Sys-3 Flr-1 Sch-C HPlcmt-north ZN NECB System 3 PSZ Occ Sch Winter Design Da\n   **   ~~~   ** Will be processed as Alpha=SP-CAFETERIA_ZN_1_FLR_1 SYS-3 FLR-1 SCH-C HPLCMT-NORTH ZN NECB SYSTEM 3 PSZ OCC SCH WINTER DESIGN DAY\n   ************* IDF Context for following error/warning message:\n   ************* Note -- lines truncated at 300 characters, if necessary...\n   *************   1438 Schedule:Week:Daily,\n   ************* indicated Name=Schedule:Week:Daily {df3e78c6-f486-4ce2-a465-c755a80ac9ed}\n   ************* Only last 10 lines before error line shown.....\n   *************   1439   Schedule:Week:Daily {df3e78c6-f486-4ce2-a465-c755a80ac9ed}, !- Name\n   *************   1440   Sp-Computer_Class_ZN_1_FLR_1 Sys-3 Flr-1 Sch-D HPlcmt-north ZN NECB System 3 PSZ Occ Sch Sunday, !- Sunday Schedule:Day Name\n   *************   1441   Sp-Computer_Class_ZN_1_FLR_1 Sys-3 Flr-1 Sch-D HPlcmt-north ZN NECB System 3 PSZ Occ Sch Monday, !- Monday Schedule:Day Name\n   *************   1442   Sp-Computer_Class_ZN_1_FLR_1 Sys-3 Flr-1 Sch-D HPlcmt-north ZN NECB System 3 PSZ Occ Sch Tuesday, !- Tuesday Schedule:Day Name\n   *************   1443   Sp-Computer_Class_ZN_1_FLR_1 Sys-3 Flr-1 Sch-D HPlcmt-north ZN NECB System 3 PSZ Occ Sch Wednesday, !- Wednesday Schedule:Day Name\n   *************   1444   Sp-Computer_Class_ZN_1_FLR_1 Sys-3 Flr-1 Sch-D HPlcmt-north ZN NECB System 3 PSZ Occ Sch Thursday, !- Thursday Schedule:Day Name\n   *************   1445   Sp-Computer_Class_ZN_1_FLR_1 Sys-3 Flr-1 Sch-D HPlcmt-north ZN NECB System 3 PSZ Occ Sch Friday, !- Friday Schedule:Day Name\n   *************   1446   Sp-Computer_Class_ZN_1_FLR_1 Sys-3 Flr-1 Sch-D HPlcmt-north ZN NECB System 3 PSZ Occ Sch Saturday, !- Saturday Schedule:Day Name\n   *************   1447   Sp-Computer_Class_ZN_1_FLR_1 Sys-3 Flr-1 Sch-D HPlcmt-north ZN NECB System 3 PSZ Occ Sch Default, !- Holiday Schedule:Day Name\n   *************   1448   Sp-Computer_Class_ZN_1_FLR_1 Sys-3 Flr-1 Sch-D HPlcmt-north ZN NECB System 3 PSZ Occ Sch Summer Design Day, !- SummerDesignDay Schedule:Day Name\n   ** Warning ** IP: IDF line~1448 Alpha Argument length exceeds maximum, will be truncated=  Sp-Computer_Class_ZN_1_FLR_1 Sys-3 Flr-1 Sch-D HPlcmt-north ZN NECB System 3 PSZ Occ Sch Summer Design Da\n   **   ~~~   ** Will be processed as Alpha=SP-COMPUTER_CLASS_ZN_1_FLR_1 SYS-3 FLR-1 SCH-D HPLCMT-NORTH ZN NECB SYSTEM 3 PSZ OCC SCH SUMMER DESIGN DAY\n   ************* IDF Context for following error/warning message:\n   ************* Note -- lines truncated at 300 characters, if necessary...\n   *************   1438 Schedule:Week:Daily,\n   ************* indicated Name=Schedule:Week:Daily {df3e78c6-f486-4ce2-a465-c755a80ac9ed}\n   ************* Only last 10 lines before error line shown.....\n   *************   1440   Sp-Computer_Class_ZN_1_FLR_1 Sys-3 Flr-1 Sch-D HPlcmt-north ZN NECB System 3 PSZ Occ Sch Sunday, !- Sunday Schedule:Day Name\n   *************   1441   Sp-Computer_Class_ZN_1_FLR_1 Sys-3 Flr-1 Sch-D HPlcmt-north ZN NECB System 3 PSZ Occ Sch Monday, !- Monday Schedule:Day Name\n   *************   1442   Sp-Computer_Class_ZN_1_FLR_1 Sys-3 Flr-1 Sch-D HPlcmt-north ZN NECB System 3 PSZ Occ Sch Tuesday, !- Tuesday Schedule:Day Name\n   *************   1443   Sp-Computer_Class_ZN_1_FLR_1 Sys-3 Flr-1 Sch-D HPlcmt-north ZN NECB System 3 PSZ Occ Sch Wednesday, !- Wednesday Schedule:Day Name\n   *************   1444   Sp-Computer_Class_ZN_1_FLR_1 Sys-3 Flr-1 Sch-D HPlcmt-north ZN NECB System 3 PSZ Occ Sch Thursday, !- Thursday Schedule:Day Name\n   *************   1445   Sp-Computer_Class_ZN_1_FLR_1 Sys-3 Flr-1 Sch-D HPlcmt-north ZN NECB System 3 PSZ Occ Sch Friday, !- Friday Schedule:Day Name\n   *************   1446   Sp-Computer_Class_ZN_1_FLR_1 Sys-3 Flr-1 Sch-D HPlcmt-north ZN NECB System 3 PSZ Occ Sch Saturday, !- Saturday Schedule:Day Name\n   *************   1447   Sp-Computer_Class_ZN_1_FLR_1 Sys-3 Flr-1 Sch-D HPlcmt-north ZN NECB System 3 PSZ Occ Sch Default, !- Holiday Schedule:Day Name\n   *************   1448   Sp-Computer_Class_ZN_1_FLR_1 Sys-3 Flr-1 Sch-D HPlcmt-north ZN NECB System 3 PSZ Occ Sch Summer Design Day, !- SummerDesignDay Schedule:Day Name\n   *************   1449   Sp-Computer_Class_ZN_1_FLR_1 Sys-3 Flr-1 Sch-D HPlcmt-north ZN NECB System 3 PSZ Occ Sch Winter Design Day, !- WinterDesignDay Schedule:Day Name\n   ** Warning ** IP: IDF line~1449 Alpha Argument length exceeds maximum, will be truncated=  Sp-Computer_Class_ZN_1_FLR_1 Sys-3 Flr-1 Sch-D HPlcmt-north ZN NECB System 3 PSZ Occ Sch Winter Design Da\n   **   ~~~   ** Will be processed as Alpha=SP-COMPUTER_CLASS_ZN_1_FLR_1 SYS-3 FLR-1 SCH-D HPLCMT-NORTH ZN NECB SYSTEM 3 PSZ OCC SCH WINTER DESIGN DAY\n   ************* IDF Context for following error/warning message:\n   ************* Note -- lines truncated at 300 characters, if necessary...\n   *************   1469 Schedule:Day:Interval,\n   ************* indicated Name=Sp-Computer_Class_ZN_1_FLR_1 Sys-3 Flr-1 Sch-D HPlcmt-north ZN NECB System 3 PSZ Occ Sch Summer Design Day\n   ************* Only last 1 lines before error line shown.....\n   *************   1470   Sp-Computer_Class_ZN_1_FLR_1 Sys-3 Flr-1 Sch-D HPlcmt-north ZN NECB System 3 PSZ Occ Sch Summer Design Day, !- Name\n   ** Warning ** IP: IDF line~1470 Alpha Argument length exceeds maximum, will be truncated=  Sp-Computer_Class_ZN_1_FLR_1 Sys-3 Flr-1 Sch-D HPlcmt-north ZN NECB System 3 PSZ Occ Sch Summer Design Da\n   **   ~~~   ** Will be processed as Alpha=SP-COMPUTER_CLASS_ZN_1_FLR_1 SYS-3 FLR-1 SCH-D HPLCMT-NORTH ZN NECB SYSTEM 3 PSZ OCC SCH SUMMER DESIGN DAY\n   ************* IDF Context for following error/warning message:\n   ************* Note -- lines truncated at 300 characters, if necessary...\n   *************   1476 Schedule:Day:Interval,\n   ************* indicated Name=Sp-Computer_Class_ZN_1_FLR_1 Sys-3 Flr-1 Sch-D HPlcmt-north ZN NECB System 3 PSZ Occ Sch Winter Design Day\n   ************* Only last 1 lines before error line shown.....\n   *************   1477   Sp-Computer_Class_ZN_1_FLR_1 Sys-3 Flr-1 Sch-D HPlcmt-north ZN NECB System 3 PSZ Occ Sch Winter Design Day, !- Name\n   ** Warning ** IP: IDF line~1477 Alpha Argument length exceeds maximum, will be truncated=  Sp-Computer_Class_ZN_1_FLR_1 Sys-3 Flr-1 Sch-D HPlcmt-north ZN NECB System 3 PSZ Occ Sch Winter Design Da\n   **   ~~~   ** Will be processed as Alpha=SP-COMPUTER_CLASS_ZN_1_FLR_1 SYS-3 FLR-1 SCH-D HPLCMT-NORTH ZN NECB SYSTEM 3 PSZ OCC SCH WINTER DESIGN DAY\n   ************* IDF Context for following error/warning message:\n   ************* Note -- lines truncated at 300 characters, if necessary...\n   *************   1753 Schedule:Day:Interval,\n   ************* indicated Name=Sp-Corner_Class_1_Pod_1_ZN_1_FLR_1 Sys-3 Flr-1 Sch-D HPlcmt-south ZN NECB System 3 PSZ Occ Sch Sunday\n   ************* Only last 1 lines before error line shown.....\n   *************   1754   Sp-Corner_Class_1_Pod_1_ZN_1_FLR_1 Sys-3 Flr-1 Sch-D HPlcmt-south ZN NECB System 3 PSZ Occ Sch Sunday, !- Name\n   ** Warning ** IP: IDF line~1754 Alpha Argument length exceeds maximum, will be truncated=  Sp-Corner_Class_1_Pod_1_ZN_1_FLR_1 Sys-3 Flr-1 Sch-D HPlcmt-south ZN NECB System 3 PSZ Occ Sch Sunda\n   **   ~~~   ** Will be processed as Alpha=SP-CORNER_CLASS_1_POD_1_ZN_1_FLR_1 SYS-3 FLR-1 SCH-D HPLCMT-SOUTH ZN NECB SYSTEM 3 PSZ OCC SCH SUNDAY\n   ************* IDF Context for following error/warning message:\n   ************* Note -- lines truncated at 300 characters, if necessary...\n   *************   1760 Schedule:Day:Interval,\n   ************* indicated Name=Sp-Corner_Class_1_Pod_1_ZN_1_FLR_1 Sys-3 Flr-1 Sch-D HPlcmt-south ZN NECB System 3 PSZ Occ Sch Monday\n   ************* Only last 1 lines before error line shown.....\n   *************   1761   Sp-Corner_Class_1_Pod_1_ZN_1_FLR_1 Sys-3 Flr-1 Sch-D HPlcmt-south ZN NECB System 3 PSZ Occ Sch Monday, !- Name\n   ** Warning ** IP: IDF line~1761 Alpha Argument length exceeds maximum, will be truncated=  Sp-Corner_Class_1_Pod_1_ZN_1_FLR_1 Sys-3 Flr-1 Sch-D HPlcmt-south ZN NECB System 3 PSZ Occ Sch Monda\n   **   ~~~   ** Will be processed as Alpha=SP-CORNER_CLASS_1_POD_1_ZN_1_FLR_1 SYS-3 FLR-1 SCH-D HPLCMT-SOUTH ZN NECB SYSTEM 3 PSZ OCC SCH MONDAY\n   ************* IDF Context for following error/warning message:\n   ************* Note -- lines truncated at 300 characters, if necessary...\n   *************   1775 Schedule:Day:Interval,\n   ************* indicated Name=Sp-Corner_Class_1_Pod_1_ZN_1_FLR_1 Sys-3 Flr-1 Sch-D HPlcmt-south ZN NECB System 3 PSZ Occ Sch Tuesday\n   ************* Only last 1 lines before error line shown.....\n   *************   1776   Sp-Corner_Class_1_Pod_1_ZN_1_FLR_1 Sys-3 Flr-1 Sch-D HPlcmt-south ZN NECB System 3 PSZ Occ Sch Tuesday, !- Name\n   ** Warning ** IP: IDF line~1776 Alpha Argument length exceeds maximum, will be truncated=  Sp-Corner_Class_1_Pod_1_ZN_1_FLR_1 Sys-3 Flr-1 Sch-D HPlcmt-south ZN NECB System 3 PSZ Occ Sch Tuesda\n   **   ~~~   ** Will be processed as Alpha=SP-CORNER_CLASS_1_POD_1_ZN_1_FLR_1 SYS-3 FLR-1 SCH-D HPLCMT-SOUTH ZN NECB SYSTEM 3 PSZ OCC SCH TUESDAY\n   ************* IDF Context for following error/warning message:\n   ************* Note -- lines truncated at 300 characters, if necessary...\n   *************   1790 Schedule:Day:Interval,\n   ************* indicated Name=Sp-Corner_Class_1_Pod_1_ZN_1_FLR_1 Sys-3 Flr-1 Sch-D HPlcmt-south ZN NECB System 3 PSZ Occ Sch Wednesday\n   ************* Only last 1 lines before error line shown.....\n   *************   1791   Sp-Corner_Class_1_Pod_1_ZN_1_FLR_1 Sys-3 Flr-1 Sch-D HPlcmt-south ZN NECB System 3 PSZ Occ Sch Wednesday, !- Name\n   ** Warning ** IP: IDF line~1791 Alpha Argument length exceeds maximum, will be truncated=  Sp-Corner_Class_1_Pod_1_ZN_1_FLR_1 Sys-3 Flr-1 Sch-D HPlcmt-south ZN NECB System 3 PSZ Occ Sch Wednesda\n   **   ~~~   ** Will be processed as Alpha=SP-CORNER_CLASS_1_POD_1_ZN_1_FLR_1 SYS-3 FLR-1 SCH-D HPLCMT-SOUTH ZN NECB SYSTEM 3 PSZ OCC SCH WEDNESDAY\n   ************* IDF Context for following error/warning message:\n   ************* Note -- lines truncated at 300 characters, if necessary...\n   *************   1805 Schedule:Day:Interval,\n   ************* indicated Name=Sp-Corner_Class_1_Pod_1_ZN_1_FLR_1 Sys-3 Flr-1 Sch-D HPlcmt-south ZN NECB System 3 PSZ Occ Sch Thursday\n   ************* Only last 1 lines before error line shown.....\n   *************   1806   Sp-Corner_Class_1_Pod_1_ZN_1_FLR_1 Sys-3 Flr-1 Sch-D HPlcmt-south ZN NECB System 3 PSZ Occ Sch Thursday, !- Name\n   ** Warning ** IP: IDF line~1806 Alpha Argument length exceeds maximum, will be truncated=  Sp-Corner_Class_1_Pod_1_ZN_1_FLR_1 Sys-3 Flr-1 Sch-D HPlcmt-south ZN NECB System 3 PSZ Occ Sch Thursda\n   **   ~~~   ** Will be processed as Alpha=SP-CORNER_CLASS_1_POD_1_ZN_1_FLR_1 SYS-3 FLR-1 SCH-D HPLCMT-SOUTH ZN NECB SYSTEM 3 PSZ OCC SCH THURSDAY\n   ************* IDF Context for following error/warning message:\n   ************* Note -- lines truncated at 300 characters, if necessary...\n   *************   1820 Schedule:Day:Interval,\n   ************* indicated Name=Sp-Corner_Class_1_Pod_1_ZN_1_FLR_1 Sys-3 Flr-1 Sch-D HPlcmt-south ZN NECB System 3 PSZ Occ Sch Friday\n   ************* Only last 1 lines before error line shown.....\n   *************   1821   Sp-Corner_Class_1_Pod_1_ZN_1_FLR_1 Sys-3 Flr-1 Sch-D HPlcmt-south ZN NECB System 3 PSZ Occ Sch Friday, !- Name\n   ** Warning ** IP: IDF line~1821 Alpha Argument length exceeds maximum, will be truncated=  Sp-Corner_Class_1_Pod_1_ZN_1_FLR_1 Sys-3 Flr-1 Sch-D HPlcmt-south ZN NECB System 3 PSZ Occ Sch Frida\n   **   ~~~   ** Will be processed as Alpha=SP-CORNER_CLASS_1_POD_1_ZN_1_FLR_1 SYS-3 FLR-1 SCH-D HPLCMT-SOUTH ZN NECB SYSTEM 3 PSZ OCC SCH FRIDAY\n   ************* IDF Context for following error/warning message:\n   ************* Note -- lines truncated at 300 characters, if necessary...\n   *************   1835 Schedule:Day:Interval,\n   ************* indicated Name=Sp-Corner_Class_1_Pod_1_ZN_1_FLR_1 Sys-3 Flr-1 Sch-D HPlcmt-south ZN NECB System 3 PSZ Occ Sch Saturday\n   ************* Only last 1 lines before error line shown.....\n   *************   1836   Sp-Corner_Class_1_Pod_1_ZN_1_FLR_1 Sys-3 Flr-1 Sch-D HPlcmt-south ZN NECB System 3 PSZ Occ Sch Saturday, !- Name\n   ** Warning ** IP: IDF line~1836 Alpha Argument length exceeds maximum, will be truncated=  Sp-Corner_Class_1_Pod_1_ZN_1_FLR_1 Sys-3 Flr-1 Sch-D HPlcmt-south ZN NECB System 3 PSZ Occ Sch Saturda\n   **   ~~~   ** Will be processed as Alpha=SP-CORNER_CLASS_1_POD_1_ZN_1_FLR_1 SYS-3 FLR-1 SCH-D HPLCMT-SOUTH ZN NECB SYSTEM 3 PSZ OCC SCH SATURDAY\n   ************* IDF Context for following error/warning message:\n   ************* Note -- lines truncated at 300 characters, if necessary...\n   *************   1842 Schedule:Week:Daily,\n   ************* indicated Name=Schedule:Week:Daily {c66e400b-ab45-4e3e-a5c4-10d9cb079d14}\n   ************* Only last 2 lines before error line shown.....\n   *************   1843   Schedule:Week:Daily {c66e400b-ab45-4e3e-a5c4-10d9cb079d14}, !- Name\n   *************   1844   Sp-Corner_Class_1_Pod_1_ZN_1_FLR_1 Sys-3 Flr-1 Sch-D HPlcmt-south ZN NECB System 3 PSZ Occ Sch Sunday, !- Sunday Schedule:Day Name\n   ** Warning ** IP: IDF line~1844 Alpha Argument length exceeds maximum, will be truncated=  Sp-Corner_Class_1_Pod_1_ZN_1_FLR_1 Sys-3 Flr-1 Sch-D HPlcmt-south ZN NECB System 3 PSZ Occ Sch Sunda\n   **   ~~~   ** Will be processed as Alpha=SP-CORNER_CLASS_1_POD_1_ZN_1_FLR_1 SYS-3 FLR-1 SCH-D HPLCMT-SOUTH ZN NECB SYSTEM 3 PSZ OCC SCH SUNDAY\n   ************* IDF Context for following error/warning message:\n   ************* Note -- lines truncated at 300 characters, if necessary...\n   *************   1842 Schedule:Week:Daily,\n   ************* indicated Name=Schedule:Week:Daily {c66e400b-ab45-4e3e-a5c4-10d9cb079d14}\n   ************* Only last 3 lines before error line shown.....\n   *************   1843   Schedule:Week:Daily {c66e400b-ab45-4e3e-a5c4-10d9cb079d14}, !- Name\n   *************   1844   Sp-Corner_Class_1_Pod_1_ZN_1_FLR_1 Sys-3 Flr-1 Sch-D HPlcmt-south ZN NECB System 3 PSZ Occ Sch Sunday, !- Sunday Schedule:Day Name\n   *************   1845   Sp-Corner_Class_1_Pod_1_ZN_1_FLR_1 Sys-3 Flr-1 Sch-D HPlcmt-south ZN NECB System 3 PSZ Occ Sch Monday, !- Monday Schedule:Day Name\n   ** Warning ** IP: IDF line~1845 Alpha Argument length exceeds maximum, will be truncated=  Sp-Corner_Class_1_Pod_1_ZN_1_FLR_1 Sys-3 Flr-1 Sch-D HPlcmt-south ZN NECB System 3 PSZ Occ Sch Monda\n   **   ~~~   ** Will be processed as Alpha=SP-CORNER_CLASS_1_POD_1_ZN_1_FLR_1 SYS-3 FLR-1 SCH-D HPLCMT-SOUTH ZN NECB SYSTEM 3 PSZ OCC SCH MONDAY\n   ************* IDF Context for following error/warning message:\n   ************* Note -- lines truncated at 300 characters, if necessary...\n   *************   1842 Schedule:Week:Daily,\n   ************* indicated Name=Schedule:Week:Daily {c66e400b-ab45-4e3e-a5c4-10d9cb079d14}\n   ************* Only last 4 lines before error line shown.....\n   *************   1843   Schedule:Week:Daily {c66e400b-ab45-4e3e-a5c4-10d9cb079d14}, !- Name\n   *************   1844   Sp-Corner_Class_1_Pod_1_ZN_1_FLR_1 Sys-3 Flr-1 Sch-D HPlcmt-south ZN NECB System 3 PSZ Occ Sch Sunday, !- Sunday Schedule:Day Name\n   *************   1845   Sp-Corner_Class_1_Pod_1_ZN_1_FLR_1 Sys-3 Flr-1 Sch-D HPlcmt-south ZN NECB System 3 PSZ Occ Sch Monday, !- Monday Schedule:Day Name\n   *************   1846   Sp-Corner_Class_1_Pod_1_ZN_1_FLR_1 Sys-3 Flr-1 Sch-D HPlcmt-south ZN NECB System 3 PSZ Occ Sch Tuesday, !- Tuesday Schedule:Day Name\n   ** Warning ** IP: IDF line~1846 Alpha Argument length exceeds maximum, will be truncated=  Sp-Corner_Class_1_Pod_1_ZN_1_FLR_1 Sys-3 Flr-1 Sch-D HPlcmt-south ZN NECB System 3 PSZ Occ Sch Tuesda\n   **   ~~~   ** Will be processed as Alpha=SP-CORNER_CLASS_1_POD_1_ZN_1_FLR_1 SYS-3 FLR-1 SCH-D HPLCMT-SOUTH ZN NECB SYSTEM 3 PSZ OCC SCH TUESDAY\n   ************* IDF Context for following error/warning message:\n   ************* Note -- lines truncated at 300 characters, if necessary...\n   *************   1842 Schedule:Week:Daily,\n   ************* indicated Name=Schedule:Week:Daily {c66e400b-ab45-4e3e-a5c4-10d9cb079d14}\n   ************* Only last 5 lines before error line shown.....\n   *************   1843   Schedule:Week:Daily {c66e400b-ab45-4e3e-a5c4-10d9cb079d14}, !- Name\n   *************   1844   Sp-Corner_Class_1_Pod_1_ZN_1_FLR_1 Sys-3 Flr-1 Sch-D HPlcmt-south ZN NECB System 3 PSZ Occ Sch Sunday, !- Sunday Schedule:Day Name\n   *************   1845   Sp-Corner_Class_1_Pod_1_ZN_1_FLR_1 Sys-3 Flr-1 Sch-D HPlcmt-south ZN NECB System 3 PSZ Occ Sch Monday, !- Monday Schedule:Day Name\n   *************   1846   Sp-Corner_Class_1_Pod_1_ZN_1_FLR_1 Sys-3 Flr-1 Sch-D HPlcmt-south ZN NECB System 3 PSZ Occ Sch Tuesday, !- Tuesday Schedule:Day Name\n   *************   1847   Sp-Corner_Class_1_Pod_1_ZN_1_FLR_1 Sys-3 Flr-1 Sch-D HPlcmt-south ZN NECB System 3 PSZ Occ Sch Wednesday, !- Wednesday Schedule:Day Name\n   ** Warning ** IP: IDF line~1847 Alpha Argument length exceeds maximum, will be truncated=  Sp-Corner_Class_1_Pod_1_ZN_1_FLR_1 Sys-3 Flr-1 Sch-D HPlcmt-south ZN NECB System 3 PSZ Occ Sch Wednesda\n   **   ~~~   ** Will be processed as Alpha=SP-CORNER_CLASS_1_POD_1_ZN_1_FLR_1 SYS-3 FLR-1 SCH-D HPLCMT-SOUTH ZN NECB SYSTEM 3 PSZ OCC SCH WEDNESDAY\n   ************* IDF Context for following error/warning message:\n   ************* Note -- lines truncated at 300 characters, if necessary...\n   *************   1842 Schedule:Week:Daily,\n   ************* indicated Name=Schedule:Week:Daily {c66e400b-ab45-4e3e-a5c4-10d9cb079d14}\n   ************* Only last 6 lines before error line shown.....\n   *************   1843   Schedule:Week:Daily {c66e400b-ab45-4e3e-a5c4-10d9cb079d14}, !- Name\n   *************   1844   Sp-Corner_Class_1_Pod_1_ZN_1_FLR_1 Sys-3 Flr-1 Sch-D HPlcmt-south ZN NECB System 3 PSZ Occ Sch Sunday, !- Sunday Schedule:Day Name\n   *************   1845   Sp-Corner_Class_1_Pod_1_ZN_1_FLR_1 Sys-3 Flr-1 Sch-D HPlcmt-south ZN NECB System 3 PSZ Occ Sch Monday, !- Monday Schedule:Day Name\n   *************   1846   Sp-Corner_Class_1_Pod_1_ZN_1_FLR_1 Sys-3 Flr-1 Sch-D HPlcmt-south ZN NECB System 3 PSZ Occ Sch Tuesday, !- Tuesday Schedule:Day Name\n   *************   1847   Sp-Corner_Class_1_Pod_1_ZN_1_FLR_1 Sys-3 Flr-1 Sch-D HPlcmt-south ZN NECB System 3 PSZ Occ Sch Wednesday, !- Wednesday Schedule:Day Name\n   *************   1848   Sp-Corner_Class_1_Pod_1_ZN_1_FLR_1 Sys-3 Flr-1 Sch-D HPlcmt-south ZN NECB System 3 PSZ Occ Sch Thursday, !- Thursday Schedule:Day Name\n   ** Warning ** IP: IDF line~1848 Alpha Argument length exceeds maximum, will be truncated=  Sp-Corner_Class_1_Pod_1_ZN_1_FLR_1 Sys-3 Flr-1 Sch-D HPlcmt-south ZN NECB System 3 PSZ Occ Sch Thursda\n   **   ~~~   ** Will be processed as Alpha=SP-CORNER_CLASS_1_POD_1_ZN_1_FLR_1 SYS-3 FLR-1 SCH-D HPLCMT-SOUTH ZN NECB SYSTEM 3 PSZ OCC SCH THURSDAY\n   ************* IDF Context for following error/warning message:\n   ************* Note -- lines truncated at 300 characters, if necessary...\n   *************   1842 Schedule:Week:Daily,\n   ************* indicated Name=Schedule:Week:Daily {c66e400b-ab45-4e3e-a5c4-10d9cb079d14}\n   ************* Only last 7 lines before error line shown.....\n   *************   1843   Schedule:Week:Daily {c66e400b-ab45-4e3e-a5c4-10d9cb079d14}, !- Name\n   *************   1844   Sp-Corner_Class_1_Pod_1_ZN_1_FLR_1 Sys-3 Flr-1 Sch-D HPlcmt-south ZN NECB System 3 PSZ Occ Sch Sunday, !- Sunday Schedule:Day Name\n   *************   1845   Sp-Corner_Class_1_Pod_1_ZN_1_FLR_1 Sys-3 Flr-1 Sch-D HPlcmt-south ZN NECB System 3 PSZ Occ Sch Monday, !- Monday Schedule:Day Name\n   *************   1846   Sp-Corner_Class_1_Pod_1_ZN_1_FLR_1 Sys-3 Flr-1 Sch-D HPlcmt-south ZN NECB System 3 PSZ Occ Sch Tuesday, !- Tuesday Schedule:Day Name\n   *************   1847   Sp-Corner_Class_1_Pod_1_ZN_1_FLR_1 Sys-3 Flr-1 Sch-D HPlcmt-south ZN NECB System 3 PSZ Occ Sch Wednesday, !- Wednesday Schedule:Day Name\n   *************   1848   Sp-Corner_Class_1_Pod_1_ZN_1_FLR_1 Sys-3 Flr-1 Sch-D HPlcmt-south ZN NECB System 3 PSZ Occ Sch Thursday, !- Thursday Schedule:Day Name\n   *************   1849   Sp-Corner_Class_1_Pod_1_ZN_1_FLR_1 Sys-3 Flr-1 Sch-D HPlcmt-south ZN NECB System 3 PSZ Occ Sch Friday, !- Friday Schedule:Day Name\n   ** Warning ** IP: IDF line~1849 Alpha Argument length exceeds maximum, will be truncated=  Sp-Corner_Class_1_Pod_1_ZN_1_FLR_1 Sys-3 Flr-1 Sch-D HPlcmt-south ZN NECB System 3 PSZ Occ Sch Frida\n   **   ~~~   ** Will be processed as Alpha=SP-CORNER_CLASS_1_POD_1_ZN_1_FLR_1 SYS-3 FLR-1 SCH-D HPLCMT-SOUTH ZN NECB SYSTEM 3 PSZ OCC SCH FRIDAY\n   ************* IDF Context for following error/warning message:\n   ************* Note -- lines truncated at 300 characters, if necessary...\n   *************   1842 Schedule:Week:Daily,\n   ************* indicated Name=Schedule:Week:Daily {c66e400b-ab45-4e3e-a5c4-10d9cb079d14}\n   ************* Only last 8 lines before error line shown.....\n   *************   1843   Schedule:Week:Daily {c66e400b-ab45-4e3e-a5c4-10d9cb079d14}, !- Name\n   *************   1844   Sp-Corner_Class_1_Pod_1_ZN_1_FLR_1 Sys-3 Flr-1 Sch-D HPlcmt-south ZN NECB System 3 PSZ Occ Sch Sunday, !- Sunday Schedule:Day Name\n   *************   1845   Sp-Corner_Class_1_Pod_1_ZN_1_FLR_1 Sys-3 Flr-1 Sch-D HPlcmt-south ZN NECB System 3 PSZ Occ Sch Monday, !- Monday Schedule:Day Name\n   *************   1846   Sp-Corner_Class_1_Pod_1_ZN_1_FLR_1 Sys-3 Flr-1 Sch-D HPlcmt-south ZN NECB System 3 PSZ Occ Sch Tuesday, !- Tuesday Schedule:Day Name\n   *************   1847   Sp-Corner_Class_1_Pod_1_ZN_1_FLR_1 Sys-3 Flr-1 Sch-D HPlcmt-south ZN NECB System 3 PSZ Occ Sch Wednesday, !- Wednesday Schedule:Day Name\n   *************   1848   Sp-Corner_Class_1_Pod_1_ZN_1_FLR_1 Sys-3 Flr-1 Sch-D HPlcmt-south ZN NECB System 3 PSZ Occ Sch Thursday, !- Thursday Schedule:Day Name\n   *************   1849   Sp-Corner_Class_1_Pod_1_ZN_1_FLR_1 Sys-3 Flr-1 Sch-D HPlcmt-south ZN NECB System 3 PSZ Occ Sch Friday, !- Friday Schedule:Day Name\n   *************   1850   Sp-Corner_Class_1_Pod_1_ZN_1_FLR_1 Sys-3 Flr-1 Sch-D HPlcmt-south ZN NECB System 3 PSZ Occ Sch Saturday, !- Saturday Schedule:Day Name\n   ** Warning ** IP: IDF line~1850 Alpha Argument length exceeds maximum, will be truncated=  Sp-Corner_Class_1_Pod_1_ZN_1_FLR_1 Sys-3 Flr-1 Sch-D HPlcmt-south ZN NECB System 3 PSZ Occ Sch Saturda\n   **   ~~~   ** Will be processed as Alpha=SP-CORNER_CLASS_1_POD_1_ZN_1_FLR_1 SYS-3 FLR-1 SCH-D HPLCMT-SOUTH ZN NECB SYSTEM 3 PSZ OCC SCH SATURDAY\n   ************* IDF Context for following error/warning message:\n   ************* Note -- lines truncated at 300 characters, if necessary...\n   *************   1842 Schedule:Week:Daily,\n   ************* indicated Name=Schedule:Week:Daily {c66e400b-ab45-4e3e-a5c4-10d9cb079d14}\n   ************* Only last 9 lines before error line shown.....\n   *************   1843   Schedule:Week:Daily {c66e400b-ab45-4e3e-a5c4-10d9cb079d14}, !- Name\n   *************   1844   Sp-Corner_Class_1_Pod_1_ZN_1_FLR_1 Sys-3 Flr-1 Sch-D HPlcmt-south ZN NECB System 3 PSZ Occ Sch Sunday, !- Sunday Schedule:Day Name\n   *************   1845   Sp-Corner_Class_1_Pod_1_ZN_1_FLR_1 Sys-3 Flr-1 Sch-D HPlcmt-south ZN NECB System 3 PSZ Occ Sch Monday, !- Monday Schedule:Day Name\n   *************   1846   Sp-Corner_Class_1_Pod_1_ZN_1_FLR_1 Sys-3 Flr-1 Sch-D HPlcmt-south ZN NECB System 3 PSZ Occ Sch Tuesday, !- Tuesday Schedule:Day Name\n   *************   1847   Sp-Corner_Class_1_Pod_1_ZN_1_FLR_1 Sys-3 Flr-1 Sch-D HPlcmt-south ZN NECB System 3 PSZ Occ Sch Wednesday, !- Wednesday Schedule:Day Name\n   *************   1848   Sp-Corner_Class_1_Pod_1_ZN_1_FLR_1 Sys-3 Flr-1 Sch-D HPlcmt-south ZN NECB System 3 PSZ Occ Sch Thursday, !- Thursday Schedule:Day Name\n   *************   1849   Sp-Corner_Class_1_Pod_1_ZN_1_FLR_1 Sys-3 Flr-1 Sch-D HPlcmt-south ZN NECB System 3 PSZ Occ Sch Friday, !- Friday Schedule:Day Name\n   *************   1850   Sp-Corner_Class_1_Pod_1_ZN_1_FLR_1 Sys-3 Flr-1 Sch-D HPlcmt-south ZN NECB System 3 PSZ Occ Sch Saturday, !- Saturday Schedule:Day Name\n   *************   1851   Sp-Corner_Class_1_Pod_1_ZN_1_FLR_1 Sys-3 Flr-1 Sch-D HPlcmt-south ZN NECB System 3 PSZ Occ Sch Default, !- Holiday Schedule:Day Name\n   ** Warning ** IP: IDF line~1851 Alpha Argument length exceeds maximum, will be truncated=  Sp-Corner_Class_1_Pod_1_ZN_1_FLR_1 Sys-3 Flr-1 Sch-D HPlcmt-south ZN NECB System 3 PSZ Occ Sch Defaul\n   **   ~~~   ** Will be processed as Alpha=SP-CORNER_CLASS_1_POD_1_ZN_1_FLR_1 SYS-3 FLR-1 SCH-D HPLCMT-SOUTH ZN NECB SYSTEM 3 PSZ OCC SCH DEFAULT\n   ************* IDF Context for following error/warning message:\n   ************* Note -- lines truncated at 300 characters, if necessary...\n   *************   1842 Schedule:Week:Daily,\n   ************* indicated Name=Schedule:Week:Daily {c66e400b-ab45-4e3e-a5c4-10d9cb079d14}\n   ************* Only last 10 lines before error line shown.....\n   *************   1843   Schedule:Week:Daily {c66e400b-ab45-4e3e-a5c4-10d9cb079d14}, !- Name\n   *************   1844   Sp-Corner_Class_1_Pod_1_ZN_1_FLR_1 Sys-3 Flr-1 Sch-D HPlcmt-south ZN NECB System 3 PSZ Occ Sch Sunday, !- Sunday Schedule:Day Name\n   *************   1845   Sp-Corner_Class_1_Pod_1_ZN_1_FLR_1 Sys-3 Flr-1 Sch-D HPlcmt-south ZN NECB System 3 PSZ Occ Sch Monday, !- Monday Schedule:Day Name\n   *************   1846   Sp-Corner_Class_1_Pod_1_ZN_1_FLR_1 Sys-3 Flr-1 Sch-D HPlcmt-south ZN NECB System 3 PSZ Occ Sch Tuesday, !- Tuesday Schedule:Day Name\n   *************   1847   Sp-Corner_Class_1_Pod_1_ZN_1_FLR_1 Sys-3 Flr-1 Sch-D HPlcmt-south ZN NECB System 3 PSZ Occ Sch Wednesday, !- Wednesday Schedule:Day Name\n   *************   1848   Sp-Corner_Class_1_Pod_1_ZN_1_FLR_1 Sys-3 Flr-1 Sch-D HPlcmt-south ZN NECB System 3 PSZ Occ Sch Thursday, !- Thursday Schedule:Day Name\n   *************   1849   Sp-Corner_Class_1_Pod_1_ZN_1_FLR_1 Sys-3 Flr-1 Sch-D HPlcmt-south ZN NECB System 3 PSZ Occ Sch Friday, !- Friday Schedule:Day Name\n   *************   1850   Sp-Corner_Class_1_Pod_1_ZN_1_FLR_1 Sys-3 Flr-1 Sch-D HPlcmt-south ZN NECB System 3 PSZ Occ Sch Saturday, !- Saturday Schedule:Day Name\n   *************   1851   Sp-Corner_Class_1_Pod_1_ZN_1_FLR_1 Sys-3 Flr-1 Sch-D HPlcmt-south ZN NECB System 3 PSZ Occ Sch Default, !- Holiday Schedule:Day Name\n   *************   1852   Sp-Corner_Class_1_Pod_1_ZN_1_FLR_1 Sys-3 Flr-1 Sch-D HPlcmt-south ZN NECB System 3 PSZ Occ Sch Summer Design Day, !- SummerDesignDay Schedule:Day Name\n   ** Warning ** IP: IDF line~1852 Alpha Argument length exceeds maximum, will be truncated=  Sp-Corner_Class_1_Pod_1_ZN_1_FLR_1 Sys-3 Flr-1 Sch-D HPlcmt-south ZN NECB System 3 PSZ Occ Sch Summer Design Da\n   **   ~~~   ** Will be processed as Alpha=SP-CORNER_CLASS_1_POD_1_ZN_1_FLR_1 SYS-3 FLR-1 SCH-D HPLCMT-SOUTH ZN NECB SYSTEM 3 PSZ OCC SCH SUMMER DESIGN DAY\n   ************* IDF Context for following error/warning message:\n   ************* Note -- lines truncated at 300 characters, if necessary...\n   *************   1842 Schedule:Week:Daily,\n   ************* indicated Name=Schedule:Week:Daily {c66e400b-ab45-4e3e-a5c4-10d9cb079d14}\n   ************* Only last 10 lines before error line shown.....\n   *************   1844   Sp-Corner_Class_1_Pod_1_ZN_1_FLR_1 Sys-3 Flr-1 Sch-D HPlcmt-south ZN NECB System 3 PSZ Occ Sch Sunday, !- Sunday Schedule:Day Name\n   *************   1845   Sp-Corner_Class_1_Pod_1_ZN_1_FLR_1 Sys-3 Flr-1 Sch-D HPlcmt-south ZN NECB System 3 PSZ Occ Sch Monday, !- Monday Schedule:Day Name\n   *************   1846   Sp-Corner_Class_1_Pod_1_ZN_1_FLR_1 Sys-3 Flr-1 Sch-D HPlcmt-south ZN NECB System 3 PSZ Occ Sch Tuesday, !- Tuesday Schedule:Day Name\n   *************   1847   Sp-Corner_Class_1_Pod_1_ZN_1_FLR_1 Sys-3 Flr-1 Sch-D HPlcmt-south ZN NECB System 3 PSZ Occ Sch Wednesday, !- Wednesday Schedule:Day Name\n   *************   1848   Sp-Corner_Class_1_Pod_1_ZN_1_FLR_1 Sys-3 Flr-1 Sch-D HPlcmt-south ZN NECB System 3 PSZ Occ Sch Thursday, !- Thursday Schedule:Day Name\n   *************   1849   Sp-Corner_Class_1_Pod_1_ZN_1_FLR_1 Sys-3 Flr-1 Sch-D HPlcmt-south ZN NECB System 3 PSZ Occ Sch Friday, !- Friday Schedule:Day Name\n   *************   1850   Sp-Corner_Class_1_Pod_1_ZN_1_FLR_1 Sys-3 Flr-1 Sch-D HPlcmt-south ZN NECB System 3 PSZ Occ Sch Saturday, !- Saturday Schedule:Day Name\n   *************   1851   Sp-Corner_Class_1_Pod_1_ZN_1_FLR_1 Sys-3 Flr-1 Sch-D HPlcmt-south ZN NECB System 3 PSZ Occ Sch Default, !- Holiday Schedule:Day Name\n   *************   1852   Sp-Corner_Class_1_Pod_1_ZN_1_FLR_1 Sys-3 Flr-1 Sch-D HPlcmt-south ZN NECB System 3 PSZ Occ Sch Summer Design Day, !- SummerDesignDay Schedule:Day Name\n   *************   1853   Sp-Corner_Class_1_Pod_1_ZN_1_FLR_1 Sys-3 Flr-1 Sch-D HPlcmt-south ZN NECB System 3 PSZ Occ Sch Winter Design Day, !- WinterDesignDay Schedule:Day Name\n   ** Warning ** IP: IDF line~1853 Alpha Argument length exceeds maximum, will be truncated=  Sp-Corner_Class_1_Pod_1_ZN_1_FLR_1 Sys-3 Flr-1 Sch-D HPlcmt-south ZN NECB System 3 PSZ Occ Sch Winter Design Da\n   **   ~~~   ** Will be processed as Alpha=SP-CORNER_CLASS_1_POD_1_ZN_1_FLR_1 SYS-3 FLR-1 SCH-D HPLCMT-SOUTH ZN NECB SYSTEM 3 PSZ OCC SCH WINTER DESIGN DAY\n   ************* IDF Context for following error/warning message:\n   ************* Note -- lines truncated at 300 characters, if necessary...\n   *************   1842 Schedule:Week:Daily,\n   ************* indicated Name=Schedule:Week:Daily {c66e400b-ab45-4e3e-a5c4-10d9cb079d14}\n   ************* Only last 10 lines before error line shown.....\n   *************   1845   Sp-Corner_Class_1_Pod_1_ZN_1_FLR_1 Sys-3 Flr-1 Sch-D HPlcmt-south ZN NECB System 3 PSZ Occ Sch Monday, !- Monday Schedule:Day Name\n   *************   1846   Sp-Corner_Class_1_Pod_1_ZN_1_FLR_1 Sys-3 Flr-1 Sch-D HPlcmt-south ZN NECB System 3 PSZ Occ Sch Tuesday, !- Tuesday Schedule:Day Name\n   *************   1847   Sp-Corner_Class_1_Pod_1_ZN_1_FLR_1 Sys-3 Flr-1 Sch-D HPlcmt-south ZN NECB System 3 PSZ Occ Sch Wednesday, !- Wednesday Schedule:Day Name\n   *************   1848   Sp-Corner_Class_1_Pod_1_ZN_1_FLR_1 Sys-3 Flr-1 Sch-D HPlcmt-south ZN NECB System 3 PSZ Occ Sch Thursday, !- Thursday Schedule:Day Name\n   *************   1849   Sp-Corner_Class_1_Pod_1_ZN_1_FLR_1 Sys-3 Flr-1 Sch-D HPlcmt-south ZN NECB System 3 PSZ Occ Sch Friday, !- Friday Schedule:Day Name\n   *************   1850   Sp-Corner_Class_1_Pod_1_ZN_1_FLR_1 Sys-3 Flr-1 Sch-D HPlcmt-south ZN NECB System 3 PSZ Occ Sch Saturday, !- Saturday Schedule:Day Name\n   *************   1851   Sp-Corner_Class_1_Pod_1_ZN_1_FLR_1 Sys-3 Flr-1 Sch-D HPlcmt-south ZN NECB System 3 PSZ Occ Sch Default, !- Holiday Schedule:Day Name\n   *************   1852   Sp-Corner_Class_1_Pod_1_ZN_1_FLR_1 Sys-3 Flr-1 Sch-D HPlcmt-south ZN NECB System 3 PSZ Occ Sch Summer Design Day, !- SummerDesignDay Schedule:Day Name\n   *************   1853   Sp-Corner_Class_1_Pod_1_ZN_1_FLR_1 Sys-3 Flr-1 Sch-D HPlcmt-south ZN NECB System 3 PSZ Occ Sch Winter Design Day, !- WinterDesignDay Schedule:Day Name\n   *************   1854   Sp-Corner_Class_1_Pod_1_ZN_1_FLR_1 Sys-3 Flr-1 Sch-D HPlcmt-south ZN NECB System 3 PSZ Occ Sch Default, !- CustomDay1 Schedule:Day Name\n   ** Warning ** IP: IDF line~1854 Alpha Argument length exceeds maximum, will be truncated=  Sp-Corner_Class_1_Pod_1_ZN_1_FLR_1 Sys-3 Flr-1 Sch-D HPlcmt-south ZN NECB System 3 PSZ Occ Sch Defaul\n   **   ~~~   ** Will be processed as Alpha=SP-CORNER_CLASS_1_POD_1_ZN_1_FLR_1 SYS-3 FLR-1 SCH-D HPLCMT-SOUTH ZN NECB SYSTEM 3 PSZ OCC SCH DEFAULT\n   ************* IDF Context for following error/warning message:\n   ************* Note -- lines truncated at 300 characters, if necessary...\n   *************   1842 Schedule:Week:Daily,\n   ************* indicated Name=Schedule:Week:Daily {c66e400b-ab45-4e3e-a5c4-10d9cb079d14}\n   ************* Only last 10 lines before error line shown.....\n   *************   1846   Sp-Corner_Class_1_Pod_1_ZN_1_FLR_1 Sys-3 Flr-1 Sch-D HPlcmt-south ZN NECB System 3 PSZ Occ Sch Tuesday, !- Tuesday Schedule:Day Name\n   *************   1847   Sp-Corner_Class_1_Pod_1_ZN_1_FLR_1 Sys-3 Flr-1 Sch-D HPlcmt-south ZN NECB System 3 PSZ Occ Sch Wednesday, !- Wednesday Schedule:Day Name\n   *************   1848   Sp-Corner_Class_1_Pod_1_ZN_1_FLR_1 Sys-3 Flr-1 Sch-D HPlcmt-south ZN NECB System 3 PSZ Occ Sch Thursday, !- Thursday Schedule:Day Name\n   *************   1849   Sp-Corner_Class_1_Pod_1_ZN_1_FLR_1 Sys-3 Flr-1 Sch-D HPlcmt-south ZN NECB System 3 PSZ Occ Sch Friday, !- Friday Schedule:Day Name\n   *************   1850   Sp-Corner_Class_1_Pod_1_ZN_1_FLR_1 Sys-3 Flr-1 Sch-D HPlcmt-south ZN NECB System 3 PSZ Occ Sch Saturday, !- Saturday Schedule:Day Name\n   *************   1851   Sp-Corner_Class_1_Pod_1_ZN_1_FLR_1 Sys-3 Flr-1 Sch-D HPlcmt-south ZN NECB System 3 PSZ Occ Sch Default, !- Holiday Schedule:Day Name\n   *************   1852   Sp-Corner_Class_1_Pod_1_ZN_1_FLR_1 Sys-3 Flr-1 Sch-D HPlcmt-south ZN NECB System 3 PSZ Occ Sch Summer Design Day, !- SummerDesignDay Schedule:Day Name\n   *************   1853   Sp-Corner_Class_1_Pod_1_ZN_1_FLR_1 Sys-3 Flr-1 Sch-D HPlcmt-south ZN NECB System 3 PSZ Occ Sch Winter Design Day, !- WinterDesignDay Schedule:Day Name\n   *************   1854   Sp-Corner_Class_1_Pod_1_ZN_1_FLR_1 Sys-3 Flr-1 Sch-D HPlcmt-south ZN NECB System 3 PSZ Occ Sch Default, !- CustomDay1 Schedule:Day Name\n   *************   1855   Sp-Corner_Class_1_Pod_1_ZN_1_FLR_1 Sys-3 Flr-1 Sch-D HPlcmt-south ZN NECB System 3 PSZ Occ Sch Default; !- CustomDay2 Schedule:Day Name\n   ** Warning ** IP: IDF line~1855 Alpha Argument length exceeds maximum, will be truncated=  Sp-Corner_Class_1_Pod_1_ZN_1_FLR_1 Sys-3 Flr-1 Sch-D HPlcmt-south ZN NECB System 3 PSZ Occ Sch Defaul\n   **   ~~~   ** Will be processed as Alpha=SP-CORNER_CLASS_1_POD_1_ZN_1_FLR_1 SYS-3 FLR-1 SCH-D HPLCMT-SOUTH ZN NECB SYSTEM 3 PSZ OCC SCH DEFAULT\n   ************* IDF Context for following error/warning message:\n   ************* Note -- lines truncated at 300 characters, if necessary...\n   *************   1866 Schedule:Day:Interval,\n   ************* indicated Name=Sp-Corner_Class_1_Pod_1_ZN_1_FLR_1 Sys-3 Flr-1 Sch-D HPlcmt-south ZN NECB System 3 PSZ Occ Sch Default\n   ************* Only last 1 lines before error line shown.....\n   *************   1867   Sp-Corner_Class_1_Pod_1_ZN_1_FLR_1 Sys-3 Flr-1 Sch-D HPlcmt-south ZN NECB System 3 PSZ Occ Sch Default, !- Name\n   ** Warning ** IP: IDF line~1867 Alpha Argument length exceeds maximum, will be truncated=  Sp-Corner_Class_1_Pod_1_ZN_1_FLR_1 Sys-3 Flr-1 Sch-D HPlcmt-south ZN NECB System 3 PSZ Occ Sch Defaul\n   **   ~~~   ** Will be processed as Alpha=SP-CORNER_CLASS_1_POD_1_ZN_1_FLR_1 SYS-3 FLR-1 SCH-D HPLCMT-SOUTH ZN NECB SYSTEM 3 PSZ OCC SCH DEFAULT\n   ************* IDF Context for following error/warning message:\n   ************* Note -- lines truncated at 300 characters, if necessary...\n   *************   1873 Schedule:Day:Interval,\n   ************* indicated Name=Sp-Corner_Class_1_Pod_1_ZN_1_FLR_1 Sys-3 Flr-1 Sch-D HPlcmt-south ZN NECB System 3 PSZ Occ Sch Summer Design Day\n   ************* Only last 1 lines before error line shown.....\n   *************   1874   Sp-Corner_Class_1_Pod_1_ZN_1_FLR_1 Sys-3 Flr-1 Sch-D HPlcmt-south ZN NECB System 3 PSZ Occ Sch Summer Design Day, !- Name\n   ** Warning ** IP: IDF line~1874 Alpha Argument length exceeds maximum, will be truncated=  Sp-Corner_Class_1_Pod_1_ZN_1_FLR_1 Sys-3 Flr-1 Sch-D HPlcmt-south ZN NECB System 3 PSZ Occ Sch Summer Design Da\n   **   ~~~   ** Will be processed as Alpha=SP-CORNER_CLASS_1_POD_1_ZN_1_FLR_1 SYS-3 FLR-1 SCH-D HPLCMT-SOUTH ZN NECB SYSTEM 3 PSZ OCC SCH SUMMER DESIGN DAY\n   ************* IDF Context for following error/warning message:\n   ************* Note -- lines truncated at 300 characters, if necessary...\n   *************   1880 Schedule:Day:Interval,\n   ************* indicated Name=Sp-Corner_Class_1_Pod_1_ZN_1_FLR_1 Sys-3 Flr-1 Sch-D HPlcmt-south ZN NECB System 3 PSZ Occ Sch Winter Design Day\n   ************* Only last 1 lines before error line shown.....\n   *************   1881   Sp-Corner_Class_1_Pod_1_ZN_1_FLR_1 Sys-3 Flr-1 Sch-D HPlcmt-south ZN NECB System 3 PSZ Occ Sch Winter Design Day, !- Name\n   ** Warning ** IP: IDF line~1881 Alpha Argument length exceeds maximum, will be truncated=  Sp-Corner_Class_1_Pod_1_ZN_1_FLR_1 Sys-3 Flr-1 Sch-D HPlcmt-south ZN NECB System 3 PSZ Occ Sch Winter Design Da\n   **   ~~~   ** Will be processed as Alpha=SP-CORNER_CLASS_1_POD_1_ZN_1_FLR_1 SYS-3 FLR-1 SCH-D HPLCMT-SOUTH ZN NECB SYSTEM 3 PSZ OCC SCH WINTER DESIGN DAY\n   ************* IDF Context for following error/warning message:\n   ************* Note -- lines truncated at 300 characters, if necessary...\n   *************   2149 Schedule:Day:Interval,\n   ************* indicated Name=Sp-Corner_Class_1_Pod_2_ZN_1_FLR_1 Sys-3 Flr-1 Sch-D HPlcmt-south ZN NECB System 3 PSZ Occ Sch Sunday\n   ************* Only last 1 lines before error line shown.....\n   *************   2150   Sp-Corner_Class_1_Pod_2_ZN_1_FLR_1 Sys-3 Flr-1 Sch-D HPlcmt-south ZN NECB System 3 PSZ Occ Sch Sunday, !- Name\n   ** Warning ** IP: IDF line~2150 Alpha Argument length exceeds maximum, will be truncated=  Sp-Corner_Class_1_Pod_2_ZN_1_FLR_1 Sys-3 Flr-1 Sch-D HPlcmt-south ZN NECB System 3 PSZ Occ Sch Sunda\n   **   ~~~   ** Will be processed as Alpha=SP-CORNER_CLASS_1_POD_2_ZN_1_FLR_1 SYS-3 FLR-1 SCH-D HPLCMT-SOUTH ZN NECB SYSTEM 3 PSZ OCC SCH SUNDAY\n   ************* IDF Context for following error/warning message:\n   ************* Note -- lines truncated at 300 characters, if necessary...\n   *************   2156 Schedule:Day:Interval,\n   ************* indicated Name=Sp-Corner_Class_1_Pod_2_ZN_1_FLR_1 Sys-3 Flr-1 Sch-D HPlcmt-south ZN NECB System 3 PSZ Occ Sch Monday\n   ************* Only last 1 lines before error line shown.....\n   *************   2157   Sp-Corner_Class_1_Pod_2_ZN_1_FLR_1 Sys-3 Flr-1 Sch-D HPlcmt-south ZN NECB System 3 PSZ Occ Sch Monday, !- Name\n   ** Warning ** IP: IDF line~2157 Alpha Argument length exceeds maximum, will be truncated=  Sp-Corner_Class_1_Pod_2_ZN_1_FLR_1 Sys-3 Flr-1 Sch-D HPlcmt-south ZN NECB System 3 PSZ Occ Sch Monda\n   **   ~~~   ** Will be processed as Alpha=SP-CORNER_CLASS_1_POD_2_ZN_1_FLR_1 SYS-3 FLR-1 SCH-D HPLCMT-SOUTH ZN NECB SYSTEM 3 PSZ OCC SCH MONDAY\n   ************* IDF Context for following error/warning message:\n   ************* Note -- lines truncated at 300 characters, if necessary...\n   *************   2171 Schedule:Day:Interval,\n   ************* indicated Name=Sp-Corner_Class_1_Pod_2_ZN_1_FLR_1 Sys-3 Flr-1 Sch-D HPlcmt-south ZN NECB System 3 PSZ Occ Sch Tuesday\n   ************* Only last 1 lines before error line shown.....\n   *************   2172   Sp-Corner_Class_1_Pod_2_ZN_1_FLR_1 Sys-3 Flr-1 Sch-D HPlcmt-south ZN NECB System 3 PSZ Occ Sch Tuesday, !- Name\n   ** Warning ** IP: IDF line~2172 Alpha Argument length exceeds maximum, will be truncated=  Sp-Corner_Class_1_Pod_2_ZN_1_FLR_1 Sys-3 Flr-1 Sch-D HPlcmt-south ZN NECB System 3 PSZ Occ Sch Tuesda\n   **   ~~~   ** Will be processed as Alpha=SP-CORNER_CLASS_1_POD_2_ZN_1_FLR_1 SYS-3 FLR-1 SCH-D HPLCMT-SOUTH ZN NECB SYSTEM 3 PSZ OCC SCH TUESDAY\n   ************* IDF Context for following error/warning message:\n   ************* Note -- lines truncated at 300 characters, if necessary...\n   *************   2186 Schedule:Day:Interval,\n   ************* indicated Name=Sp-Corner_Class_1_Pod_2_ZN_1_FLR_1 Sys-3 Flr-1 Sch-D HPlcmt-south ZN NECB System 3 PSZ Occ Sch Wednesday\n   ************* Only last 1 lines before error line shown.....\n   *************   2187   Sp-Corner_Class_1_Pod_2_ZN_1_FLR_1 Sys-3 Flr-1 Sch-D HPlcmt-south ZN NECB System 3 PSZ Occ Sch Wednesday, !- Name\n   ** Warning ** IP: IDF line~2187 Alpha Argument length exceeds maximum, will be truncated=  Sp-Corner_Class_1_Pod_2_ZN_1_FLR_1 Sys-3 Flr-1 Sch-D HPlcmt-south ZN NECB System 3 PSZ Occ Sch Wednesda\n   **   ~~~   ** Will be processed as Alpha=SP-CORNER_CLASS_1_POD_2_ZN_1_FLR_1 SYS-3 FLR-1 SCH-D HPLCMT-SOUTH ZN NECB SYSTEM 3 PSZ OCC SCH WEDNESDAY\n   ************* IDF Context for following error/warning message:\n   ************* Note -- lines truncated at 300 characters, if necessary...\n   *************   2201 Schedule:Day:Interval,\n   ************* indicated Name=Sp-Corner_Class_1_Pod_2_ZN_1_FLR_1 Sys-3 Flr-1 Sch-D HPlcmt-south ZN NECB System 3 PSZ Occ Sch Thursday\n   ************* Only last 1 lines before error line shown.....\n   *************   2202   Sp-Corner_Class_1_Pod_2_ZN_1_FLR_1 Sys-3 Flr-1 Sch-D HPlcmt-south ZN NECB System 3 PSZ Occ Sch Thursday, !- Name\n   ** Warning ** IP: IDF line~2202 Alpha Argument length exceeds maximum, will be truncated=  Sp-Corner_Class_1_Pod_2_ZN_1_FLR_1 Sys-3 Flr-1 Sch-D HPlcmt-south ZN NECB System 3 PSZ Occ Sch Thursda\n   **   ~~~   ** Will be processed as Alpha=SP-CORNER_CLASS_1_POD_2_ZN_1_FLR_1 SYS-3 FLR-1 SCH-D HPLCMT-SOUTH ZN NECB SYSTEM 3 PSZ OCC SCH THURSDAY\n   ************* IDF Context for following error/warning message:\n   ************* Note -- lines truncated at 300 characters, if necessary...\n   *************   2216 Schedule:Day:Interval,\n   ************* indicated Name=Sp-Corner_Class_1_Pod_2_ZN_1_FLR_1 Sys-3 Flr-1 Sch-D HPlcmt-south ZN NECB System 3 PSZ Occ Sch Friday\n   ************* Only last 1 lines before error line shown.....\n   *************   2217   Sp-Corner_Class_1_Pod_2_ZN_1_FLR_1 Sys-3 Flr-1 Sch-D HPlcmt-south ZN NECB System 3 PSZ Occ Sch Friday, !- Name\n   ** Warning ** IP: IDF line~2217 Alpha Argument length exceeds maximum, will be truncated=  Sp-Corner_Class_1_Pod_2_ZN_1_FLR_1 Sys-3 Flr-1 Sch-D HPlcmt-south ZN NECB System 3 PSZ Occ Sch Frida\n   **   ~~~   ** Will be processed as Alpha=SP-CORNER_CLASS_1_POD_2_ZN_1_FLR_1 SYS-3 FLR-1 SCH-D HPLCMT-SOUTH ZN NECB SYSTEM 3 PSZ OCC SCH FRIDAY\n   ************* IDF Context for following error/warning message:\n   ************* Note -- lines truncated at 300 characters, if necessary...\n   *************   2231 Schedule:Day:Interval,\n   ************* indicated Name=Sp-Corner_Class_1_Pod_2_ZN_1_FLR_1 Sys-3 Flr-1 Sch-D HPlcmt-south ZN NECB System 3 PSZ Occ Sch Saturday\n   ************* Only last 1 lines before error line shown.....\n   *************   2232   Sp-Corner_Class_1_Pod_2_ZN_1_FLR_1 Sys-3 Flr-1 Sch-D HPlcmt-south ZN NECB System 3 PSZ Occ Sch Saturday, !- Name\n   ** Warning ** IP: IDF line~2232 Alpha Argument length exceeds maximum, will be truncated=  Sp-Corner_Class_1_Pod_2_ZN_1_FLR_1 Sys-3 Flr-1 Sch-D HPlcmt-south ZN NECB System 3 PSZ Occ Sch Saturda\n   **   ~~~   ** Will be processed as Alpha=SP-CORNER_CLASS_1_POD_2_ZN_1_FLR_1 SYS-3 FLR-1 SCH-D HPLCMT-SOUTH ZN NECB SYSTEM 3 PSZ OCC SCH SATURDAY\n   ************* IDF Context for following error/warning message:\n   ************* Note -- lines truncated at 300 characters, if necessary...\n   *************   2238 Schedule:Week:Daily,\n   ************* indicated Name=Schedule:Week:Daily {a0fd7714-2141-40af-8409-ebdbad067efe}\n   ************* Only last 2 lines before error line shown.....\n   *************   2239   Schedule:Week:Daily {a0fd7714-2141-40af-8409-ebdbad067efe}, !- Name\n   *************   2240   Sp-Corner_Class_1_Pod_2_ZN_1_FLR_1 Sys-3 Flr-1 Sch-D HPlcmt-south ZN NECB System 3 PSZ Occ Sch Sunday, !- Sunday Schedule:Day Name\n   ** Warning ** IP: IDF line~2240 Alpha Argument length exceeds maximum, will be truncated=  Sp-Corner_Class_1_Pod_2_ZN_1_FLR_1 Sys-3 Flr-1 Sch-D HPlcmt-south ZN NECB System 3 PSZ Occ Sch Sunda\n   **   ~~~   ** Will be processed as Alpha=SP-CORNER_CLASS_1_POD_2_ZN_1_FLR_1 SYS-3 FLR-1 SCH-D HPLCMT-SOUTH ZN NECB SYSTEM 3 PSZ OCC SCH SUNDAY\n   ************* IDF Context for following error/warning message:\n   ************* Note -- lines truncated at 300 characters, if necessary...\n   *************   2238 Schedule:Week:Daily,\n   ************* indicated Name=Schedule:Week:Daily {a0fd7714-2141-40af-8409-ebdbad067efe}\n   ************* Only last 3 lines before error line shown.....\n   *************   2239   Schedule:Week:Daily {a0fd7714-2141-40af-8409-ebdbad067efe}, !- Name\n   *************   2240   Sp-Corner_Class_1_Pod_2_ZN_1_FLR_1 Sys-3 Flr-1 Sch-D HPlcmt-south ZN NECB System 3 PSZ Occ Sch Sunday, !- Sunday Schedule:Day Name\n   *************   2241   Sp-Corner_Class_1_Pod_2_ZN_1_FLR_1 Sys-3 Flr-1 Sch-D HPlcmt-south ZN NECB System 3 PSZ Occ Sch Monday, !- Monday Schedule:Day Name\n   ** Warning ** IP: IDF line~2241 Alpha Argument length exceeds maximum, will be truncated=  Sp-Corner_Class_1_Pod_2_ZN_1_FLR_1 Sys-3 Flr-1 Sch-D HPlcmt-south ZN NECB System 3 PSZ Occ Sch Monda\n   **   ~~~   ** Will be processed as Alpha=SP-CORNER_CLASS_1_POD_2_ZN_1_FLR_1 SYS-3 FLR-1 SCH-D HPLCMT-SOUTH ZN NECB SYSTEM 3 PSZ OCC SCH MONDAY\n   ************* IDF Context for following error/warning message:\n   ************* Note -- lines truncated at 300 characters, if necessary...\n   *************   2238 Schedule:Week:Daily,\n   ************* indicated Name=Schedule:Week:Daily {a0fd7714-2141-40af-8409-ebdbad067efe}\n   ************* Only last 4 lines before error line shown.....\n   *************   2239   Schedule:Week:Daily {a0fd7714-2141-40af-8409-ebdbad067efe}, !- Name\n   *************   2240   Sp-Corner_Class_1_Pod_2_ZN_1_FLR_1 Sys-3 Flr-1 Sch-D HPlcmt-south ZN NECB System 3 PSZ Occ Sch Sunday, !- Sunday Schedule:Day Name\n   *************   2241   Sp-Corner_Class_1_Pod_2_ZN_1_FLR_1 Sys-3 Flr-1 Sch-D HPlcmt-south ZN NECB System 3 PSZ Occ Sch Monday, !- Monday Schedule:Day Name\n   *************   2242   Sp-Corner_Class_1_Pod_2_ZN_1_FLR_1 Sys-3 Flr-1 Sch-D HPlcmt-south ZN NECB System 3 PSZ Occ Sch Tuesday, !- Tuesday Schedule:Day Name\n   ** Warning ** IP: IDF line~2242 Alpha Argument length exceeds maximum, will be truncated=  Sp-Corner_Class_1_Pod_2_ZN_1_FLR_1 Sys-3 Flr-1 Sch-D HPlcmt-south ZN NECB System 3 PSZ Occ Sch Tuesda\n   **   ~~~   ** Will be processed as Alpha=SP-CORNER_CLASS_1_POD_2_ZN_1_FLR_1 SYS-3 FLR-1 SCH-D HPLCMT-SOUTH ZN NECB SYSTEM 3 PSZ OCC SCH TUESDAY\n   ************* IDF Context for following error/warning message:\n   ************* Note -- lines truncated at 300 characters, if necessary...\n   *************   2238 Schedule:Week:Daily,\n   ************* indicated Name=Schedule:Week:Daily {a0fd7714-2141-40af-8409-ebdbad067efe}\n   ************* Only last 5 lines before error line shown.....\n   *************   2239   Schedule:Week:Daily {a0fd7714-2141-40af-8409-ebdbad067efe}, !- Name\n   *************   2240   Sp-Corner_Class_1_Pod_2_ZN_1_FLR_1 Sys-3 Flr-1 Sch-D HPlcmt-south ZN NECB System 3 PSZ Occ Sch Sunday, !- Sunday Schedule:Day Name\n   *************   2241   Sp-Corner_Class_1_Pod_2_ZN_1_FLR_1 Sys-3 Flr-1 Sch-D HPlcmt-south ZN NECB System 3 PSZ Occ Sch Monday, !- Monday Schedule:Day Name\n   *************   2242   Sp-Corner_Class_1_Pod_2_ZN_1_FLR_1 Sys-3 Flr-1 Sch-D HPlcmt-south ZN NECB System 3 PSZ Occ Sch Tuesday, !- Tuesday Schedule:Day Name\n   *************   2243   Sp-Corner_Class_1_Pod_2_ZN_1_FLR_1 Sys-3 Flr-1 Sch-D HPlcmt-south ZN NECB System 3 PSZ Occ Sch Wednesday, !- Wednesday Schedule:Day Name\n   ** Warning ** IP: IDF line~2243 Alpha Argument length exceeds maximum, will be truncated=  Sp-Corner_Class_1_Pod_2_ZN_1_FLR_1 Sys-3 Flr-1 Sch-D HPlcmt-south ZN NECB System 3 PSZ Occ Sch Wednesda\n   **   ~~~   ** Will be processed as Alpha=SP-CORNER_CLASS_1_POD_2_ZN_1_FLR_1 SYS-3 FLR-1 SCH-D HPLCMT-SOUTH ZN NECB SYSTEM 3 PSZ OCC SCH WEDNESDAY\n   ************* IDF Context for following error/warning message:\n   ************* Note -- lines truncated at 300 characters, if necessary...\n   *************   2238 Schedule:Week:Daily,\n   ************* indicated Name=Schedule:Week:Daily {a0fd7714-2141-40af-8409-ebdbad067efe}\n   ************* Only last 6 lines before error line shown.....\n   *************   2239   Schedule:Week:Daily {a0fd7714-2141-40af-8409-ebdbad067efe}, !- Name\n   *************   2240   Sp-Corner_Class_1_Pod_2_ZN_1_FLR_1 Sys-3 Flr-1 Sch-D HPlcmt-south ZN NECB System 3 PSZ Occ Sch Sunday, !- Sunday Schedule:Day Name\n   *************   2241   Sp-Corner_Class_1_Pod_2_ZN_1_FLR_1 Sys-3 Flr-1 Sch-D HPlcmt-south ZN NECB System 3 PSZ Occ Sch Monday, !- Monday Schedule:Day Name\n   *************   2242   Sp-Corner_Class_1_Pod_2_ZN_1_FLR_1 Sys-3 Flr-1 Sch-D HPlcmt-south ZN NECB System 3 PSZ Occ Sch Tuesday, !- Tuesday Schedule:Day Name\n   *************   2243   Sp-Corner_Class_1_Pod_2_ZN_1_FLR_1 Sys-3 Flr-1 Sch-D HPlcmt-south ZN NECB System 3 PSZ Occ Sch Wednesday, !- Wednesday Schedule:Day Name\n   *************   2244   Sp-Corner_Class_1_Pod_2_ZN_1_FLR_1 Sys-3 Flr-1 Sch-D HPlcmt-south ZN NECB System 3 PSZ Occ Sch Thursday, !- Thursday Schedule:Day Name\n   ** Warning ** IP: IDF line~2244 Alpha Argument length exceeds maximum, will be truncated=  Sp-Corner_Class_1_Pod_2_ZN_1_FLR_1 Sys-3 Flr-1 Sch-D HPlcmt-south ZN NECB System 3 PSZ Occ Sch Thursda\n   **   ~~~   ** Will be processed as Alpha=SP-CORNER_CLASS_1_POD_2_ZN_1_FLR_1 SYS-3 FLR-1 SCH-D HPLCMT-SOUTH ZN NECB SYSTEM 3 PSZ OCC SCH THURSDAY\n   ************* IDF Context for following error/warning message:\n   ************* Note -- lines truncated at 300 characters, if necessary...\n   *************   2238 Schedule:Week:Daily,\n   ************* indicated Name=Schedule:Week:Daily {a0fd7714-2141-40af-8409-ebdbad067efe}\n   ************* Only last 7 lines before error line shown.....\n   *************   2239   Schedule:Week:Daily {a0fd7714-2141-40af-8409-ebdbad067efe}, !- Name\n   *************   2240   Sp-Corner_Class_1_Pod_2_ZN_1_FLR_1 Sys-3 Flr-1 Sch-D HPlcmt-south ZN NECB System 3 PSZ Occ Sch Sunday, !- Sunday Schedule:Day Name\n   *************   2241   Sp-Corner_Class_1_Pod_2_ZN_1_FLR_1 Sys-3 Flr-1 Sch-D HPlcmt-south ZN NECB System 3 PSZ Occ Sch Monday, !- Monday Schedule:Day Name\n   *************   2242   Sp-Corner_Class_1_Pod_2_ZN_1_FLR_1 Sys-3 Flr-1 Sch-D HPlcmt-south ZN NECB System 3 PSZ Occ Sch Tuesday, !- Tuesday Schedule:Day Name\n   *************   2243   Sp-Corner_Class_1_Pod_2_ZN_1_FLR_1 Sys-3 Flr-1 Sch-D HPlcmt-south ZN NECB System 3 PSZ Occ Sch Wednesday, !- Wednesday Schedule:Day Name\n   *************   2244   Sp-Corner_Class_1_Pod_2_ZN_1_FLR_1 Sys-3 Flr-1 Sch-D HPlcmt-south ZN NECB System 3 PSZ Occ Sch Thursday, !- Thursday Schedule:Day Name\n   *************   2245   Sp-Corner_Class_1_Pod_2_ZN_1_FLR_1 Sys-3 Flr-1 Sch-D HPlcmt-south ZN NECB System 3 PSZ Occ Sch Friday, !- Friday Schedule:Day Name\n   ** Warning ** IP: IDF line~2245 Alpha Argument length exceeds maximum, will be truncated=  Sp-Corner_Class_1_Pod_2_ZN_1_FLR_1 Sys-3 Flr-1 Sch-D HPlcmt-south ZN NECB System 3 PSZ Occ Sch Frida\n   **   ~~~   ** Will be processed as Alpha=SP-CORNER_CLASS_1_POD_2_ZN_1_FLR_1 SYS-3 FLR-1 SCH-D HPLCMT-SOUTH ZN NECB SYSTEM 3 PSZ OCC SCH FRIDAY\n   ************* IDF Context for following error/warning message:\n   ************* Note -- lines truncated at 300 characters, if necessary...\n   *************   2238 Schedule:Week:Daily,\n   ************* indicated Name=Schedule:Week:Daily {a0fd7714-2141-40af-8409-ebdbad067efe}\n   ************* Only last 8 lines before error line shown.....\n   *************   2239   Schedule:Week:Daily {a0fd7714-2141-40af-8409-ebdbad067efe}, !- Name\n   *************   2240   Sp-Corner_Class_1_Pod_2_ZN_1_FLR_1 Sys-3 Flr-1 Sch-D HPlcmt-south ZN NECB System 3 PSZ Occ Sch Sunday, !- Sunday Schedule:Day Name\n   *************   2241   Sp-Corner_Class_1_Pod_2_ZN_1_FLR_1 Sys-3 Flr-1 Sch-D HPlcmt-south ZN NECB System 3 PSZ Occ Sch Monday, !- Monday Schedule:Day Name\n   *************   2242   Sp-Corner_Class_1_Pod_2_ZN_1_FLR_1 Sys-3 Flr-1 Sch-D HPlcmt-south ZN NECB System 3 PSZ Occ Sch Tuesday, !- Tuesday Schedule:Day Name\n   *************   2243   Sp-Corner_Class_1_Pod_2_ZN_1_FLR_1 Sys-3 Flr-1 Sch-D HPlcmt-south ZN NECB System 3 PSZ Occ Sch Wednesday, !- Wednesday Schedule:Day Name\n   *************   2244   Sp-Corner_Class_1_Pod_2_ZN_1_FLR_1 Sys-3 Flr-1 Sch-D HPlcmt-south ZN NECB System 3 PSZ Occ Sch Thursday, !- Thursday Schedule:Day Name\n   *************   2245   Sp-Corner_Class_1_Pod_2_ZN_1_FLR_1 Sys-3 Flr-1 Sch-D HPlcmt-south ZN NECB System 3 PSZ Occ Sch Friday, !- Friday Schedule:Day Name\n   *************   2246   Sp-Corner_Class_1_Pod_2_ZN_1_FLR_1 Sys-3 Flr-1 Sch-D HPlcmt-south ZN NECB System 3 PSZ Occ Sch Saturday, !- Saturday Schedule:Day Name\n   ** Warning ** IP: IDF line~2246 Alpha Argument length exceeds maximum, will be truncated=  Sp-Corner_Class_1_Pod_2_ZN_1_FLR_1 Sys-3 Flr-1 Sch-D HPlcmt-south ZN NECB System 3 PSZ Occ Sch Saturda\n   **   ~~~   ** Will be processed as Alpha=SP-CORNER_CLASS_1_POD_2_ZN_1_FLR_1 SYS-3 FLR-1 SCH-D HPLCMT-SOUTH ZN NECB SYSTEM 3 PSZ OCC SCH SATURDAY\n   ************* IDF Context for following error/warning message:\n   ************* Note -- lines truncated at 300 characters, if necessary...\n   *************   2238 Schedule:Week:Daily,\n   ************* indicated Name=Schedule:Week:Daily {a0fd7714-2141-40af-8409-ebdbad067efe}\n   ************* Only last 9 lines before error line shown.....\n   *************   2239   Schedule:Week:Daily {a0fd7714-2141-40af-8409-ebdbad067efe}, !- Name\n   *************   2240   Sp-Corner_Class_1_Pod_2_ZN_1_FLR_1 Sys-3 Flr-1 Sch-D HPlcmt-south ZN NECB System 3 PSZ Occ Sch Sunday, !- Sunday Schedule:Day Name\n   *************   2241   Sp-Corner_Class_1_Pod_2_ZN_1_FLR_1 Sys-3 Flr-1 Sch-D HPlcmt-south ZN NECB System 3 PSZ Occ Sch Monday, !- Monday Schedule:Day Name\n   *************   2242   Sp-Corner_Class_1_Pod_2_ZN_1_FLR_1 Sys-3 Flr-1 Sch-D HPlcmt-south ZN NECB System 3 PSZ Occ Sch Tuesday, !- Tuesday Schedule:Day Name\n   *************   2243   Sp-Corner_Class_1_Pod_2_ZN_1_FLR_1 Sys-3 Flr-1 Sch-D HPlcmt-south ZN NECB System 3 PSZ Occ Sch Wednesday, !- Wednesday Schedule:Day Name\n   *************   2244   Sp-Corner_Class_1_Pod_2_ZN_1_FLR_1 Sys-3 Flr-1 Sch-D HPlcmt-south ZN NECB System 3 PSZ Occ Sch Thursday, !- Thursday Schedule:Day Name\n   *************   2245   Sp-Corner_Class_1_Pod_2_ZN_1_FLR_1 Sys-3 Flr-1 Sch-D HPlcmt-south ZN NECB System 3 PSZ Occ Sch Friday, !- Friday Schedule:Day Name\n   *************   2246   Sp-Corner_Class_1_Pod_2_ZN_1_FLR_1 Sys-3 Flr-1 Sch-D HPlcmt-south ZN NECB System 3 PSZ Occ Sch Saturday, !- Saturday Schedule:Day Name\n   *************   2247   Sp-Corner_Class_1_Pod_2_ZN_1_FLR_1 Sys-3 Flr-1 Sch-D HPlcmt-south ZN NECB System 3 PSZ Occ Sch Default, !- Holiday Schedule:Day Name\n   ** Warning ** IP: IDF line~2247 Alpha Argument length exceeds maximum, will be truncated=  Sp-Corner_Class_1_Pod_2_ZN_1_FLR_1 Sys-3 Flr-1 Sch-D HPlcmt-south ZN NECB System 3 PSZ Occ Sch Defaul\n   **   ~~~   ** Will be processed as Alpha=SP-CORNER_CLASS_1_POD_2_ZN_1_FLR_1 SYS-3 FLR-1 SCH-D HPLCMT-SOUTH ZN NECB SYSTEM 3 PSZ OCC SCH DEFAULT\n   ************* IDF Context for following error/warning message:\n   ************* Note -- lines truncated at 300 characters, if necessary...\n   *************   2238 Schedule:Week:Daily,\n   ************* indicated Name=Schedule:Week:Daily {a0fd7714-2141-40af-8409-ebdbad067efe}\n   ************* Only last 10 lines before error line shown.....\n   *************   2239   Schedule:Week:Daily {a0fd7714-2141-40af-8409-ebdbad067efe}, !- Name\n   *************   2240   Sp-Corner_Class_1_Pod_2_ZN_1_FLR_1 Sys-3 Flr-1 Sch-D HPlcmt-south ZN NECB System 3 PSZ Occ Sch Sunday, !- Sunday Schedule:Day Name\n   *************   2241   Sp-Corner_Class_1_Pod_2_ZN_1_FLR_1 Sys-3 Flr-1 Sch-D HPlcmt-south ZN NECB System 3 PSZ Occ Sch Monday, !- Monday Schedule:Day Name\n   *************   2242   Sp-Corner_Class_1_Pod_2_ZN_1_FLR_1 Sys-3 Flr-1 Sch-D HPlcmt-south ZN NECB System 3 PSZ Occ Sch Tuesday, !- Tuesday Schedule:Day Name\n   *************   2243   Sp-Corner_Class_1_Pod_2_ZN_1_FLR_1 Sys-3 Flr-1 Sch-D HPlcmt-south ZN NECB System 3 PSZ Occ Sch Wednesday, !- Wednesday Schedule:Day Name\n   *************   2244   Sp-Corner_Class_1_Pod_2_ZN_1_FLR_1 Sys-3 Flr-1 Sch-D HPlcmt-south ZN NECB System 3 PSZ Occ Sch Thursday, !- Thursday Schedule:Day Name\n   *************   2245   Sp-Corner_Class_1_Pod_2_ZN_1_FLR_1 Sys-3 Flr-1 Sch-D HPlcmt-south ZN NECB System 3 PSZ Occ Sch Friday, !- Friday Schedule:Day Name\n   *************   2246   Sp-Corner_Class_1_Pod_2_ZN_1_FLR_1 Sys-3 Flr-1 Sch-D HPlcmt-south ZN NECB System 3 PSZ Occ Sch Saturday, !- Saturday Schedule:Day Name\n   *************   2247   Sp-Corner_Class_1_Pod_2_ZN_1_FLR_1 Sys-3 Flr-1 Sch-D HPlcmt-south ZN NECB System 3 PSZ Occ Sch Default, !- Holiday Schedule:Day Name\n   *************   2248   Sp-Corner_Class_1_Pod_2_ZN_1_FLR_1 Sys-3 Flr-1 Sch-D HPlcmt-south ZN NECB System 3 PSZ Occ Sch Summer Design Day, !- SummerDesignDay Schedule:Day Name\n   ** Warning ** IP: IDF line~2248 Alpha Argument length exceeds maximum, will be truncated=  Sp-Corner_Class_1_Pod_2_ZN_1_FLR_1 Sys-3 Flr-1 Sch-D HPlcmt-south ZN NECB System 3 PSZ Occ Sch Summer Design Da\n   **   ~~~   ** Will be processed as Alpha=SP-CORNER_CLASS_1_POD_2_ZN_1_FLR_1 SYS-3 FLR-1 SCH-D HPLCMT-SOUTH ZN NECB SYSTEM 3 PSZ OCC SCH SUMMER DESIGN DAY\n   ************* IDF Context for following error/warning message:\n   ************* Note -- lines truncated at 300 characters, if necessary...\n   *************   2238 Schedule:Week:Daily,\n   ************* indicated Name=Schedule:Week:Daily {a0fd7714-2141-40af-8409-ebdbad067efe}\n   ************* Only last 10 lines before error line shown.....\n   *************   2240   Sp-Corner_Class_1_Pod_2_ZN_1_FLR_1 Sys-3 Flr-1 Sch-D HPlcmt-south ZN NECB System 3 PSZ Occ Sch Sunday, !- Sunday Schedule:Day Name\n   *************   2241   Sp-Corner_Class_1_Pod_2_ZN_1_FLR_1 Sys-3 Flr-1 Sch-D HPlcmt-south ZN NECB System 3 PSZ Occ Sch Monday, !- Monday Schedule:Day Name\n   *************   2242   Sp-Corner_Class_1_Pod_2_ZN_1_FLR_1 Sys-3 Flr-1 Sch-D HPlcmt-south ZN NECB System 3 PSZ Occ Sch Tuesday, !- Tuesday Schedule:Day Name\n   *************   2243   Sp-Corner_Class_1_Pod_2_ZN_1_FLR_1 Sys-3 Flr-1 Sch-D HPlcmt-south ZN NECB System 3 PSZ Occ Sch Wednesday, !- Wednesday Schedule:Day Name\n   *************   2244   Sp-Corner_Class_1_Pod_2_ZN_1_FLR_1 Sys-3 Flr-1 Sch-D HPlcmt-south ZN NECB System 3 PSZ Occ Sch Thursday, !- Thursday Schedule:Day Name\n   *************   2245   Sp-Corner_Class_1_Pod_2_ZN_1_FLR_1 Sys-3 Flr-1 Sch-D HPlcmt-south ZN NECB System 3 PSZ Occ Sch Friday, !- Friday Schedule:Day Name\n   *************   2246   Sp-Corner_Class_1_Pod_2_ZN_1_FLR_1 Sys-3 Flr-1 Sch-D HPlcmt-south ZN NECB System 3 PSZ Occ Sch Saturday, !- Saturday Schedule:Day Name\n   *************   2247   Sp-Corner_Class_1_Pod_2_ZN_1_FLR_1 Sys-3 Flr-1 Sch-D HPlcmt-south ZN NECB System 3 PSZ Occ Sch Default, !- Holiday Schedule:Day Name\n   *************   2248   Sp-Corner_Class_1_Pod_2_ZN_1_FLR_1 Sys-3 Flr-1 Sch-D HPlcmt-south ZN NECB System 3 PSZ Occ Sch Summer Design Day, !- SummerDesignDay Schedule:Day Name\n   *************   2249   Sp-Corner_Class_1_Pod_2_ZN_1_FLR_1 Sys-3 Flr-1 Sch-D HPlcmt-south ZN NECB System 3 PSZ Occ Sch Winter Design Day, !- WinterDesignDay Schedule:Day Name\n   ** Warning ** IP: IDF line~2249 Alpha Argument length exceeds maximum, will be truncated=  Sp-Corner_Class_1_Pod_2_ZN_1_FLR_1 Sys-3 Flr-1 Sch-D HPlcmt-south ZN NECB System 3 PSZ Occ Sch Winter Design Da\n   **   ~~~   ** Will be processed as Alpha=SP-CORNER_CLASS_1_POD_2_ZN_1_FLR_1 SYS-3 FLR-1 SCH-D HPLCMT-SOUTH ZN NECB SYSTEM 3 PSZ OCC SCH WINTER DESIGN DAY\n   ************* IDF Context for following error/warning message:\n   ************* Note -- lines truncated at 300 characters, if necessary...\n   *************   2238 Schedule:Week:Daily,\n   ************* indicated Name=Schedule:Week:Daily {a0fd7714-2141-40af-8409-ebdbad067efe}\n   ************* Only last 10 lines before error line shown.....\n   *************   2241   Sp-Corner_Class_1_Pod_2_ZN_1_FLR_1 Sys-3 Flr-1 Sch-D HPlcmt-south ZN NECB System 3 PSZ Occ Sch Monday, !- Monday Schedule:Day Name\n   *************   2242   Sp-Corner_Class_1_Pod_2_ZN_1_FLR_1 Sys-3 Flr-1 Sch-D HPlcmt-south ZN NECB System 3 PSZ Occ Sch Tuesday, !- Tuesday Schedule:Day Name\n   *************   2243   Sp-Corner_Class_1_Pod_2_ZN_1_FLR_1 Sys-3 Flr-1 Sch-D HPlcmt-south ZN NECB System 3 PSZ Occ Sch Wednesday, !- Wednesday Schedule:Day Name\n   *************   2244   Sp-Corner_Class_1_Pod_2_ZN_1_FLR_1 Sys-3 Flr-1 Sch-D HPlcmt-south ZN NECB System 3 PSZ Occ Sch Thursday, !- Thursday Schedule:Day Name\n   *************   2245   Sp-Corner_Class_1_Pod_2_ZN_1_FLR_1 Sys-3 Flr-1 Sch-D HPlcmt-south ZN NECB System 3 PSZ Occ Sch Friday, !- Friday Schedule:Day Name\n   *************   2246   Sp-Corner_Class_1_Pod_2_ZN_1_FLR_1 Sys-3 Flr-1 Sch-D HPlcmt-south ZN NECB System 3 PSZ Occ Sch Saturday, !- Saturday Schedule:Day Name\n   *************   2247   Sp-Corner_Class_1_Pod_2_ZN_1_FLR_1 Sys-3 Flr-1 Sch-D HPlcmt-south ZN NECB System 3 PSZ Occ Sch Default, !- Holiday Schedule:Day Name\n   *************   2248   Sp-Corner_Class_1_Pod_2_ZN_1_FLR_1 Sys-3 Flr-1 Sch-D HPlcmt-south ZN NECB System 3 PSZ Occ Sch Summer Design Day, !- SummerDesignDay Schedule:Day Name\n   *************   2249   Sp-Corner_Class_1_Pod_2_ZN_1_FLR_1 Sys-3 Flr-1 Sch-D HPlcmt-south ZN NECB System 3 PSZ Occ Sch Winter Design Day, !- WinterDesignDay Schedule:Day Name\n   *************   2250   Sp-Corner_Class_1_Pod_2_ZN_1_FLR_1 Sys-3 Flr-1 Sch-D HPlcmt-south ZN NECB System 3 PSZ Occ Sch Default, !- CustomDay1 Schedule:Day Name\n   ** Warning ** IP: IDF line~2250 Alpha Argument length exceeds maximum, will be truncated=  Sp-Corner_Class_1_Pod_2_ZN_1_FLR_1 Sys-3 Flr-1 Sch-D HPlcmt-south ZN NECB System 3 PSZ Occ Sch Defaul\n   **   ~~~   ** Will be processed as Alpha=SP-CORNER_CLASS_1_POD_2_ZN_1_FLR_1 SYS-3 FLR-1 SCH-D HPLCMT-SOUTH ZN NECB SYSTEM 3 PSZ OCC SCH DEFAULT\n   ************* IDF Context for following error/warning message:\n   ************* Note -- lines truncated at 300 characters, if necessary...\n   *************   2238 Schedule:Week:Daily,\n   ************* indicated Name=Schedule:Week:Daily {a0fd7714-2141-40af-8409-ebdbad067efe}\n   ************* Only last 10 lines before error line shown.....\n   *************   2242   Sp-Corner_Class_1_Pod_2_ZN_1_FLR_1 Sys-3 Flr-1 Sch-D HPlcmt-south ZN NECB System 3 PSZ Occ Sch Tuesday, !- Tuesday Schedule:Day Name\n   *************   2243   Sp-Corner_Class_1_Pod_2_ZN_1_FLR_1 Sys-3 Flr-1 Sch-D HPlcmt-south ZN NECB System 3 PSZ Occ Sch Wednesday, !- Wednesday Schedule:Day Name\n   *************   2244   Sp-Corner_Class_1_Pod_2_ZN_1_FLR_1 Sys-3 Flr-1 Sch-D HPlcmt-south ZN NECB System 3 PSZ Occ Sch Thursday, !- Thursday Schedule:Day Name\n   *************   2245   Sp-Corner_Class_1_Pod_2_ZN_1_FLR_1 Sys-3 Flr-1 Sch-D HPlcmt-south ZN NECB System 3 PSZ Occ Sch Friday, !- Friday Schedule:Day Name\n   *************   2246   Sp-Corner_Class_1_Pod_2_ZN_1_FLR_1 Sys-3 Flr-1 Sch-D HPlcmt-south ZN NECB System 3 PSZ Occ Sch Saturday, !- Saturday Schedule:Day Name\n   *************   2247   Sp-Corner_Class_1_Pod_2_ZN_1_FLR_1 Sys-3 Flr-1 Sch-D HPlcmt-south ZN NECB System 3 PSZ Occ Sch Default, !- Holiday Schedule:Day Name\n   *************   2248   Sp-Corner_Class_1_Pod_2_ZN_1_FLR_1 Sys-3 Flr-1 Sch-D HPlcmt-south ZN NECB System 3 PSZ Occ Sch Summer Design Day, !- SummerDesignDay Schedule:Day Name\n   *************   2249   Sp-Corner_Class_1_Pod_2_ZN_1_FLR_1 Sys-3 Flr-1 Sch-D HPlcmt-south ZN NECB System 3 PSZ Occ Sch Winter Design Day, !- WinterDesignDay Schedule:Day Name\n   *************   2250   Sp-Corner_Class_1_Pod_2_ZN_1_FLR_1 Sys-3 Flr-1 Sch-D HPlcmt-south ZN NECB System 3 PSZ Occ Sch Default, !- CustomDay1 Schedule:Day Name\n   *************   2251   Sp-Corner_Class_1_Pod_2_ZN_1_FLR_1 Sys-3 Flr-1 Sch-D HPlcmt-south ZN NECB System 3 PSZ Occ Sch Default; !- CustomDay2 Schedule:Day Name\n   ** Warning ** IP: IDF line~2251 Alpha Argument length exceeds maximum, will be truncated=  Sp-Corner_Class_1_Pod_2_ZN_1_FLR_1 Sys-3 Flr-1 Sch-D HPlcmt-south ZN NECB System 3 PSZ Occ Sch Defaul\n   **   ~~~   ** Will be processed as Alpha=SP-CORNER_CLASS_1_POD_2_ZN_1_FLR_1 SYS-3 FLR-1 SCH-D HPLCMT-SOUTH ZN NECB SYSTEM 3 PSZ OCC SCH DEFAULT\n   ************* IDF Context for following error/warning message:\n   ************* Note -- lines truncated at 300 characters, if necessary...\n   *************   2262 Schedule:Day:Interval,\n   ************* indicated Name=Sp-Corner_Class_1_Pod_2_ZN_1_FLR_1 Sys-3 Flr-1 Sch-D HPlcmt-south ZN NECB System 3 PSZ Occ Sch Default\n   ************* Only last 1 lines before error line shown.....\n   *************   2263   Sp-Corner_Class_1_Pod_2_ZN_1_FLR_1 Sys-3 Flr-1 Sch-D HPlcmt-south ZN NECB System 3 PSZ Occ Sch Default, !- Name\n   ** Warning ** IP: IDF line~2263 Alpha Argument length exceeds maximum, will be truncated=  Sp-Corner_Class_1_Pod_2_ZN_1_FLR_1 Sys-3 Flr-1 Sch-D HPlcmt-south ZN NECB System 3 PSZ Occ Sch Defaul\n   **   ~~~   ** Will be processed as Alpha=SP-CORNER_CLASS_1_POD_2_ZN_1_FLR_1 SYS-3 FLR-1 SCH-D HPLCMT-SOUTH ZN NECB SYSTEM 3 PSZ OCC SCH DEFAULT\n   ************* IDF Context for following error/warning message:\n   ************* Note -- lines truncated at 300 characters, if necessary...\n   *************   2269 Schedule:Day:Interval,\n   ************* indicated Name=Sp-Corner_Class_1_Pod_2_ZN_1_FLR_1 Sys-3 Flr-1 Sch-D HPlcmt-south ZN NECB System 3 PSZ Occ Sch Summer Design Day\n   ************* Only last 1 lines before error line shown.....\n   *************   2270   Sp-Corner_Class_1_Pod_2_ZN_1_FLR_1 Sys-3 Flr-1 Sch-D HPlcmt-south ZN NECB System 3 PSZ Occ Sch Summer Design Day, !- Name\n   ** Warning ** IP: IDF line~2270 Alpha Argument length exceeds maximum, will be truncated=  Sp-Corner_Class_1_Pod_2_ZN_1_FLR_1 Sys-3 Flr-1 Sch-D HPlcmt-south ZN NECB System 3 PSZ Occ Sch Summer Design Da\n   **   ~~~   ** Will be processed as Alpha=SP-CORNER_CLASS_1_POD_2_ZN_1_FLR_1 SYS-3 FLR-1 SCH-D HPLCMT-SOUTH ZN NECB SYSTEM 3 PSZ OCC SCH SUMMER DESIGN DAY\n   ************* IDF Context for following error/warning message:\n   ************* Note -- lines truncated at 300 characters, if necessary...\n   *************   2276 Schedule:Day:Interval,\n   ************* indicated Name=Sp-Corner_Class_1_Pod_2_ZN_1_FLR_1 Sys-3 Flr-1 Sch-D HPlcmt-south ZN NECB System 3 PSZ Occ Sch Winter Design Day\n   ************* Only last 1 lines before error line shown.....\n   *************   2277   Sp-Corner_Class_1_Pod_2_ZN_1_FLR_1 Sys-3 Flr-1 Sch-D HPlcmt-south ZN NECB System 3 PSZ Occ Sch Winter Design Day, !- Name\n   ** Warning ** IP: IDF line~2277 Alpha Argument length exceeds maximum, will be truncated=  Sp-Corner_Class_1_Pod_2_ZN_1_FLR_1 Sys-3 Flr-1 Sch-D HPlcmt-south ZN NECB System 3 PSZ Occ Sch Winter Design Da\n   **   ~~~   ** Will be processed as Alpha=SP-CORNER_CLASS_1_POD_2_ZN_1_FLR_1 SYS-3 FLR-1 SCH-D HPLCMT-SOUTH ZN NECB SYSTEM 3 PSZ OCC SCH WINTER DESIGN DAY\n   ************* IDF Context for following error/warning message:\n   ************* Note -- lines truncated at 300 characters, if necessary...\n   *************   2545 Schedule:Day:Interval,\n   ************* indicated Name=Sp-Corner_Class_1_Pod_3_ZN_1_FLR_1 Sys-3 Flr-1 Sch-D HPlcmt-south ZN NECB System 3 PSZ Occ Sch Sunday\n   ************* Only last 1 lines before error line shown.....\n   *************   2546   Sp-Corner_Class_1_Pod_3_ZN_1_FLR_1 Sys-3 Flr-1 Sch-D HPlcmt-south ZN NECB System 3 PSZ Occ Sch Sunday, !- Name\n   ** Warning ** IP: IDF line~2546 Alpha Argument length exceeds maximum, will be truncated=  Sp-Corner_Class_1_Pod_3_ZN_1_FLR_1 Sys-3 Flr-1 Sch-D HPlcmt-south ZN NECB System 3 PSZ Occ Sch Sunda\n   **   ~~~   ** Will be processed as Alpha=SP-CORNER_CLASS_1_POD_3_ZN_1_FLR_1 SYS-3 FLR-1 SCH-D HPLCMT-SOUTH ZN NECB SYSTEM 3 PSZ OCC SCH SUNDAY\n   ************* IDF Context for following error/warning message:\n   ************* Note -- lines truncated at 300 characters, if necessary...\n   *************   2552 Schedule:Day:Interval,\n   ************* indicated Name=Sp-Corner_Class_1_Pod_3_ZN_1_FLR_1 Sys-3 Flr-1 Sch-D HPlcmt-south ZN NECB System 3 PSZ Occ Sch Monday\n   ************* Only last 1 lines before error line shown.....\n   *************   2553   Sp-Corner_Class_1_Pod_3_ZN_1_FLR_1 Sys-3 Flr-1 Sch-D HPlcmt-south ZN NECB System 3 PSZ Occ Sch Monday, !- Name\n   ** Warning ** IP: IDF line~2553 Alpha Argument length exceeds maximum, will be truncated=  Sp-Corner_Class_1_Pod_3_ZN_1_FLR_1 Sys-3 Flr-1 Sch-D HPlcmt-south ZN NECB System 3 PSZ Occ Sch Monda\n   **   ~~~   ** Will be processed as Alpha=SP-CORNER_CLASS_1_POD_3_ZN_1_FLR_1 SYS-3 FLR-1 SCH-D HPLCMT-SOUTH ZN NECB SYSTEM 3 PSZ OCC SCH MONDAY\n   ************* IDF Context for following error/warning message:\n   ************* Note -- lines truncated at 300 characters, if necessary...\n   *************   2567 Schedule:Day:Interval,\n   ************* indicated Name=Sp-Corner_Class_1_Pod_3_ZN_1_FLR_1 Sys-3 Flr-1 Sch-D HPlcmt-south ZN NECB System 3 PSZ Occ Sch Tuesday\n   ************* Only last 1 lines before error line shown.....\n   *************   2568   Sp-Corner_Class_1_Pod_3_ZN_1_FLR_1 Sys-3 Flr-1 Sch-D HPlcmt-south ZN NECB System 3 PSZ Occ Sch Tuesday, !- Name\n   ** Warning ** IP: IDF line~2568 Alpha Argument length exceeds maximum, will be truncated=  Sp-Corner_Class_1_Pod_3_ZN_1_FLR_1 Sys-3 Flr-1 Sch-D HPlcmt-south ZN NECB System 3 PSZ Occ Sch Tuesda\n   **   ~~~   ** Will be processed as Alpha=SP-CORNER_CLASS_1_POD_3_ZN_1_FLR_1 SYS-3 FLR-1 SCH-D HPLCMT-SOUTH ZN NECB SYSTEM 3 PSZ OCC SCH TUESDAY\n   ************* IDF Context for following error/warning message:\n   ************* Note -- lines truncated at 300 characters, if necessary...\n   *************   2582 Schedule:Day:Interval,\n   ************* indicated Name=Sp-Corner_Class_1_Pod_3_ZN_1_FLR_1 Sys-3 Flr-1 Sch-D HPlcmt-south ZN NECB System 3 PSZ Occ Sch Wednesday\n   ************* Only last 1 lines before error line shown.....\n   *************   2583   Sp-Corner_Class_1_Pod_3_ZN_1_FLR_1 Sys-3 Flr-1 Sch-D HPlcmt-south ZN NECB System 3 PSZ Occ Sch Wednesday, !- Name\n   ** Warning ** IP: IDF line~2583 Alpha Argument length exceeds maximum, will be truncated=  Sp-Corner_Class_1_Pod_3_ZN_1_FLR_1 Sys-3 Flr-1 Sch-D HPlcmt-south ZN NECB System 3 PSZ Occ Sch Wednesda\n   **   ~~~   ** Will be processed as Alpha=SP-CORNER_CLASS_1_POD_3_ZN_1_FLR_1 SYS-3 FLR-1 SCH-D HPLCMT-SOUTH ZN NECB SYSTEM 3 PSZ OCC SCH WEDNESDAY\n   ************* IDF Context for following error/warning message:\n   ************* Note -- lines truncated at 300 characters, if necessary...\n   *************   2597 Schedule:Day:Interval,\n   ************* indicated Name=Sp-Corner_Class_1_Pod_3_ZN_1_FLR_1 Sys-3 Flr-1 Sch-D HPlcmt-south ZN NECB System 3 PSZ Occ Sch Thursday\n   ************* Only last 1 lines before error line shown.....\n   *************   2598   Sp-Corner_Class_1_Pod_3_ZN_1_FLR_1 Sys-3 Flr-1 Sch-D HPlcmt-south ZN NECB System 3 PSZ Occ Sch Thursday, !- Name\n   ** Warning ** IP: IDF line~2598 Alpha Argument length exceeds maximum, will be truncated=  Sp-Corner_Class_1_Pod_3_ZN_1_FLR_1 Sys-3 Flr-1 Sch-D HPlcmt-south ZN NECB System 3 PSZ Occ Sch Thursda\n   **   ~~~   ** Will be processed as Alpha=SP-CORNER_CLASS_1_POD_3_ZN_1_FLR_1 SYS-3 FLR-1 SCH-D HPLCMT-SOUTH ZN NECB SYSTEM 3 PSZ OCC SCH THURSDAY\n   ************* IDF Context for following error/warning message:\n   ************* Note -- lines truncated at 300 characters, if necessary...\n   *************   2612 Schedule:Day:Interval,\n   ************* indicated Name=Sp-Corner_Class_1_Pod_3_ZN_1_FLR_1 Sys-3 Flr-1 Sch-D HPlcmt-south ZN NECB System 3 PSZ Occ Sch Friday\n   ************* Only last 1 lines before error line shown.....\n   *************   2613   Sp-Corner_Class_1_Pod_3_ZN_1_FLR_1 Sys-3 Flr-1 Sch-D HPlcmt-south ZN NECB System 3 PSZ Occ Sch Friday, !- Name\n   ** Warning ** IP: IDF line~2613 Alpha Argument length exceeds maximum, will be truncated=  Sp-Corner_Class_1_Pod_3_ZN_1_FLR_1 Sys-3 Flr-1 Sch-D HPlcmt-south ZN NECB System 3 PSZ Occ Sch Frida\n   **   ~~~   ** Will be processed as Alpha=SP-CORNER_CLASS_1_POD_3_ZN_1_FLR_1 SYS-3 FLR-1 SCH-D HPLCMT-SOUTH ZN NECB SYSTEM 3 PSZ OCC SCH FRIDAY\n   ************* IDF Context for following error/warning message:\n   ************* Note -- lines truncated at 300 characters, if necessary...\n   *************   2627 Schedule:Day:Interval,\n   ************* indicated Name=Sp-Corner_Class_1_Pod_3_ZN_1_FLR_1 Sys-3 Flr-1 Sch-D HPlcmt-south ZN NECB System 3 PSZ Occ Sch Saturday\n   ************* Only last 1 lines before error line shown.....\n   *************   2628   Sp-Corner_Class_1_Pod_3_ZN_1_FLR_1 Sys-3 Flr-1 Sch-D HPlcmt-south ZN NECB System 3 PSZ Occ Sch Saturday, !- Name\n   ** Warning ** IP: IDF line~2628 Alpha Argument length exceeds maximum, will be truncated=  Sp-Corner_Class_1_Pod_3_ZN_1_FLR_1 Sys-3 Flr-1 Sch-D HPlcmt-south ZN NECB System 3 PSZ Occ Sch Saturda\n   **   ~~~   ** Will be 
[...]
Ddb8XnQ92HxedC3aPF50Pcl8nnQtyzyedB3M/J50Dc68nk0kOea2yP5PBrIc81NlXweDazkmrJK51H5hpJ6ZVX5ChMGC7qsYrOgO4PNgu4LNgu6rGKzoMsqNgu6rGKzoMsqNgt6umWz0JRVfB70dMvnQU+3fB50WcXnQZdVfB50WcXnQZdVfB50WcXnQZdVfB4N5LmmrOLzaCDPNWUVn0cDK7mmrNJ5VG4EX6+sKneKZ7Cgyyo2C7oz2CzovmCzoMsqNgu6rGKzoMsqNgu6rGKzoKdbNgtNWcXnQU+3fB70dMvnQZdVfB50WcXnQZdVfB50WcXnQZdVfB50WcXn0UCea8oqPo8G8lxTVvF5NLCSa8oqnUflfrv1yqpyQ14GC7qsYrOgO4PNgu4LNgu6rGKzoMsqNgu6rGKzoMsqNgt6umWz0JRVfB70dMvnQU+3fB50WcXnQZdVfB50WcXnQZdVfB50WcXnQZdVfB4N5LmmrOLzaCDPNWUVn0cDK7mmrNJ5VG5rWK+sKvc9ZLCgyyo2C7oz2CzovmCzoMsqNgu6rGKzoMsqNgu6rGKzoKdbNgvtZmtcHrrdqrg8dBtZcXno9rji8tBtf8XlodvzjctDtx0cl4dupzguD90mclweDeS5dus5Lo8G8ly7YR2XRwMruaasWnl8r7PD63JHZ3EsInm32kG22Di2ld5O2sUOsJVbxa62hU5l9jaeR37a6nfbwnH6bdFTv7n9etvN3ucYj7td+/7Ay+QkThYn90Fabqv8eP019p7OBc4TXyZf5mqX49onKo7Fc46P0kvniSwx1EbNy3bf8L7fCCOMMMIII4wwwggjjDDCCCOMMMIII4wwwggjjDDCCCOMMMIII4wwwggjjDDCCCOMMMIII4wwwggjjDDCCCOMMMIII4wwwgj/pcILO76VSRL48qOnHqx17O7/+byqejQ2ff5o7IVMApkuH6+12qsHiGdhnNlhEMnKR2TTl57TrX6yNrWLV8/P4tDLgjjKoaw0k7POlRzHibTqPfn8QU5k5D+/oPKz1l63LXrqyeWuepBZ/bBCOc4UWIX0StYeTmR2GmWqfXKL8TwaFaStbfFHhcSKUD6efVn5LLc6grFoZdMgtdOiV+oZqePJSXbefqfeaNr6L7Cp2gpfPTqesy91h7M4DZTgu/zjOlezOpTMC1RJfGeGtMIKIl+qfOg4bcOzV8f1uieOAxmq8dZatmmZJ5Mkns+kL37+Wfxt+fm9PZx66fL5d5Vg20+jixejeYPY3mRypjzsUEaTbCreCFf8U1gnYWiJo+ffSMNgJFsdZ/uy+327Mt/+dCVxIlrX+aV0fxHXuc1yqC591Wd/z2cc8w5ShxrGS73L6+/2D7kQx8fHZeOtp1ioLrv92vRSV8dVIr0f65z8YHiO6fdVey2v7lgNazUYliOl2MjBHnppGkwi6Q/UFhHpZdGS39drylVHz+bptLVuX+RdelT25/qZFIZHda7SVt9c1yXNkviHrOdTfnddp3jmjYJsUc9q+eW1r6qwWFmtq7KaSJ5PK+ukh/Hko45VOj+feERHOKZqJulWn/WhXayqtb7/UFVTqGNnR3z+/av49/nvX8TF+Zevv336VXw4//W3gXh/+uW0nsBZPmvLe0+VaCKLRRonmYjmN/k4GIliS5NUeOkoL16CaFJDcdX2SufJyuy1xVX9ySWR2TyJxMxLUnkWxl7W8tSUv5135ZPProrPajVmdYn2xHZ5CVXCD5vd6eWx/izSvUj21pYvx948zMQsifM5TG61xdZPBweDwenp1oY3ngEOcIADHOAABzjAAQ5wgAOcvyaOSOc3+Z/AwpfqQ+F7C0WUSB80oAENaEADGtCABjSgAQ1oQKOnuStuzfofmqtwLoEDHOAABzjAAQ5wgAMc4AAHOOvgPL430FHvDbyYU+8N7DnF/7CdnOzuHh6CFKQgBSlIQQpSkIIUpCAFKUhBCtLXQeoWpF5GkXYL0l7PdQ/2QApSkIIUpCAFKUhBClKQghSkIAXp6yDtKdKzJCBI3cOC1HH293s9kIIUpCAFKUhBClKQghSkIAUpSEH6Okh3FenX6ZwiPShID/Oj/xakIAUpSEEKUpCCFKQgBSlIQQpSkL4O0r4i/Zf0KdL9gvTdu8Fgfx+kIAUpSEEKUpCCFKQgBSlIQQpSkL4O0r3iXybmkiLdK0gHg709kIIUpCAFKUhBClKQghSkIAUpSEH6Wkj3FenHmNpZ0O0XpAcHrtvvgxSkIAUpSEEKUpCCFKQgBSlIQQrSxkhXKH7i3bUqxe7tLMhCeTH1ZtLO5H3W2nofz5O0GmPx5zPfBTcySoM4CmVaKFRI7OyIE98XniiUxF2QTUUa30jh9yrOTG8ntjebychvWcrb2q44YXXYXpYlLeveaou9ruFJi/wkt/5JabYIZYnX8aLRNE7y861Qjg1olxrjOMo6dzKYTDOlcRWHfn2Nsm8uZp2P8zAbDsJ8jA6d4efYH/aG3z7lv559+DJ0xMUi7fTEWZh08t9H08478f5zOLrJOmk8z/vl2yfx6XTwVn0tkzeiJz5ffBPno5H67ta2rqff7KSjJJhl/yC/82bHD25fDpPn0GK5lgj8Y2uk0mCQt5wXRDIZOo5riaI9jy0/SGehtzgKojCPda7CePTjF4sGzFXLaxDZYpafr5p059q79cpPtWeq49ZL1JAVx8IPbmahtCN5d3E7aVk/vQDZFrvdbvGjMgeVru9lXi58+YcVelcytI4sX469vKvFLInHQSitdhkZ3ltHjt1tW7deOJfL30dqqsrPyWefweD01Hpo19JxmXR6TDq7TDp9Jp09Jp19Jp0DJp1DJh2nyyXENaIdriHtcI1ph2tQO1yj2uEa1g7XuHa4BrbDNbJdrpHtss3VXCPb5RrZrtHIFun85ubZu6trrWiJ9A1kyDYykyFbyEyGbB8zGTLvzWTIrDeTIXPeTIbMeDMZMt/NZOiFzFCHaRzTy5ihDtNIphcxQx2msUwvYYY6TKOZXsAMdZjGM718GepwzctM45leuwx16o/nuyDKzJetK/VRfR2yeQx1yOYx1CGbx1CHTHdDHTLdDXXIdDfUIdPdUIdMd0Mdev0yFeIa0fQKZirENabpNcxUiGtU06uYqRDXuKbXMVMhrpFNr2SmQmxzNdfIphczU6H6I/vxPzMqXzZMLXPdZ3/olW8jZrBwN2/R27zF7uYt+pu32Nu8xf7mLQ42b3G4eYtnK/umPBrIb6eBBHcayHCngRR3Gshxp4EkdxrIcqeBNHcayHO3gTx3m1jHG8hzt4E8d9fL88p3OtYrq8qXPjJY0L3BZkF3BpsF3RdsFvSUy2ZBz7hsFvSEy2ZBz7dsFvR0y2ahKav4PBrIb01ZxefRQIZryio+jwZyXFNW8Xk0kOWasorPo4E815RVfB5NrOMN5LmmrOLzWC/PK1+dVa+sKt+txWBB9wabBd0ZbBZ0X7BZ0FMumwU947JZ0BMumwU937JZ0NMtm4XmhkA+D/qOKj4P+mYrPg/6Piw+D/oWLT4P+r5EPg/6lkU+D/puRj4P+kZHPo8G8lxzeySfRwN5rrmpks+jgZVcU1bpPCrfUFKvrCpfYcJgQZdVbBZ0Z7BZ0H3BZkGXVWwWdFnFZkGXVWwWdFnFZkFPt2wWmrKKz4Oebvk86OmWz4Muq/g86LKKz4Muq/g86LKKz4Muq/g86LKKz6OBPNeUVXweDeS5pqzi82hgJdeUVTqPyo3g65VV5U7xDBZ0WcVmQXcGmwXdF2wWdFnFZkGXVWwWdFnFZkGXVWwW9HTLZqEpq/g86OmWz4Oebvk86LKKz4Muq/g86LKKz4Muq/g86LKKz4Muq/g8GshzTVnF59FAnmvKKj6PBlZyTVml86jcb7deWVVuyMtgQZdVbBZ0Z7BZ0H3BZkGXVWwWdFnFZkGXVWwWdFnFZkFPt2wWmrKKz4Oebvk86OmWz4Muq/g86LKKz4Muq/g86LKKz4Muq/g86LKKz6OBPNeUVXweDeS5pqzi82hgJdeUVTqPym0N65VV5b6HDBZ0WcVmQXcGmwXdF2wWdFnFZkGXVWwWdFnFZkGXVWwW9HTLZqHdbI3LQ7dbFZeHbiMrLg/dHldcHrrtr7g8dHu+cXnotoPj8tDtFMflodtEjsujgTzXbj3H5dFAnms3rOPyaGAl15RVK4/vdXZ4Xe7oLI5FJO9WO8gWG8e20ttJu9gBtnKr2NW20KnM3sbzyE9b/W5bOE6/LXrqN7dfb7vZ+xzjcbdr3x94mZzEyeLkPkjLbZUfr7/G3tO5wHniy+TLXO1yXPtExbF4zvFReuk8kSWG2qh52e4b3vcbYYQRRhhhhBFGGGGEEUYYYYQRRhhhhBFGGGGEEUYYYYQRRhhhhBFGGGGEEUYYYYQRRhhhhBFGGGGEEUYYYYQRRhhhhBFGGOG/VHhhx7cySQJffvTUg7WO3f0/n1dVj8amzx+NvZBJINPl47VWe/UA8SyMMzsMIln5iGz60nO61U/Wpnbx6vlZHHpZEEc5lJVmcta5kuM4kVa9J58/yImM/OcXVH7W2uu2RU89udxVDzKrH1Yox5kCq5BeydrDicxOo0y1T24xnkejgrS1Lf6okFgRysezLyuf5VZHMBatbBqkdlr0Sj0jdTw5yc7b79QbTVv/BTZVW+GrR8dz9qXucBangRJ8l39c52pWh5J5gSqJ78yQVlhB5EuVDx2nbXj26rhe98RxIEM13lrLNi3zZJLE85n0xc8/i78tP7+3h1MvXT7/rhJs+2l08WI0bxDbm0zOlIcdymiSTcUb4Yp/CuskDC1x9PwbaRiMZKvjbF92v29X5tufriROROs6v5TuL+I6t1kO1aWv+uzv+Yxj3kHqUMN4qXd5/d3+IRfi+Pi4bLz1FAvVZbdfm17q6rhKpPdjnZMfDM8x/b5qr+XVHathrQbDcqQUGznYQy9Ng0kk/YHaIiK9LFry+3pNuero2Tydttbti7xLj8r+XD+TwvCozlXa6pvruqRZEv+Q9XzK767rFM+8UZAt6lktv7z2VRUWK6t1VVYTyfNpZZ30MJ581LFK5+cTj+gIx1TNJN3qsz60i1W11vcfqmoKdezsiM+/fxX/Pv/9i7g4//L1t0+/ig/nv/42EO9Pv5zWEzjLZ21576kSTWSxSOMkE9H8Jh8HI1FsaZIKLx3lxUsQTWoortpe6TxZmb22uKo/uSQymyeRmHlJKs/C2Mtanpryt/OufPLZVfFZrcasLtGe2C4voUr4YbM7vTzWn0W6F8ne2vLl2JuHmZglcT6Hya222Prp4GAwOD3d2vDGM8ABDnCAAxzgAAc4wAEOcIDz18QR6fwm/xNY+FJ9KHxvoYgS6YMGNKABDWhAAxrQgAY0oAENaPQ0d8WtWf9DcxXOJXCAAxzgAAc4wAEOcIADHOAAZx2cx/cGOuq9gRdz6r2BPaf4H7aTk93dw0OQghSkIAUpSEEKUpCCFKQgBSlIQfo6SN2C1Mso0m5B2uu57sEeSEEKUpCCFKQgBSlIQQpSkIIUpCB9HaQ9RXqWBASpe1iQOs7+fq8HUpCCFKQgBSlIQQpSkIIUpCAFKUhfB+muIv06nVOkBwXpYX7034IUpCAFKUhBClKQghSkIAUpSEEK0tdB2lek/5I+RbpfkL57Nxjs74MUpCAFKUhBClKQghSkIAUpSEEK0tdBulf8y8RcUqR7BelgsLcHUpCCFKQgBSlIQQpSkIIUpCAFKUhfC+m+Iv0YUzsLuv2C9ODAdft9kIIUpCAFKUhBClKQghSkIAUpSEHaGOkKxU+8u1al2L2dBVkoL6beTNqZvM9aW+/jeZJWYyz+fOa74EZGaRBHoUwLhQqJnR1x4vvCE4WSuAuyqUjjGyn8XsWZ6e3E9mYzGfktS3lb2xUnrA7by7KkZd1bbbHXNTxpkZ/k1j8pzRahLPE6XjSaxkl+vhXKsQHtUmMcR1nnTgaTaaY0ruLQr69R9s3FrPNxHmbDQZiP0aE7/Bz7Q2f47VP+4+zDl6EjLhZppyfOwqST/z6adt6J95/D0U3WieIk75dvn8Sn08Fb9bVM3oie+HzxTZyPRuq7W9u6nn6zk46SYJb9g/zOmx0/uH05TJ5Di+VaIvCPrZFKg0Hecl4QyWToOD1LFO15bPlBOgu9xVEQhXmscxXGox+/WDRgrlpeg8gWs/x81aQ7196tV36qPVMdt16ihqw4Fn5wMwulHcm7i9tJy/rpBci22O12ix+VOah0fS/zcuHLP6zQu5KhdWT5cuzlXS1mSTwOQmm1y8jw3jpy7G7buvXCuVz+PlJTVX5OPvsMBqen1kO7lo7LpNNj0tll0ukz6ewx6ewz6Rww6Rwy6ThdLiGuEe1wDWmHa0w7XIPa4RrVDtewdrjGtcM1sB2uke1yjWyXba7mGtku18h2jUa2SOc3N8/eXV1rRUukbyBDtpGZDNlCZjJk+5jJkHlvJkNmvZkMmfNmMmTGm8mQ+W4mQy9khjpM45hexgx1mEYyvYgZ6jCNZXoJM9RhGs30AmaowzSe6eXLUIdrXmYaz/TaZahTfzzfBVFmvmxdqY/q65DNY6hDNo+hDtk8hjpkuhvqkOluqEOmu6EOme6GOmS6G+rQ65epENeIplcwUyGuMU2vYaZCXKOaXsVMhbjGNb2OmQpxjWx6JTMVYpuruUY2vZiZCtUf2Y//mVH5smFqmes++0OvfBsxg4W7eYve5i12N2/R37zF3uYt9jdvcbB5i8PNWzxb2Tfl0UB+Ow0kuNNAhjsNpLjTQI47DSS500CWOw2kudNAnrsN5LnbxDreQJ67DeS5u16eV77TsV5ZVb70kcGC7g02C7oz2CzovmCzoKdcNgt6xmWzoCdcNgt6vmWzoKdbNgtNWcXn0UB+a8oqPo8GMlxTVvF5NJDjmrKKz6OBLNeUVXweDeS5pqzi82hiHW8gzzVlFZ/Henle+eqsemVV+W4tBgu6N9gs6M5gs6D7gs2CnnLZLOgZl82CnnDZLOj5ls2Cnm7ZLDQ3BPJ50HdU8XnQN1vxedD3YfF50Ldo8XnQ9yXyedC3LPJ50Hcz8nnQNzryeTSQ55rbI/k8GshzzU2VfB4NrOSaskrnUfmGknplVfkKEwYLuqxis6A7g82C7gs2C7qsYrOgyyo2C7qsYrOgyyo2C3q6ZbPQlFV8HvR0y+dBT7d8HnRZxedBl1V8HnRZxedBl1V8HnRZxedBl1V8Hg3kuaas4vNoIM81ZRWfRwMruaas0nlUbgRfr6wqd4pnsKDLKjYLujPYLOi+YLOgyyo2C7qsYrOgyyo2C7qsYrOgp1s2C01ZxedBT7d8HvR0y+dBl1V8HnRZxedBl1V8HnRZxedBl1V8HnRZxefRQJ5ryio+jwbyXFNW8Xk0sJJryiqdR+V+u/XKqnJDXgYLuqxis6A7g82C7gs2C7qsYrOgyyo2C7qsYrOgyyo2C3q6ZbPQlFV8HvR0y+dBT7d8HnRZxedBl1V8HnRZxedBl1V8HnRZxedBl1V8Hg3kuaas4vNoIM81ZRWfRwMruaas0nlUbmtYr6wq9z1ksKDLKjYLujPYLOi+YLOgyyo2C7qsYrOgyyo2C7qsYrOgp1s2C+1ma1weut2quDx0G1lxeej2uOLy0G1/xeWh2/ONy0O3HRyXh26nOC4P3SZyXB4N5Ll26zkujwbyXLthHZdHAyu5pqxaeXyvs8PrckdncSwiebfaQbbYOLaV3k7axQ6wlVvFrraFTmX2Np5Hftrqd9vCcfpt0VO/uf16283e5xiPu137/sDL5CROFif3QVpuq/x4/TX2ns4FzhNfJl/mapfj2icqjsVzjo/SS+eJLDHURs3Ldt/wvt8II4wwwggjjDDCCCOMMMIII4wwwggjjDDCCCOMMMIII4wwwggjjDDCCCOMMMIII4wwwggjjDDCCCOMMMIII4wwwggjjDDCCP+lwgs7vpVJEvjyo6cerHXs7v/5vKp6NDZ9/mjshUwCmS4fr7XaqweIZ2Gc2WEQycpHZNOXntOtfrI2tYtXz8/i0MuCOMqhrDSTs86VHMeJtOo9+fxBTmTkP7+g8rPWXrcteurJ5a56kFn9sEI5zhRYhfRK1h5OZHYaZap9covxPBoVpK1t8UeFxIpQPp59WfkstzqCsWhl0yC106JX6hmp48lJdt5+p95o2vovsKnaCl89Op6zL3WHszgNlOC7/OM6V7M6lMwLVEl8Z4a0wgoiX6p86Dhtw7NXx/W6J44DGarx1lq2aZknkySez6Qvfv5Z/G35+b09nHrp8vl3lWDbT6OLF6N5g9jeZHKmPOxQRpNsKt4IV/xTWCdhaImj599Iw2AkWx1n+7L7fbsy3/50JXEiWtf5pXR/Ede5zXKoLn3VZ3/PZxzzDlKHGsZLvcvr7/YPuRDHx8dl462nWKguu/3a9FJXx1UivR/rnPxgeI7p91V7La/uWA1rNRiWI6XYyMEeemkaTCLpD9QWEell0ZLf12vKVUfP5um0tW5f5F16VPbn+pkUhkd1rtJW31zXJc2S+Ies51N+d12neOaNgmxRz2r55bWvqrBYWa2rsppInk8r66SH8eSjjlU6P594REc4pmom6Vaf9aFdrKq1vv9QVVOoY2dHfP79q/j3+e9fxMX5l6+/ffpVfDj/9beBeH/65bSewFk+a8t7T5VoIotFGieZiOY3+TgYiWJLk1R46SgvXoJoUkNx1fZK58nK7LXFVf3JJZHZPInEzEtSeRbGXtby1JS/nXflk8+uis9qNWZ1ifbEdnkJVcIPm93p5bH+LNK9SPbWli/H3jzMxCyJ8zlMbrXF1k8HB4PB6enWhjeeAQ5wgAMc4AAHOMABDnCAA5y/Jo5I5zf5n8DCl+pD4XsLRZRIHzSgAQ1oQAMa0IAGNKABDWhAo6e5K27N+h+aq3AugQMc4AAHOMABDnCAAxzgAAc46+A8vjfQUe8NvJhT7w3sOcX/sJ2c7O4eHoIUpCAFKUhBClKQghSkIAUpSEEK0tdB6hakXkaRdgvSXs91D/ZAClKQghSkIAUpSEEKUpCCFKQgBenrIO0p0rMkIEjdw4LUcfb3ez2QghSkIAUpSEEKUpCCFKQgBSlIQfo6SHcV6dfpnCI9KEgP86P/FqQgBSlIQQpSkIIUpCAFKUhBClKQvg7SviL9l/Qp0v2C9N27wWB/H6QgBSlIQQpSkIIUpCAFKUhBClKQvg7SveJfJuaSIt0rSAeDvT2QghSkIAUpSEEKUpCCFKQgBSlIQfpaSPcV6ceY2lnQ7RekBweu2++DFKQgBSlIQQpSkIIUpCAFKUhBCtLGSFcofuLdtSrF7u0syEJ5MfVm0s7kfdbaeh/Pk7QaY/HnM98FNzJKgzgKZVooVEjs7IgT3xeeKJTEXZBNRRrfSOH3Ks5Mbye2N5vJyG9ZytvarjhhddheliUt695qi72u4UmL/CS3/klptghlidfxotE0TvLzrVCODWiXGuM4yjp3MphMM6VxFYd+fY2yby5mnY/zMBsOwnyMDt3h59jPf377NHSGZx++DB1xsUg7PXEWJp3899G08068/xyObrJOFCd5v3z7JD6dDt6qr2XyRvTE54tv4nw0Ut/d2tb19JuddJQEs+wf5Hfe7PjB7cth8hxaLNcSgX9sjVQaDPKW84JIJkPH2bVE0Z7Hlh+ks9BbHAVRmMc6V2E8+vGLRQPmquU1iGwxy89XTbpz7d165afaM9Vx6yVqyIpj4Qc3s1Dakby7uJ20rJ9egGyL3W63+FGZg0rX9zIvF778wwq9KxlaR5Yvx17e1WKWxOMglFa7jAzvrSPH7ratWy+cy+XvIzVV5efks89gcHpqPbRr6bhMOj0mnV0mnT6Tzh6Tzj6TzgGTziGTjtPlEuIa0Q7XkHa4xrTDNagdrlHtcA1rh2tcO1wD2+Ea2S7XyHbZ5mquke1yjWzXaGSLdH5z8+zd1bVWtET6BjJkG5nJkC1kJkO2j5kMmfdmMmTWm8mQOW8mQ2a8mQyZ72Yy9EJmqMM0jullzFCHaSTTi5ihDtNYppcwQx2m0UwvYIY6TOOZXr4MdbjmZabxTK9dhjr1x/NdEGXmy9aV+qi+Dtk8hjpk8xjqkM1jqEOmu6EOme6GOmS6G+qQ6W6oQ6a7oQ69fpkKcY1oegUzFeIa0/QaZirENarpVcxUiGtc0+uYqRDXyKZXMlMhtrmaa2TTi5mpUP2R/fifGZUvG6aWue6zP/TKtxEzWLibt+ht3mJ38xb9zVvsbd5if/MWB5u3ONy8xbOVfVMeDeS300CCOw1kuNNAijsN5LjTQJI7DWS500CaOw3kudtAnrtNrOMN5LnbQJ676+V55Tsd65VV5UsfGSzo3mCzoDuDzYLuCzYLespls6BnXDYLesJls6DnWzYLerpls9CUVXweDeS3pqzi82ggwzVlFZ9HAzmuKav4PBrIck1ZxefRQJ5ryio+jybW8QbyXFNW8Xmsl+eVr86qV1aV79ZisKB7g82C7gw2C7ov2CzoKZfNgp5x2SzoCZfNgp5v2Szo6ZbNQnNDIJ8HfUcVnwd9sxWfB30fFp8HfYsWnwd9XyKfB33LIp8HfTcjnwd9oyOfRwN5rrk9ks+jgTzX3FTJ59HASq4pq3QelW8oqVdWla8wYbCgyyo2C7oz2CzovmCzoMsqNgu6rGKzoMsqNgu6rGKzoKdbNgtNWcXnQU+3fB70dMvnQZdVfB50WcXnQZdVfB50WcXnQZdVfB50WcXn0UCea8oqPo8G8lxTVvF5NLCSa8oqnUflRvD1yqpyp3gGC7qsYrOgO4PNgu4LNgu6rGKzoMsqNgu6rGKzoMsqNgt6umWz0JRVfB70dMvnQU+3fB50WcXnQZdVfB50WcXnQZdVfB50WcXnQZdVfB4N5LmmrOLzaCDPNWUVn0cDK7mmrNJ5VO63W6+sKjfkZbCgyyo2C7oz2CzovmCzoMsqNgu6rGKzoMsqNgu6rGKzoKdbNgtNWcXnQU+3fB70dMvnQZdVfB50WcXnQZdVfB50WcXnQZdVfB50WcXn0UCea8oqPo8G8lxTVvF5NLCSa8oqnUfltob1yqpy30MGC7qsYrOgO4PNgu4LNgu6rGKzoMsqNgu6rGKzoMsqNgt6umWz0G62xuWh262Ky0O3kRWXh26PKy4P3fZXXB66Pd+4PHTbwXF56HaK4/LQbSLH5dFAnmu3nuPyaCDPtRvWcXk0sJJryqqVx/c6O7wud3QWxyKSd6sdZIuNY1vp7aRd7ABbuVXsalvoVGZv43nkp61+ty0cp98WPfWb26+33ex9jvG427XvD7xMTuJkcXIfpOW2yo/XX2Pv6VzgPPFl8mWudjmufaLiWDzn+Ci9dJ7IEkNt1Lxs9w3v+40wwggjjDDCCCOMMMIII4wwwggjjDDCCCOMMMIII4wwwggjjDDCCCOMMMIII4wwwggjjDDCCCOMMMIII4wwwggjjDDCCCOM8F8qvLDjW5kkgS8/eurBWsfu/p/Pq6pHY9Pnj8ZeyCSQ6fLxWqu9eoB4FsaZHQaRrHxENn3pOd3qJ2tTu3j1/CwOvSyIoxzKSjM561zJcZxIq96Tzx/kREb+8wsqP2vtdduip55c7qoHmdUPK5TjTIFVSK9k7eFEZqdRptontxjPo1FB2toWf1RIrAjl49mXlc9yqyMYi1Y2DVI7LXqlnpE6npxk5+136o2mrf8Cm6qt8NWj4zn7Unc4i9NACb7LP65zNatDybxAlcR3ZkgrrCDypcqHjtM2PHt1XK974jiQoRpvrWWblnkySeL5TPri55/F35af39vDqZcun39XCbb9NLp4MZo3iO1NJmfKww5lNMmm4o1wxT+FdRKGljh6/o00DEay1XG2L7vftyvz7U9XEieidZ1fSvcXcZ3bLIfq0ld99vd8xjHvIHWoYbzUu7z+bv+QC3F8fFw23nqKheqy269NL3V1XCXS+7HOyQ+G55h+X7XX8uqO1bBWg2E5UoqNHOyhl6bBJJL+QG0RkV4WLfl9vaZcdfRsnk5b6/ZF3qVHZX+un0lheFTnKm31zXVd0iyJf8h6PuV313WKZ94oyBb1rJZfXvuqCouV1boqq4nk+bSyTnoYTz7qWKXz84lHdIRjqmaSbvVZH9rFqlrr+w9VNYU6dnbE59+/in+f//5FXJx/+frbp1/Fh/NffxuI96dfTusJnOWztrz3VIkmslikcZKJaH6Tj4ORKLY0SYWXjvLiJYgmNRRXba90nqzMXltc1Z9cEpnNk0jMvCSVZ2HsZS1PTfnbeVc++eyq+KxWY1aXaE9sl5dQJfyw2Z1eHuvPIt2LZG9t+XLszcNMzJI4n8PkVlts/XRwMBicnm5teOMZ4AAHOMABDnCAAxzgAAc4wPlr4oh0fpP/CSx8qT4UvrdQRIn0QQMa0IAGNKABDWhAAxrQgAY0epq74tas/6G5CucSOMABDnCAAxzgAAc4wAEOcICzDs7jewMd9d7Aizn13sCeU/wP28nJ7u7hIUhBClKQghSkIAUpSEEKUpCCFKQgfR2kbkHqZRRptyDt9Vz3YA+kIAUpSEEKUpCCFKQgBSlIQQpSkL4O0p4iPUsCgtQ9LEgdZ3+/1wMpSEEKUpCCFKQgBSlIQQpSkIIUpK+DdFeRfp3OKdKDgvQwP/pvQQpSkIIUpCAFKUhBClKQghSkIAXp6yDtK9J/SZ8i3S9I370bDPb3QQpSkIIUpCAFKUhBClKQghSkIAXp6yDdK/5lYi4p0r2CdDDY2wMpSEEKUpCCFKQgBSlIQQpSkIIUpK+FdF+RfoypnQXdfkF6cOC6/T5IQQpSkIIUpCAFKUhBClKQghSkIG2MdIXiJ95dq1Ls3s6CLJQXU28m7UzeZ62t9/E8SasxFn8+811wI6M0iKNQpoVChcTOjjjxfeGJQkncBdlUpPGNFH6v4sz0dmJ7s5mM/JalvK3tihNWh+1lWdKy7q222OsanrTIT3Lrn5Rmi1CWeB0vGk3jJD/fCuXYgHapMY6jrHMng8k0UxpXcejX1yj75mLW+TgPs+EgzMfo0B1+jv1hb/jt09AZnn34MnTExSLt9MRZmHTy30fTzjvx/nM4usk6UZzk/fLtk/h0OnirvpbJG9ETny++ifPRSH13a1vX02920lESzLJ/kN95s+MHty+HyXNosVxLBP6xNVJpMMhbzgsimQwdp2+Joj2PLT9IZ6G3OAqiMI91rsJ49OMXiwbMVctrENlilp+vmnTn2rv1yk+1Z6rj1kvUkBXHwg9uZqG0I3l3cTtpWT+9ANkWu91u8aMyB5Wu72VeLnz5hxV6VzK0jixfjr28q8UsicdBKK12GRneW0eO3W1bt144l8vfR2qqys/JZ5/B4PTUemjX0nGZdHpMOrtMOn0mnT0mnX0mnQMmnUMmHafLJcQ1oh2uIe1wjWmHa1A7XKPa4RrWDte4drgGtsM1sl2uke2yzdVcI9vlGtmu0cgW6fzm5tm7q2utaIn0DWTINjKTIVvITIZsHzMZMu/NZMisN5Mhc95Mhsx4Mxky381k6IXMUIdpHNPLmKEO00imFzFDHaaxTC9hhjpMo5lewAx1mMYzvXwZ6nDNy0zjmV67DHXqj+e7IMrMl60r9VF9HbJ5DHXI5jHUIZvHUIdMd0MdMt0Ndch0N9Qh091Qh0x3Qx16/TIV4hrR9ApmKsQ1puk1zFSIa1TTq5ipENe4ptcxUyGukU2vZKZCbHM118imFzNTofoj+/E/MypfNkwtc91nf+iVbyNmsHA3b9HbvMXu5i36m7fY27zF/uYtDjZvcbh5i2cr+6Y8Gshvp4EEdxrIcKeBFHcayHGngSR3Gshyp4E0dxrIc7eBPHebWMcbyHO3gTx318vzync61iurypc+MljQvcFmQXcGmwXdF2wW9JTLZkHPuGwW9ITLZkHPt2wW9HTLZqEpq/g8GshvTVnF59FAhmvKKj6PBnJcU1bxeTSQ5Zqyis+jgTzXlFV8Hk2s4w3kuaas4vNYL88rX51Vr6wq363FYEH3BpsF3RlsFnRfsFnQUy6bBT3jslnQEy6bBT3fslnQ90axWWhuCOTzoO+o4vOgb7bi86Dvw+LzoG/R4vOg70vk86BvWeTzoO9m5POgb3Tk82ggzzVlFZ9HE+t4Awu5pqzi81hvKa98Q0m9sqp8hQmDBd0bbBZ0Z7BZ0H3BZkGXVWwWdFnFZkGXVWwWdFnFZkFPt2wWmrKKz4Muq/g86LKKz4Muq/g86LKKz4Muq/g86LKKz4Muq/g86LKKz6OBPNeUVXweTazjDSzkmrKKz2O9pbxyI/h6ZVW5UzyDBd0bbBZ0Z7BZ0H3BZkGXVWwWdFnFZkGXVWwWdFnFZkFPt2wWmrKKz4Muq/g86LKKz4Muq/g86LKKz4Muq/g86LKKz4Muq/g86LKKz6OBPNeUVXweTazjDSzkmrKKz2O9pbxyv916ZVW5IS+DBd0bbBZ0Z7BZ0H3BZkGXVWwWdFnFZkGXVWwWdFnFZkFPt2wWmrKKz4Muq/g86LKKz4Muq/g86LKKz4Muq/g86LKKz4Muq/g86LKKz6OBPNeUVXweTazjDSzkmrKKz2O9pbxyW8N6ZVW57yGDBd0bbBZ0Z7BZ0H3BZkGXVWwWdFnFZkGXVWwWdFnFZqHbd4rJQrvZGpeHbrcqLg/dRlZcHro9rrg8dNtfcXno9nzj8tBtB8flodspjstDt4kcl0cDea4pq/g8mljHG1jINWUVn0f1Uv69zg6vyx2dxbGI5N1qB9li49hWejtpFzvAVm4Vu9oWOpXZ23ge+Wmr320Lx+m3RU/95vbrbTd7n2M87nbt+wMvk5M4WZzcB2m5rfLj9dfYezoXOE98mXyZq12Oa5+oOBbPOT5KL50nssRQGzUv233D+34jjDDCCCOMMMIII4wwwggjjDDCCCOMMMIII4wwwggjjDDCCCOMMMIII4wwwggjjDDCCCOMMMIII4wwwggjjDDCCCOMMMIII/yXCi/s+FYmSeDLj556sNaxu//n86rq0dj0+aOxFzIJZLp8vNZqrx4gnoVxZodBJCsfkU1fek63+sna1C5ePT+LQy8L4iiHstJMzjpXchwn0qr35PMHOZGR//yCys9ae9226Kknl7vqQWb1wwrlOFNgFdIrWXs4kdlplKn2yS3G82hUkLa2xR8VEitC+Xj2ZeWz3OoIxqKVTYPUToteqWekjicn2Xn7nXqjaeu/wKZqK3z16HjOvtQdzuI0UILv8o/rXM3qUDIvUCXxnRnSCiuIfKnyoeO0Dc9eHdfrnjgOZKjGW2vZpmWeTJJ4PpO++Pln8bfl5/f2cOqly+ffVYJtP40uXozmDWJ7k8mZ8rBDGU2yqXgjXPFPYZ2EoSWOnn8jDYORbHWc7cvu9+3KfPvTlcSJaF3nl9L9RVznNsuhuvRVn/09n3HMO0gdahgv9S6vv9s/5EIcHx+XjbeeYqG67PZr00tdHVeJ9H6sc/KD4Tmm31fttby6YzWs1WBYjpRiIwd76KVpMImkP1BbRKSXRUt+X68pVx09m6fT1rp9kXfpUdmf62dSGB7VuUpbfXNdlzRL4h+ynk/53XWd4pk3CrJFPavll9e+qsJiZbWuymoieT6trJMexpOPOlbp/HziER3hmKqZpFt91od2sarW+v5DVU2hjp0d8fn3r+Lf579/ERfnX77+9ulX8eH8198G4v3pl9N6Amf5rC3vPVWiiSwWaZxkIprf5ONgJIotTVLhpaO8eAmiSQ3FVdsrnScrs9cWV/Unl0Rm8yQSMy9J5VkYe1nLU1P+dt6VTz67Kj6r1ZjVJdoT2+UlVAk/bHanl8f6s0j3ItlbW74ce/MwE7MkzucwudUWWz8dHAwGp6dbG954BjjAAQ5wgAMc4AAHOMABDnD+mjgind/kfwILX6oPhe8tFFEifdCABjSgAQ1oQAMa0IAGNKABjZ7mrrg1639orsK5BA5wgAMc4AAHOMABDnCAAxzgrIPz+N5AR7038GJOvTew5xT/w3Zysrt7eAhSkIIUpCAFKUhBClKQghSkIAUpSF8HqVuQehlF2i1Iez3XPdgDKUhBClKQghSkIAUpSEEKUpCCFKSvg7SnSM+SgCB1DwtSx9nf7/VAClKQghSkIAUpSEEKUpCCFKQgBenrIN1VpF+nc4r0oCA9zI/+W5CCFKQgBSlIQQpSkIIUpCAFKUhB+jpI+4r0X9KnSPcL0nfvBoP9fZCCFKQgBSlIQQpSkIIUpCAFKUhB+jpI94p/mZhLinSvIB0M9vZAClKQghSkIAUpSEEKUpCCFKQgBelrId1XpB9jamdBt1+QHhy4br8PUpCCFKQgBSlIQQpSkIIUpCAFKUgbI12h+Il316oUu7ezIAvlxdSbSTuT91lr6308T9JqjMWfz3wX3MgoDeIolGmhUCGxsyNOfF94olASd0E2FWl8I4XfqzgzvZ3Y3mwmI79lKW9ru+KE1WF7WZa0rHurLfa6hict8pPc+iel2SKUJV7Hi0bTOMnPt0I5NqBdaozjKOvcyWAyzZTGVRz69TXKvrmYdc7H42Ak0+G3T0NnePbhy9ARF4u00xNnYdLJfx9NOyfi/edwdJN1pJdm4tsn8el08FZ9K5M3oic+X3wT56OR+urWtq533+ykoySYZf8gv/Nmxw9uXw6T59BiuZYI/GNrpIb+IG8tL4hkMnScPUsUbXhs+UE6C73FURCFeaxzFcajH79YNGCuWl6DyBaz/HzVjDvX3q1Xfqo9Ux23XqKGqTgWfnAzC6UdybuL20nL+ukFyLbY7XaLH5V5p3R9L/Ny4cs/rNC7kqF1ZPly7M3DTMySeByE0mqXkeG9deTY3bZ164VzaR3tHdqHT46Dw7Y1UpNVrpDPP4PB6an10K6l6m5EtbcR1d2NqPY3orq3EdX9jagebET1cCOqTnczspvJLmcz6eVsJr+czSSYs5kMczaTYs5mcszZTJI5m8kydzNZ5m5oDdtMlrmbyTL3/8gykc5vbp69/3uNCiGRvoFozbY1E63ZsmaiNdvVTLTm3GUmWnPmMhOtOW+ZidactcxEa85ZZqJ1CwND1Y3kVN2ywFB1I1lVtygwVN1IXv2nnTPqbduGovD7fgWXh0LGHNVylmbL5g1Zm7QF2mVIUwxDEASyRdtKFMkQ5SbGkP8+XZny7CSaSZFqYuzwoXZN6fAjdS9JlOpR3RJoqjaSWaobAk3VRnJLdTugqdrMetVIbqnuBTRV6+bWTRhnptuAPl2grqo4rJqqisOqqao4rJqqilOWpqrilKWpqjhlaaoqTlmaqopTlqaq6n5AV7aZ7FLdEejKNpNfqnsCXdlmMkx1V6Ar20yOqe4LdGWbyTLVnYGubENrWDNZpro50JXVyrJzlQMHeajIeizmN+WBRnGO4Ygvo3ZxILH25KI8mRQ8+y2ZxoFwdjtt5nm7bbZD37q7aqcftznG4sA1CF77GR8l6ezgNhTzk73FUCgcf+YCx2nA05MpHbQp30gcs1WOj9wX05TPMeisUD4C0wPd4iBptalPPA25kLh5S/KBTKIkc+l0a22T4rF+rycVbhF3kyTyszCJc6gtkfHJdp8Pk5RvqUXSBz7icbDaoflvzqs8CnYoEugwzKM/5Hnp2qPkUta9GPHsMM5ofPImhtN4UJA6Lfa3woEpEfLF3Wdrc4NKOGRONg5FHtd0n1pDVJZucvPxO/QHY+dfYF21El+eDUrdi0kiQhJ8k/+s0puykMwjVGlyo4dUYoVxwClxt7225t1luax74zDkEcWbI8d0niejNJlOeMBevGDfyt9v3YuxL+R8QgnWWq6dPVqbD4jrj0ZH1IYb8XiUjdnPrMt+ZVsHUbTF9levEFE44M621zrrnLfW5tuDniQpcy7zrnR+Ypd5MzJUZbv023c95uk/ICoUxlLv7PLcveL59NbrzQevnmKhKh/7pW5Xy9JPuX9V5+Y7zXt0r6fxkr3rUVhTMMhIKRZG92L+MhAPiteBxFkxkuf1hrJ80JOpGDt1n0X+SPfnz7N+JkXRvkovXbqybisiS5MrrtbO/Nq6LSUTfxBmM7Wm5MW1e1U0UTZVV6WcSFanlTrpoT35UCnTeXXiYdvM01XTSTd11rt2saoqXX+3bk9B5eVL9sfnU/bX8ecT9un45PT972/Zh+O371+zd4cnh2oCR/mszW992qKxLGEiyTfS8fQ6j4MBK7aIgvlikG9ewnikoFiOPeksrcx+m/XVJ5eUZ9M0ZhM/FfwoSvzM8WnKb+WPcum3fvGb0mCu36ItNSu7sE747gle2rx3ACvfzKQD1Sd5hxQ4wAEOcIADHOAABzjAAQ5wNh7n4QsuRJTyADSgAQ1oQAMa0IAGNKABDWhA8980D14JJBp6xQ84wAEOcIADHOAABzjAAQ5wgPOEVomn/HrCUz+bppw5Ry2YJT4rs8Q/fYq4d7z4OLjuhzzOGD0ycj7kwTQf/2221znaEBPEvU0wQdz7aiaIxX89rWvCZElnx5LO95Z0di3pvLKks2dJ5wdLOj9a0llxFzASshXRnq2Q9mzFtGcrqD1bUe3ZCmvPVlx7tgLbsxXZXVuR3bU2V9uK7K6tyO5qRba6ad+KVH2bPgOZyhGqb8VnIFOZ9/Xt9gxkKnO+vqWegUxlvhvY5pnoWIrj6mXMwAzPRMdSKFevYQYWdyY6lqK5egEzMK4zmQctxXP16mVgR2eiYymeq5eu+iZzKzIGtnImOpXDY2AdZ6JTme4G9nAmOpXpbmABZ6JTme4mNm9GQrYiunoFMzFvMxKyFdTVi5iJJZuRkK24rl7HTIzWjGZGW5FdvZSZ2KcZCdmK7OrVDKZoG2GKhmpUoxrVqEY1qlGNalSjGtWoRjWqUY3q51Q9c5MvPE3DgH/06R+qPLcDU/ylnsAUf1Fgiq9VYIoPU3yNAlP8+wWm+PcLTPE1C0zxYYr/aIEpPnCAAxzgAAc4wAEOcIADHOAAZxMsJUEDGtCABjSgAQ1oQAMa0IBmc2j+N1aWwAEOcIADHOAABzjAAQ5wgFO/vScwxX8TXvNYhEkccSFgif+8LPGT9IodDofhIOTxYLYwwv+6Fvjy6ns1y38vv88/F+ryy+KjnwQz+hxn19Ev3/wDt0R9AQ=="
               },
               {
                  "name" : "annual_peak_electric_demand",
                  "units" : "kW",
                  "value" : 818.76391000000001
               },
               {
                  "name" : "first_year_capital_cost",
                  "units" : "$",
                  "value" : 0
               },
               {
                  "name" : "annual_utility_cost",
                  "units" : "$",
                  "value" : 0
               },
               {
                  "name" : "total_lifecycle_cost",
                  "units" : "$",
                  "value" : 0
               }
            ],
            "step_warnings" : [ "A table in Annual Overview section returned false and was skipped." ]
         }
      }
   ],
   "updated_at" : "20170710T191504Z",
   "weather_file" : "USA_CO_Denver.Intl.AP.725650_TMY3.epw"
}
