{
   "completed_at" : "20170710T193202Z",
   "completed_status" : "Success",
   "created_at" : "2017-07-10 19:29:12 +0000",
   "current_step" : 5,
   "description" : "",
   "eplusout_err" : "Program Version,EnergyPlus, Version 8.7.0-78a111df4a, YMD=2017.07.10 19:30,IDD_Version 8.7.0\n   ************* IDF Context for following error/warning message:\n   ************* Note -- lines truncated at 300 characters, if necessary...\n   *************      5 Building,\n   ************* indicated Name=NECB 2011-RetailStripmall-NECB HDD Method-CAN_BC_Port.Hardy.711090_CWEC.epw created: 2017-07-10 19:29:18 +0000\n   ************* Only last 1 lines before error line shown.....\n   *************      6   NECB 2011-RetailStripmall-NECB HDD Method-CAN_BC_Port.Hardy.711090_CWEC.epw created: 2017-07-10 19:29:18 +0000, !- Name\n   ** Warning ** IP: IDF line~6 Alpha Argument length exceeds maximum, will be truncated=  NECB 2011-RetailStripmall-NECB HDD Method-CAN_BC_Port.Hardy.711090_CWEC.epw created: 2017-07-10 19:29:18 +000\n   **   ~~~   ** Will be processed as Alpha=NECB 2011-RETAILSTRIPMALL-NECB HDD METHOD-CAN_BC_PORT.HARDY.711090_CWEC.EPW CREATED: 2017-07-10 19:29:18 +0000\n   ************* Beginning Zone Sizing Calculations\n   ** Warning ** ProcessScheduleInput: Schedule:Day:Interval=\"ECONOMIZER MAX OA FRACTION 100 PCT DEFAULT\", Blank Schedule Type Limits Name input -- will not be validated.\n   ** Warning ** ProcessScheduleInput: Schedule:Day:Interval=\"SCHEDULE DAY 1\", Blank Schedule Type Limits Name input -- will not be validated.\n   ** Warning ** ProcessScheduleInput: Schedule:Day:Interval=\"SCHEDULE DAY 10\", Blank Schedule Type Limits Name input -- will not be validated.\n   ** Warning ** ProcessScheduleInput: Schedule:Day:Interval=\"SCHEDULE DAY 11\", Blank Schedule Type Limits Name input -- will not be validated.\n   ** Warning ** ProcessScheduleInput: Schedule:Day:Interval=\"SCHEDULE DAY 12\", Blank Schedule Type Limits Name input -- will not be validated.\n   ** Warning ** ProcessScheduleInput: Schedule:Day:Interval=\"SCHEDULE DAY 13\", Blank Schedule Type Limits Name input -- will not be validated.\n   ** Warning ** ProcessScheduleInput: Schedule:Day:Interval=\"SCHEDULE DAY 14\", Blank Schedule Type Limits Name input -- will not be validated.\n   ** Warning ** ProcessScheduleInput: Schedule:Day:Interval=\"SCHEDULE DAY 15\", Blank Schedule Type Limits Name input -- will not be validated.\n   ** Warning ** ProcessScheduleInput: Schedule:Day:Interval=\"SCHEDULE DAY 16\", Blank Schedule Type Limits Name input -- will not be validated.\n   ** Warning ** ProcessScheduleInput: Schedule:Day:Interval=\"SCHEDULE DAY 17\", Blank Schedule Type Limits Name input -- will not be validated.\n   ** Warning ** ProcessScheduleInput: Schedule:Day:Interval=\"SCHEDULE DAY 18\", Blank Schedule Type Limits Name input -- will not be validated.\n   ** Warning ** ProcessScheduleInput: Schedule:Day:Interval=\"SCHEDULE DAY 19\", Blank Schedule Type Limits Name input -- will not be validated.\n   ** Warning ** ProcessScheduleInput: Schedule:Day:Interval=\"SCHEDULE DAY 2\", Blank Schedule Type Limits Name input -- will not be validated.\n   ** Warning ** ProcessScheduleInput: Schedule:Day:Interval=\"SCHEDULE DAY 20\", Blank Schedule Type Limits Name input -- will not be validated.\n   ** Warning ** ProcessScheduleInput: Schedule:Day:Interval=\"SCHEDULE DAY 21\", Blank Schedule Type Limits Name input -- will not be validated.\n   ** Warning ** ProcessScheduleInput: Schedule:Day:Interval=\"SCHEDULE DAY 22\", Blank Schedule Type Limits Name input -- will not be validated.\n   ** Warning ** ProcessScheduleInput: Schedule:Day:Interval=\"SCHEDULE DAY 23\", Blank Schedule Type Limits Name input -- will not be validated.\n   ** Warning ** ProcessScheduleInput: Schedule:Day:Interval=\"SCHEDULE DAY 24\", Blank Schedule Type Limits Name input -- will not be validated.\n   ** Warning ** ProcessScheduleInput: Schedule:Day:Interval=\"SCHEDULE DAY 25\", Blank Schedule Type Limits Name input -- will not be validated.\n   ** Warning ** ProcessScheduleInput: Schedule:Day:Interval=\"SCHEDULE DAY 26\", Blank Schedule Type Limits Name input -- will not be validated.\n   ** Warning ** ProcessScheduleInput: Schedule:Day:Interval=\"SCHEDULE DAY 27\", Blank Schedule Type Limits Name input -- will not be validated.\n   ** Warning ** ProcessScheduleInput: Schedule:Day:Interval=\"SCHEDULE DAY 28\", Blank Schedule Type Limits Name input -- will not be validated.\n   ** Warning ** ProcessScheduleInput: Schedule:Day:Interval=\"SCHEDULE DAY 29\", Blank Schedule Type Limits Name input -- will not be validated.\n   ** Warning ** ProcessScheduleInput: Schedule:Day:Interval=\"SCHEDULE DAY 30\", Blank Schedule Type Limits Name input -- will not be validated.\n   ** Warning ** ProcessScheduleInput: Schedule:Day:Interval=\"SCHEDULE DAY 31\", Blank Schedule Type Limits Name input -- will not be validated.\n   ** Warning ** ProcessScheduleInput: Schedule:Day:Interval=\"SCHEDULE DAY 32\", Blank Schedule Type Limits Name input -- will not be validated.\n   ** Warning ** ProcessScheduleInput: Schedule:Day:Interval=\"SCHEDULE DAY 33\", Blank Schedule Type Limits Name input -- will not be validated.\n   ** Warning ** ProcessScheduleInput: Schedule:Day:Interval=\"SCHEDULE DAY 34\", Blank Schedule Type Limits Name input -- will not be validated.\n   ** Warning ** ProcessScheduleInput: Schedule:Day:Interval=\"SCHEDULE DAY 35\", Blank Schedule Type Limits Name input -- will not be validated.\n   ** Warning ** ProcessScheduleInput: Schedule:Day:Interval=\"SCHEDULE DAY 36\", Blank Schedule Type Limits Name input -- will not be validated.\n   ** Warning ** ProcessScheduleInput: Schedule:Day:Interval=\"SCHEDULE DAY 37\", Blank Schedule Type Limits Name input -- will not be validated.\n   ** Warning ** ProcessScheduleInput: Schedule:Day:Interval=\"SCHEDULE DAY 38\", Blank Schedule Type Limits Name input -- will not be validated.\n   ** Warning ** ProcessScheduleInput: Schedule:Day:Interval=\"SCHEDULE DAY 39\", Blank Schedule Type Limits Name input -- will not be validated.\n   ** Warning ** ProcessScheduleInput: Schedule:Day:Interval=\"SCHEDULE DAY 40\", Blank Schedule Type Limits Name input -- will not be validated.\n   ** Warning ** ProcessScheduleInput: Schedule:Day:Interval=\"SCHEDULE DAY 41\", Blank Schedule Type Limits Name input -- will not be validated.\n   ** Warning ** ProcessScheduleInput: Schedule:Day:Interval=\"SCHEDULE DAY 42\", Blank Schedule Type Limits Name input -- will not be validated.\n   ** Warning ** ProcessScheduleInput: Schedule:Day:Interval=\"SCHEDULE DAY 43\", Blank Schedule Type Limits Name input -- will not be validated.\n   ** Warning ** ProcessScheduleInput: Schedule:Day:Interval=\"SCHEDULE DAY 44\", Blank Schedule Type Limits Name input -- will not be validated.\n   ** Warning ** ProcessScheduleInput: Schedule:Day:Interval=\"SCHEDULE DAY 45\", Blank Schedule Type Limits Name input -- will not be validated.\n   ** Warning ** ProcessScheduleInput: Schedule:Day:Interval=\"SCHEDULE DAY 46\", Blank Schedule Type Limits Name input -- will not be validated.\n   ** Warning ** ProcessScheduleInput: Schedule:Day:Interval=\"SCHEDULE DAY 47\", Blank Schedule Type Limits Name input -- will not be validated.\n   ** Warning ** ProcessScheduleInput: Schedule:Day:Interval=\"SCHEDULE DAY 48\", Blank Schedule Type Limits Name input -- will not be validated.\n   ** Warning ** ProcessScheduleInput: Schedule:Day:Interval=\"SCHEDULE DAY 49\", Blank Schedule Type Limits Name input -- will not be validated.\n   ** Warning ** ProcessScheduleInput: Schedule:Day:Interval=\"SCHEDULE DAY 5\", Blank Schedule Type Limits Name input -- will not be validated.\n   ** Warning ** ProcessScheduleInput: Schedule:Day:Interval=\"SCHEDULE DAY 50\", Blank Schedule Type Limits Name input -- will not be validated.\n   ** Warning ** ProcessScheduleInput: Schedule:Day:Interval=\"SCHEDULE DAY 51\", Blank Schedule Type Limits Name input -- will not be validated.\n   ** Warning ** ProcessScheduleInput: Schedule:Day:Interval=\"SCHEDULE DAY 52\", Blank Schedule Type Limits Name input -- will not be validated.\n   ** Warning ** ProcessScheduleInput: Schedule:Day:Interval=\"SCHEDULE DAY 53\", Blank Schedule Type Limits Name input -- will not be validated.\n   ** Warning ** ProcessScheduleInput: Schedule:Day:Interval=\"SCHEDULE DAY 54\", Blank Schedule Type Limits Name input -- will not be validated.\n   ** Warning ** ProcessScheduleInput: Schedule:Day:Interval=\"SCHEDULE DAY 6\", Blank Schedule Type Limits Name input -- will not be validated.\n   ** Warning ** ProcessScheduleInput: Schedule:Day:Interval=\"SCHEDULE DAY 7\", Blank Schedule Type Limits Name input -- will not be validated.\n   ** Warning ** ProcessScheduleInput: Schedule:Day:Interval=\"SCHEDULE DAY 8\", Blank Schedule Type Limits Name input -- will not be validated.\n   ** Warning ** ProcessScheduleInput: Schedule:Day:Interval=\"SCHEDULE DAY 9\", Blank Schedule Type Limits Name input -- will not be validated.\n   ** Warning ** ProcessScheduleInput: Schedule:Year=\"ECONOMIZER MAX OA FRACTION 100 PCT\", Blank Schedule Type Limits Name input -- will not be validated.\n   ** Warning ** ProcessScheduleInput: Schedule:Year=\"SCHEDULE RULESET 10\", Blank Schedule Type Limits Name input -- will not be validated.\n   ** Warning ** ProcessScheduleInput: Schedule:Year=\"SCHEDULE RULESET 11\", Blank Schedule Type Limits Name input -- will not be validated.\n   ** Warning ** ProcessScheduleInput: Schedule:Year=\"SCHEDULE RULESET 12\", Blank Schedule Type Limits Name input -- will not be validated.\n   ** Warning ** ProcessScheduleInput: Schedule:Year=\"SCHEDULE RULESET 13\", Blank Schedule Type Limits Name input -- will not be validated.\n   ** Warning ** ProcessScheduleInput: Schedule:Year=\"SCHEDULE RULESET 14\", Blank Schedule Type Limits Name input -- will not be validated.\n   ** Warning ** ProcessScheduleInput: Schedule:Year=\"SCHEDULE RULESET 15\", Blank Schedule Type Limits Name input -- will not be validated.\n   ** Warning ** ProcessScheduleInput: Schedule:Year=\"SCHEDULE RULESET 16\", Blank Schedule Type Limits Name input -- will not be validated.\n   ** Warning ** ProcessScheduleInput: Schedule:Year=\"SCHEDULE RULESET 17\", Blank Schedule Type Limits Name input -- will not be validated.\n   ** Warning ** ProcessScheduleInput: Schedule:Year=\"SCHEDULE RULESET 18\", Blank Schedule Type Limits Name input -- will not be validated.\n   ** Warning ** ProcessScheduleInput: Schedule:Year=\"SCHEDULE RULESET 19\", Blank Schedule Type Limits Name input -- will not be validated.\n   ** Warning ** ProcessScheduleInput: Schedule:Year=\"SCHEDULE RULESET 20\", Blank Schedule Type Limits Name input -- will not be validated.\n   ** Warning ** ProcessScheduleInput: Schedule:Year=\"SCHEDULE RULESET 21\", Blank Schedule Type Limits Name input -- will not be validated.\n   ** Warning ** ProcessScheduleInput: Schedule:Year=\"SCHEDULE RULESET 22\", Blank Schedule Type Limits Name input -- will not be validated.\n   ** Warning ** ProcessScheduleInput: Schedule:Year=\"SCHEDULE RULESET 23\", Blank Schedule Type Limits Name input -- will not be validated.\n   ** Warning ** ProcessScheduleInput: Schedule:Year=\"SCHEDULE RULESET 24\", Blank Schedule Type Limits Name input -- will not be validated.\n   ** Warning ** ProcessScheduleInput: Schedule:Year=\"SCHEDULE RULESET 25\", Blank Schedule Type Limits Name input -- will not be validated.\n   ** Warning ** ProcessScheduleInput: Schedule:Year=\"SCHEDULE RULESET 26\", Blank Schedule Type Limits Name input -- will not be validated.\n   ** Warning ** ProcessScheduleInput: Schedule:Year=\"SCHEDULE RULESET 27\", Blank Schedule Type Limits Name input -- will not be validated.\n   ** Warning ** ProcessScheduleInput: Schedule:Year=\"SCHEDULE RULESET 28\", Blank Schedule Type Limits Name input -- will not be validated.\n   ** Warning ** ProcessScheduleInput: Schedule:Year=\"SCHEDULE RULESET 29\", Blank Schedule Type Limits Name input -- will not be validated.\n   ** Warning ** ProcessScheduleInput: Schedule:Year=\"SCHEDULE RULESET 3\", Blank Schedule Type Limits Name input -- will not be validated.\n   ** Warning ** ProcessScheduleInput: Schedule:Year=\"SCHEDULE RULESET 30\", Blank Schedule Type Limits Name input -- will not be validated.\n   ** Warning ** ProcessScheduleInput: Schedule:Year=\"SCHEDULE RULESET 31\", Blank Schedule Type Limits Name input -- will not be validated.\n   ** Warning ** ProcessScheduleInput: Schedule:Year=\"SCHEDULE RULESET 32\", Blank Schedule Type Limits Name input -- will not be validated.\n   ** Warning ** ProcessScheduleInput: Schedule:Year=\"SCHEDULE RULESET 4\", Blank Schedule Type Limits Name input -- will not be validated.\n   ** Warning ** ProcessScheduleInput: Schedule:Year=\"SCHEDULE RULESET 5\", Blank Schedule Type Limits Name input -- will not be validated.\n   ** Warning ** ProcessScheduleInput: Schedule:Year=\"SCHEDULE RULESET 6\", Blank Schedule Type Limits Name input -- will not be validated.\n   ** Warning ** ProcessScheduleInput: Schedule:Year=\"SCHEDULE RULESET 7\", Blank Schedule Type Limits Name input -- will not be validated.\n   ** Warning ** ProcessScheduleInput: Schedule:Year=\"SCHEDULE RULESET 8\", Blank Schedule Type Limits Name input -- will not be validated.\n   ** Warning ** ProcessScheduleInput: Schedule:Year=\"SCHEDULE RULESET 9\", Blank Schedule Type Limits Name input -- will not be validated.\n   ** Warning ** ProcessScheduleInput: Schedule:Constant=\"ALWAYS OFF DISCRETE\", Blank Schedule Type Limits Name input -- will not be validated.\n   ** Warning ** ProcessScheduleInput: Schedule:Constant=\"ALWAYS ON CONTINUOUS\", Blank Schedule Type Limits Name input -- will not be validated.\n   ** Warning ** CheckUsedConstructions: There are 24 nominally unused constructions in input.\n   **   ~~~   ** For explicit details on each unused construction, use Output:Diagnostics,DisplayExtraWarnings;\n   ************* Beginning System Sizing Calculations\n   ************* Beginning Plant Sizing Calculations\n   ** Warning ** GetDXCoils: Coil:Cooling:DX:SingleSpeed=\"COIL COOLING DX SINGLE SPEED 10 60KBTU/HR 14.0SEER\", invalid\n   **   ~~~   ** ...Part Load Fraction Correlation Curve Name = DXCOOL-NECB2011-REF-COOLPLFFPLR 1 has out of range value.\n   **   ~~~   ** ...Curve maximum must be <= 1.0, curve max at PLR = 0.99 is 1.015\n   **   ~~~   ** ...Setting curve maximum to 1.0 and simulation continues.\n   ** Warning ** GetDXCoils: Coil:Cooling:DX:SingleSpeed=\"COIL COOLING DX SINGLE SPEED 1 60KBTU/HR 14.0SEER\", invalid\n   **   ~~~   ** ...Part Load Fraction Correlation Curve Name = DXCOOL-NECB2011-REF-COOLPLFFPLR has out of range value.\n   **   ~~~   ** ...Curve maximum must be <= 1.0, curve max at PLR = 0.99 is 1.015\n   **   ~~~   ** ...Setting curve maximum to 1.0 and simulation continues.\n   ** Warning ** GetDXCoils: Coil:Cooling:DX:SingleSpeed=\"COIL COOLING DX SINGLE SPEED 3 32KBTU/HR 14.0SEER\", invalid\n   **   ~~~   ** ...Part Load Fraction Correlation Curve Name = DXCOOL-NECB2011-REF-COOLPLFFPLR 3 has out of range value.\n   **   ~~~   ** ...Curve maximum must be <= 1.0, curve max at PLR = 0.99 is 1.015\n   **   ~~~   ** ...Setting curve maximum to 1.0 and simulation continues.\n   ** Warning ** GetDXCoils: Coil:Cooling:DX:SingleSpeed=\"COIL COOLING DX SINGLE SPEED 2 31KBTU/HR 14.0SEER\", invalid\n   **   ~~~   ** ...Part Load Fraction Correlation Curve Name = DXCOOL-NECB2011-REF-COOLPLFFPLR 2 has out of range value.\n   **   ~~~   ** ...Curve maximum must be <= 1.0, curve max at PLR = 0.99 is 1.015\n   **   ~~~   ** ...Setting curve maximum to 1.0 and simulation continues.\n   ** Warning ** GetDXCoils: Coil:Cooling:DX:SingleSpeed=\"COIL COOLING DX SINGLE SPEED 6 31KBTU/HR 14.0SEER\", invalid\n   **   ~~~   ** ...Part Load Fraction Correlation Curve Name = DXCOOL-NECB2011-REF-COOLPLFFPLR 6 has out of range value.\n   **   ~~~   ** ...Curve maximum must be <= 1.0, curve max at PLR = 0.99 is 1.015\n   **   ~~~   ** ...Setting curve maximum to 1.0 and simulation continues.\n   ** Warning ** GetDXCoils: Coil:Cooling:DX:SingleSpeed=\"COIL COOLING DX SINGLE SPEED 8 32KBTU/HR 14.0SEER\", invalid\n   **   ~~~   ** ...Part Load Fraction Correlation Curve Name = DXCOOL-NECB2011-REF-COOLPLFFPLR 8 has out of range value.\n   **   ~~~   ** ...Curve maximum must be <= 1.0, curve max at PLR = 0.99 is 1.015\n   **   ~~~   ** ...Setting curve maximum to 1.0 and simulation continues.\n   ** Warning ** GetDXCoils: Coil:Cooling:DX:SingleSpeed=\"COIL COOLING DX SINGLE SPEED 7 32KBTU/HR 14.0SEER\", invalid\n   **   ~~~   ** ...Part Load Fraction Correlation Curve Name = DXCOOL-NECB2011-REF-COOLPLFFPLR 7 has out of range value.\n   **   ~~~   ** ...Curve maximum must be <= 1.0, curve max at PLR = 0.99 is 1.015\n   **   ~~~   ** ...Setting curve maximum to 1.0 and simulation continues.\n   ** Warning ** GetDXCoils: Coil:Cooling:DX:SingleSpeed=\"COIL COOLING DX SINGLE SPEED 5 31KBTU/HR 14.0SEER\", invalid\n   **   ~~~   ** ...Part Load Fraction Correlation Curve Name = DXCOOL-NECB2011-REF-COOLPLFFPLR 5 has out of range value.\n   **   ~~~   ** ...Curve maximum must be <= 1.0, curve max at PLR = 0.99 is 1.015\n   **   ~~~   ** ...Setting curve maximum to 1.0 and simulation continues.\n   ** Warning ** GetDXCoils: Coil:Cooling:DX:SingleSpeed=\"COIL COOLING DX SINGLE SPEED 4 31KBTU/HR 14.0SEER\", invalid\n   **   ~~~   ** ...Part Load Fraction Correlation Curve Name = DXCOOL-NECB2011-REF-COOLPLFFPLR 4 has out of range value.\n   **   ~~~   ** ...Curve maximum must be <= 1.0, curve max at PLR = 0.99 is 1.015\n   **   ~~~   ** ...Setting curve maximum to 1.0 and simulation continues.\n   ** Warning ** GetDXCoils: Coil:Cooling:DX:SingleSpeed=\"COIL COOLING DX SINGLE SPEED 9 31KBTU/HR 14.0SEER\", invalid\n   **   ~~~   ** ...Part Load Fraction Correlation Curve Name = DXCOOL-NECB2011-REF-COOLPLFFPLR 9 has out of range value.\n   **   ~~~   ** ...Curve maximum must be <= 1.0, curve max at PLR = 0.99 is 1.015\n   **   ~~~   ** ...Setting curve maximum to 1.0 and simulation continues.\n   ** Warning ** The Standard Ratings is calculated for Coil:Cooling:DX:SingleSpeed = COIL COOLING DX SINGLE SPEED 10 60KBTU/HR 14.0SEER but not at the AHRI test condition due to curve out of bound.\n   **   ~~~   **  Review the Standard Ratings calculations in the Engineering Reference for this coil type. Also, use Output:Diagnostics, DisplayExtraWarnings for further guidance.\n   ** Warning ** The Standard Ratings is calculated for Coil:Cooling:DX:SingleSpeed = COIL COOLING DX SINGLE SPEED 1 60KBTU/HR 14.0SEER but not at the AHRI test condition due to curve out of bound.\n   **   ~~~   **  Review the Standard Ratings calculations in the Engineering Reference for this coil type. Also, use Output:Diagnostics, DisplayExtraWarnings for further guidance.\n   ** Warning ** The Standard Ratings is calculated for Coil:Cooling:DX:SingleSpeed = COIL COOLING DX SINGLE SPEED 3 32KBTU/HR 14.0SEER but not at the AHRI test condition due to curve out of bound.\n   **   ~~~   **  Review the Standard Ratings calculations in the Engineering Reference for this coil type. Also, use Output:Diagnostics, DisplayExtraWarnings for further guidance.\n   ** Warning ** The Standard Ratings is calculated for Coil:Cooling:DX:SingleSpeed = COIL COOLING DX SINGLE SPEED 2 31KBTU/HR 14.0SEER but not at the AHRI test condition due to curve out of bound.\n   **   ~~~   **  Review the Standard Ratings calculations in the Engineering Reference for this coil type. Also, use Output:Diagnostics, DisplayExtraWarnings for further guidance.\n   ** Warning ** The Standard Ratings is calculated for Coil:Cooling:DX:SingleSpeed = COIL COOLING DX SINGLE SPEED 6 31KBTU/HR 14.0SEER but not at the AHRI test condition due to curve out of bound.\n   **   ~~~   **  Review the Standard Ratings calculations in the Engineering Reference for this coil type. Also, use Output:Diagnostics, DisplayExtraWarnings for further guidance.\n   ** Warning ** The Standard Ratings is calculated for Coil:Cooling:DX:SingleSpeed = COIL COOLING DX SINGLE SPEED 8 32KBTU/HR 14.0SEER but not at the AHRI test condition due to curve out of bound.\n   **   ~~~   **  Review the Standard Ratings calculations in the Engineering Reference for this coil type. Also, use Output:Diagnostics, DisplayExtraWarnings for further guidance.\n   ** Warning ** The Standard Ratings is calculated for Coil:Cooling:DX:SingleSpeed = COIL COOLING DX SINGLE SPEED 7 32KBTU/HR 14.0SEER but not at the AHRI test condition due to curve out of bound.\n   **   ~~~   **  Review the Standard Ratings calculations in the Engineering Reference for this coil type. Also, use Output:Diagnostics, DisplayExtraWarnings for further guidance.\n   ** Warning ** The Standard Ratings is calculated for Coil:Cooling:DX:SingleSpeed = COIL COOLING DX SINGLE SPEED 5 31KBTU/HR 14.0SEER but not at the AHRI test condition due to curve out of bound.\n   **   ~~~   **  Review the Standard Ratings calculations in the Engineering Reference for this coil type. Also, use Output:Diagnostics, DisplayExtraWarnings for further guidance.\n   ** Warning ** The Standard Ratings is calculated for Coil:Cooling:DX:SingleSpeed = COIL COOLING DX SINGLE SPEED 4 31KBTU/HR 14.0SEER but not at the AHRI test condition due to curve out of bound.\n   **   ~~~   **  Review the Standard Ratings calculations in the Engineering Reference for this coil type. Also, use Output:Diagnostics, DisplayExtraWarnings for further guidance.\n   ** Warning ** The Standard Ratings is calculated for Coil:Cooling:DX:SingleSpeed = COIL COOLING DX SINGLE SPEED 9 31KBTU/HR 14.0SEER but not at the AHRI test condition due to curve out of bound.\n   **   ~~~   **  Review the Standard Ratings calculations in the Engineering Reference for this coil type. Also, use Output:Diagnostics, DisplayExtraWarnings for further guidance.\n   ** Warning ** Check input. Pump nominal power or motor efficiency is set to 0, for pump=SERVICE WATER LOOP PUMP\n   ** Warning ** Output:Meter: invalid Name=\"DISTRICTCOOLING:FACILITY\" - not found.\n   ** Warning ** Output:Meter: invalid Name=\"DISTRICTHEATING:FACILITY\" - not found.\n   ** Warning ** Output:Meter:MeterFileOnly requested for \"Electricity:Facility\" (TimeStep), already on \"Output:Meter\". Will report to both eplusout.eso and eplusout.mtr\n   ************* Testing Individual Branch Integrity\n   ************* All Branches passed integrity testing\n   ************* Testing Individual Supply Air Path Integrity\n   ************* All Supply Air Paths passed integrity testing\n   ************* Testing Individual Return Air Path Integrity\n   ************* All Return Air Paths passed integrity testing\n   ************* No node connection errors were found.\n   ************* Beginning Simulation\n   ** Warning ** CalcDoe2DXCoil: Coil:Cooling:DX:SingleSpeed \"COIL COOLING DX SINGLE SPEED 10 60KBTU/HR 14.0SEER\" - Air-cooled condenser inlet dry-bulb temperature below 0 C. Outdoor dry-bulb temperature = -1.10\n   **   ~~~   **  ... Occurrence info = RUN PERIOD 1, 01/03 07:08 - 07:15\n   **   ~~~   ** ... Operation at low ambient temperatures may require special performance curves.\n   ** Warning ** CalcDoe2DXCoil: Coil:Cooling:DX:SingleSpeed \"COIL COOLING DX SINGLE SPEED 1 60KBTU/HR 14.0SEER\" - Air-cooled condenser inlet dry-bulb temperature below 0 C. Outdoor dry-bulb temperature = -1.10\n   **   ~~~   **  ... Occurrence info = RUN PERIOD 1, 01/03 07:08 - 07:15\n   **   ~~~   ** ... Operation at low ambient temperatures may require special performance curves.\n   ** Warning ** CalcDoe2DXCoil: Coil:Cooling:DX:SingleSpeed \"COIL COOLING DX SINGLE SPEED 3 32KBTU/HR 14.0SEER\" - Air-cooled condenser inlet dry-bulb temperature below 0 C. Outdoor dry-bulb temperature = -1.10\n   **   ~~~   **  ... Occurrence info = RUN PERIOD 1, 01/03 07:08 - 07:15\n   **   ~~~   ** ... Operation at low ambient temperatures may require special performance curves.\n   ** Warning ** CalcDoe2DXCoil: Coil:Cooling:DX:SingleSpeed \"COIL COOLING DX SINGLE SPEED 2 31KBTU/HR 14.0SEER\" - Air-cooled condenser inlet dry-bulb temperature below 0 C. Outdoor dry-bulb temperature = -1.10\n   **   ~~~   **  ... Occurrence info = RUN PERIOD 1, 01/03 07:08 - 07:15\n   **   ~~~   ** ... Operation at low ambient temperatures may require special performance curves.\n   ** Warning ** CalcDoe2DXCoil: Coil:Cooling:DX:SingleSpeed \"COIL COOLING DX SINGLE SPEED 6 31KBTU/HR 14.0SEER\" - Air-cooled condenser inlet dry-bulb temperature below 0 C. Outdoor dry-bulb temperature = -1.10\n   **   ~~~   **  ... Occurrence info = RUN PERIOD 1, 01/03 07:08 - 07:15\n   **   ~~~   ** ... Operation at low ambient temperatures may require special performance curves.\n   ** Warning ** CalcDoe2DXCoil: Coil:Cooling:DX:SingleSpeed \"COIL COOLING DX SINGLE SPEED 8 32KBTU/HR 14.0SEER\" - Air-cooled condenser inlet dry-bulb temperature below 0 C. Outdoor dry-bulb temperature = -1.10\n   **   ~~~   **  ... Occurrence info = RUN PERIOD 1, 01/03 07:08 - 07:15\n   **   ~~~   ** ... Operation at low ambient temperatures may require special performance curves.\n   ** Warning ** CalcDoe2DXCoil: Coil:Cooling:DX:SingleSpeed \"COIL COOLING DX SINGLE SPEED 7 32KBTU/HR 14.0SEER\" - Air-cooled condenser inlet dry-bulb temperature below 0 C. Outdoor dry-bulb temperature = -1.10\n   **   ~~~   **  ... Occurrence info = RUN PERIOD 1, 01/03 07:08 - 07:15\n   **   ~~~   ** ... Operation at low ambient temperatures may require special performance curves.\n   ** Warning ** CalcDoe2DXCoil: Coil:Cooling:DX:SingleSpeed \"COIL COOLING DX SINGLE SPEED 5 31KBTU/HR 14.0SEER\" - Air-cooled condenser inlet dry-bulb temperature below 0 C. Outdoor dry-bulb temperature = -1.10\n   **   ~~~   **  ... Occurrence info = RUN PERIOD 1, 01/03 07:08 - 07:15\n   **   ~~~   ** ... Operation at low ambient temperatures may require special performance curves.\n   ** Warning ** CalcDoe2DXCoil: Coil:Cooling:DX:SingleSpeed \"COIL COOLING DX SINGLE SPEED 4 31KBTU/HR 14.0SEER\" - Air-cooled condenser inlet dry-bulb temperature below 0 C. Outdoor dry-bulb temperature = -1.10\n   **   ~~~   **  ... Occurrence info = RUN PERIOD 1, 01/03 07:08 - 07:15\n   **   ~~~   ** ... Operation at low ambient temperatures may require special performance curves.\n   ** Warning ** CalcDoe2DXCoil: Coil:Cooling:DX:SingleSpeed \"COIL COOLING DX SINGLE SPEED 9 31KBTU/HR 14.0SEER\" - Air-cooled condenser inlet dry-bulb temperature below 0 C. Outdoor dry-bulb temperature = -1.40\n   **   ~~~   **  ... Occurrence info = RUN PERIOD 1, 01/03 08:20 - 08:25\n   **   ~~~   ** ... Operation at low ambient temperatures may require special performance curves.\n   ** Warning ** CalcDoe2DXCoil: Coil:Cooling:DX:SingleSpeed \"COIL COOLING DX SINGLE SPEED 3 32KBTU/HR 14.0SEER\" - Full load outlet air dry-bulb temperature < 2C. This indicates the possibility of coil frost/freeze. Outlet temperature = 1.49 C.\n   **   ~~~   **  ...Occurrence info = RUN PERIOD 1, 01/03 12:45 - 13:00\n   **   ~~~   ** ... Possible reasons for low outlet air dry-bulb temperatures are: This DX coil\n   **   ~~~   **    1) may have a low inlet air dry-bulb temperature. Inlet air temperature = 14.120 C.\n   **   ~~~   **    2) may have a low air flow rate per watt of cooling capacity. Check inputs.\n   **   ~~~   **    3) is used as part of a HX assisted cooling coil which uses a high sensible effectiveness. Check inputs.\n   ** Warning ** CalcDoe2DXCoil: Coil:Cooling:DX:SingleSpeed \"COIL COOLING DX SINGLE SPEED 8 32KBTU/HR 14.0SEER\" - Full load outlet air dry-bulb temperature < 2C. This indicates the possibility of coil frost/freeze. Outlet temperature = 1.48 C.\n   **   ~~~   **  ...Occurrence info = RUN PERIOD 1, 01/03 12:45 - 13:00\n   **   ~~~   ** ... Possible reasons for low outlet air dry-bulb temperatures are: This DX coil\n   **   ~~~   **    1) may have a low inlet air dry-bulb temperature. Inlet air temperature = 14.108 C.\n   **   ~~~   **    2) may have a low air flow rate per watt of cooling capacity. Check inputs.\n   **   ~~~   **    3) is used as part of a HX assisted cooling coil which uses a high sensible effectiveness. Check inputs.\n   ** Warning ** CalcDoe2DXCoil: Coil:Cooling:DX:SingleSpeed \"COIL COOLING DX SINGLE SPEED 7 32KBTU/HR 14.0SEER\" - Full load outlet air dry-bulb temperature < 2C. This indicates the possibility of coil frost/freeze. Outlet temperature = 1.48 C.\n   **   ~~~   **  ...Occurrence info = RUN PERIOD 1, 01/03 12:45 - 13:00\n   **   ~~~   ** ... Possible reasons for low outlet air dry-bulb temperatures are: This DX coil\n   **   ~~~   **    1) may have a low inlet air dry-bulb temperature. Inlet air temperature = 14.108 C.\n   **   ~~~   **    2) may have a low air flow rate per watt of cooling capacity. Check inputs.\n   **   ~~~   **    3) is used as part of a HX assisted cooling coil which uses a high sensible effectiveness. Check inputs.\n   ** Warning ** CalcDoe2DXCoil: Coil:Cooling:DX:SingleSpeed \"COIL COOLING DX SINGLE SPEED 1 60KBTU/HR 14.0SEER\" - Full load outlet air dry-bulb temperature < 2C. This indicates the possibility of coil frost/freeze. Outlet temperature = 1.14 C.\n   **   ~~~   **  ...Occurrence info = RUN PERIOD 1, 01/03 13:00 - 13:15\n   **   ~~~   ** ... Possible reasons for low outlet air dry-bulb temperatures are: This DX coil\n   **   ~~~   **    1) may have a low inlet air dry-bulb temperature. Inlet air temperature = 13.769 C.\n   **   ~~~   **    2) may have a low air flow rate per watt of cooling capacity. Check inputs.\n   **   ~~~   **    3) is used as part of a HX assisted cooling coil which uses a high sensible effectiveness. Check inputs.\n   ** Warning ** CalcDoe2DXCoil: Coil:Cooling:DX:SingleSpeed \"COIL COOLING DX SINGLE SPEED 2 31KBTU/HR 14.0SEER\" - Full load outlet air dry-bulb temperature < 2C. This indicates the possibility of coil frost/freeze. Outlet temperature = 1.44 C.\n   **   ~~~   **  ...Occurrence info = RUN PERIOD 1, 01/03 13:00 - 13:15\n   **   ~~~   ** ... Possible reasons for low outlet air dry-bulb temperatures are: This DX coil\n   **   ~~~   **    1) may have a low inlet air dry-bulb temperature. Inlet air temperature = 14.075 C.\n   **   ~~~   **    2) may have a low air flow rate per watt of cooling capacity. Check inputs.\n   **   ~~~   **    3) is used as part of a HX assisted cooling coil which uses a high sensible effectiveness. Check inputs.\n   ** Warning ** CalcDoe2DXCoil: Coil:Cooling:DX:SingleSpeed \"COIL COOLING DX SINGLE SPEED 6 31KBTU/HR 14.0SEER\" - Full load outlet air dry-bulb temperature < 2C. This indicates the possibility of coil frost/freeze. Outlet temperature = 1.44 C.\n   **   ~~~   **  ...Occurrence info = RUN PERIOD 1, 01/03 13:00 - 13:15\n   **   ~~~   ** ... Possible reasons for low outlet air dry-bulb temperatures are: This DX coil\n   **   ~~~   **    1) may have a low inlet air dry-bulb temperature. Inlet air temperature = 14.074 C.\n   **   ~~~   **    2) may have a low air flow rate per watt of cooling capacity. Check inputs.\n   **   ~~~   **    3) is used as part of a HX assisted cooling coil which uses a high sensible effectiveness. Check inputs.\n   ** Warning ** CalcDoe2DXCoil: Coil:Cooling:DX:SingleSpeed \"COIL COOLING DX SINGLE SPEED 5 31KBTU/HR 14.0SEER\" - Full load outlet air dry-bulb temperature < 2C. This indicates the possibility of coil frost/freeze. Outlet temperature = 1.44 C.\n   **   ~~~   **  ...Occurrence info = RUN PERIOD 1, 01/03 13:00 - 13:15\n   **   ~~~   ** ... Possible reasons for low outlet air dry-bulb temperatures are: This DX coil\n   **   ~~~   **    1) may have a low inlet air dry-bulb temperature. Inlet air temperature = 14.071 C.\n   **   ~~~   **    2) may have a low air flow rate per watt of cooling capacity. Check inputs.\n   **   ~~~   **    3) is used as part of a HX assisted cooling coil which uses a high sensible effectiveness. Check inputs.\n   ** Warning ** CalcDoe2DXCoil: Coil:Cooling:DX:SingleSpeed \"COIL COOLING DX SINGLE SPEED 4 31KBTU/HR 14.0SEER\" - Full load outlet air dry-bulb temperature < 2C. This indicates the possibility of coil frost/freeze. Outlet temperature = 1.41 C.\n   **   ~~~   **  ...Occurrence info = RUN PERIOD 1, 01/03 13:00 - 13:15\n   **   ~~~   ** ... Possible reasons for low outlet air dry-bulb temperatures are: This DX coil\n   **   ~~~   **    1) may have a low inlet air dry-bulb temperature. Inlet air temperature = 14.042 C.\n   **   ~~~   **    2) may have a low air flow rate per watt of cooling capacity. Check inputs.\n   **   ~~~   **    3) is used as part of a HX assisted cooling coil which uses a high sensible effectiveness. Check inputs.\n   ** Warning ** CalcDoe2DXCoil: Coil:Cooling:DX:SingleSpeed \"COIL COOLING DX SINGLE SPEED 10 60KBTU/HR 14.0SEER\" - Full load outlet air dry-bulb temperature < 2C. This indicates the possibility of coil frost/freeze. Outlet temperature = 1.64 C.\n   **   ~~~   **  ...Occurrence info = RUN PERIOD 1, 01/09 12:15 - 12:30\n   **   ~~~   ** ... Possible reasons for low outlet air dry-bulb temperatures are: This DX coil\n   **   ~~~   **    1) may have a low inlet air dry-bulb temperature. Inlet air temperature = 14.261 C.\n   **   ~~~   **    2) may have a low air flow rate per watt of cooling capacity. Check inputs.\n   **   ~~~   **    3) is used as part of a HX assisted cooling coil which uses a high sensible effectiveness. Check inputs.\n   ** Warning ** CalcDoe2DXCoil: Coil:Cooling:DX:SingleSpeed \"COIL COOLING DX SINGLE SPEED 9 31KBTU/HR 14.0SEER\" - Full load outlet air dry-bulb temperature < 2C. This indicates the possibility of coil frost/freeze. Outlet temperature = 1.84 C.\n   **   ~~~   **  ...Occurrence info = RUN PERIOD 1, 01/09 12:30 - 12:45\n   **   ~~~   ** ... Possible reasons for low outlet air dry-bulb temperatures are: This DX coil\n   **   ~~~   **    1) may have a low inlet air dry-bulb temperature. Inlet air temperature = 14.456 C.\n   **   ~~~   **    2) may have a low air flow rate per watt of cooling capacity. Check inputs.\n   **   ~~~   **    3) is used as part of a HX assisted cooling coil which uses a high sensible effectiveness. Check inputs.\n   ************* Simulation Error Summary *************\n   ************* There are 9 unused schedules in input.\n   ************* There are 9 unused week schedules in input.\n   ************* There are 32 unused day schedules in input.\n   ************* Use Output:Diagnostics,DisplayUnusedSchedules; to see them.\n   *************\n   ************* ===== Recurring Error Summary =====\n   ************* The following recurring error messages occurred.\n   *************\n   *************  ** Warning ** CalcDoe2DXCoil: Coil:Cooling:DX:SingleSpeed=\"COIL COOLING DX SINGLE SPEED 10 60KBTU/HR 14.0SEER\" - Low condenser dry-bulb temperature error continues...\n   *************  **   ~~~   **   This error occurred 60 total times;\n   *************  **   ~~~   **   during Warmup 0 times;\n   *************  **   ~~~   **   during Sizing 0 times.\n   *************  **   ~~~   **   Max=-2.500000E-002 [C]  Min=-7.2 [C]\n   *************\n   *************  ** Warning ** CalcDoe2DXCoil: Coil:Cooling:DX:SingleSpeed=\"COIL COOLING DX SINGLE SPEED 1 60KBTU/HR 14.0SEER\" - Low condenser dry-bulb temperature error continues...\n   *************  **   ~~~   **   This error occurred 67 total times;\n   *************  **   ~~~   **   during Warmup 0 times;\n   *************  **   ~~~   **   during Sizing 0 times.\n   *************  **   ~~~   **   Max=-2.500000E-002 [C]  Min=-7.2 [C]\n   *************\n   *************  ** Warning ** CalcDoe2DXCoil: Coil:Cooling:DX:SingleSpeed=\"COIL COOLING DX SINGLE SPEED 3 32KBTU/HR 14.0SEER\" - Low condenser dry-bulb temperature error continues...\n   *************  **   ~~~   **   This error occurred 62 total times;\n   *************  **   ~~~   **   during Warmup 0 times;\n   *************  **   ~~~   **   during Sizing 0 times.\n   *************  **   ~~~   **   Max=-2.500000E-002 [C]  Min=-7.2 [C]\n   *************\n   *************  ** Warning ** CalcDoe2DXCoil: Coil:Cooling:DX:SingleSpeed=\"COIL COOLING DX SINGLE SPEED 2 31KBTU/HR 14.0SEER\" - Low condenser dry-bulb temperature error continues...\n   *************  **   ~~~   **   This error occurred 61 total times;\n   *************  **   ~~~   **   during Warmup 0 times;\n   *************  **   ~~~   **   during Sizing 0 times.\n   *************  **   ~~~   **   Max=-2.500000E-002 [C]  Min=-7.2 [C]\n   *************\n   *************  ** Warning ** CalcDoe2DXCoil: Coil:Cooling:DX:SingleSpeed=\"COIL COOLING DX SINGLE SPEED 6 31KBTU/HR 14.0SEER\" - Low condenser dry-bulb temperature error continues...\n   *************  **   ~~~   **   This error occurred 61 total times;\n   *************  **   ~~~   **   during Warmup 0 times;\n   *************  **   ~~~   **   during Sizing 0 times.\n   *************  **   ~~~   **   Max=-2.500000E-002 [C]  Min=-7.2 [C]\n   *************\n   *************  ** Warning ** CalcDoe2DXCoil: Coil:Cooling:DX:SingleSpeed=\"COIL COOLING DX SINGLE SPEED 8 32KBTU/HR 14.0SEER\" - Low condenser dry-bulb temperature error continues...\n   *************  **   ~~~   **   This error occurred 62 total times;\n   *************  **   ~~~   **   during Warmup 0 times;\n   *************  **   ~~~   **   during Sizing 0 times.\n   *************  **   ~~~   **   Max=-2.500000E-002 [C]  Min=-7.2 [C]\n   *************\n   *************  ** Warning ** CalcDoe2DXCoil: Coil:Cooling:DX:SingleSpeed=\"COIL COOLING DX SINGLE SPEED 7 32KBTU/HR 14.0SEER\" - Low condenser dry-bulb temperature error continues...\n   *************  **   ~~~   **   This error occurred 62 total times;\n   *************  **   ~~~   **   during Warmup 0 times;\n   *************  **   ~~~   **   during Sizing 0 times.\n   *************  **   ~~~   **   Max=-2.500000E-002 [C]  Min=-7.2 [C]\n   *************\n   *************  ** Warning ** CalcDoe2DXCoil: Coil:Cooling:DX:SingleSpeed=\"COIL COOLING DX SINGLE SPEED 5 31KBTU/HR 14.0SEER\" - Low condenser dry-bulb temperature error continues...\n   *************  **   ~~~   **   This error occurred 61 total times;\n   *************  **   ~~~   **   during Warmup 0 times;\n   *************  **   ~~~   **   during Sizing 0 times.\n   *************  **   ~~~   **   Max=-2.500000E-002 [C]  Min=-7.2 [C]\n   *************\n   *************  ** Warning ** CalcDoe2DXCoil: Coil:Cooling:DX:SingleSpeed=\"COIL COOLING DX SINGLE SPEED 4 31KBTU/HR 14.0SEER\" - Low condenser dry-bulb temperature error continues...\n   *************  **   ~~~   **   This error occurred 60 total times;\n   *************  **   ~~~   **   during Warmup 0 times;\n   *************  **   ~~~   **   during Sizing 0 times.\n   *************  **   ~~~   **   Max=-2.500000E-002 [C]  Min=-7.2 [C]\n   *************\n   *************  ** Warning ** CalcDoe2DXCoil: Coil:Cooling:DX:SingleSpeed=\"COIL COOLING DX SINGLE SPEED 9 31KBTU/HR 14.0SEER\" - Low condenser dry-bulb temperature error continues...\n   *************  **   ~~~   **   This error occurred 50 total times;\n   *************  **   ~~~   **   during Warmup 0 times;\n   *************  **   ~~~   **   during Sizing 0 times.\n   *************  **   ~~~   **   Max=-2.500000E-002 [C]  Min=-7.2 [C]\n   *************\n   *************  ** Warning ** CalcDoe2DXCoil: Coil:Cooling:DX:SingleSpeed=\"COIL COOLING DX SINGLE SPEED 3 32KBTU/HR 14.0SEER\" - Full load outlet temperature indicates a possibility of frost/freeze error continues. Outlet air temperature statistics follow:\n   *************  **   ~~~   **   This error occurred 9 total times;\n   *************  **   ~~~   **   during Warmup 0 times;\n   *************  **   ~~~   **   during Sizing 0 times.\n   *************  **   ~~~   **   Max=1.957539  Min=1.283421\n   *************\n   *************  ** Warning ** CalcDoe2DXCoil: Coil:Cooling:DX:SingleSpeed=\"COIL COOLING DX SINGLE SPEED 8 32KBTU/HR 14.0SEER\" - Full load outlet temperature indicates a possibility of frost/freeze error continues. Outlet air temperature statistics follow:\n   *************  **   ~~~   **   This error occurred 9 total times;\n   *************  **   ~~~   **   during Warmup 0 times;\n   *************  **   ~~~   **   during Sizing 0 times.\n   *************  **   ~~~   **   Max=1.951374  Min=1.322331\n   *************\n   *************  ** Warning ** CalcDoe2DXCoil: Coil:Cooling:DX:SingleSpeed=\"COIL COOLING DX SINGLE SPEED 7 32KBTU/HR 14.0SEER\" - Full load outlet temperature indicates a possibility of frost/freeze error continues. Outlet air temperature statistics follow:\n   *************  **   ~~~   **   This error occurred 9 total times;\n   *************  **   ~~~   **   during Warmup 0 times;\n   *************  **   ~~~   **   during Sizing 0 times.\n   *************  **   ~~~   **   Max=1.950936  Min=1.319659\n   *************\n   *************  ** Warning ** CalcDoe2DXCoil: Coil:Cooling:DX:SingleSpeed=\"COIL COOLING DX SINGLE SPEED 1 60KBTU/HR 14.0SEER\" - Full load outlet temperature indicates a possibility of frost/freeze error continues. Outlet air temperature statistics follow:\n   *************  **   ~~~   **   This error occurred 9 total times;\n   *************  **   ~~~   **   during Warmup 0 times;\n   *************  **   ~~~   **   during Sizing 0 times.\n   *************  **   ~~~   **   Max=1.940987  Min=1.136097\n   *************\n   *************  ** Warning ** CalcDoe2DXCoil: Coil:Cooling:DX:SingleSpeed=\"COIL COOLING DX SINGLE SPEED 2 31KBTU/HR 14.0SEER\" - Full load outlet temperature indicates a possibility of frost/freeze error continues. Outlet air temperature statistics follow:\n   *************  **   ~~~   **   This error occurred 8 total times;\n   *************  **   ~~~   **   during Warmup 0 times;\n   *************  **   ~~~   **   during Sizing 0 times.\n   *************  **   ~~~   **   Max=1.813238  Min=1.128037\n   *************\n   *************  ** Warning ** CalcDoe2DXCoil: Coil:Cooling:DX:SingleSpeed=\"COIL COOLING DX SINGLE SPEED 6 31KBTU/HR 14.0SEER\" - Full load outlet temperature indicates a possibility of frost/freeze error continues. Outlet air temperature statistics follow:\n   *************  **   ~~~   **   This error occurred 8 total times;\n   *************  **   ~~~   **   during Warmup 0 times;\n   *************  **   ~~~   **   during Sizing 0 times.\n   *************  **   ~~~   **   Max=1.812086  Min=1.13222\n   *************\n   *************  ** Warning ** CalcDoe2DXCoil: Coil:Cooling:DX:SingleSpeed=\"COIL COOLING DX SINGLE SPEED 5 31KBTU/HR 14.0SEER\" - Full load outlet temperature indicates a possibility of frost/freeze error continues. Outlet air temperature statistics follow:\n   *************  **   ~~~   **   This error occurred 7 total times;\n   *************  **   ~~~   **   during Warmup 0 times;\n   *************  **   ~~~   **   during Sizing 0 times.\n   *************  **   ~~~   **   Max=1.807795  Min=1.111268\n   *************\n   *************  ** Warning ** CalcDoe2DXCoil: Coil:Cooling:DX:SingleSpeed=\"COIL COOLING DX SINGLE SPEED 4 31KBTU/HR 14.0SEER\" - Full load outlet temperature indicates a possibility of frost/freeze error continues. Outlet air temperature statistics follow:\n   *************  **   ~~~   **   This error occurred 5 total times;\n   *************  **   ~~~   **   during Warmup 0 times;\n   *************  **   ~~~   **   during Sizing 0 times.\n   *************  **   ~~~   **   Max=1.771877  Min=1.411874\n   *************\n   *************  ** Warning ** CalcDoe2DXCoil: Coil:Cooling:DX:SingleSpeed=\"COIL COOLING DX SINGLE SPEED 10 60KBTU/HR 14.0SEER\" - Full load outlet temperature indicates a possibility of frost/freeze error continues. Outlet air temperature statistics follow:\n   *************  **   ~~~   **   This error occurred 7 total times;\n   *************  **   ~~~   **   during Warmup 0 times;\n   *************  **   ~~~   **   during Sizing 0 times.\n   *************  **   ~~~   **   Max=1.957936  Min=1.641429\n   *************\n   *************  ** Warning ** CalcDoe2DXCoil: Coil:Cooling:DX:SingleSpeed=\"COIL COOLING DX SINGLE SPEED 9 31KBTU/HR 14.0SEER\" - Full load outlet temperature indicates a possibility of frost/freeze error continues. Outlet air temperature statistics follow:\n   *************  **   ~~~   **   This error occurred 1 total times;\n   *************  **   ~~~   **   during Warmup 0 times;\n   *************  **   ~~~   **   during Sizing 0 times.\n   *************  **   ~~~   **   Max=1.837982  Min=1.837982\n   *************\n   *************\n   ************* ===== Final Error Summary =====\n   ************* The following error categories occurred.  Consider correcting or noting.\n   ************* Nominally Unused Constructions\n   ************* ..The nominally unused constructions warning is provided to alert you to potential conditions that can cause\n   ************* ..extra time during simulation. Each construction is calculated by the algorithm indicated in the HeatBalanceAlgorithm\n   ************* ..object. You may remove the constructions indicated (when you use the DisplayExtraWarnings option).\n   *************\n   ************* EnergyPlus Warmup Error Summary. During Warmup: 0 Warning; 0 Severe Errors.\n   ************* EnergyPlus Sizing Error Summary. During Sizing: 87 Warning; 0 Severe Errors.\n   ************* EnergyPlus Completed Successfully-- 790 Warning; 0 Severe Errors; Elapsed Time=00hr 00min 55.69sec\n",
   "file_format_version" : "0.0.1",
   "file_paths" : [ "../weather", "../seeds", "../seed" ],
   "hash" : "CC3318FE",
   "measure_paths" : [ "../measures" ],
   "name" : "LHS Autogenerated 1023",
   "osa_id" : "4fef0e0f-5396-4c55-a6e1-2cd6803db3ab",
   "osd_id" : "8836e429-c7c8-40e9-97a3-eba4df7620b0",
   "run_directory" : "./run",
   "seed_file" : "seed.osm",
   "started_at" : "20170710T192915Z",
   "steps" : [
      {
         "arguments" : {
            "__SKIP__" : false,
            "building_type" : "RetailStripmall",
            "climate_zone" : "NECB HDD Method",
            "epw_file" : "CAN_BC_Port.Hardy.711090_CWEC.epw",
            "template" : "NECB 2011"
         },
         "measure_dir_name" : "create_prototype_building",
         "name" : "create_prototype_building",
         "result" : {
            "completed_at" : "20170710T193028Z",
            "measure_class_name" : "CreatePrototypeBuilding",
            "measure_display_name" : "Create Prototype Building",
            "measure_name" : "create_prototype_building",
            "measure_taxonomy" : "Whole Building.Space Types",
            "measure_type" : "ModelMeasure",
            "measure_uid" : "ae90fsd7-a651-467a-bc8d-29d310b0f937",
            "measure_version_id" : "c6ec5c18-5595-459f-a082-09a19c8c869c",
            "measure_version_modified" : "20170519T182315Z",
            "measure_xml_checksum" : "057E8D9D",
            "started_at" : "20170710T192917Z",
            "stderr" : "",
            "stdout" : "[OpenStudio.Measure] <0> OSArgumentVector is deprecated, use OpenStudio::Measure::OSArgumentVector instead.\n[openstudio.EpwFile] <0> Successive data points (1973-Jan-31 to 1985-Feb-01, ending on line 753) are greater than 1 day apart in EPW file '/usr/local/bundle/bundler/gems/openstudio-standards-f448df66933d/openstudio-standards/data/weather/CAN_BC_Port.Hardy.711090_CWEC.epw'. Data will be treated as typical (TMY)\n[openstudio.setFileExtension] <0> Path p, '/usr/local/bundle/bundler/gems/openstudio-standards-f448df66933d/openstudio-standards/data/weather/CAN_BC_Port.Hardy.711090_CWEC.ddy', has an unexpected file extension. Was expecting 'idf'.\n[openstudio.model.YearDescription] <1> 'UseWeatherFile' is not yet a supported option for YearDescription\n[openstudio.model.YearDescription] <1> 'UseWeatherFile' is not yet a supported option for YearDescription\n[openstudio.setFileExtension] <0> Path p, '/usr/local/bundle/bundler/gems/openstudio-standards-f448df66933d/openstudio-standards/data/weather/CAN_BC_Port.Hardy.711090_CWEC.ddy', has an unexpected file extension. Was expecting 'idf'.\n[openstudio.model.YearDescription] <1> 'UseWeatherFile' is not yet a supported option for YearDescription\n[openstudio.model.YearDescription] <1> 'UseWeatherFile' is not yet a supported option for YearDescription\n[openstudio.EpwFile] <0> Successive data points (1973-Jan-31 to 1985-Feb-01, ending on line 753) are greater than 1 day apart in EPW file '/usr/local/bundle/bundler/gems/openstudio-standards-f448df66933d/openstudio-standards/data/weather/CAN_BC_Port.Hardy.711090_CWEC.epw'. Data will be treated as typical (TMY)\n[openstudio.weather.Model] <0> Could not find ground temperatures; will use generic temperatures, which will skew results.\n[openstudio.setFileExtension] <0> Path p, '/usr/local/bundle/bundler/gems/openstudio-standards-f448df66933d/openstudio-standards/data/weather/CAN_BC_Port.Hardy.711090_CWEC.ddy', has an unexpected file extension. Was expecting 'idf'.\n[openstudio.model.YearDescription] <1> 'UseWeatherFile' is not yet a supported option for YearDescription\n[openstudio.model.YearDescription] <1> 'UseWeatherFile' is not yet a supported option for YearDescription\n[openstudio.EpwFile] <0> Successive data points (1973-Jan-31 to 1985-Feb-01, ending on line 753) are greater than 1 day apart in EPW file '/usr/local/bundle/bundler/gems/openstudio-standards-f448df66933d/openstudio-standards/data/weather/CAN_BC_Port.Hardy.711090_CWEC.epw'. Data will be treated as typical (TMY)\n[openstudio.setFileExtension] <0> Path p, '/usr/local/bundle/bundler/gems/openstudio-standards-f448df66933d/openstudio-standards/data/weather/CAN_BC_Port.Hardy.711090_CWEC.ddy', has an unexpected file extension. Was expecting 'idf'.\n[openstudio.model.YearDescription] <1> 'UseWeatherFile' is not yet a supported option for YearDescription\n[openstudio.model.YearDescription] <1> 'UseWeatherFile' is not yet a supported option for YearDescription\n[openstudio.setFileExtension] <0> Path p, '/usr/local/bundle/bundler/gems/openstudio-standards-f448df66933d/openstudio-standards/data/weather/CAN_BC_Port.Hardy.711090_CWEC.ddy', has an unexpected file extension. Was expecting 'idf'.\n[openstudio.model.YearDescription] <1> 'UseWeatherFile' is not yet a supported option for YearDescription\n[openstudio.model.YearDescription] <1> 'UseWeatherFile' is not yet a supported option for YearDescription\n[openstudio.EpwFile] <0> Successive data points (1973-Jan-31 to 1985-Feb-01, ending on line 753) are greater than 1 day apart in EPW file '/usr/local/bundle/bundler/gems/openstudio-standards-f448df66933d/openstudio-standards/data/weather/CAN_BC_Port.Hardy.711090_CWEC.epw'. Data will be treated as typical (TMY)\n[openstudio.setFileExtension] <0> Path p, '/usr/local/bundle/bundler/gems/openstudio-standards-f448df66933d/openstudio-standards/data/weather/CAN_BC_Port.Hardy.711090_CWEC.ddy', has an unexpected file extension. Was expecting 'idf'.\n[openstudio.model.YearDescription] <1> 'UseWeatherFile' is not yet a supported option for YearDescription\n[openstudio.model.YearDescription] <1> 'UseWeatherFile' is not yet a supported option for YearDescription\n[openstudio.setFileExtension] <0> Path p, '/usr/local/bundle/bundler/gems/openstudio-standards-f448df66933d/openstudio-standards/data/weather/CAN_BC_Port.Hardy.711090_CWEC.ddy', has an unexpected file extension. Was expecting 'idf'.\n[openstudio.model.YearDescription] <1> 'UseWeatherFile' is not yet a supported option for YearDescription\n[openstudio.model.YearDescription] <1> 'UseWeatherFile' is not yet a supported option for YearDescription\n[utilities.idf.WorkspaceObject] <0> Object of type 'Schedule:Constant' and named 'Always Off Discrete', points to an object named OnOff 1 from field 1, but that object cannot be located.\n[utilities.idf.WorkspaceObject] <0> Object of type 'Schedule:Constant' and named 'Always On Continuous', points to an object named Fractional 1 from field 1, but that object cannot be located.\n[utilities.idf.WorkspaceObject] <0> Object of type 'Schedule:Constant' and named 'Always Off Discrete', points to an object named OnOff 1 from field 1, but that object cannot be located.\n[utilities.idf.WorkspaceObject] <0> Object of type 'Schedule:Constant' and named 'Always On Continuous', points to an object named Fractional 1 from field 1, but that object cannot be located.\n[openstudio.standards.Fan] <0> For Fan Constant Volume 1, there is no greater nominal HP.  Use the efficiency of the largest motor category.\n[openstudio.standards.Fan] <0> For Fan Constant Volume 10, there is no greater nominal HP.  Use the efficiency of the largest motor category.\n[openstudio.standards.Fan] <0> For Fan Constant Volume 2, there is no greater nominal HP.  Use the efficiency of the largest motor category.\n[openstudio.standards.Fan] <0> For Fan Constant Volume 3, there is no greater nominal HP.  Use the efficiency of the largest motor category.\n[openstudio.standards.Fan] <0> For Fan Constant Volume 4, there is no greater nominal HP.  Use the efficiency of the largest motor category.\n[openstudio.standards.Fan] <0> For Fan Constant Volume 5, there is no greater nominal HP.  Use the efficiency of the largest motor category.\n[openstudio.standards.Fan] <0> For Fan Constant Volume 6, there is no greater nominal HP.  Use the efficiency of the largest motor category.\n[openstudio.standards.Fan] <0> For Fan Constant Volume 7, there is no greater nominal HP.  Use the efficiency of the largest motor category.\n[openstudio.standards.Fan] <0> For Fan Constant Volume 8, there is no greater nominal HP.  Use the efficiency of the largest motor category.\n[openstudio.standards.Fan] <0> For Fan Constant Volume 9, there is no greater nominal HP.  Use the efficiency of the largest motor category.\n[openstudio.EpwFile] <0> Successive data points (1973-Jan-31 to 1985-Feb-01, ending on line 753) are greater than 1 day apart in EPW file '/usr/local/bundle/bundler/gems/openstudio-standards-f448df66933d/openstudio-standards/data/weather/CAN_BC_Port.Hardy.711090_CWEC.epw'. Data will be treated as typical (TMY)\n[openstudio.setFileExtension] <0> Path p, '/usr/local/bundle/bundler/gems/openstudio-standards-f448df66933d/openstudio-standards/data/weather/CAN_BC_Port.Hardy.711090_CWEC.ddy', has an unexpected file extension. Was expecting 'idf'.\n[openstudio.model.YearDescription] <1> 'UseWeatherFile' is not yet a supported option for YearDescription\n[openstudio.model.YearDescription] <1> 'UseWeatherFile' is not yet a supported option for YearDescription\n[openstudio.setFileExtension] <0> Path p, '/usr/local/bundle/bundler/gems/openstudio-standards-f448df66933d/openstudio-standards/data/weather/CAN_BC_Port.Hardy.711090_CWEC.ddy', has an unexpected file extension. Was expecting 'idf'.\n[openstudio.model.YearDescription] <1> 'UseWeatherFile' is not yet a supported option for YearDescription\n[openstudio.model.YearDescription] <1> 'UseWeatherFile' is not yet a supported option for YearDescription\n[openstudio.EpwFile] <0> Successive data points (1973-Jan-31 to 1985-Feb-01, ending on line 753) are greater than 1 day apart in EPW file '/usr/local/bundle/bundler/gems/openstudio-standards-f448df66933d/openstudio-standards/data/weather/CAN_BC_Port.Hardy.711090_CWEC.epw'. Data will be treated as typical (TMY)\n[openstudio.setFileExtension] <0> Path p, '/usr/local/bundle/bundler/gems/openstudio-standards-f448df66933d/openstudio-standards/data/weather/CAN_BC_Port.Hardy.711090_CWEC.ddy', has an unexpected file extension. Was expecting 'idf'.\n[openstudio.model.YearDescription] <1> 'UseWeatherFile' is not yet a supported option for YearDescription\n[openstudio.model.YearDescription] <1> 'UseWeatherFile' is not yet a supported option for YearDescription\n[openstudio.setFileExtension] <0> Path p, '/usr/local/bundle/bundler/gems/openstudio-standards-f448df66933d/openstudio-standards/data/weather/CAN_BC_Port.Hardy.711090_CWEC.ddy', has an unexpected file extension. Was expecting 'idf'.\n[openstudio.model.YearDescription] <1> 'UseWeatherFile' is not yet a supported option for YearDescription\n[openstudio.model.YearDescription] <1> 'UseWeatherFile' is not yet a supported option for YearDescription\n[openstudio.EpwFile] <0> Successive data points (1973-Jan-31 to 1985-Feb-01, ending on line 753) are greater than 1 day apart in EPW file '/usr/local/bundle/bundler/gems/openstudio-standards-f448df66933d/openstudio-standards/data/weather/CAN_BC_Port.Hardy.711090_CWEC.epw'. Data will be treated as typical (TMY)\n[openstudio.setFileExtension] <0> Path p, '/usr/local/bundle/bundler/gems/openstudio-standards-f448df66933d/openstudio-standards/data/weather/CAN_BC_Port.Hardy.711090_CWEC.ddy', has an unexpected file extension. Was expecting 'idf'.\n[openstudio.model.YearDescription] <1> 'UseWeatherFile' is not yet a supported option for YearDescription\n[openstudio.model.YearDescription] <1> 'UseWeatherFile' is not yet a supported option for YearDescription\n[openstudio.setFileExtension] <0> Path p, '/usr/local/bundle/bundler/gems/openstudio-standards-f448df66933d/openstudio-standards/data/weather/CAN_BC_Port.Hardy.711090_CWEC.ddy', has an unexpected file extension. Was expecting 'idf'.\n[openstudio.model.YearDescription] <1> 'UseWeatherFile' is not yet a supported option for YearDescription\n[openstudio.model.YearDescription] <1> 'UseWeatherFile' is not yet a supported option for YearDescription\n[openstudio.EpwFile] <0> Successive data points (1973-Jan-31 to 1985-Feb-01, ending on line 753) are greater than 1 day apart in EPW file '/usr/local/bundle/bundler/gems/openstudio-standards-f448df66933d/openstudio-standards/data/weather/CAN_BC_Port.Hardy.711090_CWEC.epw'. Data will be treated as typical (TMY)\n[openstudio.setFileExtension] <0> Path p, '/usr/local/bundle/bundler/gems/openstudio-standards-f448df66933d/openstudio-standards/data/weather/CAN_BC_Port.Hardy.711090_CWEC.ddy', has an unexpected file extension. Was expecting 'idf'.\n[openstudio.model.YearDescription] <1> 'UseWeatherFile' is not yet a supported option for YearDescription\n[openstudio.model.YearDescription] <1> 'UseWeatherFile' is not yet a supported option for YearDescription\n[openstudio.setFileExtension] <0> Path p, '/usr/local/bundle/bundler/gems/openstudio-standards-f448df66933d/openstudio-standards/data/weather/CAN_BC_Port.Hardy.711090_CWEC.ddy', has an unexpected file extension. Was expecting 'idf'.\n[openstudio.model.YearDescription] <1> 'UseWeatherFile' is not yet a supported option for YearDescription\n[openstudio.model.YearDescription] <1> 'UseWeatherFile' is not yet a supported option for YearDescription\n[openstudio.EpwFile] <0> Successive data points (1973-Jan-31 to 1985-Feb-01, ending on line 753) are greater than 1 day apart in EPW file '/usr/local/bundle/bundler/gems/openstudio-standards-f448df66933d/openstudio-standards/data/weather/CAN_BC_Port.Hardy.711090_CWEC.epw'. Data will be treated as typical (TMY)\n[openstudio.setFileExtension] <0> Path p, '/usr/local/bundle/bundler/gems/openstudio-standards-f448df66933d/openstudio-standards/data/weather/CAN_BC_Port.Hardy.711090_CWEC.ddy', has an unexpected file extension. Was expecting 'idf'.\n[openstudio.model.YearDescription] <1> 'UseWeatherFile' is not yet a supported option for YearDescription\n[openstudio.model.YearDescription] <1> 'UseWeatherFile' is not yet a supported option for YearDescription\n[openstudio.setFileExtension] <0> Path p, '/usr/local/bundle/bundler/gems/openstudio-standards-f448df66933d/openstudio-standards/data/weather/CAN_BC_Port.Hardy.711090_CWEC.ddy', has an unexpected file extension. Was expecting 'idf'.\n[openstudio.model.YearDescription] <1> 'UseWeatherFile' is not yet a supported option for YearDescription\n[openstudio.model.YearDescription] <1> 'UseWeatherFile' is not yet a supported option for YearDescription\n[openstudio.EpwFile] <0> Successive data points (1973-Jan-31 to 1985-Feb-01, ending on line 753) are greater than 1 day apart in EPW file '/usr/local/bundle/bundler/gems/openstudio-standards-f448df66933d/openstudio-standards/data/weather/CAN_BC_Port.Hardy.711090_CWEC.epw'. Data will be treated as typical (TMY)\n[openstudio.setFileExtension] <0> Path p, '/usr/local/bundle/bundler/gems/openstudio-standards-f448df66933d/openstudio-standards/data/weather/CAN_BC_Port.Hardy.711090_CWEC.ddy', has an unexpected file extension. Was expecting 'idf'.\n[openstudio.model.YearDescription] <1> 'UseWeatherFile' is not yet a supported option for YearDescription\n[openstudio.model.YearDescription] <1> 'UseWeatherFile' is not yet a supported option for YearDescription\n[openstudio.setFileExtension] <0> Path p, '/usr/local/bundle/bundler/gems/openstudio-standards-f448df66933d/openstudio-standards/data/weather/CAN_BC_Port.Hardy.711090_CWEC.ddy', has an unexpected file extension. Was expecting 'idf'.\n[openstudio.model.YearDescription] <1> 'UseWeatherFile' is not yet a supported option for YearDescription\n[openstudio.model.YearDescription] <1> 'UseWeatherFile' is not yet a supported option for YearDescription\n[openstudio.EpwFile] <0> Successive data points (1973-Jan-31 to 1985-Feb-01, ending on line 753) are greater than 1 day apart in EPW file '/usr/local/bundle/bundler/gems/openstudio-standards-f448df66933d/openstudio-standards/data/weather/CAN_BC_Port.Hardy.711090_CWEC.epw'. Data will be treated as typical (TMY)\n[openstudio.setFileExtension] <0> Path p, '/usr/local/bundle/bundler/gems/openstudio-standards-f448df66933d/openstudio-standards/data/weather/CAN_BC_Port.Hardy.711090_CWEC.ddy', has an unexpected file extension. Was expecting 'idf'.\n[openstudio.model.YearDescription] <1> 'UseWeatherFile' is not yet a supported option for YearDescription\n[openstudio.model.YearDescription] <1> 'UseWeatherFile' is not yet a supported option for YearDescription\n[openstudio.setFileExtension] <0> Path p, '/usr/local/bundle/bundler/gems/openstudio-standards-f448df66933d/openstudio-standards/data/weather/CAN_BC_Port.Hardy.711090_CWEC.ddy', has an unexpected file extension. Was expecting 'idf'.\n[openstudio.model.YearDescription] <1> 'UseWeatherFile' is not yet a supported option for YearDescription\n[openstudio.model.YearDescription] <1> 'UseWeatherFile' is not yet a supported option for YearDescription\n[openstudio.EpwFile] <0> Successive data points (1973-Jan-31 to 1985-Feb-01, ending on line 753) are greater than 1 day apart in EPW file '/usr/local/bundle/bundler/gems/openstudio-standards-f448df66933d/openstudio-standards/data/weather/CAN_BC_Port.Hardy.711090_CWEC.epw'. Data will be treated as typical (TMY)\n[openstudio.setFileExtension] <0> Path p, '/usr/local/bundle/bundler/gems/openstudio-standards-f448df66933d/openstudio-standards/data/weather/CAN_BC_Port.Hardy.711090_CWEC.ddy', has an unexpected file extension. Was expecting 'idf'.\n[openstudio.model.YearDescription] <1> 'UseWeatherFile' is not yet a supported option for YearDescription\n[openstudio.model.YearDescription] <1> 'UseWeatherFile' is not yet a supported option for YearDescription\n[openstudio.setFileExtension] <0> Path p, '/usr/local/bundle/bundler/gems/openstudio-standards-f448df66933d/openstudio-standards/data/weather/CAN_BC_Port.Hardy.711090_CWEC.ddy', has an unexpected file extension. Was expecting 'idf'.\n[openstudio.model.YearDescription] <1> 'UseWeatherFile' is not yet a supported option for YearDescription\n[openstudio.model.YearDescription] <1> 'UseWeatherFile' is not yet a supported option for YearDescription\n[openstudio.EpwFile] <0> Successive data points (1973-Jan-31 to 1985-Feb-01, ending on line 753) are greater than 1 day apart in EPW file '/usr/local/bundle/bundler/gems/openstudio-standards-f448df66933d/openstudio-standards/data/weather/CAN_BC_Port.Hardy.711090_CWEC.epw'. Data will be treated as typical (TMY)\n[openstudio.setFileExtension] <0> Path p, '/usr/local/bundle/bundler/gems/openstudio-standards-f448df66933d/openstudio-standards/data/weather/CAN_BC_Port.Hardy.711090_CWEC.ddy', has an unexpected file extension. Was expecting 'idf'.\n[openstudio.model.YearDescription] <1> 'UseWeatherFile' is not yet a supported option for YearDescription\n[openstudio.model.YearDescription] <1> 'UseWeatherFile' is not yet a supported option for YearDescription\n[openstudio.setFileExtension] <0> Path p, '/usr/local/bundle/bundler/gems/openstudio-standards-f448df66933d/openstudio-standards/data/weather/CAN_BC_Port.Hardy.711090_CWEC.ddy', has an unexpected file extension. Was expecting 'idf'.\n[openstudio.model.YearDescription] <1> 'UseWeatherFile' is not yet a supported option for YearDescription\n[openstudio.model.YearDescription] <1> 'UseWeatherFile' is not yet a supported option for YearDescription\n[openstudio.EpwFile] <0> Successive data points (1973-Jan-31 to 1985-Feb-01, ending on line 753) are greater than 1 day apart in EPW file '/usr/local/bundle/bundler/gems/openstudio-standards-f448df66933d/openstudio-standards/data/weather/CAN_BC_Port.Hardy.711090_CWEC.epw'. Data will be treated as typical (TMY)\n[openstudio.setFileExtension] <0> Path p, '/usr/local/bundle/bundler/gems/openstudio-standards-f448df66933d/openstudio-standards/data/weather/CAN_BC_Port.Hardy.711090_CWEC.ddy', has an unexpected file extension. Was expecting 'idf'.\n[openstudio.model.YearDescription] <1> 'UseWeatherFile' is not yet a supported option for YearDescription\n[openstudio.model.YearDescription] <1> 'UseWeatherFile' is not yet a supported option for YearDescription\n[openstudio.setFileExtension] <0> Path p, '/usr/local/bundle/bundler/gems/openstudio-standards-f448df66933d/openstudio-standards/data/weather/CAN_BC_Port.Hardy.711090_CWEC.ddy', has an unexpected file extension. Was expecting 'idf'.\n[openstudio.model.YearDescription] <1> 'UseWeatherFile' is not yet a supported option for YearDescription\n[openstudio.model.YearDescription] <1> 'UseWeatherFile' is not yet a supported option for YearDescription\n[openstudio.standards.Fan] <0> For Fan Constant Volume 1, there is no greater nominal HP.  Use the efficiency of the largest motor category.\n[openstudio.standards.Fan] <0> For Fan Constant Volume 10, there is no greater nominal HP.  Use the efficiency of the largest motor category.\n[openstudio.standards.Fan] <0> For Fan Constant Volume 2, there is no greater nominal HP.  Use the efficiency of the largest motor category.\n[openstudio.standards.Fan] <0> For Fan Constant Volume 3, there is no greater nominal HP.  Use the efficiency of the largest motor category.\n[openstudio.standards.Fan] <0> For Fan Constant Volume 4, there is no greater nominal HP.  Use the efficiency of the largest motor category.\n[openstudio.standards.Fan] <0> For Fan Constant Volume 5, there is no greater nominal HP.  Use the efficiency of the largest motor category.\n[openstudio.standards.Fan] <0> For Fan Constant Volume 6, there is no greater nominal HP.  Use the efficiency of the largest motor category.\n[openstudio.standards.Fan] <0> For Fan Constant Volume 7, there is no greater nominal HP.  Use the efficiency of the largest motor category.\n[openstudio.standards.Fan] <0> For Fan Constant Volume 8, there is no greater nominal HP.  Use the efficiency of the largest motor category.\n[openstudio.standards.Fan] <0> For Fan Constant Volume 9, there is no greater nominal HP.  Use the efficiency of the largest motor category.\n",
            "step_errors" : [],
            "step_files" : [],
            "step_info" : [
               "Started adding geometry",
               "Finished adding geometry",
               "Started adding weather file for climate zone: NECB HDD Method.",
               "Template =",
               "Setting LGstore1 to Space Function.Retail - sales",
               "Setting LGstore2 to Space Function.Retail - sales",
               "Setting SMstore1 to Space Function.Retail - sales",
               "Setting SMstore2 to Space Function.Retail - sales",
               "Setting SMstore3 to Space Function.Retail - sales",
               "Setting SMstore4 to Space Function.Retail - sales",
               "Setting SMstore5 to Space Function.Retail - sales",
               "Setting SMstore6 to Space Function.Retail - sales",
               "Setting SMstore7 to Space Function.Retail - sales",
               "Setting SMstore8 to Space Function.Retail - sales",
               "Started applying space types (loads)",
               "Space Function Retail - sales had no people, one has been created.",
               "Space Function Retail - sales set occupancy to 3.1 people/1000 ft^2.",
               "Space Function Retail - sales had no lights, one has been created.",
               "Space Function Retail - sales set LPD to 1.681531029 W/ft^2.",
               "Space Function Retail - sales had no electric equipment, one has been created.",
               "Space Function Retail - sales set electric EPD to 0.232255667 W/ft^2.",
               "Space Function Retail - sales had no ventilation specification, one has been created.",
               "Space Function Retail - sales set ventilation per area to 0.233 cfm/ft^2.",
               "Space Function Retail - sales had no infiltration objects, one has been created.",
               "Space Function Retail - sales set infiltration to 0.0 per ft^2 exterior surface area.",
               "Space Function Retail - sales set occupancy schedule to NECB-C-Occupancy.",
               "Space Function Retail - sales set occupant activity schedule to NECB-Activity.",
               "Space Function Retail - sales set lighting schedule to NECB-C-Lighting.",
               "Space Function Retail - sales set electric equipment schedule to NECB-C-Electric-Equipment.",
               "Space Function Retail - sales set infiltration schedule to Always On.",
               "Space Function Retail - sales set heating setpoint schedule to NECB-C-Thermostat Setpoint-Heating.",
               "Space Function Retail - sales set cooling setpoint schedule to NECB-C-Thermostat Setpoint-Cooling.",
               "Finished applying space types (loads)",
               "Started applying constructions",
               "Adding construction set: NECB 2011-NECB HDD Method-StripMall--is_residentialNo",
               "Adding construction Typical Insulated Exterior Mass Floor R-15.63.",
               "Adding construction Typical Insulated Exterior Mass Wall R-12.5.",
               "Adding construction Typical Insulated Metal Building Roof R-20.41.",
               "Adding construction Typical Interior Floor.",
               "Adding construction Typical Interior Wall.",
               "Adding construction Typical Interior Ceiling.",
               "Adding construction Typical Insulated Carpeted 6in Slab Floor.",
               "Adding construction U 0.55 SHGC 0.31 Dbl Ref-D Tint 6mm/6mm Air.",
               "Adding construction Typical Insulated Metal Door R-1.43.",
               "Adding construction U 0.35 SHGC 0.35 Dbl LoE (e2-.1) Tint 6mm/13mm Air.",
               "Adding construction Typical Overhead Door R-2.0.",
               "Adding construction U 0.48 SHGC 0.40 Dbl Ref-D Clr 6mm/13mm.",
               "Adding construction Typical Interior Window.",
               "Adding construction Typical Interior Door.",
               "Adding construction Typical Interior Partition.",
               "Finished applying constructions",
               "WWR NonRes = 0%; window = 0 ft2, wall = 0 ft2.",
               "WWR Res = 0%; window = 0 ft2, wall = 0 ft2.",
               "WWR Semiheated = 0%; window = 0 ft2, wall = 0 ft2.",
               "The skylight to roof ratios (SRRs) are: NonRes: 0%, Res: 0%.",
               "Started creating thermal zones",
               "Finished creating thermal zones",
               "Running simulation /mnt/openstudio/analysis_4fef0e0f-5396-4c55-a6e1-2cd6803db3ab/data_point_8836e429-c7c8-40e9-97a3-eba4df7620b0/run/000_create_prototype_building/output/RetailStripmall-NECB 2011-NECB HDD Method-CAN_BC_Port.Hardy.711090_CWEC.epw/SR0.",
               "Finished run.",
               "Started Adding HVAC",
               "Finished adding HVAC",
               "Started Adding Service Water Heating",
               "Adding service water loop.",
               "Adding water heater.",
               "Template =",
               "Finished adding Service Water Heating",
               "Set sizing factors to 1.3 for heating and 1.3 for cooling.",
               "Running simulation /mnt/openstudio/analysis_4fef0e0f-5396-4c55-a6e1-2cd6803db3ab/data_point_8836e429-c7c8-40e9-97a3-eba4df7620b0/run/000_create_prototype_building/output/RetailStripmall-NECB 2011-NECB HDD Method-CAN_BC_Port.Hardy.711090_CWEC.epw/SR1.",
               "Finished run.",
               "Started applying multizone vav OA sizing.",
               "Finished applying multizone vav OA sizing.",
               "Started applying prototype HVAC assumptions.",
               "For Fan Constant Volume 1: allowed_hp = 1.55HP; motor eff = 61.5%; total fan eff = 40% based on 2261 cfm.",
               "For Fan Constant Volume 10: allowed_hp = 1.54HP; motor eff = 61.5%; total fan eff = 40% based on 2249 cfm.",
               "For Fan Constant Volume 2: allowed_hp = 1.01HP; motor eff = 61.5%; total fan eff = 40% based on 1166 cfm.",
               "For Fan Constant Volume 3: allowed_hp = 1.01HP; motor eff = 61.5%; total fan eff = 40% based on 1190 cfm.",
               "For Fan Constant Volume 4: allowed_hp = 1.01HP; motor eff = 61.5%; total fan eff = 40% based on 1165 cfm.",
               "For Fan Constant Volume 5: allowed_hp = 1.01HP; motor eff = 61.5%; total fan eff = 40% based on 1166 cfm.",
               "For Fan Constant Volume 6: allowed_hp = 1.01HP; motor eff = 61.5%; total fan eff = 40% based on 1166 cfm.",
               "For Fan Constant Volume 7: allowed_hp = 1.01HP; motor eff = 61.5%; total fan eff = 40% based on 1187 cfm.",
               "For Fan Constant Volume 8: allowed_hp = 1.01HP; motor eff = 61.5%; total fan eff = 40% based on 1187 cfm.",
               "For Fan Constant Volume 9: allowed_hp = 1.01HP; motor eff = 61.5%; total fan eff = 40% based on 1153 cfm.",
               "Sp-SMstore8 Sys-3 Flr-1 Sch-C HPlcmt-east ZN NECB System 3 PSZ does not require an economizer because the total cooling capacity of 30742 Btu/hr is less than the minimum capacity of 68243 Btu/hr.",
               "Sp-SMstore4 Sys-3 Flr-1 Sch-C HPlcmt-north ZN NECB System 3 PSZ does not require an economizer because the total cooling capacity of 31653 Btu/hr is less than the minimum capacity of 68243 Btu/hr.",
               "Sp-LGstore1 Sys-3 Flr-1 Sch-C HPlcmt-west ZN NECB System 3 PSZ does not require an economizer because the total cooling capacity of 59956 Btu/hr is less than the minimum capacity of 68243 Btu/hr.",
               "Sp-SMstore3 Sys-3 Flr-1 Sch-C HPlcmt-north ZN NECB System 3 PSZ does not require an economizer because the total cooling capacity of 31073 Btu/hr is less than the minimum capacity of 68243 Btu/hr.",
               "Sp-LGstore2 Sys-3 Flr-1 Sch-C HPlcmt-north ZN NECB System 3 PSZ does not require an economizer because the total cooling capacity of 60276 Btu/hr is less than the minimum capacity of 68243 Btu/hr.",
               "Sp-SMstore6 Sys-3 Flr-1 Sch-C HPlcmt-north ZN NECB System 3 PSZ does not require an economizer because the total cooling capacity of 31072 Btu/hr is less than the minimum capacity of 68243 Btu/hr.",
               "Sp-SMstore1 Sys-3 Flr-1 Sch-C HPlcmt-north ZN NECB System 3 PSZ does not require an economizer because the total cooling capacity of 31717 Btu/hr is less than the minimum capacity of 68243 Btu/hr.",
               "Sp-SMstore7 Sys-3 Flr-1 Sch-C HPlcmt-north ZN NECB System 3 PSZ does not require an economizer because the total cooling capacity of 31058 Btu/hr is less than the minimum capacity of 68243 Btu/hr.",
               "Sp-SMstore2 Sys-3 Flr-1 Sch-C HPlcmt-north ZN NECB System 3 PSZ does not require an economizer because the total cooling capacity of 31081 Btu/hr is less than the minimum capacity of 68243 Btu/hr.",
               "Sp-SMstore5 Sys-3 Flr-1 Sch-C HPlcmt-north ZN NECB System 3 PSZ does not require an economizer because the total cooling capacity of 31653 Btu/hr is less than the minimum capacity of 68243 Btu/hr.",
               "Finished applying prototype HVAC assumptions.",
               "Started applying HVAC efficiency standards.",
               "For Sp-LGstore1 Sys-3 Flr-1 Sch-C HPlcmt-west ZN NECB System 3 PSZ, ERV not required based on 0% OA flow, design supply air flow of 2249cfm, and climate zone NECB HDD Method.",
               "For Sp-LGstore1 Sys-3 Flr-1 Sch-C HPlcmt-west ZN NECB System 3 PSZ, ERV not required based on exhaust heat content.",
               "For NECB 2011 NECB HDD Method:  Sp-LGstore1 Sys-3 Flr-1 Sch-C HPlcmt-west ZN NECB System 3 PSZ: DCV is not required for any system.",
               "For Sp-LGstore1 Sys-3 Flr-1 Sch-C HPlcmt-west ZN NECB System 3 PSZ: Annual occupied hours = 4168 hr/yr, assuming a 0.15 occupancy threshold.  This schedule will be used as the HVAC operation schedule.",
               "For Sp-LGstore1 Sys-3 Flr-1 Sch-C HPlcmt-west ZN NECB System 3 PSZ: Setting motorized OA damper schedule to Sp-LGstore1 Sys-3 Flr-1 Sch-C HPlcmt-west ZN NECB System 3 PSZ Occ Sch.",
               "For Sp-LGstore2 Sys-3 Flr-1 Sch-C HPlcmt-north ZN NECB System 3 PSZ, ERV not required based on 0% OA flow, design supply air flow of 2261cfm, and climate zone NECB HDD Method.",
               "For Sp-LGstore2 Sys-3 Flr-1 Sch-C HPlcmt-north ZN NECB System 3 PSZ, ERV not required based on exhaust heat content.",
               "For NECB 2011 NECB HDD Method:  Sp-LGstore2 Sys-3 Flr-1 Sch-C HPlcmt-north ZN NECB System 3 PSZ: DCV is not required for any system.",
               "For Sp-LGstore2 Sys-3 Flr-1 Sch-C HPlcmt-north ZN NECB System 3 PSZ: Annual occupied hours = 4168 hr/yr, assuming a 0.15 occupancy threshold.  This schedule will be used as the HVAC operation schedule.",
               "For Sp-LGstore2 Sys-3 Flr-1 Sch-C HPlcmt-north ZN NECB System 3 PSZ: Setting motorized OA damper schedule to Sp-LGstore2 Sys-3 Flr-1 Sch-C HPlcmt-north ZN NECB System 3 PSZ Occ Sch.",
               "For Sp-SMstore1 Sys-3 Flr-1 Sch-C HPlcmt-north ZN NECB System 3 PSZ, ERV not required based on 0% OA flow, design supply air flow of 1190cfm, and climate zone NECB HDD Method.",
               "For Sp-SMstore1 Sys-3 Flr-1 Sch-C HPlcmt-north ZN NECB System 3 PSZ, ERV not required based on exhaust heat content.",
               "For NECB 2011 NECB HDD Method:  Sp-SMstore1 Sys-3 Flr-1 Sch-C HPlcmt-north ZN NECB System 3 PSZ: DCV is not required for any system.",
               "For Sp-SMstore1 Sys-3 Flr-1 Sch-C HPlcmt-north ZN NECB System 3 PSZ: Annual occupied hours = 4168 hr/yr, assuming a 0.15 occupancy threshold.  This schedule will be used as the HVAC operation schedule.",
               "For Sp-SMstore1 Sys-3 Flr-1 Sch-C HPlcmt-north ZN NECB System 3 PSZ: Setting motorized OA damper schedule to Sp-SMstore1 Sys-3 Flr-1 Sch-C HPlcmt-north ZN NECB System 3 PSZ Occ Sch.",
               "For Sp-SMstore2 Sys-3 Flr-1 Sch-C HPlcmt-north ZN NECB System 3 PSZ, ERV not required based on 0% OA flow, design supply air flow of 1166cfm, and climate zone NECB HDD Method.",
               "For Sp-SMstore2 Sys-3 Flr-1 Sch-C HPlcmt-north ZN NECB System 3 PSZ, ERV not required based on exhaust heat content.",
               "For NECB 2011 NECB HDD Method:  Sp-SMstore2 Sys-3 Flr-1 Sch-C HPlcmt-north ZN NECB System 3 PSZ: DCV is not required for any system.",
               "For Sp-SMstore2 Sys-3 Flr-1 Sch-C HPlcmt-north ZN NECB System 3 PSZ: Annual occupied hours = 4168 hr/yr, assuming a 0.15 occupancy threshold.  This schedule will be used as the HVAC operation schedule.",
[...]
qnIY8VuE05LEKpyGPVTgNeazCachjFU5DHqtw/W8L+7xgrMJpbKGRF4xVOI16rXztV5GUG6vm31UCkJBXAyYhLwZMQl4LmIQ8VsEk5LEKJiGPVTAJeayCSchjFUyiYKzCaci3W5yGPFbhNOSxCqchj1U4DXmswmnIYxVOQx6rcBryWIXTkMcqXP/bwj4vGKtwGlto5AVjFU6jXitf6/hebqyaW8IDJOTVgEnIiwGTkNcCJiGPVTAJeayCSchjFUxCHqtgEvJYBZMoGKtwGvLtFqchj1U4DXmswmnIYxVOQx6rcBryWIXTkMcqnIY8VuE05LEK1/+2sM8LxiqcxhYaecFYhdOo18rXGuuWG6vmzrsACXk1YBLyYsAk5LWASchjFUxCHqtgEvJYBZOQxyqYhDxWwSQKxiqchny7xWnIYxVOQx6rcBryWIXTkMcqnIY8VuE05LEKpyGPVTgNeazC9b8t7POCsQqnsYVGXjBW4TTqtfK1/oXlxqq5wSFAQl4NmIS8GDAJeS1gEvJYBZOQxyqYhDxWwSTksQomIY9VMIlCszWUhny7xWkUGVmhNIo8rlAaRfZXKI0izzeURpEdHEqjyCkOpVFkIofSKPKXQ/W/LezzQlc6lMYWGnnBWIXTWN/K35dxeF1YN6tTNda3SwPZ3De2mdyMWrkD7Fqr2KX/c6LTp9F07CfNXqelHKfXUl3zN7dXzm72LsO4t7X2/YGX6lEUz57cBcncP/n+/Zcwmc4SvIp9Hb+ZGjvj0icajtkqx0vtJdNYzzGMI/Pium/Y4JthhhlmmGGGGWaYYYYZZphhhhlmmGGGGWaYYYYZZphhhhlmmGGGGWaYYYYZZphhhhlmmGGGGWaYYYYZZphhhhlmmGGGGWaY4b9UeNaObnQcB75+6ZkHa512x/J5VfNobLL6aOy5jgOdLB6vbbSWDxBPwihth8FYr31ENvnac7rrn6xN2vlXz0+i0EuDaJxBNZJUT/Yv9GUU60a5J59/0SM99lff0PxnzX6npbrmyeWOeZDZ/NEI9WVqwNakXqZtfxjp9GycmuuTSVxOx8OctLmn/liTYkmo789+t/ZZbnMEl6qZXgVJO8lXpZyQOR6c1M6u35k3vGr+D7hqtiW+eXQ8Y1/k/TCJksAkfJb9uMy7WR4mzVeo4ui2GtISKxj72uyHfadV8ezl8bHuiZeBDk29NRfXdL5PRnE0nWhfff+9+sfi53ftD1desnj+3WywvYfR2Vej2QVpe6PRc6PRDvV4lF6pH5Wr/q0aT8KwoR6vviIJg6Fu7jt77zrv99buty/eSRSr5sfsrXR+UB8zmUWpLnTNz/6Z3XGqL5A5TBkv8r37+L79Sc/U6enp/OLVy5hnXSz7x6pvdXlcxNr7VOfkzxXPqfp6c70W7+7UlLUphkWl5EYO7Q9ekgSjsfYHxiIieZdfyff1LuVyoSfT5KpZdy2yJX08X8/6OykMH5d5l23zyroqSRpHn3Q5nflr6ypFE28YpLNyUosX135XucRSqm6W5Y1k9bZSZ3tUvvmYY7mdV288al85VbNV2W7lWT+38q5a6vWf180U5jg4UK9/e6v+++q3N+r81Zu3P//6k/rl1U8/D9SLszdn5RI8z+7a+s4zI5pKI5VEcarG0+usDoYqtzRJlJcMs+ElGI9KZFxee5PnQWf2Wuqi/M0l1uk0HquJFyf6eRh5adMzt/y9bCkf/Owi/1mpi7l+RHsgu3gL6xJ/3qzTy/38mW/3fLM3H/n60puGqZrEUXYP049a6tF3x8eDwdnZow0bzxCHOMQhDnGIQxziEIc4xCHOXxNHJdPr7J/Aytfmh8r3ZoYo1j5pSEMa0pCGNKQhDWlIQxrSkKaY5jb/r1l/orkIp5o4xCEOcYhDHOIQhzjEIQ5xiFMH5/57Ax3zvYHnU+l7A7tO/hu2J08OD09OSEpSkpKUpCQlKUlJSlKSkpSkJCXpbpC6OamXSqSdnLTbdd3jPklJSlKSkpSkJCUpSUlKUpKSlKQk3Q3SriF9HgcCqXuSkzrO0VG3S1KSkpSkJCUpSUlKUpKSlKQkJSlJd4P00JC+vZpKpMc56Ul29J6SlKQkJSlJSUpSkpKUpCQlKUlJStLdIO0Z0v9oXyI9ykmfPRsMjo5ISlKSkpSkJCUpSUlKUpKSlKQkJelukPbzTyamWiLt56SDQb9PUpKSlKQkJSlJSUpSkpKUpCQlKUl3hfTIkL6MJGdBt5eTHh+7bq9HUpKSlKQkJSlJSUpSkpKUpCQlKUm3RrpE8WPvtrk22V07DdJQn195E91O9V3afPQimsbJeozZl2c+C671OAmicaiTPMOaFAcH6onvK0/lmdRtkF6pJLrWyu+uOTO5GbW9yUSP/WbDaDf21pywPNpemsbNxl2jpfqdiifNspPc8icl6SzUc7x9bzy8iuLs/EaoLyvQLnJcRuN0/1YHo6vU5LiIQr98jvnanE/2z18maRTrQ3U+S/a76nkY7zvqfHi1P1AvXofD63R/HMXZEvz+q/r1bPDUvCzV16qrXp//rl4Nh+a1j/aKFvXHg2QYB5P0X+Jrfjzwg5uvh8Vz5GRZLhX4p42hqfhBdpG8YKzjD73jhsqv3GnDD5JJ6M0eB+MwC+1fhNHw0w8NmS9LOn8LKp1NsvPNxTv46N14858WnmmOGy82xalOlR9cT0LdHuvb85tRs/Hdl4wtddjp5H+s3Wwmre+lXpb33R+N0LvQYeNxw9eX3jRM1SSOLoNQN1rzyIe7xmOn3Wk1brxwqhd/H5p7UnZOdpsZDM7OGp9bpfK4oDxdUJ5DUJ4eKE8flOcIlOcYlOcElMfpoBKhKtpBlbSDqmkHVdQOqqodVFk7qLp2UIXtoCrbRVW2C7tXoyrbRVW2W6myVTK9vl75kupSHS3WfoU04jWqlka8QtXSiNenWhpx31dLI+76amnEPV8tjbjjq6UR93u1NHIjq5gHVMdyG6uYB1TJchOrmAdUy3ILq5gHVM1yA6uYB1TPcvuqmAd1XwbVs9y7KuYpX8+3wTit3rYuzI/K5xEvT8U84uWpmEe8PBXziNu9Yh5xu1fMI273innE7V4xj7jdK+aR+1fVRKiKljtY1USompZ7WNVEqKqWu1jVRKi6lvtY1USoypY7WdVEsHs1qrLlZlY1UfnKvv+txdpvFZbaXGflH3rzrx0GSLibl+huXuJw8xK9zUv0Ny9xtHmJ481LnGxeYqWzb0pjC/u74INZnIb8yRZOQ/7QC6chf9KL05A/BMZpyJ8P4zTkj45xGvKnyrj+t4V97m6jj2+hkbtb6ORuvVa+9ssby41V8293BEjIqwGTkBcDJiGvBUxCHqtgEvJYBZOQxyqYhDxWwSTksQomUfCba5yG/Ks/nIY8VuE05LEKpyGPVTgNeazCachjFU5DHqtwGvJYhdOQxypc/9vCPi/4FT9OYwuNvGCswmnUa+VrvyOr3Fg1/xItgIS8GjAJeTFgEvJawCTksQomIY9VMAl5rIJJyGMVTEIeq2ASBWMVTkO+3eI05LEKpyGPVTgNeazCachjFU5DHqtwGvJYhdOQxyqchjxW4frfFvZ5wViF09hCIy8Yq3Aa9Vr52q8iKTdWzb+rBCAhrwZMQl4MmIS8FjAJeayCSchjFUxCHqtgEvJYBZOQxyqYRMFYhdOQb7c4DXmswmnIYxVOQx6rcBryWIXTkMcqnIY8VuE05LEKpyGPVbj+t4V9XjBW4TS20MgLxiqcRr1WvtbxvdxYNbeEB0jIqwGTkBcDJiGvBUxCHqtgEvJYBZOQxyqYhDxWwSTksQomUTBW4TTk2y1OQx6rcBryWIXTkMcqnIY8VuE05LEKpyGPVTgNeazCachjFa7/bWGfF4xVOI0tNPKCsQqnUa+VrzXWLTdWzZ13ARLyasAk5MWASchrAZOQxyqYhDxWwSTksQomIY9VMAl5rIJJFIxVOA35dovTkMcqnIY8VuE05LEKpyGPVTgNeazCachjFU5DHqtwGvJYhet/W9jnBWMVTmMLjbxgrMJp1Gvla/0Ly41Vc4NDgIS8GjAJeTFgEvJawCTksQomIY9VMAl5rIJJyGMVTEIeq2AShWZrKA35dovTKDKyQmkUeVyhNIrsr1AaRZ5vKI0iOziURpFTHEqjyEQOpVHkL4fqf1vY54WudCiNLTTygrEKp7G+lb8v4/C6sG5Wp2qsb5cGsrlvbDO5GbVyB9i1VrFL/+dEp0+j6dhPmr1OSzlOr6W65m9ur5zd7F2GcW9r7fsDL9WjKJ49uQuSuX/y/fsvYTKdJXgV+zp+MzV2xqVPNByzVY6X2kumsZ5jGEfmxXXfsME3wwwzzDDDDDPMMMMMM8wwwwwzzDDDDDPMMMMMM8wwwwwzzDDDDDPMMMMMM8wwwwwzzDDDDDPMMMMMM8wwwwwzzDDDDDPMMMN/qfCsHd3oOA58/dIzD9Y67Y7l86rm0dhk9dHYcx0HOlk8XttoLR8gnoRR2g6DsV77iGzyted01z9Zm7Tzr56fRKGXBtE4g2okqZ7sX+jLKNaNck8+/6JHeuyvvqH5z5r9Tkt1zZPLHfMgs/mjEerL1ICtSb1M2/4w0unZODXXJ5O4nI6HOWlzT/2xJsWSUN+f/W7ts9zmCC5VM70KknaSr0o5IXM8OKmdXb8zb3jV/B9w1WxLfPPoeMa+yPthEiWBSfgs+3GZd7M8TJqvUMXRbTWkJVYw9rXZD/tOq+LZy+Nj3RMvAx2aemsurul8n4ziaDrRvvr+e/WPxc/v2h+uvGTx/LvZYHsPo7OvRrML0vZGo+dGox3q8Si9Uj8qV/1bNZ6EYUM9Xn1FEgZD3dx39t513u+t3W9fvJMoVs2P2Vvp/KA+ZjKLUl3omp/9M7vjVF8gc5gyXuR79/F9+5OeqdPT0/nFq5cxz7pY9o9V3+ryuIi196nOyZ8rnlP19eZ6Ld7dqSlrUwyLSsmNHNofvCQJRmPtD4xFRPIuv5Lv613K5UJPpslVs+5aZEv6eL6e9XdSGD4u8y7b5pV1VZI0jj7pcjrz19ZViibeMEhn5aQWL679rnKJpVTdLMsbyeptpc72qHzzMcdyO6/eeNS+cqpmq7LdyrN+buVdtdTrP6+bKcxxcKBe//ZW/ffVb2/U+as3b3/+9Sf1y6uffh6oF2dvzsoleJ7dtfWdZ0Y0lUYqieJUjafXWR0MVW5pkigvGWbDSzAelci4vPYmz4PO7LXURfmbS6zTaTxWEy9O9PMw8tKmZ275e9lSPvjZRf6zUhdz/Yj2QHbxFtYl/rxZp5f7+TPf7vlmbz7y9aU3DVM1iaPsHqYftdSj746PB4Ozs0cbNp4hDnGIQxziEIc4xCEOcYhDnL8mjkqm19k/gZWvzQ+V780MUax90pCGNKQhDWlIQxrSkIY0pCFNMc1t/l+z/kRzEU41cYhDHOIQhzjEIQ5xiEMc4hCnDs799wY65nsDz6fS9wZ2nfw3bE+eHB6enJCUpCQlKUlJSlKSkpSkJCUpSUlK0t0gdXNSL5VIOzlpt+u6x32SkpSkJCUpSUlKUpKSlKQkJSlJSbobpF1D+jwOBFL3JCd1nKOjbpekJCUpSUlKUpKSlKQkJSlJSUpSku4G6aEhfXs1lUiPc9KT7Og9JSlJSUpSkpKUpCQlKUlJSlKSkpSku0HaM6T/0b5EepSTPns2GBwdkZSkJCUpSUlKUpKSlKQkJSlJSUrS3SDt559MTLVE2s9JB4N+n6QkJSlJSUpSkpKUpCQlKUlJSlKS7grpkSF9GUnOgm4vJz0+dt1ej6QkJSlJSUpSkpKUpCQlKUlJSlKSbo10ieLH3m1zbbK7dhqkoT6/8ia6neq7tPnoRTSNk/UYsy/PfBZc63ESRONQJ3mGNSkODtQT31eeyjOp2yC9Ukl0rZXfXXNmcjNqe5OJHvvNhtFu7K05YXm0vTSNm427Rkv1OxVPmmUnueVPStJZqOd4+954eBXF2fmNUF9WoF3kuIzG6f6tDkZXqclxEYV++RzztTmf7J+/TNIo1j11Pkv2u+p5GO876nx4tT9QL16Hw+t0fxzF2RL8/qv69Wzw1Lws1deqq16f/65eDYfmtY/2ihb1x4NkGAeT9F/ia3488IObr4fFc+RkWS4V+KeNoan4QXaRvGCs4w+9k4bKr9xpww+SSejNHgfjMAvtX4TR8NMPDZkvSzp/CyqdTbLzzcU7+OjdePOfFp5pjhsvNsWpTpUfXE9C3R7r2/ObUbPx3ZeMLXXY6eR/rN1sJq3vpV6W990fjdC70GHjccPXl940TNUkji6DUDda88iHu8Zjp91pNW68cKoXfx+ae1J2TnabGQzOzhqfW6XyuKA8XVCeQ1CeHihPH5TnCJTnGJTnBJTH6aASoSraQZW0g6ppB1XUDqqqHVRZO6i6dlCF7aAq20VVtgu7V6Mq20VVtlupslUyvb5e+ZLqUh0t1n6FNOI1qpZGvELV0ojXp1oacd9XSyPu+mppxD1fLY2446ulEfd7tTRyI6uYB1THchurmAdUyXITq5gHVMtyC6uYB1TNcgOrmAdUz3L7qpgHdV8G1bPcuyrmKV/Pt8E4rd62LsyPyucRL0/FPOLlqZhHvDwV84jbvWIecbtXzCNu94p5xO1eMY+43SvmkftX1USoipY7WNVEqJqWe1jVRKiqlrtY1USoupb7WNVEqMqWO1nVRLB7Naqy5WZWNVH5yr7/rcXabxWW2lxn5R96868dBki4m5fobl7icPMSvc1L9DcvcbR5iePNS5xsXmKls29KYwv7u+CDWZyG/MkWTkP+0AunIX/Si9OQPwTGacifD+M05I+OcRryp8q4/reFfe5uo49voZG7W+jkbr1WvvbLG8uNVfNvdwRIyKsBk5AXAyYhrwVMQh6rYBLyWAWTkMcqmIQ8VsEk5LEKJlHwm2uchvyrP5yGPFbhNOSxCqchj1U4DXmswmnIYxVOQx6rcBryWIXTkMcqXP/bwj4v+BU/TmMLjbxgrMJp1Gvla78jq9xYNf8SLYCEvBowCXkxYBLyWsAk5LEKJiGPVTAJeayCSchjFUxCHqtgEgVjFU5Dvt3iNOSxCqchj1U4DXmswmnIYxVOQx6rcBryWIXTkMcqnIY8VuH63xb2ecFYhdPYQiMvGKtwGvVa+dqvIik3Vs2/qwQgIa8GTEJeDJiEvBYwCXmsgknIYxVMQh6rYBLyWAWTkMcqmETBWIXTkG+3OA15rMJpyGMVTkMeq3Aa8liF05DHKpyGPFbhNOSxCqchj1W4/reFfV4wVuE0ttDIC8YqnEa9Vr7W8b3cWDW3hAdIyKsBk5AXAyYhrwVMQh6rYBLyWAWTkMcqmIQ8VsEk5LEKJlEwVuE05NstTkMeq3Aa8liF05DHKpyGPFbhNOSxCqchj1U4DXmswmnIYxWu/21hnxeMVTiNLTTygrEKp1Gvla811i03Vs2ddwES8mrAJOTFgEnIawGTkMcqmIQ8VsEk5LEKJiGPVTAJeayCSRSMVTgN+XaL05DHKpyGPFbhNOSxCqchj1U4DXmswmnIYxVOQx6rcBryWIXrf1vY5wVjFU5jC428YKzCadRr5Wv9C8uNVXODQ4CEvBowCXkxYBLyWsAk5LEKJiGPVTAJeayCSchjFUxCHqtgEoVmaygN+XaL0ygyskJpFHlcoTSK7K9QGkWebyiNIjs4lEaRUxxKo8hEDqVR5C+H6n9b2OeFrnQojS008oKxCqexvpW/L+PwurBuVqdqrG+XBrK5b2wzuRm1cgfYtVaxS//nRKdPo+nYT5q9Tks5Tq+luuZvbq+c3exdhnFva+37Ay/VoyiePbkLkrl/8v37L2EynSV4Ffs6fjM1dsalTzQcs1WOl9pLprGeYxhH5sV137DBN8MMM8wwwwwzzDDDDDPMMMMMM8wwwwwzzDDDDDPMMMMMM8wwwwwzzDDDDDPMMMMMM8wwwwwzzDDDDDPMMMMMM8zw/2vv/H/Ttr7///vnr7jzpIVo4GBIyJc1m1JK2kptU5VW0xZVkcEXcGJsZJskaMr//vY1JgtrD/Y1B/bKPk//kGUc+/l8+H49hfiAMMIII4zwfyo8M4NbGYauI9/b6sFay6yv+byqejQ2Wn40titDV0bZ47VGdfEA8cQLYtNzfZn7iGz0ved085+sjcz0q+cngWfHbuAnUEYUy0mtJwdBKI1iTz6/k0PpO8s3NH+t0qpXRVM9uVxXDzKrH4YnB7ECy5FeyJpXQxl3/Fi1T2IxmPr9lLSyK/7KkVgQyserL3Of5VaHOxCVeORGZpT2SjEjdTy5yEzar2P3R5W/gXXVFvjq0fGEPdO9mgSRqwRfJS8XuZvFoWS+QxUGd3pICyzXd6SaDzWrqnn14rgue+HAlZ4ab5WsTefzZBgG04l0xE8/iR+y1+/Nq5EdZc+/qwm2+zQ6+240aRDTHg7PlYfpSX8Yj8QL0RC/CePM8wxxsnxG5Ll9WalZu5f1r7u58+2bOwlCUblObqX+i7hObLKhmvmq135OVhz9DlKHGsaZ3uX1V/NGzsTp6em88coppqpZt1/r3uri6IXSvilz8YPmNbrnq/bK7u5UDWs1GLKRkhZyMK/sKHKHvnTaqkREdJm25NdyTbno6Mk0GlXK9kXSpSfz/iw/kzzvpMhdmurMsi5RHAY3spjP/NyyTsHE7rvxrJhVdnLpu0otFlZlVRYLyfKyUmZ6aC8+6lhM5+WFR9SEpaumM92Ksz5U01210PkPeTmFOvb2xMcvn8UfF18+ie7Fp89vP7wW7y5ev22LN51PnWIC58mqLe9tlaKJOBBREMbCn46TcdAXaUmTSNhRP0leXH9YQHHR9krnyc5sV0Wv+OISynga+mJih5E89wI7rthqyd9NuvLJa730tUKNmZ+iPbHNbiFP+GGzlV4e8890uqeTvbLjyIE99WIxCYNkDZM7VbHz49FRu93p7Gy48AxwgAMc4AAHOMABDnCAAxzg/DdxRDQdJ/8EFo5ULwrHnimiUDqgAQ1oQAMa0IAGNKABDWhAA5rVNHfpn2b9g6bnTSVwgAMc4AAHOMABDnCAAxzgAKcMzuP3BlrqewO7U+p7A5tW+gnb2dn+/vExSEEKUpCCFKQgBSlIQQpSkIIUpCB9HqSNlNSOKdJ6StpsNhpHLZCCFKQgBSlIQQpSkIIUpCAFKUhB+jxIm4r0PHQJ0sZxSmpZh4fNJkhBClKQghSkIAUpSEEKUpCCFKQgfR6k+4r082hKkR6lpMfJcfASpCAFKUhBClKQghSkIAUpSEEKUpA+D9IDRfq7dCjSw5T01at2+/AQpCAFKUhBClKQghSkIAUpSEEKUpA+D9JW+s7EVFKkrZS03W61QApSkIIUpCAFKUhBClKQghSkIAXpcyE9VKTvA6qyYOMgJT06ajQODkAKUpCCFKQgBSlIQQpSkIIUpCAF6dZIFyhOaN9VcsXuzdiNPdkd2RNpxvI+ruy8CaZhlI8x+/bKV+5Y+pEb+J6MUoUcib09ceY4whapkrhz45GIgrEUTjPnyuh2aNqTifSdiqG8jd2cCxaHacdxWDHujapo1TUvmiUXNYpfFMUzT87xarbfHwVhcr3hyYEGbaYxCPy4difd4ShWGr3Ac4przPumO6l130dxEMqW6M6iWlOce2HNEt3+qNYWbz56/XFc84Mw6YI/P4gPnfZLdVosx6IpPnb/FBf9vjp3Z3dVp77Yi/qhO4l/Jc95see4t98Pk9fQYomWcJ1To69GfDtpJNv1ZXjVqhsibblTw3GjiWfPTlzfS0K1nhf0b34xaL5EdH4LIp5NkutV4+1d27f2/NWVV6rj1g7V4BSnwnHHE0+avrzr3g4rxo/fMlbFfr2e/sidbErWsWM70b38y/DsnvSME8ORA3vqxWISBgPXk0Z1Hrm6N04ss141bm1vKrPf+2pNSq5Jlpl2u9MxHqqFdBpMOk0mnX0mnQMmnRaTziGTzhGTzjGTjlXnEuIa0RbXkLa4xrTFNagtrlFtcQ1ri2tcW1wD2+Ia2Q2ukd1gW6u5RnaDa2Q3tEa2iKbj8dKXVBfa0ULpaMiQbaQnQ7aQngzZPnoy5LzXkyFnvZ4MOef1ZMgZrydDznc9GXoj09RhGsf0NqapwzSS6U1MU4dpLNNbmKYO02imNzBNHabxTG9fmjpc6zLTeKb3Lk2d4uP5zvVj/W2rp14qrkM2j6YO2TyaOmTzaOqQ011Th5zumjrkdNfUIae7pg453TV16P1LV4hrRNM7mK4Q15im9zBdIa5RTe9iukJc45rex3SFuEY2vZPpCrGt1Vwjm97MdIWKj+zHTy1yv1WY2ubqS//Qm3/tMINFY/MWzc1b7G/e4mDzFq3NWxxu3uJo8xbHm7dY2tk35bGF+b3ijVk+D/qdLT4P+k0vPg/6nV4+D/pNYD4P+v1hPg/6rWM+D/pdZb79bwvzvLGNfXwLG3ljCzt5o9xWnvvljcXSqvm3OzJY0L3BZkF3BpsF3RdsFnRaxWZBp1VsFnRaxWZBp1VsFnRaxWax4pNrPg/6oz8+Dzqt4vOg0yo+Dzqt4vOg0yo+Dzqt4vOg0yo+Dzqt4vOg0yq+/W8L83zFR/x8HlvYyFekVXwe5bby3O/IKpZWzb9Ei8GC7g02C7oz2CzovmCzoNMqNgs6rWKzoNMqNgs6rWKzoNMqNosVaRWfB73c8nnQaRWfB51W8XnQaRWfB51W8XnQaRWfB51W8XnQaRWfB51W8e1/W5jnK9IqPo8tbOQr0io+j3Jbee5XkRRLq+bfVcJgQfcGmwXdGWwWdF+wWdBpFZsFnVaxWdBpFZsFnVaxWdBpFZvFirSKz4Nebvk86LSKz4NOq/g86LSKz4NOq/g86LSKz4NOq/g86LSKz4NOq/j2vy3M8xVpFZ/HFjbyFWkVn0e5rTy34nuxtGpeEp7Bgu4NNgu6M9gs6L5gs6DTKjYLOq1is6DTKjYLOq1is6DTKjaLFWkVnwe93PJ50GkVnwedVvF50GkVnwedVvF50GkVnwedVvF50GkVnwedVvHtf1uY5yvSKj6PLWzkK9IqPo9yW3luYd1iadW88i6DBd0bbBZ0Z7BZ0H3BZkGnVWwWdFrFZkGnVWwWdFrFZkGnVWwWK9IqPg96ueXzoNMqPg86reLzoNMqPg86reLzoNMqPg86reLzoNMqPg86reLb/7Ywz1ekVXweW9jIV6RVfB7ltvLc+oXF0qp5gUMGC7o32CzozmCzoPuCzYJOq9gs6LSKzYJOq9gs6LSKzYJOq9gsVhZb4/Kgl1s+j1WFrLg8VtW44vJYVf6Ky2NVzTcuj1Xl4Lg8VlWK4/JYVUSOy2NVfTmu/W8L83xlVToujy1s5CvSKj6P/K38a5EKr1npZnEqfHm3KCCb1o2tRLfDaloBNrdU7KL+cyTjl8HUd6LKQb0qLOugKprqt8ZBsXKz9wnGY1lrx2nbsRwG4ezs3o3m9ZMf779AkelE4CJ0ZPhpqsoZF75QccyWOd5LO5qGco6hKjJn7b7hAt8II4wwwggjjDDCCCOMMMIII4wwwggjjDDCCCOMMMIII4wwwggjjDDCCCOMMMIII4wwwggjjDDCCCOMMMIII4wwwggjjDDCCP+nwjMzuJVh6Dryva0erLXM+prPq6pHY6PlR2O7MnRllD1ea1QXDxBPvCA2PdeXuY/IRt97Tjf/ydrITL96fhJ4duwGfgJlRLGc1HpyEITSKPbk8zs5lL6zfEPz1yqtelU01ZPLdfUgs/pheHIQK7Ac6YWseTWUccePVfskFoOp309JK7virxyJBaF8vPoy91ludbgDUYlHbmRGaa8UM1LHk4vMpP06dn9U+RtYV22Brx4dT9gz3atJELlK8FXycpG7WRxK5jtUYXCnh7TAcn1HqvlQs6qaVy+O67IXDlzpqfFWydp0Pk+GYTCdSEf89JP4IXv93rwa2VH2/LuaYLtPo7PvRpMGMe3h8Fx5mJ70h/FIvBAN8ZswzjzPECfLZ0Se25eVmrV7Wf+6mzvfvrmTIBSV6+RW6r+I68QmG6qZr3rt52TF0e8gdahhnOldXn81b+RMnJ6ezhuvnGKqmnX7te6tLo5eKO2bMhc/aF6je75qr+zuTtWwVoMhGylpIQfzyo4id+hLp61KRESXaUt+LdeUi46eTKNRpWxfJF16Mu/P8jPJ806K3KWpzizrEsVhcCOL+czPLesUTOy+G8+KWWUnl76r1GJhVVZlsZAsLytlpof24qOOxXReXnhETVi6ajrTrTjrQzXdVQud/5CXU6hjb098/PJZ/HHx5ZPoXnz6/PbDa/Hu4vXbtnjT+dQpJnCerNry3lYpmogDEQVhLPzpOBkHfZGWNImEHfWT5MX1hwUUF22vdJ7szHZV9IovLqGMp6EvJnYYyXMvsOOKrZb83aQrn7zWS18r1Jj5KdoT2+wW8oQfNlvp5TH/TKd7OtkrO44c2FMvFpMwSNYwuVMVOz8eHbXbnc7OhgvPAAc4wAEOcIADHOAABzjAAc5/E0dE03HyT2DhSPWicOyZIgqlAxrQgAY0oAENaEADGtCABjSgWU1zl/5p1j9oet5UAgc4wAEOcIADHOAABzjAAQ5wyuA8fm+gpb43sDulvjewaaWfsJ2d7e8fH4MUpCAFKUhBClKQghSkIAUpSEEK0udB2khJ7ZgiraekzWajcdQCKUhBClKQghSkIAUpSEEKUpCCFKTPg7SpSM9DlyBtHKeklnV42GyCFKQgBSlIQQpSkIIUpCAFKUhBCtLnQbqvSD+PphTpUUp6nBwHL0EKUpCCFKQgBSlIQQpSkIIUpCAF6fMgPVCkv0uHIj1MSV+9arcPD0EKUpCCFKQgBSlIQQpSkIIUpCAF6fMgbaXvTEwlRdpKSdvtVgukIAUpSEEKUpCCFKQgBSlIQQpSkD4X0kNF+j6gKgs2DlLSo6NG4+AApCAFKUhBClKQghSkIAUpSEEKUpBujXSB4oT2XSVX7N6M3diT3ZE9kWYs7+PKzptgGkb5GLNvr3zljqUfuYHvyShVyJHY2xNnjiNskSqJOzceiSgYS+E0c66MboemPZlI36kYytvYzblgcZh2HIcV496oilZd86JZclGj+EVRPPPkHK9m+/1RECbXG54caNBmGoPAj2t30h2OYqXRCzynuMa8b7qTWvd9FAehPBTdWVRrinMvrFmi2x/V2uLNR68/jmt+ECZd8OcH8aHTfqlOi+VYNMXH7p/iot9X5+7srurUF3tRP3Qn8a/kOS/2HPf2+2HyGlos0RKuc2r01YhvJ41ku74Mr1qWIdKWOzUcN5p49uzE9b0kVOt5Qf/mF4PmS0TntyDi2SS5XjXe3rV9a89fXXmlOm7tUA1OcSocdzzxpOnLu+7tsGL8+C1jVezX6+mP3MmmZB07thPdy78Mz+5JzzgxHDmwp14sJmEwcD1pVOeRq3vjxDLrVePW9qYy+72v1qTkmmSZabc7HeOhWkinwaTTZNLZZ9I5YNJpMekcMukcMekcM+lYdS4hrhFtcQ1pi2tMW1yD2uIa1RbXsLa4xrXFNbAtrpHd4BrZDba1mmtkN7hGdkNrZItoOh4vfUl1oR0tlI6GDNlGejJkC+nJkO2jJ0POez0ZctbryZBzXk+GnPF6MuR815OhNzJNHaZxTG9jmjpMI5nexDR1mMYyvYVp6jCNZnoD09RhGs/09qWpw7UuM41neu/S1Ck+nu9cP9bftnrqpeI6ZPNo6pDNo6lDNo+mDjndNXXI6a6pQ053TR1yumvqkNNdU4fev3SFuEY0vYPpCnGNaXoP0xXiGtX0LqYrxDWu6X1MV4hrZNM7ma4Q21rNNbLpzUxXqPjIfvzUIvdbhaltrr70D7351w4zWDQ2b9HcvMX+5i0ONm/R2rzF4eYtjjZvcbx5i6WdfVMeW5jfK96Y5fOg39ni86Df9OLzoN/p5fOg3wTm86DfH+bzoN865vOg31Xm2/+2MM8b29jHt7CRN7awkzfKbeW5X95YLK2af7sjgwXdG2wWdGewWdB9wWZBp1VsFnRaxWZBp1VsFnRaxWZBp1VsFis+uebzoD/64/Og0yo+Dzqt4vOg0yo+Dzqt4vOg0yo+Dzqt4vOg0yo+Dzqt4tv/tjDPV3zEz+exhY18RVrF51FuK8/9jqxiadX8S7QYLOjeYLOgO4PNgu4LNgs6rWKzoNMqNgs6rWKzoNMqNgs6rWKzWJFW8XnQyy2fB51W8XnQaRWfB51W8XnQaRWfB51W8XnQaRWfB51W8XnQaRXf/reFeb4ireLz2MJGviKt4vMot5XnfhVJsbRq/l0lDBZ0b7BZ0J3BZkH3BZsFnVaxWdBpFZsFnVaxWdBpFZsFnVaxWaxIq/g86OWWz4NOq/g86LSKz4NOq/g86LSKz4NOq/g86LSKz4NOq/g86LSKb//bwjxfkVbxeWxhI1+RVvF5lNvKcyu+F0ur5iXhGSzo3mCzoDuDzYLuCzYLOq1is6DTKjYLOq1is6DTKjYLOq1is1iRVvF50MstnwedVvF50GkVnwedVvF50GkVnwedVvF50GkVnwedVvF50GkV3/63hXm+Iq3i89jCRr4ireLzKLeV5xbWLZZWzSvvMljQvcFmQXcGmwXdF2wWdFrFZkGnVWwWdFrFZkGnVWwWdFrFZrEireLzoJdbPg86reLzoNMqPg86reLzoNMqPg86reLzoNMqPg86reLzoNMqvv1vC/N8RVrF57GFjXxFWsXnUW4rz61fWCytmhc4ZLCge4PNgu4MNgu6L9gs6LSKzYJOq9gs6LSKzYJOq9gs6LSKzWJlsTUuD3q55fNYVciKy2NVjSsuj1Xlr7g8VtV84/JYVQ6Oy2NVpTguj1VF5Lg8VtWX49r/tjDPV1al4/LYwka+Iq3i88jfyr8WqfCalW4Wp8KXd4sCsmnd2Ep0O6ymFWBzS8Uu6j9HMn4ZTH0nqhzUq8KyDqqiqX5rHBQrN3ufYDyWtXacth3LYRDOzu7daF4/+fH+CxSZTgQuQkeGn6aqnHHhCxXHbJnjvbSjaSjnGKoic9buGy7wjTDCCCOMMMIII4wwwggjjDDCCCOMMMIII4wwwggjjDDCCCOMMMIII4wwwggjjDDCCCOMMMIII4wwwggjjDDCCCOMMMIII4zwfyo8M4NbGYauI9/b6sFay6yv+byqejQ2Wn40titDV0bZ47VGdfEA8cQLYtNzfZn7iGz0ved085+sjcz0q+cngWfHbuAnUEYUy0mtJwdBKI1iTz6/k0PpO8s3NH+t0qpXRVM9uVxXDzKrH4YnB7ECy5FeyJpXQxl3/Fi1T2IxmPr9lLSyK/7KkVgQyserL3Of5VaHOxCVeORGZpT2SjEjdTy5yEzar2P3R5W/gXXVFvjq0fGEPdO9mgSRqwRfJS8XuZvFoWS+QxUGd3pICyzXd6SaDzWrqnn14rgue+HAlZ4ab5WsTefzZBgG04l0xE8/iR+y1+/Nq5EdZc+/qwm2+zQ6+240aRDTHg7PlYfpSX8Yj8QL0RC/CePM8wxxsnxG5Ll9WalZu5f1r7u58+2bOwlCUblObqX+i7hObLKhmvmq135OVhz9DlKHGsaZ3uX1V/NGzsTp6em88coppqpZt1/r3uri6IXSvilz8YPmNbrnq/bK7u5UDWs1GLKRkhZyMK/sKHKHvnTaqkREdJm25NdyTbno6Mk0GlXK9kXSpSfz/iw/kzzvpMhdmurMsi5RHAY3spjP/NyyTsHE7rvxrJhVdnLpu0otFlZlVRYLyfKyUmZ6aC8+6lhM5+WFR9SEpaumM92Ksz5U01210PkPeTmFOvb2xMcvn8UfF18+ie7Fp89vP7wW7y5ev22LN51PnWIC58mqLe9tlaKJOBBREMbCn46TcdAXaUmTSNhRP0leXH9YQHHR9krnyc5sV0Wv+OISynga+mJih5E89wI7rthqyd9NuvLJa730tUKNmZ+iPbHNbiFP+GGzlV4e8890uqeTvbLjyIE99WIxCYNkDZM7VbHz49FRu93p7Gy48AxwgAMc4AAHOMABDnCAAxzg/DdxRDQdJ/8EFo5ULwrHnimiUDqgAQ1oQAMa0IAGNKABDWhAA5rVNHfpn2b9g6bnTSVwgAMc4AAHOMABDnCAAxzgAKcMzuP3BlrqewO7U+p7A5tW+gnb2dn+/vExSEEKUpCCFKQgBSlIQQpSkIIUpCB9HqSNlNSOKdJ6StpsNhpHLZCCFKQgBSlIQQpSkIIUpCAFKUhB+jxIm4r0PHQJ0sZxSmpZh4fNJkhBClKQghSkIAUpSEEKUpCCFKQgfR6k+4r082hKkR6lpMfJcfASpCAFKUhBClKQghSkIAUpSEEKUpA+D9IDRfq7dCjSw5T01at2+/AQpCAFKUhBClKQghSkIAUpSEEKUpA+D9JW+s7EVFKkrZS03W61QApSkIIUpCAFKUhBClKQghSkIAXpcyE9VKTvA6qyYOMgJT06ajQODkAKUpCCFKQgBSlIQQpSkIIUpCAF6dZIFyhOaN9VcsXuzdiNPdkd2RNpxvI+ruy8CaZhlI8x+/bKV+5Y+pEb+J6MUoUcib09ceY4whapkrhz45GIgrEUTjPnyuh2aNqTifSdiqG8jd2cCxaHacdxWDHujapo1TUvmiUXNYpfFMUzT87xarbfHwVhcr3hyYEGbaYxCPy4difd4ShWGr3Ac4przPumO6l130dxEMoj0Z1FtaY498KaJbr9Ua0t3nz0+uO4Ju0oFn9+EB867ZfqrFiORVN87P4pLvp9derO7qo+fbEX9UN3Ev9KnvNiz3Fvvx8mr6HFEi3hOqdGXw34dtJGtuvL8KrVMETacKeG40YTz56duL6XhGo9L+jf/GLQfIno/BZEPJsk16u227u2b+35qyuvVMetHaqxKU6F444nnjR9ede9HVaMH79lrIr9ej39kTvXlKxjx3aie/mX4dk96RknhiMH9tSLxSQMBq4njeo8cnVvnFhmvWrc2t5UGietY/P4yXF0XDX6aoFKFJI1p93udIyHaiHVxkZUmxtR3d+I6sFGVFsbUT3ciOrRRlSPN6Jq1Tcju5nZZW1melmbmV/WZiaYtZkZZm1milmbmWPWZiaZtZlZ1tjMLGtsaA/bzCxrbGaWNdaYZSKajsdL3/ldIkMIpaMhWrBt9UQLtqyeaMF21RMtuHbpiRZcufREC65beqIFVy090YJrlp5o0cRAU3Ujc6poWqCpupFZVTQp0FTdyLwqmhJoqm5kZhVNCDRVNzK3iqYDmqqb2a82MreK5gKaqmXn1p3rx+umAT11QnHVgs2qqVqwWTVVCzarpmrBJUtTteCSpalacMnSVC24ZGmqFlyyNFWL5gO6spuZXUUzAl3ZzcyvojmBruxmZljRrEBXdjNzrGheoCu7mVlWNDPQld3QHraZWVY0OdCV1ZplX4t84JB9kChOhS/vFp9npB9jVKLbYTX9QCL3k4vFp5GRjF8GU9+JKgf1qrCsg6poqt8aB8U+/bhPMB4/ZHWcth3LYRDOzu7daP5p3mNTFPjIMxG4CB0ZfpqqD9cKX6g4Zssc76UdTUM5x1CfD2ZdsO6HuOnnSMtWXRm6MspwE6esQyZeEJvqw61cy+h7951PGpnpuJsEnh27gZ9AGVEsJ7WeHAShNIqNpHdyKH1n+Ybmr1VayShoqpGgPgyz1I/sM9Lcj48XsubVUMYdP1btk1gMpn4/Ja3sir8KfEiqCOXj1Ze5c0Md7kBU4pEbJeNaXVfMSB1PLjKT9uvY/VHlb2BdtQV+9tlgpns1CSJXCb5KXi5yN4tDyXyHKgzu9JAWWK7vSDVxa1ZV8+rFcV32woErPTXeKlmbzufJMAymE+mIn34SP2Sv35tXIzvK1hM1wXafRmffjSYNYtrD4bnyMD3pD+OReCEa4jdhnHmeIU6Wz4g8ty8rNWv3sv51N3e+fXMnQSgq18mt1H8R14lNNlQzX/Xaz6fC0u8gdahhnOldXn81b2SyvJ2ezhuvnGKqmnX7te6tLo5eKO2bMhc/aF6je75qr+zuTtWwVoMhGynpxmhezf8ASDrpnwBFl2lLfi3XlIuOnkyjUaVsXyRdejLvz/IzyfNOitylqc4s6xLFYXAji/nMzy3rFEzsvhvPilllJ5e+q9RiYVVWZbGQLC8rZaaH9uKjjsV0Xl54RE1Yumo6060460M13VULnf+Ql1OoY29PfPzyWfxx8eWT6F58+vz2w2vx7uL127Z40/nUKSZwnqza8t5WKZqIAxEFSSLtT8fJOOiLNEWMhB31k+TF9YcFFBdtr3Se7Mx2VfSKLy6hjKehLyZ2GMlzL7Djiq2W/N2kK5+81ktfK9SY+SnaE9vsFvKEH/6FP9T8xwew2V9jqg9U/5W/GwUOcIADHOAABzjAAQ5wgAOcZ4/z7R+4KKJQOqABDWhAAxrQgAY0oAENaEADmtU03/xJoKJRf+IHHOAABzjAAQ5wgAMc4AAHOMD5F8sjfpbjiQzteBpKUTnfRYHE/6kCib/basS9kel/zsY9V/qxUF2m6h5KZ5q0f00c1s+fRwnE5jMogdjcWgnE9MHTsiWYmHSaTDr7TDoHTDotJp1DJp0jJp1jJp2l2gJrCXGNaItrSFtcY9riGtQW16i2uIa1xTWuLa6BbXGN7AbXyG6wrdVcI7vBNbIbWiO7eMm+JanyRfrWkCFbqHwhvjVkyHlfvtjeGjLknC9fUG8NGXK+r1E0bx0dpnFMb2NrlMJbR4dpKNN72BoF7tbRYRrN9Aa2Rtm6ddZBpvFM715rFKNbR4dpPNNbV/kSc0syaxSVW0eHbJ41Cseto0NO9zWKw62jQ073NQrAraNDTvd1irytJcQ1oukdbJ3SbWsJcQ1qehNbpyDbWkJc45rex9Yps7bWysg1sumtbJ3iaWsJcY1sejdDSbRnURINYYQRRhhhhBFGGGGEEUYYYYQRRhjh/6XwzAxuZRi6jnxvqzeqLLOOkvhP7gQl8R8PlMTXOlASHyXxNQ6UxP/ngZL4/zxQEl/zQEl8lMT/7oGS+MABDnCAAxzgAAc4wAEOcIADnOdQUBI0oAENaEADGtCABjSgAQ1ong/N/zeFLIEDHOAABzjAAQ5wgAMc4ACnvN+/UBL/lTuWfuQGviejCAXx/7cK4gfhjegMBm7flX5/9lgGf7sF8LOz/xF5+v+L3+f/fVTPfnn8Ty9wZuq/o3js/fr//g9CwvBV"
               },
               {
                  "name" : "annual_peak_electric_demand",
                  "units" : "kW",
                  "value" : 69.445729999999998
               },
               {
                  "name" : "first_year_capital_cost",
                  "units" : "$",
                  "value" : 0
               },
               {
                  "name" : "annual_utility_cost",
                  "units" : "$",
                  "value" : 0
               },
               {
                  "name" : "total_lifecycle_cost",
                  "units" : "$",
                  "value" : 0
               }
            ],
            "step_warnings" : []
         }
      }
   ],
   "updated_at" : "20170710T193202Z",
   "weather_file" : "USA_CO_Denver.Intl.AP.725650_TMY3.epw"
}
