{
   "completed_at" : "20170710T182942Z",
   "completed_status" : "Success",
   "created_at" : "2017-07-10 18:23:39 +0000",
   "current_step" : 5,
   "description" : "",
   "eplusout_err" : "Program Version,EnergyPlus, Version 8.7.0-78a111df4a, YMD=2017.07.10 18:25,IDD_Version 8.7.0\n   ************* IDF Context for following error/warning message:\n   ************* Note -- lines truncated at 300 characters, if necessary...\n   *************      5 Building,\n   ************* indicated Name=NECB 2011-LargeHotel-NECB HDD Method-CAN_PQ_Riviere.du.Loup.717150_CWEC.epw created: 2017-07-10 18:23:49 +0000\n   ************* Only last 1 lines before error line shown.....\n   *************      6   NECB 2011-LargeHotel-NECB HDD Method-CAN_PQ_Riviere.du.Loup.717150_CWEC.epw created: 2017-07-10 18:23:49 +0000, !- Name\n   ** Warning ** IP: IDF line~6 Alpha Argument length exceeds maximum, will be truncated=  NECB 2011-LargeHotel-NECB HDD Method-CAN_PQ_Riviere.du.Loup.717150_CWEC.epw created: 2017-07-10 18:23:49 +000\n   **   ~~~   ** Will be processed as Alpha=NECB 2011-LARGEHOTEL-NECB HDD METHOD-CAN_PQ_RIVIERE.DU.LOUP.717150_CWEC.EPW CREATED: 2017-07-10 18:23:49 +0000\n   ************* Beginning Zone Sizing Calculations\n   ** Warning ** ProcessScheduleInput: Schedule:Day:Interval=\"ECONOMIZER MAX OA FRACTION 100 PCT DEFAULT\", Blank Schedule Type Limits Name input -- will not be validated.\n   ** Warning ** ProcessScheduleInput: Schedule:Day:Interval=\"SCHEDULE DAY 1\", Blank Schedule Type Limits Name input -- will not be validated.\n   ** Warning ** ProcessScheduleInput: Schedule:Day:Interval=\"SCHEDULE DAY 10\", Blank Schedule Type Limits Name input -- will not be validated.\n   ** Warning ** ProcessScheduleInput: Schedule:Day:Interval=\"SCHEDULE DAY 11\", Blank Schedule Type Limits Name input -- will not be validated.\n   ** Warning ** ProcessScheduleInput: Schedule:Day:Interval=\"SCHEDULE DAY 12\", Blank Schedule Type Limits Name input -- will not be validated.\n   ** Warning ** ProcessScheduleInput: Schedule:Day:Interval=\"SCHEDULE DAY 13\", Blank Schedule Type Limits Name input -- will not be validated.\n   ** Warning ** ProcessScheduleInput: Schedule:Day:Interval=\"SCHEDULE DAY 14\", Blank Schedule Type Limits Name input -- will not be validated.\n   ** Warning ** ProcessScheduleInput: Schedule:Day:Interval=\"SCHEDULE DAY 15\", Blank Schedule Type Limits Name input -- will not be validated.\n   ** Warning ** ProcessScheduleInput: Schedule:Day:Interval=\"SCHEDULE DAY 16\", Blank Schedule Type Limits Name input -- will not be validated.\n   ** Warning ** ProcessScheduleInput: Schedule:Day:Interval=\"SCHEDULE DAY 17\", Blank Schedule Type Limits Name input -- will not be validated.\n   ** Warning ** ProcessScheduleInput: Schedule:Day:Interval=\"SCHEDULE DAY 18\", Blank Schedule Type Limits Name input -- will not be validated.\n   ** Warning ** ProcessScheduleInput: Schedule:Day:Interval=\"SCHEDULE DAY 19\", Blank Schedule Type Limits Name input -- will not be validated.\n   ** Warning ** ProcessScheduleInput: Schedule:Day:Interval=\"SCHEDULE DAY 2\", Blank Schedule Type Limits Name input -- will not be validated.\n   ** Warning ** ProcessScheduleInput: Schedule:Day:Interval=\"SCHEDULE DAY 20\", Blank Schedule Type Limits Name input -- will not be validated.\n   ** Warning ** ProcessScheduleInput: Schedule:Day:Interval=\"SCHEDULE DAY 21\", Blank Schedule Type Limits Name input -- will not be validated.\n   ** Warning ** ProcessScheduleInput: Schedule:Day:Interval=\"SCHEDULE DAY 22\", Blank Schedule Type Limits Name input -- will not be validated.\n   ** Warning ** ProcessScheduleInput: Schedule:Day:Interval=\"SCHEDULE DAY 23\", Blank Schedule Type Limits Name input -- will not be validated.\n   ** Warning ** ProcessScheduleInput: Schedule:Day:Interval=\"SCHEDULE DAY 24\", Blank Schedule Type Limits Name input -- will not be validated.\n   ** Warning ** ProcessScheduleInput: Schedule:Day:Interval=\"SCHEDULE DAY 25\", Blank Schedule Type Limits Name input -- will not be validated.\n   ** Warning ** ProcessScheduleInput: Schedule:Day:Interval=\"SCHEDULE DAY 26\", Blank Schedule Type Limits Name input -- will not be validated.\n   ** Warning ** ProcessScheduleInput: Schedule:Day:Interval=\"SCHEDULE DAY 27\", Blank Schedule Type Limits Name input -- will not be validated.\n   ** Warning ** ProcessScheduleInput: Schedule:Day:Interval=\"SCHEDULE DAY 28\", Blank Schedule Type Limits Name input -- will not be validated.\n   ** Warning ** ProcessScheduleInput: Schedule:Day:Interval=\"SCHEDULE DAY 29\", Blank Schedule Type Limits Name input -- will not be validated.\n   ** Warning ** ProcessScheduleInput: Schedule:Day:Interval=\"SCHEDULE DAY 30\", Blank Schedule Type Limits Name input -- will not be validated.\n   ** Warning ** ProcessScheduleInput: Schedule:Day:Interval=\"SCHEDULE DAY 31\", Blank Schedule Type Limits Name input -- will not be validated.\n   ** Warning ** ProcessScheduleInput: Schedule:Day:Interval=\"SCHEDULE DAY 32\", Blank Schedule Type Limits Name input -- will not be validated.\n   ** Warning ** ProcessScheduleInput: Schedule:Day:Interval=\"SCHEDULE DAY 33\", Blank Schedule Type Limits Name input -- will not be validated.\n   ** Warning ** ProcessScheduleInput: Schedule:Day:Interval=\"SCHEDULE DAY 34\", Blank Schedule Type Limits Name input -- will not be validated.\n   ** Warning ** ProcessScheduleInput: Schedule:Day:Interval=\"SCHEDULE DAY 35\", Blank Schedule Type Limits Name input -- will not be validated.\n   ** Warning ** ProcessScheduleInput: Schedule:Day:Interval=\"SCHEDULE DAY 36\", Blank Schedule Type Limits Name input -- will not be validated.\n   ** Warning ** ProcessScheduleInput: Schedule:Day:Interval=\"SCHEDULE DAY 37\", Blank Schedule Type Limits Name input -- will not be validated.\n   ** Warning ** ProcessScheduleInput: Schedule:Day:Interval=\"SCHEDULE DAY 38\", Blank Schedule Type Limits Name input -- will not be validated.\n   ** Warning ** ProcessScheduleInput: Schedule:Day:Interval=\"SCHEDULE DAY 39\", Blank Schedule Type Limits Name input -- will not be validated.\n   ** Warning ** ProcessScheduleInput: Schedule:Day:Interval=\"SCHEDULE DAY 40\", Blank Schedule Type Limits Name input -- will not be validated.\n   ** Warning ** ProcessScheduleInput: Schedule:Day:Interval=\"SCHEDULE DAY 41\", Blank Schedule Type Limits Name input -- will not be validated.\n   ** Warning ** ProcessScheduleInput: Schedule:Day:Interval=\"SCHEDULE DAY 42\", Blank Schedule Type Limits Name input -- will not be validated.\n   ** Warning ** ProcessScheduleInput: Schedule:Day:Interval=\"SCHEDULE DAY 43\", Blank Schedule Type Limits Name input -- will not be validated.\n   ** Warning ** ProcessScheduleInput: Schedule:Day:Interval=\"SCHEDULE DAY 44\", Blank Schedule Type Limits Name input -- will not be validated.\n   ** Warning ** ProcessScheduleInput: Schedule:Day:Interval=\"SCHEDULE DAY 45\", Blank Schedule Type Limits Name input -- will not be validated.\n   ** Warning ** ProcessScheduleInput: Schedule:Day:Interval=\"SCHEDULE DAY 46\", Blank Schedule Type Limits Name input -- will not be validated.\n   ** Warning ** ProcessScheduleInput: Schedule:Day:Interval=\"SCHEDULE DAY 47\", Blank Schedule Type Limits Name input -- will not be validated.\n   ** Warning ** ProcessScheduleInput: Schedule:Day:Interval=\"SCHEDULE DAY 48\", Blank Schedule Type Limits Name input -- will not be validated.\n   ** Warning ** ProcessScheduleInput: Schedule:Day:Interval=\"SCHEDULE DAY 49\", Blank Schedule Type Limits Name input -- will not be validated.\n   ** Warning ** ProcessScheduleInput: Schedule:Day:Interval=\"SCHEDULE DAY 50\", Blank Schedule Type Limits Name input -- will not be validated.\n   ** Warning ** ProcessScheduleInput: Schedule:Day:Interval=\"SCHEDULE DAY 51\", Blank Schedule Type Limits Name input -- will not be validated.\n   ** Warning ** ProcessScheduleInput: Schedule:Day:Interval=\"SCHEDULE DAY 52\", Blank Schedule Type Limits Name input -- will not be validated.\n   ** Warning ** ProcessScheduleInput: Schedule:Day:Interval=\"SCHEDULE DAY 53\", Blank Schedule Type Limits Name input -- will not be validated.\n   ** Warning ** ProcessScheduleInput: Schedule:Day:Interval=\"SCHEDULE DAY 54\", Blank Schedule Type Limits Name input -- will not be validated.\n   ** Warning ** ProcessScheduleInput: Schedule:Day:Interval=\"SCHEDULE DAY 55\", Blank Schedule Type Limits Name input -- will not be validated.\n   ** Warning ** ProcessScheduleInput: Schedule:Day:Interval=\"SCHEDULE DAY 56\", Blank Schedule Type Limits Name input -- will not be validated.\n   ** Warning ** ProcessScheduleInput: Schedule:Day:Interval=\"SCHEDULE DAY 57\", Blank Schedule Type Limits Name input -- will not be validated.\n   ** Warning ** ProcessScheduleInput: Schedule:Day:Interval=\"SCHEDULE DAY 58\", Blank Schedule Type Limits Name input -- will not be validated.\n   ** Warning ** ProcessScheduleInput: Schedule:Day:Interval=\"SCHEDULE DAY 59\", Blank Schedule Type Limits Name input -- will not be validated.\n   ** Warning ** ProcessScheduleInput: Schedule:Day:Interval=\"SCHEDULE DAY 60\", Blank Schedule Type Limits Name input -- will not be validated.\n   ** Warning ** ProcessScheduleInput: Schedule:Day:Interval=\"SCHEDULE DAY 61\", Blank Schedule Type Limits Name input -- will not be validated.\n   ** Warning ** ProcessScheduleInput: Schedule:Day:Interval=\"SCHEDULE DAY 62\", Blank Schedule Type Limits Name input -- will not be validated.\n   ** Warning ** ProcessScheduleInput: Schedule:Day:Interval=\"SCHEDULE DAY 63\", Blank Schedule Type Limits Name input -- will not be validated.\n   ** Warning ** ProcessScheduleInput: Schedule:Day:Interval=\"SCHEDULE DAY 64\", Blank Schedule Type Limits Name input -- will not be validated.\n   ** Warning ** ProcessScheduleInput: Schedule:Day:Interval=\"SCHEDULE DAY 65\", Blank Schedule Type Limits Name input -- will not be validated.\n   ** Warning ** ProcessScheduleInput: Schedule:Day:Interval=\"SCHEDULE DAY 66\", Blank Schedule Type Limits Name input -- will not be validated.\n   ** Warning ** ProcessScheduleInput: Schedule:Day:Interval=\"SCHEDULE DAY 67\", Blank Schedule Type Limits Name input -- will not be validated.\n   ** Warning ** ProcessScheduleInput: Schedule:Day:Interval=\"SCHEDULE DAY 68\", Blank Schedule Type Limits Name input -- will not be validated.\n   ** Warning ** ProcessScheduleInput: Schedule:Day:Interval=\"SCHEDULE DAY 69\", Blank Schedule Type Limits Name input -- will not be validated.\n   ** Warning ** ProcessScheduleInput: Schedule:Day:Interval=\"SCHEDULE DAY 70\", Blank Schedule Type Limits Name input -- will not be validated.\n   ** Warning ** ProcessScheduleInput: Schedule:Day:Interval=\"SCHEDULE DAY 71\", Blank Schedule Type Limits Name input -- will not be validated.\n   ** Warning ** ProcessScheduleInput: Schedule:Day:Interval=\"SCHEDULE DAY 72\", Blank Schedule Type Limits Name input -- will not be validated.\n   ** Warning ** ProcessScheduleInput: Schedule:Day:Interval=\"SCHEDULE DAY 73\", Blank Schedule Type Limits Name input -- will not be validated.\n   ** Warning ** ProcessScheduleInput: Schedule:Day:Interval=\"SCHEDULE DAY 74\", Blank Schedule Type Limits Name input -- will not be validated.\n   ** Warning ** ProcessScheduleInput: Schedule:Day:Interval=\"SCHEDULE DAY 75\", Blank Schedule Type Limits Name input -- will not be validated.\n   ** Warning ** ProcessScheduleInput: Schedule:Day:Interval=\"SCHEDULE DAY 76\", Blank Schedule Type Limits Name input -- will not be validated.\n   ** Warning ** ProcessScheduleInput: Schedule:Day:Interval=\"SCHEDULE DAY 77\", Blank Schedule Type Limits Name input -- will not be validated.\n   ** Warning ** ProcessScheduleInput: Schedule:Day:Interval=\"SCHEDULE DAY 78\", Blank Schedule Type Limits Name input -- will not be validated.\n   ** Warning ** ProcessScheduleInput: Schedule:Day:Interval=\"SCHEDULE DAY 8\", Blank Schedule Type Limits Name input -- will not be validated.\n   ** Warning ** ProcessScheduleInput: Schedule:Day:Interval=\"SCHEDULE DAY 9\", Blank Schedule Type Limits Name input -- will not be validated.\n   ** Warning ** ProcessScheduleInput: Schedule:Year=\"ECONOMIZER MAX OA FRACTION 100 PCT\", Blank Schedule Type Limits Name input -- will not be validated.\n   ** Warning ** ProcessScheduleInput: Schedule:Year=\"SCHEDULE RULESET 10\", Blank Schedule Type Limits Name input -- will not be validated.\n   ** Warning ** ProcessScheduleInput: Schedule:Year=\"SCHEDULE RULESET 11\", Blank Schedule Type Limits Name input -- will not be validated.\n   ** Warning ** ProcessScheduleInput: Schedule:Year=\"SCHEDULE RULESET 12\", Blank Schedule Type Limits Name input -- will not be validated.\n   ** Warning ** ProcessScheduleInput: Schedule:Year=\"SCHEDULE RULESET 13\", Blank Schedule Type Limits Name input -- will not be validated.\n   ** Warning ** ProcessScheduleInput: Schedule:Year=\"SCHEDULE RULESET 14\", Blank Schedule Type Limits Name input -- will not be validated.\n   ** Warning ** ProcessScheduleInput: Schedule:Year=\"SCHEDULE RULESET 15\", Blank Schedule Type Limits Name input -- will not be validated.\n   ** Warning ** ProcessScheduleInput: Schedule:Year=\"SCHEDULE RULESET 16\", Blank Schedule Type Limits Name input -- will not be validated.\n   ** Warning ** ProcessScheduleInput: Schedule:Year=\"SCHEDULE RULESET 17\", Blank Schedule Type Limits Name input -- will not be validated.\n   ** Warning ** ProcessScheduleInput: Schedule:Year=\"SCHEDULE RULESET 18\", Blank Schedule Type Limits Name input -- will not be validated.\n   ** Warning ** ProcessScheduleInput: Schedule:Year=\"SCHEDULE RULESET 19\", Blank Schedule Type Limits Name input -- will not be validated.\n   ** Warning ** ProcessScheduleInput: Schedule:Year=\"SCHEDULE RULESET 20\", Blank Schedule Type Limits Name input -- will not be validated.\n   ** Warning ** ProcessScheduleInput: Schedule:Year=\"SCHEDULE RULESET 21\", Blank Schedule Type Limits Name input -- will not be validated.\n   ** Warning ** ProcessScheduleInput: Schedule:Year=\"SCHEDULE RULESET 22\", Blank Schedule Type Limits Name input -- will not be validated.\n   ** Warning ** ProcessScheduleInput: Schedule:Year=\"SCHEDULE RULESET 23\", Blank Schedule Type Limits Name input -- will not be validated.\n   ** Warning ** ProcessScheduleInput: Schedule:Year=\"SCHEDULE RULESET 24\", Blank Schedule Type Limits Name input -- will not be validated.\n   ** Warning ** ProcessScheduleInput: Schedule:Year=\"SCHEDULE RULESET 25\", Blank Schedule Type Limits Name input -- will not be validated.\n   ** Warning ** ProcessScheduleInput: Schedule:Year=\"SCHEDULE RULESET 26\", Blank Schedule Type Limits Name input -- will not be validated.\n   ** Warning ** ProcessScheduleInput: Schedule:Year=\"SCHEDULE RULESET 27\", Blank Schedule Type Limits Name input -- will not be validated.\n   ** Warning ** ProcessScheduleInput: Schedule:Year=\"SCHEDULE RULESET 28\", Blank Schedule Type Limits Name input -- will not be validated.\n   ** Warning ** ProcessScheduleInput: Schedule:Year=\"SCHEDULE RULESET 29\", Blank Schedule Type Limits Name input -- will not be validated.\n   ** Warning ** ProcessScheduleInput: Schedule:Year=\"SCHEDULE RULESET 3\", Blank Schedule Type Limits Name input -- will not be validated.\n   ** Warning ** ProcessScheduleInput: Schedule:Year=\"SCHEDULE RULESET 30\", Blank Schedule Type Limits Name input -- will not be validated.\n   ** Warning ** ProcessScheduleInput: Schedule:Year=\"SCHEDULE RULESET 31\", Blank Schedule Type Limits Name input -- will not be validated.\n   ** Warning ** ProcessScheduleInput: Schedule:Year=\"SCHEDULE RULESET 32\", Blank Schedule Type Limits Name input -- will not be validated.\n   ** Warning ** ProcessScheduleInput: Schedule:Year=\"SCHEDULE RULESET 33\", Blank Schedule Type Limits Name input -- will not be validated.\n   ** Warning ** ProcessScheduleInput: Schedule:Year=\"SCHEDULE RULESET 34\", Blank Schedule Type Limits Name input -- will not be validated.\n   ** Warning ** ProcessScheduleInput: Schedule:Year=\"SCHEDULE RULESET 35\", Blank Schedule Type Limits Name input -- will not be validated.\n   ** Warning ** ProcessScheduleInput: Schedule:Year=\"SCHEDULE RULESET 36\", Blank Schedule Type Limits Name input -- will not be validated.\n   ** Warning ** ProcessScheduleInput: Schedule:Year=\"SCHEDULE RULESET 37\", Blank Schedule Type Limits Name input -- will not be validated.\n   ** Warning ** ProcessScheduleInput: Schedule:Year=\"SCHEDULE RULESET 38\", Blank Schedule Type Limits Name input -- will not be validated.\n   ** Warning ** ProcessScheduleInput: Schedule:Year=\"SCHEDULE RULESET 39\", Blank Schedule Type Limits Name input -- will not be validated.\n   ** Warning ** ProcessScheduleInput: Schedule:Year=\"SCHEDULE RULESET 4\", Blank Schedule Type Limits Name input -- will not be validated.\n   ** Warning ** ProcessScheduleInput: Schedule:Year=\"SCHEDULE RULESET 40\", Blank Schedule Type Limits Name input -- will not be validated.\n   ** Warning ** ProcessScheduleInput: Schedule:Year=\"SCHEDULE RULESET 41\", Blank Schedule Type Limits Name input -- will not be validated.\n   ** Warning ** ProcessScheduleInput: Schedule:Year=\"SCHEDULE RULESET 42\", Blank Schedule Type Limits Name input -- will not be validated.\n   ** Warning ** ProcessScheduleInput: Schedule:Year=\"SCHEDULE RULESET 43\", Blank Schedule Type Limits Name input -- will not be validated.\n   ** Warning ** ProcessScheduleInput: Schedule:Year=\"SCHEDULE RULESET 44\", Blank Schedule Type Limits Name input -- will not be validated.\n   ** Warning ** ProcessScheduleInput: Schedule:Year=\"SCHEDULE RULESET 45\", Blank Schedule Type Limits Name input -- will not be validated.\n   ** Warning ** ProcessScheduleInput: Schedule:Year=\"SCHEDULE RULESET 46\", Blank Schedule Type Limits Name input -- will not be validated.\n   ** Warning ** ProcessScheduleInput: Schedule:Year=\"SCHEDULE RULESET 47\", Blank Schedule Type Limits Name input -- will not be validated.\n   ** Warning ** ProcessScheduleInput: Schedule:Year=\"SCHEDULE RULESET 48\", Blank Schedule Type Limits Name input -- will not be validated.\n   ** Warning ** ProcessScheduleInput: Schedule:Year=\"SCHEDULE RULESET 49\", Blank Schedule Type Limits Name input -- will not be validated.\n   ** Warning ** ProcessScheduleInput: Schedule:Year=\"SCHEDULE RULESET 5\", Blank Schedule Type Limits Name input -- will not be validated.\n   ** Warning ** ProcessScheduleInput: Schedule:Year=\"SCHEDULE RULESET 50\", Blank Schedule Type Limits Name input -- will not be validated.\n   ** Warning ** ProcessScheduleInput: Schedule:Year=\"SCHEDULE RULESET 51\", Blank Schedule Type Limits Name input -- will not be validated.\n   ** Warning ** ProcessScheduleInput: Schedule:Year=\"SCHEDULE RULESET 52\", Blank Schedule Type Limits Name input -- will not be validated.\n   ** Warning ** ProcessScheduleInput: Schedule:Year=\"SCHEDULE RULESET 53\", Blank Schedule Type Limits Name input -- will not be validated.\n   ** Warning ** ProcessScheduleInput: Schedule:Year=\"SCHEDULE RULESET 54\", Blank Schedule Type Limits Name input -- will not be validated.\n   ** Warning ** ProcessScheduleInput: Schedule:Year=\"SCHEDULE RULESET 55\", Blank Schedule Type Limits Name input -- will not be validated.\n   ** Warning ** ProcessScheduleInput: Schedule:Year=\"SCHEDULE RULESET 56\", Blank Schedule Type Limits Name input -- will not be validated.\n   ** Warning ** ProcessScheduleInput: Schedule:Year=\"SCHEDULE RULESET 57\", Blank Schedule Type Limits Name input -- will not be validated.\n   ** Warning ** ProcessScheduleInput: Schedule:Year=\"SCHEDULE RULESET 58\", Blank Schedule Type Limits Name input -- will not be validated.\n   ** Warning ** ProcessScheduleInput: Schedule:Year=\"SCHEDULE RULESET 59\", Blank Schedule Type Limits Name input -- will not be validated.\n   ** Warning ** ProcessScheduleInput: Schedule:Year=\"SCHEDULE RULESET 6\", Blank Schedule Type Limits Name input -- will not be validated.\n   ** Warning ** ProcessScheduleInput: Schedule:Year=\"SCHEDULE RULESET 7\", Blank Schedule Type Limits Name input -- will not be validated.\n   ** Warning ** ProcessScheduleInput: Schedule:Year=\"SCHEDULE RULESET 8\", Blank Schedule Type Limits Name input -- will not be validated.\n   ** Warning ** ProcessScheduleInput: Schedule:Year=\"SCHEDULE RULESET 9\", Blank Schedule Type Limits Name input -- will not be validated.\n   ** Warning ** ProcessScheduleInput: Schedule:Constant=\"ALWAYS OFF DISCRETE\", Blank Schedule Type Limits Name input -- will not be validated.\n   ** Warning ** ProcessScheduleInput: Schedule:Constant=\"ALWAYS ON CONTINUOUS\", Blank Schedule Type Limits Name input -- will not be validated.\n   ** Warning ** CheckUsedConstructions: There are 23 nominally unused constructions in input.\n   **   ~~~   ** For explicit details on each unused construction, use Output:Diagnostics,DisplayExtraWarnings;\n   ** Warning ** GetInternalHeatGains: ElectricEquipment Combination of ZoneList and Object Name generate a name too long.\n   **   ~~~   ** Object Name=\"SPACE FUNCTION HOSPITAL - LAUNDRY/WASHING ELEC EQUIP\".\n   **   ~~~   ** ZoneList/Zone Name=\"SP-LAUNDRY_FLR_1 SYS-3 FLR-1 SCH-C HPLCMT-EAST ZN\".\n   **   ~~~   ** Item length=[101] > Maximum Length=[100]. You may need to shorten the names.\n   **   ~~~   ** Shortening the Object Name by [2] characters will assure uniqueness for this ZoneList.\n   **   ~~~   ** name that will be used (may be needed in reporting)=\"SP-LAUNDRY_FLR_1 SYS-3 FLR-1 SCH-C HPLCMT-EAST ZN SPACE FUNCTION HOSPITAL - LAUNDRY/WASHING ELEC EQUIP\".\n   ** Warning ** GetInternalHeatGains: ElectricEquipment Combination of ZoneList and Object Name generate a name too long.\n   **   ~~~   ** Object Name=\"SPACE FUNCTION HOTEL/MOTEL - ROOMS ELEC EQUIP\".\n   **   ~~~   ** ZoneList/Zone Name=\"SP-ROOM_3_MULT19_FLR_3 SYS-1 FLR-2 SCH-F HPLCMT-SOUTH ZN\".\n   **   ~~~   ** Item length=[101] > Maximum Length=[100]. You may need to shorten the names.\n   **   ~~~   ** Shortening the Object Name by [2] characters will assure uniqueness for this ZoneList.\n   **   ~~~   ** name that will be used (may be needed in reporting)=\"SP-ROOM_3_MULT19_FLR_3 SYS-1 FLR-2 SCH-F HPLCMT-SOUTH ZN SPACE FUNCTION HOTEL/MOTEL - ROOMS ELEC EQUIP\".\n   ** Warning ** GetInternalHeatGains: ElectricEquipment Combination of ZoneList and Object Name generate a name too long.\n   **   ~~~   ** Object Name=\"SPACE FUNCTION HOTEL/MOTEL - ROOMS ELEC EQUIP\".\n   **   ~~~   ** ZoneList/Zone Name=\"SP-ROOM_4_MULT19_FLR_3 SYS-1 FLR-2 SCH-F HPLCMT-NORTH ZN\".\n   **   ~~~   ** Item length=[101] > Maximum Length=[100]. You may need to shorten the names.\n   **   ~~~   ** Shortening the Object Name by [2] characters will assure uniqueness for this ZoneList.\n   **   ~~~   ** name that will be used (may be needed in reporting)=\"SP-ROOM_4_MULT19_FLR_3 SYS-1 FLR-2 SCH-F HPLCMT-NORTH ZN SPACE FUNCTION HOTEL/MOTEL - ROOMS ELEC EQUIP\".\n   ** Warning ** Calculated design heating load for zone=SP-BASEMENT SYS-4 FLR-3 SCH-E HPLCMT-NORTH ZN is zero.\n   **   ~~~   ** Check Sizing:Zone and ZoneControl:Thermostat inputs.\n   ** Warning ** Calculated design heating load for zone=SP-LOBBY_FLR_1 SYS-6 FLR-1 SCH-H HPLCMT-NORTH ZN is zero.\n   **   ~~~   ** Check Sizing:Zone and ZoneControl:Thermostat inputs.\n   ** Warning ** Calculated design heating load for zone=SP-STORAGE_FLR_1 SYS-4 FLR-1 SCH-E HPLCMT-NORTH ZN is zero.\n   **   ~~~   ** Check Sizing:Zone and ZoneControl:Thermostat inputs.\n   ************* Beginning System Sizing Calculations\n   ** Warning ** Since Zone Minimum Air Flow Input Method = CONSTANT, input for Fixed Minimum Air Flow Rate will be ignored.\n   **   ~~~   ** Occurs in AirTerminal:SingleDuct:VAV:Reheat = AIR TERMINAL SINGLE DUCT VAV REHEAT 1\n   ** Warning ** Since Zone Minimum Air Flow Input Method = CONSTANT, input for Fixed Minimum Air Flow Rate will be ignored.\n   **   ~~~   ** Occurs in AirTerminal:SingleDuct:VAV:Reheat = AIR TERMINAL SINGLE DUCT VAV REHEAT 5\n   ** Warning ** Since Zone Minimum Air Flow Input Method = CONSTANT, input for Fixed Minimum Air Flow Rate will be ignored.\n   **   ~~~   ** Occurs in AirTerminal:SingleDuct:VAV:Reheat = AIR TERMINAL SINGLE DUCT VAV REHEAT 2\n   ** Warning ** Since Zone Minimum Air Flow Input Method = CONSTANT, input for Fixed Minimum Air Flow Rate will be ignored.\n   **   ~~~   ** Occurs in AirTerminal:SingleDuct:VAV:Reheat = AIR TERMINAL SINGLE DUCT VAV REHEAT 4\n   ** Warning ** Since Zone Minimum Air Flow Input Method = CONSTANT, input for Fixed Minimum Air Flow Rate will be ignored.\n   **   ~~~   ** Occurs in AirTerminal:SingleDuct:VAV:Reheat = AIR TERMINAL SINGLE DUCT VAV REHEAT 3\n   ** Warning ** GetDXCoils: Coil:Cooling:DX:SingleSpeed=\"COIL COOLING DX SINGLE SPEED 8 47KBTU/HR 9.3EER\", invalid\n   **   ~~~   ** ...Part Load Fraction Correlation Curve Name = DXCOOL-NECB2011-REF-COOLPLFFPLR 16 has out of range value.\n   **   ~~~   ** ...Curve maximum must be <= 1.0, curve max at PLR = 0.99 is 1.015\n   **   ~~~   ** ...Setting curve maximum to 1.0 and simulation continues.\n   ** Warning ** GetDXCoils: Coil:Cooling:DX:SingleSpeed=\"COIL COOLING DX SINGLE SPEED 5 16KBTU/HR 9.3EER\", invalid\n   **   ~~~   ** ...Part Load Fraction Correlation Curve Name = DXCOOL-NECB2011-REF-COOLPLFFPLR 13 has out of range value.\n   **   ~~~   ** ...Curve maximum must be <= 1.0, curve max at PLR = 0.99 is 1.015\n   **   ~~~   ** ...Setting curve maximum to 1.0 and simulation continues.\n   ** Warning ** GetDXCoils: Coil:Cooling:DX:SingleSpeed=\"COIL COOLING DX SINGLE SPEED 9 18KBTU/HR 9.3EER\", invalid\n   **   ~~~   ** ...Part Load Fraction Correlation Curve Name = DXCOOL-NECB2011-REF-COOLPLFFPLR 17 has out of range value.\n   **   ~~~   ** ...Curve maximum must be <= 1.0, curve max at PLR = 0.99 is 1.015\n   **   ~~~   ** ...Setting curve maximum to 1.0 and simulation continues.\n   ** Warning ** GetDXCoils: Coil:Cooling:DX:SingleSpeed=\"COIL COOLING DX SINGLE SPEED 6 15KBTU/HR 9.3EER\", invalid\n   **   ~~~   ** ...Part Load Fraction Correlation Curve Name = DXCOOL-NECB2011-REF-COOLPLFFPLR 14 has out of range value.\n   **   ~~~   ** ...Curve maximum must be <= 1.0, curve max at PLR = 0.99 is 1.015\n   **   ~~~   ** ...Setting curve maximum to 1.0 and simulation continues.\n   ** Warning ** GetDXCoils: Coil:Cooling:DX:SingleSpeed=\"COIL COOLING DX SINGLE SPEED 10 18KBTU/HR 9.3EER\", invalid\n   **   ~~~   ** ...Part Load Fraction Correlation Curve Name = DXCOOL-NECB2011-REF-COOLPLFFPLR 1 has out of range value.\n   **   ~~~   ** ...Curve maximum must be <= 1.0, curve max at PLR = 0.99 is 1.015\n   **   ~~~   ** ...Setting curve maximum to 1.0 and simulation continues.\n   ** Warning ** GetDXCoils: Coil:Cooling:DX:SingleSpeed=\"COIL COOLING DX SINGLE SPEED 7 4KBTU/HR 11.0EER\", invalid\n   **   ~~~   ** ...Part Load Fraction Correlation Curve Name = DXCOOL-NECB2011-REF-COOLPLFFPLR 15 has out of range value.\n   **   ~~~   ** ...Curve maximum must be <= 1.0, curve max at PLR = 0.99 is 1.015\n   **   ~~~   ** ...Setting curve maximum to 1.0 and simulation continues.\n   ** Warning ** GetDXCoils: Coil:Cooling:DX:SingleSpeed=\"COIL COOLING DX SINGLE SPEED 11 8KBTU/HR 10.9EER\", invalid\n   **   ~~~   ** ...Part Load Fraction Correlation Curve Name = DXCOOL-NECB2011-REF-COOLPLFFPLR 2 has out of range value.\n   **   ~~~   ** ...Curve maximum must be <= 1.0, curve max at PLR = 0.99 is 1.015\n   **   ~~~   ** ...Setting curve maximum to 1.0 and simulation continues.\n   ** Warning ** GetDXCoils: Coil:Cooling:DX:SingleSpeed=\"COIL COOLING DX SINGLE SPEED 2 3KBTU/HR 11.0EER\", invalid\n   **   ~~~   ** ...Part Load Fraction Correlation Curve Name = DXCOOL-NECB2011-REF-COOLPLFFPLR 10 has out of range value.\n   **   ~~~   ** ...Curve maximum must be <= 1.0, curve max at PLR = 0.99 is 1.015\n   **   ~~~   ** ...Setting curve maximum to 1.0 and simulation continues.\n   ** Warning ** GetDXCoils: Coil:Cooling:DX:SingleSpeed=\"COIL COOLING DX SINGLE SPEED 4 15KBTU/HR 9.3EER\", invalid\n   **   ~~~   ** ...Part Load Fraction Correlation Curve Name = DXCOOL-NECB2011-REF-COOLPLFFPLR 12 has out of range value.\n   **   ~~~   ** ...Curve maximum must be <= 1.0, curve max at PLR = 0.99 is 1.015\n   **   ~~~   ** ...Setting curve maximum to 1.0 and simulation continues.\n   ** Warning ** GetDXCoils: Coil:Cooling:DX:SingleSpeed=\"COIL COOLING DX SINGLE SPEED 3 15KBTU/HR 9.4EER\", invalid\n   **   ~~~   ** ...Part Load Fraction Correlation Curve Name = DXCOOL-NECB2011-REF-COOLPLFFPLR 11 has out of range value.\n   **   ~~~   ** ...Curve maximum must be <= 1.0, curve max at PLR = 0.99 is 1.015\n   **   ~~~   ** ...Setting curve maximum to 1.0 and simulation continues.\n   ** Warning ** GetDXCoils: Coil:Cooling:DX:SingleSpeed=\"COIL COOLING DX SINGLE SPEED 1 244KBTU/HR 9.7EER\", invalid\n   **   ~~~   ** ...Part Load Fraction Correlation Curve Name = DXCOOL-NECB2011-REF-COOLPLFFPLR has out of range value.\n   **   ~~~   ** ...Curve maximum must be <= 1.0, curve max at PLR = 0.99 is 1.015\n   **   ~~~   ** ...Setting curve maximum to 1.0 and simulation continues.\n   ** Warning ** GetDXCoils: Coil:Cooling:DX:SingleSpeed=\"COIL COOLING DX SINGLE SPEED 14 97KBTU/HR 9.7EER\", invalid\n   **   ~~~   ** ...Part Load Fraction Correlation Curve Name = DXCOOL-NECB2011-REF-COOLPLFFPLR 5 has out of range value.\n   **   ~~~   ** ...Curve maximum must be <= 1.0, curve max at PLR = 0.99 is 1.015\n   **   ~~~   ** ...Setting curve maximum to 1.0 and simulation continues.\n   ** Warning ** GetDXCoils: Coil:Cooling:DX:SingleSpeed=\"COIL COOLING DX SINGLE SPEED 18 83KBTU/HR 9.7EER\", invalid\n   **   ~~~   ** ...Part Load Fraction Correlation Curve Name = DXCOOL-NECB2011-REF-COOLPLFFPLR 9 has out of range value.\n   **   ~~~   ** ...Curve maximum must be <= 1.0, curve max at PLR = 0.99 is 1.015\n   **   ~~~   ** ...Setting curve maximum to 1.0 and simulation continues.\n   ** Warning ** GetDXCoils: Coil:Cooling:DX:SingleSpeed=\"COIL COOLING DX SINGLE SPEED 13 59KBTU/HR 14.0SEER\", invalid\n   **   ~~~   ** ...Part Load Fraction Correlation Curve Name = DXCOOL-NECB2011-REF-COOLPLFFPLR 4 has out of range value.\n   **   ~~~   ** ...Curve maximum must be <= 1.0, curve max at PLR = 0.99 is 1.015\n   **   ~~~   ** ...Setting curve maximum to 1.0 and simulation continues.\n   ** Warning ** GetDXCoils: Coil:Cooling:DX:SingleSpeed=\"COIL COOLING DX SINGLE SPEED 15 97KBTU/HR 9.7EER\", invalid\n   **   ~~~   ** ...Part Load Fraction Correlation Curve Name = DXCOOL-NECB2011-REF-COOLPLFFPLR 6 has out of range value.\n   **   ~~~   ** ...Curve maximum must be <= 1.0, curve max at PLR = 0.99 is 1.015\n   **   ~~~   ** ...Setting curve maximum to 1.0 and simulation continues.\n   ** Warning ** GetDXCoils: Coil:Cooling:DX:SingleSpeed=\"COIL COOLING DX SINGLE SPEED 16 54KBTU/HR 14.0SEER\", invalid\n   **   ~~~   ** ...Part Load Fraction Correlation Curve Name = DXCOOL-NECB2011-REF-COOLPLFFPLR 7 has out of range value.\n   **   ~~~   ** ...Curve maximum must be <= 1.0, curve max at PLR = 0.99 is 1.015\n   **   ~~~   ** ...Setting curve maximum to 1.0 and simulation continues.\n   ** Warning ** GetDXCoils: Coil:Cooling:DX:SingleSpeed=\"COIL COOLING DX SINGLE SPEED 12 16KBTU/HR 14.0SEER\", invalid\n   **   ~~~   ** ...Part Load Fraction Correlation Curve Name = DXCOOL-NECB2011-REF-COOLPLFFPLR 3 has out of range value.\n   **   ~~~   ** ...Curve maximum must be <= 1.0, curve max at PLR = 0.99 is 1.015\n   **   ~~~   ** ...Setting curve maximum to 1.0 and simulation continues.\n   ** Warning ** GetDXCoils: Coil:Cooling:DX:SingleSpeed=\"COIL COOLING DX SINGLE SPEED 17 6KBTU/HR 14.0SEER\", invalid\n   **   ~~~   ** ...Part Load Fraction Correlation Curve Name = DXCOOL-NECB2011-REF-COOLPLFFPLR 8 has out of range value.\n   **   ~~~   ** ...Curve maximum must be <= 1.0, curve max at PLR = 0.99 is 1.015\n   **   ~~~   ** ...Setting curve maximum to 1.0 and simulation continues.\n   ************* Beginning Plant Sizing Calculations\n   ** Warning ** The Standard Ratings is calculated for Coil:Cooling:DX:SingleSpeed = COIL COOLING DX SINGLE SPEED 8 47KBTU/HR 9.3EER but not at the AHRI test condition due to curve out of bound.\n   **   ~~~   **  Review the Standard Ratings calculations in the Engineering Reference for this coil type. Also, use Output:Diagnostics, DisplayExtraWarnings for further guidance.\n   ** Warning ** The Standard Ratings is calculated for Coil:Cooling:DX:SingleSpeed = COIL COOLING DX SINGLE SPEED 5 16KBTU/HR 9.3EER but not at the AHRI test condition due to curve out of bound.\n   **   ~~~   **  Review the Standard Ratings calculations in the Engineering Reference for this coil type. Also, use Output:Diagnostics, DisplayExtraWarnings for further guidance.\n   ** Warning ** The Standard Ratings is calculated for Coil:Cooling:DX:SingleSpeed = COIL COOLING DX SINGLE SPEED 9 18KBTU/HR 9.3EER but not at the AHRI test condition due to curve out of bound.\n   **   ~~~   **  Review the Standard Ratings calculations in the Engineering Reference for this coil type. Also, use Output:Diagnostics, DisplayExtraWarnings for further guidance.\n   ** Warning ** The Standard Ratings is calculated for Coil:Cooling:DX:SingleSpeed = COIL COOLING DX SINGLE SPEED 6 15KBTU/HR 9.3EER but not at the AHRI test condition due to curve out of bound.\n   **   ~~~   **  Review the Standard Ratings calculations in the Engineering Reference for this coil type. Also, use Output:Diagnostics, DisplayExtraWarnings for further guidance.\n   ** Warning ** The Standard Ratings is calculated for Coil:Cooling:DX:SingleSpeed = COIL COOLING DX SINGLE SPEED 10 18KBTU/HR 9.3EER but not at the AHRI test condition due to curve out of bound.\n   **   ~~~   **  Review the Standard Ratings calculations in the Engineering Reference for this coil type. Also, use Output:Diagnostics, DisplayExtraWarnings for further guidance.\n   ** Warning ** The Standard Ratings is calculated for Coil:Cooling:DX:SingleSpeed = COIL COOLING DX SINGLE SPEED 7 4KBTU/HR 11.0EER but not at the AHRI test condition due to curve out of bound.\n   **   ~~~   **  Review the Standard Ratings calculations in the Engineering Reference for this coil type. Also, use Output:Diagnostics, DisplayExtraWarnings for further guidance.\n   ** Warning ** The Standard Ratings is calculated for Coil:Cooling:DX:SingleSpeed = COIL COOLING DX SINGLE SPEED 11 8KBTU/HR 10.9EER but not at the AHRI test condition due to curve out of bound.\n   **   ~~~   **  Review the Standard Ratings calculations in the Engineering Reference for this coil type. Also, use Output:Diagnostics, DisplayExtraWarnings for further guidance.\n   ** Warning ** The Standard Ratings is calculated for Coil:Cooling:DX:SingleSpeed = COIL COOLING DX SINGLE SPEED 2 3KBTU/HR 11.0EER but not at the AHRI test condition due to curve out of bound.\n   **   ~~~   **  Review the Standard Ratings calculations in the Engineering Reference for this coil type. Also, use Output:Diagnostics, DisplayExtraWarnings for further guidance.\n   ** Warning ** The Standard Ratings is calculated for Coil:Cooling:DX:SingleSpeed = COIL COOLING DX SINGLE SPEED 4 15KBTU/HR 9.3EER but not at the AHRI test condition due to curve out of bound.\n   **   ~~~   **  Review the Standard Ratings calculations in the Engineering Reference for this coil type. Also, use Output:Diagnostics, DisplayExtraWarnings for further guidance.\n   ** Warning ** The Standard Ratings is calculated for Coil:Cooling:DX:SingleSpeed = COIL COOLING DX SINGLE SPEED 3 15KBTU/HR 9.4EER but not at the AHRI test condition due to curve out of bound.\n   **   ~~~   **  Review the Standard Ratings calculations in the Engineering Reference for this coil type. Also, use Output:Diagnostics, DisplayExtraWarnings for further guidance.\n   ** Warning ** The Standard Ratings is calculated for Coil:Cooling:DX:SingleSpeed = COIL COOLING DX SINGLE SPEED 1 244KBTU/HR 9.7EER but not at the AHRI test condition due to curve out of bound.\n   **   ~~~   **  Review the Standard Ratings calculations in the Engineering Reference for this coil type. Also, use Output:Diagnostics, DisplayExtraWarnings for further guidance.\n   ** Warning ** The Standard Ratings is calculated for Coil:Cooling:DX:SingleSpeed = COIL COOLING DX SINGLE SPEED 14 97KBTU/HR 9.7EER but not at the AHRI test condition due to curve out of bound.\n   **   ~~~   **  Review the Standard Ratings calculations in the Engineering Reference for this coil type. Also, use Output:Diagnostics, DisplayExtraWarnings for further guidance.\n   ** Warning ** The Standard Ratings is calculated for Coil:Cooling:DX:SingleSpeed = COIL COOLING DX SINGLE SPEED 18 83KBTU/HR 9.7EER but not at the AHRI test condition due to curve out of bound.\n   **   ~~~   **  Review the Standard Ratings calculations in the Engineering Reference for this coil type. Also, use Output:Diagnostics, DisplayExtraWarnings for further guidance.\n   ** Warning ** The Standard Ratings is calculated for Coil:Cooling:DX:SingleSpeed = COIL COOLING DX SINGLE SPEED 13 59KBTU/HR 14.0SEER but not at the AHRI test condition due to curve out of bound.\n   **   ~~~   **  Review the Standard Ratings calculations in the Engineering Reference for this coil type. Also, use Output:Diagnostics, DisplayExtraWarnings for further guidance.\n   ** Warning ** The Standard Ratings is calculated for Coil:Cooling:DX:SingleSpeed = COIL COOLING DX SINGLE SPEED 15 97KBTU/HR 9.7EER but not at the AHRI test condition due to curve out of bound.\n   **   ~~~   **  Review the Standard Ratings calculations in the Engineering Reference for this coil type. Also, use Output:Diagnostics, DisplayExtraWarnings for further guidance.\n   ** Warning ** The Standard Ratings is calculated for Coil:Cooling:DX:SingleSpeed = COIL COOLING DX SINGLE SPEED 16 54KBTU/HR 14.0SEER but not at the AHRI test condition due to curve out of bound.\n   **   ~~~   **  Review the Standard Ratings calculations in the Engineering Reference for this coil type. Also, use Output:Diagnostics, DisplayExtraWarnings for further guidance.\n   ** Warning ** The Standard Ratings is calculated for Coil:Cooling:DX:SingleSpeed = COIL COOLING DX SINGLE SPEED 12 16KBTU/HR 14.0SEER but not at the AHRI test condition due to curve out of bound.\n   **   ~~~   **  Review the Standard Ratings calculations in the Engineering Reference for this coil type. Also, use Output:Diagnostics, DisplayExtraWarnings for further guidance.\n   ** Warning ** The Standard Ratings is calculated for Coil:Cooling:DX:SingleSpeed = COIL COOLING DX SINGLE SPEED 17 6KBTU/HR 14.0SEER but not at the AHRI test condition due to curve out of bound.\n   **   ~~~   **  Review the Standard Ratings calculations in the Engineering Reference for this coil type. Also, use Output:Diagnostics, DisplayExtraWarnings for further guidance.\n   ** Warning ** Missing temperature setpoint for LeavingSetpointModulated mode chiller named PRIMARY CHILLER WATERCOOLED SCROLL 31TONS 0.8KW/TON\n   **   ~~~   **   A temperature setpoint is needed at the outlet node of a chiller in variable flow mode, use a SetpointManager\n   **   ~~~   **   The overall loop setpoint will be assumed for chiller. The simulation continues ... \n   ** Warning ** Missing temperature setpoint for LeavingSetpointModulated mode chiller named SECONDARY CHILLER WATERCOOLED SCROLL 0TONS 0.8KW/TON\n   **   ~~~   **   A temperature setpoint is needed at the outlet node of a chiller in variable flow mode, use a SetpointManager\n   **   ~~~   **   The overall loop setpoint will be assumed for chiller. The simulation continues ... \n   ** Warning ** Water heater = 600.0GAL ELECTRICITY WATER HEATER - 600KBTU/HR 1.0 THERM EFF:  Recovery Efficiency and Energy Factor could not be calculated during the test for standard ratings\n   **   ~~~   ** Setpoint was never recovered and/or heater never turned on\n   ** Warning ** Output:Meter: invalid Name=\"GAS:FACILITY\" - not found.\n   ** Warning ** Output:Meter: invalid Name=\"DISTRICTCOOLING:FACILITY\" - not found.\n   ** Warning ** Output:Meter: invalid Name=\"DISTRICTHEATING:FACILITY\" - not found.\n   ** Warning ** Output:Meter:MeterFileOnly: invalid Name=\"GAS:FACILITY\" - not found.\n   ** Warning ** Output:Meter:MeterFileOnly requested for \"Electricity:Facility\" (TimeStep), already on \"Output:Meter\". Will report to both eplusout.eso and eplusout.mtr\n   ************* Testing Individual Branch Integrity\n   ************* All Branches passed integrity testing\n   ************* Testing Individual Supply Air Path Integrity\n   ************* All Supply Air Paths passed integrity testing\n   ************* Testing Individual Return Air Path Integrity\n   ************* All Return Air Paths passed integrity testing\n   ************* No node connection errors were found.\n   ************* Beginning Simulation\n   ** Warning ** CalcDoe2DXCoil: Coil:Cooling:DX:SingleSpeed \"COIL COOLING DX SINGLE SPEED 16 54KBTU/HR 14.0SEER\" - Air-cooled condenser inlet dry-bulb temperature below 0 C. Outdoor dry-bulb temperature = -12.68\n   **   ~~~   **  ... Occurrence info = RUN PERIOD 1, 01/01 01:01 - 01:03\n   **   ~~~   ** ... Operation at low ambient temperatures may require special performance curves.\n   ** Warning ** SimHVAC: Maximum iterations (20) exceeded for all HVAC loops, at RUN PERIOD 1, 01/01 09:36 - 09:39\n   **   ~~~   ** The solution for one or more of the Air Loop HVAC systems did not appear to converge\n   **   ~~~   ** ...use Output:Diagnostics,DisplayExtraWarnings; to show more details on each max iteration exceeded.\n   ** Warning ** CalcDoe2DXCoil: Coil:Cooling:DX:SingleSpeed \"COIL COOLING DX SINGLE SPEED 11 8KBTU/HR 10.9EER\" - Air-cooled condenser inlet dry-bulb temperature below 0 C. Outdoor dry-bulb temperature = -20.68\n   **   ~~~   **  ... Occurrence info = RUN PERIOD 1, 01/01 09:36 - 09:39\n   **   ~~~   ** ... Operation at low ambient temperatures may require special performance curves.\n   ** Warning ** SimHVAC: Maximum iterations (20) exceeded for all HVAC loops, at RUN PERIOD 1, 01/01 09:42 - 09:45\n   **   ~~~   ** The solution for one or more of the Air Loop HVAC systems did not appear to converge\n   ** Warning ** SimHVAC: Maximum iterations (20) exceeded for all HVAC loops, at RUN PERIOD 1, 01/01 09:49 - 09:52\n   **   ~~~   ** The solution for one or more of the Air Loop HVAC systems did not appear to converge\n   ** Warning ** CalcDoe2DXCoil: Coil:Cooling:DX:SingleSpeed \"COIL COOLING DX SINGLE SPEED 7 4KBTU/HR 11.0EER\" - Air-cooled condenser inlet dry-bulb temperature below 0 C. Outdoor dry-bulb temperature = -20.70\n   **   ~~~   **  ... Occurrence info = RUN PERIOD 1, 01/01 09:49 - 09:52\n   **   ~~~   ** ... Operation at low ambient temperatures may require special performance curves.\n   ** Warning ** SimHVAC: Maximum iterations (20) exceeded for all HVAC loops, at RUN PERIOD 1, 01/01 09:53 - 09:56\n   **   ~~~   ** The solution for one or more of the Air Loop HVAC systems did not appear to converge\n   ** Warning ** SimHVAC: Maximum iterations (20) exceeded for all HVAC loops, at RUN PERIOD 1, 01/01 10:04 - 10:06\n   **   ~~~   ** The solution for one or more of the Air Loop HVAC systems did not appear to converge\n   ** Warning ** SimHVAC: Maximum iterations (20) exceeded for all HVAC loops, at RUN PERIOD 1, 01/01 10:06 - 10:09\n   **   ~~~   ** The solution for one or more of the Air Loop HVAC systems did not appear to converge\n   ** Warning ** SimHVAC: Maximum iterations (20) exceeded for all HVAC loops, at RUN PERIOD 1, 01/01 10:13 - 10:15\n   **   ~~~   ** The solution for one or more of the Air Loop HVAC systems did not appear to converge\n   ** Warning ** SimHVAC: Maximum iterations (20) exceeded for all HVAC loops, at RUN PERIOD 1, 01/01 10:15 - 10:30\n   **   ~~~   ** The solution for one or more of the Air Loop HVAC systems did not appear to converge\n   ** Warning ** SimHVAC: Maximum iterations (20) exceeded for all HVAC loops, at RUN PERIOD 1, 01/01 10:15 - 10:22\n   **   ~~~   ** The solution for one or more of the Air Loop HVAC systems did not appear to converge\n   ** Warning ** SimHVAC: Maximum iterations (20) exceeded for all HVAC loops, at RUN PERIOD 1, 01/01 10:23 - 10:30\n   **   ~~~   ** The solution for one or more of the Air Loop HVAC systems did not appear to converge\n   ** Warning ** SimHVAC: Maximum iterations (20) exceeded for all HVAC loops, at RUN PERIOD 1, 01/01 10:30 - 10:45\n   **   ~~~   ** The solution for one or more of the Air Loop HVAC systems did not appear to converge\n   ** Warning ** SimHVAC: Maximum iterations (20) exceeded for all HVAC loops, at RUN PERIOD 1, 01/01 10:30 - 10:38\n   **   ~~~   ** The solution for one or more of the Air Loop HVAC systems did not appear to converge\n   ** Warning ** SimHVAC: Maximum iterations (20) exceeded for all HVAC loops, at RUN PERIOD 1, 01/01 10:38 - 10:45\n   **   ~~~   ** The solution for one or more of the Air Loop HVAC systems did not appear to converge\n   ** Warning ** CalcDoe2DXCoil: Coil:Cooling:DX:SingleSpeed \"COIL COOLING DX SINGLE SPEED 4 15KBTU/HR 9.3EER\" - Air-cooled condenser inlet dry-bulb temperature below 0 C. Outdoor dry-bulb temperature = -20.48\n   **   ~~~   **  ... Occurrence info = RUN PERIOD 1, 01/01 10:38 - 10:45\n   **   ~~~   ** ... Operation at low ambient temperatures may require special performance curves.\n   ** Warning ** SimHVAC: Maximum iterations (20) exceeded for all HVAC loops, at RUN PERIOD 1, 01/01 10:45 - 11:00\n   **   ~~~   ** The solution for one or more of the Air Loop HVAC systems did not appear to converge\n   ** Warning ** CalcDoe2DXCoil: Coil:Cooling:DX:SingleSpeed \"COIL COOLING DX SINGLE SPEED 5 16KBTU/HR 9.3EER\" - Air-cooled condenser inlet dry-bulb temperature below 0 C. Outdoor dry-bulb temperature = -18.50\n   **   ~~~   **  ... Occurrence info = RUN PERIOD 1, 01/01 11:45 - 11:52\n   **   ~~~   ** ... Operation at low ambient temperatures may require special performance curves.\n   ** Warning ** CalcDoe2DXCoil: Coil:Cooling:DX:SingleSpeed \"COIL COOLING DX SINGLE SPEED 9 18KBTU/HR 9.3EER\" - Air-cooled condenser inlet dry-bulb temperature below 0 C. Outdoor dry-bulb temperature = -18.25\n   **   ~~~   **  ... Occurrence info = RUN PERIOD 1, 01/01 12:15 - 12:30\n   **   ~~~   ** ... Operation at low ambient temperatures may require special performance curves.\n   ** Warning ** CalcDoe2DXCoil: Coil:Cooling:DX:SingleSpeed \"COIL COOLING DX SINGLE SPEED 13 59KBTU/HR 14.0SEER\" - Air-cooled condenser inlet dry-bulb temperature below 0 C. Outdoor dry-bulb temperature = -15.53\n   **   ~~~   **  ... Occurrence info = RUN PERIOD 1, 01/02 07:02 - 07:04\n   **   ~~~   ** ... Operation at low ambient temperatures may require special performance curves.\n   ** Warning ** CalcDoe2DXCoil: Coil:Cooling:DX:SingleSpeed \"COIL COOLING DX SINGLE SPEED 7 4KBTU/HR 11.0EER\" - Full load outlet air dry-bulb temperature < 2C. This indicates the possibility of coil frost/freeze. Outlet temperature = 1.84 C.\n   **   ~~~   **  ...Occurrence info = RUN PERIOD 1, 01/06 09:38 - 09:45\n   **   ~~~   ** ... Possible reasons for low outlet air dry-bulb temperatures are: This DX coil\n   **   ~~~   **    1) may have a low inlet air dry-bulb temperature. Inlet air temperature = 14.685 C.\n   **   ~~~   **    2) may have a low air flow rate per watt of cooling capacity. Check inputs.\n   **   ~~~   **    3) is used as part of a HX assisted cooling coil which uses a high sensible effectiveness. Check inputs.\n   ** Warning ** CalcDoe2DXCoil: Coil:Cooling:DX:SingleSpeed \"COIL COOLING DX SINGLE SPEED 17 6KBTU/HR 14.0SEER\" - Full load outlet air dry-bulb temperature < 2C. This indicates the possibility of coil frost/freeze. Outlet temperature = 1.56 C.\n   **   ~~~   **  ...Occurrence info = RUN PERIOD 1, 01/09 08:06 - 08:09\n   **   ~~~   ** ... Possible reasons for low outlet air dry-bulb temperatures are: This DX coil\n   **   ~~~   **    1) may have a low inlet air dry-bulb temperature. Inlet air temperature = 15.356 C.\n   **   ~~~   **    2) may have a low air flow rate per watt of cooling capacity. Check inputs.\n   **   ~~~   **    3) is used as part of a HX assisted cooling coil which uses a high sensible effectiveness. Check inputs.\n   ** Warning ** CalcDoe2DXCoil: Coil:Cooling:DX:SingleSpeed \"COIL COOLING DX SINGLE SPEED 17 6KBTU/HR 14.0SEER\" - Air-cooled condenser inlet dry-bulb temperature below 0 C. Outdoor dry-bulb temperature = -3.50\n   **   ~~~   **  ... Occurrence info = RUN PERIOD 1, 01/09 19:15 - 19:18\n   **   ~~~   ** ... Operation at low ambient temperatures may require special performance curves.\n   ** Warning ** CalcDoe2DXCoil: Coil:Cooling:DX:SingleSpeed \"COIL COOLING DX SINGLE SPEED 6 15KBTU/HR 9.3EER\" - Air-cooled condenser inlet dry-bulb temperature below 0 C. Outdoor dry-bulb temperature = -15.90\n   **   ~~~   **  ... Occurrence info = RUN PERIOD 1, 01/13 15:00 - 15:08\n   **   ~~~   ** ... Operation at low ambient temperatures may require special performance curves.\n   ** Warning ** CalcDoe2DXCoil: Coil:Cooling:DX:SingleSpeed \"COIL COOLING DX SINGLE SPEED 10 18KBTU/HR 9.3EER\" - Air-cooled condenser inlet dry-bulb temperature below 0 C. Outdoor dry-bulb temperature = -16.00\n   **   ~~~   **  ... Occurrence info = RUN PERIOD 1, 01/13 15:15 - 15:30\n   **   ~~~   ** ... Operation at low ambient temperatures may require special performance curves.\n   ** Warning ** CalcDoe2DXCoil: Coil:Cooling:DX:SingleSpeed \"COIL COOLING DX SINGLE SPEED 3 15KBTU/HR 9.4EER\" - Air-cooled condenser inlet dry-bulb temperature below 0 C. Outdoor dry-bulb temperature = -12.50\n   **   ~~~   **  ... Occurrence info = RUN PERIOD 1, 02/09 09:26 - 09:30\n   **   ~~~   ** ... Operation at low ambient temperatures may require special performance curves.\n   ** Warning ** CalcDoe2DXCoil: Coil:Cooling:DX:SingleSpeed \"COIL COOLING DX SINGLE SPEED 8 47KBTU/HR 9.3EER\" - Air-cooled condenser inlet dry-bulb temperature below 0 C. Outdoor dry-bulb temperature = -9.55\n   **   ~~~   **  ... Occurrence info = RUN PERIOD 1, 02/09 15:00 - 15:15\n   **   ~~~   ** ... Operation at low ambient temperatures may require special performance curves.\n   ** Warning ** CalcDoe2DXCoil: Coil:Cooling:DX:SingleSpeed \"COIL COOLING DX SINGLE SPEED 16 54KBTU/HR 14.0SEER\" - Full load outlet air dry-bulb temperature < 2C. This indicates the possibility of coil frost/freeze. Outlet temperature = 1.63 C.\n   **   ~~~   **  ...Occurrence info = RUN PERIOD 1, 02/27 00:02 - 00:03\n   **   ~~~   ** ... Possible reasons for low outlet air dry-bulb temperatures are: This DX coil\n   **   ~~~   **    1) may have a low inlet air dry-bulb temperature. Inlet air temperature = 14.471 C.\n   **   ~~~   **    2) may have a low air flow rate per watt of cooling capacity. Check inputs.\n   **   ~~~   **    3) is used as part of a HX assisted cooling coil which uses a high sensible effectiveness. Check inputs.\n   ** Warning ** CalcDoe2DXCoil: Coil:Cooling:DX:SingleSpeed \"COIL COOLING DX SINGLE SPEED 2 3KBTU/HR 11.0EER\" - Air-cooled condenser inlet dry-bulb temperature below 0 C. Outdoor dry-bulb temperature = -2.50\n   **   ~~~   **  ... Occurrence info = RUN PERIOD 1, 03/07 22:15 - 22:30\n   **   ~~~   ** ... Operation at low ambient temperatures may require special performance curves.\n   ** Warning ** CalcDoe2DXCoil: Coil:Cooling:DX:SingleSpeed \"COIL COOLING DX SINGLE SPEED 2 3KBTU/HR 11.0EER\" - Full load outlet air dry-bulb temperature < 2C. This indicates the possibility of coil frost/freeze. Outlet temperature = 0.46 C.\n   **   ~~~   **  ...Occurrence info = RUN PERIOD 1, 03/07 22:15 - 22:30\n   **   ~~~   ** ... Possible reasons for low outlet air dry-bulb temperatures are: This DX coil\n   **   ~~~   **    1) may have a low inlet air dry-bulb temperature. Inlet air temperature = 14.907 C.\n   **   ~~~   **    2) may have a low air flow rate per watt of cooling capacity. Check inputs.\n   **   ~~~   **    3) is used as part of a HX assisted cooling coil which uses a high sensible effectiveness. Check inputs.\n   ** Warning ** CalcDoe2DXCoil: Coil:Cooling:DX:SingleSpeed \"COIL COOLING DX SINGLE SPEED 12 16KBTU/HR 14.0SEER\" - Full load outlet air dry-bulb temperature < 2C. This indicates the possibility of coil frost/freeze. Outlet temperature = -2.64 C.\n   **   ~~~   **  ...Occurrence info = RUN PERIOD 1, 05/09 07:03 - 07:05\n   **   ~~~   ** ... Possible reasons for low outlet air dry-bulb temperatures are: This DX coil\n   **   ~~~   **    1) may have a low inlet air dry-bulb temperature. Inlet air temperature = 12.250 C.\n   **   ~~~   **    2) may have a low air flow rate per watt of cooling capacity. Check inputs.\n   **   ~~~   **    3) is used as part of a HX assisted cooling coil which uses a high sensible effectiveness. Check inputs.\n   ** Warning ** CalcDoe2DXCoil: Coil:Cooling:DX:SingleSpeed \"COIL COOLING DX SINGLE SPEED 18 83KBTU/HR 9.7EER\" - Full load outlet air dry-bulb temperature < 2C. This indicates the possibility of coil frost/freeze. Outlet temperature = -1.00 C.\n   **   ~~~   **  ...Occurrence info = RUN PERIOD 1, 05/13 13:12 - 13:15\n   **   ~~~   ** ... Possible reasons for low outlet air dry-bulb temperatures are: This DX coil\n   **   ~~~   **    1) may have a low inlet air dry-bulb temperature. Inlet air temperature = 15.425 C.\n   **   ~~~   **    2) may have a low air flow rate per watt of cooling capacity. Check inputs.\n   **   ~~~   **    3) is used as part of a HX assisted cooling coil which uses a high sensible effectiveness. Check inputs.\n   ** Warning ** CalcDoe2DXCoil: Coil:Cooling:DX:SingleSpeed \"COIL COOLING DX SINGLE SPEED 15 97KBTU/HR 9.7EER\" - Full load outlet air dry-bulb temperature < 2C. This indicates the possibility of coil frost/freeze. Outlet temperature = -1.15 C.\n   **   ~~~   **  ...Occurrence info = RUN PERIOD 1, 05/14 10:10 - 10:11\n   **   ~~~   ** ... Possible reasons for low outlet air dry-bulb temperatures are: This DX coil\n   **   ~~~   **    1) may have a low inlet air dry-bulb temperature. Inlet air temperature = 15.275 C.\n   **   ~~~   **    2) may have a low air flow rate per watt of cooling capacity. Check inputs.\n   **   ~~~   **    3) is used as part of a HX assisted cooling coil which uses a high sensible effectiveness. Check inputs.\n   ** Warning ** CalcDoe2DXCoil: Coil:Cooling:DX:SingleSpeed \"COIL COOLING DX SINGLE SPEED 1 244KBTU/HR 9.7EER\" - Full load outlet air dry-bulb temperature < 2C. This indicates the possibility of coil frost/freeze. Outlet temperature = 1.78 C.\n   **   ~~~   **  ...Occurrence info = RUN PERIOD 1, 05/14 13:15 - 13:22\n   **   ~~~   ** ... Possible reasons for low outlet air dry-bulb temperatures are: This DX coil\n   **   ~~~   **    1) may have a low inlet air dry-bulb temperature. Inlet air temperature = 18.900 C.\n   **   ~~~   **    2) may have a low air flow rate per watt of cooling capacity. Check inputs.\n   **   ~~~   **    3) is used as part of a HX assisted cooling coil which uses a high sensible effectiveness. Check inputs.\n   ** Warning ** CalcDoe2DXCoil: Coil:Cooling:DX:SingleSpeed \"COIL COOLING DX SINGLE SPEED 14 97KBTU/HR 9.7EER\" - Full load outlet air dry-bulb temperature < 2C. This indicates the possibility of coil frost/freeze. Outlet temperature = 1.69 C.\n   **   ~~~   **  ...Occurrence info = RUN PERIOD 1, 05/14 14:15 - 14:30\n   **   ~~~   ** ... Possible reasons for low outlet air dry-bulb temperatures are: This DX coil\n   **   ~~~   **    1) may have a low inlet air dry-bulb temperature. Inlet air temperature = 19.450 C.\n   **   ~~~   **    2) may have a low air flow rate per watt of cooling capacity. Check inputs.\n   **   ~~~   **    3) is used as part of a HX assisted cooling coil which uses a high sensible effectiveness. Check inputs.\n   ************* Simulation Error Summary *************\n   ************* There are 9 unused schedules in input.\n   ************* There are 9 unused week schedules in input.\n   ************* There are 35 unused day schedules in input.\n   ************* Use Output:Diagnostics,DisplayUnusedSchedules; to see them.\n   *************\n   ************* ===== Recurring Error Summary =====\n   ************* The following recurring error messages occurred.\n   *************\n   *************  ** Warning ** Plant loop falling below lower temperature limit, PlantLoop=\"MAIN SERVICE WATER LOOP\"\n   *************  **   ~~~   **   This error occurred 2 total times;\n   *************  **   ~~~   **   during Warmup 2 times;\n   *************  **   ~~~   **   during Sizing 0 times.\n   *************  **   ~~~   **   Min=3.354237\n   *************\n   *************  ** Warning ** CalcDoe2DXCoil: Coil:Cooling:DX:SingleSpeed=\"COIL COOLING DX SINGLE SPEED 16 54KBTU/HR 14.0SEER\" - Low condenser dry-bulb temperature error continues...\n   *************  **   ~~~   **   This error occurred 971 total times;\n   *************  **   ~~~   **   during Warmup 0 times;\n   *************  **   ~~~   **   during Sizing 0 times.\n   *************  **   ~~~   **   Max=-0.15 [C]  Min=-25.45 [C]\n   *************\n   *************  ** Warning ** CalcDoe2DXCoil: Coil:Cooling:DX:SingleSpeed=\"COIL COOLING DX SINGLE SPEED 11 8KBTU/HR 10.9EER\" - Low condenser dry-bulb temperature error continues...\n   *************  **   ~~~   **   This error occurred 3676 total times;\n   *************  **   ~~~   **   during Warmup 0 times;\n   *************  **   ~~~   **   during Sizing 0 times.\n   *************  **   ~~~   **   Max=-0.15 [C]  Min=-24.25 [C]\n   *************\n   *************  ** Warning ** CalcDoe2DXCoil: Coil:Cooling:DX:SingleSpeed=\"COIL COOLING DX SINGLE SPEED 7 4KBTU/HR 11.0EER\" - Low condenser dry-bulb temperature error continues...\n   *************  **   ~~~   **   This error occurred 7077 total times;\n   *************  **   ~~~   **   during Warmup 0 times;\n   *************  **   ~~~   **   during Sizing 0 times.\n   *************  **   ~~~   **   Max=-2.500000E-002 [C]  Min=-24.25 [C]\n   *************\n   *************  ** Warning ** CalcDoe2DXCoil: Coil:Cooling:DX:SingleSpeed=\"COIL COOLING DX SINGLE SPEED 4 15KBTU/HR 9.3EER\" - Low condenser dry-bulb temperature error continues...\n   *************  **   ~~~   **   This error occurred 2999 total times;\n   *************  **   ~~~   **   during Warmup 0 times;\n   *************  **   ~~~   **   during Sizing 0 times.\n   *************  **   ~~~   **   Max=-0.15 [C]  Min=-24.45 [C]\n   *************\n   *************  ** Warning ** SimHVAC: Exceeding Maximum iterations for all HVAC loops, during RUN PERIOD 1 continues\n   *************  **   ~~~   **   This error occurred 461 total times;\n   *************  **   ~~~   **   during Warmup 0 times;\n   *************  **   ~~~   **   during Sizing 0 times.\n   *************\n   *************  ** Warning ** CalcDoe2DXCoil: Coil:Cooling:DX:SingleSpeed=\"COIL COOLING DX SINGLE SPEED 5 16KBTU/HR 9.3EER\" - Low condenser dry-bulb temperature error continues...\n   *************  **   ~~~   **   This error occurred 2328 total times;\n   *************  **   ~~~   **   during Warmup 0 times;\n   *************  **   ~~~   **   during Sizing 0 times.\n   *************  **   ~~~   **   Max=-0.15 [C]  Min=-20.35 [C]\n   *************\n   *************  ** Warning ** CalcDoe2DXCoil: Coil:Cooling:DX:SingleSpeed=\"COIL COOLING DX SINGLE SPEED 9 18KBTU/HR 9.3EER\" - Low condenser dry-bulb temperature error continues...\n   *************  **   ~~~   **   This error occurred 1742 total times;\n   *************  **   ~~~   **   during Warmup 0 times;\n   *************  **   ~~~   **   during Sizing 0 times.\n   *************  **   ~~~   **   Max=-0.15 [C]  Min=-20.35 [C]\n   *************\n   *************  ** Warning ** CalcDoe2DXCoil: Coil:Cooling:DX:SingleSpeed=\"COIL COOLING DX SINGLE SPEED 13 59KBTU/HR 14.0SEER\" - Low condenser dry-bulb temperature error continues...\n   *************  **   ~~~   **   This error occurred 390 total times;\n   *************  **   ~~~   **   during Warmup 0 times;\n   *************  **   ~~~   **   during Sizing 0 times.\n   *************  **   ~~~   **   Max=-0.15 [C]  Min=-25.975 [C]\n   *************\n   *************  ** Warning ** CalcDoe2DXCoil: Coil:Cooling:DX:SingleSpeed=\"COIL COOLING DX SINGLE SPEED 7 4KBTU/HR 11.0EER\" - Full load outlet temperature indicates a possibility of frost/freeze error continues. Outlet air temperature statistics follow:\n   *************  **   ~~~   **   This error occurred 52 total times;\n   *************  **   ~~~   **   during Warmup 0 times;\n   *************  **   ~~~   **   during Sizing 0 times.\n   *************  **   ~~~   **   Max=1.996327  Min=1.236309\n   *************\n   *************  ** Warning ** CalcDoe2DXCoil: Coil:Cooling:DX:SingleSpeed=\"COIL COOLING DX SINGLE SPEED 17 6KBTU/HR 14.0SEER\" - Full load outlet temperature indicates a possibility of frost/freeze error continues. Outlet air temperature statistics follow:\n   *************  **   ~~~   **   This error occurred 230 total times;\n   *************  **   ~~~   **   during Warmup 0 times;\n   *************  **   ~~~   **   during Sizing 0 times.\n   *************  **   ~~~   **   Max=1.9822  Min=-3.279244\n   *************\n   *************  ** Warning ** CalcDoe2DXCoil: Coil:Cooling:DX:SingleSpeed=\"COIL COOLING DX SINGLE SPEED 17 6KBTU/HR 14.0SEER\" - Low condenser dry-bulb temperature error continues...\n   *************  **   ~~~   **   This error occurred 87 total times;\n   *************  **   ~~~   **   during Warmup 0 times;\n   *************  **   ~~~   **   during Sizing 0 times.\n   *************  **   ~~~   **   Max=-0.3 [C]  Min=-6. [C]\n   *************\n   *************  ** Warning ** CalcDoe2DXCoil: Coil:Cooling:DX:SingleSpeed=\"COIL COOLING DX SINGLE SPEED 6 15KBTU/HR 9.3EER\" - Low condenser dry-bulb temperature error continues...\n   *************  **   ~~~   **   This error occurred 815 total times;\n   *************  **   ~~~   **   during Warmup 0 times;\n   *************  **   ~~~   **   during Sizing 0 times.\n   *************  **   ~~~   **   Max=-0.15 [C]  Min=-17.8 [C]\n   *************\n   *************  ** Warning ** CalcDoe2DXCoil: Coil:Cooling:DX:SingleSpeed=\"COIL COOLING DX SINGLE SPEED 10 18KBTU/HR 9.3EER\" - Low condenser dry-bulb temperature error continues...\n   *************  **   ~~~   **   This error occurred 718 total times;\n   *************  **   ~~~   **   during Warmup 0 times;\n   *************  **   ~~~   **   during Sizing 0 times.\n   *************  **   ~~~   **   Max=-0.15 [C]  Min=-17.8 [C]\n   *************\n   *************  ** Warning ** CalcDoe2DXCoil: Coil:Cooling:DX:SingleSpeed=\"COIL COOLING DX SINGLE SPEED 3 15KBTU/HR 9.4EER\" - Low condenser dry-bulb temperature error continues...\n   *************  **   ~~~   **   This error occurred 1336 total times;\n   *************  **   ~~~   **   during Warmup 0 times;\n   *************  **   ~~~   **   during Sizing 0 times.\n   *************  **   ~~~   **   Max=-0.15 [C]  Min=-20. [C]\n   *************\n   *************  ** Warning ** CalcDoe2DXCoil: Coil:Cooling:DX:SingleSpeed=\"COIL COOLING DX SINGLE SPEED 8 47KBTU/HR 9.3EER\" - Low condenser dry-bulb temperature error continues...\n   *************  **   ~~~   **   This error occurred 93 total times;\n   *************  **   ~~~   **   during Warmup 0 times;\n   *************  **   ~~~   **   during Sizing 0 times.\n   *************  **   ~~~   **   Max=-0.15 [C]  Min=-9.7 [C]\n   *************\n   *************  ** Warning ** CalcDoe2DXCoil: Coil:Cooling:DX:SingleSpeed=\"COIL COOLING DX SINGLE SPEED 16 54KBTU/HR 14.0SEER\" - Full load outlet temperature indicates a possibility of frost/freeze error continues. Outlet air temperature statistics follow:\n   *************  **   ~~~   **   This error occurred 1 total times;\n   *************  **   ~~~   **   during Warmup 0 times;\n   *************  **   ~~~   **   during Sizing 0 times.\n   *************  **   ~~~   **   Max=1.632353  Min=1.632353\n   *************\n   *************  ** Warning ** CalcDoe2DXCoil: Coil:Cooling:DX:SingleSpeed=\"COIL COOLING DX SINGLE SPEED 2 3KBTU/HR 11.0EER\" - Low condenser dry-bulb temperature error continues...\n   *************  **   ~~~   **   This error occurred 278 total times;\n   *************  **   ~~~   **   during Warmup 0 times;\n   *************  **   ~~~   **   during Sizing 0 times.\n   *************  **   ~~~   **   Max=-2.500000E-002 [C]  Min=-3.3 [C]\n   *************\n   *************  ** Warning ** CalcDoe2DXCoil: Coil:Cooling:DX:SingleSpeed=\"COIL COOLING DX SINGLE SPEED 2 3KBTU/HR 11.0EER\" - Full load outlet temperature indicates a possibility of frost/freeze error continues. Outlet air temperature statistics follow:\n   *************  **   ~~~   **   This error occurred 476 total times;\n   *************  **   ~~~   **   during Warmup 0 times;\n   *************  **   ~~~   **   during Sizing 0 times.\n   *************  **   ~~~   **   Max=1.988706  Min=0.146274\n   *************\n   *************  ** Warning ** CalcDoe2DXCoil: Coil:Cooling:DX:SingleSpeed=\"COIL COOLING DX SINGLE SPEED 12 16KBTU/HR 14.0SEER\" - Full load outlet temperature indicates a possibility of frost/freeze error continues. Outlet air temperature statistics follow:\n   *************  **   ~~~   **   This error occurred 282 total times;\n   *************  **   ~~~   **   during Warmup 0 times;\n   *************  **   ~~~   **   during Sizing 0 times.\n   *************  **   ~~~   **   Max=1.992717  Min=-3.256802\n   *************\n   *************  ** Warning ** CalcDoe2DXCoil: Coil:Cooling:DX:SingleSpeed=\"COIL COOLING DX SINGLE SPEED 18 83KBTU/HR 9.7EER\" - Full load outlet temperature indicates a possibility of frost/freeze error continues. Outlet air temperature statistics follow:\n   *************  **   ~~~   **   This error occurred 31 total times;\n   *************  **   ~~~   **   during Warmup 0 times;\n   *************  **   ~~~   **   during Sizing 0 times.\n   *************  **   ~~~   **   Max=1.996844  Min=-2.753822\n   *************\n   *************  ** Warning ** CalcDoe2DXCoil: Coil:Cooling:DX:SingleSpeed=\"COIL COOLING DX SINGLE SPEED 15 97KBTU/HR 9.7EER\" - Full load outlet temperature indicates a possibility of frost/freeze error continues. Outlet air temperature statistics follow:\n   *************  **   ~~~   **   This error occurred 16 total times;\n   *************  **   ~~~   **   during Warmup 0 times;\n   *************  **   ~~~   **   during Sizing 0 times.\n   *************  **   ~~~   **   Max=1.865446  Min=-1.150719\n   *************\n   *************  ** Warning ** CalcDoe2DXCoil: Coil:Cooling:DX:SingleSpeed=\"COIL COOLING DX SINGLE SPEED 1 244KBTU/HR 9.7EER\" - Full load outlet temperature indicates a possibility of frost/freeze error continues. Outlet air temperature statistics follow:\n   *************  **   ~~~   **   This error occurred 11 total times;\n   *************  **   ~~~   **   during Warmup 0 times;\n   *************  **   ~~~   **   during Sizing 0 times.\n   *************  **   ~~~   **   Max=1.868716  Min=1.108867\n   *************\n   *************  ** Warning ** CalcDoe2DXCoil: Coil:Cooling:DX:SingleSpeed=\"COIL COOLING DX SINGLE SPEED 14 97KBTU/HR 9.7EER\" - Full load outlet temperature indicates a possibility of frost/freeze error continues. Outlet air temperature statistics follow:\n   *************  **   ~~~   **   This error occurred 10 total times;\n   *************  **   ~~~   **   during Warmup 0 times;\n   *************  **   ~~~   **   during Sizing 0 times.\n   *************  **   ~~~   **   Max=1.865446  Min=0.920022\n   *************\n   *************\n   ************* ===== Final Error Summary =====\n   ************* The following error categories occurred.  Consider correcting or noting.\n   ************* Nominally Unused Constructions\n   ************* ..The nominally unused constructions warning is provided to alert you to potential conditions that can cause\n   ************* ..extra time during simulation. Each construction is calculated by the algorithm indicated in the HeatBalanceAlgorithm\n   ************* ..object. You may remove the constructions indicated (when you use the DisplayExtraWarnings option).\n   *************\n   ************* EnergyPlus Warmup Error Summary. During Warmup: 0 Warning; 0 Severe Errors.\n   ************* EnergyPlus Sizing Error Summary. During Sizing: 164 Warning; 0 Severe Errors.\n   ************* EnergyPlus Completed Successfully-- 24287 Warning; 0 Severe Errors; Elapsed Time=00hr 03min 20.81sec\n",
   "file_format_version" : "0.0.1",
   "file_paths" : [ "../weather", "../seeds", "../seed" ],
   "hash" : "F938E25F",
   "measure_paths" : [ "../measures" ],
   "name" : "LHS Autogenerated 37",
   "osa_id" : "4fef0e0f-5396-4c55-a6e1-2cd6803db3ab",
   "osd_id" : "89d62764-3da6-446f-b5b6-3ff1cd7eeb39",
   "run_directory" : "./run",
   "seed_file" : "seed.osm",
   "started_at" : "20170710T182346Z",
   "steps" : [
      {
         "arguments" : {
            "__SKIP__" : false,
            "building_type" : "LargeHotel",
            "climate_zone" : "NECB HDD Method",
            "epw_file" : "CAN_PQ_Riviere.du.Loup.717150_CWEC.epw",
            "template" : "NECB 2011"
         },
         "measure_dir_name" : "create_prototype_building",
         "name" : "create_prototype_building",
         "result" : {
            "completed_at" : "20170710T182524Z",
            "measure_class_name" : "CreatePrototypeBuilding",
            "measure_display_name" : "Create Prototype Building",
            "measure_name" : "create_prototype_building",
            "measure_taxonomy" : "Whole Building.Space Types",
            "measure_type" : "ModelMeasure",
            "measure_uid" : "ae90fsd7-a651-467a-bc8d-29d310b0f937",
            "measure_version_id" : "c6ec5c18-5595-459f-a082-09a19c8c869c",
            "measure_version_modified" : "20170519T182315Z",
            "measure_xml_checksum" : "057E8D9D",
            "started_at" : "20170710T182348Z",
            "stderr" : "",
[...]
kM+U7JCDualHUXu1JfOSJWIiC6ynvxarytXAz1Polmr7likQ3q4HM/6keR5h1Wu0lRn1lWJ4jD4JqvpLM+tqxTM7bEbL6pJ5SfXvqpMYiVV18tqIXm+rNQJD+3FRx2rcH6+8IiOsHS96YRbddaHdrarVjr/oSynUMfOjvj02xfx77PfPovzs89ffvn4s/j17OdfRuL9yeeTag5O01Vb3tsqRRNxIKIgjIWf3KTzYCyykiaRsKNxmry4/rSCx1XfKz9Pdma7La6qLy6hjJPQF3M7jOSpF9hxy1ZL/nY6lE8+u8o+q9SZ5SnaE9n8EsocP2y20stj/pmFexbsrS1HTuzEi8U8DNI1TG61xdYP+/uj0cnJ1oYLzwAHOMABDnCAAxzgAAc4wAHOXxNHRMlN+k9g4Uj1oXDshSIKpQMa0IAGNKABDWhAAxrQgAY0oCmmuct+mvUnmisvkcABDnCAAxzgAAc4wAEOcIADnDo4j+8NtNR7A88T6r2BfSu7w3Z8vLt7cABSkIIUpCAFKUhBClKQghSkIAUpSF8HaS8jtWOKtJuR9vu93v4QpCAFKUhBClKQghSkIAUpSEEKUpC+DtK+Ij0NXYK0d5CRWtbeXr8PUpCCFKQgBSlIQQpSkIIUpCAFKUhfB+muIv0ySyjS/Yz0ID0Gb0EKUpCCFKQgBSlIQQpSkIIUpCAF6esgHSjSf0mHIt3LSN+9G4329kAKUpCCFKQgBSlIQQpSkIIUpCAF6esgHWbfTCSSIh1mpKPRcAhSkIIUpCAFKUhBClKQghSkIAUpSF8L6Z4i/RBQlQV7g4x0f7/XGwxAClKQghSkIAUpSEEKUpCCFKQgBWljpCsUJ7TvWqXO7s3YjT15PrPn0ozlfdzaeh8kYVSOsfi+5Tv3RvqRG/iejDIPJS52dsSx4whbZJ7EnRvPRBTcSOH0S1pGt1PTns+l77QMpW1slzRYHaYdx2HLuDfaYtjVbLRIG/WqN4rihSeXeB3bH8+CMG1veHKiQZv7mAR+3LmT7nQWKx9XgedU97Ecm/N5560dyXSAYnG+iDq74tQLO31xPp51TsT7T974Ju74QZgOwe8fxceT0Vt1WixvxK74dP67OBuP1blb20WD+mYnGofuPP4Hec6bHce9fdlMtqGdpb6E6xwZYzXjR2kn2a4vw0uru2eIrOuODMeN5p69OHR9L7V1rrxg/O0ngwZMvS6vQcSLedpe9d7OtX1rLz8tbKmOWztUs1McCce9mXvS9OXd+e20ZfzwAmRb7Ha72R+l4ab8OnZsp44v/jA8+0p6xqHhyImdeLGYh8HE9aTRXlou741Dy+y2jVvbS2T+97FaldI26UIzGp2cGA/tSn56TH76TH52mfwMmPwMmfzsMfnZZ/JzwOTH6nI54prRFteUtrjmtMU1qS2uWW1xTWuLa15bXBPb4prZPa6Z3WNbq7lmdo9rZve0ZraIkpubZ6+prrSjhdLRcEP2kZ4bsof03JD9o+eGjHs9N2TU67khY17PDRnxem7IeNdzQ29kmn6Y5jG9jWn6YZrJ9Cam6YdpLtNbmKYfptlMb2CafpjmM719afrhWpeZ5jO9d2n6qT6f71w/1t+2rtRH1f2Q3aPph+weTT9k92j6IcNd0w8Z7pp+yHDX9EOGu6YfMtw1/dD7l64jrhlN72C6jrjmNL2H6TrimtX0LqbriGte0/uYriOumU3vZLqO2NZqrplNb2a6jqrP7Mf7FqXvFaa2ue6zf+gtXzzMINHbvER/8xK7m5cYbF5iuHmJvc1L7G9e4mDzEs929k1pNBDfVgMBbjUQ4VYDIW41EONWA0FuNRDlVgNhbjUQ570G4rzXxD7eQJz3GojzXr04L319Y7W0avl+RwYJejTYJOjBYJOgx4JNgl5y2SToFZdNgl5w2STo9ZZNgl5u2SQK7lzzadC3/vg06LuCfBr0DUM+jQZCvCCt4tNoIMgL0io+jQbCvCCt4tv/6LSKT6OJfbyBjbwgreLTqBfnpW/JqpZWLV+jxSBBjwabBD0YbBL0WLBJ0EsumwS94rJJ0AsumwS93rJJ0L+NYpMoSKv4NOi0ik+DTqv4NOi0ik+D/okWnwb9u0Q+Dfoni3wa9K8Z+TToHzryaTQQ5wVpFZ9GE/t4Axt5QVrFp1FvKy99GUm1tGr5thIGCXo02CTowWCToMeCTYJOq9gk6LSKTYJOq9gk6LSKTYJebtkkCtIqPg06reLToNMqPg06reLToNMqPg06reLToNMqPg06reLToNMqPo0G4rwgreLTaGIfb2AjL0ir+DTqbeWlNd+rpVXLovAMEvRosEnQg8EmQY8FmwSdVrFJ0GkVmwSdVrFJ0GkVmwS93LJJFKRVfBp0WsWnQadVfBp0WsWnQadVfBp0WsWnQadVfBp0WsWnQadVfBoNxHlBWsWn0cQ+3sBGXpBW8WnU28pLS+tWS6uWtXcZJOjRYJOgB4NNgh4LNgk6rWKToNMqNgk6rWKToNMqNgl6uWWTKEir+DTotIpPg06r+DTotIpPg06r+DTotIpPg06r+DTotIpPg06r+DQaiPOCtIpPo4l9vIGNvCCt4tOot5WXVjCsllYtSxwySNCjwSZBDwabBD0WbBJ0WsUmQadVbBJ0WsUmQadVbBJFdaeYJAqLrXFpFFWr4tIoKmTFpVFU44pLo6j8FZdGUc03Lo2icnBcGkWV4rg0iorIcWk0EOcFaRWfRhP7eAMbeUFaxadRvpV/rVLhNS/eLI6EL+9WFWSzwrGt6HbazirAlpaKXVWAjmT8Nkh8J2oNum1hWYO26Ku/9QbVys3epxiPha0dZ2THchqEi+N7N1pWUH68/gplplMHZ6Ejw8+JKmhcuaHiWDzn+CDtKAnlEkPVZM77fcMlvmGGGWaYYYYZZphhhhlmmGGGGWaYYYYZZphhhhlmmGGGGWaYYYYZZphhhhlmmGGGGWaYYYYZZphhhhlmmGGGGWaYYYYZZphh/kuZF2ZwK8PQdeQHWz1Ya5ndNZ9XVY/GRs8fjT2XoSuj/PFao716gHjuBbHpub4sfUQ2euk53fInayMze/X8PPDs2A38FMqIYjnvXMlJEEqj2pPPv8qp9J3nF7T8rDXstkVfPbncVQ8yqz8MT05iBVbieuXWvJzK+MSPVf+kEpPEH2ekrW3xR4mLFaF8bH1R+iy3OtyJaMUzNzKjbFSqCanjSSMz7b8Tezxr/QdY19sKXz06nrLnfi/nQeQqh+/Sj6tczepQbl6gCoM7PaQVlus7UsVDx2prtl4d13UbTlzpqfnWyvt0GSfTMEjm0hE//ij+ln9+b17O7Ch//l0F2PZT6+JFa9ohpj2dnioN05P+NJ6JN6In/imMY88zxOHzMyLPHctWx9q+6H7dLo23764kCEXrOr2U7k/iOpXJp2quqz77e7ri6A+QOtQ0zv1dXH81v8mFODo6WnZePY+Z13zYr3UvdXVchdL+Vqfxg2Yb3fNVf+VXd6SmtZoM+UzJCjmYl3YUuVNfOiNVIiK6yHrya72uXA30PIlmrbpjkQ7p4XI860eS5x1WuUpTnVlXJYrD4JusprM8t65SMLfHbryoJpWfXPuqMomVVF0vq4Xk+bJSJzy0Fx91rML5+cIjOsLS9aYTbtVZH9rZrlrp/IeynEIdOzvi029fxL/Pfvsszs8+f/nl48/i17OffxmJ9yefT6o5OE1XbXlvqxRNxIGIgjAWfnKTzoOxyEqaRMKOxmny4vrTCh5Xfa/8PNmZ7ba4qr64hDJOQl/M7TCSp15gxy1bLfnb6VA++ewq+6xSZ5anaE9k80soc/yw2Uovj/lnFu5ZsLe2HDmxEy8W8zBI1zC51RZbP+zvj0YnJ1sbLjwDHOAABzjAAQ5wgAMc4AAHOH9NHBElN+k/gYUj1YfCsReKKJQOaEADGtCABjSgAQ1oQAMa0ICmmOYu+2nWn2iuvEQCBzjAAQ5wgAMc4AAHOMABDnDq4Dy+N9BS7w08T6j3Bvat7A7b8fHu7sEBSEEKUpCCFKQgBSlIQQpSkIIUpCB9HaS9jNSOKdJuRtrv93r7Q5CCFKQgBSlIQQpSkIIUpCAFKUhB+jpI+4r0NHQJ0t5BRmpZe3v9PkhBClKQghSkIAUpSEEKUpCCFKQgfR2ku4r0yyyhSPcz0oP0GLwFKUhBClKQghSkIAUpSEEKUpCCFKSvg3SgSP8lHYp0LyN992402tsDKUhBClKQghSkIAUpSEEKUpCCFKSvg3SYfTORSIp0mJGORsMhSEEKUpCCFKQgBSlIQQpSkIIUpCB9LaR7ivRDQFUW7A0y0v39Xm8wAClIQQpSkIIUpCAFKUhBClKQghSkjZGuUJzQvmuVOrs3Yzf25PnMnkszlvdxa+t9kIRROcbi+5bv3BvpR27gezLKPJS42NkRx44jbJF5EnduPBNRcCOF0y9pGd1OTXs+l77TMpS2sV3SYHWYdhyHLePeaIthV7PRIm3Uq94oiheeXOJ1bH88C8K0veHJiQZt7mMS+HHnTrrTWax8XAWeU93HcmzO551REIauE4SXp154ORTni6jTF+nfO7vifDzrnIj3n7zxTdyJgiQdiN8/io8no7fqtFjeiL74dP67OBuP1blb20VD+2YnGofuPP4Hec6bHce9fdlMtqGdpb6E6xwZYzXvR2lX2a4vw0uru2+IrAOPDMeN5p69OHR9L7V1rrxg/O0ngwZMvS6vQcSLedpe9eHOtX1rLz8tbKmOWztUc1QcCce9mXvS9OXd+e20ZfzwAmRb7Ha72R+lQaf8OnZsp44v/jA8+0p6xqHhyImdeLGYh8HE9aTRXlou741Dy+y2jVvbS2T+97Fam9I26XIzGp2cGA/tSn56TH76TH52mfwMmPwMmfzsMfnZZ/JzwOTH6nI54prRFteUtrjmtMU1qS2uWW1xTWuLa15bXBPb4prZPa6Z3WNbq7lmdo9rZve0ZraIkpubZy+rrrSjhdLRcEP2kZ4bsof03JD9o+eGjHs9N2TU67khY17PDRnxem7IeNdzQ29kmn6Y5jG9jWn6YZrJ9Cam6YdpLtNbmKYfptlMb2CafpjmM719afrhWpeZ5jO9d2n6qT6f71w/1t+2rtRH1f2Q3aPph+weTT9k92j6IcNd0w8Z7pp+yHDX9EOGu6YfMtw1/dD7l64jrhlN72C6jrjmNL2H6TrimtX0LqbriGte0/uYriOumU3vZLqO2NZqrplNb2a6jqrP7Me7F6VvF6a2ue6zf+gtXz/MIEH/65ZNor/5q9jdvMRg8xLDzUvsbV5if/MSB5uXeLazb0qjgfgu+GKWT4P+ZotPg/7Si0+D/qaXT4P+EphPg/5+mE+D/uqYT4P+Vplv/6O/cObToL+L5tNoIM4LvsHm06i3lZe+xLHabdzlWx4ZJOjRYJOg0yo2CXos2CTotIpNgk6r2CTotIpNgk6r2CTotIpNoiCt4tNoIL4L0io+DXq55dOg0yo+DTqt4tOg0yo+DTqt4tOg0yo+DTqt4tv/6LSKT6OJfbyBOC9Iq/g06sV56buyqqVVy5dpMUj0yN2DTYJOq9gk6LSKTYJOq9gk6LSKTYJOq9gk6LSKTYJOq9gkCtIqPo0G4rsgreLToJdbPg16ueXToNMqPg06reLToNMqPg06reLToNMqvv2PTqv4NJrYxxuI84K0ik+jXpyXvpKkWlq1fGcJgwSdVrFJ0GkVmwSdVrFJ0GkVmwSdVrFJ0GkVmwSdVrFJ0GkVm0RBWsWn0UB8F6RVfBr0csunQS+3fBp0WsWnQadVfBp0WsWnQadVfBp0WsW3/9FpFZ9GE/t4A3FekFbxadSL89LK79XSqmVpeAYJOq1ik6DTKjYJOq1ik6DTKjYJOq1ik6DTKjYJOq1ik6DTKjaJgrSKT6OB+C5Iq/g06OWWT4Nebvk06LSKT4NOq/g06LSKT4NOq/g06LSKb/+j0yo+jSb28QbivCCt4tOoF+elBXarpVXLCrwMEnRaxSZBp1VsEnRaxSZBp1VsEnRaxSZBp1VsEnRaxSZBp1VsEgVpFZ9GA/FdkFbxadDLLZ8GvdzyadBpFZ8GnVbxadBpFZ8GnVbxadBpFd/+R6dVfBpN7OMNxHlBWsWnUS/OS+sYVkurloUOGSTotIpNgk6r2CTotIpNgk6r2CTotIpNgk6r2CTotIpNgk6r2CQK0io+jQbiu7BEG5dGUY0rLo2i8ldcGkU137g0isrBcWkUVYrj0igqIselUVRfjmv/Kyo9x6XRxD7eQJwX1rLj0iiP869VKrzmJZzFkfDl3aqCbFY4thXdTttZBdjSUrGrOtCRjN8Gie9ErUG3LSxr0BZ99bfeoFq52fsU47G8teOM7FhOg3BxfO9GyzrKj9dfodh06uAsdGT4OVFljSs3VByL5xwfpB0loVxiqMrMeb9vuNA3zDDDDDPMMMMMM8wwwwwzzDDDDDPMMMMMM8wwwwwzzDDDDDPMMMMMM8wwwwwzzDDDDDPMMMMMM8wwwwwzzDDDDDPMMMMMM8x/KfPCDG5lGLqO/GCrB2sts7vm86rq0djo+aOx5zJ0ZZQ/Xmu0Vw8Qz70gNj3Xl6WPyEYvPadb/mRtZGavnp8Hnh27gZ9CGVEs550rOQlCaVR78vlXOZW+8/yClp+1ht226Ksnl7vqQWb1h+HJSazASlyv3JqXUxmf+LHqn1RikvjjjLS1Lf4ocbEilI+tL0qf5VaHOxGteOZGZpSNSjUhdTxpZKb9d2KPZ63/AOt6W+GrR8dT9tzv5TyIXOXwXfpxlatZHcrNC1RhcKeHtMJyfUeqeOhYbc3Wq+O6bsOJKz0131p5ny7jZBoGyVw64scfxd/yz+/Ny5kd5c+/qwDbfmpdvGhNO8S0p9NTpWF60p/GM/FG9MQ/hXHseYY4fH5G5Llj2epY2xfdr9ul8fbdlQShaF2nl9L9SVynMvlUzXXVZ39PVxz9AVKHmsa5v4vrr+Y3uRBHR0fLzqvnMfOaD/u17qWujqtQ2t/qNH7QbKN7vuqv/OqO1LRWkyGfKVkhB/PSjiJ36ktnpEpERBdZT36t15WrgZ4n0axVdyzSIT1cjmf9SPK8wypXaaoz66pEcRh8k9V0lufWVQrm9tiNF9Wk8pNrX1UmsZKq62W1kDxfVuqEh/bio45VOD9feERHWLredMKtOutDO9tVK53/UJZTqGNnR3z67Yv499lvn8X52ecvv3z8Wfx69vMvI/H+5PNJNQen6aot722Vook4EFEQxsJPbtJ5MBZZSZNI2NE4TV5cf1rB46rvlZ8nO7PdFlfVF5dQxknoi7kdRvLUC+y4ZaslfzsdyiefXWWfVerM8hTtiWx+CWWOHzZb6eUx/8zCPQv21pYjJ3bixWIeBukaJrfaYuuH/f3R6ORka8OFZ4ADHOAABzjAAQ5wgAMc4ADnr4kjouQm/SewcKT6UDj2QhGF0gENaEADGtCABjSgAQ1oQAMa0BTT3GU/zfoTzZWXSOAABzjAAQ5wgAMc4AAHOMABTh2cx/cGWuq9gecJ9d7AvpXdYTs+3t09OAApSEEKUpCCFKQgBSlIQQpSkIIUpK+DtJeR2jFF2s1I+/1eb38IUpCCFKQgBSlIQQpSkIIUpCAFKUhfB2lfkZ6GLkHaO8hILWtvr98HKUhBClKQghSkIAUpSEEKUpCCFKSvg3RXkX6ZJRTpfkZ6kB6DtyAFKUhBClKQghSkIAUpSEEKUpCC9HWQDhTpv6RDke5lpO/ejUZ7eyAFKUhBClKQghSkIAUpSEEKUpCC9HWQDrNvJhJJkQ4z0tFoOAQpSEEKUpCCFKQgBSlIQQpSkIIUpK+FdE+RfgioyoK9QUa6v9/rDQYgBSlIQQpSkIIUpCAFKUhBClKQgrQx0hWKE9p3rVJn92bsxp48n9lzacbyPm5tvQ+SMCrHWHzf8p17I/3IDXxPRpmHEhc7O+LYcYQtMk/izo1nIgpupHD6JS2j26lpz+fSd1qG0ja2SxqsDtOO47Bl3BttMexqNlqkjXrVG0XxwpNLvI7tj2dBmLY3PDnRoM19TAI/7txJdzqLlY+rwHOq+1iOzfm88871XX96eeqFl0Nxvog6fZH+vbMrzsezzlvx/pM3vok7fhCmw/D7R/HxZPRWnRbLG9EXn85/F2fjsTp3a7toYN/sROPQncf/IM95s+O4ty+byTa0s9SXcJ0jY6xm/SjtKNv1ZXhpdQ8MkXXfkeG40dyzF4eu76W2zpUXjL/9ZNCAqdflNYh4MU/bqx7cubZv7eWnhS3VcWuHaoaKI+G4N3NPmr68O7+dtowfXoBsi91uN/ujNOSUX8eO7dTxxR+GZ19Jzzg0HDmxEy8W8zCYuJ402kvL5b1xaJndtnFre4nM/z5WK1PaJl1sRqOTE+OhXclPj8lPn8nPLpOfAZOfIZOfPSY/+0x+Dpj8WF0uR1wz2uKa0hbXnLa4JrXFNastrmltcc1ri2tiW1wzu8c1s3tsazXXzO5xzeye1swWUXJz8+xV1ZV2tFA6Gm7IPtJzQ/aQnhuyf/TckHGv54aMej03ZMzruSEjXs8NGe96buiNTNMP0zymtzFNP0wzmd7ENP0wzWV6C9P0wzSb6Q1M0w/TfKa3L00/XOsy03ym9y5NP9Xn853rx/rb1pX6qLofsns0/ZDdo+mH7B5NP2S4a/ohw13TDxnumn7IcNf0Q4a7ph96/9J1xDWj6R1M1xHXnKb3MF1HXLOa3sV0HXHNa3of03XENbPpnUzXEdtazTWz6c1M11H1mf1476L03cLUNtd99g+95cuHGSTof92ySfQ3fxW7m5cYbF5iuHmJvc1L7G9e4mDzEs929k1pNBDfBV/M8mnQ32zxadBfevFp0N/08mnQXwLzadDfD/Np0F8d82nQ3yrz7X/0F858GvR30XwaDcR5wTfYfBr1tvLSVzhWu427fMcjgwQ9GmwSdFrFJkGPBZsEnVaxSdBpFZsEnVaxSdBpFZsEnVaxSRSkVXwaDcR3QVrFp0Evt3wadFrFp0GnVXwadFrFp0GnVXwadFrFp0GnVXz7H51W8Wk0sY83EOcFaRWfRr04L31TVrW0avkqLQaJHrl7sEnQaRWbBJ1WsUnQaRWbBJ1WsUnQaRWbBJ1WsUnQaRWbREFaxafRQHwXpFV8GvRyy6dBL7d8GnRaxadBp1V8GnRaxadBp1V8GnRaxbf/0WkVn0YT+3gDcV6QVvFp1Ivz0heSVEurlm8sYZCg0yo2CTqtYpOg0yo2CTqtYpOg0yo2CTqtYpOg0yo2CTqtYpMoSKv4NBqI74K0ik+DXm75NOjllk+DTqv4NOi0ik+DTqv4NOi0ik+DTqv49j86reLTaGIfbyDOC9IqPo16cV5a971aWrUsDM8gQadVbBJ0WsUmQadVbBJ0WsUmQadVbBJ0WsUmQadVbBJ0WsUmUZBW8Wk0EN8FaRWfBr3c8mnQyy2fBp1W8WnQaRWfBp1W8WnQaRWfBp1W8e1/dFrFp9HEPt5AnBekVXwa9eK8tLxutbRqWX+XQYJOq9gk6LSKTYJOq9gk6LSKTYJOq9gk6LSKTYJOq9gk6LSKTaIgreLTaCC+C9IqPg16ueXToJdbPg06reLToNMqPg06reLToNMqPg06reLb/+i0ik+jiX28gTgvSKv4NOrFeWkVw2pp1bLMIYMEnVaxSdBpFZsEnVaxSdBpFZsEnVaxSdBpFZsEnVaxSdBpFZtEQVrFp9FAfBeWaOPSKKpxxaVRVP6KS6Oo5huXRlE5OC6NokpxXBpFReS4NIrqy3Htf0Wl57g0mtjHG4jzwlp2XBrlcf61SoXXvICzOBK+vFtVkM0Kx7ai22k7qwBbWip2VQU6kvHbIPGdqDXotoVlDdqir/7WG1QrN3ufYjwWt3ackR3LaRAuju/daFlF+fH6K5SaTh2chY4MPyeqqHHlhopj8Zzjg7SjJJRLDFWXOe/3DZf5hhlmmGGGGWaYYYYZZphhhhlmmGGGGWaYYYYZZphhhhlmmGGGGWaYYYYZZphhhhlmmGGGGWaYYYYZZphhhhlmmGGGGWaYYYb5L2VemMGtDEPXkR9s9WCtZXbXfF5VPRobPX809lyGrozyx2uN9uoB4rkXxKbn+rL0Ednoped0y5+sjczs1fPzwLNjN/BTKCOK5bxzJSdBKI1qTz7/KqfSd55f0PKz1rDbFn315HJXPcis/jA8OYkVWInrlVvzcirjEz9W/ZNKTBJ/nJG2tsUfJS5WhPKx9UXps9zqcCeiFc/cyIyyUakmpI4njcy0/07s8az1H2Bdbyt89eh4yp77vZwHkascvks/rnI1q0O5eYEqDO70kFZYru9IFQ8dq63ZenVc1204caWn5lsr79NlnEzDIJlLR/z4o/hb/vm9eTmzo/z5dxVg20+tixetaYeY9nR6qjRMT/rTeCbeiJ74pzCOPc8Qh8/PiDx3LFsda/ui+3W7NN6+u5IgFK3r9FK6P4nrVCafqrmu+uzv6YqjP0DqUNM493dx/dX8Jhfi6Oho2Xn1PGZe82G/1r3U1XEVSvtbncYPmm10z1f9lV/dkZrWajLkMyUr5GBe2lHkTn3pjFSJiOgi68mv9bpyNdDzJJq16o5FOqSHy/GsH0med1jlKk11Zl2VKA6Db7KazvLcukrB3B678aKaVH5y7avKJFZSdb2sFpLny0qd8NBefNSxCufnC4/oCEvXm064VWd9aGe7aqXzH8pyCnXs7IhPv30R/z777bM4P/v85ZePP4tfz37+ZSTen3w+qebgNF215b2tUjQRByIKwlj4yU06D8YiK2kSCTsap8mL608reFz1vfLzZGe22+Kq+uISyjgJfTG3w0ieeoEdt2y15G+nQ/nks6vss0qdWZ6iPZHNL6HM8cNmK7085p9ZuGfB3tpy5MROvFjMwyBdw+RWW2z9sL8/Gp2cbG248AxwgAMc4AAHOMABDnCAAxzg/DVxRJTcpP8EFo5UHwrHXiiiUDqgAQ1oQAMa0IAGNKABDWhAA5pimrvsp1l/ornyEgkc4AAHOMABDnCAAxzgAAc4wKmD8/jeQEu9N/A8od4b2LeyO2zHx7u7BwcgBSlIQQpSkIIUpCAFKUhBClKQgvR1kPYyUjumSLsZab/f6+0PQQpSkIIUpCAFKUhBClKQghSkIAXp6yDtK9LT0CVIewcZqWXt7fX7IAUpSEEKUpCCFKQgBSlIQQpSkIL0dZDuKtIvs4Qi3c9ID9Jj8BakIAUpSEEKUpCCFKQgBSlIQQpSkL4O0oEi/Zd0KNK9jPTdu9Fobw+kIAUpSEEKUpCCFKQgBSlIQQpSkL4O0mH2zUQiKdJhRjoaDYcgBSlIQQpSkIIUpCAFKUhBClKQgvS1kO4p0g8BVVmwN8hI9/d7vcEApCAFKUhBClKQghSkIAUpSEEKUpA2RrpCcUL7rlXq7N6M3diT5zN7Ls1Y3setrfdBEkblGIvvW75zb6QfuYHvySjzUOJiZ0ccO46wReZJ3LnxTETBjRROv6RldDs17flc+k7LUNrGdkmD1WHacRy2jHujLYZdzUaLtFGveqMoXnhyidex/fEsCNP2hicnGrS5j0ngx5076U5nsfJxFXhOdR/LsTmfd/63G49n0r889cLLoThfRJ2+SP/e2RXn41nnrXj/yRvfxB1pR7H4/aP4eDJ6q86K5Y3oi0/nv4uz8VidurVdNLBvdqJx6M7jf5DnvNlx3NuXzWQb2lnqS7jOkTFWs36UdpTt+jK8tKyuIbLuOzIcN5p79uLQ9b3U1rnygvG3nwwaMPW6vAYRL+Zpe9WDO9f2rb38tLClOm7tUM1QcSQc92buSdOXd+e305bxwwuQbbHb7WZ/lIac8uvYsZ06vvjD8Owr6RmHhiMnduLFYh4GE9eTRntpubw3Di2z2zZubS+RxuFgYPYPnhz9QdsYq4UqdZGuPaPRyYnx0K7ktrcZt/3NuN3djNvBZtwON+N2bzNu9zfj9mAzbq3uhvxuKM6sDQWataFIszYUataGYs3aULBZG4o2a0PhZm0o3nobirfepva1DcVbb0Px1lsn3kSU3Nw8eyV4ncwhlI6G16r9q+e1au/qea3at3peq65kel6rrmN6XquuYnpeq65hel6rrmB6XisnDJpuNxNdldMFTbebia/KyYKm281EWOVUQdPtZmKscqKg6XYzUVY5TdB0u6E9bDNRVjlH0HRbO8ruXD9eOz24UmdUd1u1azXdVu1aTbdVu1bTbdUFTNNt1QVM023VBUzTbdUFTNNt1QVM023lPEHX74birHKmoOt3Q5FWOVfQ9buhWKucLej63VC0Vc4XdP1uKN4qZwy6fje1r20o3ionDbp+9eLta5UbF/l9SXEkfHm3ujGS3Q9pRbfTdnZjo/QOyOrmZiTjt0HiO1Fr0G0Lyxq0RV/9rTeodhflPsV4vGfrOCM7ltMgXBzfu9Hy5uBjX1S4g5o6OAsdGX5O1L26yg0Vx+I5xwdpR0kolxjqdmM+BuveE85uSD2XOpehK6McN1XKB2TuBbGp7pKVSkYvXXc5aWRmE28eeHbsBn4KZUSxnHeu5CQIpVFtJv0qp9J3nl/Q8rPWMJ0FfTUT1E01S/2R33ItvRu9cmteTmV84seqf1KJSeKPM9LWtvijwj1XRSgfW1+UxoY63IloxTM3Sue1aldNSB1PGplp/53Y41nrP8C63lb4+T3G3O/lPIhc5fBd+nGVq1kdys0LVGFwp4e0wnJ9R6rA7Vhtzdar47puw4krPTXfWnmfLuNkGgbJXDrixx/F3/LP783LmR3l64kKsO2n1sWL1rRDTHs6PVUapif9aTwTb0RP/FMYx55niMPnZ0SeO5atjrV90f26XRpv311JEIrWdXop3Z/EdSqTT9VcV3329yNh6Q+QOtQ0zv1dXH81v8l0eTs6WnZePY+Z13zYr3UvdXVchdL+Vqfxg2Yb3fNVf+VXd6SmtZoM+UzJNkbzcvl7IulkvyiKLrKe/FqvK1cDPU+iWavuWKRDergcz/qR5HmHVa7SVGfWVYniMPgmq+ksz62rFMztsRsvqknlJ9e+qkxiJVXXy2oheb6s1AkP7cVHHatwfr7wiI6wdL3phFt11od2tqtWOv+hLKdQx86O+PTbF/Hvs98+i/Ozz19++fiz+PXs519G4v3J55NqDk7TVVve2ypFE3EgoiBNpP3kJp0HY5GliJGwo3GavLj+tILHVd8rP092ZrstrqovLqGMk9AXczuM5KkX2HHLVkv+djqUTz67yj6r1JnlKdoT2fwSyhw//Bd+9/mnO7b5jzvVDdj/ys9QgQMc4AAHOMABDnCAAxzgAOfV43z/yxdFFEoHNKABDWhAAxrQgAY0oAENaEBTTPPdbwIVjfqJH3CAAxzgAAc4wAEOcIADHOAA579YbfGLvJnL0I6TUIrW6TbqLf7PqreYzOfeQhy7oVAD9UpqJlqvoWai1VjNxOzvdYszMfnpM/nZZfIzYPIzZPKzx+Rnn8nPAZOfZzUF1nLENaMtriltcc1pi2tSW1yz2uKa1hbXvLa4JrbFNbN7XDO7x7ZWc83sHtfM7mnN7Oq1/J65ql+8bw03ZA/VL8+3hhsy7usX4FvDDRnz9UvsreGGjPc1iuit44dpHtPb2Bp18dbxwzSV6T1sjVJ36/hhms30BrZG9bp11kGm+UzvXmsUpFvHD9N8preu+jXmnrlZo6jcOn7I7lmjbNw6fshwX6Mw3Dp+yHBfo/TbOn7IcF+nuNtajrhmNL2DrVOvbS1HXJOa3sTWKcG2liOueU3vY+tUVVtrZeSa2fRWtk6htLUccc1sejf7ztHj+54s9b6n84R631PfqvZ94/Hx7u7BAYME/a9bNgn6371sEvS/iNkk6G+B2CTo74fYJOhvjtgk6O+U2CTob5vYJAq+YuXTaCC+C76Y5dNoIMILvs7l02ggxgu+BObTaCDKC7465tNoIM4LvnDm02hiH28gzgu+webTqBfnvUzDjimNbrW0qt/v9faHDBL0aLBJ0IPBJkGPBZsEveSySdArLpsEveCySdDrLZsEvdyySRSkVXwaDcR3QVrFp9FAhBekVXwaDcR4QVrFp9FAlBekVXwaDcR5QVrFp9HEPt5AnBekVXwa9eK8rzROQ5d6O/lBtbTKsvb2+n0GCXo02CTowWCToMeCTYJectkk6BWXTYJecNkk6PWWTYJebtkkCtIqPo0G4rsgreLTaCDCC9IqPo0GYrwgreLTaCDKC9IqPo0G4rwgreLTaGIfbyDOC9IqPo16cb6rNL7MEkpjv1papd64NHjLIEGPBpsEPRhsEvRYsEnQSy6bBL3isknQCy6bBL3esknQyy2bREFaxafRQHwXpFV8Gg1EeEFaxafRQIwXpFV8Gg1EeUFaxafRQJwXpFV8Gk3s4w3EeUFaxadRL84HSuNf0qE09qqlVe/ejUZ7ewwS9GiwSdCDwSZBjwWbBL3ksknQKy6bBL3gsknQ6y2bBL3cskkUpFV8Gg3Ed0FaxafRQIQXpFV8Gg3EeEFaxafRQJQXpFV8Gg3EeUFaxafRxD7eQJwXpFV8GvXifJilbomkNIbV0qrRaDhkkaBHg02CHgw2CXos2CToJZdNgl5x2SToBZdNgl5v2STo5ZZNoiCt4tNoIL4L0io+jQYivCCt4tNoIMYL0io+jQaivCCt4tNoIM4L0io+jSb28QbivCCt4tOoF+d7SuNDQP0svjeollbt7/d6gwGDRFGdGyaJogo4TBJFtXGYJIrqQTFJFFWKYpIoqiHFJFFUXYpJoqjuFJNEYbE1Lo0G4ruwRBuXRgMRXljYjUujgRgvLAfHpdFAlBcWkePSaCDOC0vPcWk0sY83EOeFtey4NMrj/GuVCq95GWZxJHx5t6ogmxWObUW303ZWAba0VOyqlnMk47dB4jtRa9BtC8satEVf/a03qFZu9j7FeKxD7TgjO5bTIFwc37vRshLy4/VXKBidOjgLHRl+TlRh4soNFcfiOccHaUdJKJcYqrZy3u8brsgNM8wwwwwzzDDDDDPMMMMMM8wwwwwzzDDDDDPMMMMMM8wwwwwzzDDDDDPMMMMMM8wwwwwzzDDDDDPMMMMMM8wwwwwzzDDDDPNfyrwwg1sZhq4jP9jqwVrL7K75vKp6NDZ6/mjsuQxdGeWP1xrt1QPEcy+ITc/1ZekjstFLz+mWP1kbmdmr5+eBZ8du4KdQRhTLeedKToJQGtWefP5VTqXvPL+g5WetYbct+urJ5a56kFn9YXhyEiuwEtcrt+blVMYnfqz6J5WYJP44I21tiz9KXKwI5WPri9JnudXhTkQrnrmRGWWjUk1IHU8amWn/ndjjWes/wLreVvjq0fGUPfd7OQ8iVzl8l35c5WpWh3LzAlUY3OkhrbBc35EqHjpWW7P16riu23DiSk/Nt1bep8s4mYZBMpeO+PFH8bf883vzcmZH+fPvKsC2n1oXL1rTDjHt6fRUaZie9KfxTLwRPfFPYRx7niEOn58Ree5YtjrW9kX363ZpvH13JUEoWtfppXR/EtepTD5Vc1312d/TFUd/gNShpnHu7+L6q/lNLsTR0dGy8+p5zLzmw36te6mr4yqU9rc6jR802+ier/orv7ojNa3VZMhnSlbIwby0o8id+tIZqRIR0UXWk1/rdeVqoOdJNGvVHYt0SA+X41k/kjzvsMpVmurMuipRHAbfZDWd5bl1lYK5PXbjRTWp/OTaV5VJrKTqelktJM+XlTrhob34qGMVzs8XHtERlq43nXCrzvrQznbVSuc/lOUU6tjZEZ9++yL+ffbbZ3F+9vnLLx9/Fr+e/fzLSLw/+XxSzcFpumrLe1ulaCIORBSEsfCTm3QejEVW0iQSdjROkxfXn1bwuOp75efJzmy3xVX1xSWUcRL6Ym6HkTz1Ajtu2WrJ306H8slnV9lnlTqzPEV7IptfQpnjh81WennMP7Nwz4K9teXIiZ14sZiHQbqGya222Pphf380OjnZ2nDhGeAABzjAAQ5wgAMc4AAHOMD5a+KIKLlJ/wksHKk+FI69UEShdEADGtCABjSgAQ1oQAMa0IAGNMU0d9lPs/5Ec+UlEjjAAQ5wgAMc4AAHOMABDnCAUwfn8b2Blnpv4HlCvTewb2V32I6Pd3cPDkAKUpCCFKQgBSlIQQpSkIIUpCAF6esg7WWkdkyRdjPSfr/X2x+CFKQgBSlIQQpSkIIUpCAFKUhBCtLXQdpXpKehS5D2DjJSy9rb6/dBClKQghSkIAUpSEEKUpCCFKQgBenrIN1VpF9mCUW6n5EepMfgLUhBClKQghSkIAUpSEEKUpCCFKQgfR2kA0X6L+lQpHsZ6bt3o9HeHkhBClKQghSkIAUpSEEKUpCCFKQgfR2kw+ybiURSpMOMdDQaDkEKUpCCFKQgBSlIQQpSkIIUpCAF6Wsh3VOkHwKqsmBvkJHu7/d6gwFIQQpSkIIUpCAFKUhBClKQghSkIG2MdIXihPZdq9TZvRm7sSfPZ/ZcmrG8j1tb74MkjMoxFt+3fOfeSD9yA9+TUeahxMXOjjh2HGGLzJO4c+OZiIIbKZx+Scvodmra87n0nZahtI3tkgarw7TjOGwZ90ZbDLuajRZpo171RlG88OQSr2P741kQpu0NT040aHMfk8CPO3fSnc5i5eMq8JzqPpZj83+O/8+ygz/LmbRjcTYei/PxbGu7aJDe7ETj0J3H/yDPebPjuLcvm8k2tLPUl3CdI2OsZvAovWjb9WV4aVk9Q2RdcWQ4bjT37MWh63uprXPlBeNvPxk0YOp1eQ0iXszT9qo3dq7tW3v5aWFLddzaoZpt4kg47s3ck6Yv785vpy3jhxcg22K3283+KA0f5dexYzt1fPGH4dlX0jMODUdO7MSLxTwMJq4njfbScnlvHFpmt23c2l4ijcPhgXnw5Ng/aBtjteakHtJlZDQ6OTEe2pW89jbitb8Rr7sb8TrYiNfhRrzubcTr/ka8HmzEq9XdjNvNRJe1mfCyNhNf1mYCzNpMhFmbCTFrMzFmbSbIrM1EWW8zUdbb0B62mSjrbSbKemtEmYiSm5tnr/GukSGE0tFwWrFv9ZxW7Fk9pxX7Vc9pxbVLz2nFlUvPacV1S89pxVVLz2nFNUvPadXEQNPrRmKqalqg6XUjUVU1KdD0upG4qpoSaHrdSGRVTQg0vW4ktqqmA5peN7NfbSS2quYCml7rxtad68frpgFX6oTqXit2q6bXit2q6bVit2p6rbhkaXqtuGRpeq24ZGl6rbhkaXqtuGRpeq2aD+i63Ux0Vc0IdN1uJr6q5gS6bjcTYVWzAl23m4mxqnmBrtvNRFnVzEDX7Yb2sM1EWdXkQNetVpR9rXLDIb83KI6EL+9WNzSy+xit6Hbazm5IlN65WN1gjGT8Nkh8J2oNum1hWYO26Ku/9QbV7n7cpxiP900dZ2THchqEi+N7N1reoHvsigp3MVMHZ6Ejw8+Jul9WuaHiWDzn+CDtKAnlEkPd8suHYN37stmNpOdS5zJ0ZZTjpkr5gMy9IDbV3a1Syeil6y4njcxs3s0Dz47dwE+hjCiW886VnAShNKrNpF/lVPrO8wtaftYaprOgr2aCuhlmqT/y256ld4RXbs3LqYxP/Fj1TyoxSfxxRtraFn9UuO+pCOVj64vS2FCHOxGteOZG6bxW7aoJqeNJIzPtvxN7PGv9B1jX2wo/vzeY+72cB5GrHL5LP65yNatDuXmBKgzu9JBWWK7vSBW4Haut2Xp1XNdtOHGlp+ZbK+/TZZxMwyCZS0f8+KP4W/75vXk5s6N8PVEBtv3UunjRmnaIaU+np0rD9KQ/jWfijeiJfwrj2PMMcfj8jMhzx7LVsbYvul+3S+PtuysJQtG6Ti+l+5O4TmXyqZrrqs/+fiQs/QFSh5rGub+L66/mN5kub0dHy86r5zHzmg/7te6lro6rUNrf6jR+0Gyje77qr/zqjtS0VpMhnynZxmheLn/TI53sVz3RRdaTX+t15Wqg50k0a9Udi3RID5fjWT+SPO+wylWa6sy6KlEcBt9kNZ3luXWVgrk9duNFNan85NpXlUmspOp6WS0kz5eVOuGhvfioYxXOzxce0RGWrjedcKvO+tDOdtVK5z+U5RTq2NkRn377Iv599ttncX72+csvH38Wv579/MtIvD/5fFLNwWm6ast7W6VoIg5EFKSJtJ/cpPNgLLIUMRJ2NE6TF9efVvC46nvl58nObLfFVfXFJZRxEvpiboeRPPUCO27ZasnfTofyyWdX2WeVOrM8RXsim19CmeOH/8JvL/90Azb/gaW6ofpf+SkocIADHOAABzjAAQ5wgAMc4Lx6nO9/4KKIQumABjSgAQ1oQAMa0IAGNKABDWiKab77SaCiUT/xAw5wgAMc4AAHOMABDnCAAxzg/BcrHn6RN3MZ2nESStE63UbNw/9RNQ//ZasZ915m/zm+uXKlHws1ZKryoXSStP87Yq97+kqKIPZfQxHEfmNFELNHT+sWYWLy02fys8vkZ8DkZ8jkZ4/Jzz6TnwMmP8+qC6zliGtGW1xT2uKa0xbXpLa4ZrXFNa0trnltcU1si2tm97hmdo9treaa2T2umd3TmtnVi/Y9c1W/TN8absgeql+Kbw03ZNzXL7e3hhsy5uuX1FvDDRnva5TNW8cP0zymt7E1iuGt44dpKtN72Bol7tbxwzSb6Q1sjcJ166yDTPOZ3r3WKEe3jh+m+UxvXfWLzD1zs0ZZuXX8kN2zRum4dfyQ4b5Gebh1/JDhvkYJuHX8kOG+Tpm3tRxxzWh6B1uneNtajrgmNb2JrVOSbS1HXPOa3sfWKbS21srINbPprWyd8mlrOeKa2fRuhqJor6IoGswwwwwzzDDDDDPMMMMMM8wwwwwzzP+TzAszuJVh6Dryg62+qLLMLoriP7kSFMV/PFAUX+tAUXwUxdc4UBT/zweK4v/5QFF8zQNF8VEU/8UDRfGBAxzgAAc4wAEOcIADHOAABzivoaQkaEADGtCABjSgAQ1oQAMa0Lwemv9vSlkCBzjAAQ5wgAMc4AAHOMABTn29/0JR/HfujfQjN/A9GUUoif8/qyR+EH4TJ5OJO3alP148FsJvtgR+fvafLE//f/X35X8fved/efzPVeAs1H9n8Y33j//1/wAC2qWn"
               },
               {
                  "name" : "annual_peak_electric_demand",
                  "units" : "kW",
                  "value" : 909.69162000000006
               },
               {
                  "name" : "first_year_capital_cost",
                  "units" : "$",
                  "value" : 0
               },
               {
                  "name" : "annual_utility_cost",
                  "units" : "$",
                  "value" : 0
               },
               {
                  "name" : "total_lifecycle_cost",
                  "units" : "$",
                  "value" : 0
               }
            ],
            "step_warnings" : [ "A table in Annual Overview section returned false and was skipped." ]
         }
      }
   ],
   "updated_at" : "20170710T182942Z",
   "weather_file" : "USA_CO_Denver.Intl.AP.725650_TMY3.epw"
}
