{
   "completed_at" : "20170710T185601Z",
   "completed_status" : "Success",
   "created_at" : "2017-07-10 18:53:08 +0000",
   "current_step" : 5,
   "description" : "",
   "eplusout_err" : "Program Version,EnergyPlus, Version 8.7.0-78a111df4a, YMD=2017.07.10 18:54,IDD_Version 8.7.0\n   ************* IDF Context for following error/warning message:\n   ************* Note -- lines truncated at 300 characters, if necessary...\n   *************      5 Building,\n   ************* indicated Name=NECB 2011-RetailStripmall-NECB HDD Method-CAN_MB_Brandon.711400_CWEC.epw created: 2017-07-10 18:53:14 +0000\n   ************* Only last 1 lines before error line shown.....\n   *************      6   NECB 2011-RetailStripmall-NECB HDD Method-CAN_MB_Brandon.711400_CWEC.epw created: 2017-07-10 18:53:14 +0000, !- Name\n   ** Warning ** IP: IDF line~6 Alpha Argument length exceeds maximum, will be truncated=  NECB 2011-RetailStripmall-NECB HDD Method-CAN_MB_Brandon.711400_CWEC.epw created: 2017-07-10 18:53:14 +000\n   **   ~~~   ** Will be processed as Alpha=NECB 2011-RETAILSTRIPMALL-NECB HDD METHOD-CAN_MB_BRANDON.711400_CWEC.EPW CREATED: 2017-07-10 18:53:14 +0000\n   ************* Beginning Zone Sizing Calculations\n   ** Warning ** ProcessScheduleInput: Schedule:Day:Interval=\"ECONOMIZER MAX OA FRACTION 100 PCT DEFAULT\", Blank Schedule Type Limits Name input -- will not be validated.\n   ** Warning ** ProcessScheduleInput: Schedule:Day:Interval=\"SCHEDULE DAY 1\", Blank Schedule Type Limits Name input -- will not be validated.\n   ** Warning ** ProcessScheduleInput: Schedule:Day:Interval=\"SCHEDULE DAY 10\", Blank Schedule Type Limits Name input -- will not be validated.\n   ** Warning ** ProcessScheduleInput: Schedule:Day:Interval=\"SCHEDULE DAY 11\", Blank Schedule Type Limits Name input -- will not be validated.\n   ** Warning ** ProcessScheduleInput: Schedule:Day:Interval=\"SCHEDULE DAY 12\", Blank Schedule Type Limits Name input -- will not be validated.\n   ** Warning ** ProcessScheduleInput: Schedule:Day:Interval=\"SCHEDULE DAY 13\", Blank Schedule Type Limits Name input -- will not be validated.\n   ** Warning ** ProcessScheduleInput: Schedule:Day:Interval=\"SCHEDULE DAY 14\", Blank Schedule Type Limits Name input -- will not be validated.\n   ** Warning ** ProcessScheduleInput: Schedule:Day:Interval=\"SCHEDULE DAY 15\", Blank Schedule Type Limits Name input -- will not be validated.\n   ** Warning ** ProcessScheduleInput: Schedule:Day:Interval=\"SCHEDULE DAY 16\", Blank Schedule Type Limits Name input -- will not be validated.\n   ** Warning ** ProcessScheduleInput: Schedule:Day:Interval=\"SCHEDULE DAY 17\", Blank Schedule Type Limits Name input -- will not be validated.\n   ** Warning ** ProcessScheduleInput: Schedule:Day:Interval=\"SCHEDULE DAY 18\", Blank Schedule Type Limits Name input -- will not be validated.\n   ** Warning ** ProcessScheduleInput: Schedule:Day:Interval=\"SCHEDULE DAY 19\", Blank Schedule Type Limits Name input -- will not be validated.\n   ** Warning ** ProcessScheduleInput: Schedule:Day:Interval=\"SCHEDULE DAY 2\", Blank Schedule Type Limits Name input -- will not be validated.\n   ** Warning ** ProcessScheduleInput: Schedule:Day:Interval=\"SCHEDULE DAY 20\", Blank Schedule Type Limits Name input -- will not be validated.\n   ** Warning ** ProcessScheduleInput: Schedule:Day:Interval=\"SCHEDULE DAY 21\", Blank Schedule Type Limits Name input -- will not be validated.\n   ** Warning ** ProcessScheduleInput: Schedule:Day:Interval=\"SCHEDULE DAY 22\", Blank Schedule Type Limits Name input -- will not be validated.\n   ** Warning ** ProcessScheduleInput: Schedule:Day:Interval=\"SCHEDULE DAY 23\", Blank Schedule Type Limits Name input -- will not be validated.\n   ** Warning ** ProcessScheduleInput: Schedule:Day:Interval=\"SCHEDULE DAY 24\", Blank Schedule Type Limits Name input -- will not be validated.\n   ** Warning ** ProcessScheduleInput: Schedule:Day:Interval=\"SCHEDULE DAY 25\", Blank Schedule Type Limits Name input -- will not be validated.\n   ** Warning ** ProcessScheduleInput: Schedule:Day:Interval=\"SCHEDULE DAY 26\", Blank Schedule Type Limits Name input -- will not be validated.\n   ** Warning ** ProcessScheduleInput: Schedule:Day:Interval=\"SCHEDULE DAY 27\", Blank Schedule Type Limits Name input -- will not be validated.\n   ** Warning ** ProcessScheduleInput: Schedule:Day:Interval=\"SCHEDULE DAY 28\", Blank Schedule Type Limits Name input -- will not be validated.\n   ** Warning ** ProcessScheduleInput: Schedule:Day:Interval=\"SCHEDULE DAY 29\", Blank Schedule Type Limits Name input -- will not be validated.\n   ** Warning ** ProcessScheduleInput: Schedule:Day:Interval=\"SCHEDULE DAY 30\", Blank Schedule Type Limits Name input -- will not be validated.\n   ** Warning ** ProcessScheduleInput: Schedule:Day:Interval=\"SCHEDULE DAY 31\", Blank Schedule Type Limits Name input -- will not be validated.\n   ** Warning ** ProcessScheduleInput: Schedule:Day:Interval=\"SCHEDULE DAY 32\", Blank Schedule Type Limits Name input -- will not be validated.\n   ** Warning ** ProcessScheduleInput: Schedule:Day:Interval=\"SCHEDULE DAY 33\", Blank Schedule Type Limits Name input -- will not be validated.\n   ** Warning ** ProcessScheduleInput: Schedule:Day:Interval=\"SCHEDULE DAY 34\", Blank Schedule Type Limits Name input -- will not be validated.\n   ** Warning ** ProcessScheduleInput: Schedule:Day:Interval=\"SCHEDULE DAY 35\", Blank Schedule Type Limits Name input -- will not be validated.\n   ** Warning ** ProcessScheduleInput: Schedule:Day:Interval=\"SCHEDULE DAY 36\", Blank Schedule Type Limits Name input -- will not be validated.\n   ** Warning ** ProcessScheduleInput: Schedule:Day:Interval=\"SCHEDULE DAY 37\", Blank Schedule Type Limits Name input -- will not be validated.\n   ** Warning ** ProcessScheduleInput: Schedule:Day:Interval=\"SCHEDULE DAY 38\", Blank Schedule Type Limits Name input -- will not be validated.\n   ** Warning ** ProcessScheduleInput: Schedule:Day:Interval=\"SCHEDULE DAY 39\", Blank Schedule Type Limits Name input -- will not be validated.\n   ** Warning ** ProcessScheduleInput: Schedule:Day:Interval=\"SCHEDULE DAY 40\", Blank Schedule Type Limits Name input -- will not be validated.\n   ** Warning ** ProcessScheduleInput: Schedule:Day:Interval=\"SCHEDULE DAY 41\", Blank Schedule Type Limits Name input -- will not be validated.\n   ** Warning ** ProcessScheduleInput: Schedule:Day:Interval=\"SCHEDULE DAY 42\", Blank Schedule Type Limits Name input -- will not be validated.\n   ** Warning ** ProcessScheduleInput: Schedule:Day:Interval=\"SCHEDULE DAY 43\", Blank Schedule Type Limits Name input -- will not be validated.\n   ** Warning ** ProcessScheduleInput: Schedule:Day:Interval=\"SCHEDULE DAY 44\", Blank Schedule Type Limits Name input -- will not be validated.\n   ** Warning ** ProcessScheduleInput: Schedule:Day:Interval=\"SCHEDULE DAY 45\", Blank Schedule Type Limits Name input -- will not be validated.\n   ** Warning ** ProcessScheduleInput: Schedule:Day:Interval=\"SCHEDULE DAY 46\", Blank Schedule Type Limits Name input -- will not be validated.\n   ** Warning ** ProcessScheduleInput: Schedule:Day:Interval=\"SCHEDULE DAY 47\", Blank Schedule Type Limits Name input -- will not be validated.\n   ** Warning ** ProcessScheduleInput: Schedule:Day:Interval=\"SCHEDULE DAY 48\", Blank Schedule Type Limits Name input -- will not be validated.\n   ** Warning ** ProcessScheduleInput: Schedule:Day:Interval=\"SCHEDULE DAY 49\", Blank Schedule Type Limits Name input -- will not be validated.\n   ** Warning ** ProcessScheduleInput: Schedule:Day:Interval=\"SCHEDULE DAY 5\", Blank Schedule Type Limits Name input -- will not be validated.\n   ** Warning ** ProcessScheduleInput: Schedule:Day:Interval=\"SCHEDULE DAY 50\", Blank Schedule Type Limits Name input -- will not be validated.\n   ** Warning ** ProcessScheduleInput: Schedule:Day:Interval=\"SCHEDULE DAY 51\", Blank Schedule Type Limits Name input -- will not be validated.\n   ** Warning ** ProcessScheduleInput: Schedule:Day:Interval=\"SCHEDULE DAY 52\", Blank Schedule Type Limits Name input -- will not be validated.\n   ** Warning ** ProcessScheduleInput: Schedule:Day:Interval=\"SCHEDULE DAY 53\", Blank Schedule Type Limits Name input -- will not be validated.\n   ** Warning ** ProcessScheduleInput: Schedule:Day:Interval=\"SCHEDULE DAY 54\", Blank Schedule Type Limits Name input -- will not be validated.\n   ** Warning ** ProcessScheduleInput: Schedule:Day:Interval=\"SCHEDULE DAY 6\", Blank Schedule Type Limits Name input -- will not be validated.\n   ** Warning ** ProcessScheduleInput: Schedule:Day:Interval=\"SCHEDULE DAY 7\", Blank Schedule Type Limits Name input -- will not be validated.\n   ** Warning ** ProcessScheduleInput: Schedule:Day:Interval=\"SCHEDULE DAY 8\", Blank Schedule Type Limits Name input -- will not be validated.\n   ** Warning ** ProcessScheduleInput: Schedule:Day:Interval=\"SCHEDULE DAY 9\", Blank Schedule Type Limits Name input -- will not be validated.\n   ** Warning ** ProcessScheduleInput: Schedule:Year=\"ECONOMIZER MAX OA FRACTION 100 PCT\", Blank Schedule Type Limits Name input -- will not be validated.\n   ** Warning ** ProcessScheduleInput: Schedule:Year=\"SCHEDULE RULESET 10\", Blank Schedule Type Limits Name input -- will not be validated.\n   ** Warning ** ProcessScheduleInput: Schedule:Year=\"SCHEDULE RULESET 11\", Blank Schedule Type Limits Name input -- will not be validated.\n   ** Warning ** ProcessScheduleInput: Schedule:Year=\"SCHEDULE RULESET 12\", Blank Schedule Type Limits Name input -- will not be validated.\n   ** Warning ** ProcessScheduleInput: Schedule:Year=\"SCHEDULE RULESET 13\", Blank Schedule Type Limits Name input -- will not be validated.\n   ** Warning ** ProcessScheduleInput: Schedule:Year=\"SCHEDULE RULESET 14\", Blank Schedule Type Limits Name input -- will not be validated.\n   ** Warning ** ProcessScheduleInput: Schedule:Year=\"SCHEDULE RULESET 15\", Blank Schedule Type Limits Name input -- will not be validated.\n   ** Warning ** ProcessScheduleInput: Schedule:Year=\"SCHEDULE RULESET 16\", Blank Schedule Type Limits Name input -- will not be validated.\n   ** Warning ** ProcessScheduleInput: Schedule:Year=\"SCHEDULE RULESET 17\", Blank Schedule Type Limits Name input -- will not be validated.\n   ** Warning ** ProcessScheduleInput: Schedule:Year=\"SCHEDULE RULESET 18\", Blank Schedule Type Limits Name input -- will not be validated.\n   ** Warning ** ProcessScheduleInput: Schedule:Year=\"SCHEDULE RULESET 19\", Blank Schedule Type Limits Name input -- will not be validated.\n   ** Warning ** ProcessScheduleInput: Schedule:Year=\"SCHEDULE RULESET 20\", Blank Schedule Type Limits Name input -- will not be validated.\n   ** Warning ** ProcessScheduleInput: Schedule:Year=\"SCHEDULE RULESET 21\", Blank Schedule Type Limits Name input -- will not be validated.\n   ** Warning ** ProcessScheduleInput: Schedule:Year=\"SCHEDULE RULESET 22\", Blank Schedule Type Limits Name input -- will not be validated.\n   ** Warning ** ProcessScheduleInput: Schedule:Year=\"SCHEDULE RULESET 23\", Blank Schedule Type Limits Name input -- will not be validated.\n   ** Warning ** ProcessScheduleInput: Schedule:Year=\"SCHEDULE RULESET 24\", Blank Schedule Type Limits Name input -- will not be validated.\n   ** Warning ** ProcessScheduleInput: Schedule:Year=\"SCHEDULE RULESET 25\", Blank Schedule Type Limits Name input -- will not be validated.\n   ** Warning ** ProcessScheduleInput: Schedule:Year=\"SCHEDULE RULESET 26\", Blank Schedule Type Limits Name input -- will not be validated.\n   ** Warning ** ProcessScheduleInput: Schedule:Year=\"SCHEDULE RULESET 27\", Blank Schedule Type Limits Name input -- will not be validated.\n   ** Warning ** ProcessScheduleInput: Schedule:Year=\"SCHEDULE RULESET 28\", Blank Schedule Type Limits Name input -- will not be validated.\n   ** Warning ** ProcessScheduleInput: Schedule:Year=\"SCHEDULE RULESET 29\", Blank Schedule Type Limits Name input -- will not be validated.\n   ** Warning ** ProcessScheduleInput: Schedule:Year=\"SCHEDULE RULESET 3\", Blank Schedule Type Limits Name input -- will not be validated.\n   ** Warning ** ProcessScheduleInput: Schedule:Year=\"SCHEDULE RULESET 30\", Blank Schedule Type Limits Name input -- will not be validated.\n   ** Warning ** ProcessScheduleInput: Schedule:Year=\"SCHEDULE RULESET 31\", Blank Schedule Type Limits Name input -- will not be validated.\n   ** Warning ** ProcessScheduleInput: Schedule:Year=\"SCHEDULE RULESET 32\", Blank Schedule Type Limits Name input -- will not be validated.\n   ** Warning ** ProcessScheduleInput: Schedule:Year=\"SCHEDULE RULESET 4\", Blank Schedule Type Limits Name input -- will not be validated.\n   ** Warning ** ProcessScheduleInput: Schedule:Year=\"SCHEDULE RULESET 5\", Blank Schedule Type Limits Name input -- will not be validated.\n   ** Warning ** ProcessScheduleInput: Schedule:Year=\"SCHEDULE RULESET 6\", Blank Schedule Type Limits Name input -- will not be validated.\n   ** Warning ** ProcessScheduleInput: Schedule:Year=\"SCHEDULE RULESET 7\", Blank Schedule Type Limits Name input -- will not be validated.\n   ** Warning ** ProcessScheduleInput: Schedule:Year=\"SCHEDULE RULESET 8\", Blank Schedule Type Limits Name input -- will not be validated.\n   ** Warning ** ProcessScheduleInput: Schedule:Year=\"SCHEDULE RULESET 9\", Blank Schedule Type Limits Name input -- will not be validated.\n   ** Warning ** ProcessScheduleInput: Schedule:Constant=\"ALWAYS OFF DISCRETE\", Blank Schedule Type Limits Name input -- will not be validated.\n   ** Warning ** ProcessScheduleInput: Schedule:Constant=\"ALWAYS ON CONTINUOUS\", Blank Schedule Type Limits Name input -- will not be validated.\n   ** Warning ** CheckUsedConstructions: There are 24 nominally unused constructions in input.\n   **   ~~~   ** For explicit details on each unused construction, use Output:Diagnostics,DisplayExtraWarnings;\n   ************* Beginning System Sizing Calculations\n   ************* Beginning Plant Sizing Calculations\n   ** Warning ** GetDXCoils: Coil:Cooling:DX:SingleSpeed=\"COIL COOLING DX SINGLE SPEED 10 74KBTU/HR 9.7EER\", invalid\n   **   ~~~   ** ...Part Load Fraction Correlation Curve Name = DXCOOL-NECB2011-REF-COOLPLFFPLR 1 has out of range value.\n   **   ~~~   ** ...Curve maximum must be <= 1.0, curve max at PLR = 0.99 is 1.015\n   **   ~~~   ** ...Setting curve maximum to 1.0 and simulation continues.\n   ** Warning ** GetDXCoils: Coil:Cooling:DX:SingleSpeed=\"COIL COOLING DX SINGLE SPEED 1 73KBTU/HR 9.7EER\", invalid\n   **   ~~~   ** ...Part Load Fraction Correlation Curve Name = DXCOOL-NECB2011-REF-COOLPLFFPLR has out of range value.\n   **   ~~~   ** ...Curve maximum must be <= 1.0, curve max at PLR = 0.99 is 1.015\n   **   ~~~   ** ...Setting curve maximum to 1.0 and simulation continues.\n   ** Warning ** GetDXCoils: Coil:Cooling:DX:SingleSpeed=\"COIL COOLING DX SINGLE SPEED 3 38KBTU/HR 14.0SEER\", invalid\n   **   ~~~   ** ...Part Load Fraction Correlation Curve Name = DXCOOL-NECB2011-REF-COOLPLFFPLR 3 has out of range value.\n   **   ~~~   ** ...Curve maximum must be <= 1.0, curve max at PLR = 0.99 is 1.015\n   **   ~~~   ** ...Setting curve maximum to 1.0 and simulation continues.\n   ** Warning ** GetDXCoils: Coil:Cooling:DX:SingleSpeed=\"COIL COOLING DX SINGLE SPEED 2 37KBTU/HR 14.0SEER\", invalid\n   **   ~~~   ** ...Part Load Fraction Correlation Curve Name = DXCOOL-NECB2011-REF-COOLPLFFPLR 2 has out of range value.\n   **   ~~~   ** ...Curve maximum must be <= 1.0, curve max at PLR = 0.99 is 1.015\n   **   ~~~   ** ...Setting curve maximum to 1.0 and simulation continues.\n   ** Warning ** GetDXCoils: Coil:Cooling:DX:SingleSpeed=\"COIL COOLING DX SINGLE SPEED 6 37KBTU/HR 14.0SEER\", invalid\n   **   ~~~   ** ...Part Load Fraction Correlation Curve Name = DXCOOL-NECB2011-REF-COOLPLFFPLR 6 has out of range value.\n   **   ~~~   ** ...Curve maximum must be <= 1.0, curve max at PLR = 0.99 is 1.015\n   **   ~~~   ** ...Setting curve maximum to 1.0 and simulation continues.\n   ** Warning ** GetDXCoils: Coil:Cooling:DX:SingleSpeed=\"COIL COOLING DX SINGLE SPEED 8 38KBTU/HR 14.0SEER\", invalid\n   **   ~~~   ** ...Part Load Fraction Correlation Curve Name = DXCOOL-NECB2011-REF-COOLPLFFPLR 8 has out of range value.\n   **   ~~~   ** ...Curve maximum must be <= 1.0, curve max at PLR = 0.99 is 1.015\n   **   ~~~   ** ...Setting curve maximum to 1.0 and simulation continues.\n   ** Warning ** GetDXCoils: Coil:Cooling:DX:SingleSpeed=\"COIL COOLING DX SINGLE SPEED 7 38KBTU/HR 14.0SEER\", invalid\n   **   ~~~   ** ...Part Load Fraction Correlation Curve Name = DXCOOL-NECB2011-REF-COOLPLFFPLR 7 has out of range value.\n   **   ~~~   ** ...Curve maximum must be <= 1.0, curve max at PLR = 0.99 is 1.015\n   **   ~~~   ** ...Setting curve maximum to 1.0 and simulation continues.\n   ** Warning ** GetDXCoils: Coil:Cooling:DX:SingleSpeed=\"COIL COOLING DX SINGLE SPEED 5 37KBTU/HR 14.0SEER\", invalid\n   **   ~~~   ** ...Part Load Fraction Correlation Curve Name = DXCOOL-NECB2011-REF-COOLPLFFPLR 5 has out of range value.\n   **   ~~~   ** ...Curve maximum must be <= 1.0, curve max at PLR = 0.99 is 1.015\n   **   ~~~   ** ...Setting curve maximum to 1.0 and simulation continues.\n   ** Warning ** GetDXCoils: Coil:Cooling:DX:SingleSpeed=\"COIL COOLING DX SINGLE SPEED 4 37KBTU/HR 14.0SEER\", invalid\n   **   ~~~   ** ...Part Load Fraction Correlation Curve Name = DXCOOL-NECB2011-REF-COOLPLFFPLR 4 has out of range value.\n   **   ~~~   ** ...Curve maximum must be <= 1.0, curve max at PLR = 0.99 is 1.015\n   **   ~~~   ** ...Setting curve maximum to 1.0 and simulation continues.\n   ** Warning ** GetDXCoils: Coil:Cooling:DX:SingleSpeed=\"COIL COOLING DX SINGLE SPEED 9 39KBTU/HR 14.0SEER\", invalid\n   **   ~~~   ** ...Part Load Fraction Correlation Curve Name = DXCOOL-NECB2011-REF-COOLPLFFPLR 9 has out of range value.\n   **   ~~~   ** ...Curve maximum must be <= 1.0, curve max at PLR = 0.99 is 1.015\n   **   ~~~   ** ...Setting curve maximum to 1.0 and simulation continues.\n   ** Warning ** The Standard Ratings is calculated for Coil:Cooling:DX:SingleSpeed = COIL COOLING DX SINGLE SPEED 10 74KBTU/HR 9.7EER but not at the AHRI test condition due to curve out of bound.\n   **   ~~~   **  Review the Standard Ratings calculations in the Engineering Reference for this coil type. Also, use Output:Diagnostics, DisplayExtraWarnings for further guidance.\n   ** Warning ** The Standard Ratings is calculated for Coil:Cooling:DX:SingleSpeed = COIL COOLING DX SINGLE SPEED 1 73KBTU/HR 9.7EER but not at the AHRI test condition due to curve out of bound.\n   **   ~~~   **  Review the Standard Ratings calculations in the Engineering Reference for this coil type. Also, use Output:Diagnostics, DisplayExtraWarnings for further guidance.\n   ** Warning ** The Standard Ratings is calculated for Coil:Cooling:DX:SingleSpeed = COIL COOLING DX SINGLE SPEED 3 38KBTU/HR 14.0SEER but not at the AHRI test condition due to curve out of bound.\n   **   ~~~   **  Review the Standard Ratings calculations in the Engineering Reference for this coil type. Also, use Output:Diagnostics, DisplayExtraWarnings for further guidance.\n   ** Warning ** The Standard Ratings is calculated for Coil:Cooling:DX:SingleSpeed = COIL COOLING DX SINGLE SPEED 2 37KBTU/HR 14.0SEER but not at the AHRI test condition due to curve out of bound.\n   **   ~~~   **  Review the Standard Ratings calculations in the Engineering Reference for this coil type. Also, use Output:Diagnostics, DisplayExtraWarnings for further guidance.\n   ** Warning ** The Standard Ratings is calculated for Coil:Cooling:DX:SingleSpeed = COIL COOLING DX SINGLE SPEED 6 37KBTU/HR 14.0SEER but not at the AHRI test condition due to curve out of bound.\n   **   ~~~   **  Review the Standard Ratings calculations in the Engineering Reference for this coil type. Also, use Output:Diagnostics, DisplayExtraWarnings for further guidance.\n   ** Warning ** The Standard Ratings is calculated for Coil:Cooling:DX:SingleSpeed = COIL COOLING DX SINGLE SPEED 8 38KBTU/HR 14.0SEER but not at the AHRI test condition due to curve out of bound.\n   **   ~~~   **  Review the Standard Ratings calculations in the Engineering Reference for this coil type. Also, use Output:Diagnostics, DisplayExtraWarnings for further guidance.\n   ** Warning ** The Standard Ratings is calculated for Coil:Cooling:DX:SingleSpeed = COIL COOLING DX SINGLE SPEED 7 38KBTU/HR 14.0SEER but not at the AHRI test condition due to curve out of bound.\n   **   ~~~   **  Review the Standard Ratings calculations in the Engineering Reference for this coil type. Also, use Output:Diagnostics, DisplayExtraWarnings for further guidance.\n   ** Warning ** The Standard Ratings is calculated for Coil:Cooling:DX:SingleSpeed = COIL COOLING DX SINGLE SPEED 5 37KBTU/HR 14.0SEER but not at the AHRI test condition due to curve out of bound.\n   **   ~~~   **  Review the Standard Ratings calculations in the Engineering Reference for this coil type. Also, use Output:Diagnostics, DisplayExtraWarnings for further guidance.\n   ** Warning ** The Standard Ratings is calculated for Coil:Cooling:DX:SingleSpeed = COIL COOLING DX SINGLE SPEED 4 37KBTU/HR 14.0SEER but not at the AHRI test condition due to curve out of bound.\n   **   ~~~   **  Review the Standard Ratings calculations in the Engineering Reference for this coil type. Also, use Output:Diagnostics, DisplayExtraWarnings for further guidance.\n   ** Warning ** The Standard Ratings is calculated for Coil:Cooling:DX:SingleSpeed = COIL COOLING DX SINGLE SPEED 9 39KBTU/HR 14.0SEER but not at the AHRI test condition due to curve out of bound.\n   **   ~~~   **  Review the Standard Ratings calculations in the Engineering Reference for this coil type. Also, use Output:Diagnostics, DisplayExtraWarnings for further guidance.\n   ** Warning ** Check input. Pump nominal power or motor efficiency is set to 0, for pump=SERVICE WATER LOOP PUMP\n   ** Warning ** Output:Meter: invalid Name=\"GAS:FACILITY\" - not found.\n   ** Warning ** Output:Meter: invalid Name=\"DISTRICTCOOLING:FACILITY\" - not found.\n   ** Warning ** Output:Meter: invalid Name=\"DISTRICTHEATING:FACILITY\" - not found.\n   ** Warning ** Output:Meter:MeterFileOnly: invalid Name=\"GAS:FACILITY\" - not found.\n   ** Warning ** Output:Meter:MeterFileOnly requested for \"Electricity:Facility\" (TimeStep), already on \"Output:Meter\". Will report to both eplusout.eso and eplusout.mtr\n   ************* Testing Individual Branch Integrity\n   ************* All Branches passed integrity testing\n   ************* Testing Individual Supply Air Path Integrity\n   ************* All Supply Air Paths passed integrity testing\n   ************* Testing Individual Return Air Path Integrity\n   ************* All Return Air Paths passed integrity testing\n   ************* No node connection errors were found.\n   ************* Beginning Simulation\n   ** Warning ** CalcDoe2DXCoil: Coil:Cooling:DX:SingleSpeed \"COIL COOLING DX SINGLE SPEED 3 38KBTU/HR 14.0SEER\" - Air-cooled condenser inlet dry-bulb temperature below 0 C. Outdoor dry-bulb temperature = -24.28\n   **   ~~~   **  ... Occurrence info = RUN PERIOD 1, 01/01 09:02 - 09:05\n   **   ~~~   ** ... Operation at low ambient temperatures may require special performance curves.\n   ** Warning ** CalcDoe2DXCoil: Coil:Cooling:DX:SingleSpeed \"COIL COOLING DX SINGLE SPEED 2 37KBTU/HR 14.0SEER\" - Air-cooled condenser inlet dry-bulb temperature below 0 C. Outdoor dry-bulb temperature = -24.28\n   **   ~~~   **  ... Occurrence info = RUN PERIOD 1, 01/01 09:02 - 09:05\n   **   ~~~   ** ... Operation at low ambient temperatures may require special performance curves.\n   ** Warning ** CalcDoe2DXCoil: Coil:Cooling:DX:SingleSpeed \"COIL COOLING DX SINGLE SPEED 6 37KBTU/HR 14.0SEER\" - Air-cooled condenser inlet dry-bulb temperature below 0 C. Outdoor dry-bulb temperature = -24.28\n   **   ~~~   **  ... Occurrence info = RUN PERIOD 1, 01/01 09:02 - 09:05\n   **   ~~~   ** ... Operation at low ambient temperatures may require special performance curves.\n   ** Warning ** CalcDoe2DXCoil: Coil:Cooling:DX:SingleSpeed \"COIL COOLING DX SINGLE SPEED 8 38KBTU/HR 14.0SEER\" - Air-cooled condenser inlet dry-bulb temperature below 0 C. Outdoor dry-bulb temperature = -24.28\n   **   ~~~   **  ... Occurrence info = RUN PERIOD 1, 01/01 09:02 - 09:05\n   **   ~~~   ** ... Operation at low ambient temperatures may require special performance curves.\n   ** Warning ** CalcDoe2DXCoil: Coil:Cooling:DX:SingleSpeed \"COIL COOLING DX SINGLE SPEED 7 38KBTU/HR 14.0SEER\" - Air-cooled condenser inlet dry-bulb temperature below 0 C. Outdoor dry-bulb temperature = -24.28\n   **   ~~~   **  ... Occurrence info = RUN PERIOD 1, 01/01 09:02 - 09:05\n   **   ~~~   ** ... Operation at low ambient temperatures may require special performance curves.\n   ** Warning ** CalcDoe2DXCoil: Coil:Cooling:DX:SingleSpeed \"COIL COOLING DX SINGLE SPEED 5 37KBTU/HR 14.0SEER\" - Air-cooled condenser inlet dry-bulb temperature below 0 C. Outdoor dry-bulb temperature = -24.28\n   **   ~~~   **  ... Occurrence info = RUN PERIOD 1, 01/01 09:02 - 09:05\n   **   ~~~   ** ... Operation at low ambient temperatures may require special performance curves.\n   ** Warning ** CalcDoe2DXCoil: Coil:Cooling:DX:SingleSpeed \"COIL COOLING DX SINGLE SPEED 4 37KBTU/HR 14.0SEER\" - Air-cooled condenser inlet dry-bulb temperature below 0 C. Outdoor dry-bulb temperature = -24.28\n   **   ~~~   **  ... Occurrence info = RUN PERIOD 1, 01/01 09:02 - 09:05\n   **   ~~~   ** ... Operation at low ambient temperatures may require special performance curves.\n   ** Warning ** CalcDoe2DXCoil: Coil:Cooling:DX:SingleSpeed \"COIL COOLING DX SINGLE SPEED 9 39KBTU/HR 14.0SEER\" - Air-cooled condenser inlet dry-bulb temperature below 0 C. Outdoor dry-bulb temperature = -24.28\n   **   ~~~   **  ... Occurrence info = RUN PERIOD 1, 01/01 09:02 - 09:05\n   **   ~~~   ** ... Operation at low ambient temperatures may require special performance curves.\n   ** Warning ** CalcDoe2DXCoil: Coil:Cooling:DX:SingleSpeed \"COIL COOLING DX SINGLE SPEED 3 38KBTU/HR 14.0SEER\" - Full load outlet air dry-bulb temperature < 2C. This indicates the possibility of coil frost/freeze. Outlet temperature = -1.45 C.\n   **   ~~~   **  ...Occurrence info = RUN PERIOD 1, 01/16 12:45 - 13:00\n   **   ~~~   ** ... Possible reasons for low outlet air dry-bulb temperatures are: This DX coil\n   **   ~~~   **    1) may have a low inlet air dry-bulb temperature. Inlet air temperature = 14.535 C.\n   **   ~~~   **    2) may have a low air flow rate per watt of cooling capacity. Check inputs.\n   **   ~~~   **    3) is used as part of a HX assisted cooling coil which uses a high sensible effectiveness. Check inputs.\n   ** Warning ** CalcDoe2DXCoil: Coil:Cooling:DX:SingleSpeed \"COIL COOLING DX SINGLE SPEED 2 37KBTU/HR 14.0SEER\" - Full load outlet air dry-bulb temperature < 2C. This indicates the possibility of coil frost/freeze. Outlet temperature = -1.73 C.\n   **   ~~~   **  ...Occurrence info = RUN PERIOD 1, 01/16 12:45 - 13:00\n   **   ~~~   ** ... Possible reasons for low outlet air dry-bulb temperatures are: This DX coil\n   **   ~~~   **    1) may have a low inlet air dry-bulb temperature. Inlet air temperature = 14.332 C.\n   **   ~~~   **    2) may have a low air flow rate per watt of cooling capacity. Check inputs.\n   **   ~~~   **    3) is used as part of a HX assisted cooling coil which uses a high sensible effectiveness. Check inputs.\n   ** Warning ** CalcDoe2DXCoil: Coil:Cooling:DX:SingleSpeed \"COIL COOLING DX SINGLE SPEED 6 37KBTU/HR 14.0SEER\" - Full load outlet air dry-bulb temperature < 2C. This indicates the possibility of coil frost/freeze. Outlet temperature = -1.73 C.\n   **   ~~~   **  ...Occurrence info = RUN PERIOD 1, 01/16 12:45 - 13:00\n   **   ~~~   ** ... Possible reasons for low outlet air dry-bulb temperatures are: This DX coil\n   **   ~~~   **    1) may have a low inlet air dry-bulb temperature. Inlet air temperature = 14.329 C.\n   **   ~~~   **    2) may have a low air flow rate per watt of cooling capacity. Check inputs.\n   **   ~~~   **    3) is used as part of a HX assisted cooling coil which uses a high sensible effectiveness. Check inputs.\n   ** Warning ** CalcDoe2DXCoil: Coil:Cooling:DX:SingleSpeed \"COIL COOLING DX SINGLE SPEED 8 38KBTU/HR 14.0SEER\" - Full load outlet air dry-bulb temperature < 2C. This indicates the possibility of coil frost/freeze. Outlet temperature = -1.48 C.\n   **   ~~~   **  ...Occurrence info = RUN PERIOD 1, 01/16 12:45 - 13:00\n   **   ~~~   ** ... Possible reasons for low outlet air dry-bulb temperatures are: This DX coil\n   **   ~~~   **    1) may have a low inlet air dry-bulb temperature. Inlet air temperature = 14.515 C.\n   **   ~~~   **    2) may have a low air flow rate per watt of cooling capacity. Check inputs.\n   **   ~~~   **    3) is used as part of a HX assisted cooling coil which uses a high sensible effectiveness. Check inputs.\n   ** Warning ** CalcDoe2DXCoil: Coil:Cooling:DX:SingleSpeed \"COIL COOLING DX SINGLE SPEED 7 38KBTU/HR 14.0SEER\" - Full load outlet air dry-bulb temperature < 2C. This indicates the possibility of coil frost/freeze. Outlet temperature = -1.48 C.\n   **   ~~~   **  ...Occurrence info = RUN PERIOD 1, 01/16 12:45 - 13:00\n   **   ~~~   ** ... Possible reasons for low outlet air dry-bulb temperatures are: This DX coil\n   **   ~~~   **    1) may have a low inlet air dry-bulb temperature. Inlet air temperature = 14.515 C.\n   **   ~~~   **    2) may have a low air flow rate per watt of cooling capacity. Check inputs.\n   **   ~~~   **    3) is used as part of a HX assisted cooling coil which uses a high sensible effectiveness. Check inputs.\n   ** Warning ** CalcDoe2DXCoil: Coil:Cooling:DX:SingleSpeed \"COIL COOLING DX SINGLE SPEED 5 37KBTU/HR 14.0SEER\" - Full load outlet air dry-bulb temperature < 2C. This indicates the possibility of coil frost/freeze. Outlet temperature = -1.73 C.\n   **   ~~~   **  ...Occurrence info = RUN PERIOD 1, 01/16 12:45 - 13:00\n   **   ~~~   ** ... Possible reasons for low outlet air dry-bulb temperatures are: This DX coil\n   **   ~~~   **    1) may have a low inlet air dry-bulb temperature. Inlet air temperature = 14.328 C.\n   **   ~~~   **    2) may have a low air flow rate per watt of cooling capacity. Check inputs.\n   **   ~~~   **    3) is used as part of a HX assisted cooling coil which uses a high sensible effectiveness. Check inputs.\n   ** Warning ** CalcDoe2DXCoil: Coil:Cooling:DX:SingleSpeed \"COIL COOLING DX SINGLE SPEED 4 37KBTU/HR 14.0SEER\" - Full load outlet air dry-bulb temperature < 2C. This indicates the possibility of coil frost/freeze. Outlet temperature = -1.47 C.\n   **   ~~~   **  ...Occurrence info = RUN PERIOD 1, 01/16 13:00 - 13:15\n   **   ~~~   ** ... Possible reasons for low outlet air dry-bulb temperatures are: This DX coil\n   **   ~~~   **    1) may have a low inlet air dry-bulb temperature. Inlet air temperature = 14.582 C.\n   **   ~~~   **    2) may have a low air flow rate per watt of cooling capacity. Check inputs.\n   **   ~~~   **    3) is used as part of a HX assisted cooling coil which uses a high sensible effectiveness. Check inputs.\n   ** Warning ** CalcDoe2DXCoil: Coil:Cooling:DX:SingleSpeed \"COIL COOLING DX SINGLE SPEED 9 39KBTU/HR 14.0SEER\" - Full load outlet air dry-bulb temperature < 2C. This indicates the possibility of coil frost/freeze. Outlet temperature = -0.48 C.\n   **   ~~~   **  ...Occurrence info = RUN PERIOD 1, 03/11 13:38 - 13:45\n   **   ~~~   ** ... Possible reasons for low outlet air dry-bulb temperatures are: This DX coil\n   **   ~~~   **    1) may have a low inlet air dry-bulb temperature. Inlet air temperature = 15.524 C.\n   **   ~~~   **    2) may have a low air flow rate per watt of cooling capacity. Check inputs.\n   **   ~~~   **    3) is used as part of a HX assisted cooling coil which uses a high sensible effectiveness. Check inputs.\n   ** Warning ** CalcDoe2DXCoil: Coil:Cooling:DX:SingleSpeed \"COIL COOLING DX SINGLE SPEED 1 73KBTU/HR 9.7EER\" - Full load outlet air dry-bulb temperature < 2C. This indicates the possibility of coil frost/freeze. Outlet temperature = 1.40 C.\n   **   ~~~   **  ...Occurrence info = RUN PERIOD 1, 04/15 12:15 - 12:30\n   **   ~~~   ** ... Possible reasons for low outlet air dry-bulb temperatures are: This DX coil\n   **   ~~~   **    1) may have a low inlet air dry-bulb temperature. Inlet air temperature = 16.050 C.\n   **   ~~~   **    2) may have a low air flow rate per watt of cooling capacity. Check inputs.\n   **   ~~~   **    3) is used as part of a HX assisted cooling coil which uses a high sensible effectiveness. Check inputs.\n   ** Warning ** CalcDoe2DXCoil: Coil:Cooling:DX:SingleSpeed \"COIL COOLING DX SINGLE SPEED 10 74KBTU/HR 9.7EER\" - Full load outlet air dry-bulb temperature < 2C. This indicates the possibility of coil frost/freeze. Outlet temperature = 1.86 C.\n   **   ~~~   **  ...Occurrence info = RUN PERIOD 1, 04/15 12:30 - 12:45\n   **   ~~~   ** ... Possible reasons for low outlet air dry-bulb temperatures are: This DX coil\n   **   ~~~   **    1) may have a low inlet air dry-bulb temperature. Inlet air temperature = 16.425 C.\n   **   ~~~   **    2) may have a low air flow rate per watt of cooling capacity. Check inputs.\n   **   ~~~   **    3) is used as part of a HX assisted cooling coil which uses a high sensible effectiveness. Check inputs.\n   ************* Simulation Error Summary *************\n   ************* There are 9 unused schedules in input.\n   ************* There are 9 unused week schedules in input.\n   ************* There are 32 unused day schedules in input.\n   ************* Use Output:Diagnostics,DisplayUnusedSchedules; to see them.\n   *************\n   ************* ===== Recurring Error Summary =====\n   ************* The following recurring error messages occurred.\n   *************\n   *************  ** Warning ** CalcDoe2DXCoil: Coil:Cooling:DX:SingleSpeed=\"COIL COOLING DX SINGLE SPEED 3 38KBTU/HR 14.0SEER\" - Low condenser dry-bulb temperature error continues...\n   *************  **   ~~~   **   This error occurred 296 total times;\n   *************  **   ~~~   **   during Warmup 0 times;\n   *************  **   ~~~   **   during Sizing 0 times.\n   *************  **   ~~~   **   Max=-7.500000E-002 [C]  Min=-32.35 [C]\n   *************\n   *************  ** Warning ** CalcDoe2DXCoil: Coil:Cooling:DX:SingleSpeed=\"COIL COOLING DX SINGLE SPEED 2 37KBTU/HR 14.0SEER\" - Low condenser dry-bulb temperature error continues...\n   *************  **   ~~~   **   This error occurred 285 total times;\n   *************  **   ~~~   **   during Warmup 0 times;\n   *************  **   ~~~   **   during Sizing 0 times.\n   *************  **   ~~~   **   Max=-7.500000E-002 [C]  Min=-32.35 [C]\n   *************\n   *************  ** Warning ** CalcDoe2DXCoil: Coil:Cooling:DX:SingleSpeed=\"COIL COOLING DX SINGLE SPEED 6 37KBTU/HR 14.0SEER\" - Low condenser dry-bulb temperature error continues...\n   *************  **   ~~~   **   This error occurred 286 total times;\n   *************  **   ~~~   **   during Warmup 0 times;\n   *************  **   ~~~   **   during Sizing 0 times.\n   *************  **   ~~~   **   Max=-7.500000E-002 [C]  Min=-32.35 [C]\n   *************\n   *************  ** Warning ** CalcDoe2DXCoil: Coil:Cooling:DX:SingleSpeed=\"COIL COOLING DX SINGLE SPEED 8 38KBTU/HR 14.0SEER\" - Low condenser dry-bulb temperature error continues...\n   *************  **   ~~~   **   This error occurred 296 total times;\n   *************  **   ~~~   **   during Warmup 0 times;\n   *************  **   ~~~   **   during Sizing 0 times.\n   *************  **   ~~~   **   Max=-7.500000E-002 [C]  Min=-32.35 [C]\n   *************\n   *************  ** Warning ** CalcDoe2DXCoil: Coil:Cooling:DX:SingleSpeed=\"COIL COOLING DX SINGLE SPEED 7 38KBTU/HR 14.0SEER\" - Low condenser dry-bulb temperature error continues...\n   *************  **   ~~~   **   This error occurred 296 total times;\n   *************  **   ~~~   **   during Warmup 0 times;\n   *************  **   ~~~   **   during Sizing 0 times.\n   *************  **   ~~~   **   Max=-7.500000E-002 [C]  Min=-32.35 [C]\n   *************\n   *************  ** Warning ** CalcDoe2DXCoil: Coil:Cooling:DX:SingleSpeed=\"COIL COOLING DX SINGLE SPEED 5 37KBTU/HR 14.0SEER\" - Low condenser dry-bulb temperature error continues...\n   *************  **   ~~~   **   This error occurred 284 total times;\n   *************  **   ~~~   **   during Warmup 0 times;\n   *************  **   ~~~   **   during Sizing 0 times.\n   *************  **   ~~~   **   Max=-7.500000E-002 [C]  Min=-32.35 [C]\n   *************\n   *************  ** Warning ** CalcDoe2DXCoil: Coil:Cooling:DX:SingleSpeed=\"COIL COOLING DX SINGLE SPEED 4 37KBTU/HR 14.0SEER\" - Low condenser dry-bulb temperature error continues...\n   *************  **   ~~~   **   This error occurred 282 total times;\n   *************  **   ~~~   **   during Warmup 0 times;\n   *************  **   ~~~   **   during Sizing 0 times.\n   *************  **   ~~~   **   Max=-7.500000E-002 [C]  Min=-32.35 [C]\n   *************\n   *************  ** Warning ** CalcDoe2DXCoil: Coil:Cooling:DX:SingleSpeed=\"COIL COOLING DX SINGLE SPEED 9 39KBTU/HR 14.0SEER\" - Low condenser dry-bulb temperature error continues...\n   *************  **   ~~~   **   This error occurred 262 total times;\n   *************  **   ~~~   **   during Warmup 0 times;\n   *************  **   ~~~   **   during Sizing 0 times.\n   *************  **   ~~~   **   Max=-7.500000E-002 [C]  Min=-32.35 [C]\n   *************\n   *************  ** Warning ** CalcDoe2DXCoil: Coil:Cooling:DX:SingleSpeed=\"COIL COOLING DX SINGLE SPEED 3 38KBTU/HR 14.0SEER\" - Full load outlet temperature indicates a possibility of frost/freeze error continues. Outlet air temperature statistics follow:\n   *************  **   ~~~   **   This error occurred 197 total times;\n   *************  **   ~~~   **   during Warmup 0 times;\n   *************  **   ~~~   **   during Sizing 0 times.\n   *************  **   ~~~   **   Max=1.975081  Min=-2.353154\n   *************\n   *************  ** Warning ** CalcDoe2DXCoil: Coil:Cooling:DX:SingleSpeed=\"COIL COOLING DX SINGLE SPEED 2 37KBTU/HR 14.0SEER\" - Full load outlet temperature indicates a possibility of frost/freeze error continues. Outlet air temperature statistics follow:\n   *************  **   ~~~   **   This error occurred 193 total times;\n   *************  **   ~~~   **   during Warmup 0 times;\n   *************  **   ~~~   **   during Sizing 0 times.\n   *************  **   ~~~   **   Max=1.989608  Min=-2.231784\n   *************\n   *************  ** Warning ** CalcDoe2DXCoil: Coil:Cooling:DX:SingleSpeed=\"COIL COOLING DX SINGLE SPEED 6 37KBTU/HR 14.0SEER\" - Full load outlet temperature indicates a possibility of frost/freeze error continues. Outlet air temperature statistics follow:\n   *************  **   ~~~   **   This error occurred 194 total times;\n   *************  **   ~~~   **   during Warmup 0 times;\n   *************  **   ~~~   **   during Sizing 0 times.\n   *************  **   ~~~   **   Max=1.986918  Min=-2.235292\n   *************\n   *************  ** Warning ** CalcDoe2DXCoil: Coil:Cooling:DX:SingleSpeed=\"COIL COOLING DX SINGLE SPEED 8 38KBTU/HR 14.0SEER\" - Full load outlet temperature indicates a possibility of frost/freeze error continues. Outlet air temperature statistics follow:\n   *************  **   ~~~   **   This error occurred 205 total times;\n   *************  **   ~~~   **   during Warmup 0 times;\n   *************  **   ~~~   **   during Sizing 0 times.\n   *************  **   ~~~   **   Max=1.986223  Min=-2.384947\n   *************\n   *************  ** Warning ** CalcDoe2DXCoil: Coil:Cooling:DX:SingleSpeed=\"COIL COOLING DX SINGLE SPEED 7 38KBTU/HR 14.0SEER\" - Full load outlet temperature indicates a possibility of frost/freeze error continues. Outlet air temperature statistics follow:\n   *************  **   ~~~   **   This error occurred 205 total times;\n   *************  **   ~~~   **   during Warmup 0 times;\n   *************  **   ~~~   **   during Sizing 0 times.\n   *************  **   ~~~   **   Max=1.986357  Min=-2.384939\n   *************\n   *************  ** Warning ** CalcDoe2DXCoil: Coil:Cooling:DX:SingleSpeed=\"COIL COOLING DX SINGLE SPEED 5 37KBTU/HR 14.0SEER\" - Full load outlet temperature indicates a possibility of frost/freeze error continues. Outlet air temperature statistics follow:\n   *************  **   ~~~   **   This error occurred 189 total times;\n   *************  **   ~~~   **   during Warmup 0 times;\n   *************  **   ~~~   **   during Sizing 0 times.\n   *************  **   ~~~   **   Max=1.98354  Min=-2.235884\n   *************\n   *************  ** Warning ** CalcDoe2DXCoil: Coil:Cooling:DX:SingleSpeed=\"COIL COOLING DX SINGLE SPEED 4 37KBTU/HR 14.0SEER\" - Full load outlet temperature indicates a possibility of frost/freeze error continues. Outlet air temperature statistics follow:\n   *************  **   ~~~   **   This error occurred 175 total times;\n   *************  **   ~~~   **   during Warmup 0 times;\n   *************  **   ~~~   **   during Sizing 0 times.\n   *************  **   ~~~   **   Max=1.998943  Min=-2.239848\n   *************\n   *************  ** Warning ** CalcDoe2DXCoil: Coil:Cooling:DX:SingleSpeed=\"COIL COOLING DX SINGLE SPEED 9 39KBTU/HR 14.0SEER\" - Full load outlet temperature indicates a possibility of frost/freeze error continues. Outlet air temperature statistics follow:\n   *************  **   ~~~   **   This error occurred 88 total times;\n   *************  **   ~~~   **   during Warmup 0 times;\n   *************  **   ~~~   **   during Sizing 0 times.\n   *************  **   ~~~   **   Max=1.960822  Min=-1.698964\n   *************\n   *************  ** Warning ** CalcDoe2DXCoil: Coil:Cooling:DX:SingleSpeed=\"COIL COOLING DX SINGLE SPEED 1 73KBTU/HR 9.7EER\" - Full load outlet temperature indicates a possibility of frost/freeze error continues. Outlet air temperature statistics follow:\n   *************  **   ~~~   **   This error occurred 114 total times;\n   *************  **   ~~~   **   during Warmup 0 times;\n   *************  **   ~~~   **   during Sizing 0 times.\n   *************  **   ~~~   **   Max=1.989125  Min=-2.41607\n   *************\n   *************  ** Warning ** CalcDoe2DXCoil: Coil:Cooling:DX:SingleSpeed=\"COIL COOLING DX SINGLE SPEED 10 74KBTU/HR 9.7EER\" - Full load outlet temperature indicates a possibility of frost/freeze error continues. Outlet air temperature statistics follow:\n   *************  **   ~~~   **   This error occurred 95 total times;\n   *************  **   ~~~   **   during Warmup 0 times;\n   *************  **   ~~~   **   during Sizing 0 times.\n   *************  **   ~~~   **   Max=1.982086  Min=-1.973885\n   *************\n   *************\n   ************* ===== Final Error Summary =====\n   ************* The following error categories occurred.  Consider correcting or noting.\n   ************* Nominally Unused Constructions\n   ************* ..The nominally unused constructions warning is provided to alert you to potential conditions that can cause\n   ************* ..extra time during simulation. Each construction is calculated by the algorithm indicated in the HeatBalanceAlgorithm\n   ************* ..object. You may remove the constructions indicated (when you use the DisplayExtraWarnings option).\n   *************\n   ************* EnergyPlus Warmup Error Summary. During Warmup: 0 Warning; 0 Severe Errors.\n   ************* EnergyPlus Sizing Error Summary. During Sizing: 87 Warning; 0 Severe Errors.\n   ************* EnergyPlus Completed Successfully-- 4056 Warning; 0 Severe Errors; Elapsed Time=00hr 00min 56.39sec\n",
   "file_format_version" : "0.0.1",
   "file_paths" : [ "../weather", "../seeds", "../seed" ],
   "hash" : "1E5C9EE0",
   "measure_paths" : [ "../measures" ],
   "name" : "LHS Autogenerated 495",
   "osa_id" : "4fef0e0f-5396-4c55-a6e1-2cd6803db3ab",
   "osd_id" : "89fadbb9-f83f-4576-b48f-da71f1656c10",
   "run_directory" : "./run",
   "seed_file" : "seed.osm",
   "started_at" : "20170710T185312Z",
   "steps" : [
      {
         "arguments" : {
            "__SKIP__" : false,
            "building_type" : "RetailStripmall",
            "climate_zone" : "NECB HDD Method",
            "epw_file" : "CAN_MB_Brandon.711400_CWEC.epw",
            "template" : "NECB 2011"
         },
         "measure_dir_name" : "create_prototype_building",
         "name" : "create_prototype_building",
         "result" : {
            "completed_at" : "20170710T185424Z",
            "measure_class_name" : "CreatePrototypeBuilding",
            "measure_display_name" : "Create Prototype Building",
            "measure_name" : "create_prototype_building",
            "measure_taxonomy" : "Whole Building.Space Types",
            "measure_type" : "ModelMeasure",
            "measure_uid" : "ae90fsd7-a651-467a-bc8d-29d310b0f937",
            "measure_version_id" : "c6ec5c18-5595-459f-a082-09a19c8c869c",
            "measure_version_modified" : "20170519T182315Z",
            "measure_xml_checksum" : "057E8D9D",
            "started_at" : "20170710T185314Z",
            "stderr" : "",
            "stdout" : "[OpenStudio.Measure] <0> OSArgumentVector is deprecated, use OpenStudio::Measure::OSArgumentVector instead.\n[openstudio.EpwFile] <0> Successive data points (1988-Jan-31 to 1969-Feb-01, ending on line 753) are greater than 1 day apart in EPW file '/usr/local/bundle/bundler/gems/openstudio-standards-f448df66933d/openstudio-standards/data/weather/CAN_MB_Brandon.711400_CWEC.epw'. Data will be treated as typical (TMY)\n[openstudio.setFileExtension] <0> Path p, '/usr/local/bundle/bundler/gems/openstudio-standards-f448df66933d/openstudio-standards/data/weather/CAN_MB_Brandon.711400_CWEC.ddy', has an unexpected file extension. Was expecting 'idf'.\n[openstudio.model.YearDescription] <1> 'UseWeatherFile' is not yet a supported option for YearDescription\n[openstudio.model.YearDescription] <1> 'UseWeatherFile' is not yet a supported option for YearDescription\n[openstudio.setFileExtension] <0> Path p, '/usr/local/bundle/bundler/gems/openstudio-standards-f448df66933d/openstudio-standards/data/weather/CAN_MB_Brandon.711400_CWEC.ddy', has an unexpected file extension. Was expecting 'idf'.\n[openstudio.model.YearDescription] <1> 'UseWeatherFile' is not yet a supported option for YearDescription\n[openstudio.model.YearDescription] <1> 'UseWeatherFile' is not yet a supported option for YearDescription\n[openstudio.EpwFile] <0> Successive data points (1988-Jan-31 to 1969-Feb-01, ending on line 753) are greater than 1 day apart in EPW file '/usr/local/bundle/bundler/gems/openstudio-standards-f448df66933d/openstudio-standards/data/weather/CAN_MB_Brandon.711400_CWEC.epw'. Data will be treated as typical (TMY)\n[openstudio.weather.Model] <0> Could not find ground temperatures; will use generic temperatures, which will skew results.\n[openstudio.setFileExtension] <0> Path p, '/usr/local/bundle/bundler/gems/openstudio-standards-f448df66933d/openstudio-standards/data/weather/CAN_MB_Brandon.711400_CWEC.ddy', has an unexpected file extension. Was expecting 'idf'.\n[openstudio.model.YearDescription] <1> 'UseWeatherFile' is not yet a supported option for YearDescription\n[openstudio.model.YearDescription] <1> 'UseWeatherFile' is not yet a supported option for YearDescription\n[openstudio.EpwFile] <0> Successive data points (1988-Jan-31 to 1969-Feb-01, ending on line 753) are greater than 1 day apart in EPW file '/usr/local/bundle/bundler/gems/openstudio-standards-f448df66933d/openstudio-standards/data/weather/CAN_MB_Brandon.711400_CWEC.epw'. Data will be treated as typical (TMY)\n[openstudio.setFileExtension] <0> Path p, '/usr/local/bundle/bundler/gems/openstudio-standards-f448df66933d/openstudio-standards/data/weather/CAN_MB_Brandon.711400_CWEC.ddy', has an unexpected file extension. Was expecting 'idf'.\n[openstudio.model.YearDescription] <1> 'UseWeatherFile' is not yet a supported option for YearDescription\n[openstudio.model.YearDescription] <1> 'UseWeatherFile' is not yet a supported option for YearDescription\n[openstudio.setFileExtension] <0> Path p, '/usr/local/bundle/bundler/gems/openstudio-standards-f448df66933d/openstudio-standards/data/weather/CAN_MB_Brandon.711400_CWEC.ddy', has an unexpected file extension. Was expecting 'idf'.\n[openstudio.model.YearDescription] <1> 'UseWeatherFile' is not yet a supported option for YearDescription\n[openstudio.model.YearDescription] <1> 'UseWeatherFile' is not yet a supported option for YearDescription\n[openstudio.EpwFile] <0> Successive data points (1988-Jan-31 to 1969-Feb-01, ending on line 753) are greater than 1 day apart in EPW file '/usr/local/bundle/bundler/gems/openstudio-standards-f448df66933d/openstudio-standards/data/weather/CAN_MB_Brandon.711400_CWEC.epw'. Data will be treated as typical (TMY)\n[openstudio.setFileExtension] <0> Path p, '/usr/local/bundle/bundler/gems/openstudio-standards-f448df66933d/openstudio-standards/data/weather/CAN_MB_Brandon.711400_CWEC.ddy', has an unexpected file extension. Was expecting 'idf'.\n[openstudio.model.YearDescription] <1> 'UseWeatherFile' is not yet a supported option for YearDescription\n[openstudio.model.YearDescription] <1> 'UseWeatherFile' is not yet a supported option for YearDescription\n[openstudio.setFileExtension] <0> Path p, '/usr/local/bundle/bundler/gems/openstudio-standards-f448df66933d/openstudio-standards/data/weather/CAN_MB_Brandon.711400_CWEC.ddy', has an unexpected file extension. Was expecting 'idf'.\n[openstudio.model.YearDescription] <1> 'UseWeatherFile' is not yet a supported option for YearDescription\n[openstudio.model.YearDescription] <1> 'UseWeatherFile' is not yet a supported option for YearDescription\n[utilities.idf.WorkspaceObject] <0> Object of type 'Schedule:Constant' and named 'Always Off Discrete', points to an object named OnOff 1 from field 1, but that object cannot be located.\n[utilities.idf.WorkspaceObject] <0> Object of type 'Schedule:Constant' and named 'Always On Continuous', points to an object named Fractional 1 from field 1, but that object cannot be located.\n[utilities.idf.WorkspaceObject] <0> Object of type 'Schedule:Constant' and named 'Always Off Discrete', points to an object named OnOff 1 from field 1, but that object cannot be located.\n[utilities.idf.WorkspaceObject] <0> Object of type 'Schedule:Constant' and named 'Always On Continuous', points to an object named Fractional 1 from field 1, but that object cannot be located.\n[openstudio.standards.Fan] <0> For Fan Constant Volume 1, there is no greater nominal HP.  Use the efficiency of the largest motor category.\n[openstudio.standards.Fan] <0> For Fan Constant Volume 10, there is no greater nominal HP.  Use the efficiency of the largest motor category.\n[openstudio.standards.Fan] <0> For Fan Constant Volume 2, there is no greater nominal HP.  Use the efficiency of the largest motor category.\n[openstudio.standards.Fan] <0> For Fan Constant Volume 3, there is no greater nominal HP.  Use the efficiency of the largest motor category.\n[openstudio.standards.Fan] <0> For Fan Constant Volume 4, there is no greater nominal HP.  Use the efficiency of the largest motor category.\n[openstudio.standards.Fan] <0> For Fan Constant Volume 5, there is no greater nominal HP.  Use the efficiency of the largest motor category.\n[openstudio.standards.Fan] <0> For Fan Constant Volume 6, there is no greater nominal HP.  Use the efficiency of the largest motor category.\n[openstudio.standards.Fan] <0> For Fan Constant Volume 7, there is no greater nominal HP.  Use the efficiency of the largest motor category.\n[openstudio.standards.Fan] <0> For Fan Constant Volume 8, there is no greater nominal HP.  Use the efficiency of the largest motor category.\n[openstudio.standards.Fan] <0> For Fan Constant Volume 9, there is no greater nominal HP.  Use the efficiency of the largest motor category.\n[openstudio.EpwFile] <0> Successive data points (1988-Jan-31 to 1969-Feb-01, ending on line 753) are greater than 1 day apart in EPW file '/usr/local/bundle/bundler/gems/openstudio-standards-f448df66933d/openstudio-standards/data/weather/CAN_MB_Brandon.711400_CWEC.epw'. Data will be treated as typical (TMY)\n[openstudio.setFileExtension] <0> Path p, '/usr/local/bundle/bundler/gems/openstudio-standards-f448df66933d/openstudio-standards/data/weather/CAN_MB_Brandon.711400_CWEC.ddy', has an unexpected file extension. Was expecting 'idf'.\n[openstudio.model.YearDescription] <1> 'UseWeatherFile' is not yet a supported option for YearDescription\n[openstudio.model.YearDescription] <1> 'UseWeatherFile' is not yet a supported option for YearDescription\n[openstudio.setFileExtension] <0> Path p, '/usr/local/bundle/bundler/gems/openstudio-standards-f448df66933d/openstudio-standards/data/weather/CAN_MB_Brandon.711400_CWEC.ddy', has an unexpected file extension. Was expecting 'idf'.\n[openstudio.model.YearDescription] <1> 'UseWeatherFile' is not yet a supported option for YearDescription\n[openstudio.model.YearDescription] <1> 'UseWeatherFile' is not yet a supported option for YearDescription\n[openstudio.EpwFile] <0> Successive data points (1988-Jan-31 to 1969-Feb-01, ending on line 753) are greater than 1 day apart in EPW file '/usr/local/bundle/bundler/gems/openstudio-standards-f448df66933d/openstudio-standards/data/weather/CAN_MB_Brandon.711400_CWEC.epw'. Data will be treated as typical (TMY)\n[openstudio.setFileExtension] <0> Path p, '/usr/local/bundle/bundler/gems/openstudio-standards-f448df66933d/openstudio-standards/data/weather/CAN_MB_Brandon.711400_CWEC.ddy', has an unexpected file extension. Was expecting 'idf'.\n[openstudio.model.YearDescription] <1> 'UseWeatherFile' is not yet a supported option for YearDescription\n[openstudio.model.YearDescription] <1> 'UseWeatherFile' is not yet a supported option for YearDescription\n[openstudio.setFileExtension] <0> Path p, '/usr/local/bundle/bundler/gems/openstudio-standards-f448df66933d/openstudio-standards/data/weather/CAN_MB_Brandon.711400_CWEC.ddy', has an unexpected file extension. Was expecting 'idf'.\n[openstudio.model.YearDescription] <1> 'UseWeatherFile' is not yet a supported option for YearDescription\n[openstudio.model.YearDescription] <1> 'UseWeatherFile' is not yet a supported option for YearDescription\n[openstudio.EpwFile] <0> Successive data points (1988-Jan-31 to 1969-Feb-01, ending on line 753) are greater than 1 day apart in EPW file '/usr/local/bundle/bundler/gems/openstudio-standards-f448df66933d/openstudio-standards/data/weather/CAN_MB_Brandon.711400_CWEC.epw'. Data will be treated as typical (TMY)\n[openstudio.setFileExtension] <0> Path p, '/usr/local/bundle/bundler/gems/openstudio-standards-f448df66933d/openstudio-standards/data/weather/CAN_MB_Brandon.711400_CWEC.ddy', has an unexpected file extension. Was expecting 'idf'.\n[openstudio.model.YearDescription] <1> 'UseWeatherFile' is not yet a supported option for YearDescription\n[openstudio.model.YearDescription] <1> 'UseWeatherFile' is not yet a supported option for YearDescription\n[openstudio.setFileExtension] <0> Path p, '/usr/local/bundle/bundler/gems/openstudio-standards-f448df66933d/openstudio-standards/data/weather/CAN_MB_Brandon.711400_CWEC.ddy', has an unexpected file extension. Was expecting 'idf'.\n[openstudio.model.YearDescription] <1> 'UseWeatherFile' is not yet a supported option for YearDescription\n[openstudio.model.YearDescription] <1> 'UseWeatherFile' is not yet a supported option for YearDescription\n[openstudio.EpwFile] <0> Successive data points (1988-Jan-31 to 1969-Feb-01, ending on line 753) are greater than 1 day apart in EPW file '/usr/local/bundle/bundler/gems/openstudio-standards-f448df66933d/openstudio-standards/data/weather/CAN_MB_Brandon.711400_CWEC.epw'. Data will be treated as typical (TMY)\n[openstudio.setFileExtension] <0> Path p, '/usr/local/bundle/bundler/gems/openstudio-standards-f448df66933d/openstudio-standards/data/weather/CAN_MB_Brandon.711400_CWEC.ddy', has an unexpected file extension. Was expecting 'idf'.\n[openstudio.model.YearDescription] <1> 'UseWeatherFile' is not yet a supported option for YearDescription\n[openstudio.model.YearDescription] <1> 'UseWeatherFile' is not yet a supported option for YearDescription\n[openstudio.setFileExtension] <0> Path p, '/usr/local/bundle/bundler/gems/openstudio-standards-f448df66933d/openstudio-standards/data/weather/CAN_MB_Brandon.711400_CWEC.ddy', has an unexpected file extension. Was expecting 'idf'.\n[openstudio.model.YearDescription] <1> 'UseWeatherFile' is not yet a supported option for YearDescription\n[openstudio.model.YearDescription] <1> 'UseWeatherFile' is not yet a supported option for YearDescription\n[openstudio.EpwFile] <0> Successive data points (1988-Jan-31 to 1969-Feb-01, ending on line 753) are greater than 1 day apart in EPW file '/usr/local/bundle/bundler/gems/openstudio-standards-f448df66933d/openstudio-standards/data/weather/CAN_MB_Brandon.711400_CWEC.epw'. Data will be treated as typical (TMY)\n[openstudio.setFileExtension] <0> Path p, '/usr/local/bundle/bundler/gems/openstudio-standards-f448df66933d/openstudio-standards/data/weather/CAN_MB_Brandon.711400_CWEC.ddy', has an unexpected file extension. Was expecting 'idf'.\n[openstudio.model.YearDescription] <1> 'UseWeatherFile' is not yet a supported option for YearDescription\n[openstudio.model.YearDescription] <1> 'UseWeatherFile' is not yet a supported option for YearDescription\n[openstudio.setFileExtension] <0> Path p, '/usr/local/bundle/bundler/gems/openstudio-standards-f448df66933d/openstudio-standards/data/weather/CAN_MB_Brandon.711400_CWEC.ddy', has an unexpected file extension. Was expecting 'idf'.\n[openstudio.model.YearDescription] <1> 'UseWeatherFile' is not yet a supported option for YearDescription\n[openstudio.model.YearDescription] <1> 'UseWeatherFile' is not yet a supported option for YearDescription\n[openstudio.EpwFile] <0> Successive data points (1988-Jan-31 to 1969-Feb-01, ending on line 753) are greater than 1 day apart in EPW file '/usr/local/bundle/bundler/gems/openstudio-standards-f448df66933d/openstudio-standards/data/weather/CAN_MB_Brandon.711400_CWEC.epw'. Data will be treated as typical (TMY)\n[openstudio.setFileExtension] <0> Path p, '/usr/local/bundle/bundler/gems/openstudio-standards-f448df66933d/openstudio-standards/data/weather/CAN_MB_Brandon.711400_CWEC.ddy', has an unexpected file extension. Was expecting 'idf'.\n[openstudio.model.YearDescription] <1> 'UseWeatherFile' is not yet a supported option for YearDescription\n[openstudio.model.YearDescription] <1> 'UseWeatherFile' is not yet a supported option for YearDescription\n[openstudio.setFileExtension] <0> Path p, '/usr/local/bundle/bundler/gems/openstudio-standards-f448df66933d/openstudio-standards/data/weather/CAN_MB_Brandon.711400_CWEC.ddy', has an unexpected file extension. Was expecting 'idf'.\n[openstudio.model.YearDescription] <1> 'UseWeatherFile' is not yet a supported option for YearDescription\n[openstudio.model.YearDescription] <1> 'UseWeatherFile' is not yet a supported option for YearDescription\n[openstudio.EpwFile] <0> Successive data points (1988-Jan-31 to 1969-Feb-01, ending on line 753) are greater than 1 day apart in EPW file '/usr/local/bundle/bundler/gems/openstudio-standards-f448df66933d/openstudio-standards/data/weather/CAN_MB_Brandon.711400_CWEC.epw'. Data will be treated as typical (TMY)\n[openstudio.setFileExtension] <0> Path p, '/usr/local/bundle/bundler/gems/openstudio-standards-f448df66933d/openstudio-standards/data/weather/CAN_MB_Brandon.711400_CWEC.ddy', has an unexpected file extension. Was expecting 'idf'.\n[openstudio.model.YearDescription] <1> 'UseWeatherFile' is not yet a supported option for YearDescription\n[openstudio.model.YearDescription] <1> 'UseWeatherFile' is not yet a supported option for YearDescription\n[openstudio.setFileExtension] <0> Path p, '/usr/local/bundle/bundler/gems/openstudio-standards-f448df66933d/openstudio-standards/data/weather/CAN_MB_Brandon.711400_CWEC.ddy', has an unexpected file extension. Was expecting 'idf'.\n[openstudio.model.YearDescription] <1> 'UseWeatherFile' is not yet a supported option for YearDescription\n[openstudio.model.YearDescription] <1> 'UseWeatherFile' is not yet a supported option for YearDescription\n[openstudio.EpwFile] <0> Successive data points (1988-Jan-31 to 1969-Feb-01, ending on line 753) are greater than 1 day apart in EPW file '/usr/local/bundle/bundler/gems/openstudio-standards-f448df66933d/openstudio-standards/data/weather/CAN_MB_Brandon.711400_CWEC.epw'. Data will be treated as typical (TMY)\n[openstudio.setFileExtension] <0> Path p, '/usr/local/bundle/bundler/gems/openstudio-standards-f448df66933d/openstudio-standards/data/weather/CAN_MB_Brandon.711400_CWEC.ddy', has an unexpected file extension. Was expecting 'idf'.\n[openstudio.model.YearDescription] <1> 'UseWeatherFile' is not yet a supported option for YearDescription\n[openstudio.model.YearDescription] <1> 'UseWeatherFile' is not yet a supported option for YearDescription\n[openstudio.setFileExtension] <0> Path p, '/usr/local/bundle/bundler/gems/openstudio-standards-f448df66933d/openstudio-standards/data/weather/CAN_MB_Brandon.711400_CWEC.ddy', has an unexpected file extension. Was expecting 'idf'.\n[openstudio.model.YearDescription] <1> 'UseWeatherFile' is not yet a supported option for YearDescription\n[openstudio.model.YearDescription] <1> 'UseWeatherFile' is not yet a supported option for YearDescription\n[openstudio.EpwFile] <0> Successive data points (1988-Jan-31 to 1969-Feb-01, ending on line 753) are greater than 1 day apart in EPW file '/usr/local/bundle/bundler/gems/openstudio-standards-f448df66933d/openstudio-standards/data/weather/CAN_MB_Brandon.711400_CWEC.epw'. Data will be treated as typical (TMY)\n[openstudio.setFileExtension] <0> Path p, '/usr/local/bundle/bundler/gems/openstudio-standards-f448df66933d/openstudio-standards/data/weather/CAN_MB_Brandon.711400_CWEC.ddy', has an unexpected file extension. Was expecting 'idf'.\n[openstudio.model.YearDescription] <1> 'UseWeatherFile' is not yet a supported option for YearDescription\n[openstudio.model.YearDescription] <1> 'UseWeatherFile' is not yet a supported option for YearDescription\n[openstudio.setFileExtension] <0> Path p, '/usr/local/bundle/bundler/gems/openstudio-standards-f448df66933d/openstudio-standards/data/weather/CAN_MB_Brandon.711400_CWEC.ddy', has an unexpected file extension. Was expecting 'idf'.\n[openstudio.model.YearDescription] <1> 'UseWeatherFile' is not yet a supported option for YearDescription\n[openstudio.model.YearDescription] <1> 'UseWeatherFile' is not yet a supported option for YearDescription\n[openstudio.EpwFile] <0> Successive data points (1988-Jan-31 to 1969-Feb-01, ending on line 753) are greater than 1 day apart in EPW file '/usr/local/bundle/bundler/gems/openstudio-standards-f448df66933d/openstudio-standards/data/weather/CAN_MB_Brandon.711400_CWEC.epw'. Data will be treated as typical (TMY)\n[openstudio.setFileExtension] <0> Path p, '/usr/local/bundle/bundler/gems/openstudio-standards-f448df66933d/openstudio-standards/data/weather/CAN_MB_Brandon.711400_CWEC.ddy', has an unexpected file extension. Was expecting 'idf'.\n[openstudio.model.YearDescription] <1> 'UseWeatherFile' is not yet a supported option for YearDescription\n[openstudio.model.YearDescription] <1> 'UseWeatherFile' is not yet a supported option for YearDescription\n[openstudio.setFileExtension] <0> Path p, '/usr/local/bundle/bundler/gems/openstudio-standards-f448df66933d/openstudio-standards/data/weather/CAN_MB_Brandon.711400_CWEC.ddy', has an unexpected file extension. Was expecting 'idf'.\n[openstudio.model.YearDescription] <1> 'UseWeatherFile' is not yet a supported option for YearDescription\n[openstudio.model.YearDescription] <1> 'UseWeatherFile' is not yet a supported option for YearDescription\n[openstudio.standards.Fan] <0> For Fan Constant Volume 1, there is no greater nominal HP.  Use the efficiency of the largest motor category.\n[openstudio.standards.Fan] <0> For Fan Constant Volume 10, there is no greater nominal HP.  Use the efficiency of the largest motor category.\n[openstudio.standards.Fan] <0> For Fan Constant Volume 2, there is no greater nominal HP.  Use the efficiency of the largest motor category.\n[openstudio.standards.Fan] <0> For Fan Constant Volume 3, there is no greater nominal HP.  Use the efficiency of the largest motor category.\n[openstudio.standards.Fan] <0> For Fan Constant Volume 4, there is no greater nominal HP.  Use the efficiency of the largest motor category.\n[openstudio.standards.Fan] <0> For Fan Constant Volume 5, there is no greater nominal HP.  Use the efficiency of the largest motor category.\n[openstudio.standards.Fan] <0> For Fan Constant Volume 6, there is no greater nominal HP.  Use the efficiency of the largest motor category.\n[openstudio.standards.Fan] <0> For Fan Constant Volume 7, there is no greater nominal HP.  Use the efficiency of the largest motor category.\n[openstudio.standards.Fan] <0> For Fan Constant Volume 8, there is no greater nominal HP.  Use the efficiency of the largest motor category.\n[openstudio.standards.Fan] <0> For Fan Constant Volume 9, there is no greater nominal HP.  Use the efficiency of the largest motor category.\n",
            "step_errors" : [],
            "step_files" : [],
            "step_info" : [
               "Started adding geometry",
               "Finished adding geometry",
               "Started adding weather file for climate zone: NECB HDD Method.",
               "Template =",
               "Setting LGstore1 to Space Function.Retail - sales",
               "Setting LGstore2 to Space Function.Retail - sales",
               "Setting SMstore1 to Space Function.Retail - sales",
               "Setting SMstore2 to Space Function.Retail - sales",
               "Setting SMstore3 to Space Function.Retail - sales",
               "Setting SMstore4 to Space Function.Retail - sales",
               "Setting SMstore5 to Space Function.Retail - sales",
               "Setting SMstore6 to Space Function.Retail - sales",
               "Setting SMstore7 to Space Function.Retail - sales",
               "Setting SMstore8 to Space Function.Retail - sales",
               "Started applying space types (loads)",
               "Space Function Retail - sales had no people, one has been created.",
               "Space Function Retail - sales set occupancy to 3.1 people/1000 ft^2.",
               "Space Function Retail - sales had no lights, one has been created.",
               "Space Function Retail - sales set LPD to 1.681531029 W/ft^2.",
               "Space Function Retail - sales had no electric equipment, one has been created.",
               "Space Function Retail - sales set electric EPD to 0.232255667 W/ft^2.",
               "Space Function Retail - sales had no ventilation specification, one has been created.",
               "Space Function Retail - sales set ventilation per area to 0.233 cfm/ft^2.",
               "Space Function Retail - sales had no infiltration objects, one has been created.",
               "Space Function Retail - sales set infiltration to 0.0 per ft^2 exterior surface area.",
               "Space Function Retail - sales set occupancy schedule to NECB-C-Occupancy.",
               "Space Function Retail - sales set occupant activity schedule to NECB-Activity.",
               "Space Function Retail - sales set lighting schedule to NECB-C-Lighting.",
               "Space Function Retail - sales set electric equipment schedule to NECB-C-Electric-Equipment.",
               "Space Function Retail - sales set infiltration schedule to Always On.",
               "Space Function Retail - sales set heating setpoint schedule to NECB-C-Thermostat Setpoint-Heating.",
               "Space Function Retail - sales set cooling setpoint schedule to NECB-C-Thermostat Setpoint-Cooling.",
               "Finished applying space types (loads)",
               "Started applying constructions",
               "Adding construction set: NECB 2011-NECB HDD Method-StripMall--is_residentialNo",
               "Adding construction Typical Insulated Exterior Mass Floor R-15.63.",
               "Adding construction Typical Insulated Exterior Mass Wall R-12.5.",
               "Adding construction Typical Insulated Metal Building Roof R-20.41.",
               "Adding construction Typical Interior Floor.",
               "Adding construction Typical Interior Wall.",
               "Adding construction Typical Interior Ceiling.",
               "Adding construction Typical Insulated Carpeted 6in Slab Floor.",
               "Adding construction U 0.55 SHGC 0.31 Dbl Ref-D Tint 6mm/6mm Air.",
               "Adding construction Typical Insulated Metal Door R-1.43.",
               "Adding construction U 0.35 SHGC 0.35 Dbl LoE (e2-.1) Tint 6mm/13mm Air.",
               "Adding construction Typical Overhead Door R-2.0.",
               "Adding construction U 0.48 SHGC 0.40 Dbl Ref-D Clr 6mm/13mm.",
               "Adding construction Typical Interior Window.",
               "Adding construction Typical Interior Door.",
               "Adding construction Typical Interior Partition.",
               "Finished applying constructions",
               "WWR NonRes = 0%; window = 0 ft2, wall = 0 ft2.",
               "WWR Res = 0%; window = 0 ft2, wall = 0 ft2.",
               "WWR Semiheated = 0%; window = 0 ft2, wall = 0 ft2.",
               "The skylight to roof ratios (SRRs) are: NonRes: 0%, Res: 0%.",
               "Started creating thermal zones",
               "Finished creating thermal zones",
               "Running simulation /mnt/openstudio/analysis_4fef0e0f-5396-4c55-a6e1-2cd6803db3ab/data_point_89fadbb9-f83f-4576-b48f-da71f1656c10/run/000_create_prototype_building/output/RetailStripmall-NECB 2011-NECB HDD Method-CAN_MB_Brandon.711400_CWEC.epw/SR0.",
               "Finished run.",
               "Started Adding HVAC",
               "Finished adding HVAC",
               "Started Adding Service Water Heating",
               "Adding service water loop.",
               "Adding water heater.",
               "Template =",
               "Finished adding Service Water Heating",
               "Set sizing factors to 1.3 for heating and 1.3 for cooling.",
               "Running simulation /mnt/openstudio/analysis_4fef0e0f-5396-4c55-a6e1-2cd6803db3ab/data_point_89fadbb9-f83f-4576-b48f-da71f1656c10/run/000_create_prototype_building/output/RetailStripmall-NECB 2011-NECB HDD Method-CAN_MB_Brandon.711400_CWEC.epw/SR1.",
               "Finished run.",
               "Started applying multizone vav OA sizing.",
               "Finished applying multizone vav OA sizing.",
               "Started applying prototype HVAC assumptions.",
               "For Fan Constant Volume 1: allowed_hp = 1.63HP; motor eff = 61.5%; total fan eff = 40% based on 2382 cfm.",
               "For Fan Constant Volume 10: allowed_hp = 1.67HP; motor eff = 61.5%; total fan eff = 40% based on 2437 cfm.",
               "For Fan Constant Volume 2: allowed_hp = 1.01HP; motor eff = 61.5%; total fan eff = 40% based on 1228 cfm.",
               "For Fan Constant Volume 3: allowed_hp = 1.01HP; motor eff = 61.5%; total fan eff = 40% based on 1252 cfm.",
               "For Fan Constant Volume 4: allowed_hp = 1.01HP; motor eff = 61.5%; total fan eff = 40% based on 1229 cfm.",
               "For Fan Constant Volume 5: allowed_hp = 1.01HP; motor eff = 61.5%; total fan eff = 40% based on 1228 cfm.",
               "For Fan Constant Volume 6: allowed_hp = 1.01HP; motor eff = 61.5%; total fan eff = 40% based on 1227 cfm.",
               "For Fan Constant Volume 7: allowed_hp = 1.01HP; motor eff = 61.5%; total fan eff = 40% based on 1248 cfm.",
               "For Fan Constant Volume 8: allowed_hp = 1.01HP; motor eff = 61.5%; total fan eff = 40% based on 1248 cfm.",
               "For Fan Constant Volume 9: allowed_hp = 1.01HP; motor eff = 61.5%; total fan eff = 40% based on 1273 cfm.",
               "Sp-LGstore2 Sys-3 Flr-1 Sch-C HPlcmt-north ZN NECB System 3 PSZ requires an economizer because the total cooling capacity of 72902 Btu/hr exceeds the minimum capacity of 68243 Btu/hr.",
               "Sp-LGstore1 Sys-3 Flr-1 Sch-C HPlcmt-west ZN NECB System 3 PSZ requires an economizer because the total cooling capacity of 74404 Btu/hr exceeds the minimum capacity of 68243 Btu/hr.",
               "Sp-SMstore2 Sys-3 Flr-1 Sch-C HPlcmt-north ZN NECB System 3 PSZ does not require an economizer because the total cooling capacity of 37311 Btu/hr is less than the minimum capacity of 68243 Btu/hr.",
               "Sp-SMstore6 Sys-3 Flr-1 Sch-C HPlcmt-north ZN NECB System 3 PSZ does not require an economizer because the total cooling capacity of 37306 Btu/hr is less than the minimum capacity of 68243 Btu/hr.",
               "Sp-SMstore7 Sys-3 Flr-1 Sch-C HPlcmt-north ZN NECB System 3 PSZ does not require an economizer because the total cooling capacity of 37341 Btu/hr is less than the minimum capacity of 68243 Btu/hr.",
               "Sp-SMstore1 Sys-3 Flr-1 Sch-C HPlcmt-north ZN NECB System 3 PSZ does not require an economizer because the total cooling capacity of 37880 Btu/hr is less than the minimum capacity of 68243 Btu/hr.",
               "Sp-SMstore4 Sys-3 Flr-1 Sch-C HPlcmt-north ZN NECB System 3 PSZ does not require an economizer because the total cooling capacity of 37790 Btu/hr is less than the minimum capacity of 68243 Btu/hr.",
               "Sp-SMstore5 Sys-3 Flr-1 Sch-C HPlcmt-north ZN NECB System 3 PSZ does not require an economizer because the total cooling capacity of 37791 Btu/hr is less than the minimum capacity of 68243 Btu/hr.",
               "Sp-SMstore8 Sys-3 Flr-1 Sch-C HPlcmt-east ZN NECB System 3 PSZ does not require an economizer because the total cooling capacity of 38692 Btu/hr is less than the minimum capacity of 68243 Btu/hr.",
               "Sp-SMstore3 Sys-3 Flr-1 Sch-C HPlcmt-north ZN NECB System 3 PSZ does not require an economizer because the total cooling capacity of 37302 Btu/hr is less than the minimum capacity of 68243 Btu/hr.",
               "Finished applying prototype HVAC assumptions.",
               "Started applying HVAC efficiency standards.",
               "For Sp-LGstore1 Sys-3 Flr-1 Sch-C HPlcmt-west ZN NECB System 3 PSZ, ERV not required based on 0% OA flow, design supply air flow of 2437cfm, and climate zone NECB HDD Method.",
               "For Sp-LGstore1 Sys-3 Flr-1 Sch-C HPlcmt-west ZN NECB System 3 PSZ, ERV not required based on exhaust heat content.",
               "For NECB 2011 NECB HDD Method:  Sp-LGstore1 Sys-3 Flr-1 Sch-C HPlcmt-west ZN NECB System 3 PSZ: DCV is not required for any system.",
               "For Sp-LGstore1 Sys-3 Flr-1 Sch-C HPlcmt-west ZN NECB System 3 PSZ: Annual occupied hours = 4168 hr/yr, assuming a 0.15 occupancy threshold.  This schedule will be used as the HVAC operation schedule.",
               "For Sp-LGstore1 Sys-3 Flr-1 Sch-C HPlcmt-west ZN NECB System 3 PSZ: Because the system has an economizer, it requires a motorized OA damper.",
               "For Sp-LGstore1 Sys-3 Flr-1 Sch-C HPlcmt-west ZN NECB System 3 PSZ: Setting motorized OA damper schedule to Sp-LGstore1 Sys-3 Flr-1 Sch-C HPlcmt-west ZN NECB System 3 PSZ Occ Sch.",
               "For Sp-LGstore2 Sys-3 Flr-1 Sch-C HPlcmt-north ZN NECB System 3 PSZ, ERV not required based on 0% OA flow, design supply air flow of 2382cfm, and climate zone NECB HDD Method.",
               "For Sp-LGstore2 Sys-3 Flr-1 Sch-C HPlcmt-north ZN NECB System 3 PSZ, ERV not required based on exhaust heat content.",
               "For NECB 2011 NECB HDD Method:  Sp-LGstore2 Sys-3 Flr-1 Sch-C HPlcmt-north ZN NECB System 3 PSZ: DCV is not required for any system.",
               "For Sp-LGstore2 Sys-3 Flr-1 Sch-C HPlcmt-north ZN NECB System 3 PSZ: Annual occupied hours = 4168 hr/yr, assuming a 0.15 occupancy threshold.  This schedule will be used as the HVAC operation schedule.",
               "For Sp-LGstore2 Sys-3 Flr-1 Sch-C HPlcmt-north ZN NECB System 3 PSZ: Because the system has an economizer, it requires a motorized OA damper.",
               "For Sp-LGstore2 Sys-3 Flr-1 Sch-C HPlcmt-north ZN NECB System 3 PSZ: Setting motorized OA damper schedule to Sp-LGstore2 Sys-3 Flr-1 Sch-C HPlcmt-north ZN NECB System 3 PSZ Occ Sch.",
               "For Sp-SMstore1 Sys-3 Flr-1 Sch-C HPlcmt-north ZN NECB System 3 PSZ, ERV not required based on 0% OA flow, design supply air flow of 1252cfm, and climate zone NECB HDD Method.",
               "For Sp-SMstore1 Sys-3 Flr-1 Sch-C HPlcmt-north ZN NECB System 3 PSZ, ERV not required based on exhaust heat content.",
               "For NECB 2011 NECB HDD Method:  Sp-SMstore1 Sys-3 Flr-1 Sch-C HPlcmt-north ZN NECB System 3 PSZ: DCV is not required for any system.",
               "For Sp-SMstore1 Sys-3 Flr-1 Sch-C HPlcmt-north ZN NECB System 3 PSZ: Annual occupied hours = 4168 hr/yr, assuming a 0.15 occupancy threshold.  This schedule will be used as the HVAC operation schedule.",
               "For Sp-SMstore1 Sys-3 Flr-1 Sch-C HPlcmt-north ZN NECB System 3 PSZ: Setting motorized OA damper schedule to Sp-SMstore1 Sys-3 Flr-1 Sch-C HPlcmt-north ZN NECB System 3 PSZ Occ Sch.",
               "For Sp-SMstore2 Sys-3 Flr-1 Sch-C HPlcmt-north ZN NECB System 3 PSZ, ERV not required based on 0% OA flow, design supply air flow of 1228cfm, and climate zone NECB HDD Method.",
               "For Sp-SMstore2 Sys-3 Flr-1 Sch-C HPlcmt-north ZN NECB System 3 PSZ, ERV not required based on exhaust heat content.",
               "For NECB 2011 NECB HDD Method:  Sp-SMstore2 Sys-3 Flr-1 Sch-C HPlcmt-north ZN NECB System 3 PSZ: DCV is not required for any system.",
               "For Sp-SMstore2 Sys-3 Flr-1 Sch-C HPlcmt-north ZN NECB System 3 PSZ: Annual occupied hours = 4168 hr/yr, assuming a 0.15 occupancy threshold.  This schedule will be used as the HVAC operation schedule.",
               "For Sp-SMstore2 Sys-3 Flr-1 Sch-C HPlcmt-north ZN NECB System 3 PSZ: Setting motorized OA damper schedule to Sp-SMstore2 Sys-3 Flr-1 Sch-C HPlcmt-north ZN NECB System 3 PSZ Occ Sch.",
               "For Sp-SMstore3 Sys-3 Flr-1 Sch-C HPlcmt-north ZN NECB System 3 PSZ, ERV not required based on 0% OA flow, design supply air flow of 1227cfm, and climate zone NECB HDD Method.",
               "For Sp-SMstore3 Sys-3 Flr-1 Sch-C HPlcmt-north ZN NECB System 3 PSZ, ERV not required based on exhaust heat content.",
               "For NECB 2011 NECB HDD Method:  Sp-SMstore3 Sys-3 Flr-1 Sch-C HPlcmt-north ZN NECB System 3 PSZ: DCV is not required for any system.",
               "For Sp-SMstore3 Sys-3 Flr-1 Sch-C HPlcmt-north ZN NECB System 3 PSZ: Annual occupied hours = 4168 hr/yr, assuming a 0.15 occupancy threshold.  This schedule will be used as the HVAC operation schedule.",
               "For Sp-SMstore3 Sys-3 Flr-1 Sch-C HPlcmt-north ZN NECB System 3 PSZ: Setting motorized OA damper schedule to Sp-SMstore3 Sys-3 Flr-1 Sch-C HPlcmt-north ZN NECB System 3 PSZ Occ Sch.",
               "For Sp-SMstore4 Sys-3 Flr-1 Sch-C HPlcmt-north ZN NECB System 3 PSZ, ERV not required based on 0% OA flow, design supply air flow of 1248cfm, and climate zone NECB HDD Method.",
               "For Sp-SMstore4 Sys-3 Flr-1 Sch-C HPlcmt-north ZN NECB System 3 PSZ, ERV not required based on exhaust heat content.",
[...]
5RXviOrnq1avEQLICH3BkxC7gyYhNwXMAnZVsEkZFsFk5BtFUxCtlUwCdlWwSRKbBVOQ15ucRqyrcJpyLYKpyHbKpyGbKtwGrKtwmnItgqnIdsqnIZsq3D1bwvzvMRW4TS2UMhLbBVOY71SXvkqknq2avGuEoCE3BswCbkzYBJyX8AkZFsFk5BtFUxCtlUwCdlWwSRkWwWTKLFVOA15ucVpyLYKpyHbKpyGbKtwGrKtwmnItgqnIdsqnIZsq3Aasq3C1b8tzPMSW4XT2EIhL7FVOI31Snnlju/1bNViS3iAhNwbMAm5M2AScl/AJGRbBZOQbRVMQrZVMAnZVsEkZFsFkyixVTgNebnFaci2Cqch2yqchmyrcBqyrcJpyLYKpyHbKpyGbKtwGrKtwtW/LczzEluF09hCIS+xVTiN9Up55ca69WzVYuddgITcGzAJuTNgEnJfwCRkWwWTkG0VTEK2VTAJ2VbBJGRbBZMosVU4DXm5xWnItgqnIdsqnIZsq3Aasq3Caci2Cqch2yqchmyrcBqyrcLVvy3M8xJbhdPYQiEvsVU4jfVKeeX+hfVs1WKDQ4CE3BswCbkzYBJyX8AkZFsFk5BtFUxCtlUwCdlWwSRkWwWTKN1sDaUhL7c4jbKNrFAaZXtcoTTKtr9CaZTt+YbSKNsODqVRtlMcSqNsEzmURtn+cqj6t4V5XrorHUpjC4W8xFbhNKpL+Zc6O7wut25WpyrSt6sNZIt9YxvpzbhZ7ABbuVXsav/nVGcv4lnkp41+p6lct99UPfO3br/edrN3Ocb9tta+P/AyPY6T+fO7IF3sn3x//zU2mc4TvE98nXycme2Ma19oOOaPOd5qL50leoFhdmRetvuGN/hmmGGGGWaYYYYZZphhhhlmmGGGGWaYYYYZZphhhhlmmGGGGWaYYYYZZphhhhlmmGGGGWaYYYYZZphhhhlmmGGGGWaYYYYZZvgvFZ634xudJIGv33rmwVq33fk/n1c1j8amjx+NPddJoNPl47VOc/UA8TSMs3YYRLryEdn0R8/pVj9Zm7aLV89P49DLgjjKoZw009PWpR7FiXbqPfn8Ro915D++ocW5xkGnqXrmyeWOeZDZ/OGEepQZsIrUq7Tti7HOzqLMtE8uMZpFw4K0sav+rEixItT3V3+ufJbbHMFINbJJkLbTolfqCZnjwUXtvP3OvOGk8V9g22wrfPPoeM6+zHsxjdPAJHyZn65zN6vDpPkBVRLf2iGtsILI12Y+tNym5dWr42rdC0eBDs14ayzbdDFPxkk8m2pf/fyz+tvy/F37YuKly+ffzQTbfRid/zCaN0jbG49fGY12qKNxNlHPVFf9UznPw9BRJ48/kYbBUDda7u7nzpfdyvn23Z3EiWpc5bfS+UVd5TLLobrUNef+nq849h1kDjOMl/k+X31pf9VzdXp6umi89TIWWZfdfmV7q6vjMtHe13Uu/mZ5je3nTXst7+7UDGszGJYjpdjIoX3hpWkwjrQ/MFtEpJ+LlvyyXlOuOno6SyeNdfsi79KTRX+uP5PC8KTOXbbNJ9dVSbMk/qrr6Sw+u65SPPWGQTavJ7X88Np3VUispNbNslpIHi8r60wP68XHHKvp/HjhUS3l2mazmW71Wb81i6pa6/PfqjyFOfb21IffP6l/v//9ozp///HTb+9+VW/e//rbQL0++3hWL8GrfNXWd56xaCqLVRonmYpm1/k4GKpiS5NUeekwNy9BNK6RcdX2Js+Dyuw11WX9xSXR2SyJ1NRLUv0qjL2s4ZklfzfvygfnLotztRqz2qI9kF3eQlXib5vd6eXefxbTvZjsjR1fj7xZmKlpEudrmN5pqp2fjo4Gg7OznQ1vPEMc4hCHOMQhDnGIQxziEIc4f00clc6u838CK1+bk8r35oYo0T5pSEMa0pCGNKQhDWlIQxrSkKac5rb4r1n/Q3MZzjRxiEMc4hCHOMQhDnGIQxziEGcdnPv3BrrmvYHnM+m9gT23+IXt+fP9/eNjkpKUpCQlKUlJSlKSkpSkJCUpSUn6NEi7BamXSaSdgrTX63aPDkhKUpKSlKQkJSlJSUpSkpKUpCQl6dMg7RnSV0kgkHaPC1LXPTzs9UhKUpKSlKQkJSlJSUpSkpKUpCQl6dMg3TeknyYzifSoID3Oj/4LkpKUpCQlKUlJSlKSkpSkJCUpSUn6NEj7hvRf2pdIDwvSly8Hg8NDkpKUpCQlKUlJSlKSkpSkJCUpSUn6NEgPim8mZloiPShIB4ODA5KSlKQkJSlJSUpSkpKUpCQlKUlJ+lRIDw3p21jaWbDbL0iPjrrdfp+kJCUpSUlKUpKSlKQkJSlJSUpSkm6NdIXiJ95tozLZXTsLslCfT7ypbmf6LmvsvI5nSVqNMf/+ypfBtY7SII5CnRYZKlLs7annvq88VWRSt0E2UWl8rZXfq7gyvRm3velUR37DMdrObsUFq6PtZVnScO6cpjroWF40zy/q1r8ozeahXuC1vGg4iZP8eifUIwvaZY5RHGWtWx2MJ5nJcRmHfv0ci745n7bO36ZZnOh9dT5PWz31KkxarjofTloD9fpDOLzOWlGc5F3wxzv17mzwwnws09eqpz6c/6HeD4fmszu7ZZ36bC8dJsE0+4f4mWd7fnDz47B4jZwsz6UC/9QZmhE/yBvJCyKdXPT7jipa7tTxg3QaevOTIArzUOsyjIdff3Fkvjzp4hZUNp/m15vG27vybrzF2dIrzXHjJWZwqlPlB9fTULcjfXt+M244P33P2FT7nU7xR+VkM2l9L/PyvJ//dELvUofOiePrkTcLMzVN4lEQaqe5iFzcOSduu9N0brxwppd/H5o1Kb8mX2YGg7Mz51uzVp4uKE8PlGcflKcPynMAynMIynMEynMMyuN2UIlQI9pFDWkXNaZd1KB2UaPaRQ1rFzWuXdTAdlEju4sa2V3YWo0a2V3UyO5ajWyVzq6vH72kulZFS7RvkUZsI7s0YgvZpRHbxy6NOO/t0oiz3i6NOOft0ogz3i6NON/t0siFzDIPaBzLZcwyD2gky0XMMg9oLMslzDIPaDTLBcwyD2g8y+XLMg9qXQaNZ7l2WeapP55vgyizL1uX5lT9PGLzWOYRm8cyj9g8lnnE6W6ZR5zulnnE6W6ZR5zulnnE6W6ZR65ftolQI1quYLaJUGNarmG2iVCjWq5itolQ41quY7aJUCNbrmS2iWBrNWpky8XMNlH9kX3/q0XlW4WlMtd59A+9xWuHARLdzUv0Ni+xv3mJ/uYlDjYvcbh5iaPNSxxvXuJRZd+Uxhbmd8kXszgN+ZstnIb8pRdOQ/6mF6chfwmM05C/H8ZpyF8d4zTkb5Vx9W8L87y7jTq+hULe3UIl765Xyitf3ljPVi3e7giQkHsDJiF3BkxC7guYhGyrYBKyrYJJyLYKJiHbKpiEbKtgEiW/XOM05J/+cBqyrcJpyLYKpyHbKpyGbKtwGrKtwmnItgqnIdsqnIZsq3D1bwvzvOQnfpzGFgp5ia3CaaxXyivfkVXPVi1eogWQkHsDJiF3BkxC7guYhGyrYBKyrYJJyLYKJiHbKpiEbKtgEiW2CqchL7c4DdlW4TRkW4XTkG0VTkO2VTgN2VbhNGRbhdOQbRVOQ7ZVuPq3hXleYqtwGlso5CW2CqexXimvfBVJPVu1eFcJQELuDZiE3BkwCbkvYBKyrYJJyLYKJiHbKpiEbKtgErKtgkmU2Cqchrzc4jRkW4XTkG0VTkO2VTgN2VbhNGRbhdOQbRVOQ7ZVOA3ZVuHq3xbmeYmtwmlsoZCX2CqcxnqlvHLH93q2arElPEBC7g2YhNwZMAm5L2ASsq2CSci2CiYh2yqYhGyrYBKyrYJJlNgqnIa83OI0ZFuF05BtFU5DtlU4DdlW4TRkW4XTkG0VTkO2VTgN2Vbh6t8W5nmJrcJpbKGQl9gqnMZ6pbxyY916tmqx8y5AQu4NmITcGTAJuS9gErKtgknItgomIdsqmIRsq2ASsq2CSZTYKpyGvNziNGRbhdOQbRVOQ7ZVOA3ZVuE0ZFuF05BtFU5DtlU4DdlW4erfFuZ5ia3CaWyhkJfYKpzGeqW8cv/CerZqscEhQELuDZiE3BkwCbkvYBKyrYJJyLYKJiHbKpiEbKtgErKtgkmUbraG0pCXW5xG2UZWKI2yPa5QGmXbX6E0yvZ8Q2mUbQeH0ijbKQ6lUbaJHEqjbH85VP3bwjwv3ZUOpbGFQl5iq3Aa1aX8S50dXpdbN6tTFenb1Qayxb6xjfRm3Cx2gK3cKna1/3OqsxfxLPLTRr/TVK7bb6qe+Vu3X2+72bsc435ba98feJkex8n8+V2QLvZPvr//GptM5wneJ75OPs7Mdsa1LzQc88ccb7WXzhK9wDA7Mi/bfcMbfDPMMMMMM8wwwwwzzDDDDDPMMMMMM8wwwwwzzDDDDDPMMMMMM8wwwwwzzDDDDDPMMMMMM8wwwwwzzDDDDDPMMMMMM8wwwwwz/JcKz9vxjU6SwNdvPfNgrdvu/J/Pq5pHY9PHj8ae6yTQ6fLxWqe5eoB4GsZZOwwiXfmIbPqj53Srn6xN28Wr56dx6GVBHOVQTprpaetSj+JEO/WefH6jxzryH9/Q4lzjoNNUPfPkcsc8yGz+cEI9ygxYRepV2vbFWGdnUWbaJ5cYzaJhQdrYVX9WpFgR6vurP1c+y22OYKQa2SRI22nRK/WEzPHgonbefmfecNL4L7BtthW+eXQ8Z1/mvZjGaWASvsxP17mb1WHS/IAqiW/tkFZYQeRrMx9abtPy6tVxte6Fo0CHZrw1lm26mCfjJJ5Nta9+/ln9bXn+rn0x8dLl8+9mgu0+jM5/GM0bpO2Nx6+MRjvU0TibqGeqq/6pnOdh6KiTx59Iw2CoGy1393Pny27lfPvuTuJENa7yW+n8oq5ymeVQXeqac3/PVxz7DjKHGcbLfJ+vvrS/6rk6PT1dNN56GYusy26/sr3V1XGZaO/rOhd/s7zG9vOmvZZ3d2qGtRkMy5FSbOTQvvDSNBhH2h+YLSLSz0VLflmvKVcdPZ2lk8a6fZF36cmiP9efSWF4Uucu2+aT66qkWRJ/1fV0Fp9dVymeesMgm9eTWn547bsqJFZS62ZZLSSPl5V1pof14mOO1XR+vPColnJts9lMt/qs35pFVa31+W9VnsIce3vqw++f1L/f//5Rnb//+Om3d7+qN+9//W2gXp99PKuX4FW+aus7z1g0lcUqjZNMRbPrfBwMVbGlSaq8dJiblyAa18i4anuT50Fl9prqsv7ikuhslkRq6iWpfhXGXtbwzJK/m3flg3OXxblajVlt0R7ILm+hKvG3ze70cu8/i+leTPbGjq9H3izM1DSJ8zVM7zTVzk9HR4PB2dnOhjeeIQ5xiEMc4hCHOMQhDnGIQ5y/Jo5KZ9f5P4GVr81J5XtzQ5RonzSkIQ1pSEMa0pCGNKQhDWlIU05zW/zXrP+huQxnmjjEIQ5xiEMc4hCHOMQhDnGIsw7O/XsDXfPewPOZ9N7Anlv8wvb8+f7+8TFJSUpSkpKUpCQlKUlJSlKSkpSkJH0apN2C1Msk0k5B2ut1u0cHJCUpSUlKUpKSlKQkJSlJSUpSkpL0aZD2DOmrJBBIu8cFqeseHvZ6JCUpSUlKUpKSlKQkJSlJSUpSkpL0aZDuG9JPk5lEelSQHudH/wVJSUpSkpKUpCQlKUlJSlKSkpSkJH0apH1D+i/tS6SHBenLl4PB4SFJSUpSkpKUpCQlKUlJSlKSkpSkJH0apAfFNxMzLZEeFKSDwcEBSUlKUpKSlKQkJSlJSUpSkpKUpCR9KqSHhvRtLO0s2O0XpEdH3W6/T1KSkpSkJCUpSUlKUpKSlKQkJSlJt0a6QvET77ZRmeyunQVZqM8n3lS3M32XNXZex7MkrcaYf3/ly+BaR2kQR6FOiwwVKfb21HPfV54qMqnbIJuoNL7Wyu9VXJnejNvedKojv+EYbWe34oLV0fayLGk4d05THXQsL5rnF3XrX5Rm81Av8FpeNJzESX69E+qRBe0yxyiOstatDsaTzOS4jEO/fo5F35xPW+dv0yxOdF+dz9NWT70Kk5arzoeT1kC9/hAOr7NWFCd5F/zxTr07G7wwH8v0teqpD+d/qPfDofnszm5Zpz7bS4dJMM3+IX7m2Z4f3Pw4LF4jJ8tzqcA/dYZmxA/yRvKCSCcX/QNHFS136vhBOg29+UkQhXmodRnGw6+/ODJfnnRxCyqbT/PrTePtXXk33uJs6ZXmuPESMzjVqfKD62mo25G+Pb8ZN5yfvmdsqv1Op/ijcrKZtL6XeXnez386oXepQ+fE8fXIm4WZmibxKAi101xELu6cE7fdaTo3XjjTy78PzZqUX5MvM4PB2ZnzrVkrTxeUpwfKsw/K0wflOQDlOQTlOQLlOQblcTuoRKgR7aKGtIsa0y5qULuoUe2ihrWLGtcuamC7qJHdRY3sLmytRo3sLmpkd61Gtkpn19ePXlJdq6Il2rdII7aRXRqxhezSiO1jl0ac93ZpxFlvl0ac83ZpxBlvl0ac73Zp5EJmmQc0juUyZpkHNJLlImaZBzSW5RJmmQc0muUCZpkHNJ7l8mWZB7Uug8azXLss89Qfz7dBlNmXrUtzqn4esXks84jNY5lHbB7LPOJ0t8wjTnfLPOJ0t8wjTnfLPOJ0t8wj1y/bRKgRLVcw20SoMS3XMNtEqFEtVzHbRKhxLdcx20SokS1XMttEsLUaNbLlYmabqP7Ivv/VovKtwlKZ6zz6h97itcMAie7mJXqbl9jfvER/8xIHm5c43LzE0eYljjcv8aiyb0pjC/O75ItZnIb8zRZOQ/7SC6chf9OL05C/BMZpyN8P4zTkr45xGvK3yrj6t4V53t1GHd9CIe9uoZJ31yvllS9vrGerFm93BEjIvQGTkDsDJiH3BUxCtlUwCdlWwSRkWwWTkG0VTEK2VTCJkl+ucRryT384DdlW4TRkW4XTkG0VTkO2VTgN2VbhNGRbhdOQbRVOQ7ZVuPq3hXle8hM/TmMLhbzEVuE01ivlle/IqmerFi/RAkjIvQGTkDsDJiH3BUxCtlUwCdlWwSRkWwWTkG0VTEK2VTCJEluF05CXW5yGbKtwGrKtwmnItgqnIdsqnIZsq3Aasq3Caci2Cqch2ypc/dvCPC+xVTiNLRTyEluF01ivlFe+iqSerVq8qwQgIfcGTELuDJiE3BcwCdlWwSRkWwWTkG0VTEK2VTAJ2VbBJEpsFU5DXm5xGrKtwmnItgqnIdsqnIZsq3Aasq3Caci2Cqch2yqchmyrcPVvC/O8xFbhNLZQyEtsFU5jvVJeueN7PVu12BIeICH3BkxC7gyYhNwXMAnZVsEkZFsFk5BtFUxCtlUwCdlWwSRKbBVOQ15ucRqyrcJpyLYKpyHbKpyGbKtwGrKtwmnItgqnIdsqnIZsq3D1bwvzvMRW4TS2UMhLbBVOY71SXrmxbj1btdh5FyAh9wZMQu4MmITcFzAJ2VbBJGRbBZOQbRVMQrZVMAnZVsEkSmwVTkNebnEasq3Caci2Cqch2yqchmyrcBqyrcJpyLYKpyHbKpyGbKtw9W8L87zEVuE0tlDIS2wVTmO9Ul65f2E9W7XY4BAgIfcGTELuDJiE3BcwCdlWwSRkWwWTkG0VTEK2VTAJ2VbBJEo3W0NpyMstTqNsIyuURtkeVyiNsu2vUBple76hNMq2g0NplO0Uh9Io20QOpVG2vxyq/m1hnpfuSofS2EIhL7FVOI3qUv6lzg6vy62b1amK9O1qA9li39hGejNuFjvAVm4Vu9r/OdXZi3gW+Wmj32kq1+03Vc/8rduvt93sXY5xv6217w+8TI/jZP78LkgX+yff33+NTabzBO8TXycfZ2Y749oXGo75Y4632ktniV5gmB2Zl+2+4Q2+GWaYYYYZZphhhhlmmGGGGWaYYYYZZphhhhlmmGGGGWaYYYYZZphhhhlmmGGGGWaYYYYZZphhhhlmmGGGGWaYYYYZZphhhhn+S4Xn7fhGJ0ng67eeebDWbXf+z+dVzaOx6eNHY891Euh0+Xit01w9QDwN46wdBpGufEQ2/dFzutVP1qbt4tXz0zj0siCOcignzfS0dalHcaKdek8+v9FjHfmPb2hxrnHQaaqeeXK5Yx5kNn84oR5lBqwi9Spt+2Kss7MoM+2TS4xm0bAgbeyqPytSrAj1/dWfK5/lNkcwUo1sEqTttOiVekLmeHBRO2+/M284afwX2DbbCt88Op6zL/NeTOM0MAlf5qfr3M3qMGl+QJXEt3ZIK6wg8rWZDy23aXn16rha98JRoEMz3hrLNl3Mk3ESz6baVz//rP62PH/Xvph46fL5dzPBdh9G5z+M5g3S9sbjV0ajHeponE3UM9VV/1TO8zB01MnjT6RhMNSNlrv7ufNlt3K+fXcncaIaV/mtdH5RV7nMcqgudc25v+crjn0HmcMM42W+z1df2l/1XJ2eni4ab72MRdZlt1/Z3urquEy093Wdi79ZXmP7edNey7s7NcPaDIblSCk2cmhfeGkajCPtD8wWEennoiW/rNeUq46eztJJY92+yLv0ZNGf68+kMDypc5dt88l1VdIsib/qejqLz66rFE+9YZDN60ktP7z2XRUSK6l1s6wWksfLyjrTw3rxMcdqOj9eeFRLubbZbKZbfdZvzaKq1vr8typPYY69PfXh90/q3+9//6jO33/89Nu7X9Wb97/+NlCvzz6e1UvwKl+19Z1nLJrKYpXGSaai2XU+Doaq2NIkVV46zM1LEI1rZFy1vcnzoDJ7TXVZf3FJdDZLIjX1klS/CmMva3hmyd/Nu/LBucviXK3GrLZoD2SXt1CV+Ntmd3q595/FdC8me2PH1yNvFmZqmsT5GqZ3mmrnp6OjweDsbGfDG88QhzjEIQ5xiEMc4hCHOMQhzl8TR6Wz6/yfwMrX5qTyvbkhSrRPGtKQhjSkIQ1pSEMa0pCGNKQpp7kt/mvW/9BchjNNHOIQhzjEIQ5xiEMc4hCHOMRZB+f+vYGueW/g+Ux6b2DPLX5he/58f//4mKQkJSlJSUpSkpKUpCQlKUlJSlKSPg3SbkHqZRJppyDt9brdowOSkpSkJCUpSUlKUpKSlKQkJSlJSfo0SHuG9FUSCKTd44LUdQ8Pez2SkpSkJCUpSUlKUpKSlKQkJSlJSfo0SPcN6afJTCI9KkiP86P/gqQkJSlJSUpSkpKUpCQlKUlJSlKSPg3SviH9l/Yl0sOC9OXLweDwkKQkJSlJSUpSkpKUpCQlKUlJSlKSPg3Sg+KbiZmWSA8K0sHg4ICkJCUpSUlKUpKSlKQkJSlJSUpSkj4V0kND+jaWdhbs9gvSo6Nut98nKUlJSlKSkpSkJCUpSUlKUpKSlKRbI12h+Il326hMdtfOgizU5xNvqtuZvssaO6/jWZJWY8y/v/JlcK2jNIijUKdFhooUe3vque8rTxWZ1G2QTVQaX2vl9yquTG/GbW861ZHfcIy2s1txwepoe1mWNJw7p6kOOpYXzfOLuvUvSrN5qBd4LS8aTuIkv94J9ciCdpljFEdZ61YH40lmclzGoV8/x6Jvzqet87dpFif6QJ3P01ZPvQqTlqvOh5PWQL3+EA6vs1YUJ3kX/PFOvTsbvDAfy/S16qkP53+o98Oh+ezOblmnPttLh0kwzf4hfubZnh/c/DgsXiMny3OpwD91hmbED/JG8oJIJxf9Q0cVLXfq+EE6Db35SRCFeah1GcbDr784Ml+edHELKptP8+tN4+1deTfe4mzplea48RIzONWp8oPraajbkb49vxk3nJ++Z2yq/U6n+KNyspm0vpd5ed7Pfzqhd6lD58Tx9cibhZmaJvEoCLXTXEQu7pwTt91pOjdeONPLvw/NmpRfky8zg8HZmfOtWStPF5SnB8qzD8rTB+U5AOU5BOU5AuU5BuVxO6hEqBHtooa0ixrTLmpQu6hR7aKGtYsa1y5qYLuokd1FjewubK1GjewuamR3rUa2SmfX149eUl2roiXat0gjtpFdGrGF7NKI7WOXRpz3dmnEWW+XRpzzdmnEGW+XRpzvdmnkQmaZBzSO5TJmmQc0kuUiZpkHNJblEmaZBzSa5QJmmQc0nuXyZZkHtS6DxrNcuyzz1B/Pt0GU2ZetS3Oqfh6xeSzziM1jmUdsHss84nS3zCNOd8s84nS3zCNOd8s84nS3zCPXL9tEqBEtVzDbRKgxLdcw20SoUS1XMdtEqHEt1zHbRKiRLVcy20SwtRo1suViZpuo/si+/9Wi8q3CUpnrPPqH3uK1wwCJ7uYlepuX2N+8RH/zEgeblzjcvMTR5iWONy/xqLJvSmML87vki1mchvzNFk5D/tILpyF/04vTkL8ExmnI3w/jNOSvjnEa8rfKuPq3hXne3UYd30Ih726hknfXK+WVL2+sZ6sWb3cESMi9AZOQOwMmIfcFTEK2VTAJ2VbBJGRbBZOQbRVMQrZVMImSX65xGvJPfzgN2VbhNGRbhdOQbRVOQ7ZVOA3ZVuE0ZFuF05BtFU5DtlW4+reFeV7yEz9OYwuFvMRW4TTWK+WV78iqZ6sWL9ECSMi9AZOQOwMmIfcFTEK2VTAJ2VbBJGRbBZOQbRVMQrZVMIkSW4XTkJdbnIZsq3Aasq3Caci2Cqch2yqchmyrcBqyrcJpyLYKpyHbKlz928I8L7FVOI0tFPISW4XTWK+UV76KpJ6tWryrBCAh9wZMQu4MmITcFzAJ2VbBJGRbBZOQbRVMQrZVMAnZVsEkSmwVTkNebnEasq3Caci2Cqch2yqchmyrcBqyrcJpyLYKpyHbKpyGbKtw9W8L87zEVuE0tlDIS2wVTmO9Ul6543s9W7XYEh4gIfcGTELuDJiE3BcwCdlWwSRkWwWTkG0VTEK2VTAJ2VbBJEpsFU5DXm5xGrKtwmnItgqnIdsqnIZsq3Aasq3Caci2Cqch2yqchmyrcPVvC/O8xFbhNLZQyEtsFU5jvVJeubFuPVu12HkXICH3BkxC7gyYhNwXMAnZVsEkZFsFk5BtFUxCtlUwCdlWwSRKbBVOQ15ucRqyrcJpyLYKpyHbKpyGbKtwGrKtwmnItgqnIdsqnIZsq3D1bwvzvMRW4TS2UMhLbBVOY71SXrl/YT1btdjgECAh9wZMQu4MmITcFzAJ2VbBJGRbBZOQbRVMQrZVMAnZVsEkSjdbQ2nIyy1Oo2wjK5RG2R5XKI2y7a9QGmV7vqE0yraDQ2mU7RSH0ijbRA6lUba/HKr+bWGel+5Kh9LYQiEvsVU4jepS/qXODq/LrZvVqYr07WoD2WLf2EZ6M24WO8BWbhW72v851dmLeBb5aaPfaSrX7TdVz/yt26+33exdjnG/rbXvD7xMj+Nk/vwuSBf7J9/ff41NpvME7xNfJx9nZjvj2hcajvljjrfaS2eJXmCYHZmX7b7hDb4ZZphhhhlmmGGGGWaYYYYZZphhhhlmmGGGGWaYYYYZZphhhhlmmGGGGWaYYYYZZphhhhlmmGGGGWaYYYYZZphhhhlmmGGGGf5Lheft+EYnSeDrt555sNZtd/7P51XNo7Hp40djz3US6HT5eK3TXD1APA3jrB0Gka58RDb90XO61U/Wpu3i1fPTOPSyII5yKCfN9LR1qUdxop16Tz6/0WMd+Y9vaHGucdBpqp55crljHmQ2fzihHmUGrCL1Km37Yqyzsygz7ZNLjGbRsCBt7Ko/K1KsCPX91Z8rn+U2RzBSjWwSpO206JV6QuZ4cFE7b78zbzhp/BfYNtsK3zw6nrMv815M4zQwCV/mp+vczeowaX5AlcS3dkgrrCDytZkPLbdpefXquFr3wlGgQzPeGss2XcyTcRLPptpXP/+s/rY8f9e+mHjp8vl3M8F2H0bnP4zmDdL2xuNXRqMd6micTdQz1VX/VM7zMHTUyeNPpGEw1I2Wu/u582W3cr59dydxohpX+a10flFXucxyqC51zbm/5yuOfQeZwwzjZb7PV1/aX/VcnZ6eLhpvvYxF1mW3X9ne6uq4TLT3dZ2Lv1leY/t5017Luzs1w9oMhuVIKTZyaF94aRqMI+0PzBYR6eeiJb+s15Srjp7O0klj3b7Iu/Rk0Z/rz6QwPKlzl23zyXVV0iyJv+p6OovPrqsUT71hkM3rSS0/vPZdFRIrqXWzrBaSx8vKOtPDevExx2o6P154VEu5ttlsplt91m/NoqrW+vy3Kk9hjr099eH3T+rf73//qM7ff/z027tf1Zv3v/42UK/PPp7VS/AqX7X1nWcsmspilcZJpqLZdT4OhqrY0iRVXjrMzUsQjWtkXLW9yfOgMntNdVl/cUl0NksiNfWSVL8KYy9reGbJ38278sG5y+JcrcastmgPZJe3UJX422Z3ern3n8V0LyZ7Y8fXI28WZmqaxPkapneaaueno6PB4OxsZ8MbzxCHOMQhDnGIQxziEIc4xCHOXxNHpbPr/J/AytfmpPK9uSFKtE8a0pCGNKQhDWlIQxrSkIY0pCmnuS3+a9b/0FyGM00c4hCHOMQhDnGIQxziEIc4xFkH5/69ga55b+D5THpvYM8tfmF7/nx///iYpCQlKUlJSlKSkpSkJCUpSUlKUpI+DdJuQeplEmmnIO31ut2jA5KSlKQkJSlJSUpSkpKUpCQlKUlJ+jRIe4b0VRIIpN3jgtR1Dw97PZKSlKQkJSlJSUpSkpKUpCQlKUlJ+jRI9w3pp8lMIj0qSI/zo/+CpCQlKUlJSlKSkpSkJCUpSUlKUpI+DdK+If2X9iXSw4L05cvB4PCQpCQlKUlJSlKSkpSkJCUpSUlKUpI+DdKD4puJmZZIDwrSweDggKQkJSlJSUpSkpKUpCQlKUlJSlKSPhXSQ0P6NpZ2Fuz2C9Kjo2633ycpSUlKUpKSlKQkJSlJSUpSkpKUpFsjXaH4iXfbqEx2186CLNTnE2+q25m+yxo7r+NZklZjzL+/8mVwraM0iKNQp0WGihR7e+q57ytPFZnUbZBNVBpfa+X3Kq5Mb8ZtbzrVkd9wjLazW3HB6mh7WZY0nDunqQ46lhfN84u69S9Ks3moF3gtLxpO4iS/3gn1yIJ2mWMUR1nrVgfjSWZyXMahXz/Hom/Op63zt2kWJ/pQnc/TVk+9CpOWq86Hk9ZAvf4QDq+zVhQneRf88U69Oxu8MB/L9LXqqQ/nf6j3w6H57M5uWac+20uHSTDN/iF+5tmeH9z8OCxeIyfLc6nAP3WGZsQP8kbygkgnF/0jRxUtd+r4QToNvflJEIV5qHUZxsOvvzgyX550cQsqm0/z603j7V15N97ibOmV5rjxEjM41anyg+tpqNuRvj2/GTecn75nbKr9Tqf4o3KymbS+l3l53s9/OqF3qUPnxPH1yJuFmZom8SgItdNcRC7unBO33Wk6N14408u/D82alF+TLzODwdmZ861ZK08XlKcHyrMPytMH5TkA5TkE5TkC5TkG5XE7qESoEe2ihrSLGtMualC7qFHtooa1ixrXLmpgu6iR3UWN7C5srUaN7C5qZHetRrZKZ9fXj15SXauiJdq3SCO2kV0asYXs0ojtY5dGnPd2acRZb5dGnPN2acQZb5dGnO92aeRCZpkHNI7lMmaZBzSS5SJmmQc0luUSZpkHNJrlAmaZBzSe5fJlmQe1LoPGs1y7LPPUH8+3QZTZl61Lc6p+HrF5LPOIzWOZR2weyzzidLfMI053yzzidLfMI053yzzidLfMI9cv20SoES1XMNtEqDEt1zDbRKhRLVcx20SocS3XMdtEqJEtVzLbRLC1GjWy5WJmm6j+yL7/1aLyrcJSmes8+ofe4rXDAInu5iV6m5fY37xEf/MSB5uXONy8xNHmJY43L/Gosm9KYwvzu+SLWZyG/M0WTkP+0gunIX/Ti9OQvwTGacjfD+M05K+OcRryt8q4+reFed7dRh3fQiHvbqGSd9cr5ZUvb6xnqxZvdwRIyL0Bk5A7AyYh9wVMQrZVMAnZVsEkZFsFk5BtFUxCtlUwiZJfrnEa8k9/OA3ZVuE0ZFuF05BtFU5DtlU4DdlW4TRkW4XTkG0VTkO2Vbj6t4V5XvITP05jC4W8xFbhNNYr5ZXvyKpnqxYv0QJIyL0Bk5A7AyYh9wVMQrZVMAnZVsEkZFsFk5BtFUxCtlUwiRJbhdOQl1uchmyrcBqyrcJpyLYKpyHbKpyGbKtwGrKtwmnItgqnIdsqXP3bwjwvsVU4jS0U8hJbhdNYr5RXvoqknq1avKsEICH3BkxC7gyYhNwXMAnZVsEkZFsFk5BtFUxCtlUwCdlWwSRKbBVOQ15ucRqyrcJpyLYKpyHbKpyGbKtwGrKtwmnItgqnIdsqnIZsq3D1bwvzvMRW4TS2UMhLbBVOY71SXrnjez1btdgSHiAh9wZMQu4MmITcFzAJ2VbBJGRbBZOQbRVMQrZVMAnZVsEkSmwVTkNebnEasq3Caci2Cqch2yqchmyrcBqyrcJpyLYKpyHbKpyGbKtw9W8L87zEVuE0tlDIS2wVTmO9Ul65sW49W7XYeRcgIfcGTELuDJiE3BcwCdlWwSRkWwWTkG0VTEK2VTAJ2VbBJEpsFU5DXm5xGrKtwmnItgqnIdsqnIZsq3Aasq3Caci2Cqch2yqchmyrcPVvC/O8xFbhNLZQyEtsFU5jvVJeuX9hPVu12OAQICH3BkxC7gyYhNwXMAnZVsEkZFsFk5BtFUxCtlUwCdlWwSRKN1tDacjLLU6jbCMrlEbZHlcojbLtr1AaZXu+oTTKtoNDaZTtFIfSKNtEDqVRtr8cqv5tYZ6X7kqH0thCIS+xVTiN6lL+pc4Or8utm9WpivTtagPZYt/YRnozbhY7wFZuFbva/znV2Yt4Fvlpo99pKtftN1XP/K3br7fd7F2Ocb+tte8PvEyP42T+/C5IF/sn399/jU2m8wTvE18nH2dmO+PaFxqO+WOOt9pLZ4leYJgdmZftvuENvhlmmGGGGWaYYYYZZphhhhlmmGGGGWaYYYYZZphhhhlmmGGGGWaYYYYZZphhhhlmmGGGGWaYYYYZZphhhhlmmGGGGWaYYYYZ/kuF5+34RidJ4Ou3nnmw1m13/s/nVc2jsenjR2PPdRLodPl4rdNcPUA8DeOsHQaRrnxENv3Rc7rVT9am7eLV89M49LIgjnIoJ830tHWpR3GinXpPPr/RYx35j29oca5x0GmqnnlyuWMeZDZ/OKEeZQasIvUqbftirLOzKDPtk0uMZtGwIG3sqj8rUqwI9f3Vnyuf5TZHMFKNbBKk7bTolXpC5nhwUTtvvzNvOGn8F9g22wrfPDqesy/zXkzjNDAJX+an69zN6jBpfkCVxLd2SCusIPK1mQ8tt2l59eq4WvfCUaBDM94ayzZdzJNxEs+m2lc//6z+tjx/176Y/Ke9s21qG1fD8PfzK3S8M0sym5g4IeGlze7QENrOtKUDdHZ2GYZRYpEYHDtjyUBmh/9+LMfhJAU3kl/a5pxbH4Ba0q1L0vNIKjJPKE/+/l06WHU5d/ZibjQgJh2NjmUbpsu8kRiT16RJ/iDGoesa5GC1BHedIavUrepF47K61t+e9cQPSOUm6krjFbmJmklMNWlXPvstWnH0J0gmacaJ3sXNpXnLZqTb7c4HL5tirJpM+41uVxdpEDB6m6Xyo2Yd3fJyvJLedaVZS2NILCUO5GBeUc6dkcfsngwRwS/ikbzMNpSLiZ6GfFzJOhfRlB7M5zO7J7nugUovTVkyaytcBP4tU2tnXjZrS/6UDh0xU2sqKZy5V3ETi6ayqiwWktVlJYt7aC8+Mi3ceXXhIXVi6arpuJs662Mt3lWVyj+uO1PItL1NPn85J3+dfDklZyen5+8/vSUfTt6+75F3/dO+msBxtGqzByqPaET4hPuBIF44iexgSOKQJpxQPowOL443UlBcjL3UWdqZaY0M1BeXgIkw8MiUBpwduz4VFSqX/Go0lUvPBvEzpcFcf0Rbajbpwjrhx3IjvTydP2N3j529smWzaxq6gkwDP1rD2FaNbP2yt9fr9ftbJQeeAQ5wgAMc4AAHOMABDnCAA5z/TRzCw0n0X2BiM/mQ2HQmiQJmgwY0oAENaEADGtCABjSgAQ1ovk1zH7+a9RXNwA0ZcIADHOAABzjAAQ5wgAMc4AAnC87T5wZa8nMDz8K0zw1sWfEN2+Hhzs7+PkhBClKQghSkIAUpSEEKUpCCFKQg3QzSZkxKRRppIyZttZrNvQ5IQQpSkIIUpCAFKUhBClKQghSkIN0M0pYkPQ6cFNLmfkxqWbu7rRZIQQpSkIIUpCAFKUhBClKQghSkIN0M0h1Jej4O00j3YtL9KLXfgBSkIAUpSEEKUpCCFKQgBSlIQQrSzSBtS9I/mZ1GuhuTHh31eru7IAUpSEEKUpCCFKQgBSlIQQpSkIJ0M0g78W8mQpZG2olJe71OB6QgBSlIQQpSkIIUpCAFKUhBClKQbgrpriT96KdFFmy2Y9K9vWaz3QYpSEEKUpCCFKQgBSlIQQpSkIIUpN+NdIFiB/S+slbswRSOcNnZmE6ZKdiDqGy988OAr8eYPa955EyYxx3fcxmPFdZIbG+TQ9smlMRK5N4RY8L9CSN2a01Nfjcy6XTKPLtiyLaN6poKi2RSIYKK8WDUSKehWWkWVWqqV+Ji5rI5Xp16w7EfRPUNl11r0CYa174n6vfMGY2F1Bj4rq2uMZ+bs2n97CMXfsD2yNmM11vk2A3qFjkbjus98u6zO5yIOqNckL8/kU/93htZSrAJaZHPZ3+Tk+FQFt2qfmtOX2/zYeBMxe+pZV5v287dy9mpddLFIi3i2F1jKA2+F40RdTwWXLX3DRIPXNewHT516ezA8dwoqz5w/eHtKyOdLxKdd4GI2TSqL8du+4be0fnTb9aU6Y4G0jZJl9jOZOoy02P3Z3ejivHLc8Ya2Wk04i9rfU3K2lTQSPfiH8OlA+YaB4bNrmnoCjIN/GvHZUZtnnP1YBxYZqNm3FE3ZMZBZ9/cX0p7+zVjKBeoSCFac3q9ft94rCmpNktRbZWiulOKarsU1U4pqrulqO6VorpfiqrVKEe2HO+yynEvqxz/sspxMKscD7PKcTGrHB+zynEyqxwva5bjZc2S9rByvKxZjpc1c3gZ4eFksvKZ3xlOCAGzNUQVx1ZPVHFk9UQVx1VPVHHt0hNVXLn0RBXXLT1RxVVLT1RxzdITVT0YaKqW4lOqxwJN1VK8SvVQoKlail+pHgk0VUvxLNUDgaZqKb6lehzQVC1nvyrFt1TPApqqWX3r3vFE3mPAQBZQV1UcVk1VxWHVVFUcVk1VxSVLU1VxydJUVVyyNFUVlyxNVcUlS1NV9TygK1uOd6meCHRly/Ev1TOBrmw5HqZ6KtCVLcfHVM8FurLleJnqyUBXtqQ9rBwvUz0c6MpqedmlyoVDcpFIusRj94v7jPgao8LvRrX4QmLtzcXiNpIz8cYPPZtX2o0asax2jbTkT8222u3HQ4TxdMlq2z0q2MgPZocPDp/f5j0NhcKVZyRwEtgsOA3l5ZpyRckxW+X4yCgPAzbHkPeDyRTkvcSN75FWmzpjgcN4ghu1lEzI1PWFKS+31jbJX+r3elJuxnY39V0qHN+LoAwu2LQ+YNd+wAw1S/rARsyzVzs0f1bpRFbQkpYgL8Ms+SW5I117fbyQNa9GTPQ9IccnauI69IYxaaVK/lG4JJWE7Kn2xVrfkMm5JhUxdnhk17KeWkMyLVUyo/Hr0+G48l9gXbUFfnI3mOheTX3uSMGj6LFKbxZJyrxAFfj3ekgLLMezmXTculXTrL1IN1krXjvMlfZWScZ07iejwA+nzCa//kr+nTx/MK/GlCfriXSw6nLu7MXcaEBMOhodyzZMl3kjMSavSZP8QYxD1zXIwWoJ7jpDVqlb1YvGZXWtvz3riR+Qyk3UlcYrchM1k5hq0q589luXWPoTJJM040Tv4ubSvGXR8tbtzgcvm2Ksmkz7jW5XF2kQMHqbpfKjZh3d8nK8kt51pVlLY0gsJd4Yzav5C0DMjl8B4hfxSF5mG8rFRE9DPq5knYtoSg/m85ndk1z3QKWXpiyZtRUuAv+WqbUzL5u1JX9Kh46YqTWVFM7cq7iJRVNZVRYLyeqyksU9tBcfmRbuvLrwkDqxdNV03E2d9bEW76pK5R/XnSlk2t4mn7+ck79OvpySs5PT8/ef3pIPJ2/f98i7/mlfTeA4WrXZA5VHNCJ8wv3oIO2Fk8gOhiQ+InJC+TA6vDjeSEFxMfZSZ2lnpjUyUF9cAibCwCNTGnB27PpUVKhc8qvRVC49G8TPlAZz/RFtqdmkC+uEH3/Ai5pfXcAmb2PKC9Uf8t4ocIADHOAABzjAAQ5wgAMc4Gw8zvMXXCRRwGzQgAY0oAENaEADGtCABjSgAc23aZ69Eihp5Ct+wAEOcIADHOAABzjAAQ5wgAOcHxge8ZxNpiygIgwYqRxXESDxpwqQ+CeVFveOxd8OJwOHeYLIKZNxD5kdRuNfJ7uN440Igdhp/PwhECPG7xUCMf7D06whmArSaRWks1OQTrsgnU5BOrsF6ewVpLNfkM5KbIFcQkVZtFWUSVtF2bRVlFFbRVm1VZRZW0XZtVWUYVtFWXazKMtuFrZWF2XZzaIsu6ll2eoh+1aksgfpyyGTOkLZA/HlkEn1++zB9nLIpPp89oB6OWRS/T1H0Lw8OgXZcfo2liMUXh6dgkw5fQ/LEeAuj05B1py+geUIW5dnHSzIntN3rxzB6PLoFGTP6VtX9hBzKzI5gsrl0UkdnhyB4/LopLp7juBweXRS3T1HALg8OqnunifIWy6hoiw6fQfLE7otl1BRRp2+ieUJyJZLqCi7Tt/H8oRZy7UyFmXZ6VtZnuBpuYSKsuz03Qwh0TYiJBqykY1sZCMb2chGNrKRjWxkIxvZyEY2sn+m7Jnp37EgcGz2kcpfVFlmAyHxl3qCkPhPCSHxtRJC4iMkvkZCSPyvE0Lif50QEl8zISQ+QuK/mBASHzjAAQ5wgAMc4AAHOMABDnCAswkBJUEDGtCABjSgAQ1oQAMa0IBmc2j+bwJZAgc4wAEOcIADHOAABzjAAU729n5ASPwjZ8I87vieyzhHQPyfKyC+H9yS/vW1M3SYN5w9hcH/vgHwk9Jf5Sz/e/Hz/PuTevLD07eBb8/k97GYuL//6z9rHMl+"
               },
               {
                  "name" : "annual_peak_electric_demand",
                  "units" : "kW",
                  "value" : 256.44988000000001
               },
               {
                  "name" : "first_year_capital_cost",
                  "units" : "$",
                  "value" : 0
               },
               {
                  "name" : "annual_utility_cost",
                  "units" : "$",
                  "value" : 0
               },
               {
                  "name" : "total_lifecycle_cost",
                  "units" : "$",
                  "value" : 0
               }
            ],
            "step_warnings" : [ "A table in Annual Overview section returned false and was skipped." ]
         }
      }
   ],
   "updated_at" : "20170710T185601Z",
   "weather_file" : "USA_CO_Denver.Intl.AP.725650_TMY3.epw"
}
