{
   "completed_at" : "20170710T184115Z",
   "completed_status" : "Success",
   "created_at" : "2017-07-10 18:38:06 +0000",
   "current_step" : 5,
   "description" : "",
   "eplusout_err" : "Program Version,EnergyPlus, Version 8.7.0-78a111df4a, YMD=2017.07.10 18:39,IDD_Version 8.7.0\n   ************* IDF Context for following error/warning message:\n   ************* Note -- lines truncated at 300 characters, if necessary...\n   *************      5 Building,\n   ************* indicated Name=NECB 2011-RetailStripmall-NECB HDD Method-CAN_BC_Vancouver.718920_CWEC.epw created: 2017-07-10 18:38:13 +0000\n   ************* Only last 1 lines before error line shown.....\n   *************      6   NECB 2011-RetailStripmall-NECB HDD Method-CAN_BC_Vancouver.718920_CWEC.epw created: 2017-07-10 18:38:13 +0000, !- Name\n   ** Warning ** IP: IDF line~6 Alpha Argument length exceeds maximum, will be truncated=  NECB 2011-RetailStripmall-NECB HDD Method-CAN_BC_Vancouver.718920_CWEC.epw created: 2017-07-10 18:38:13 +000\n   **   ~~~   ** Will be processed as Alpha=NECB 2011-RETAILSTRIPMALL-NECB HDD METHOD-CAN_BC_VANCOUVER.718920_CWEC.EPW CREATED: 2017-07-10 18:38:13 +0000\n   ************* Beginning Zone Sizing Calculations\n   ** Warning ** ProcessScheduleInput: Schedule:Day:Interval=\"ECONOMIZER MAX OA FRACTION 100 PCT DEFAULT\", Blank Schedule Type Limits Name input -- will not be validated.\n   ** Warning ** ProcessScheduleInput: Schedule:Day:Interval=\"SCHEDULE DAY 1\", Blank Schedule Type Limits Name input -- will not be validated.\n   ** Warning ** ProcessScheduleInput: Schedule:Day:Interval=\"SCHEDULE DAY 10\", Blank Schedule Type Limits Name input -- will not be validated.\n   ** Warning ** ProcessScheduleInput: Schedule:Day:Interval=\"SCHEDULE DAY 11\", Blank Schedule Type Limits Name input -- will not be validated.\n   ** Warning ** ProcessScheduleInput: Schedule:Day:Interval=\"SCHEDULE DAY 12\", Blank Schedule Type Limits Name input -- will not be validated.\n   ** Warning ** ProcessScheduleInput: Schedule:Day:Interval=\"SCHEDULE DAY 13\", Blank Schedule Type Limits Name input -- will not be validated.\n   ** Warning ** ProcessScheduleInput: Schedule:Day:Interval=\"SCHEDULE DAY 14\", Blank Schedule Type Limits Name input -- will not be validated.\n   ** Warning ** ProcessScheduleInput: Schedule:Day:Interval=\"SCHEDULE DAY 15\", Blank Schedule Type Limits Name input -- will not be validated.\n   ** Warning ** ProcessScheduleInput: Schedule:Day:Interval=\"SCHEDULE DAY 16\", Blank Schedule Type Limits Name input -- will not be validated.\n   ** Warning ** ProcessScheduleInput: Schedule:Day:Interval=\"SCHEDULE DAY 17\", Blank Schedule Type Limits Name input -- will not be validated.\n   ** Warning ** ProcessScheduleInput: Schedule:Day:Interval=\"SCHEDULE DAY 18\", Blank Schedule Type Limits Name input -- will not be validated.\n   ** Warning ** ProcessScheduleInput: Schedule:Day:Interval=\"SCHEDULE DAY 19\", Blank Schedule Type Limits Name input -- will not be validated.\n   ** Warning ** ProcessScheduleInput: Schedule:Day:Interval=\"SCHEDULE DAY 2\", Blank Schedule Type Limits Name input -- will not be validated.\n   ** Warning ** ProcessScheduleInput: Schedule:Day:Interval=\"SCHEDULE DAY 20\", Blank Schedule Type Limits Name input -- will not be validated.\n   ** Warning ** ProcessScheduleInput: Schedule:Day:Interval=\"SCHEDULE DAY 21\", Blank Schedule Type Limits Name input -- will not be validated.\n   ** Warning ** ProcessScheduleInput: Schedule:Day:Interval=\"SCHEDULE DAY 22\", Blank Schedule Type Limits Name input -- will not be validated.\n   ** Warning ** ProcessScheduleInput: Schedule:Day:Interval=\"SCHEDULE DAY 23\", Blank Schedule Type Limits Name input -- will not be validated.\n   ** Warning ** ProcessScheduleInput: Schedule:Day:Interval=\"SCHEDULE DAY 24\", Blank Schedule Type Limits Name input -- will not be validated.\n   ** Warning ** ProcessScheduleInput: Schedule:Day:Interval=\"SCHEDULE DAY 25\", Blank Schedule Type Limits Name input -- will not be validated.\n   ** Warning ** ProcessScheduleInput: Schedule:Day:Interval=\"SCHEDULE DAY 26\", Blank Schedule Type Limits Name input -- will not be validated.\n   ** Warning ** ProcessScheduleInput: Schedule:Day:Interval=\"SCHEDULE DAY 27\", Blank Schedule Type Limits Name input -- will not be validated.\n   ** Warning ** ProcessScheduleInput: Schedule:Day:Interval=\"SCHEDULE DAY 28\", Blank Schedule Type Limits Name input -- will not be validated.\n   ** Warning ** ProcessScheduleInput: Schedule:Day:Interval=\"SCHEDULE DAY 29\", Blank Schedule Type Limits Name input -- will not be validated.\n   ** Warning ** ProcessScheduleInput: Schedule:Day:Interval=\"SCHEDULE DAY 30\", Blank Schedule Type Limits Name input -- will not be validated.\n   ** Warning ** ProcessScheduleInput: Schedule:Day:Interval=\"SCHEDULE DAY 31\", Blank Schedule Type Limits Name input -- will not be validated.\n   ** Warning ** ProcessScheduleInput: Schedule:Day:Interval=\"SCHEDULE DAY 32\", Blank Schedule Type Limits Name input -- will not be validated.\n   ** Warning ** ProcessScheduleInput: Schedule:Day:Interval=\"SCHEDULE DAY 33\", Blank Schedule Type Limits Name input -- will not be validated.\n   ** Warning ** ProcessScheduleInput: Schedule:Day:Interval=\"SCHEDULE DAY 34\", Blank Schedule Type Limits Name input -- will not be validated.\n   ** Warning ** ProcessScheduleInput: Schedule:Day:Interval=\"SCHEDULE DAY 35\", Blank Schedule Type Limits Name input -- will not be validated.\n   ** Warning ** ProcessScheduleInput: Schedule:Day:Interval=\"SCHEDULE DAY 36\", Blank Schedule Type Limits Name input -- will not be validated.\n   ** Warning ** ProcessScheduleInput: Schedule:Day:Interval=\"SCHEDULE DAY 37\", Blank Schedule Type Limits Name input -- will not be validated.\n   ** Warning ** ProcessScheduleInput: Schedule:Day:Interval=\"SCHEDULE DAY 38\", Blank Schedule Type Limits Name input -- will not be validated.\n   ** Warning ** ProcessScheduleInput: Schedule:Day:Interval=\"SCHEDULE DAY 39\", Blank Schedule Type Limits Name input -- will not be validated.\n   ** Warning ** ProcessScheduleInput: Schedule:Day:Interval=\"SCHEDULE DAY 40\", Blank Schedule Type Limits Name input -- will not be validated.\n   ** Warning ** ProcessScheduleInput: Schedule:Day:Interval=\"SCHEDULE DAY 41\", Blank Schedule Type Limits Name input -- will not be validated.\n   ** Warning ** ProcessScheduleInput: Schedule:Day:Interval=\"SCHEDULE DAY 42\", Blank Schedule Type Limits Name input -- will not be validated.\n   ** Warning ** ProcessScheduleInput: Schedule:Day:Interval=\"SCHEDULE DAY 43\", Blank Schedule Type Limits Name input -- will not be validated.\n   ** Warning ** ProcessScheduleInput: Schedule:Day:Interval=\"SCHEDULE DAY 44\", Blank Schedule Type Limits Name input -- will not be validated.\n   ** Warning ** ProcessScheduleInput: Schedule:Day:Interval=\"SCHEDULE DAY 45\", Blank Schedule Type Limits Name input -- will not be validated.\n   ** Warning ** ProcessScheduleInput: Schedule:Day:Interval=\"SCHEDULE DAY 46\", Blank Schedule Type Limits Name input -- will not be validated.\n   ** Warning ** ProcessScheduleInput: Schedule:Day:Interval=\"SCHEDULE DAY 47\", Blank Schedule Type Limits Name input -- will not be validated.\n   ** Warning ** ProcessScheduleInput: Schedule:Day:Interval=\"SCHEDULE DAY 48\", Blank Schedule Type Limits Name input -- will not be validated.\n   ** Warning ** ProcessScheduleInput: Schedule:Day:Interval=\"SCHEDULE DAY 49\", Blank Schedule Type Limits Name input -- will not be validated.\n   ** Warning ** ProcessScheduleInput: Schedule:Day:Interval=\"SCHEDULE DAY 5\", Blank Schedule Type Limits Name input -- will not be validated.\n   ** Warning ** ProcessScheduleInput: Schedule:Day:Interval=\"SCHEDULE DAY 50\", Blank Schedule Type Limits Name input -- will not be validated.\n   ** Warning ** ProcessScheduleInput: Schedule:Day:Interval=\"SCHEDULE DAY 51\", Blank Schedule Type Limits Name input -- will not be validated.\n   ** Warning ** ProcessScheduleInput: Schedule:Day:Interval=\"SCHEDULE DAY 52\", Blank Schedule Type Limits Name input -- will not be validated.\n   ** Warning ** ProcessScheduleInput: Schedule:Day:Interval=\"SCHEDULE DAY 53\", Blank Schedule Type Limits Name input -- will not be validated.\n   ** Warning ** ProcessScheduleInput: Schedule:Day:Interval=\"SCHEDULE DAY 54\", Blank Schedule Type Limits Name input -- will not be validated.\n   ** Warning ** ProcessScheduleInput: Schedule:Day:Interval=\"SCHEDULE DAY 6\", Blank Schedule Type Limits Name input -- will not be validated.\n   ** Warning ** ProcessScheduleInput: Schedule:Day:Interval=\"SCHEDULE DAY 7\", Blank Schedule Type Limits Name input -- will not be validated.\n   ** Warning ** ProcessScheduleInput: Schedule:Day:Interval=\"SCHEDULE DAY 8\", Blank Schedule Type Limits Name input -- will not be validated.\n   ** Warning ** ProcessScheduleInput: Schedule:Day:Interval=\"SCHEDULE DAY 9\", Blank Schedule Type Limits Name input -- will not be validated.\n   ** Warning ** ProcessScheduleInput: Schedule:Year=\"ECONOMIZER MAX OA FRACTION 100 PCT\", Blank Schedule Type Limits Name input -- will not be validated.\n   ** Warning ** ProcessScheduleInput: Schedule:Year=\"SCHEDULE RULESET 10\", Blank Schedule Type Limits Name input -- will not be validated.\n   ** Warning ** ProcessScheduleInput: Schedule:Year=\"SCHEDULE RULESET 11\", Blank Schedule Type Limits Name input -- will not be validated.\n   ** Warning ** ProcessScheduleInput: Schedule:Year=\"SCHEDULE RULESET 12\", Blank Schedule Type Limits Name input -- will not be validated.\n   ** Warning ** ProcessScheduleInput: Schedule:Year=\"SCHEDULE RULESET 13\", Blank Schedule Type Limits Name input -- will not be validated.\n   ** Warning ** ProcessScheduleInput: Schedule:Year=\"SCHEDULE RULESET 14\", Blank Schedule Type Limits Name input -- will not be validated.\n   ** Warning ** ProcessScheduleInput: Schedule:Year=\"SCHEDULE RULESET 15\", Blank Schedule Type Limits Name input -- will not be validated.\n   ** Warning ** ProcessScheduleInput: Schedule:Year=\"SCHEDULE RULESET 16\", Blank Schedule Type Limits Name input -- will not be validated.\n   ** Warning ** ProcessScheduleInput: Schedule:Year=\"SCHEDULE RULESET 17\", Blank Schedule Type Limits Name input -- will not be validated.\n   ** Warning ** ProcessScheduleInput: Schedule:Year=\"SCHEDULE RULESET 18\", Blank Schedule Type Limits Name input -- will not be validated.\n   ** Warning ** ProcessScheduleInput: Schedule:Year=\"SCHEDULE RULESET 19\", Blank Schedule Type Limits Name input -- will not be validated.\n   ** Warning ** ProcessScheduleInput: Schedule:Year=\"SCHEDULE RULESET 20\", Blank Schedule Type Limits Name input -- will not be validated.\n   ** Warning ** ProcessScheduleInput: Schedule:Year=\"SCHEDULE RULESET 21\", Blank Schedule Type Limits Name input -- will not be validated.\n   ** Warning ** ProcessScheduleInput: Schedule:Year=\"SCHEDULE RULESET 22\", Blank Schedule Type Limits Name input -- will not be validated.\n   ** Warning ** ProcessScheduleInput: Schedule:Year=\"SCHEDULE RULESET 23\", Blank Schedule Type Limits Name input -- will not be validated.\n   ** Warning ** ProcessScheduleInput: Schedule:Year=\"SCHEDULE RULESET 24\", Blank Schedule Type Limits Name input -- will not be validated.\n   ** Warning ** ProcessScheduleInput: Schedule:Year=\"SCHEDULE RULESET 25\", Blank Schedule Type Limits Name input -- will not be validated.\n   ** Warning ** ProcessScheduleInput: Schedule:Year=\"SCHEDULE RULESET 26\", Blank Schedule Type Limits Name input -- will not be validated.\n   ** Warning ** ProcessScheduleInput: Schedule:Year=\"SCHEDULE RULESET 27\", Blank Schedule Type Limits Name input -- will not be validated.\n   ** Warning ** ProcessScheduleInput: Schedule:Year=\"SCHEDULE RULESET 28\", Blank Schedule Type Limits Name input -- will not be validated.\n   ** Warning ** ProcessScheduleInput: Schedule:Year=\"SCHEDULE RULESET 29\", Blank Schedule Type Limits Name input -- will not be validated.\n   ** Warning ** ProcessScheduleInput: Schedule:Year=\"SCHEDULE RULESET 3\", Blank Schedule Type Limits Name input -- will not be validated.\n   ** Warning ** ProcessScheduleInput: Schedule:Year=\"SCHEDULE RULESET 30\", Blank Schedule Type Limits Name input -- will not be validated.\n   ** Warning ** ProcessScheduleInput: Schedule:Year=\"SCHEDULE RULESET 31\", Blank Schedule Type Limits Name input -- will not be validated.\n   ** Warning ** ProcessScheduleInput: Schedule:Year=\"SCHEDULE RULESET 32\", Blank Schedule Type Limits Name input -- will not be validated.\n   ** Warning ** ProcessScheduleInput: Schedule:Year=\"SCHEDULE RULESET 4\", Blank Schedule Type Limits Name input -- will not be validated.\n   ** Warning ** ProcessScheduleInput: Schedule:Year=\"SCHEDULE RULESET 5\", Blank Schedule Type Limits Name input -- will not be validated.\n   ** Warning ** ProcessScheduleInput: Schedule:Year=\"SCHEDULE RULESET 6\", Blank Schedule Type Limits Name input -- will not be validated.\n   ** Warning ** ProcessScheduleInput: Schedule:Year=\"SCHEDULE RULESET 7\", Blank Schedule Type Limits Name input -- will not be validated.\n   ** Warning ** ProcessScheduleInput: Schedule:Year=\"SCHEDULE RULESET 8\", Blank Schedule Type Limits Name input -- will not be validated.\n   ** Warning ** ProcessScheduleInput: Schedule:Year=\"SCHEDULE RULESET 9\", Blank Schedule Type Limits Name input -- will not be validated.\n   ** Warning ** ProcessScheduleInput: Schedule:Constant=\"ALWAYS OFF DISCRETE\", Blank Schedule Type Limits Name input -- will not be validated.\n   ** Warning ** ProcessScheduleInput: Schedule:Constant=\"ALWAYS ON CONTINUOUS\", Blank Schedule Type Limits Name input -- will not be validated.\n   ** Warning ** CheckUsedConstructions: There are 24 nominally unused constructions in input.\n   **   ~~~   ** For explicit details on each unused construction, use Output:Diagnostics,DisplayExtraWarnings;\n   ************* Beginning System Sizing Calculations\n   ************* Beginning Plant Sizing Calculations\n   ** Warning ** GetDXCoils: Coil:Cooling:DX:SingleSpeed=\"COIL COOLING DX SINGLE SPEED 10 66KBTU/HR 9.7EER\", invalid\n   **   ~~~   ** ...Part Load Fraction Correlation Curve Name = DXCOOL-NECB2011-REF-COOLPLFFPLR 1 has out of range value.\n   **   ~~~   ** ...Curve maximum must be <= 1.0, curve max at PLR = 0.99 is 1.015\n   **   ~~~   ** ...Setting curve maximum to 1.0 and simulation continues.\n   ** Warning ** GetDXCoils: Coil:Cooling:DX:SingleSpeed=\"COIL COOLING DX SINGLE SPEED 1 65KBTU/HR 9.7EER\", invalid\n   **   ~~~   ** ...Part Load Fraction Correlation Curve Name = DXCOOL-NECB2011-REF-COOLPLFFPLR has out of range value.\n   **   ~~~   ** ...Curve maximum must be <= 1.0, curve max at PLR = 0.99 is 1.015\n   **   ~~~   ** ...Setting curve maximum to 1.0 and simulation continues.\n   ** Warning ** GetDXCoils: Coil:Cooling:DX:SingleSpeed=\"COIL COOLING DX SINGLE SPEED 3 34KBTU/HR 14.0SEER\", invalid\n   **   ~~~   ** ...Part Load Fraction Correlation Curve Name = DXCOOL-NECB2011-REF-COOLPLFFPLR 3 has out of range value.\n   **   ~~~   ** ...Curve maximum must be <= 1.0, curve max at PLR = 0.99 is 1.015\n   **   ~~~   ** ...Setting curve maximum to 1.0 and simulation continues.\n   ** Warning ** GetDXCoils: Coil:Cooling:DX:SingleSpeed=\"COIL COOLING DX SINGLE SPEED 2 34KBTU/HR 14.0SEER\", invalid\n   **   ~~~   ** ...Part Load Fraction Correlation Curve Name = DXCOOL-NECB2011-REF-COOLPLFFPLR 2 has out of range value.\n   **   ~~~   ** ...Curve maximum must be <= 1.0, curve max at PLR = 0.99 is 1.015\n   **   ~~~   ** ...Setting curve maximum to 1.0 and simulation continues.\n   ** Warning ** GetDXCoils: Coil:Cooling:DX:SingleSpeed=\"COIL COOLING DX SINGLE SPEED 6 34KBTU/HR 14.0SEER\", invalid\n   **   ~~~   ** ...Part Load Fraction Correlation Curve Name = DXCOOL-NECB2011-REF-COOLPLFFPLR 6 has out of range value.\n   **   ~~~   ** ...Curve maximum must be <= 1.0, curve max at PLR = 0.99 is 1.015\n   **   ~~~   ** ...Setting curve maximum to 1.0 and simulation continues.\n   ** Warning ** GetDXCoils: Coil:Cooling:DX:SingleSpeed=\"COIL COOLING DX SINGLE SPEED 8 34KBTU/HR 14.0SEER\", invalid\n   **   ~~~   ** ...Part Load Fraction Correlation Curve Name = DXCOOL-NECB2011-REF-COOLPLFFPLR 8 has out of range value.\n   **   ~~~   ** ...Curve maximum must be <= 1.0, curve max at PLR = 0.99 is 1.015\n   **   ~~~   ** ...Setting curve maximum to 1.0 and simulation continues.\n   ** Warning ** GetDXCoils: Coil:Cooling:DX:SingleSpeed=\"COIL COOLING DX SINGLE SPEED 7 34KBTU/HR 14.0SEER\", invalid\n   **   ~~~   ** ...Part Load Fraction Correlation Curve Name = DXCOOL-NECB2011-REF-COOLPLFFPLR 7 has out of range value.\n   **   ~~~   ** ...Curve maximum must be <= 1.0, curve max at PLR = 0.99 is 1.015\n   **   ~~~   ** ...Setting curve maximum to 1.0 and simulation continues.\n   ** Warning ** GetDXCoils: Coil:Cooling:DX:SingleSpeed=\"COIL COOLING DX SINGLE SPEED 5 34KBTU/HR 14.0SEER\", invalid\n   **   ~~~   ** ...Part Load Fraction Correlation Curve Name = DXCOOL-NECB2011-REF-COOLPLFFPLR 5 has out of range value.\n   **   ~~~   ** ...Curve maximum must be <= 1.0, curve max at PLR = 0.99 is 1.015\n   **   ~~~   ** ...Setting curve maximum to 1.0 and simulation continues.\n   ** Warning ** GetDXCoils: Coil:Cooling:DX:SingleSpeed=\"COIL COOLING DX SINGLE SPEED 4 34KBTU/HR 14.0SEER\", invalid\n   **   ~~~   ** ...Part Load Fraction Correlation Curve Name = DXCOOL-NECB2011-REF-COOLPLFFPLR 4 has out of range value.\n   **   ~~~   ** ...Curve maximum must be <= 1.0, curve max at PLR = 0.99 is 1.015\n   **   ~~~   ** ...Setting curve maximum to 1.0 and simulation continues.\n   ** Warning ** GetDXCoils: Coil:Cooling:DX:SingleSpeed=\"COIL COOLING DX SINGLE SPEED 9 34KBTU/HR 14.0SEER\", invalid\n   **   ~~~   ** ...Part Load Fraction Correlation Curve Name = DXCOOL-NECB2011-REF-COOLPLFFPLR 9 has out of range value.\n   **   ~~~   ** ...Curve maximum must be <= 1.0, curve max at PLR = 0.99 is 1.015\n   **   ~~~   ** ...Setting curve maximum to 1.0 and simulation continues.\n   ** Warning ** The Standard Ratings is calculated for Coil:Cooling:DX:SingleSpeed = COIL COOLING DX SINGLE SPEED 10 66KBTU/HR 9.7EER but not at the AHRI test condition due to curve out of bound.\n   **   ~~~   **  Review the Standard Ratings calculations in the Engineering Reference for this coil type. Also, use Output:Diagnostics, DisplayExtraWarnings for further guidance.\n   ** Warning ** The Standard Ratings is calculated for Coil:Cooling:DX:SingleSpeed = COIL COOLING DX SINGLE SPEED 1 65KBTU/HR 9.7EER but not at the AHRI test condition due to curve out of bound.\n   **   ~~~   **  Review the Standard Ratings calculations in the Engineering Reference for this coil type. Also, use Output:Diagnostics, DisplayExtraWarnings for further guidance.\n   ** Warning ** The Standard Ratings is calculated for Coil:Cooling:DX:SingleSpeed = COIL COOLING DX SINGLE SPEED 3 34KBTU/HR 14.0SEER but not at the AHRI test condition due to curve out of bound.\n   **   ~~~   **  Review the Standard Ratings calculations in the Engineering Reference for this coil type. Also, use Output:Diagnostics, DisplayExtraWarnings for further guidance.\n   ** Warning ** The Standard Ratings is calculated for Coil:Cooling:DX:SingleSpeed = COIL COOLING DX SINGLE SPEED 2 34KBTU/HR 14.0SEER but not at the AHRI test condition due to curve out of bound.\n   **   ~~~   **  Review the Standard Ratings calculations in the Engineering Reference for this coil type. Also, use Output:Diagnostics, DisplayExtraWarnings for further guidance.\n   ** Warning ** The Standard Ratings is calculated for Coil:Cooling:DX:SingleSpeed = COIL COOLING DX SINGLE SPEED 6 34KBTU/HR 14.0SEER but not at the AHRI test condition due to curve out of bound.\n   **   ~~~   **  Review the Standard Ratings calculations in the Engineering Reference for this coil type. Also, use Output:Diagnostics, DisplayExtraWarnings for further guidance.\n   ** Warning ** The Standard Ratings is calculated for Coil:Cooling:DX:SingleSpeed = COIL COOLING DX SINGLE SPEED 8 34KBTU/HR 14.0SEER but not at the AHRI test condition due to curve out of bound.\n   **   ~~~   **  Review the Standard Ratings calculations in the Engineering Reference for this coil type. Also, use Output:Diagnostics, DisplayExtraWarnings for further guidance.\n   ** Warning ** The Standard Ratings is calculated for Coil:Cooling:DX:SingleSpeed = COIL COOLING DX SINGLE SPEED 7 34KBTU/HR 14.0SEER but not at the AHRI test condition due to curve out of bound.\n   **   ~~~   **  Review the Standard Ratings calculations in the Engineering Reference for this coil type. Also, use Output:Diagnostics, DisplayExtraWarnings for further guidance.\n   ** Warning ** The Standard Ratings is calculated for Coil:Cooling:DX:SingleSpeed = COIL COOLING DX SINGLE SPEED 5 34KBTU/HR 14.0SEER but not at the AHRI test condition due to curve out of bound.\n   **   ~~~   **  Review the Standard Ratings calculations in the Engineering Reference for this coil type. Also, use Output:Diagnostics, DisplayExtraWarnings for further guidance.\n   ** Warning ** The Standard Ratings is calculated for Coil:Cooling:DX:SingleSpeed = COIL COOLING DX SINGLE SPEED 4 34KBTU/HR 14.0SEER but not at the AHRI test condition due to curve out of bound.\n   **   ~~~   **  Review the Standard Ratings calculations in the Engineering Reference for this coil type. Also, use Output:Diagnostics, DisplayExtraWarnings for further guidance.\n   ** Warning ** The Standard Ratings is calculated for Coil:Cooling:DX:SingleSpeed = COIL COOLING DX SINGLE SPEED 9 34KBTU/HR 14.0SEER but not at the AHRI test condition due to curve out of bound.\n   **   ~~~   **  Review the Standard Ratings calculations in the Engineering Reference for this coil type. Also, use Output:Diagnostics, DisplayExtraWarnings for further guidance.\n   ** Warning ** Check input. Pump nominal power or motor efficiency is set to 0, for pump=SERVICE WATER LOOP PUMP\n   ** Warning ** Output:Meter: invalid Name=\"DISTRICTCOOLING:FACILITY\" - not found.\n   ** Warning ** Output:Meter: invalid Name=\"DISTRICTHEATING:FACILITY\" - not found.\n   ** Warning ** Output:Meter:MeterFileOnly requested for \"Electricity:Facility\" (TimeStep), already on \"Output:Meter\". Will report to both eplusout.eso and eplusout.mtr\n   ************* Testing Individual Branch Integrity\n   ************* All Branches passed integrity testing\n   ************* Testing Individual Supply Air Path Integrity\n   ************* All Supply Air Paths passed integrity testing\n   ************* Testing Individual Return Air Path Integrity\n   ************* All Return Air Paths passed integrity testing\n   ************* No node connection errors were found.\n   ************* Beginning Simulation\n   ** Warning ** CalcDoe2DXCoil: Coil:Cooling:DX:SingleSpeed \"COIL COOLING DX SINGLE SPEED 10 66KBTU/HR 9.7EER\" - Air-cooled condenser inlet dry-bulb temperature below 0 C. Outdoor dry-bulb temperature = -2.50E-002\n   **   ~~~   **  ... Occurrence info = RUN PERIOD 1, 01/01 09:04 - 09:08\n   **   ~~~   ** ... Operation at low ambient temperatures may require special performance curves.\n   ** Warning ** CalcDoe2DXCoil: Coil:Cooling:DX:SingleSpeed \"COIL COOLING DX SINGLE SPEED 1 65KBTU/HR 9.7EER\" - Air-cooled condenser inlet dry-bulb temperature below 0 C. Outdoor dry-bulb temperature = -2.50E-002\n   **   ~~~   **  ... Occurrence info = RUN PERIOD 1, 01/01 09:04 - 09:08\n   **   ~~~   ** ... Operation at low ambient temperatures may require special performance curves.\n   ** Warning ** CalcDoe2DXCoil: Coil:Cooling:DX:SingleSpeed \"COIL COOLING DX SINGLE SPEED 3 34KBTU/HR 14.0SEER\" - Air-cooled condenser inlet dry-bulb temperature below 0 C. Outdoor dry-bulb temperature = -2.50E-002\n   **   ~~~   **  ... Occurrence info = RUN PERIOD 1, 01/01 09:04 - 09:08\n   **   ~~~   ** ... Operation at low ambient temperatures may require special performance curves.\n   ** Warning ** CalcDoe2DXCoil: Coil:Cooling:DX:SingleSpeed \"COIL COOLING DX SINGLE SPEED 2 34KBTU/HR 14.0SEER\" - Air-cooled condenser inlet dry-bulb temperature below 0 C. Outdoor dry-bulb temperature = -2.50E-002\n   **   ~~~   **  ... Occurrence info = RUN PERIOD 1, 01/01 09:04 - 09:08\n   **   ~~~   ** ... Operation at low ambient temperatures may require special performance curves.\n   ** Warning ** CalcDoe2DXCoil: Coil:Cooling:DX:SingleSpeed \"COIL COOLING DX SINGLE SPEED 6 34KBTU/HR 14.0SEER\" - Air-cooled condenser inlet dry-bulb temperature below 0 C. Outdoor dry-bulb temperature = -2.50E-002\n   **   ~~~   **  ... Occurrence info = RUN PERIOD 1, 01/01 09:04 - 09:08\n   **   ~~~   ** ... Operation at low ambient temperatures may require special performance curves.\n   ** Warning ** CalcDoe2DXCoil: Coil:Cooling:DX:SingleSpeed \"COIL COOLING DX SINGLE SPEED 8 34KBTU/HR 14.0SEER\" - Air-cooled condenser inlet dry-bulb temperature below 0 C. Outdoor dry-bulb temperature = -2.50E-002\n   **   ~~~   **  ... Occurrence info = RUN PERIOD 1, 01/01 09:04 - 09:08\n   **   ~~~   ** ... Operation at low ambient temperatures may require special performance curves.\n   ** Warning ** CalcDoe2DXCoil: Coil:Cooling:DX:SingleSpeed \"COIL COOLING DX SINGLE SPEED 7 34KBTU/HR 14.0SEER\" - Air-cooled condenser inlet dry-bulb temperature below 0 C. Outdoor dry-bulb temperature = -2.50E-002\n   **   ~~~   **  ... Occurrence info = RUN PERIOD 1, 01/01 09:04 - 09:08\n   **   ~~~   ** ... Operation at low ambient temperatures may require special performance curves.\n   ** Warning ** CalcDoe2DXCoil: Coil:Cooling:DX:SingleSpeed \"COIL COOLING DX SINGLE SPEED 5 34KBTU/HR 14.0SEER\" - Air-cooled condenser inlet dry-bulb temperature below 0 C. Outdoor dry-bulb temperature = -2.50E-002\n   **   ~~~   **  ... Occurrence info = RUN PERIOD 1, 01/01 09:04 - 09:08\n   **   ~~~   ** ... Operation at low ambient temperatures may require special performance curves.\n   ** Warning ** CalcDoe2DXCoil: Coil:Cooling:DX:SingleSpeed \"COIL COOLING DX SINGLE SPEED 4 34KBTU/HR 14.0SEER\" - Air-cooled condenser inlet dry-bulb temperature below 0 C. Outdoor dry-bulb temperature = -2.50E-002\n   **   ~~~   **  ... Occurrence info = RUN PERIOD 1, 01/01 09:04 - 09:08\n   **   ~~~   ** ... Operation at low ambient temperatures may require special performance curves.\n   ** Warning ** CalcDoe2DXCoil: Coil:Cooling:DX:SingleSpeed \"COIL COOLING DX SINGLE SPEED 9 34KBTU/HR 14.0SEER\" - Air-cooled condenser inlet dry-bulb temperature below 0 C. Outdoor dry-bulb temperature = -2.50E-002\n   **   ~~~   **  ... Occurrence info = RUN PERIOD 1, 01/01 09:04 - 09:08\n   **   ~~~   ** ... Operation at low ambient temperatures may require special performance curves.\n   ** Warning ** CalcDoe2DXCoil: Coil:Cooling:DX:SingleSpeed \"COIL COOLING DX SINGLE SPEED 1 65KBTU/HR 9.7EER\" - Full load outlet air dry-bulb temperature < 2C. This indicates the possibility of coil frost/freeze. Outlet temperature = 1.92 C.\n   **   ~~~   **  ...Occurrence info = RUN PERIOD 1, 11/28 11:30 - 11:45\n   **   ~~~   ** ... Possible reasons for low outlet air dry-bulb temperatures are: This DX coil\n   **   ~~~   **    1) may have a low inlet air dry-bulb temperature. Inlet air temperature = 14.750 C.\n   **   ~~~   **    2) may have a low air flow rate per watt of cooling capacity. Check inputs.\n   **   ~~~   **    3) is used as part of a HX assisted cooling coil which uses a high sensible effectiveness. Check inputs.\n   ************* Simulation Error Summary *************\n   ************* There are 9 unused schedules in input.\n   ************* There are 9 unused week schedules in input.\n   ************* There are 32 unused day schedules in input.\n   ************* Use Output:Diagnostics,DisplayUnusedSchedules; to see them.\n   *************\n   ************* ===== Recurring Error Summary =====\n   ************* The following recurring error messages occurred.\n   *************\n   *************  ** Warning ** CalcDoe2DXCoil: Coil:Cooling:DX:SingleSpeed=\"COIL COOLING DX SINGLE SPEED 10 66KBTU/HR 9.7EER\" - Low condenser dry-bulb temperature error continues...\n   *************  **   ~~~   **   This error occurred 60 total times;\n   *************  **   ~~~   **   during Warmup 0 times;\n   *************  **   ~~~   **   during Sizing 0 times.\n   *************  **   ~~~   **   Max=-2.500000E-002 [C]  Min=-4.175 [C]\n   *************\n   *************  ** Warning ** CalcDoe2DXCoil: Coil:Cooling:DX:SingleSpeed=\"COIL COOLING DX SINGLE SPEED 1 65KBTU/HR 9.7EER\" - Low condenser dry-bulb temperature error continues...\n   *************  **   ~~~   **   This error occurred 68 total times;\n   *************  **   ~~~   **   during Warmup 0 times;\n   *************  **   ~~~   **   during Sizing 0 times.\n   *************  **   ~~~   **   Max=-2.500000E-002 [C]  Min=-4.175 [C]\n   *************\n   *************  ** Warning ** CalcDoe2DXCoil: Coil:Cooling:DX:SingleSpeed=\"COIL COOLING DX SINGLE SPEED 3 34KBTU/HR 14.0SEER\" - Low condenser dry-bulb temperature error continues...\n   *************  **   ~~~   **   This error occurred 63 total times;\n   *************  **   ~~~   **   during Warmup 0 times;\n   *************  **   ~~~   **   during Sizing 0 times.\n   *************  **   ~~~   **   Max=-2.500000E-002 [C]  Min=-4.175 [C]\n   *************\n   *************  ** Warning ** CalcDoe2DXCoil: Coil:Cooling:DX:SingleSpeed=\"COIL COOLING DX SINGLE SPEED 2 34KBTU/HR 14.0SEER\" - Low condenser dry-bulb temperature error continues...\n   *************  **   ~~~   **   This error occurred 65 total times;\n   *************  **   ~~~   **   during Warmup 0 times;\n   *************  **   ~~~   **   during Sizing 0 times.\n   *************  **   ~~~   **   Max=-2.500000E-002 [C]  Min=-4.175 [C]\n   *************\n   *************  ** Warning ** CalcDoe2DXCoil: Coil:Cooling:DX:SingleSpeed=\"COIL COOLING DX SINGLE SPEED 6 34KBTU/HR 14.0SEER\" - Low condenser dry-bulb temperature error continues...\n   *************  **   ~~~   **   This error occurred 65 total times;\n   *************  **   ~~~   **   during Warmup 0 times;\n   *************  **   ~~~   **   during Sizing 0 times.\n   *************  **   ~~~   **   Max=-2.500000E-002 [C]  Min=-4.175 [C]\n   *************\n   *************  ** Warning ** CalcDoe2DXCoil: Coil:Cooling:DX:SingleSpeed=\"COIL COOLING DX SINGLE SPEED 8 34KBTU/HR 14.0SEER\" - Low condenser dry-bulb temperature error continues...\n   *************  **   ~~~   **   This error occurred 65 total times;\n   *************  **   ~~~   **   during Warmup 0 times;\n   *************  **   ~~~   **   during Sizing 0 times.\n   *************  **   ~~~   **   Max=-2.500000E-002 [C]  Min=-4.175 [C]\n   *************\n   *************  ** Warning ** CalcDoe2DXCoil: Coil:Cooling:DX:SingleSpeed=\"COIL COOLING DX SINGLE SPEED 7 34KBTU/HR 14.0SEER\" - Low condenser dry-bulb temperature error continues...\n   *************  **   ~~~   **   This error occurred 64 total times;\n   *************  **   ~~~   **   during Warmup 0 times;\n   *************  **   ~~~   **   during Sizing 0 times.\n   *************  **   ~~~   **   Max=-2.500000E-002 [C]  Min=-4.175 [C]\n   *************\n   *************  ** Warning ** CalcDoe2DXCoil: Coil:Cooling:DX:SingleSpeed=\"COIL COOLING DX SINGLE SPEED 5 34KBTU/HR 14.0SEER\" - Low condenser dry-bulb temperature error continues...\n   *************  **   ~~~   **   This error occurred 64 total times;\n   *************  **   ~~~   **   during Warmup 0 times;\n   *************  **   ~~~   **   during Sizing 0 times.\n   *************  **   ~~~   **   Max=-2.500000E-002 [C]  Min=-4.175 [C]\n   *************\n   *************  ** Warning ** CalcDoe2DXCoil: Coil:Cooling:DX:SingleSpeed=\"COIL COOLING DX SINGLE SPEED 4 34KBTU/HR 14.0SEER\" - Low condenser dry-bulb temperature error continues...\n   *************  **   ~~~   **   This error occurred 63 total times;\n   *************  **   ~~~   **   during Warmup 0 times;\n   *************  **   ~~~   **   during Sizing 0 times.\n   *************  **   ~~~   **   Max=-2.500000E-002 [C]  Min=-4.175 [C]\n   *************\n   *************  ** Warning ** CalcDoe2DXCoil: Coil:Cooling:DX:SingleSpeed=\"COIL COOLING DX SINGLE SPEED 9 34KBTU/HR 14.0SEER\" - Low condenser dry-bulb temperature error continues...\n   *************  **   ~~~   **   This error occurred 48 total times;\n   *************  **   ~~~   **   during Warmup 0 times;\n   *************  **   ~~~   **   during Sizing 0 times.\n   *************  **   ~~~   **   Max=-2.500000E-002 [C]  Min=-4.175 [C]\n   *************\n   *************  ** Warning ** CalcDoe2DXCoil: Coil:Cooling:DX:SingleSpeed=\"COIL COOLING DX SINGLE SPEED 1 65KBTU/HR 9.7EER\" - Full load outlet temperature indicates a possibility of frost/freeze error continues. Outlet air temperature statistics follow:\n   *************  **   ~~~   **   This error occurred 1 total times;\n   *************  **   ~~~   **   during Warmup 0 times;\n   *************  **   ~~~   **   during Sizing 0 times.\n   *************  **   ~~~   **   Max=1.916944  Min=1.916944\n   *************\n   *************\n   ************* ===== Final Error Summary =====\n   ************* The following error categories occurred.  Consider correcting or noting.\n   ************* Nominally Unused Constructions\n   ************* ..The nominally unused constructions warning is provided to alert you to potential conditions that can cause\n   ************* ..extra time during simulation. Each construction is calculated by the algorithm indicated in the HeatBalanceAlgorithm\n   ************* ..object. You may remove the constructions indicated (when you use the DisplayExtraWarnings option).\n   *************\n   ************* EnergyPlus Warmup Error Summary. During Warmup: 0 Warning; 0 Severe Errors.\n   ************* EnergyPlus Sizing Error Summary. During Sizing: 87 Warning; 0 Severe Errors.\n   ************* EnergyPlus Completed Successfully-- 738 Warning; 0 Severe Errors; Elapsed Time=00hr 01min  9.06sec\n",
   "file_format_version" : "0.0.1",
   "file_paths" : [ "../weather", "../seeds", "../seed" ],
   "hash" : "1D141B14",
   "measure_paths" : [ "../measures" ],
   "name" : "LHS Autogenerated 299",
   "osa_id" : "4fef0e0f-5396-4c55-a6e1-2cd6803db3ab",
   "osd_id" : "8a1bbdb8-9462-4947-9169-6ad645f9101f",
   "run_directory" : "./run",
   "seed_file" : "seed.osm",
   "started_at" : "20170710T183810Z",
   "steps" : [
      {
         "arguments" : {
            "__SKIP__" : false,
            "building_type" : "RetailStripmall",
            "climate_zone" : "NECB HDD Method",
            "epw_file" : "CAN_BC_Vancouver.718920_CWEC.epw",
            "template" : "NECB 2011"
         },
         "measure_dir_name" : "create_prototype_building",
         "name" : "create_prototype_building",
         "result" : {
            "completed_at" : "20170710T183925Z",
            "measure_class_name" : "CreatePrototypeBuilding",
            "measure_display_name" : "Create Prototype Building",
            "measure_name" : "create_prototype_building",
            "measure_taxonomy" : "Whole Building.Space Types",
            "measure_type" : "ModelMeasure",
            "measure_uid" : "ae90fsd7-a651-467a-bc8d-29d310b0f937",
            "measure_version_id" : "c6ec5c18-5595-459f-a082-09a19c8c869c",
            "measure_version_modified" : "20170519T182315Z",
            "measure_xml_checksum" : "057E8D9D",
            "started_at" : "20170710T183812Z",
            "stderr" : "",
            "stdout" : "[OpenStudio.Measure] <0> OSArgumentVector is deprecated, use OpenStudio::Measure::OSArgumentVector instead.\n[openstudio.EpwFile] <0> Successive data points (1970-Jan-31 to 1967-Feb-01, ending on line 753) are greater than 1 day apart in EPW file '/usr/local/bundle/bundler/gems/openstudio-standards-f448df66933d/openstudio-standards/data/weather/CAN_BC_Vancouver.718920_CWEC.epw'. Data will be treated as typical (TMY)\n[openstudio.setFileExtension] <0> Path p, '/usr/local/bundle/bundler/gems/openstudio-standards-f448df66933d/openstudio-standards/data/weather/CAN_BC_Vancouver.718920_CWEC.ddy', has an unexpected file extension. Was expecting 'idf'.\n[openstudio.model.YearDescription] <1> 'UseWeatherFile' is not yet a supported option for YearDescription\n[openstudio.model.YearDescription] <1> 'UseWeatherFile' is not yet a supported option for YearDescription\n[openstudio.setFileExtension] <0> Path p, '/usr/local/bundle/bundler/gems/openstudio-standards-f448df66933d/openstudio-standards/data/weather/CAN_BC_Vancouver.718920_CWEC.ddy', has an unexpected file extension. Was expecting 'idf'.\n[openstudio.model.YearDescription] <1> 'UseWeatherFile' is not yet a supported option for YearDescription\n[openstudio.model.YearDescription] <1> 'UseWeatherFile' is not yet a supported option for YearDescription\n[openstudio.EpwFile] <0> Successive data points (1970-Jan-31 to 1967-Feb-01, ending on line 753) are greater than 1 day apart in EPW file '/usr/local/bundle/bundler/gems/openstudio-standards-f448df66933d/openstudio-standards/data/weather/CAN_BC_Vancouver.718920_CWEC.epw'. Data will be treated as typical (TMY)\n[openstudio.weather.Model] <0> Could not find ground temperatures; will use generic temperatures, which will skew results.\n[openstudio.setFileExtension] <0> Path p, '/usr/local/bundle/bundler/gems/openstudio-standards-f448df66933d/openstudio-standards/data/weather/CAN_BC_Vancouver.718920_CWEC.ddy', has an unexpected file extension. Was expecting 'idf'.\n[openstudio.model.YearDescription] <1> 'UseWeatherFile' is not yet a supported option for YearDescription\n[openstudio.model.YearDescription] <1> 'UseWeatherFile' is not yet a supported option for YearDescription\n[openstudio.EpwFile] <0> Successive data points (1970-Jan-31 to 1967-Feb-01, ending on line 753) are greater than 1 day apart in EPW file '/usr/local/bundle/bundler/gems/openstudio-standards-f448df66933d/openstudio-standards/data/weather/CAN_BC_Vancouver.718920_CWEC.epw'. Data will be treated as typical (TMY)\n[openstudio.setFileExtension] <0> Path p, '/usr/local/bundle/bundler/gems/openstudio-standards-f448df66933d/openstudio-standards/data/weather/CAN_BC_Vancouver.718920_CWEC.ddy', has an unexpected file extension. Was expecting 'idf'.\n[openstudio.model.YearDescription] <1> 'UseWeatherFile' is not yet a supported option for YearDescription\n[openstudio.model.YearDescription] <1> 'UseWeatherFile' is not yet a supported option for YearDescription\n[openstudio.setFileExtension] <0> Path p, '/usr/local/bundle/bundler/gems/openstudio-standards-f448df66933d/openstudio-standards/data/weather/CAN_BC_Vancouver.718920_CWEC.ddy', has an unexpected file extension. Was expecting 'idf'.\n[openstudio.model.YearDescription] <1> 'UseWeatherFile' is not yet a supported option for YearDescription\n[openstudio.model.YearDescription] <1> 'UseWeatherFile' is not yet a supported option for YearDescription\n[openstudio.EpwFile] <0> Successive data points (1970-Jan-31 to 1967-Feb-01, ending on line 753) are greater than 1 day apart in EPW file '/usr/local/bundle/bundler/gems/openstudio-standards-f448df66933d/openstudio-standards/data/weather/CAN_BC_Vancouver.718920_CWEC.epw'. Data will be treated as typical (TMY)\n[openstudio.setFileExtension] <0> Path p, '/usr/local/bundle/bundler/gems/openstudio-standards-f448df66933d/openstudio-standards/data/weather/CAN_BC_Vancouver.718920_CWEC.ddy', has an unexpected file extension. Was expecting 'idf'.\n[openstudio.model.YearDescription] <1> 'UseWeatherFile' is not yet a supported option for YearDescription\n[openstudio.model.YearDescription] <1> 'UseWeatherFile' is not yet a supported option for YearDescription\n[openstudio.setFileExtension] <0> Path p, '/usr/local/bundle/bundler/gems/openstudio-standards-f448df66933d/openstudio-standards/data/weather/CAN_BC_Vancouver.718920_CWEC.ddy', has an unexpected file extension. Was expecting 'idf'.\n[openstudio.model.YearDescription] <1> 'UseWeatherFile' is not yet a supported option for YearDescription\n[openstudio.model.YearDescription] <1> 'UseWeatherFile' is not yet a supported option for YearDescription\n[utilities.idf.WorkspaceObject] <0> Object of type 'Schedule:Constant' and named 'Always Off Discrete', points to an object named OnOff 1 from field 1, but that object cannot be located.\n[utilities.idf.WorkspaceObject] <0> Object of type 'Schedule:Constant' and named 'Always On Continuous', points to an object named Fractional 1 from field 1, but that object cannot be located.\n[utilities.idf.WorkspaceObject] <0> Object of type 'Schedule:Constant' and named 'Always Off Discrete', points to an object named OnOff 1 from field 1, but that object cannot be located.\n[utilities.idf.WorkspaceObject] <0> Object of type 'Schedule:Constant' and named 'Always On Continuous', points to an object named Fractional 1 from field 1, but that object cannot be located.\n[openstudio.standards.Fan] <0> For Fan Constant Volume 1, there is no greater nominal HP.  Use the efficiency of the largest motor category.\n[openstudio.standards.Fan] <0> For Fan Constant Volume 10, there is no greater nominal HP.  Use the efficiency of the largest motor category.\n[openstudio.standards.Fan] <0> For Fan Constant Volume 2, there is no greater nominal HP.  Use the efficiency of the largest motor category.\n[openstudio.standards.Fan] <0> For Fan Constant Volume 3, there is no greater nominal HP.  Use the efficiency of the largest motor category.\n[openstudio.standards.Fan] <0> For Fan Constant Volume 4, there is no greater nominal HP.  Use the efficiency of the largest motor category.\n[openstudio.standards.Fan] <0> For Fan Constant Volume 5, there is no greater nominal HP.  Use the efficiency of the largest motor category.\n[openstudio.standards.Fan] <0> For Fan Constant Volume 6, there is no greater nominal HP.  Use the efficiency of the largest motor category.\n[openstudio.standards.Fan] <0> For Fan Constant Volume 7, there is no greater nominal HP.  Use the efficiency of the largest motor category.\n[openstudio.standards.Fan] <0> For Fan Constant Volume 8, there is no greater nominal HP.  Use the efficiency of the largest motor category.\n[openstudio.standards.Fan] <0> For Fan Constant Volume 9, there is no greater nominal HP.  Use the efficiency of the largest motor category.\n[openstudio.EpwFile] <0> Successive data points (1970-Jan-31 to 1967-Feb-01, ending on line 753) are greater than 1 day apart in EPW file '/usr/local/bundle/bundler/gems/openstudio-standards-f448df66933d/openstudio-standards/data/weather/CAN_BC_Vancouver.718920_CWEC.epw'. Data will be treated as typical (TMY)\n[openstudio.setFileExtension] <0> Path p, '/usr/local/bundle/bundler/gems/openstudio-standards-f448df66933d/openstudio-standards/data/weather/CAN_BC_Vancouver.718920_CWEC.ddy', has an unexpected file extension. Was expecting 'idf'.\n[openstudio.model.YearDescription] <1> 'UseWeatherFile' is not yet a supported option for YearDescription\n[openstudio.model.YearDescription] <1> 'UseWeatherFile' is not yet a supported option for YearDescription\n[openstudio.setFileExtension] <0> Path p, '/usr/local/bundle/bundler/gems/openstudio-standards-f448df66933d/openstudio-standards/data/weather/CAN_BC_Vancouver.718920_CWEC.ddy', has an unexpected file extension. Was expecting 'idf'.\n[openstudio.model.YearDescription] <1> 'UseWeatherFile' is not yet a supported option for YearDescription\n[openstudio.model.YearDescription] <1> 'UseWeatherFile' is not yet a supported option for YearDescription\n[openstudio.EpwFile] <0> Successive data points (1970-Jan-31 to 1967-Feb-01, ending on line 753) are greater than 1 day apart in EPW file '/usr/local/bundle/bundler/gems/openstudio-standards-f448df66933d/openstudio-standards/data/weather/CAN_BC_Vancouver.718920_CWEC.epw'. Data will be treated as typical (TMY)\n[openstudio.setFileExtension] <0> Path p, '/usr/local/bundle/bundler/gems/openstudio-standards-f448df66933d/openstudio-standards/data/weather/CAN_BC_Vancouver.718920_CWEC.ddy', has an unexpected file extension. Was expecting 'idf'.\n[openstudio.model.YearDescription] <1> 'UseWeatherFile' is not yet a supported option for YearDescription\n[openstudio.model.YearDescription] <1> 'UseWeatherFile' is not yet a supported option for YearDescription\n[openstudio.setFileExtension] <0> Path p, '/usr/local/bundle/bundler/gems/openstudio-standards-f448df66933d/openstudio-standards/data/weather/CAN_BC_Vancouver.718920_CWEC.ddy', has an unexpected file extension. Was expecting 'idf'.\n[openstudio.model.YearDescription] <1> 'UseWeatherFile' is not yet a supported option for YearDescription\n[openstudio.model.YearDescription] <1> 'UseWeatherFile' is not yet a supported option for YearDescription\n[openstudio.EpwFile] <0> Successive data points (1970-Jan-31 to 1967-Feb-01, ending on line 753) are greater than 1 day apart in EPW file '/usr/local/bundle/bundler/gems/openstudio-standards-f448df66933d/openstudio-standards/data/weather/CAN_BC_Vancouver.718920_CWEC.epw'. Data will be treated as typical (TMY)\n[openstudio.setFileExtension] <0> Path p, '/usr/local/bundle/bundler/gems/openstudio-standards-f448df66933d/openstudio-standards/data/weather/CAN_BC_Vancouver.718920_CWEC.ddy', has an unexpected file extension. Was expecting 'idf'.\n[openstudio.model.YearDescription] <1> 'UseWeatherFile' is not yet a supported option for YearDescription\n[openstudio.model.YearDescription] <1> 'UseWeatherFile' is not yet a supported option for YearDescription\n[openstudio.setFileExtension] <0> Path p, '/usr/local/bundle/bundler/gems/openstudio-standards-f448df66933d/openstudio-standards/data/weather/CAN_BC_Vancouver.718920_CWEC.ddy', has an unexpected file extension. Was expecting 'idf'.\n[openstudio.model.YearDescription] <1> 'UseWeatherFile' is not yet a supported option for YearDescription\n[openstudio.model.YearDescription] <1> 'UseWeatherFile' is not yet a supported option for YearDescription\n[openstudio.EpwFile] <0> Successive data points (1970-Jan-31 to 1967-Feb-01, ending on line 753) are greater than 1 day apart in EPW file '/usr/local/bundle/bundler/gems/openstudio-standards-f448df66933d/openstudio-standards/data/weather/CAN_BC_Vancouver.718920_CWEC.epw'. Data will be treated as typical (TMY)\n[openstudio.setFileExtension] <0> Path p, '/usr/local/bundle/bundler/gems/openstudio-standards-f448df66933d/openstudio-standards/data/weather/CAN_BC_Vancouver.718920_CWEC.ddy', has an unexpected file extension. Was expecting 'idf'.\n[openstudio.model.YearDescription] <1> 'UseWeatherFile' is not yet a supported option for YearDescription\n[openstudio.model.YearDescription] <1> 'UseWeatherFile' is not yet a supported option for YearDescription\n[openstudio.setFileExtension] <0> Path p, '/usr/local/bundle/bundler/gems/openstudio-standards-f448df66933d/openstudio-standards/data/weather/CAN_BC_Vancouver.718920_CWEC.ddy', has an unexpected file extension. Was expecting 'idf'.\n[openstudio.model.YearDescription] <1> 'UseWeatherFile' is not yet a supported option for YearDescription\n[openstudio.model.YearDescription] <1> 'UseWeatherFile' is not yet a supported option for YearDescription\n[openstudio.EpwFile] <0> Successive data points (1970-Jan-31 to 1967-Feb-01, ending on line 753) are greater than 1 day apart in EPW file '/usr/local/bundle/bundler/gems/openstudio-standards-f448df66933d/openstudio-standards/data/weather/CAN_BC_Vancouver.718920_CWEC.epw'. Data will be treated as typical (TMY)\n[openstudio.setFileExtension] <0> Path p, '/usr/local/bundle/bundler/gems/openstudio-standards-f448df66933d/openstudio-standards/data/weather/CAN_BC_Vancouver.718920_CWEC.ddy', has an unexpected file extension. Was expecting 'idf'.\n[openstudio.model.YearDescription] <1> 'UseWeatherFile' is not yet a supported option for YearDescription\n[openstudio.model.YearDescription] <1> 'UseWeatherFile' is not yet a supported option for YearDescription\n[openstudio.setFileExtension] <0> Path p, '/usr/local/bundle/bundler/gems/openstudio-standards-f448df66933d/openstudio-standards/data/weather/CAN_BC_Vancouver.718920_CWEC.ddy', has an unexpected file extension. Was expecting 'idf'.\n[openstudio.model.YearDescription] <1> 'UseWeatherFile' is not yet a supported option for YearDescription\n[openstudio.model.YearDescription] <1> 'UseWeatherFile' is not yet a supported option for YearDescription\n[openstudio.EpwFile] <0> Successive data points (1970-Jan-31 to 1967-Feb-01, ending on line 753) are greater than 1 day apart in EPW file '/usr/local/bundle/bundler/gems/openstudio-standards-f448df66933d/openstudio-standards/data/weather/CAN_BC_Vancouver.718920_CWEC.epw'. Data will be treated as typical (TMY)\n[openstudio.setFileExtension] <0> Path p, '/usr/local/bundle/bundler/gems/openstudio-standards-f448df66933d/openstudio-standards/data/weather/CAN_BC_Vancouver.718920_CWEC.ddy', has an unexpected file extension. Was expecting 'idf'.\n[openstudio.model.YearDescription] <1> 'UseWeatherFile' is not yet a supported option for YearDescription\n[openstudio.model.YearDescription] <1> 'UseWeatherFile' is not yet a supported option for YearDescription\n[openstudio.setFileExtension] <0> Path p, '/usr/local/bundle/bundler/gems/openstudio-standards-f448df66933d/openstudio-standards/data/weather/CAN_BC_Vancouver.718920_CWEC.ddy', has an unexpected file extension. Was expecting 'idf'.\n[openstudio.model.YearDescription] <1> 'UseWeatherFile' is not yet a supported option for YearDescription\n[openstudio.model.YearDescription] <1> 'UseWeatherFile' is not yet a supported option for YearDescription\n[openstudio.EpwFile] <0> Successive data points (1970-Jan-31 to 1967-Feb-01, ending on line 753) are greater than 1 day apart in EPW file '/usr/local/bundle/bundler/gems/openstudio-standards-f448df66933d/openstudio-standards/data/weather/CAN_BC_Vancouver.718920_CWEC.epw'. Data will be treated as typical (TMY)\n[openstudio.setFileExtension] <0> Path p, '/usr/local/bundle/bundler/gems/openstudio-standards-f448df66933d/openstudio-standards/data/weather/CAN_BC_Vancouver.718920_CWEC.ddy', has an unexpected file extension. Was expecting 'idf'.\n[openstudio.model.YearDescription] <1> 'UseWeatherFile' is not yet a supported option for YearDescription\n[openstudio.model.YearDescription] <1> 'UseWeatherFile' is not yet a supported option for YearDescription\n[openstudio.setFileExtension] <0> Path p, '/usr/local/bundle/bundler/gems/openstudio-standards-f448df66933d/openstudio-standards/data/weather/CAN_BC_Vancouver.718920_CWEC.ddy', has an unexpected file extension. Was expecting 'idf'.\n[openstudio.model.YearDescription] <1> 'UseWeatherFile' is not yet a supported option for YearDescription\n[openstudio.model.YearDescription] <1> 'UseWeatherFile' is not yet a supported option for YearDescription\n[openstudio.EpwFile] <0> Successive data points (1970-Jan-31 to 1967-Feb-01, ending on line 753) are greater than 1 day apart in EPW file '/usr/local/bundle/bundler/gems/openstudio-standards-f448df66933d/openstudio-standards/data/weather/CAN_BC_Vancouver.718920_CWEC.epw'. Data will be treated as typical (TMY)\n[openstudio.setFileExtension] <0> Path p, '/usr/local/bundle/bundler/gems/openstudio-standards-f448df66933d/openstudio-standards/data/weather/CAN_BC_Vancouver.718920_CWEC.ddy', has an unexpected file extension. Was expecting 'idf'.\n[openstudio.model.YearDescription] <1> 'UseWeatherFile' is not yet a supported option for YearDescription\n[openstudio.model.YearDescription] <1> 'UseWeatherFile' is not yet a supported option for YearDescription\n[openstudio.setFileExtension] <0> Path p, '/usr/local/bundle/bundler/gems/openstudio-standards-f448df66933d/openstudio-standards/data/weather/CAN_BC_Vancouver.718920_CWEC.ddy', has an unexpected file extension. Was expecting 'idf'.\n[openstudio.model.YearDescription] <1> 'UseWeatherFile' is not yet a supported option for YearDescription\n[openstudio.model.YearDescription] <1> 'UseWeatherFile' is not yet a supported option for YearDescription\n[openstudio.EpwFile] <0> Successive data points (1970-Jan-31 to 1967-Feb-01, ending on line 753) are greater than 1 day apart in EPW file '/usr/local/bundle/bundler/gems/openstudio-standards-f448df66933d/openstudio-standards/data/weather/CAN_BC_Vancouver.718920_CWEC.epw'. Data will be treated as typical (TMY)\n[openstudio.setFileExtension] <0> Path p, '/usr/local/bundle/bundler/gems/openstudio-standards-f448df66933d/openstudio-standards/data/weather/CAN_BC_Vancouver.718920_CWEC.ddy', has an unexpected file extension. Was expecting 'idf'.\n[openstudio.model.YearDescription] <1> 'UseWeatherFile' is not yet a supported option for YearDescription\n[openstudio.model.YearDescription] <1> 'UseWeatherFile' is not yet a supported option for YearDescription\n[openstudio.setFileExtension] <0> Path p, '/usr/local/bundle/bundler/gems/openstudio-standards-f448df66933d/openstudio-standards/data/weather/CAN_BC_Vancouver.718920_CWEC.ddy', has an unexpected file extension. Was expecting 'idf'.\n[openstudio.model.YearDescription] <1> 'UseWeatherFile' is not yet a supported option for YearDescription\n[openstudio.model.YearDescription] <1> 'UseWeatherFile' is not yet a supported option for YearDescription\n[openstudio.EpwFile] <0> Successive data points (1970-Jan-31 to 1967-Feb-01, ending on line 753) are greater than 1 day apart in EPW file '/usr/local/bundle/bundler/gems/openstudio-standards-f448df66933d/openstudio-standards/data/weather/CAN_BC_Vancouver.718920_CWEC.epw'. Data will be treated as typical (TMY)\n[openstudio.setFileExtension] <0> Path p, '/usr/local/bundle/bundler/gems/openstudio-standards-f448df66933d/openstudio-standards/data/weather/CAN_BC_Vancouver.718920_CWEC.ddy', has an unexpected file extension. Was expecting 'idf'.\n[openstudio.model.YearDescription] <1> 'UseWeatherFile' is not yet a supported option for YearDescription\n[openstudio.model.YearDescription] <1> 'UseWeatherFile' is not yet a supported option for YearDescription\n[openstudio.setFileExtension] <0> Path p, '/usr/local/bundle/bundler/gems/openstudio-standards-f448df66933d/openstudio-standards/data/weather/CAN_BC_Vancouver.718920_CWEC.ddy', has an unexpected file extension. Was expecting 'idf'.\n[openstudio.model.YearDescription] <1> 'UseWeatherFile' is not yet a supported option for YearDescription\n[openstudio.model.YearDescription] <1> 'UseWeatherFile' is not yet a supported option for YearDescription\n[openstudio.standards.Fan] <0> For Fan Constant Volume 1, there is no greater nominal HP.  Use the efficiency of the largest motor category.\n[openstudio.standards.Fan] <0> For Fan Constant Volume 10, there is no greater nominal HP.  Use the efficiency of the largest motor category.\n[openstudio.standards.Fan] <0> For Fan Constant Volume 2, there is no greater nominal HP.  Use the efficiency of the largest motor category.\n[openstudio.standards.Fan] <0> For Fan Constant Volume 3, there is no greater nominal HP.  Use the efficiency of the largest motor category.\n[openstudio.standards.Fan] <0> For Fan Constant Volume 4, there is no greater nominal HP.  Use the efficiency of the largest motor category.\n[openstudio.standards.Fan] <0> For Fan Constant Volume 5, there is no greater nominal HP.  Use the efficiency of the largest motor category.\n[openstudio.standards.Fan] <0> For Fan Constant Volume 6, there is no greater nominal HP.  Use the efficiency of the largest motor category.\n[openstudio.standards.Fan] <0> For Fan Constant Volume 7, there is no greater nominal HP.  Use the efficiency of the largest motor category.\n[openstudio.standards.Fan] <0> For Fan Constant Volume 8, there is no greater nominal HP.  Use the efficiency of the largest motor category.\n[openstudio.standards.Fan] <0> For Fan Constant Volume 9, there is no greater nominal HP.  Use the efficiency of the largest motor category.\n",
            "step_errors" : [],
            "step_files" : [],
            "step_info" : [
               "Started adding geometry",
               "Finished adding geometry",
               "Started adding weather file for climate zone: NECB HDD Method.",
               "Template =",
               "Setting LGstore1 to Space Function.Retail - sales",
               "Setting LGstore2 to Space Function.Retail - sales",
               "Setting SMstore1 to Space Function.Retail - sales",
               "Setting SMstore2 to Space Function.Retail - sales",
               "Setting SMstore3 to Space Function.Retail - sales",
               "Setting SMstore4 to Space Function.Retail - sales",
               "Setting SMstore5 to Space Function.Retail - sales",
               "Setting SMstore6 to Space Function.Retail - sales",
               "Setting SMstore7 to Space Function.Retail - sales",
               "Setting SMstore8 to Space Function.Retail - sales",
               "Started applying space types (loads)",
               "Space Function Retail - sales had no people, one has been created.",
               "Space Function Retail - sales set occupancy to 3.1 people/1000 ft^2.",
               "Space Function Retail - sales had no lights, one has been created.",
               "Space Function Retail - sales set LPD to 1.681531029 W/ft^2.",
               "Space Function Retail - sales had no electric equipment, one has been created.",
               "Space Function Retail - sales set electric EPD to 0.232255667 W/ft^2.",
               "Space Function Retail - sales had no ventilation specification, one has been created.",
               "Space Function Retail - sales set ventilation per area to 0.233 cfm/ft^2.",
               "Space Function Retail - sales had no infiltration objects, one has been created.",
               "Space Function Retail - sales set infiltration to 0.0 per ft^2 exterior surface area.",
               "Space Function Retail - sales set occupancy schedule to NECB-C-Occupancy.",
               "Space Function Retail - sales set occupant activity schedule to NECB-Activity.",
               "Space Function Retail - sales set lighting schedule to NECB-C-Lighting.",
               "Space Function Retail - sales set electric equipment schedule to NECB-C-Electric-Equipment.",
               "Space Function Retail - sales set infiltration schedule to Always On.",
               "Space Function Retail - sales set heating setpoint schedule to NECB-C-Thermostat Setpoint-Heating.",
               "Space Function Retail - sales set cooling setpoint schedule to NECB-C-Thermostat Setpoint-Cooling.",
               "Finished applying space types (loads)",
               "Started applying constructions",
               "Adding construction set: NECB 2011-NECB HDD Method-StripMall--is_residentialNo",
               "Adding construction Typical Insulated Exterior Mass Floor R-15.63.",
               "Adding construction Typical Insulated Exterior Mass Wall R-12.5.",
               "Adding construction Typical Insulated Metal Building Roof R-20.41.",
               "Adding construction Typical Interior Floor.",
               "Adding construction Typical Interior Wall.",
               "Adding construction Typical Interior Ceiling.",
               "Adding construction Typical Insulated Carpeted 6in Slab Floor.",
               "Adding construction U 0.55 SHGC 0.31 Dbl Ref-D Tint 6mm/6mm Air.",
               "Adding construction Typical Insulated Metal Door R-1.43.",
               "Adding construction U 0.35 SHGC 0.35 Dbl LoE (e2-.1) Tint 6mm/13mm Air.",
               "Adding construction Typical Overhead Door R-2.0.",
               "Adding construction U 0.48 SHGC 0.40 Dbl Ref-D Clr 6mm/13mm.",
               "Adding construction Typical Interior Window.",
               "Adding construction Typical Interior Door.",
               "Adding construction Typical Interior Partition.",
               "Finished applying constructions",
               "WWR NonRes = 0%; window = 0 ft2, wall = 0 ft2.",
               "WWR Res = 0%; window = 0 ft2, wall = 0 ft2.",
               "WWR Semiheated = 0%; window = 0 ft2, wall = 0 ft2.",
               "The skylight to roof ratios (SRRs) are: NonRes: 0%, Res: 0%.",
               "Started creating thermal zones",
               "Finished creating thermal zones",
               "Running simulation /mnt/openstudio/analysis_4fef0e0f-5396-4c55-a6e1-2cd6803db3ab/data_point_8a1bbdb8-9462-4947-9169-6ad645f9101f/run/000_create_prototype_building/output/RetailStripmall-NECB 2011-NECB HDD Method-CAN_BC_Vancouver.718920_CWEC.epw/SR0.",
               "Finished run.",
               "Started Adding HVAC",
               "Finished adding HVAC",
               "Started Adding Service Water Heating",
               "Adding service water loop.",
               "Adding water heater.",
               "Template =",
               "Finished adding Service Water Heating",
               "Set sizing factors to 1.3 for heating and 1.3 for cooling.",
               "Running simulation /mnt/openstudio/analysis_4fef0e0f-5396-4c55-a6e1-2cd6803db3ab/data_point_8a1bbdb8-9462-4947-9169-6ad645f9101f/run/000_create_prototype_building/output/RetailStripmall-NECB 2011-NECB HDD Method-CAN_BC_Vancouver.718920_CWEC.epw/SR1.",
               "Finished run.",
               "Started applying multizone vav OA sizing.",
               "Finished applying multizone vav OA sizing.",
               "Started applying prototype HVAC assumptions.",
               "For Fan Constant Volume 1: allowed_hp = 1.67HP; motor eff = 61.5%; total fan eff = 40% based on 2440 cfm.",
               "For Fan Constant Volume 10: allowed_hp = 1.68HP; motor eff = 61.5%; total fan eff = 40% based on 2460 cfm.",
               "For Fan Constant Volume 2: allowed_hp = 1.01HP; motor eff = 61.5%; total fan eff = 40% based on 1258 cfm.",
               "For Fan Constant Volume 3: allowed_hp = 1.01HP; motor eff = 61.5%; total fan eff = 40% based on 1283 cfm.",
               "For Fan Constant Volume 4: allowed_hp = 1.01HP; motor eff = 61.5%; total fan eff = 40% based on 1259 cfm.",
               "For Fan Constant Volume 5: allowed_hp = 1.01HP; motor eff = 61.5%; total fan eff = 40% based on 1258 cfm.",
               "For Fan Constant Volume 6: allowed_hp = 1.01HP; motor eff = 61.5%; total fan eff = 40% based on 1258 cfm.",
               "For Fan Constant Volume 7: allowed_hp = 1.01HP; motor eff = 61.5%; total fan eff = 40% based on 1280 cfm.",
               "For Fan Constant Volume 8: allowed_hp = 1.01HP; motor eff = 61.5%; total fan eff = 40% based on 1280 cfm.",
               "For Fan Constant Volume 9: allowed_hp = 1.01HP; motor eff = 61.5%; total fan eff = 40% based on 1279 cfm.",
               "Sp-SMstore5 Sys-3 Flr-1 Sch-C HPlcmt-north ZN NECB System 3 PSZ does not require an economizer because the total cooling capacity of 34123 Btu/hr is less than the minimum capacity of 68243 Btu/hr.",
               "Sp-SMstore4 Sys-3 Flr-1 Sch-C HPlcmt-north ZN NECB System 3 PSZ does not require an economizer because the total cooling capacity of 34121 Btu/hr is less than the minimum capacity of 68243 Btu/hr.",
               "Sp-SMstore2 Sys-3 Flr-1 Sch-C HPlcmt-north ZN NECB System 3 PSZ does not require an economizer because the total cooling capacity of 33539 Btu/hr is less than the minimum capacity of 68243 Btu/hr.",
               "Sp-SMstore3 Sys-3 Flr-1 Sch-C HPlcmt-north ZN NECB System 3 PSZ does not require an economizer because the total cooling capacity of 33529 Btu/hr is less than the minimum capacity of 68243 Btu/hr.",
               "Sp-SMstore8 Sys-3 Flr-1 Sch-C HPlcmt-east ZN NECB System 3 PSZ does not require an economizer because the total cooling capacity of 34102 Btu/hr is less than the minimum capacity of 68243 Btu/hr.",
               "Sp-SMstore6 Sys-3 Flr-1 Sch-C HPlcmt-north ZN NECB System 3 PSZ does not require an economizer because the total cooling capacity of 33535 Btu/hr is less than the minimum capacity of 68243 Btu/hr.",
               "Sp-LGstore2 Sys-3 Flr-1 Sch-C HPlcmt-north ZN NECB System 3 PSZ does not require an economizer because the total cooling capacity of 65049 Btu/hr is less than the minimum capacity of 68243 Btu/hr.",
               "Sp-SMstore1 Sys-3 Flr-1 Sch-C HPlcmt-north ZN NECB System 3 PSZ does not require an economizer because the total cooling capacity of 34212 Btu/hr is less than the minimum capacity of 68243 Btu/hr.",
               "Sp-LGstore1 Sys-3 Flr-1 Sch-C HPlcmt-west ZN NECB System 3 PSZ does not require an economizer because the total cooling capacity of 65571 Btu/hr is less than the minimum capacity of 68243 Btu/hr.",
               "Sp-SMstore7 Sys-3 Flr-1 Sch-C HPlcmt-north ZN NECB System 3 PSZ does not require an economizer because the total cooling capacity of 33567 Btu/hr is less than the minimum capacity of 68243 Btu/hr.",
               "Finished applying prototype HVAC assumptions.",
               "Started applying HVAC efficiency standards.",
               "For Sp-LGstore1 Sys-3 Flr-1 Sch-C HPlcmt-west ZN NECB System 3 PSZ, ERV not required based on 0% OA flow, design supply air flow of 2460cfm, and climate zone NECB HDD Method.",
               "For Sp-LGstore1 Sys-3 Flr-1 Sch-C HPlcmt-west ZN NECB System 3 PSZ, ERV not required based on exhaust heat content.",
               "For NECB 2011 NECB HDD Method:  Sp-LGstore1 Sys-3 Flr-1 Sch-C HPlcmt-west ZN NECB System 3 PSZ: DCV is not required for any system.",
               "For Sp-LGstore1 Sys-3 Flr-1 Sch-C HPlcmt-west ZN NECB System 3 PSZ: Annual occupied hours = 4168 hr/yr, assuming a 0.15 occupancy threshold.  This schedule will be used as the HVAC operation schedule.",
               "For Sp-LGstore1 Sys-3 Flr-1 Sch-C HPlcmt-west ZN NECB System 3 PSZ: Setting motorized OA damper schedule to Sp-LGstore1 Sys-3 Flr-1 Sch-C HPlcmt-west ZN NECB System 3 PSZ Occ Sch.",
               "For Sp-LGstore2 Sys-3 Flr-1 Sch-C HPlcmt-north ZN NECB System 3 PSZ, ERV not required based on 0% OA flow, design supply air flow of 2440cfm, and climate zone NECB HDD Method.",
               "For Sp-LGstore2 Sys-3 Flr-1 Sch-C HPlcmt-north ZN NECB System 3 PSZ, ERV not required based on exhaust heat content.",
               "For NECB 2011 NECB HDD Method:  Sp-LGstore2 Sys-3 Flr-1 Sch-C HPlcmt-north ZN NECB System 3 PSZ: DCV is not required for any system.",
               "For Sp-LGstore2 Sys-3 Flr-1 Sch-C HPlcmt-north ZN NECB System 3 PSZ: Annual occupied hours = 4168 hr/yr, assuming a 0.15 occupancy threshold.  This schedule will be used as the HVAC operation schedule.",
               "For Sp-LGstore2 Sys-3 Flr-1 Sch-C HPlcmt-north ZN NECB System 3 PSZ: Setting motorized OA damper schedule to Sp-LGstore2 Sys-3 Flr-1 Sch-C HPlcmt-north ZN NECB System 3 PSZ Occ Sch.",
               "For Sp-SMstore1 Sys-3 Flr-1 Sch-C HPlcmt-north ZN NECB System 3 PSZ, ERV not required based on 0% OA flow, design supply air flow of 1283cfm, and climate zone NECB HDD Method.",
               "For Sp-SMstore1 Sys-3 Flr-1 Sch-C HPlcmt-north ZN NECB System 3 PSZ, ERV not required based on exhaust heat content.",
               "For NECB 2011 NECB HDD Method:  Sp-SMstore1 Sys-3 Flr-1 Sch-C HPlcmt-north ZN NECB System 3 PSZ: DCV is not required for any system.",
               "For Sp-SMstore1 Sys-3 Flr-1 Sch-C HPlcmt-north ZN NECB System 3 PSZ: Annual occupied hours = 4168 hr/yr, assuming a 0.15 occupancy threshold.  This schedule will be used as the HVAC operation schedule.",
               "For Sp-SMstore1 Sys-3 Flr-1 Sch-C HPlcmt-north ZN NECB System 3 PSZ: Setting motorized OA damper schedule to Sp-SMstore1 Sys-3 Flr-1 Sch-C HPlcmt-north ZN NECB System 3 PSZ Occ Sch.",
               "For Sp-SMstore2 Sys-3 Flr-1 Sch-C HPlcmt-north ZN NECB System 3 PSZ, ERV not required based on 0% OA flow, design supply air flow of 1258cfm, and climate zone NECB HDD Method.",
               "For Sp-SMstore2 Sys-3 Flr-1 Sch-C HPlcmt-north ZN NECB System 3 PSZ, ERV not required based on exhaust heat content.",
               "For NECB 2011 NECB HDD Method:  Sp-SMstore2 Sys-3 Flr-1 Sch-C HPlcmt-north ZN NECB System 3 PSZ: DCV is not required for any system.",
               "For Sp-SMstore2 Sys-3 Flr-1 Sch-C HPlcmt-north ZN NECB System 3 PSZ: Annual occupied hours = 4168 hr/yr, assuming a 0.15 occupancy threshold.  This schedule will be used as the HVAC operation schedule.",
               "For Sp-SMstore2 Sys-3 Flr-1 Sch-C HPlcmt-north ZN NECB System 3 PSZ: Setting motorized OA damper schedule to Sp-SMstore2 Sys-3 Flr-1 Sch-C HPlcmt-north ZN NECB System 3 PSZ Occ Sch.",
               "For Sp-SMstore3 Sys-3 Flr-1 Sch-C HPlcmt-north ZN NECB System 3 PSZ, ERV not required based on 0% OA flow, design supply air flow of 1258cfm, and climate zone NECB HDD Method.",
               "For Sp-SMstore3 Sys-3 Flr-1 Sch-C HPlcmt-north ZN NECB System 3 PSZ, ERV not required based on exhaust heat content.",
               "For NECB 2011 NECB HDD Method:  Sp-SMstore3 Sys-3 Flr-1 Sch-C HPlcmt-north ZN NECB System 3 PSZ: DCV is not required for any system.",
               "For Sp-SMstore3 Sys-3 Flr-1 Sch-C HPlcmt-north ZN NECB System 3 PSZ: Annual occupied hours = 4168 hr/yr, assuming a 0.15 occupancy threshold.  This schedule will be used as the HVAC operation schedule.",
               "For Sp-SMstore3 Sys-3 Flr-1 Sch-C HPlcmt-north ZN NECB System 3 PSZ: Setting motorized OA damper schedule to Sp-SMstore3 Sys-3 Flr-1 Sch-C HPlcmt-north ZN NECB System 3 PSZ Occ Sch.",
               "For Sp-SMstore4 Sys-3 Flr-1 Sch-C HPlcmt-north ZN NECB System 3 PSZ, ERV not required based on 0% OA flow, design supply air flow of 1280cfm, and climate zone NECB HDD Method.",
               "For Sp-SMstore4 Sys-3 Flr-1 Sch-C HPlcmt-north ZN NECB System 3 PSZ, ERV not required based on exhaust heat content.",
               "For NECB 2011 NECB HDD Method:  Sp-SMstore4 Sys-3 Flr-1 Sch-C HPlcmt-north ZN NECB System 3 PSZ: DCV is not required for any system.",
               "For Sp-SMstore4 Sys-3 Flr-1 Sch-C HPlcmt-north ZN NECB System 3 PSZ: Annual occupied hours = 4168 hr/yr, assuming a 0.15 occupancy threshold.  This schedule will be used as the HVAC operation schedule.",
               "For Sp-SMstore4 Sys-3 Flr-1 Sch-C HPlcmt-north ZN NECB System 3 PSZ: Setting motorized OA damper schedule to Sp-SMstore4 Sys-3 Flr-1 Sch-C HPlcmt-north ZN NECB System 3 PSZ Occ Sch.",
               "For Sp-SMstore5 Sys-3 Flr-1 Sch-C HPlcmt-north ZN NECB System 3 PSZ, ERV not required based on 0% OA flow, design supply air flow of 1280cfm, and climate zone NECB HDD Method.",
               "For Sp-SMstore5 Sys-3 Flr-1 Sch-C HPlcmt-north ZN NECB System 3 PSZ, ERV not required based on exhaust heat content.",
               "For NECB 2011 NECB HDD Method:  Sp-SMstore5 Sys-3 Flr-1 Sch-C HPlcmt-north ZN NECB System 3 PSZ: DCV is not required for any system.",
               "For Sp-SMstore5 Sys-3 Flr-1 Sch-C HPlcmt-north ZN NECB System 3 PSZ: Annual occupied hours = 4168 hr/yr, assuming a 0.15 occupancy threshold.  This schedule will be used as the HVAC operation schedule.",
               "For Sp-SMstore5 Sys-3 Flr-1 Sch-C HPlcmt-north ZN NECB System 3 PSZ: Setting motorized OA damper schedule to Sp-SMstore5 Sys-3 Flr-1 Sch-C HPlcmt-north ZN NECB System 3 PSZ Occ Sch.",
               "For Sp-SMstore6 Sys-3 Flr-1 Sch-C HPlcmt-north ZN NECB System 3 PSZ, ERV not required based on 0% OA flow, design supply air flow of 1258cfm, and climate zone NECB HDD Method.",
               "For Sp-SMstore6 Sys-3 Flr-1 Sch-C HPlcmt-north ZN NECB System 3 PSZ, ERV not required based on exhaust heat content.",
               "For NECB 2011 NECB HDD Method:  Sp-SMstore6 Sys-3 Flr-1 Sch-C HPlcmt-north ZN NECB System 3 PSZ: DCV is not required for any system.",
               "For Sp-SMstore6 Sys-3 Flr-1 Sch-C HPlcmt-north ZN NECB System 3 PSZ: Annual occupied hours = 4168 hr/yr, assuming a 0.15 occupancy threshold.  This schedule will be used as the HVAC operation schedule.",
               "For Sp-SMstore6 Sys-3 Flr-1 Sch-C HPlcmt-north ZN NECB System 3 PSZ: Setting motorized OA damper schedule to Sp-SMstore6 Sys-3 Flr-1 Sch-C HPlcmt-north ZN NECB System 3 PSZ Occ Sch.",
               "For Sp-SMstore7 Sys-3 Flr-1 Sch-C HPlcmt-north ZN NECB System 3 PSZ, ERV not required based on 0% OA flow, design supply air flow of 1259cfm, and climate zone NECB HDD Method.",
               "For Sp-SMstore7 Sys-3 Flr-1 Sch-C HPlcmt-north ZN NECB System 3 PSZ, ERV not required based on exhaust heat content.",
               "For NECB 2011 NECB HDD Method:  Sp-SMstore7 Sys-3 Flr-1 Sch-C HPlcmt-north ZN NECB System 3 PSZ: DCV is not required for any system.",
               "For Sp-SMstore7 Sys-3 Flr-1 Sch-C HPlcmt-north ZN NECB System 3 PSZ: Annual occupied hours = 4168 hr/yr, assuming a 0.15 occupancy threshold.  This schedule will be used as the HVAC operation schedule.",
               "For Sp-SMstore7 Sys-3 Flr-1 Sch-C HPlcmt-north ZN NECB System 3 PSZ: Setting motorized OA damper schedule to Sp-SMstore7 Sys-3 Flr-1 Sch-C HPlcmt-north ZN NECB System 3 PSZ Occ Sch.",
               "For Sp-SMstore8 Sys-3 Flr-1 Sch-C HPlcmt-east ZN NECB System 3 PSZ, ERV not required based on 0% OA flow, design supply air flow of 1279cfm, and climate zone NECB HDD Method.",
               "For Sp-SMstore8 Sys-3 Flr-1 Sch-C HPlcmt-east ZN NECB System 3 PSZ, ERV not required based on exhaust heat content.",
               "For NECB 2011 NECB HDD Method:  Sp-SMstore8 Sys-3 Flr-1 Sch-C HPlcmt-east ZN NECB System 3 PSZ: DCV is not required for any system.",
               "For Sp-SMstore8 Sys-3 Flr-1 Sch-C HPlcmt-east ZN NECB System 3 PSZ: Annual occupied hours = 4168 hr/yr, assuming a 0.15 occupancy threshold.  This schedule will be used as the HVAC operation schedule.",
               "For Sp-SMstore8 Sys-3 Flr-1 Sch-C HPlcmt-east ZN NECB System 3 PSZ: Setting motorized OA damper schedule to Sp-SMstore8 Sys-3 Flr-1 Sch-C HPlcmt-east ZN NECB System 3 PSZ Occ Sch.",
               "For Fan Constant Volume 1: motor nameplate = 1.520014319079764HP, motor eff = 61.5%.",
               "For Fan Constant Volume 10: motor nameplate = 1.5322106112206124HP, motor eff = 61.5%.",
               "For Fan Constant Volume 2: motor nameplate = 0.7837202885169717HP, motor eff = 61.5%.",
               "For Fan Constant Volume 3: motor nameplate = 0.7994332061094241HP, motor eff = 61.5%.",
               "For Fan Constant Volume 4: motor nameplate = 0.7843659698263851HP, motor eff = 61.5%.",
               "For Fan Constant Volume 5: motor nameplate = 0.7836172749671264HP, motor eff = 61.5%.",
               "For Fan Constant Volume 6: motor nameplate = 0.7834776736343164HP, motor eff = 61.5%.",
               "For Fan Constant Volume 7: motor nameplate = 0.797359203419095HP, motor eff = 61.5%.",
               "For Fan Constant Volume 8: motor nameplate = 0.7973173194060436HP, motor eff = 61.5%.",
               "For Fan Constant Volume 9: motor nameplate = 0.7968746423862401HP, motor eff = 61.5%.",
               "For Service Water Loop Pump: brake hp = 0.0HP, motor nameplate = 0.1HP, motor eff = 70.0%.",
               "For Pump Variable Speed 1: brake hp = 0.31HP, motor nameplate = 1.0HP, motor eff = 85.5%.",
               "For NECB 2011: Coil Cooling DX Single Speed 1: AirCooled All Other Single Package Capacity = 65kBtu/hr; EER = 9.7",
               "For NECB 2011: Coil Cooling DX Single Speed 10: AirCooled All Other Single Package Capacity = 66kBtu/hr; EER = 9.7",
               "For NECB 2011: Coil Cooling DX Single Speed 2: AirCooled All Other Single Package Capacity = 34kBtu/hr; SEER = 14.0",
               "For NECB 2011: Coil Cooling DX Single Speed 3: AirCooled All Other Single Package Capacity = 34kBtu/hr; SEER = 14.0",
               "For NECB 2011: Coil Cooling DX Single Speed 4: AirCooled All Other Single Package Capacity = 34kBtu/hr; SEER = 14.0",
               "For NECB 2011: Coil Cooling DX Single Speed 5: AirCooled All Other Single Package Capacity = 34kBtu/hr; SEER = 14.0",
               "For NECB 2011: Coil Cooling DX Single Speed 6: AirCooled All Other Single Package Capacity = 34kBtu/hr; SEER = 14.0",
               "For NECB 2011: Coil Cooling DX Single Speed 7: AirCooled All Other Single Package Capacity = 34kBtu/hr; SEER = 14.0",
               "For NECB 2011: Coil Cooling DX Single Speed 8: AirCooled All Other Single Package Capacity = 34kBtu/hr; SEER = 14.0",
               "For NECB 2011: Coil Cooling DX Single Speed 9: AirCooled All Other Single Package Capacity = 34kBtu/hr; SEER = 14.0",
               "For NECB 2011: Primary Boiler: Gas Hot Water Capacity = 231kBtu/hr; AFUE = 0.85",
               "For NECB 2011: Secondary Boiler: Gas Hot Water Capacity = 0kBtu/hr; AFUE = 0.85",
               "For NECB 2011: 40.0gal NaturalGas Water Heater - 40kBtu/hr 0.82 Therm Eff; thermal efficiency = 0.82, skin-loss UA = 6Btu/hr",
               "Finished applying HVAC efficiency standards.",
               "Started adding daylighting controls.",
               "Finished adding daylighting controls.",
               "Total Time = 72sec."
            ],
            "step_result" : "Success",
            "step_values" : [
               {
                  "name" : "building_type",
                  "value" : "RetailStripmall"
               },
               {
                  "name" : "template",
                  "value" : "NECB 2011"
               },
               {
                  "name" : "climate_zone",
                  "value" : "NECB HDD Method"
               },
               {
                  "name" : "epw_file",
                  "value" : "CAN_BC_Vancouver.718920_CWEC.epw"
               }
            ],
            "step_warnings" : [
               "[openstudio.EpwFile] Successive data points (1970-Jan-31 to 1967-Feb-01, ending on line 753) are greater than 1 day apart in EPW file '/usr/local/bundle/bundler/gems/openstudio-standards-f448df66933d/openstudio-standards/data/weather/CAN_BC_Vancouver.718920_CWEC.epw'. Data will be treated as typical (TMY)",
               "[openstudio.EpwFile] Successive data points (1970-Jan-31 to 1967-Feb-01, ending on line 753) are greater than 1 day apart in EPW file '/usr/local/bundle/bundler/gems/openstudio-standards-f448df66933d/openstudio-standards/data/weather/CAN_BC_Vancouver.718920_CWEC.epw'. Data will be treated as typical (TMY)",
               "[openstudio.weather.Model] Could not find ground temperatures; will use generic temperatures, which will skew results.",
               "[openstudio.EpwFile] Successive data points (1970-Jan-31 to 1967-Feb-01, ending on line 753) are greater than 1 day apart in EPW file '/usr/local/bundle/bundler/gems/openstudio-standards-f448df66933d/openstudio-standards/data/weather/CAN_BC_Vancouver.718920_CWEC.epw'. Data will be treated as typical (TMY)",
               "[openstudio.EpwFile] Successive data points (1970-Jan-31 to 1967-Feb-01, ending on line 753) are greater than 1 day apart in EPW file '/usr/local/bundle/bundler/gems/openstudio-standards-f448df66933d/openstudio-standards/data/weather/CAN_BC_Vancouver.718920_CWEC.epw'. Data will be treated as typical (TMY)",
               "[openstudio.standards.Fan] For Fan Constant Volume 1, there is no greater nominal HP.  Use the efficiency of the largest motor category.",
               "[openstudio.standards.Fan] For Fan Constant Volume 10, there is no greater nominal HP.  Use the efficiency of the largest motor category.",
               "[openstudio.standards.Fan] For Fan Constant Volume 2, there is no greater nominal HP.  Use the efficiency of the largest motor category.",
               "[openstudio.standards.Fan] For Fan Constant Volume 3, there is no greater nominal HP.  Use the efficiency of the largest motor category.",
               "[openstudio.standards.Fan] For Fan Constant Volume 4, there is no greater nominal HP.  Use the efficiency of the largest motor category.",
[...]
hNOSxCqchj1U4DXmswmnIYxVOQx6rcBryWIXrf1vY5wVjFU5jC428YKzCadRr5Wu/iqTcWDX/rhKAhLwaMAl5MWAS8lrAJOSxCiYhj1UwCXmsgknIYxVMQh6rYBIFYxVOQ77d4jTksQqnIY9VOA15rMJpyGMVTkMeq3Aa8liF05DHKpyGPFbh+t8W9nnBWIXT2EIjLxircBr1Wvlax/dyY9XcEh4gIa8GTEJeDJiEvBYwCXmsgknIYxVMQh6rYBLyWAWTkMcqmETBWIXTkG+3OA15rMJpyGMVTkMeq3Aa8liF05DHKpyGPFbhNOSxCqchj1W4/reFfV4wVuE0ttDIC8YqnEa9Vr7WWLfcWDV33gVIyKsBk5AXAyYhrwVMQh6rYBLyWAWTkMcqmIQ8VsEk5LEKJlEwVuE05NstTkMeq3Aa8liF05DHKpyGPFbhNOSxCqchj1U4DXmswmnIYxWu/21hnxeMVTiNLTTygrEKp1Gvla/1Lyw3Vs0NDgES8mrAJOTFgEnIawGTkMcqmIQ8VsEk5LEKJiGPVTAJeayCSRSaraE05NstTqPIyAqlUeRxhdIosr9CaRR5vqE0iuzgUBpFTnEojSITOZRGkb8cqv9tYZ8XutKhNLbQyAvGKpzG+lb+vozD68K6WZ2qsb5dGsjmvrHN5GbUyh1g11rFLv2fE50+jaZjP2n2Oi3lOL2W6pq/ub1ydrN3Gca9rbXvD7xUj6J49uQuSOb+yffvv4TJdJbgVezr+M3U2BmXPtFwzFY5XmovmcZ6jmEcmRfXfcMG3wwzzDDDDDPMMMMMM8wwwwwzzDDDDDPMMMMMM8wwwwwzzDDDDDPMMMMMM8wwwwwzzDDDDDPMMMMMM8wwwwwzzDDDDDPMMMMM/6XCs3Z0o+M48PVLzzxY67Q7ls+rmkdjk9VHY891HOhk8Xhto7V8gHgSRmk7DMZ67SOyydee013/ZG3Szr96fhKFXhpE4wyqkaR6sn+hL6NYN8o9+fyLHumxv/qG5j9r9jst1TVPLnfMg8zmj0aoL1MDtib1Mm37w0inZ+PUXJ9M4nI6HuakzT31x5oUS0J9f/a7tc9ymyO4VM30KkjaSb4q5YTM8eCkdnb9zrzhVfN/wFWzLfHNo+MZ+yLvh0mUBCbhs+zHZd7N8jBpvkIVR7fVkJZYwdjXZj/sO62KZy+Pj3VPvAx0aOqtubim830yiqPpRPvq++/VPxY/v2t/uPKSxfPvZoPtPYzOvhrNLkjbG42eG412qMej9Er9qFz1b9V4EoYN9Xj1FUkYDHVz39l713m/t3a/ffFOolg1P2ZvpfOD+pjJLEp1oWt+9s/sjlN9gcxhyniR793H9+1PeqZOT0/nF69exjzrYtk/Vn2ry+Mi1t6nOid/rnhO1deb67V4d6emrE0xLColN3Jof/CSJBiNtT8wFhHJu/xKvq93KZcLPZkmV826a5Et6eP5etbfSWH4uMy7bJtX1lVJ0jj6pMvpzF9bVymaeMMgnZWTWry49rvKJZZSdbMsbySrt5U626Pyzcccy+28euNR+8qpmq3KdivP+rmVd9VSr/+8bqYwx8GBev3bW/XfV7+9Ueev3rz9+def1C+vfvp5oF6cvTkrl+B5dtfWd54Z0VQaqSSKUzWeXmd1MFS5pUmivGSYDS/BeFQi4/LamzwPOrPXUhflby6xTqfxWE28ONHPw8hLm5655e9lS/ngZxf5z0pdzPUj2gPZxVtYl/jzZp1e7ufPfLvnm735yNeX3jRM1SSOsnuYftRSj747Ph4Mzs4ebdh4hjjEIQ5xiEMc4hCHOMQhDnH+mjgqmV5n/wRWvjY/VL43M0Sx9klDGtKQhjSkIQ1pSEMa0pCGNMU0t/l/zfoTzUU41cQhDnGIQxziEIc4xCEOcYhDnDo4998b6JjvDTyfSt8b2HXy37A9eXJ4eHJCUpKSlKQkJSlJSUpSkpKUpCQlKUl3g9TNSb1UIu3kpN2u6x73SUpSkpKUpCQlKUlJSlKSkpSkJCXpbpB2DenzOBBI3ZOc1HGOjrpdkpKUpCQlKUlJSlKSkpSkJCUpSUm6G6SHhvTt1VQiPc5JT7Kj95SkJCUpSUlKUpKSlKQkJSlJSUpSku4Gac+Q/kf7EulRTvrs2WBwdERSkpKUpCQlKUlJSlKSkpSkJCUpSXeDtJ9/MjHVEmk/Jx0M+n2SkpSkJCUpSUlKUpKSlKQkJSlJSborpEeG9GUkOQu6vZz0+Nh1ez2SkpSkJCUpSUlKUpKSlKQkJSlJSbo10iWKH3u3zbXJ7tppkIb6/Mqb6Haq79LmoxfRNE7WY8y+PPNZcK3HSRCNQ53kGdakODhQT3xfeSrPpG6D9Eol0bVWfnfNmcnNqO1NJnrsNxtGu7G35oTl0fbSNG427hot1e9UPGmWneSWPylJZ6Ge4+174+FVFGfnN0J9WYF2keMyGqf7tzoYXaUmx0UU+uVzzNfmfLJ//jJJo1gfqvNZst9Vz8N431Hnw6v9gXrxOhxep/vjKM6W4Pdf1a9ng6fmZam+Vl31+vx39Wo4NK99tFe0qD8eJMM4mKT/El/z44Ef3Hw9LJ4jJ8tyqcA/bQxNxQ+yi+QFYx1/6B03VH7lTht+kExCb/Y4GIdZaP8ijIaffmjIfFnS+VtQ6WySnW8u3sFH78ab/7TwTHPceLEpTnWq/OB6Eur2WN+e34yaje++ZGypw04n/2PtZjNpfS/1srzv/miE3oUOG48bvr70pmGqJnF0GYS60ZpHPtw1HjvtTqtx44VTvfj70NyTsnOy28xgcHbW+NwqlccF5emC8hyC8vRAefqgPEegPMegPCegPE4HlQhV0Q6qpB1UTTuoonZQVe2gytpB1bWDKmwHVdkuqrJd2L0aVdkuqrLdSpWtkun19cqXVJfqaLH2K6QRr1G1NOIVqpZGvD7V0oj7vloacddXSyPu+WppxB1fLY2436ulkRtZxTygOpbbWMU8oEqWm1jFPKBalltYxTygapYbWMU8oHqW21fFPKj7Mqie5d5VMU/5er4Nxmn1tnVhflQ+j3h5KuYRL0/FPOLlqZhH3O4V84jbvWIecbtXzCNu94p5xO1eMY/cv6omQlW03MGqJkLVtNzDqiZCVbXcxaomQtW13MeqJkJVttzJqiaC3atRlS03s6qJylf2/W8t1n6rsNTmOiv/0Jt/7TBAwt28RHfzEoebl+htXqK/eYmjzUscb17iZPMSK519Uxpb2N8FH8ziNORPtnAa8odeOA35k16chvwhME5D/nwYpyF/dIzTkD9VxvW/Lexzdxt9fAuN3N1CJ3frtfK1X95Ybqyaf7sjQEJeDZiEvBgwCXktYBLyWAWTkMcqmIQ8VsEk5LEKJiGPVTCJgt9c4zTkX/3hNOSxCqchj1U4DXmswmnIYxVOQx6rcBryWIXTkMcqnIY8VuH63xb2ecGv+HEaW2jkBWMVTqNeK1/7HVnlxqr5l2gBJOTVgEnIiwGTkNcCJiGPVTAJeayCSchjFUxCHqtgEvJYBZMoGKtwGvLtFqchj1U4DXmswmnIYxVOQx6rcBryWIXTkMcqnIY8VuE05LEK1/+2sM8LxiqcxhYaecFYhdOo18rXfhVJubFq/l0lAAl5NWAS8mLAJOS1gEnIYxVMQh6rYBLyWAWTkMcqmIQ8VsEkCsYqnIZ8u8VpyGMVTkMeq3Aa8liF05DHKpyGPFbhNOSxCqchj1U4DXmswvW/LezzgrEKp7GFRl4wVuE06rXytY7v5caquSU8QEJeDZiEvBgwCXktYBLyWAWTkMcqmIQ8VsEk5LEKJiGPVTCJgrEKpyHfbnEa8liF05DHKpyGPFbhNOSxCqchj1U4DXmswmnIYxVOQx6rcP1vC/u8YKzCaWyhkReMVTiNeq18rbFuubFq7rwLkJBXAyYhLwZMQl4LmIQ8VsEk5LEKJiGPVTAJeayCSchjFUyiYKzCaci3W5yGPFbhNOSxCqchj1U4DXmswmnIYxVOQx6rcBryWIXTkMcqXP/bwj4vGKtwGlto5AVjFU6jXitf619YbqyaGxwCJOTVgEnIiwGTkNcCJiGPVTAJeayCSchjFUxCHqtgEvJYBZMoNFtDaci3W5xGkZEVSqPI4wqlUWR/hdIo8nxDaRTZwaE0ipziUBpFJnIojSJ/OVT/28I+L3SlQ2lsoZEXjFU4jfWt/H0Zh9eFdbM6VWN9uzSQzX1jm8nNqJU7wK61il36Pyc6fRpNx37S7HVaynF6LdU1f3N75exm7zKMe1tr3x94qR5F8ezJXZDM/ZPv338Jk+kswavY1/GbqbEzLn2i4ZitcrzUXjKN9RzDODIvrvuGDb4ZZphhhhlmmGGGGWaYYYYZZphhhhlmmGGGGWaYYYYZZphhhhlmmGGGGWaYYYYZZphhhhlmmGGGGWaYYYYZZphhhhlmmGGGGf5LhWft6EbHceDrl555sNZpdyyfVzWPxiarj8ae6zjQyeLx2kZr+QDxJIzSdhiM9dpHZJOvPae7/snapJ1/9fwkCr00iMYZVCNJ9WT/Ql9GsW6Ue/L5Fz3SY3/1Dc1/1ux3WqprnlzumAeZzR+NUF+mBmxN6mXa9oeRTs/Gqbk+mcTldDzMSZt76o81KZaE+v7sd2uf5TZHcKma6VWQtJN8VcoJmePBSe3s+p15w6vm/4CrZlvim0fHM/ZF3g+TKAlMwmfZj8u8m+Vh0nyFKo5uqyEtsYKxr81+2HdaFc9eHh/rnngZ6NDUW3NxTef7ZBRH04n21fffq38sfn7X/nDlJYvn380G23sYnX01ml2QtjcaPTca7VCPR+mV+lG56t+q8SQMG+rx6iuSMBjq5r6z967zfm/tfvvinUSxan7M3krnB/Uxk1mU6kLX/Oyf2R2n+gKZw5TxIt+7j+/bn/RMnZ6ezi9evYx51sWyf6z6VpfHRay9T3VO/lzxnKqvN9dr8e5OTVmbYlhUSm7k0P7gJUkwGmt/YCwiknf5lXxf71IuF3oyTa6addciW9LH8/Wsv5PC8HGZd9k2r6yrkqRx9EmX05m/tq5SNPGGQTorJ7V4ce13lUsspepmWd5IVm8rdbZH5ZuPOZbbefXGo/aVUzVble1WnvVzK++qpV7/ed1MYY6DA/X6t7fqv69+e6POX715+/OvP6lfXv3080C9OHtzVi7B8+yure88M6KpNFJJFKdqPL3O6mCockuTRHnJMBtegvGoRMbltTd5HnRmr6Uuyt9cYp1O47GaeHGin4eRlzY9c8vfy5bywc8u8p+VupjrR7QHsou3sC7x5806vdzPn/l2zzd785GvL71pmKpJHGX3MP2opR59d3w8GJydPdqw8QxxiEMc4hCHOMQhDnGIQxzi/DVxVDK9zv4JrHxtfqh8b2aIYu2ThjSkIQ1pSEMa0pCGNKQhDWmKaW7z/5r1J5qLcKqJQxziEIc4xCEOcYhDHOIQhzh1cO6/N9Ax3xt4PpW+N7Dr5L9he/Lk8PDkhKQkJSlJSUpSkpKUpCQlKUlJSlKS7gapm5N6qUTayUm7Xdc97pOUpCQlKUlJSlKSkpSkJCUpSUlK0t0g7RrS53EgkLonOanjHB11uyQlKUlJSlKSkpSkJCUpSUlKUpKSdDdIDw3p26upRHqck55kR+8pSUlKUpKSlKQkJSlJSUpSkpKUpCTdDdKeIf2P9iXSo5z02bPB4OiIpCQlKUlJSlKSkpSkJCUpSUlKUpLuBmk//2RiqiXSfk46GPT7JCUpSUlKUpKSlKQkJSlJSUpSkpJ0V0iPDOnLSHIWdHs56fGx6/Z6JCUpSUlKUpKSlKQkJSlJSUpSkpJ0a6RLFD/2bptrk9210yAN9fmVN9HtVN+lzUcvommcrMeYfXnms+Baj5MgGoc6yTOsSXFwoJ74vvJUnkndBumVSqJrrfzumjOTm1Hbm0z02G82jHZjb80Jy6PtpWncbNw1WqrfqXjSLDvJLX9Sks5CPcfb98bDqyjOzm+E+rIC7SLHZTRO9291MLpKTY6LKPTL55ivzflk//xlkkax7qnzWbLfVc/DeN9R58Or/YF68TocXqf74yjOluD3X9WvZ4On5mWpvlZd9fr8d/VqODSvfbRXtKg/HiTDOJik/xJf8+OBH9x8PSyeIyfLcqnAP20MTcUPsovkBWMdf+idNFR+5U4bfpBMQm/2OBiHWWj/IoyGn35oyHxZ0vlbUOlskp1vLt7BR+/Gm/+08Exz3HixKU51qvzgehLq9ljfnt+Mmo3vvmRsqcNOJ/9j7WYzaX0v9bK87/5ohN6FDhuPG76+9KZhqiZxdBmEutGaRz7cNR477U6rceOFU734+9Dck7JzstvMYHB21vjcKpXHBeXpgvIcgvL0QHn6oDxHoDzHoDwnoDxOB5UIVdEOqqQdVE07qKJ2UFXtoMraQdW1gypsB1XZLqqyXdi9GlXZLqqy3UqVrZLp9fXKl1SX6mix9iukEa9RtTTiFaqWRrw+1dKI+75aGnHXV0sj7vlqacQdXy2NuN+rpZEbWcU8oDqW21jFPKBKlptYxTygWpZbWMU8oGqWG1jFPKB6lttXxTyo+zKonuXeVTFP+Xq+DcZp9bZ1YX5UPo94eSrmES9PxTzi5amYR9zuFfOI271iHnG7V8wjbveKecTtXjGP3L+qJkJVtNzBqiZC1bTcw6omQlW13MWqJkLVtdzHqiZCVbbcyaomgt2rUZUtN7OqicpX9v1vLdZ+q7DU5jor/9Cbf+0wQMLdvER38xKHm5fobV6iv3mJo81LHG9e4mTzEiudfVMaW9jfBR/M4jTkT7ZwGvKHXjgN+ZNenIb8ITBOQ/58GKchf3SM05A/Vcb1vy3sc3cbfXwLjdzdQid367XytV/eWG6smn+7I0BCXg2YhLwYMAl5LWAS8lgFk5DHKpiEPFbBJOSxCiYhj1UwiYLfXOM05F/94TTksQqnIY9VOA15rMJpyGMVTkMeq3Aa8liF05DHKpyGPFbh+t8W9nnBr/hxGlto5AVjFU6jXitf+x1Z5caq+ZdoASTk1YBJyIsBk5DXAiYhj1UwCXmsgknIYxVMQh6rYBLyWAWTKBircBry7RanIY9VOA15rMJpyGMVTkMeq3Aa8liF05DHKpyGPFbhNOSxCtf/trDPC8YqnMYWGnnBWIXTqNfK134VSbmxav5dJQAJeTVgEvJiwCTktYBJyGMVTEIeq2AS8lgFk5DHKpiEPFbBJArGKpyGfLvFachjFU5DHqtwGvJYhdOQxyqchjxW4TTksQqnIY9VOA15rML1vy3s84KxCqexhUZeMFbhNOq18rWO7+XGqrklPEBCXg2YhLwYMAl5LWAS8lgFk5DHKpiEPFbBJOSxCiYhj1UwiYKxCqch325xGvJYhdOQxyqchjxW4TTksQqnIY9VOA15rMJpyGMVTkMeq3D9bwv7vGCswmlsoZEXjFU4jXqtfK2xbrmxau68C5CQVwMmIS8GTEJeC5iEPFbBJOSxCiYhj1UwCXmsgknIYxVMomCswmnIt1uchjxW4TTksQqnIY9VOA15rMJpyGMVTkMeq3Aa8liF05DHKlz/28I+LxircBpbaOQFYxVOo14rX+tfWG6smhscAiTk1YBJyIsBk5DXAiYhj1UwCXmsgknIYxVMQh6rYBLyWAWTKDRbQ2nIt1ucRpGRFUqjyOMKpVFkf4XSKPJ8Q2kU2cGhNIqc4lAaRSZyKI0ifzlU/9vCPi90pUNpbKGRF4xVOI31rfx9GYfXhXWzOlVjfbs0kM19Y5vJzaiVO8CutYpd+j8nOn0aTcd+0ux1Wspxei3VNX9ze+XsZu8yjHtba98feKkeRfHsyV2QzP2T799/CZPpLMGr2Nfxm6mxMy59ouGYrXK81F4yjfUcwzgyL677hg2+GWaYYYYZZphhhhlmmGGGGWaYYYYZZphhhhlmmGGGGWaYYYYZZphhhhlmmGGGGWaYYYYZZphhhhlmmGGGGWaYYYYZZphhhhn+S4Vn7ehGx3Hg65eeebDWaXcsn1c1j8Ymq4/Gnus40Mni8dpGa/kA8SSM0nYYjPXaR2T/X3vn/5u29f3/3z9/xZ0nLUQDB0NCvqzZlFLSVmqbqmk1bVEVGXwBJ8ZGtkmCpvzvb19jsmTtsX3Ngb2yz9M/ZBnHfj4fvl9PIT5E33tOt/jJ2shMv3p+Gnh27AZ+AmVEsZw2+nIYhNIo9+TzOzmSvvP0hhav1TrNumirJ5eb6kFm9cPw5DBWYAXSS1nzciTjnh+r9kkshjN/kJLWtsVfBRJLQvlw9UXhs9zqcIeiFo/dyIzSXilnpI5HF5lJ+/Xswbj2N7Cu2hJfPTqesGe6l9MgcpXgq+TlMnezPJTMd6jC4FYPaYnl+o5U86Fh1TWvXh5XVS8cutJT462WtelinozCYDaVjvjpJ/FD9vqdeTm2o+z5dzXBth9H59+NJg1i2qPRqfIwPemP4rF4IVriN2GceJ4hjp6eEXnuQNYa1vZF8+t24Xz75k6CUNSukltp/iKuEptsqGa+6rWfkxVHv4PUoYZxpndx9dW8lnNxfHy8aLxqiqlq1u1Xure6PPqhtK+rXHyveY3u+aq9srs7VsNaDYZspKSFHMxLO4rckS+drioREV2kLfm1WlMuO3o6i8a1qn2RdOnRoj+rzyTPOypzl6Y6s6pLFIfBtSznszi3qlMwtQduPC9nlZ1c+a5Si6VVVZXlQvJ0WakyPbQXH3Usp/PThUc0hKWrpjPdyrPe19NdtdT590U5hTp2dsTHL5/FH2dfPonzs0+f3354Ld6dvX7bFW96n3rlBE6TVVve2SpFE3EgoiCMhT+bJONgINKSJpGwo0GSvLj+qITisu2VzqOd2a6LfvnFJZTxLPTF1A4jeeoFdlyz1ZK/nXTlo9f66WulGrM4RXtkm91CkfD9eiu9POSf6XRPJ3tty5FDe+bFYhoGyRomt+pi68eDg26319tac+EZ4AAHOMABDnCAAxzgAAc4wPlv4ohoNkn+CSwcqV4Ujj1XRKF0QAMa0IAGNKABDWhAAxrQgAY0+TS36Z9m/YOm780kcIADHOAABzjAAQ5wgAMc4ACnCs7D9wZa6nsDz2fU9wa2rfQTtpOT3d3DQ5CCFKQgBSlIQQpSkIIUpCAFKUhB+jxIWympHVOkzZS03W61DjogBSlIQQpSkIIUpCAFKUhBClKQgvR5kLYV6WnoEqStw5TUsvb3222QghSkIAUpSEEKUpCCFKQgBSlIQfo8SHcV6efxjCI9SEkPk2PvJUhBClKQghSkIAUpSEEKUpCCFKQgfR6ke4r0d+lQpPsp6atX3e7+PkhBClKQghSkIAUpSEEKUpCCFKQgfR6knfSdiZmkSDspabfb6YAUpCAFKUhBClKQghSkIAUpSEEK0udCuq9I3wdUZcHWXkp6cNBq7e2BFKQgBSlIQQpSkIIUpCAFKUhBCtKNkS5RnNC+rRWK3ZmxG3vyfGxPpRnLu7i29SaYhVExxvzbK1+5E+lHbuB7MkoVCiR2dsSJ4whbpEri1o3HIgomUjjtgiujm5FpT6fSd2qG8ja2Cy5YHqYdx2HNuDPqotPUvGieXNQqf1EUzz25wGvY/mAchMn1hieHGrSZxjDw48atdEfjWGn0A88pr7Hom/Np4/x9FAeh7IjzedRoi1MvbFjifDBudMWbj95gEjf8IEy64M8P4kOv+1KdFsuJaIuP53+Ks8FAnbu1ndepL3aiQehO41/Jc17sOO7N98PkNbRYoiVc59gYqBHfTRrJdn0ZXnaahkhb7thw3Gjq2fMj1/eSUKPvBYPrXwyaLxFd3IKI59PketV4O1f2jb14NfdKddzYoRqc4lg47mTqSdOXt+c3o5rx47eMdbHbbKY/CiebknXs2E50L/4yPLsvPePIcOTQnnmxmIbB0PWkUV9ELu+MI8ts1o0b25vJ7PeBWpOSa5Jlptvt9Yz7eimdFpNOm0lnl0lnj0mnw6Szz6RzwKRzyKRjNbmEuEa0xTWkLa4xbXENaotrVFtcw9riGtcW18C2uEZ2i2tkt9jWaq6R3eIa2S2tkS2i2WTy5EuqS+1ooXQ0ZMg20pMhW0hPhmwfPRly3uvJkLNeT4ac83oy5IzXkyHnu54MvZFp6jCNY3ob09RhGsn0JqapwzSW6S1MU4dpNNMbmKYO03imty9NHa51mWk803uXpk758Xzr+rH+ttVXL5XXIZtHU4dsHk0dsnk0dcjprqlDTndNHXK6a+qQ011Th5zumjr0/qUrxDWi6R1MV4hrTNN7mK4Q16imdzFdIa5xTe9jukJcI5veyXSF2NZqrpFNb2a6QuVH9sOnFoXfKkxtc80n/9BbfO0wg0Vr/Rbt9Vvsrt9ib/0WnfVb7K/f4mD9Fofrt3iys6/LYwPzO+eNWT4P+p0tPg/6TS8+D/qdXj4P+k1gPg/6/WE+D/qtYz4P+l1lvv1vA/O8tYl9fAMbeWsDO3mr2lZe+OWN5dKqxbc7MljQvcFmQXcGmwXdF2wWdFrFZkGnVWwWdFrFZkGnVWwWdFrFZpHzyTWfB/3RH58HnVbxedBpFZ8HnVbxedBpFZ8HnVbxedBpFZ8HnVbxedBpFd/+t4F5nvMRP5/HBjbynLSKz6PaVl74HVnl0qrFl2gxWNC9wWZBdwabBd0XbBZ0WsVmQadVbBZ0WsVmQadVbBZ0WsVmkZNW8XnQyy2fB51W8XnQaRWfB51W8XnQaRWfB51W8XnQaRWfB51W8XnQaRXf/reBeZ6TVvF5bGAjz0mr+DyqbeWFX0VSLq1afFcJgwXdG2wWdGewWdB9wWZBp1VsFnRaxWZBp1VsFnRaxWZBp1VsFjlpFZ8HvdzyedBpFZ8HnVbxedBpFZ8HnVbxedBpFZ8HnVbxedBpFZ8HnVbx7X8bmOc5aRWfxwY28py0is+j2lZeWPG9XFq1KAnPYEH3BpsF3RlsFnRfsFnQaRWbBZ1WsVnQaRWbBZ1WsVnQaRWbRU5axedBL7d8HnRaxedBp1V8HnRaxedBp1V8HnRaxedBp1V8HnRaxedBp1V8+98G5nlOWsXnsYGNPCet4vOotpUXFtYtl1YtKu8yWNC9wWZBdwabBd0XbBZ0WsVmQadVbBZ0WsVmQadVbBZ0WsVmkZNW8XnQyy2fB51W8XnQaRWfB51W8XnQaRWfB51W8XnQaRWfB51W8XnQaRXf/reBeZ6TVvF5bGAjz0mr+DyqbeWF9QvLpVWLAocMFnRvsFnQncFmQfcFmwWdVrFZ0GkVmwWdVrFZ0GkVmwWdVrFZ5BZb4/Kgl1s+j7xCVlweeTWuuDzyyl9xeeTVfOPyyCsHx+WRVymOyyOviByXR159Oa79bwPzPLcqHZfHBjbynLSKz6N4K/9apsJrVrpZHAtf3i4LyKZ1Y2vRzaieVoAtLBW7rP8cyfhlMPOdqLbXrAvL2quLtvqttVeu3OxdgvFQ1tpxunYsR0E4P7lzo0X95If7L1FkOhE4Cx0ZfpqpcsalL1Qc86cc76UdzUK5wFAVmbN2X3OBb4QRRhhhhBFGGGGEEUYYYYQRRhhhhBFGGGGEEUYYYYQRRhhhhBFGGGGEEUYYYYQRRhhhhBFGGGGEEUYYYYQRRhhhhBFGGGGE/1PhuRncyDB0HfneVg/WWmZzxedV1aOx0dNHY89l6Mooe7zWqC8fIJ56QWx6ri8LH5GNvvecbvGTtZGZfvX8NPDs2A38BMqIYjlt9OUwCKVR7snnd3IkfefpDS1eq3WaddFWTy431YPM6ofhyWGswAqkl7Lm5UjGPT9W7ZNYDGf+ICWtbYu/CiSWhPLh6ovCZ7nV4Q5FLR67kRmlvVLOSB2PLjKT9uvZg3Htb2BdtSW+enQ8Yc90L6dB5CrBV8nLZe5meSiZ71CFwa0e0hLL9R2p5kPDqmtevTyuql44dKWnxlsta9PFPBmFwWwqHfHTT+KH7PU783JsR9nz72qCbT+Ozr8bTRrEtEejU+VhetIfxWPxQrTEb8I48TxDHD09I/Lcgaw1rO2L5tftwvn2zZ0EoahdJbfS/EVcJTbZUM181Ws/JyuOfgepQw3jTO/i6qt5Lefi+Ph40XjVFFPVrNuvdG91efRDaV9Xufhe8xrd81V7ZXd3rIa1GgzZSEkLOZiXdhS5I186XVUiIrpIW/JrtaZcdvR0Fo1rVfsi6dKjRX9Wn0med1TmLk11ZlWXKA6Da1nOZ3FuVadgag/ceF7OKju58l2lFkurqirLheTpslJlemgvPupYTuenC49oCEtXTWe6lWe9r6e7aqnz74tyCnXs7IiPXz6LP86+fBLnZ58+v/3wWrw7e/22K970PvXKCZwmq7a8s1WKJuJAREEYC382ScbBQKQlTSJhR4MkeXH9UQnFZdsrnUc7s10X/fKLSyjjWeiLqR1G8tQL7LhmqyV/O+nKR6/109dKNWZxivbINruFIuH79VZ6ecg/0+meTvbaliOH9syLxTQMkjVMbtXF1o8HB91ur7e15sIzwAEOcIADHOAABzjAAQ5wgPPfxBHRbJL8E1g4Ur0oHHuuiELpgAY0oAENaEADGtCABjSgAQ1o8mlu0z/N+gdN35tJ4AAHOMABDnCAAxzgAAc4wAFOFZyH7w201PcGns+o7w1sW+knbCcnu7uHhyAFKUhBClKQghSkIAUpSEEKUpCC9HmQtlJSO6ZImylpu91qHXRAClKQghSkIAUpSEEKUpCCFKQgBenzIG0r0tPQJUhbhympZe3vt9sgBSlIQQpSkIIUpCAFKUhBClKQgvR5kO4q0s/jGUV6kJIeJsfeS5CCFKQgBSlIQQpSkIIUpCAFKUhB+jxI9xTp79KhSPdT0levut39fZCCFKQgBSlIQQpSkIIUpCAFKUhB+jxIO+k7EzNJkXZS0m630wEpSEEKUpCCFKQgBSlIQQpSkIIUpM+FdF+Rvg+oyoKtvZT04KDV2tsDKUhBClKQghSkIAUpSEEKUpCCFKQbI12iOKF9WysUuzNjN/bk+dieSjOWd3Ft600wC6NijPm3V75yJ9KP3MD3ZJQqFEjs7IgTxxG2SJXErRuPRRRMpHDaBVdGNyPTnk6l79QM5W1sF1ywPEw7jsOacWfURaepedE8uahV/qIonntygdew/cE4CJPrDU8ONWgzjWHgx41b6Y7GsdLoB55TXmPRN+fTxvn7KA5CuS/O51GjLU69sGGJ88G40RVvPnqDSdzwgzDpgj8/iA+97kt1Wiwnoi0+nv8pzgYDde7Wdl6nvtiJBqE7jX8lz3mx47g33w+T19BiiZZwnWNjoEZ8N2kk2/VleNmxDJG23LHhuNHUs+dHru8loUbfCwbXvxg0XyK6uAURz6fJ9arxdq7sG3vxau6V6rixQzU4xbFw3MnUk6Yvb89vRjXjx28Z62K32Ux/FE42JevYsZ3oXvxleHZfesaR4cihPfNiMQ2DoetJo76IXN4ZR5bZrBs3tjeT2e8DtSYl1yTLTLfb6xn39VI6LSadNpPOLpPOHpNOh0lnn0nngEnnkEnHanIJcY1oi2tIW1xj2uIa1BbXqLa4hrXFNa4troFtcY3sFtfIbrGt1Vwju8U1sltaI1tEs8nkyZdUl9rRQuloyJBtpCdDtpCeDNk+ejLkvNeTIWe9ngw55/VkyBmvJ0POdz0ZeiPT1GEax/Q2pqnDNJLpTUxTh2ks01uYpg7TaKY3ME0dpvFMb1+aOlzrMtN4pvcuTZ3y4/nW9WP9bauvXiqvQzaPpg7ZPJo6ZPNo6pDTXVOHnO6aOuR019Qhp7umDjndNXXo/UtXiGtE0zuYrhDXmKb3MF0hrlFN72K6Qlzjmt7HdIW4Rja9k+kKsa3VXCOb3sx0hcqP7IdPLQq/VZja5ppP/qG3+NphBovW+i3a67fYXb/F3votOuu32F+/xcH6LQ7Xb/FkZ1+Xxwbmd84bs3we9DtbfB70m158HvQ7vXwe9JvAfB70+8N8HvRbx3we9LvKfPvfBuZ5axP7+AY28tYGdvJWta288Msby6VVi293ZLCge4PNgu4MNgu6L9gs6LSKzYJOq9gs6LSKzYJOq9gs6LSKzSLnk2s+D/qjPz4POq3i86DTKj4POq3i86DTKj4POq3i86DTKj4POq3i86DTKr79bwPzPOcjfj6PDWzkOWkVn0e1rbzwO7LKpVWLL9FisKB7g82C7gw2C7ov2CzotIrNgk6r2CzotIrNgk6r2CzotIrNIiet4vOgl1s+Dzqt4vOg0yo+Dzqt4vOg0yo+Dzqt4vOg0yo+Dzqt4vOg0yq+/W8D8zwnreLz2MBGnpNW8XlU28oLv4qkXFq1+K4SBgu6N9gs6M5gs6D7gs2CTqvYLOi0is2CTqvYLOi0is2CTqvYLHLSKj4Pernl86DTKj4POq3i86DTKj4POq3i86DTKj4POq3i86DTKj4POq3i2/82MM9z0io+jw1s5DlpFZ9Hta28sOJ7ubRqURKewYLuDTYLujPYLOi+YLOg0yo2CzqtYrOg0yo2CzqtYrOg0yo2i5y0is+DXm75POi0is+DTqv4POi0is+DTqv4POi0is+DTqv4POi0is+DTqv49r8NzPOctIrPYwMbeU5axedRbSsvLKxbLq1aVN5lsKB7g82C7gw2C7ov2CzotIrNgk6r2CzotIrNgk6r2CzotIrNIiet4vOgl1s+Dzqt4vOg0yo+Dzqt4vOg0yo+Dzqt4vOg0yo+Dzqt4vOg0yq+/W8D8zwnreLz2MBGnpNW8XlU28oL6xeWS6sWBQ4ZLOjeYLOgO4PNgu4LNgs6rWKzoNMqNgs6rWKzoNMqNgs6rWKzyC22xuVBL7d8HnmFrLg88mpccXnklb/i8sir+cblkVcOjssjr1Icl0deETkuj7z6clz73wbmeW5VOi6PDWzkOWkVn0fxVv61TIXXrHSzOBa+vF0WkE3rxtaim1E9rQBbWCp2Wf85kvHLYOY7UW2vWReWtVcXbfVba69cudm7BOOhrLXjdO1YjoJwfnLnRov6yQ/3X6LIdCJwFjoy/DRT5YxLX6g45k853ks7moVygaEqMmftvuYC3wgjjDDCCCOMMMIII4wwwggjjDDCCCOMMMIII4wwwggjjDDCCCOMMMIII4wwwggjjDDCCCOMMMIII4wwwggjjDDCCCOMMMII/6fCczO4kWHoOvK9rR6stczmis+rqkdjo6ePxp7L0JVR9nitUV8+QDz1gtj0XF8WPiIbfe853eInayMz/er5aeDZsRv4CZQRxXLa6MthEEqj3JPP7+RI+s7TG1q8Vus066KtnlxuqgeZ1Q/Dk8NYgRVIL2XNy5GMe36s2iexGM78QUpa2xZ/FUgsCeXD1ReFz3Krwx2KWjx2IzNKe6WckToeXWQm7dezB+Pa38C6akt89eh4wp7pXk6DyFWCr5KXy9zN8lAy36EKg1s9pCWW6ztSzYeGVde8enlcVb1w6EpPjbda1qaLeTIKg9lUOuKnn8QP2et35uXYjrLn39UE234cnX83mjSIaY9Gp8rD9KQ/isfihWiJ34Rx4nmGOHp6RuS5A1lrWNsXza/bhfPtmzsJQlG7Sm6l+Yu4SmyyoZr5qtd+TlYc/Q5ShxrGmd7F1VfzWs7F8fHxovGqKaaqWbdf6d7q8uiH0r6ucvG95jW656v2yu7uWA1rNRiykZIWcjAv7ShyR750uqpERHSRtuTXak257OjpLBrXqvZF0qVHi/6sPpM876jMXZrqzKouURwG17Kcz+Lcqk7B1B648bycVXZy5btKLZZWVVWWC8nTZaXK9NBefNSxnM5PFx7REJaums50K896X0931VLn3xflFOrY2REfv3wWf5x9+STOzz59fvvhtXh39vptV7zpfeqVEzhNVm15Z6sUTcSBiIIwFv5skoyDgUhLmkTCjgZJ8uL6oxKKy7ZXOo92Zrsu+uUXl1DGs9AXUzuM5KkX2HHNVkv+dtKVj17rp6+VasziFO2RbXYLRcL366308pB/ptM9ney1LUcO7ZkXi2kYJGuY3KqLrR8PDrrdXm9rzYVngAMc4AAHOMABDnCAAxzgAOe/iSOi2ST5J7BwpHpROPZcEYXSAQ1oQAMa0IAGNKABDWhAAxrQ5NPcpn+a9Q+avjeTwAEOcIADHOAABzjAAQ5wgAOcKjgP3xtoqe8NPJ9R3xvYttJP2E5OdncPD0EKUpCCFKQgBSlIQQpSkIIUpCAF6fMgbaWkdkyRNlPSdrvVOuiAFKQgBSlIQQpSkIIUpCAFKUhBCtLnQdpWpKehS5C2DlNSy9rfb7dBClKQghSkIAUpSEEKUpCCFKQgBenzIN1VpJ/HM4r0ICU9TI69lyAFKUhBClKQghSkIAUpSEEKUpCC9HmQ7inS36VDke6npK9edbv7+yAFKUhBClKQghSkIAUpSEEKUpCC9HmQdtJ3JmaSIu2kpN1upwNSkIIUpCAFKUhBClKQghSkIAUpSJ8L6b4ifR9QlQVbeynpwUGrtbcHUpCCFKQgBSlIQQpSkIIUpCAFKUg3RrpEcUL7tlYodmfGbuzJ87E9lWYs7+La1ptgFkbFGPNvr3zlTqQfuYHvyShVKJDY2REnjiNskSqJWzceiyiYSOG0C66MbkamPZ1K36kZytvYLrhgeZh2HIc1486oi05T86J5clGr/EVRPPfkAq9h+4NxECbXG54catBmGsPAjxu30h2NY6XRDzynvMaib86njfP3URyE8kCcz6NGW5x6YcMS54NxoyvefPQGk7gh7SgWf34QH3rdl+qsWE5EW3w8/1OcDQbq1K3tvD59sRMNQnca/0qe82LHcW++HyavocUSLeE6x8ZADfhu0ka268vwstMyRNpwx4bjRlPPnh+5vpeEGn0vGFz/YtB8iejiFkQ8nybXq7bbubJv7MWruVeq48YO1dgUx8JxJ1NPmr68Pb8Z1Ywfv2Wsi91mM/1RONeUrGPHdqJ78Zfh2X3pGUeGI4f2zIvFNAyGrieN+iJyeWccWWazbtzY3kwaR51D8/DRcXBYNwZqgUoUkjWn2+31jPt6KdXWWlTba1HdXYvq3lpUO2tR3V+L6sFaVA/Xomo11yO7ntllrWd6WeuZX9Z6Jpi1nhlmrWeKWeuZY9Z6Jpm1nlnWWs8sa61pD1vPLGutZ5a1VphlIppNJk++87tChhBKR0O0ZNvqiZZsWT3Rku2qJ1py7dITLbly6YmWXLf0REuuWnqiJdcsPdGyiYGm6lrmVNm0QFN1LbOqbFKgqbqWeVU2JdBUXcvMKpsQaKquZW6VTQc0VdezX61lbpXNBTRVq86tW9ePV00D+uqE8qolm1VTtWSzaqqWbFZN1ZJLlqZqySVLU7XkkqWpWnLJ0lQtuWRpqpbNB3Rl1zO7ymYEurLrmV9lcwJd2fXMsLJZga7seuZY2bxAV3Y9s6xsZqAru6Y9bD2zrGxyoCurNcu+lvnAIfsgURwLX94uP89IP8aoRTejevqBROEnF8tPIyMZvwxmvhPV9pp1YVl7ddFWv7X2yn36cZdgPHzI6jhdO5ajIJyf3LnR4tO8h6Yo8ZFnInAWOjL8NFMfrpW+UHHMn3K8l3Y0C+UCQ30+mHXBqh/ipp8jPbU6l6Eroww3cco6ZOoFsak+3Cq0jL5338WkkZmOu2ng2bEb+AmUEcVy2ujLYRBKo9xIeidH0nee3tDitVonGQVtNRLUh2GW+pF9Rlr48fFS1rwcybjnx6p9EovhzB+kpLVt8VeJD0kVoXy4+qJwbqjDHYpaPHajZFyr68oZqePRRWbSfj17MK79DayrtsTPPhvMdC+nQeQqwVfJy2XuZnkome9QhcGtHtISy/UdqSZuw6prXr08rqpeOHSlp8ZbLWvTxTwZhcFsKh3x00/ih+z1O/NybEfZeqIm2Pbj6Py70aRBTHs0OlUepif9UTwWL0RL/CaME88zxNHTMyLPHchaw9q+aH7dLpxv39xJEIraVXIrzV/EVWKTDdXMV73287Gw9DtIHWoYZ3oXV1/Na5ksb8fHi8arppiqZt1+pXury6MfSvu6ysX3mtfonq/aK7u7YzWs1WDIRkq6MZqXiz8Akk76J0DRRdqSX6s15bKjp7NoXKvaF0mXHi36s/pM8ryjMndpqjOrukRxGFzLcj6Lc6s6BVN74MbzclbZyZXvKrVYWlVVWS4kT5eVKtNDe/FRx3I6P114RENYumo6060863093VVLnX9flFOoY2dHfPzyWfxx9uWTOD/79Pnth9fi3dnrt13xpvepV07gNFm15Z2tUjQRByIKkkTan02ScTAQaYoYCTsaJMmL649KKC7bXuk82pntuuiXX1xCGc9CX0ztMJKnXmDHNVst+dtJVz56rZ++Vqoxi1O0R7bZLRQJ3/8Lf6j5jw9gs7/GVB+o/it/Nwoc4AAHOMABDnCAAxzgAAc4zx7n2z9wUUShdEADGtCABjSgAQ1oQAMa0IAGNPk03/xJoKJRf+IHHOAABzjAAQ5wgAMc4AAHOMD5F8sjfpaTqQzteBZKUTvdRoHE/6kCib/basS9kel/TiZ9V/qxUF2m6h5KZ5a0f0PsN0+fRwnE9jMogdjeWAnE9MHTqiWYmHTaTDq7TDp7TDodJp19Jp0DJp1DJp0ntQVWEuIa0RbXkLa4xrTFNagtrlFtcQ1ri2tcW1wD2+Ia2S2ukd1iW6u5RnaLa2S3tEZ2+ZJ9T6SqF+lbQYZsoeqF+FaQIed99WJ7K8iQc756Qb0VZMj5vkLRvFV0mMYxvY2tUApvFR2moUzvYSsUuFtFh2k00xvYCmXrVlkHmcYzvXutUIxuFR2m8UxvXdVLzD2RWaGo3Co6ZPOsUDhuFR1yuq9QHG4VHXK6r1AAbhUdcrqvUuRtJSGuEU3vYKuUbltJiGtQ05vYKgXZVhLiGtf0PrZKmbWVVkaukU1vZasUT1tJiGtk07sZSqI9i5JoCCOMMMIII4wwwggjjDDCCCOMMMII/y+F52ZwI8PQdeR7W71RZZlNlMR/dCcoif9woCS+1oGS+CiJr3GgJP4/D5TE/+eBkviaB0rioyT+dw+UxAcOcIADHOAABzjAAQ5wgAMc4DyHgpKgAQ1oQAMa0IAGNKABDWhA83xo/r8pZAkc4AAHOMABDnCAAxzgAAc41f3+hZL4r9yJ9CM38D0ZRSiI/79VED8Ir0VvOHQHrvQH84cy+JstgJ+d/Y/I4/9f/r7474N69svDf/qBM1f/HccT79f/938mj+wn"
               },
               {
                  "name" : "annual_peak_electric_demand",
                  "units" : "kW",
                  "value" : 76.835170000000005
               },
               {
                  "name" : "first_year_capital_cost",
                  "units" : "$",
                  "value" : 0
               },
               {
                  "name" : "annual_utility_cost",
                  "units" : "$",
                  "value" : 0
               },
               {
                  "name" : "total_lifecycle_cost",
                  "units" : "$",
                  "value" : 0
               }
            ],
            "step_warnings" : []
         }
      }
   ],
   "updated_at" : "20170710T184115Z",
   "weather_file" : "USA_CO_Denver.Intl.AP.725650_TMY3.epw"
}
