{
   "completed_at" : "20170710T193225Z",
   "completed_status" : "Success",
   "created_at" : "2017-07-10 19:25:05 +0000",
   "current_step" : 5,
   "description" : "",
   "eplusout_err" : "Program Version,EnergyPlus, Version 8.7.0-78a111df4a, YMD=2017.07.10 19:27,IDD_Version 8.7.0\n   ************* IDF Context for following error/warning message:\n   ************* Note -- lines truncated at 300 characters, if necessary...\n   *************      5 Building,\n   ************* indicated Name=NECB 2011-LargeHotel-NECB HDD Method-CAN_BC_Kamloops.718870_CWEC.epw created: 2017-07-10 19:25:11 +0000\n   ************* Only last 1 lines before error line shown.....\n   *************      6   NECB 2011-LargeHotel-NECB HDD Method-CAN_BC_Kamloops.718870_CWEC.epw created: 2017-07-10 19:25:11 +0000, !- Name\n   ** Warning ** IP: IDF line~6 Alpha Argument length exceeds maximum, will be truncated=  NECB 2011-LargeHotel-NECB HDD Method-CAN_BC_Kamloops.718870_CWEC.epw created: 2017-07-10 19:25:11 +000\n   **   ~~~   ** Will be processed as Alpha=NECB 2011-LARGEHOTEL-NECB HDD METHOD-CAN_BC_KAMLOOPS.718870_CWEC.EPW CREATED: 2017-07-10 19:25:11 +0000\n   ************* Beginning Zone Sizing Calculations\n   ** Warning ** ProcessScheduleInput: Schedule:Day:Interval=\"ECONOMIZER MAX OA FRACTION 100 PCT DEFAULT\", Blank Schedule Type Limits Name input -- will not be validated.\n   ** Warning ** ProcessScheduleInput: Schedule:Day:Interval=\"SCHEDULE DAY 1\", Blank Schedule Type Limits Name input -- will not be validated.\n   ** Warning ** ProcessScheduleInput: Schedule:Day:Interval=\"SCHEDULE DAY 10\", Blank Schedule Type Limits Name input -- will not be validated.\n   ** Warning ** ProcessScheduleInput: Schedule:Day:Interval=\"SCHEDULE DAY 11\", Blank Schedule Type Limits Name input -- will not be validated.\n   ** Warning ** ProcessScheduleInput: Schedule:Day:Interval=\"SCHEDULE DAY 12\", Blank Schedule Type Limits Name input -- will not be validated.\n   ** Warning ** ProcessScheduleInput: Schedule:Day:Interval=\"SCHEDULE DAY 13\", Blank Schedule Type Limits Name input -- will not be validated.\n   ** Warning ** ProcessScheduleInput: Schedule:Day:Interval=\"SCHEDULE DAY 14\", Blank Schedule Type Limits Name input -- will not be validated.\n   ** Warning ** ProcessScheduleInput: Schedule:Day:Interval=\"SCHEDULE DAY 15\", Blank Schedule Type Limits Name input -- will not be validated.\n   ** Warning ** ProcessScheduleInput: Schedule:Day:Interval=\"SCHEDULE DAY 16\", Blank Schedule Type Limits Name input -- will not be validated.\n   ** Warning ** ProcessScheduleInput: Schedule:Day:Interval=\"SCHEDULE DAY 17\", Blank Schedule Type Limits Name input -- will not be validated.\n   ** Warning ** ProcessScheduleInput: Schedule:Day:Interval=\"SCHEDULE DAY 18\", Blank Schedule Type Limits Name input -- will not be validated.\n   ** Warning ** ProcessScheduleInput: Schedule:Day:Interval=\"SCHEDULE DAY 19\", Blank Schedule Type Limits Name input -- will not be validated.\n   ** Warning ** ProcessScheduleInput: Schedule:Day:Interval=\"SCHEDULE DAY 2\", Blank Schedule Type Limits Name input -- will not be validated.\n   ** Warning ** ProcessScheduleInput: Schedule:Day:Interval=\"SCHEDULE DAY 20\", Blank Schedule Type Limits Name input -- will not be validated.\n   ** Warning ** ProcessScheduleInput: Schedule:Day:Interval=\"SCHEDULE DAY 21\", Blank Schedule Type Limits Name input -- will not be validated.\n   ** Warning ** ProcessScheduleInput: Schedule:Day:Interval=\"SCHEDULE DAY 22\", Blank Schedule Type Limits Name input -- will not be validated.\n   ** Warning ** ProcessScheduleInput: Schedule:Day:Interval=\"SCHEDULE DAY 23\", Blank Schedule Type Limits Name input -- will not be validated.\n   ** Warning ** ProcessScheduleInput: Schedule:Day:Interval=\"SCHEDULE DAY 24\", Blank Schedule Type Limits Name input -- will not be validated.\n   ** Warning ** ProcessScheduleInput: Schedule:Day:Interval=\"SCHEDULE DAY 25\", Blank Schedule Type Limits Name input -- will not be validated.\n   ** Warning ** ProcessScheduleInput: Schedule:Day:Interval=\"SCHEDULE DAY 26\", Blank Schedule Type Limits Name input -- will not be validated.\n   ** Warning ** ProcessScheduleInput: Schedule:Day:Interval=\"SCHEDULE DAY 27\", Blank Schedule Type Limits Name input -- will not be validated.\n   ** Warning ** ProcessScheduleInput: Schedule:Day:Interval=\"SCHEDULE DAY 28\", Blank Schedule Type Limits Name input -- will not be validated.\n   ** Warning ** ProcessScheduleInput: Schedule:Day:Interval=\"SCHEDULE DAY 29\", Blank Schedule Type Limits Name input -- will not be validated.\n   ** Warning ** ProcessScheduleInput: Schedule:Day:Interval=\"SCHEDULE DAY 30\", Blank Schedule Type Limits Name input -- will not be validated.\n   ** Warning ** ProcessScheduleInput: Schedule:Day:Interval=\"SCHEDULE DAY 31\", Blank Schedule Type Limits Name input -- will not be validated.\n   ** Warning ** ProcessScheduleInput: Schedule:Day:Interval=\"SCHEDULE DAY 32\", Blank Schedule Type Limits Name input -- will not be validated.\n   ** Warning ** ProcessScheduleInput: Schedule:Day:Interval=\"SCHEDULE DAY 33\", Blank Schedule Type Limits Name input -- will not be validated.\n   ** Warning ** ProcessScheduleInput: Schedule:Day:Interval=\"SCHEDULE DAY 34\", Blank Schedule Type Limits Name input -- will not be validated.\n   ** Warning ** ProcessScheduleInput: Schedule:Day:Interval=\"SCHEDULE DAY 35\", Blank Schedule Type Limits Name input -- will not be validated.\n   ** Warning ** ProcessScheduleInput: Schedule:Day:Interval=\"SCHEDULE DAY 36\", Blank Schedule Type Limits Name input -- will not be validated.\n   ** Warning ** ProcessScheduleInput: Schedule:Day:Interval=\"SCHEDULE DAY 37\", Blank Schedule Type Limits Name input -- will not be validated.\n   ** Warning ** ProcessScheduleInput: Schedule:Day:Interval=\"SCHEDULE DAY 38\", Blank Schedule Type Limits Name input -- will not be validated.\n   ** Warning ** ProcessScheduleInput: Schedule:Day:Interval=\"SCHEDULE DAY 39\", Blank Schedule Type Limits Name input -- will not be validated.\n   ** Warning ** ProcessScheduleInput: Schedule:Day:Interval=\"SCHEDULE DAY 40\", Blank Schedule Type Limits Name input -- will not be validated.\n   ** Warning ** ProcessScheduleInput: Schedule:Day:Interval=\"SCHEDULE DAY 41\", Blank Schedule Type Limits Name input -- will not be validated.\n   ** Warning ** ProcessScheduleInput: Schedule:Day:Interval=\"SCHEDULE DAY 42\", Blank Schedule Type Limits Name input -- will not be validated.\n   ** Warning ** ProcessScheduleInput: Schedule:Day:Interval=\"SCHEDULE DAY 43\", Blank Schedule Type Limits Name input -- will not be validated.\n   ** Warning ** ProcessScheduleInput: Schedule:Day:Interval=\"SCHEDULE DAY 44\", Blank Schedule Type Limits Name input -- will not be validated.\n   ** Warning ** ProcessScheduleInput: Schedule:Day:Interval=\"SCHEDULE DAY 45\", Blank Schedule Type Limits Name input -- will not be validated.\n   ** Warning ** ProcessScheduleInput: Schedule:Day:Interval=\"SCHEDULE DAY 46\", Blank Schedule Type Limits Name input -- will not be validated.\n   ** Warning ** ProcessScheduleInput: Schedule:Day:Interval=\"SCHEDULE DAY 47\", Blank Schedule Type Limits Name input -- will not be validated.\n   ** Warning ** ProcessScheduleInput: Schedule:Day:Interval=\"SCHEDULE DAY 48\", Blank Schedule Type Limits Name input -- will not be validated.\n   ** Warning ** ProcessScheduleInput: Schedule:Day:Interval=\"SCHEDULE DAY 49\", Blank Schedule Type Limits Name input -- will not be validated.\n   ** Warning ** ProcessScheduleInput: Schedule:Day:Interval=\"SCHEDULE DAY 50\", Blank Schedule Type Limits Name input -- will not be validated.\n   ** Warning ** ProcessScheduleInput: Schedule:Day:Interval=\"SCHEDULE DAY 51\", Blank Schedule Type Limits Name input -- will not be validated.\n   ** Warning ** ProcessScheduleInput: Schedule:Day:Interval=\"SCHEDULE DAY 52\", Blank Schedule Type Limits Name input -- will not be validated.\n   ** Warning ** ProcessScheduleInput: Schedule:Day:Interval=\"SCHEDULE DAY 53\", Blank Schedule Type Limits Name input -- will not be validated.\n   ** Warning ** ProcessScheduleInput: Schedule:Day:Interval=\"SCHEDULE DAY 54\", Blank Schedule Type Limits Name input -- will not be validated.\n   ** Warning ** ProcessScheduleInput: Schedule:Day:Interval=\"SCHEDULE DAY 55\", Blank Schedule Type Limits Name input -- will not be validated.\n   ** Warning ** ProcessScheduleInput: Schedule:Day:Interval=\"SCHEDULE DAY 56\", Blank Schedule Type Limits Name input -- will not be validated.\n   ** Warning ** ProcessScheduleInput: Schedule:Day:Interval=\"SCHEDULE DAY 57\", Blank Schedule Type Limits Name input -- will not be validated.\n   ** Warning ** ProcessScheduleInput: Schedule:Day:Interval=\"SCHEDULE DAY 58\", Blank Schedule Type Limits Name input -- will not be validated.\n   ** Warning ** ProcessScheduleInput: Schedule:Day:Interval=\"SCHEDULE DAY 59\", Blank Schedule Type Limits Name input -- will not be validated.\n   ** Warning ** ProcessScheduleInput: Schedule:Day:Interval=\"SCHEDULE DAY 60\", Blank Schedule Type Limits Name input -- will not be validated.\n   ** Warning ** ProcessScheduleInput: Schedule:Day:Interval=\"SCHEDULE DAY 61\", Blank Schedule Type Limits Name input -- will not be validated.\n   ** Warning ** ProcessScheduleInput: Schedule:Day:Interval=\"SCHEDULE DAY 62\", Blank Schedule Type Limits Name input -- will not be validated.\n   ** Warning ** ProcessScheduleInput: Schedule:Day:Interval=\"SCHEDULE DAY 63\", Blank Schedule Type Limits Name input -- will not be validated.\n   ** Warning ** ProcessScheduleInput: Schedule:Day:Interval=\"SCHEDULE DAY 64\", Blank Schedule Type Limits Name input -- will not be validated.\n   ** Warning ** ProcessScheduleInput: Schedule:Day:Interval=\"SCHEDULE DAY 65\", Blank Schedule Type Limits Name input -- will not be validated.\n   ** Warning ** ProcessScheduleInput: Schedule:Day:Interval=\"SCHEDULE DAY 66\", Blank Schedule Type Limits Name input -- will not be validated.\n   ** Warning ** ProcessScheduleInput: Schedule:Day:Interval=\"SCHEDULE DAY 67\", Blank Schedule Type Limits Name input -- will not be validated.\n   ** Warning ** ProcessScheduleInput: Schedule:Day:Interval=\"SCHEDULE DAY 68\", Blank Schedule Type Limits Name input -- will not be validated.\n   ** Warning ** ProcessScheduleInput: Schedule:Day:Interval=\"SCHEDULE DAY 69\", Blank Schedule Type Limits Name input -- will not be validated.\n   ** Warning ** ProcessScheduleInput: Schedule:Day:Interval=\"SCHEDULE DAY 70\", Blank Schedule Type Limits Name input -- will not be validated.\n   ** Warning ** ProcessScheduleInput: Schedule:Day:Interval=\"SCHEDULE DAY 71\", Blank Schedule Type Limits Name input -- will not be validated.\n   ** Warning ** ProcessScheduleInput: Schedule:Day:Interval=\"SCHEDULE DAY 72\", Blank Schedule Type Limits Name input -- will not be validated.\n   ** Warning ** ProcessScheduleInput: Schedule:Day:Interval=\"SCHEDULE DAY 73\", Blank Schedule Type Limits Name input -- will not be validated.\n   ** Warning ** ProcessScheduleInput: Schedule:Day:Interval=\"SCHEDULE DAY 74\", Blank Schedule Type Limits Name input -- will not be validated.\n   ** Warning ** ProcessScheduleInput: Schedule:Day:Interval=\"SCHEDULE DAY 75\", Blank Schedule Type Limits Name input -- will not be validated.\n   ** Warning ** ProcessScheduleInput: Schedule:Day:Interval=\"SCHEDULE DAY 76\", Blank Schedule Type Limits Name input -- will not be validated.\n   ** Warning ** ProcessScheduleInput: Schedule:Day:Interval=\"SCHEDULE DAY 77\", Blank Schedule Type Limits Name input -- will not be validated.\n   ** Warning ** ProcessScheduleInput: Schedule:Day:Interval=\"SCHEDULE DAY 78\", Blank Schedule Type Limits Name input -- will not be validated.\n   ** Warning ** ProcessScheduleInput: Schedule:Day:Interval=\"SCHEDULE DAY 8\", Blank Schedule Type Limits Name input -- will not be validated.\n   ** Warning ** ProcessScheduleInput: Schedule:Day:Interval=\"SCHEDULE DAY 9\", Blank Schedule Type Limits Name input -- will not be validated.\n   ** Warning ** ProcessScheduleInput: Schedule:Year=\"ECONOMIZER MAX OA FRACTION 100 PCT\", Blank Schedule Type Limits Name input -- will not be validated.\n   ** Warning ** ProcessScheduleInput: Schedule:Year=\"SCHEDULE RULESET 10\", Blank Schedule Type Limits Name input -- will not be validated.\n   ** Warning ** ProcessScheduleInput: Schedule:Year=\"SCHEDULE RULESET 11\", Blank Schedule Type Limits Name input -- will not be validated.\n   ** Warning ** ProcessScheduleInput: Schedule:Year=\"SCHEDULE RULESET 12\", Blank Schedule Type Limits Name input -- will not be validated.\n   ** Warning ** ProcessScheduleInput: Schedule:Year=\"SCHEDULE RULESET 13\", Blank Schedule Type Limits Name input -- will not be validated.\n   ** Warning ** ProcessScheduleInput: Schedule:Year=\"SCHEDULE RULESET 14\", Blank Schedule Type Limits Name input -- will not be validated.\n   ** Warning ** ProcessScheduleInput: Schedule:Year=\"SCHEDULE RULESET 15\", Blank Schedule Type Limits Name input -- will not be validated.\n   ** Warning ** ProcessScheduleInput: Schedule:Year=\"SCHEDULE RULESET 16\", Blank Schedule Type Limits Name input -- will not be validated.\n   ** Warning ** ProcessScheduleInput: Schedule:Year=\"SCHEDULE RULESET 17\", Blank Schedule Type Limits Name input -- will not be validated.\n   ** Warning ** ProcessScheduleInput: Schedule:Year=\"SCHEDULE RULESET 18\", Blank Schedule Type Limits Name input -- will not be validated.\n   ** Warning ** ProcessScheduleInput: Schedule:Year=\"SCHEDULE RULESET 19\", Blank Schedule Type Limits Name input -- will not be validated.\n   ** Warning ** ProcessScheduleInput: Schedule:Year=\"SCHEDULE RULESET 20\", Blank Schedule Type Limits Name input -- will not be validated.\n   ** Warning ** ProcessScheduleInput: Schedule:Year=\"SCHEDULE RULESET 21\", Blank Schedule Type Limits Name input -- will not be validated.\n   ** Warning ** ProcessScheduleInput: Schedule:Year=\"SCHEDULE RULESET 22\", Blank Schedule Type Limits Name input -- will not be validated.\n   ** Warning ** ProcessScheduleInput: Schedule:Year=\"SCHEDULE RULESET 23\", Blank Schedule Type Limits Name input -- will not be validated.\n   ** Warning ** ProcessScheduleInput: Schedule:Year=\"SCHEDULE RULESET 24\", Blank Schedule Type Limits Name input -- will not be validated.\n   ** Warning ** ProcessScheduleInput: Schedule:Year=\"SCHEDULE RULESET 25\", Blank Schedule Type Limits Name input -- will not be validated.\n   ** Warning ** ProcessScheduleInput: Schedule:Year=\"SCHEDULE RULESET 26\", Blank Schedule Type Limits Name input -- will not be validated.\n   ** Warning ** ProcessScheduleInput: Schedule:Year=\"SCHEDULE RULESET 27\", Blank Schedule Type Limits Name input -- will not be validated.\n   ** Warning ** ProcessScheduleInput: Schedule:Year=\"SCHEDULE RULESET 28\", Blank Schedule Type Limits Name input -- will not be validated.\n   ** Warning ** ProcessScheduleInput: Schedule:Year=\"SCHEDULE RULESET 29\", Blank Schedule Type Limits Name input -- will not be validated.\n   ** Warning ** ProcessScheduleInput: Schedule:Year=\"SCHEDULE RULESET 3\", Blank Schedule Type Limits Name input -- will not be validated.\n   ** Warning ** ProcessScheduleInput: Schedule:Year=\"SCHEDULE RULESET 30\", Blank Schedule Type Limits Name input -- will not be validated.\n   ** Warning ** ProcessScheduleInput: Schedule:Year=\"SCHEDULE RULESET 31\", Blank Schedule Type Limits Name input -- will not be validated.\n   ** Warning ** ProcessScheduleInput: Schedule:Year=\"SCHEDULE RULESET 32\", Blank Schedule Type Limits Name input -- will not be validated.\n   ** Warning ** ProcessScheduleInput: Schedule:Year=\"SCHEDULE RULESET 33\", Blank Schedule Type Limits Name input -- will not be validated.\n   ** Warning ** ProcessScheduleInput: Schedule:Year=\"SCHEDULE RULESET 34\", Blank Schedule Type Limits Name input -- will not be validated.\n   ** Warning ** ProcessScheduleInput: Schedule:Year=\"SCHEDULE RULESET 35\", Blank Schedule Type Limits Name input -- will not be validated.\n   ** Warning ** ProcessScheduleInput: Schedule:Year=\"SCHEDULE RULESET 36\", Blank Schedule Type Limits Name input -- will not be validated.\n   ** Warning ** ProcessScheduleInput: Schedule:Year=\"SCHEDULE RULESET 37\", Blank Schedule Type Limits Name input -- will not be validated.\n   ** Warning ** ProcessScheduleInput: Schedule:Year=\"SCHEDULE RULESET 38\", Blank Schedule Type Limits Name input -- will not be validated.\n   ** Warning ** ProcessScheduleInput: Schedule:Year=\"SCHEDULE RULESET 39\", Blank Schedule Type Limits Name input -- will not be validated.\n   ** Warning ** ProcessScheduleInput: Schedule:Year=\"SCHEDULE RULESET 4\", Blank Schedule Type Limits Name input -- will not be validated.\n   ** Warning ** ProcessScheduleInput: Schedule:Year=\"SCHEDULE RULESET 40\", Blank Schedule Type Limits Name input -- will not be validated.\n   ** Warning ** ProcessScheduleInput: Schedule:Year=\"SCHEDULE RULESET 41\", Blank Schedule Type Limits Name input -- will not be validated.\n   ** Warning ** ProcessScheduleInput: Schedule:Year=\"SCHEDULE RULESET 42\", Blank Schedule Type Limits Name input -- will not be validated.\n   ** Warning ** ProcessScheduleInput: Schedule:Year=\"SCHEDULE RULESET 43\", Blank Schedule Type Limits Name input -- will not be validated.\n   ** Warning ** ProcessScheduleInput: Schedule:Year=\"SCHEDULE RULESET 44\", Blank Schedule Type Limits Name input -- will not be validated.\n   ** Warning ** ProcessScheduleInput: Schedule:Year=\"SCHEDULE RULESET 45\", Blank Schedule Type Limits Name input -- will not be validated.\n   ** Warning ** ProcessScheduleInput: Schedule:Year=\"SCHEDULE RULESET 46\", Blank Schedule Type Limits Name input -- will not be validated.\n   ** Warning ** ProcessScheduleInput: Schedule:Year=\"SCHEDULE RULESET 47\", Blank Schedule Type Limits Name input -- will not be validated.\n   ** Warning ** ProcessScheduleInput: Schedule:Year=\"SCHEDULE RULESET 48\", Blank Schedule Type Limits Name input -- will not be validated.\n   ** Warning ** ProcessScheduleInput: Schedule:Year=\"SCHEDULE RULESET 49\", Blank Schedule Type Limits Name input -- will not be validated.\n   ** Warning ** ProcessScheduleInput: Schedule:Year=\"SCHEDULE RULESET 5\", Blank Schedule Type Limits Name input -- will not be validated.\n   ** Warning ** ProcessScheduleInput: Schedule:Year=\"SCHEDULE RULESET 50\", Blank Schedule Type Limits Name input -- will not be validated.\n   ** Warning ** ProcessScheduleInput: Schedule:Year=\"SCHEDULE RULESET 51\", Blank Schedule Type Limits Name input -- will not be validated.\n   ** Warning ** ProcessScheduleInput: Schedule:Year=\"SCHEDULE RULESET 52\", Blank Schedule Type Limits Name input -- will not be validated.\n   ** Warning ** ProcessScheduleInput: Schedule:Year=\"SCHEDULE RULESET 53\", Blank Schedule Type Limits Name input -- will not be validated.\n   ** Warning ** ProcessScheduleInput: Schedule:Year=\"SCHEDULE RULESET 54\", Blank Schedule Type Limits Name input -- will not be validated.\n   ** Warning ** ProcessScheduleInput: Schedule:Year=\"SCHEDULE RULESET 55\", Blank Schedule Type Limits Name input -- will not be validated.\n   ** Warning ** ProcessScheduleInput: Schedule:Year=\"SCHEDULE RULESET 56\", Blank Schedule Type Limits Name input -- will not be validated.\n   ** Warning ** ProcessScheduleInput: Schedule:Year=\"SCHEDULE RULESET 57\", Blank Schedule Type Limits Name input -- will not be validated.\n   ** Warning ** ProcessScheduleInput: Schedule:Year=\"SCHEDULE RULESET 58\", Blank Schedule Type Limits Name input -- will not be validated.\n   ** Warning ** ProcessScheduleInput: Schedule:Year=\"SCHEDULE RULESET 59\", Blank Schedule Type Limits Name input -- will not be validated.\n   ** Warning ** ProcessScheduleInput: Schedule:Year=\"SCHEDULE RULESET 6\", Blank Schedule Type Limits Name input -- will not be validated.\n   ** Warning ** ProcessScheduleInput: Schedule:Year=\"SCHEDULE RULESET 7\", Blank Schedule Type Limits Name input -- will not be validated.\n   ** Warning ** ProcessScheduleInput: Schedule:Year=\"SCHEDULE RULESET 8\", Blank Schedule Type Limits Name input -- will not be validated.\n   ** Warning ** ProcessScheduleInput: Schedule:Year=\"SCHEDULE RULESET 9\", Blank Schedule Type Limits Name input -- will not be validated.\n   ** Warning ** ProcessScheduleInput: Schedule:Constant=\"ALWAYS OFF DISCRETE\", Blank Schedule Type Limits Name input -- will not be validated.\n   ** Warning ** ProcessScheduleInput: Schedule:Constant=\"ALWAYS ON CONTINUOUS\", Blank Schedule Type Limits Name input -- will not be validated.\n   ** Warning ** CheckUsedConstructions: There are 23 nominally unused constructions in input.\n   **   ~~~   ** For explicit details on each unused construction, use Output:Diagnostics,DisplayExtraWarnings;\n   ** Warning ** GetInternalHeatGains: ElectricEquipment Combination of ZoneList and Object Name generate a name too long.\n   **   ~~~   ** Object Name=\"SPACE FUNCTION HOSPITAL - LAUNDRY/WASHING ELEC EQUIP\".\n   **   ~~~   ** ZoneList/Zone Name=\"SP-LAUNDRY_FLR_1 SYS-3 FLR-1 SCH-C HPLCMT-EAST ZN\".\n   **   ~~~   ** Item length=[101] > Maximum Length=[100]. You may need to shorten the names.\n   **   ~~~   ** Shortening the Object Name by [2] characters will assure uniqueness for this ZoneList.\n   **   ~~~   ** name that will be used (may be needed in reporting)=\"SP-LAUNDRY_FLR_1 SYS-3 FLR-1 SCH-C HPLCMT-EAST ZN SPACE FUNCTION HOSPITAL - LAUNDRY/WASHING ELEC EQUIP\".\n   ** Warning ** GetInternalHeatGains: ElectricEquipment Combination of ZoneList and Object Name generate a name too long.\n   **   ~~~   ** Object Name=\"SPACE FUNCTION HOTEL/MOTEL - ROOMS ELEC EQUIP\".\n   **   ~~~   ** ZoneList/Zone Name=\"SP-ROOM_3_MULT19_FLR_3 SYS-1 FLR-2 SCH-F HPLCMT-SOUTH ZN\".\n   **   ~~~   ** Item length=[101] > Maximum Length=[100]. You may need to shorten the names.\n   **   ~~~   ** Shortening the Object Name by [2] characters will assure uniqueness for this ZoneList.\n   **   ~~~   ** name that will be used (may be needed in reporting)=\"SP-ROOM_3_MULT19_FLR_3 SYS-1 FLR-2 SCH-F HPLCMT-SOUTH ZN SPACE FUNCTION HOTEL/MOTEL - ROOMS ELEC EQUIP\".\n   ** Warning ** GetInternalHeatGains: ElectricEquipment Combination of ZoneList and Object Name generate a name too long.\n   **   ~~~   ** Object Name=\"SPACE FUNCTION HOTEL/MOTEL - ROOMS ELEC EQUIP\".\n   **   ~~~   ** ZoneList/Zone Name=\"SP-ROOM_4_MULT19_FLR_3 SYS-1 FLR-2 SCH-F HPLCMT-NORTH ZN\".\n   **   ~~~   ** Item length=[101] > Maximum Length=[100]. You may need to shorten the names.\n   **   ~~~   ** Shortening the Object Name by [2] characters will assure uniqueness for this ZoneList.\n   **   ~~~   ** name that will be used (may be needed in reporting)=\"SP-ROOM_4_MULT19_FLR_3 SYS-1 FLR-2 SCH-F HPLCMT-NORTH ZN SPACE FUNCTION HOTEL/MOTEL - ROOMS ELEC EQUIP\".\n   ** Warning ** Calculated design heating load for zone=SP-BASEMENT SYS-4 FLR-3 SCH-E HPLCMT-NORTH ZN is zero.\n   **   ~~~   ** Check Sizing:Zone and ZoneControl:Thermostat inputs.\n   ** Warning ** Calculated design heating load for zone=SP-LOBBY_FLR_1 SYS-6 FLR-1 SCH-H HPLCMT-NORTH ZN is zero.\n   **   ~~~   ** Check Sizing:Zone and ZoneControl:Thermostat inputs.\n   ************* Beginning System Sizing Calculations\n   ** Warning ** Since Zone Minimum Air Flow Input Method = CONSTANT, input for Fixed Minimum Air Flow Rate will be ignored.\n   **   ~~~   ** Occurs in AirTerminal:SingleDuct:VAV:Reheat = AIR TERMINAL SINGLE DUCT VAV REHEAT 5\n   ** Warning ** Since Zone Minimum Air Flow Input Method = CONSTANT, input for Fixed Minimum Air Flow Rate will be ignored.\n   **   ~~~   ** Occurs in AirTerminal:SingleDuct:VAV:Reheat = AIR TERMINAL SINGLE DUCT VAV REHEAT 4\n   ** Warning ** Since Zone Minimum Air Flow Input Method = CONSTANT, input for Fixed Minimum Air Flow Rate will be ignored.\n   **   ~~~   ** Occurs in AirTerminal:SingleDuct:VAV:Reheat = AIR TERMINAL SINGLE DUCT VAV REHEAT 3\n   ** Warning ** Since Zone Minimum Air Flow Input Method = CONSTANT, input for Fixed Minimum Air Flow Rate will be ignored.\n   **   ~~~   ** Occurs in AirTerminal:SingleDuct:VAV:Reheat = AIR TERMINAL SINGLE DUCT VAV REHEAT 2\n   ** Warning ** Since Zone Minimum Air Flow Input Method = CONSTANT, input for Fixed Minimum Air Flow Rate will be ignored.\n   **   ~~~   ** Occurs in AirTerminal:SingleDuct:VAV:Reheat = AIR TERMINAL SINGLE DUCT VAV REHEAT 1\n   ** Warning ** GetDXCoils: Coil:Cooling:DX:SingleSpeed=\"COIL COOLING DX SINGLE SPEED 8 45KBTU/HR 9.3EER\", invalid\n   **   ~~~   ** ...Part Load Fraction Correlation Curve Name = DXCOOL-NECB2011-REF-COOLPLFFPLR 16 has out of range value.\n   **   ~~~   ** ...Curve maximum must be <= 1.0, curve max at PLR = 0.99 is 1.015\n   **   ~~~   ** ...Setting curve maximum to 1.0 and simulation continues.\n   ** Warning ** GetDXCoils: Coil:Cooling:DX:SingleSpeed=\"COIL COOLING DX SINGLE SPEED 5 18KBTU/HR 9.3EER\", invalid\n   **   ~~~   ** ...Part Load Fraction Correlation Curve Name = DXCOOL-NECB2011-REF-COOLPLFFPLR 13 has out of range value.\n   **   ~~~   ** ...Curve maximum must be <= 1.0, curve max at PLR = 0.99 is 1.015\n   **   ~~~   ** ...Setting curve maximum to 1.0 and simulation continues.\n   ** Warning ** GetDXCoils: Coil:Cooling:DX:SingleSpeed=\"COIL COOLING DX SINGLE SPEED 9 21KBTU/HR 9.3EER\", invalid\n   **   ~~~   ** ...Part Load Fraction Correlation Curve Name = DXCOOL-NECB2011-REF-COOLPLFFPLR 17 has out of range value.\n   **   ~~~   ** ...Curve maximum must be <= 1.0, curve max at PLR = 0.99 is 1.015\n   **   ~~~   ** ...Setting curve maximum to 1.0 and simulation continues.\n   ** Warning ** GetDXCoils: Coil:Cooling:DX:SingleSpeed=\"COIL COOLING DX SINGLE SPEED 6 17KBTU/HR 9.3EER\", invalid\n   **   ~~~   ** ...Part Load Fraction Correlation Curve Name = DXCOOL-NECB2011-REF-COOLPLFFPLR 14 has out of range value.\n   **   ~~~   ** ...Curve maximum must be <= 1.0, curve max at PLR = 0.99 is 1.015\n   **   ~~~   ** ...Setting curve maximum to 1.0 and simulation continues.\n   ** Warning ** GetDXCoils: Coil:Cooling:DX:SingleSpeed=\"COIL COOLING DX SINGLE SPEED 10 20KBTU/HR 9.3EER\", invalid\n   **   ~~~   ** ...Part Load Fraction Correlation Curve Name = DXCOOL-NECB2011-REF-COOLPLFFPLR 1 has out of range value.\n   **   ~~~   ** ...Curve maximum must be <= 1.0, curve max at PLR = 0.99 is 1.015\n   **   ~~~   ** ...Setting curve maximum to 1.0 and simulation continues.\n   ** Warning ** GetDXCoils: Coil:Cooling:DX:SingleSpeed=\"COIL COOLING DX SINGLE SPEED 7 5KBTU/HR 11.0EER\", invalid\n   **   ~~~   ** ...Part Load Fraction Correlation Curve Name = DXCOOL-NECB2011-REF-COOLPLFFPLR 15 has out of range value.\n   **   ~~~   ** ...Curve maximum must be <= 1.0, curve max at PLR = 0.99 is 1.015\n   **   ~~~   ** ...Setting curve maximum to 1.0 and simulation continues.\n   ** Warning ** GetDXCoils: Coil:Cooling:DX:SingleSpeed=\"COIL COOLING DX SINGLE SPEED 11 10KBTU/HR 10.4EER\", invalid\n   **   ~~~   ** ...Part Load Fraction Correlation Curve Name = DXCOOL-NECB2011-REF-COOLPLFFPLR 2 has out of range value.\n   **   ~~~   ** ...Curve maximum must be <= 1.0, curve max at PLR = 0.99 is 1.015\n   **   ~~~   ** ...Setting curve maximum to 1.0 and simulation continues.\n   ** Warning ** GetDXCoils: Coil:Cooling:DX:SingleSpeed=\"COIL COOLING DX SINGLE SPEED 2 2KBTU/HR 11.0EER\", invalid\n   **   ~~~   ** ...Part Load Fraction Correlation Curve Name = DXCOOL-NECB2011-REF-COOLPLFFPLR 10 has out of range value.\n   **   ~~~   ** ...Curve maximum must be <= 1.0, curve max at PLR = 0.99 is 1.015\n   **   ~~~   ** ...Setting curve maximum to 1.0 and simulation continues.\n   ** Warning ** GetDXCoils: Coil:Cooling:DX:SingleSpeed=\"COIL COOLING DX SINGLE SPEED 4 17KBTU/HR 9.3EER\", invalid\n   **   ~~~   ** ...Part Load Fraction Correlation Curve Name = DXCOOL-NECB2011-REF-COOLPLFFPLR 12 has out of range value.\n   **   ~~~   ** ...Curve maximum must be <= 1.0, curve max at PLR = 0.99 is 1.015\n   **   ~~~   ** ...Setting curve maximum to 1.0 and simulation continues.\n   ** Warning ** GetDXCoils: Coil:Cooling:DX:SingleSpeed=\"COIL COOLING DX SINGLE SPEED 3 17KBTU/HR 9.3EER\", invalid\n   **   ~~~   ** ...Part Load Fraction Correlation Curve Name = DXCOOL-NECB2011-REF-COOLPLFFPLR 11 has out of range value.\n   **   ~~~   ** ...Curve maximum must be <= 1.0, curve max at PLR = 0.99 is 1.015\n   **   ~~~   ** ...Setting curve maximum to 1.0 and simulation continues.\n   ** Warning ** GetDXCoils: Coil:Cooling:DX:SingleSpeed=\"COIL COOLING DX SINGLE SPEED 1 209KBTU/HR 9.7EER\", invalid\n   **   ~~~   ** ...Part Load Fraction Correlation Curve Name = DXCOOL-NECB2011-REF-COOLPLFFPLR has out of range value.\n   **   ~~~   ** ...Curve maximum must be <= 1.0, curve max at PLR = 0.99 is 1.015\n   **   ~~~   ** ...Setting curve maximum to 1.0 and simulation continues.\n   ** Warning ** GetDXCoils: Coil:Cooling:DX:SingleSpeed=\"COIL COOLING DX SINGLE SPEED 14 97KBTU/HR 9.7EER\", invalid\n   **   ~~~   ** ...Part Load Fraction Correlation Curve Name = DXCOOL-NECB2011-REF-COOLPLFFPLR 5 has out of range value.\n   **   ~~~   ** ...Curve maximum must be <= 1.0, curve max at PLR = 0.99 is 1.015\n   **   ~~~   ** ...Setting curve maximum to 1.0 and simulation continues.\n   ** Warning ** GetDXCoils: Coil:Cooling:DX:SingleSpeed=\"COIL COOLING DX SINGLE SPEED 18 85KBTU/HR 9.7EER\", invalid\n   **   ~~~   ** ...Part Load Fraction Correlation Curve Name = DXCOOL-NECB2011-REF-COOLPLFFPLR 9 has out of range value.\n   **   ~~~   ** ...Curve maximum must be <= 1.0, curve max at PLR = 0.99 is 1.015\n   **   ~~~   ** ...Setting curve maximum to 1.0 and simulation continues.\n   ** Warning ** GetDXCoils: Coil:Cooling:DX:SingleSpeed=\"COIL COOLING DX SINGLE SPEED 13 59KBTU/HR 14.0SEER\", invalid\n   **   ~~~   ** ...Part Load Fraction Correlation Curve Name = DXCOOL-NECB2011-REF-COOLPLFFPLR 4 has out of range value.\n   **   ~~~   ** ...Curve maximum must be <= 1.0, curve max at PLR = 0.99 is 1.015\n   **   ~~~   ** ...Setting curve maximum to 1.0 and simulation continues.\n   ** Warning ** GetDXCoils: Coil:Cooling:DX:SingleSpeed=\"COIL COOLING DX SINGLE SPEED 15 97KBTU/HR 9.7EER\", invalid\n   **   ~~~   ** ...Part Load Fraction Correlation Curve Name = DXCOOL-NECB2011-REF-COOLPLFFPLR 6 has out of range value.\n   **   ~~~   ** ...Curve maximum must be <= 1.0, curve max at PLR = 0.99 is 1.015\n   **   ~~~   ** ...Setting curve maximum to 1.0 and simulation continues.\n   ** Warning ** GetDXCoils: Coil:Cooling:DX:SingleSpeed=\"COIL COOLING DX SINGLE SPEED 16 60KBTU/HR 14.0SEER\", invalid\n   **   ~~~   ** ...Part Load Fraction Correlation Curve Name = DXCOOL-NECB2011-REF-COOLPLFFPLR 7 has out of range value.\n   **   ~~~   ** ...Curve maximum must be <= 1.0, curve max at PLR = 0.99 is 1.015\n   **   ~~~   ** ...Setting curve maximum to 1.0 and simulation continues.\n   ** Warning ** GetDXCoils: Coil:Cooling:DX:SingleSpeed=\"COIL COOLING DX SINGLE SPEED 12 17KBTU/HR 14.0SEER\", invalid\n   **   ~~~   ** ...Part Load Fraction Correlation Curve Name = DXCOOL-NECB2011-REF-COOLPLFFPLR 3 has out of range value.\n   **   ~~~   ** ...Curve maximum must be <= 1.0, curve max at PLR = 0.99 is 1.015\n   **   ~~~   ** ...Setting curve maximum to 1.0 and simulation continues.\n   ** Warning ** GetDXCoils: Coil:Cooling:DX:SingleSpeed=\"COIL COOLING DX SINGLE SPEED 17 6KBTU/HR 14.0SEER\", invalid\n   **   ~~~   ** ...Part Load Fraction Correlation Curve Name = DXCOOL-NECB2011-REF-COOLPLFFPLR 8 has out of range value.\n   **   ~~~   ** ...Curve maximum must be <= 1.0, curve max at PLR = 0.99 is 1.015\n   **   ~~~   ** ...Setting curve maximum to 1.0 and simulation continues.\n   ************* Beginning Plant Sizing Calculations\n   ** Warning ** The Standard Ratings is calculated for Coil:Cooling:DX:SingleSpeed = COIL COOLING DX SINGLE SPEED 8 45KBTU/HR 9.3EER but not at the AHRI test condition due to curve out of bound.\n   **   ~~~   **  Review the Standard Ratings calculations in the Engineering Reference for this coil type. Also, use Output:Diagnostics, DisplayExtraWarnings for further guidance.\n   ** Warning ** The Standard Ratings is calculated for Coil:Cooling:DX:SingleSpeed = COIL COOLING DX SINGLE SPEED 5 18KBTU/HR 9.3EER but not at the AHRI test condition due to curve out of bound.\n   **   ~~~   **  Review the Standard Ratings calculations in the Engineering Reference for this coil type. Also, use Output:Diagnostics, DisplayExtraWarnings for further guidance.\n   ** Warning ** The Standard Ratings is calculated for Coil:Cooling:DX:SingleSpeed = COIL COOLING DX SINGLE SPEED 9 21KBTU/HR 9.3EER but not at the AHRI test condition due to curve out of bound.\n   **   ~~~   **  Review the Standard Ratings calculations in the Engineering Reference for this coil type. Also, use Output:Diagnostics, DisplayExtraWarnings for further guidance.\n   ** Warning ** The Standard Ratings is calculated for Coil:Cooling:DX:SingleSpeed = COIL COOLING DX SINGLE SPEED 6 17KBTU/HR 9.3EER but not at the AHRI test condition due to curve out of bound.\n   **   ~~~   **  Review the Standard Ratings calculations in the Engineering Reference for this coil type. Also, use Output:Diagnostics, DisplayExtraWarnings for further guidance.\n   ** Warning ** The Standard Ratings is calculated for Coil:Cooling:DX:SingleSpeed = COIL COOLING DX SINGLE SPEED 10 20KBTU/HR 9.3EER but not at the AHRI test condition due to curve out of bound.\n   **   ~~~   **  Review the Standard Ratings calculations in the Engineering Reference for this coil type. Also, use Output:Diagnostics, DisplayExtraWarnings for further guidance.\n   ** Warning ** The Standard Ratings is calculated for Coil:Cooling:DX:SingleSpeed = COIL COOLING DX SINGLE SPEED 7 5KBTU/HR 11.0EER but not at the AHRI test condition due to curve out of bound.\n   **   ~~~   **  Review the Standard Ratings calculations in the Engineering Reference for this coil type. Also, use Output:Diagnostics, DisplayExtraWarnings for further guidance.\n   ** Warning ** The Standard Ratings is calculated for Coil:Cooling:DX:SingleSpeed = COIL COOLING DX SINGLE SPEED 11 10KBTU/HR 10.4EER but not at the AHRI test condition due to curve out of bound.\n   **   ~~~   **  Review the Standard Ratings calculations in the Engineering Reference for this coil type. Also, use Output:Diagnostics, DisplayExtraWarnings for further guidance.\n   ** Warning ** The Standard Ratings is calculated for Coil:Cooling:DX:SingleSpeed = COIL COOLING DX SINGLE SPEED 2 2KBTU/HR 11.0EER but not at the AHRI test condition due to curve out of bound.\n   **   ~~~   **  Review the Standard Ratings calculations in the Engineering Reference for this coil type. Also, use Output:Diagnostics, DisplayExtraWarnings for further guidance.\n   ** Warning ** The Standard Ratings is calculated for Coil:Cooling:DX:SingleSpeed = COIL COOLING DX SINGLE SPEED 4 17KBTU/HR 9.3EER but not at the AHRI test condition due to curve out of bound.\n   **   ~~~   **  Review the Standard Ratings calculations in the Engineering Reference for this coil type. Also, use Output:Diagnostics, DisplayExtraWarnings for further guidance.\n   ** Warning ** The Standard Ratings is calculated for Coil:Cooling:DX:SingleSpeed = COIL COOLING DX SINGLE SPEED 3 17KBTU/HR 9.3EER but not at the AHRI test condition due to curve out of bound.\n   **   ~~~   **  Review the Standard Ratings calculations in the Engineering Reference for this coil type. Also, use Output:Diagnostics, DisplayExtraWarnings for further guidance.\n   ** Warning ** The Standard Ratings is calculated for Coil:Cooling:DX:SingleSpeed = COIL COOLING DX SINGLE SPEED 1 209KBTU/HR 9.7EER but not at the AHRI test condition due to curve out of bound.\n   **   ~~~   **  Review the Standard Ratings calculations in the Engineering Reference for this coil type. Also, use Output:Diagnostics, DisplayExtraWarnings for further guidance.\n   ** Warning ** The Standard Ratings is calculated for Coil:Cooling:DX:SingleSpeed = COIL COOLING DX SINGLE SPEED 14 97KBTU/HR 9.7EER but not at the AHRI test condition due to curve out of bound.\n   **   ~~~   **  Review the Standard Ratings calculations in the Engineering Reference for this coil type. Also, use Output:Diagnostics, DisplayExtraWarnings for further guidance.\n   ** Warning ** The Standard Ratings is calculated for Coil:Cooling:DX:SingleSpeed = COIL COOLING DX SINGLE SPEED 18 85KBTU/HR 9.7EER but not at the AHRI test condition due to curve out of bound.\n   **   ~~~   **  Review the Standard Ratings calculations in the Engineering Reference for this coil type. Also, use Output:Diagnostics, DisplayExtraWarnings for further guidance.\n   ** Warning ** The Standard Ratings is calculated for Coil:Cooling:DX:SingleSpeed = COIL COOLING DX SINGLE SPEED 13 59KBTU/HR 14.0SEER but not at the AHRI test condition due to curve out of bound.\n   **   ~~~   **  Review the Standard Ratings calculations in the Engineering Reference for this coil type. Also, use Output:Diagnostics, DisplayExtraWarnings for further guidance.\n   ** Warning ** The Standard Ratings is calculated for Coil:Cooling:DX:SingleSpeed = COIL COOLING DX SINGLE SPEED 15 97KBTU/HR 9.7EER but not at the AHRI test condition due to curve out of bound.\n   **   ~~~   **  Review the Standard Ratings calculations in the Engineering Reference for this coil type. Also, use Output:Diagnostics, DisplayExtraWarnings for further guidance.\n   ** Warning ** The Standard Ratings is calculated for Coil:Cooling:DX:SingleSpeed = COIL COOLING DX SINGLE SPEED 16 60KBTU/HR 14.0SEER but not at the AHRI test condition due to curve out of bound.\n   **   ~~~   **  Review the Standard Ratings calculations in the Engineering Reference for this coil type. Also, use Output:Diagnostics, DisplayExtraWarnings for further guidance.\n   ** Warning ** The Standard Ratings is calculated for Coil:Cooling:DX:SingleSpeed = COIL COOLING DX SINGLE SPEED 12 17KBTU/HR 14.0SEER but not at the AHRI test condition due to curve out of bound.\n   **   ~~~   **  Review the Standard Ratings calculations in the Engineering Reference for this coil type. Also, use Output:Diagnostics, DisplayExtraWarnings for further guidance.\n   ** Warning ** The Standard Ratings is calculated for Coil:Cooling:DX:SingleSpeed = COIL COOLING DX SINGLE SPEED 17 6KBTU/HR 14.0SEER but not at the AHRI test condition due to curve out of bound.\n   **   ~~~   **  Review the Standard Ratings calculations in the Engineering Reference for this coil type. Also, use Output:Diagnostics, DisplayExtraWarnings for further guidance.\n   ** Warning ** SizeWaterCoil: Coil=\"COIL COOLING WATER 1\", Cooling Coil has leaving humidity ratio > entering humidity ratio.\n   **   ~~~   **     Wair,in =  8.226732E-003\n   **   ~~~   **     Wair,out = 8.743952E-003\n   **   ~~~   ** ....coil leaving humidity ratio will be reset to:\n   **   ~~~   **     Wair,out = 8.226732E-003\n   ** Warning ** Missing temperature setpoint for LeavingSetpointModulated mode chiller named PRIMARY CHILLER WATERCOOLED SCROLL 30TONS 0.8KW/TON\n   **   ~~~   **   A temperature setpoint is needed at the outlet node of a chiller in variable flow mode, use a SetpointManager\n   **   ~~~   **   The overall loop setpoint will be assumed for chiller. The simulation continues ... \n   ** Warning ** Missing temperature setpoint for LeavingSetpointModulated mode chiller named SECONDARY CHILLER WATERCOOLED SCROLL 0TONS 0.8KW/TON\n   **   ~~~   **   A temperature setpoint is needed at the outlet node of a chiller in variable flow mode, use a SetpointManager\n   **   ~~~   **   The overall loop setpoint will be assumed for chiller. The simulation continues ... \n   ** Warning ** Missing temperature setpoint for LeavingSetpointModulated mode Boiler named PRIMARY BOILER 2340KBTU/HR 0.83 THERMAL EFF\n   **   ~~~   **   A temperature setpoint is needed at the outlet node of a boiler in variable flow mode, use a SetpointManager\n   **   ~~~   **   The overall loop setpoint will be assumed for Boiler. The simulation continues ... \n   ** Warning ** Output:Meter: invalid Name=\"DISTRICTCOOLING:FACILITY\" - not found.\n   ** Warning ** Output:Meter: invalid Name=\"DISTRICTHEATING:FACILITY\" - not found.\n   ** Warning ** Output:Meter:MeterFileOnly requested for \"Electricity:Facility\" (TimeStep), already on \"Output:Meter\". Will report to both eplusout.eso and eplusout.mtr\n   ************* Testing Individual Branch Integrity\n   ************* All Branches passed integrity testing\n   ************* Testing Individual Supply Air Path Integrity\n   ************* All Supply Air Paths passed integrity testing\n   ************* Testing Individual Return Air Path Integrity\n   ************* All Return Air Paths passed integrity testing\n   ************* No node connection errors were found.\n   ************* Beginning Simulation\n   ** Warning ** CalcDoe2DXCoil: Coil:Cooling:DX:SingleSpeed \"COIL COOLING DX SINGLE SPEED 16 60KBTU/HR 14.0SEER\" - Air-cooled condenser inlet dry-bulb temperature below 0 C. Outdoor dry-bulb temperature = -9.83\n   **   ~~~   **  ... Occurrence info = RUN PERIOD 1, 01/01 01:02 - 01:03\n   **   ~~~   ** ... Operation at low ambient temperatures may require special performance curves.\n   ** Warning ** CalcDoe2DXCoil: Coil:Cooling:DX:SingleSpeed \"COIL COOLING DX SINGLE SPEED 13 59KBTU/HR 14.0SEER\" - Air-cooled condenser inlet dry-bulb temperature below 0 C. Outdoor dry-bulb temperature = -9.50\n   **   ~~~   **  ... Occurrence info = RUN PERIOD 1, 01/02 07:02 - 07:04\n   **   ~~~   ** ... Operation at low ambient temperatures may require special performance curves.\n   ** Warning ** CalcDoe2DXCoil: Coil:Cooling:DX:SingleSpeed \"COIL COOLING DX SINGLE SPEED 17 6KBTU/HR 14.0SEER\" - Air-cooled condenser inlet dry-bulb temperature below 0 C. Outdoor dry-bulb temperature = -7.55\n   **   ~~~   **  ... Occurrence info = RUN PERIOD 1, 01/06 19:15 - 19:19\n   **   ~~~   ** ... Operation at low ambient temperatures may require special performance curves.\n   ** Warning ** CalcDoe2DXCoil: Coil:Cooling:DX:SingleSpeed \"COIL COOLING DX SINGLE SPEED 17 6KBTU/HR 14.0SEER\" - Full load outlet air dry-bulb temperature < 2C. This indicates the possibility of coil frost/freeze. Outlet temperature = -2.95 C.\n   **   ~~~   **  ...Occurrence info = RUN PERIOD 1, 01/06 19:15 - 19:19\n   **   ~~~   ** ... Possible reasons for low outlet air dry-bulb temperatures are: This DX coil\n   **   ~~~   **    1) may have a low inlet air dry-bulb temperature. Inlet air temperature = 12.008 C.\n   **   ~~~   **    2) may have a low air flow rate per watt of cooling capacity. Check inputs.\n   **   ~~~   **    3) is used as part of a HX assisted cooling coil which uses a high sensible effectiveness. Check inputs.\n   ** Warning ** CalcDoe2DXCoil: Coil:Cooling:DX:SingleSpeed \"COIL COOLING DX SINGLE SPEED 11 10KBTU/HR 10.4EER\" - Air-cooled condenser inlet dry-bulb temperature below 0 C. Outdoor dry-bulb temperature = -8.70\n   **   ~~~   **  ... Occurrence info = RUN PERIOD 1, 01/10 09:45 - 09:50\n   **   ~~~   ** ... Operation at low ambient temperatures may require special performance curves.\n   ** Warning ** CalcDoe2DXCoil: Coil:Cooling:DX:SingleSpeed \"COIL COOLING DX SINGLE SPEED 7 5KBTU/HR 11.0EER\" - Air-cooled condenser inlet dry-bulb temperature below 0 C. Outdoor dry-bulb temperature = -8.43\n   **   ~~~   **  ... Occurrence info = RUN PERIOD 1, 01/10 10:04 - 10:08\n   **   ~~~   ** ... Operation at low ambient temperatures may require special performance curves.\n   ** Warning ** CalcDoe2DXCoil: Coil:Cooling:DX:SingleSpeed \"COIL COOLING DX SINGLE SPEED 4 17KBTU/HR 9.3EER\" - Air-cooled condenser inlet dry-bulb temperature below 0 C. Outdoor dry-bulb temperature = -7.88\n   **   ~~~   **  ... Occurrence info = RUN PERIOD 1, 01/10 10:30 - 10:38\n   **   ~~~   ** ... Operation at low ambient temperatures may require special performance curves.\n   ** Warning ** CalcDoe2DXCoil: Coil:Cooling:DX:SingleSpeed \"COIL COOLING DX SINGLE SPEED 5 18KBTU/HR 9.3EER\" - Air-cooled condenser inlet dry-bulb temperature below 0 C. Outdoor dry-bulb temperature = -5.28\n   **   ~~~   **  ... Occurrence info = RUN PERIOD 1, 01/10 11:30 - 11:45\n   **   ~~~   ** ... Operation at low ambient temperatures may require special performance curves.\n   ** Warning ** CalcDoe2DXCoil: Coil:Cooling:DX:SingleSpeed \"COIL COOLING DX SINGLE SPEED 9 21KBTU/HR 9.3EER\" - Air-cooled condenser inlet dry-bulb temperature below 0 C. Outdoor dry-bulb temperature = -5.28\n   **   ~~~   **  ... Occurrence info = RUN PERIOD 1, 01/10 11:30 - 11:45\n   **   ~~~   ** ... Operation at low ambient temperatures may require special performance curves.\n   ** Warning ** CalcDoe2DXCoil: Coil:Cooling:DX:SingleSpeed \"COIL COOLING DX SINGLE SPEED 10 20KBTU/HR 9.3EER\" - Air-cooled condenser inlet dry-bulb temperature below 0 C. Outdoor dry-bulb temperature = -3.70\n   **   ~~~   **  ... Occurrence info = RUN PERIOD 1, 01/10 14:53 - 15:00\n   **   ~~~   ** ... Operation at low ambient temperatures may require special performance curves.\n   ** Warning ** CalcDoe2DXCoil: Coil:Cooling:DX:SingleSpeed \"COIL COOLING DX SINGLE SPEED 6 17KBTU/HR 9.3EER\" - Air-cooled condenser inlet dry-bulb temperature below 0 C. Outdoor dry-bulb temperature = -4.18\n   **   ~~~   **  ... Occurrence info = RUN PERIOD 1, 01/10 15:00 - 15:15\n   **   ~~~   ** ... Operation at low ambient temperatures may require special performance curves.\n   ** Warning ** CalcDoe2DXCoil: Coil:Cooling:DX:SingleSpeed \"COIL COOLING DX SINGLE SPEED 18 85KBTU/HR 9.7EER\" - Full load outlet air dry-bulb temperature < 2C. This indicates the possibility of coil frost/freeze. Outlet temperature = -1.78 C.\n   **   ~~~   **  ...Occurrence info = RUN PERIOD 1, 01/28 15:45 - 15:52\n   **   ~~~   ** ... Possible reasons for low outlet air dry-bulb temperatures are: This DX coil\n   **   ~~~   **    1) may have a low inlet air dry-bulb temperature. Inlet air temperature = 12.100 C.\n   **   ~~~   **    2) may have a low air flow rate per watt of cooling capacity. Check inputs.\n   **   ~~~   **    3) is used as part of a HX assisted cooling coil which uses a high sensible effectiveness. Check inputs.\n   ** Warning ** SimHVAC: Maximum iterations (20) exceeded for all HVAC loops, at RUN PERIOD 1, 01/30 10:00 - 10:05\n   **   ~~~   ** The solution for one or more of the Air Loop HVAC systems did not appear to converge\n   **   ~~~   ** ...use Output:Diagnostics,DisplayExtraWarnings; to show more details on each max iteration exceeded.\n   ** Warning ** SimHVAC: Maximum iterations (20) exceeded for all HVAC loops, at RUN PERIOD 1, 01/30 10:10 - 10:15\n   **   ~~~   ** The solution for one or more of the Air Loop HVAC systems did not appear to converge\n   ** Warning ** SimHVAC: Maximum iterations (20) exceeded for all HVAC loops, at RUN PERIOD 1, 01/31 09:35 - 09:40\n   **   ~~~   ** The solution for one or more of the Air Loop HVAC systems did not appear to converge\n   ** Warning ** SimHVAC: Maximum iterations (20) exceeded for all HVAC loops, at RUN PERIOD 1, 01/31 09:40 - 09:45\n   **   ~~~   ** The solution for one or more of the Air Loop HVAC systems did not appear to converge\n   ** Warning ** SimHVAC: Maximum iterations (20) exceeded for all HVAC loops, at RUN PERIOD 1, 01/31 09:53 - 10:00\n   **   ~~~   ** The solution for one or more of the Air Loop HVAC systems did not appear to converge\n   ** Warning ** SimHVAC: Maximum iterations (20) exceeded for all HVAC loops, at RUN PERIOD 1, 01/31 11:00 - 11:15\n   **   ~~~   ** The solution for one or more of the Air Loop HVAC systems did not appear to converge\n   ** Warning ** SimHVAC: Maximum iterations (20) exceeded for all HVAC loops, at RUN PERIOD 1, 02/07 09:23 - 09:26\n   **   ~~~   ** The solution for one or more of the Air Loop HVAC systems did not appear to converge\n   ** Warning ** CalcDoe2DXCoil: Coil:Cooling:DX:SingleSpeed \"COIL COOLING DX SINGLE SPEED 3 17KBTU/HR 9.3EER\" - Air-cooled condenser inlet dry-bulb temperature below 0 C. Outdoor dry-bulb temperature = -9.75\n   **   ~~~   **  ... Occurrence info = RUN PERIOD 1, 02/07 10:25 - 10:30\n   **   ~~~   ** ... Operation at low ambient temperatures may require special performance curves.\n   ** Warning ** SimHVAC: Maximum iterations (20) exceeded for all HVAC loops, at RUN PERIOD 1, 02/08 09:23 - 09:26\n   **   ~~~   ** The solution for one or more of the Air Loop HVAC systems did not appear to converge\n   ** Warning ** CalcDoe2DXCoil: Coil:Cooling:DX:SingleSpeed \"COIL COOLING DX SINGLE SPEED 2 2KBTU/HR 11.0EER\" - Air-cooled condenser inlet dry-bulb temperature below 0 C. Outdoor dry-bulb temperature = -1.40\n   **   ~~~   **  ... Occurrence info = RUN PERIOD 1, 02/16 20:15 - 20:30\n   **   ~~~   ** ... Operation at low ambient temperatures may require special performance curves.\n   ** Warning ** CalcDoe2DXCoil: Coil:Cooling:DX:SingleSpeed \"COIL COOLING DX SINGLE SPEED 2 2KBTU/HR 11.0EER\" - Full load outlet air dry-bulb temperature < 2C. This indicates the possibility of coil frost/freeze. Outlet temperature = 1.84 C.\n   **   ~~~   **  ...Occurrence info = RUN PERIOD 1, 02/16 20:15 - 20:30\n   **   ~~~   ** ... Possible reasons for low outlet air dry-bulb temperatures are: This DX coil\n   **   ~~~   **    1) may have a low inlet air dry-bulb temperature. Inlet air temperature = 14.927 C.\n   **   ~~~   **    2) may have a low air flow rate per watt of cooling capacity. Check inputs.\n   **   ~~~   **    3) is used as part of a HX assisted cooling coil which uses a high sensible effectiveness. Check inputs.\n   ** Warning ** CalcDoe2DXCoil: Coil:Cooling:DX:SingleSpeed \"COIL COOLING DX SINGLE SPEED 8 45KBTU/HR 9.3EER\" - Air-cooled condenser inlet dry-bulb temperature below 0 C. Outdoor dry-bulb temperature = -0.15\n   **   ~~~   **  ... Occurrence info = RUN PERIOD 1, 02/17 18:00 - 18:08\n   **   ~~~   ** ... Operation at low ambient temperatures may require special performance curves.\n   ** Warning ** CalcDoe2DXCoil: Coil:Cooling:DX:SingleSpeed \"COIL COOLING DX SINGLE SPEED 12 17KBTU/HR 14.0SEER\" - Full load outlet air dry-bulb temperature < 2C. This indicates the possibility of coil frost/freeze. Outlet temperature = -1.04 C.\n   **   ~~~   **  ...Occurrence info = RUN PERIOD 1, 03/21 13:30 - 13:45\n   **   ~~~   ** ... Possible reasons for low outlet air dry-bulb temperatures are: This DX coil\n   **   ~~~   **    1) may have a low inlet air dry-bulb temperature. Inlet air temperature = 16.820 C.\n   **   ~~~   **    2) may have a low air flow rate per watt of cooling capacity. Check inputs.\n   **   ~~~   **    3) is used as part of a HX assisted cooling coil which uses a high sensible effectiveness. Check inputs.\n   ** Warning ** CalcDoe2DXCoil: Coil:Cooling:DX:SingleSpeed \"COIL COOLING DX SINGLE SPEED 14 97KBTU/HR 9.7EER\" - Full load outlet air dry-bulb temperature < 2C. This indicates the possibility of coil frost/freeze. Outlet temperature = 1.62 C.\n   **   ~~~   **  ...Occurrence info = RUN PERIOD 1, 04/01 12:15 - 12:30\n   **   ~~~   ** ... Possible reasons for low outlet air dry-bulb temperatures are: This DX coil\n   **   ~~~   **    1) may have a low inlet air dry-bulb temperature. Inlet air temperature = 19.450 C.\n   **   ~~~   **    2) may have a low air flow rate per watt of cooling capacity. Check inputs.\n   **   ~~~   **    3) is used as part of a HX assisted cooling coil which uses a high sensible effectiveness. Check inputs.\n   ** Warning ** CalcDoe2DXCoil: Coil:Cooling:DX:SingleSpeed \"COIL COOLING DX SINGLE SPEED 15 97KBTU/HR 9.7EER\" - Full load outlet air dry-bulb temperature < 2C. This indicates the possibility of coil frost/freeze. Outlet temperature = 1.62 C.\n   **   ~~~   **  ...Occurrence info = RUN PERIOD 1, 04/01 12:15 - 12:30\n   **   ~~~   ** ... Possible reasons for low outlet air dry-bulb temperatures are: This DX coil\n   **   ~~~   **    1) may have a low inlet air dry-bulb temperature. Inlet air temperature = 19.450 C.\n   **   ~~~   **    2) may have a low air flow rate per watt of cooling capacity. Check inputs.\n   **   ~~~   **    3) is used as part of a HX assisted cooling coil which uses a high sensible effectiveness. Check inputs.\n   ** Warning ** CalcDoe2DXCoil: Coil:Cooling:DX:SingleSpeed \"COIL COOLING DX SINGLE SPEED 1 209KBTU/HR 9.7EER\" - Full load outlet air dry-bulb temperature < 2C. This indicates the possibility of coil frost/freeze. Outlet temperature = 1.91 C.\n   **   ~~~   **  ...Occurrence info = RUN PERIOD 1, 04/07 16:15 - 16:30\n   **   ~~~   ** ... Possible reasons for low outlet air dry-bulb temperatures are: This DX coil\n   **   ~~~   **    1) may have a low inlet air dry-bulb temperature. Inlet air temperature = 18.750 C.\n   **   ~~~   **    2) may have a low air flow rate per watt of cooling capacity. Check inputs.\n   **   ~~~   **    3) is used as part of a HX assisted cooling coil which uses a high sensible effectiveness. Check inputs.\n   ** Warning ** SimHVAC: Maximum iterations (20) exceeded for all HVAC loops, at RUN PERIOD 1, 07/01 12:45 - 13:00\n   **   ~~~   ** The solution for one or more of the Air Loop HVAC systems did not appear to converge\n   ** Warning ** SimHVAC: Maximum iterations (20) exceeded for all HVAC loops, at RUN PERIOD 1, 07/01 13:04 - 13:06\n   **   ~~~   ** The solution for one or more of the Air Loop HVAC systems did not appear to converge\n   ** Warning ** SimHVAC: Maximum iterations (20) exceeded for all HVAC loops, at RUN PERIOD 1, 07/01 13:15 - 13:20\n   **   ~~~   ** The solution for one or more of the Air Loop HVAC systems did not appear to converge\n   ** Warning ** SimHVAC: Maximum iterations (20) exceeded for all HVAC loops, at RUN PERIOD 1, 07/01 13:20 - 13:25\n   **   ~~~   ** The solution for one or more of the Air Loop HVAC systems did not appear to converge\n   ** Warning ** SimHVAC: Maximum iterations (20) exceeded for all HVAC loops, at RUN PERIOD 1, 12/07 09:45 - 10:00\n   **   ~~~   ** The solution for one or more of the Air Loop HVAC systems did not appear to converge\n   ************* Simulation Error Summary *************\n   ************* There are 9 unused schedules in input.\n   ************* There are 9 unused week schedules in input.\n   ************* There are 35 unused day schedules in input.\n   ************* Use Output:Diagnostics,DisplayUnusedSchedules; to see them.\n   *************\n   ************* ===== Recurring Error Summary =====\n   ************* The following recurring error messages occurred.\n   *************\n   *************  ** Warning ** CalcDoe2DXCoil: Coil:Cooling:DX:SingleSpeed=\"COIL COOLING DX SINGLE SPEED 16 60KBTU/HR 14.0SEER\" - Low condenser dry-bulb temperature error continues...\n   *************  **   ~~~   **   This error occurred 355 total times;\n   *************  **   ~~~   **   during Warmup 0 times;\n   *************  **   ~~~   **   during Sizing 0 times.\n   *************  **   ~~~   **   Max=-0.15 [C]  Min=-23.25 [C]\n   *************\n   *************  ** Warning ** CalcDoe2DXCoil: Coil:Cooling:DX:SingleSpeed=\"COIL COOLING DX SINGLE SPEED 13 59KBTU/HR 14.0SEER\" - Low condenser dry-bulb temperature error continues...\n   *************  **   ~~~   **   This error occurred 193 total times;\n   *************  **   ~~~   **   during Warmup 0 times;\n   *************  **   ~~~   **   during Sizing 0 times.\n   *************  **   ~~~   **   Max=-0.225 [C]  Min=-23.475 [C]\n   *************\n   *************  ** Warning ** CalcDoe2DXCoil: Coil:Cooling:DX:SingleSpeed=\"COIL COOLING DX SINGLE SPEED 17 6KBTU/HR 14.0SEER\" - Low condenser dry-bulb temperature error continues...\n   *************  **   ~~~   **   This error occurred 129 total times;\n   *************  **   ~~~   **   during Warmup 0 times;\n   *************  **   ~~~   **   during Sizing 0 times.\n   *************  **   ~~~   **   Max=-0.3 [C]  Min=-8.85 [C]\n   *************\n   *************  ** Warning ** CalcDoe2DXCoil: Coil:Cooling:DX:SingleSpeed=\"COIL COOLING DX SINGLE SPEED 17 6KBTU/HR 14.0SEER\" - Full load outlet temperature indicates a possibility of frost/freeze error continues. Outlet air temperature statistics follow:\n   *************  **   ~~~   **   This error occurred 234 total times;\n   *************  **   ~~~   **   during Warmup 0 times;\n   *************  **   ~~~   **   during Sizing 0 times.\n   *************  **   ~~~   **   Max=1.986653  Min=-3.228996\n   *************\n   *************  ** Warning ** CalcDoe2DXCoil: Coil:Cooling:DX:SingleSpeed=\"COIL COOLING DX SINGLE SPEED 11 10KBTU/HR 10.4EER\" - Low condenser dry-bulb temperature error continues...\n   *************  **   ~~~   **   This error occurred 1208 total times;\n   *************  **   ~~~   **   during Warmup 0 times;\n   *************  **   ~~~   **   during Sizing 0 times.\n   *************  **   ~~~   **   Max=-2.500000E-002 [C]  Min=-21.675 [C]\n   *************\n   *************  ** Warning ** CalcDoe2DXCoil: Coil:Cooling:DX:SingleSpeed=\"COIL COOLING DX SINGLE SPEED 7 5KBTU/HR 11.0EER\" - Low condenser dry-bulb temperature error continues...\n   *************  **   ~~~   **   This error occurred 3256 total times;\n   *************  **   ~~~   **   during Warmup 0 times;\n   *************  **   ~~~   **   during Sizing 0 times.\n   *************  **   ~~~   **   Max=-2.500000E-002 [C]  Min=-21.7 [C]\n   *************\n   *************  ** Warning ** CalcDoe2DXCoil: Coil:Cooling:DX:SingleSpeed=\"COIL COOLING DX SINGLE SPEED 4 17KBTU/HR 9.3EER\" - Low condenser dry-bulb temperature error continues...\n   *************  **   ~~~   **   This error occurred 864 total times;\n   *************  **   ~~~   **   during Warmup 0 times;\n   *************  **   ~~~   **   during Sizing 0 times.\n   *************  **   ~~~   **   Max=-2.500000E-002 [C]  Min=-20.7 [C]\n   *************\n   *************  ** Warning ** CalcDoe2DXCoil: Coil:Cooling:DX:SingleSpeed=\"COIL COOLING DX SINGLE SPEED 5 18KBTU/HR 9.3EER\" - Low condenser dry-bulb temperature error continues...\n   *************  **   ~~~   **   This error occurred 672 total times;\n   *************  **   ~~~   **   during Warmup 0 times;\n   *************  **   ~~~   **   during Sizing 0 times.\n   *************  **   ~~~   **   Max=-2.500000E-002 [C]  Min=-20. [C]\n   *************\n   *************  ** Warning ** CalcDoe2DXCoil: Coil:Cooling:DX:SingleSpeed=\"COIL COOLING DX SINGLE SPEED 9 21KBTU/HR 9.3EER\" - Low condenser dry-bulb temperature error continues...\n   *************  **   ~~~   **   This error occurred 510 total times;\n   *************  **   ~~~   **   during Warmup 0 times;\n   *************  **   ~~~   **   during Sizing 0 times.\n   *************  **   ~~~   **   Max=-2.500000E-002 [C]  Min=-19.2 [C]\n   *************\n   *************  ** Warning ** CalcDoe2DXCoil: Coil:Cooling:DX:SingleSpeed=\"COIL COOLING DX SINGLE SPEED 10 20KBTU/HR 9.3EER\" - Low condenser dry-bulb temperature error continues...\n   *************  **   ~~~   **   This error occurred 155 total times;\n   *************  **   ~~~   **   during Warmup 0 times;\n   *************  **   ~~~   **   during Sizing 0 times.\n   *************  **   ~~~   **   Max=-5.000000E-002 [C]  Min=-11.95 [C]\n   *************\n   *************  ** Warning ** CalcDoe2DXCoil: Coil:Cooling:DX:SingleSpeed=\"COIL COOLING DX SINGLE SPEED 6 17KBTU/HR 9.3EER\" - Low condenser dry-bulb temperature error continues...\n   *************  **   ~~~   **   This error occurred 180 total times;\n   *************  **   ~~~   **   during Warmup 0 times;\n   *************  **   ~~~   **   during Sizing 0 times.\n   *************  **   ~~~   **   Max=-5.000000E-002 [C]  Min=-11.95 [C]\n   *************\n   *************  ** Warning ** CalcDoe2DXCoil: Coil:Cooling:DX:SingleSpeed=\"COIL COOLING DX SINGLE SPEED 18 85KBTU/HR 9.7EER\" - Full load outlet temperature indicates a possibility of frost/freeze error continues. Outlet air temperature statistics follow:\n   *************  **   ~~~   **   This error occurred 121 total times;\n   *************  **   ~~~   **   during Warmup 0 times;\n   *************  **   ~~~   **   during Sizing 0 times.\n   *************  **   ~~~   **   Max=1.993067  Min=-1.78421\n   *************\n   *************  ** Warning ** CalcDoe2DXCoil: Coil:Cooling:DX:SingleSpeed=\"COIL COOLING DX SINGLE SPEED 3 17KBTU/HR 9.3EER\" - Low condenser dry-bulb temperature error continues...\n   *************  **   ~~~   **   This error occurred 193 total times;\n   *************  **   ~~~   **   during Warmup 0 times;\n   *************  **   ~~~   **   during Sizing 0 times.\n   *************  **   ~~~   **   Max=-0.15 [C]  Min=-9.75 [C]\n   *************\n   *************  ** Warning ** CalcDoe2DXCoil: Coil:Cooling:DX:SingleSpeed=\"COIL COOLING DX SINGLE SPEED 2 2KBTU/HR 11.0EER\" - Low condenser dry-bulb temperature error continues...\n   *************  **   ~~~   **   This error occurred 122 total times;\n   *************  **   ~~~   **   during Warmup 0 times;\n   *************  **   ~~~   **   during Sizing 0 times.\n   *************  **   ~~~   **   Max=-5.000000E-002 [C]  Min=-4.275 [C]\n   *************\n   *************  ** Warning ** CalcDoe2DXCoil: Coil:Cooling:DX:SingleSpeed=\"COIL COOLING DX SINGLE SPEED 2 2KBTU/HR 11.0EER\" - Full load outlet temperature indicates a possibility of frost/freeze error continues. Outlet air temperature statistics follow:\n   *************  **   ~~~   **   This error occurred 86 total times;\n   *************  **   ~~~   **   during Warmup 0 times;\n   *************  **   ~~~   **   during Sizing 0 times.\n   *************  **   ~~~   **   Max=1.973623  Min=0.90527\n   *************\n   *************  ** Warning ** CalcDoe2DXCoil: Coil:Cooling:DX:SingleSpeed=\"COIL COOLING DX SINGLE SPEED 8 45KBTU/HR 9.3EER\" - Low condenser dry-bulb temperature error continues...\n   *************  **   ~~~   **   This error occurred 4 total times;\n   *************  **   ~~~   **   during Warmup 0 times;\n   *************  **   ~~~   **   during Sizing 0 times.\n   *************  **   ~~~   **   Max=-0.15 [C]  Min=-0.3 [C]\n   *************\n   *************  ** Warning ** CalcDoe2DXCoil: Coil:Cooling:DX:SingleSpeed=\"COIL COOLING DX SINGLE SPEED 12 17KBTU/HR 14.0SEER\" - Full load outlet temperature indicates a possibility of frost/freeze error continues. Outlet air temperature statistics follow:\n   *************  **   ~~~   **   This error occurred 985 total times;\n   *************  **   ~~~   **   during Warmup 0 times;\n   *************  **   ~~~   **   during Sizing 0 times.\n   *************  **   ~~~   **   Max=1.997913  Min=-5.518655\n   *************\n   *************  ** Warning ** CalcDoe2DXCoil: Coil:Cooling:DX:SingleSpeed=\"COIL COOLING DX SINGLE SPEED 14 97KBTU/HR 9.7EER\" - Full load outlet temperature indicates a possibility of frost/freeze error continues. Outlet air temperature statistics follow:\n   *************  **   ~~~   **   This error occurred 256 total times;\n   *************  **   ~~~   **   during Warmup 0 times;\n   *************  **   ~~~   **   during Sizing 0 times.\n   *************  **   ~~~   **   Max=1.984157  Min=-1.587929\n   *************\n   *************  ** Warning ** CalcDoe2DXCoil: Coil:Cooling:DX:SingleSpeed=\"COIL COOLING DX SINGLE SPEED 15 97KBTU/HR 9.7EER\" - Full load outlet temperature indicates a possibility of frost/freeze error continues. Outlet air temperature statistics follow:\n   *************  **   ~~~   **   This error occurred 304 total times;\n   *************  **   ~~~   **   during Warmup 0 times;\n   *************  **   ~~~   **   during Sizing 0 times.\n   *************  **   ~~~   **   Max=1.984157  Min=-1.772671\n   *************\n   *************  ** Warning ** CalcDoe2DXCoil: Coil:Cooling:DX:SingleSpeed=\"COIL COOLING DX SINGLE SPEED 1 209KBTU/HR 9.7EER\" - Full load outlet temperature indicates a possibility of frost/freeze error continues. Outlet air temperature statistics follow:\n   *************  **   ~~~   **   This error occurred 12 total times;\n   *************  **   ~~~   **   during Warmup 0 times;\n   *************  **   ~~~   **   during Sizing 0 times.\n   *************  **   ~~~   **   Max=1.988337  Min=1.912406\n   *************\n   *************\n   ************* ===== Final Error Summary =====\n   ************* The following error categories occurred.  Consider correcting or noting.\n   ************* Nominally Unused Constructions\n   ************* ..The nominally unused constructions warning is provided to alert you to potential conditions that can cause\n   ************* ..extra time during simulation. Each construction is calculated by the algorithm indicated in the HeatBalanceAlgorithm\n   ************* ..object. You may remove the constructions indicated (when you use the DisplayExtraWarnings option).\n   *************\n   ************* EnergyPlus Warmup Error Summary. During Warmup: 0 Warning; 0 Severe Errors.\n   ************* EnergyPlus Sizing Error Summary. During Sizing: 163 Warning; 0 Severe Errors.\n   ************* EnergyPlus Completed Successfully-- 10041 Warning; 0 Severe Errors; Elapsed Time=00hr 04min 35.82sec\n",
   "file_format_version" : "0.0.1",
   "file_paths" : [ "../weather", "../seeds", "../seed" ],
   "hash" : "83D94E66",
   "measure_paths" : [ "../measures" ],
   "name" : "LHS Autogenerated 958",
   "osa_id" : "4fef0e0f-5396-4c55-a6e1-2cd6803db3ab",
   "osd_id" : "8d531ef0-b2ef-4421-a7bb-d08ea347e30a",
   "run_directory" : "./run",
   "seed_file" : "seed.osm",
   "started_at" : "20170710T192508Z",
   "steps" : [
      {
         "arguments" : {
            "__SKIP__" : false,
            "building_type" : "LargeHotel",
            "climate_zone" : "NECB HDD Method",
            "epw_file" : "CAN_BC_Kamloops.718870_CWEC.epw",
            "template" : "NECB 2011"
         },
         "measure_dir_name" : "create_prototype_building",
         "name" : "create_prototype_building",
         "result" : {
            "completed_at" : "20170710T192650Z",
            "measure_class_name" : "CreatePrototypeBuilding",
            "measure_display_name" : "Create Prototype Building",
            "measure_name" : "create_prototype_building",
            "measure_taxonomy" : "Whole Building.Space Types",
            "measure_type" : "ModelMeasure",
            "measure_uid" : "ae90fsd7-a651-467a-bc8d-29d310b0f937",
            "measure_version_id" : "c6ec5c18-5595-459f-a082-09a19c8c869c",
            "measure_version_modified" : "20170519T182315Z",
            "measure_xml_checksum" : "057E8D9D",
            "started_at" : "20170710T192510Z",
            "stderr" : "",
[...]
XlVssreqqLBeS1WWlzvSovPiYYzmdVxcetaucqmpVplt51s+dfFct9fzP63oKczx9qn797Z3695vf3qrTN2/f/fTLD+rnNz/8dKx+PHl7Uk7gVbZq61vPtGgqjVQSxamazK6yOhipPNIkUV4yypqXYDIuobi89kbnwc7sddR5+cUl1uksnqipFyf6VRh5adszS/5OdisfPHaeP1bqYq5v0R7YLl7COuHPm016ue8/8+meT/b2E19feLMwVdM4ytYw/aSjnnxzcHB8fHLyZMPBM8QhDnGIQxziEIc4xCEOcYjz58RRyewq+yew8rV5UPnenSGKtU8a0pCGNKQhDWlIQxrSkIY0pCmmucn/NOsPNOfhTBOHOMQhDnGIQxziEIc4xCEOcerg3H9voGO+N/B0Jn1vYN/J32F7/nxv7/CQpCQlKUlJSlKSkpSkJCUpSUlKUpJuB6mbk3qpRNrLSft91z0YkpSkJCUpSUlKUpKSlKQkJSlJSUrS7SDtG9JXcSCQuoc5qePs7/f7JCUpSUlKUpKSlKQkJSlJSUpSkpJ0O0j3DOm7y5lEepCTHmbH4AVJSUpSkpKUpCQlKUlJSlKSkpSkJN0O0oEh/Zf2JdL9nPTly+Pj/X2SkpSkJCUpSUlKUpKSlKQkJSlJSbodpMP8NxMzLZEOc9Lj4+GQpCQlKUlJSlKSkpSkJCUpSUlKUpJuC+m+IX0dScmC7iAnPThw3cGApCQlKUlJSlKSkpSkJCUpSUlKUpI2RrpE8WPvpr1W7LabBmmoTy+9qe6m+jZtP/kxmsXJeoy7L898GVzpSRJEk1AnucIaiadP1XPfV57KldRNkF6qJLrSyu+vOTO5Hne96VRP/HbLeLd21pywPLpemsbt1m2ro4a9iifdZSe55U9K0rtQz/F2vcnoMoqz81uhvqhAu9C4iCbp7o0Oxpep0TiPQr+8xvzenE53X3iJzm5Qqk7vkt099SqMd/vqdHS5e6J+/DUcXaW7kyjObsF/flG/nBy/ME9L9ZXaU7+e/ke9GY3Mc5/sFN3U758moziYpv8Qn/P9Uz+4/vqweI4slmmpwD9qjUzFH2cXyQsmOj5znF5L5ZfuqOUHyTT07p4FkzAb2z0Po9Gn71oyYKY6fw0qvZtm55ur9/Sjd+3NHy080xzXXmyqUx0pP7iahro70Ten1+N265uvQHbUXq+X/2ftdDO6vpd6mfD731uhd67D1rOWry+8WZiqaRxdBKFudeYjZ7etZ06312lde+FML34emVUpOydbaI6PT05anzuldFyQTh+kswfSGYB0hiCdfZDOAUjnEKTj9FBCqIp2UCXtoGraQRW1g6pqB1XWDqquHVRhO6jKdlGV7cLWalRlu6jKditVtkpmV1crX1NdakeLtV9BRrxG1WTEK1RNRrw+1WTEeV9NRpz11WTEOV9NRpzx1WTE+V5NRt7IKuqA6ljexirqgCpZ3sQq6oBqWd7CKuqAqlnewCrqgOpZ3r4q6qDWZVA9y3tXRZ3y9XwTTNLq29a5eai8jnh5KuqIl6eijnh5KuqI072ijjjdK+qI072ijjjdK+qI072ijrx/VRVCVbS8g1UVQtW0vIdVFUJVtbyLVRVC1bW8j1UVQlW2vJNVFYKt1ajKljezqkLlK/v+fYu13yssbXO9lX/ozb94GGDhbt6iv3mLvc1bDDZvMdy8xf7mLQ42b3G4eYuVnX1THg3Mb6eBCe40MMOdBqa408AcdxqY5E4Ds9xpYJo7Dcxzt4F57jaxjzcwz90G5rlbb56v/frGcm3V/PsdARby3YBZyDcDZiHfC5iFvOTCLOQVF2YhL7gwC3m9hVnIyy3MouCda5yH/NYfzkN+VxDnIb9hiPNoYIoXtFU4jwYmeUFbhfNoYJoXtFW4/U9uq3AeTezjDWzkBW0VzqPePF/7LVnl2qr512gBLOS7AbOQbwbMQr4XMAt5yYVZyCsuzEJecGEW8noLs5D/NgpmUdBW4TzktgrnIbdVOA+5rcJ5yH+ihfOQ/y4R5yH/ySLOQ/5rRpyH/IeOOI8G5nlBW4XzaGIfb2AjL2ircB71tvK1X0ZSrq2af1sJwEK+GzAL+WbALOR7AbOQ2yqYhdxWwSzktgpmIbdVMAt5uYVZFLRVOA+5rcJ5yG0VzkNuq3AecluF85DbKpyH3FbhPOS2Cucht1U4jwbmeUFbhfNoYh9vYCMvaKtwHvW28rWZ7+XaqnkoPMBCvhswC/lmwCzkewGzkNsqmIXcVsEs5LYKZiG3VTALebmFWRS0VTgPua3CechtFc5DbqtwHnJbhfOQ2yqch9xW4TzktgrnIbdVOI8G5nlBW4XzaGIfb2AjL2ircB71tvK10brl2qp59i7AQr4bMAv5ZsAs5HsBs5DbKpiF3FbBLOS2CmYht1UwC3m5hVkUtFU4D7mtwnnIbRXOQ26rcB5yW4XzkNsqnIfcVuE85LYK5yG3VTiPBuZ5QVuF82hiH29gIy9oq3Ae9bbytQmG5dqqecQhwEK+GzAL+WbALOR7AbOQ2yqYhdxWwSzktgpmIbdVMIui3CmQRWHYGsqjKK0K5VEUZIXyKMq4QnkUxV+hPIoy31AeRXFwKI+ipDiUR1GIHMqjgXle0FbhPJrYxxvYyAvaKpzH+q38Q5mE10V4szpSE32zTJDNg2PbyfW4kyfAro2KXSZAJzp9Ec0mftIe9DrKcQYd1Tc/uYNycbO3GcZ9sLXvH3upHkfx3fPbIJknKN+//hIx05nAm9jX8duZCTQufaLhuFvleK29ZBbrOYbJZF5c9w1HfHOYwxzmMIc5zGEOc5jDHOYwhznMYQ5zmMMc5jCHOcxhDnOYwxzmMIc5zGEOc5jDHOYwhznMYQ5zmMMc5jCHOcxhDnOYwxzmMIc5zGEOc/hPNXzXja51HAe+fu2ZD9Y63Z7l51XNR2OT1Y/Gnuo40Mni47WtzvIDxNMwSrthMNFrPyKbfO1zuus/WZt086+en0ahlwbRJINqJame7p7riyjWrXKffP5Zj/XEX31B88faw15H9c0nl3vmg8zmP61QX6QGbI30UrZ7NtbpySQ11yezuJhNRjlpe0f9vkZiSajvz36/9rPc5gguVDu9DJJukt+VckbmeHBSN7t+J97osv1f4KpqS3zz0fGMfaF7No2SwAi+zB4u82qWh5H5ClUc3VRDWmIFE1+b+bDrdCqevTw+1j3xItChqbf24prO58k4jmZT7atvv1V/Wzx+2z279JLF59/NBNt5OHr31dHsgnS98fiV8eiGejJOL9X3ylX/VK3nYdhSz1afkYTBSLd3nZ33vQ87a+fbF68kilX7Y/ZSet+pj5nNolQXvuaxv2crTvUbZA5Txgu99x8/dD/pO3V0dDS/ePUUc9XFbf9Y9aUuj/NYe5/qnPy54jlVn2+u1+LVHZmyNsWwqJQ8yKF75iVJMJ5o/9hERCTv8yv5od6lXN7o6Sy5bNe9F9ktfTa/n/VnUhg+K/Mqu+aZdV2SNI4+6XI+8+fWdYqm3ihI78pZLZ5c+1XlFkuruirLhWR1WakzPSovPuZYTufVhUftKqeqWpXpVp71cyffVUs9//O6nsIcT5+qX397p/795re36vTN23c//fKD+vnNDz8dqx9P3p6UE3iVrdr61jMtmkojlURxqiazq6wORiqPNEmUl4yy5iWYjEsoLq+90XmwM3sddV5+cYl1OosnaurFiX4VRl7a9sySv5PdygePneePlbqY61u0B7aLl7BO+PNmk17u+898uueTvf3E1xfeLEzVNI6yNUw/6agn3xwcHB+fnDzZcPAMcYhDHOIQhzjEIQ5xiEMc4vw5cVQyu8r+Cax8bR5UvndniGLtk4Y0pCENaUhDGtKQhjSkIQ1pimlu8j/N+gPNeTjTxCEOcYhDHOIQhzjEIQ5xiEOcOjj33xvomO8NPJ1J3xvYd/J32J4/39s7PCQpSUlKUpKSlKQkJSlJSUpSkpKUpNtB6uakXiqR9nLSft91D4YkJSlJSUpSkpKUpCQlKUlJSlKSknQ7SPuG9FUcCKTuYU7qOPv7/T5JSUpSkpKUpCQlKUlJSlKSkpSkJN0O0j1D+u5yJpEe5KSH2TF4QVKSkpSkJCUpSUlKUpKSlKQkJSlJt4N0YEj/pX2JdD8nffny+Hh/n6QkJSlJSUpSkpKUpCQlKUlJSlKSbgfpMP/NxExLpMOc9Ph4OCQpSUlKUpKSlKQkJSlJSUpSkpKUpNtCum9IX0dSsqA7yEkPDlx3MCApSUlKUpKSlKQkJSlJSUpSkpKUpI2RLlH82LtprxW77aZBGurTS2+qu6m+TdtPfoxmcbIe4+7LM18GV3qSBNEk1EmusEbi6VP13PeVp3IldROklyqJrrTy+2vOTK7HXW861RO/3TLerZ01JyyPrpemcbt12+qoYa/iSXfZSW75k5L0LtRzvF1vMrqM4uz8VqgvKtAuNC6iSbp7o4PxZWo0zqPQL68xvzen093jKI4DP4rPXoXx2VCd3iW7fZX9vLunTkeXuyfqx1/D0VW6m0Sz7Eb85xf1y8nxC/O0VF+pvvr19D/qzWhknvtkp+jWfv80GcXBNP2H+Jzvn/rB9deHxXNksUxLBf5Ra2Tq/ji7VF4w0fGZ4zgtlV/Ao5YfJNPQu3sWTMJsbPc8jEafvmvJgJnq/DWo9G6anW+u4dOP3rU3f7TwTHNce7GpUXWk/OBqGuruRN+cXo/brW++AtlRe71e/p+1k87o+l7qZcLvf2+F3rkOW89avr7wZmGqpnF0EYS61ZmPnN22njndXqd17YUzvfh5ZNam7JxsuTk+Pjlpfe6U0nFBOn2Qzh5IZwDSGYJ09kE6ByCdQ5CO00MJoSraQZW0g6ppB1XUDqqqHVRZO6i6dlCF7aAq20VVtgtbq1GV7aIq261U2SqZXV2tfFl1qR0t1n4FGfEaVZMRr1A1GfH6VJMR5301GXHWV5MR53w1GXHGV5MR53s1GXkjq6gDqmN5G6uoA6pkeROrqAOqZXkLq6gDqmZ5A6uoA6pnefuqqINal0H1LO9dFXXK1/NNMEmrb1vn5qHyOuLlqagjXp6KOuLlqagjTveKOuJ0r6gjTveKOuJ0r6gjTveKOvL+VVUIVdHyDlZVCFXT8h5WVQhV1fIuVlUIVdfyPlZVCFXZ8k5WVQi2VqMqW97MqgqVr+z7dy/WfruwtM31Vv6hN//6YYCF/K9bmEV/869ib/MWg81bDDdvsb95i4PNWxxu3mJlZ9+URwPzu+AXszgP+TdbOA/5l144D/k3vTgP+ZfAOA/598M4D/lXxzgP+bfKuP1P/oUzzkP+XTTOo4F5XvAbbJxHva187Zc4lnsbd/4tjwAL+W7ALOS2CmYh3wuYhdxWwSzktgpmIbdVMAu5rYJZyG0VzKKgrcJ5NDC/C9oqnIe83OI85LYK5yG3VTgPua3CechtFc5DbqtwHnJbhdv/5LYK59HEPt7APC9oq3Ae9eb52u/KKtdWzb9MC2DhirsHzEJuq2AWclsFs5DbKpiF3FbBLOS2CmYht1UwC7mtglkUtFU4jwbmd0FbhfOQl1uch7zc4jzktgrnIbdVOA+5rcJ5yG0VzkNuq3D7n9xW4Tya2McbmOcFbRXOo948X/uVJOXaqvl3lgAs5LYKZiG3VTALua2CWchtFcxCbqtgFnJbBbOQ2yqYhdxWwSwK2iqcRwPzu6CtwnnIyy3OQ15ucR5yW4XzkNsqnIfcVuE85LYK5yG3Vbj9T26rcB5N7OMNzPOCtgrnUW+er01+L9dWzaPhARZyWwWzkNsqmIXcVsEs5LYKZiG3VTALua2CWchtFcxCbqtgFgVtFc6jgfld0FbhPOTlFuchL7c4D7mtwnnIbRXOQ26rcB5yW4XzkNsq3P4nt1U4jyb28QbmeUFbhfOoN8/XBuyWa6vmCbwAC7mtglnIbRXMQm6rYBZyWwWzkNsqmIXcVsEs5LYKZiG3VTCLgrYK59HA/C5oq3Ae8nKL85CXW5yH3FbhPOS2Cucht1U4D7mtwnnIbRVu/5PbKpxHE/t4A/O8oK3CedSb52tzDMu1VfOgQ4CF3FbBLOS2CmYht1UwC7mtglnIbRXMQm6rYBZyWwWzkNsqmEVBW4XzaGB+F0a0oTyKMq5QHkXxVyiPosw3lEdRHBzKoygpDuVRFCKH8ijKl0Ptf0XRcyiPJvbxBuZ5YZYdymP9PP9QJuF1EeGsjtRE3ywTZPPg2HZyPe7kCbBro2KXOdCJTl9Es4mftAe9jnKcQUf1zU/uoFzc7G2GcR9v7fvHXqrHUXz3/DZI5jnK96+/RNh0JvAm9nX8dmZijUufaDjuVjleay+ZxXqOYZKZF9d9w0HfHOYwhznMYQ5zmMMc5jCHOcxhDnOYwxzmMIc5zGEOc5jDHOYwhznMYQ5zmMMc5jCHOcxhDnOYwxzmMIc5zGEOc5jDHOYwhznMYQ5zmMMc/lMN33Wjax3Hga9fe+aDtU63Z/l5VfPR2GT1o7GnOg50svh4bauz/ADxNIzSbhhM9NqPyCZf+5zu+k/WJt38q+enUeilQTTJoFpJqqe75/oiinWr3Ceff9ZjPfFXX9D8sfaw11F988nlnvkgs/lPK9QXqQFbI72U7Z6NdXoySc31ySwuZpNRTtreUb+vkVgS6vuz36/9LLc5ggvVTi+DpJvkd6WckTkenNTNrt+JN7ps/xe4qtoS33x0PGNf6J5NoyQwgi+zh8u8muVhZL5CFUc31ZCWWMHE12Y+7Dqdimcvj491T7wIdGjqrb24pvN5Mo6j2VT76ttv1d8Wj992zy69ZPH5dzPBdh6O3n11NLsgXW88fmU8uqGejNNL9b1y1T9V63kYttSz1WckYTDS7V1n533vw87a+fbFK4li1f6YvZTed+pjZrMo1YWveezv2YpT/QaZw5TxQu/9xw/dT/pOHR0dzS9ePcVcdXHbP1Z9qcvjPNbepzonf654TtXnm+u1eHVHpqxNMSwqJQ9y6J55SRKMJ9o/NhERyfv8Sn6odymXN3o6Sy7bde9Fdkufze9n/ZkUhs/KvMqueWZdlySNo0+6nM/8uXWdoqk3CtK7claLJ9d+VbnF0qquynIhWV1W6kyPyouPOZbTeXXhUbvKqapWZbqVZ/3cyXfVUs//vK6nMMfTp+rX396pf7/57a06ffP23U+//KB+fvPDT8fqx5O3J+UEXmWrtr71TIum0kglUZyqyewqq4ORyiNNEuUlo6x5CSbjEorLa290HuzMXkedl19cYp3O4omaenGiX4WRl7Y9s+TvZLfywWPn+WOlLub6Fu2B7eIlrBP+vNmkl/v+M5/u+WRvP/H1hTcLUzWNo2wN00866sk3BwfHxycnTzYcPEMc4hCHOMQhDnGIQxziEIc4f04clcyusn8CK1+bB5Xv3RmiWPukIQ1pSEMa0pCGNKQhDWlIQ5pimpv8T7P+QHMezjRxiEMc4hCHOMQhDnGIQxziEKcOzv33BjrmewNPZ9L3Bvad/B2258/39g4PSUpSkpKUpCQlKUlJSlKSkpSkJCXpdpC6OamXSqS9nLTfd92DIUlJSlKSkpSkJCUpSUlKUpKSlKQk3Q7SviF9FQcCqXuYkzrO/n6/T1KSkpSkJCUpSUlKUpKSlKQkJSlJt4N0z5C+u5xJpAc56WF2DF6QlKQkJSlJSUpSkpKUpCQlKUlJStLtIB0Y0n9pXyLdz0lfvjw+3t8nKUlJSlKSkpSkJCUpSUlKUpKSlKTbQTrMfzMx0xLpMCc9Ph4OSUpSkpKUpCQlKUlJSlKSkpSkJCXptpDuG9LXkZQs6A5y0oMD1x0MSEpSkpKUpCQlKUlJSlKSkpSkJCVpY6RLFD/2btprxW67aZCG+vTSm+puqm/T9pMfo1mcrMe4+/LMl8GVniRBNAl1kiuskXj6VD33feWpXEndBOmlSqIrrfz+mjOT63HXm071xG+3jHdrZ80Jy6PrpWncbt22OmrYq3jSXXaSW/6kJL0L9Rxv15uMLqM4O78V6osKtAuNi2iS7t7oYHyZGo3zKPTLa8zvzel092UwCSbjs1dhfDZUp3fJbl9lP+/uqdPR5e4L9eOv4egq3Z1EcXYb/vOL+uXk+IV5WqqvVF/9evof9WY0Ms99slN0Y79/moziYJr+Q3zO90/94Prrw+I5slimpQL/qDUyVX+cXSgvmOj4zHHclsov31HLD5Jp6N09CyZhNrZ7HkajT9+1ZMBMdf4aVHo3zc43V/DpR+/amz9aeKY5rr3YVKg6Un5wNQ11d6JvTq/H7dY3X4HsqL1eL//P2ilndH0v9TLh97+3Qu9ch61nLV9feLMwVdM4ughC3erMR85uW8+cbq/TuvbCmV78PDIrU3ZOttgcH5+ctD53Sum4IJ0+SGcPpDMA6QxBOvsgnQOQziFIx+mhhFAV7aBK2kHVtIMqagdV1Q6qrB1UXTuownZQle2iKtuFrdWoynZRle1WqmyVzK6uVr6qutSOFmu/gox4jarJiFeomox4farJiPO+mow466vJiHO+mow446vJiPO9moy8kVXUAdWxvI1V1AFVsryJVdQB1bK8hVXUAVWzvIFV1AHVs7x9VdRBrcugepb3roo65ev5Jpik1betc/NQeR3x8lTUES9PRR3x8lTUEad7RR1xulfUEad7RR1xulfUEad7RR15/6oqhKpoeQerKoSqaXkPqyqEqmp5F6sqhKpreR+rKoSqbHknqyoEW6tRlS1vZlWFylf2/XsXa79bWNrmeiv/0Jt/+TDAQv7XLcyiv/lXsbd5i8HmLYabt9jfvMXB5i0ON2+xsrNvyqOB+V3wi1mch/ybLZyH/EsvnIf8m16ch/xLYJyH/PthnIf8q2Och/xbZdz+J//CGech/y4a59HAPC/4DTbOo95WvvYrHMu9jTv/jkeAhXw3YBZyWwWzkO8FzEJuq2AWclsFs5DbKpiF3FbBLOS2CmZR0FbhPBqY3wVtFc5DXm5xHnJbhfOQ2yqch9xW4TzktgrnIbdVOA+5rcLtf3JbhfNoYh9vYJ4XtFU4j3rzfO03ZZVrq+ZfpQWwcMXdA2Yht1UwC7mtglnIbRXMQm6rYBZyWwWzkNsqmIXcVsEsCtoqnEcD87ugrcJ5yMstzkNebnEecluF85DbKpyH3FbhPOS2Cucht1W4/U9uq3AeTezjDczzgrYK51Fvnq/9QpJybdX8G0sAFnJbBbOQ2yqYhdxWwSzktgpmIbdVMAu5rYJZyG0VzEJuq2AWBW0VzqOB+V3QVuE85OUW5yEvtzgPua3CechtFc5DbqtwHnJbhfOQ2yrc/ie3VTiPJvbxBuZ5QVuF86g3z9fmvpdrq+bB8AALua2CWchtFcxCbqtgFnJbBbOQ2yqYhdxWwSzktgpmIbdVMIuCtgrn0cD8LmircB7ycovzkJdbnIfcVuE85LYK5yG3VTgPua3CechtFW7/k9sqnEcT+3gD87ygrcJ51Jvna+N1y7VV8/xdgIXcVsEs5LYKZiG3VTALua2CWchtFcxCbqtgFnJbBbOQ2yqYRUFbhfNoYH4XtFU4D3m5xXnIyy3OQ26rcB5yW4XzkNsqnIfcVuE85LYKt//JbRXOo4l9vIF5XtBW4TzqzfO1KYbl2qp5zCHAQm6rYBZyWwWzkNsqmIXcVsEs5LYKZiG3VTALua2CWchtFcyioK3CeTQwvwsj2lAeRRlXKI+i+CuUR1HmG8qjKA4O5VGUFIfyKAqRQ3kU5cuh9r+i6DmURxP7eAPzvDDLDuWxfp5/KJPwughwVkdqom+WCbJ5cGw7uR538gTYtVGxyxToRKcvotnET9qDXkc5zqCj+uYnd1AubvY2w7gPt/b9Yy/V4yi+e34bJPMU5fvXXyJqOhN4E/s6fjszocalTzQcd6scr7WXzGI9xzC5zIvrvuGYbw5zmMMc5jCHOcxhDnOYwxzmMIc5zGEOc5jDHOYwhznMYQ5zmMMc5jCHOcxhDnOYwxzmMIc5zGEOc5jDHOYwhznMYQ5zmMMc5jCHOcxhDv+phu+60bWO48DXrz3zwVqn27P8vKr5aGyy+tHYUx0HOll8vLbVWX6AeBpGaTcMJnrtR2STr31Od/0na5Nu/tXz0yj00iCaZFCtJNXT3XN9EcW6Ve6Tzz/rsZ74qy9o/lh72Ouovvnkcs98kNn8pxXqi9SArZFeynbPxjo9maTm+mQWF7PJKCdt76jf10gsCfX92e/XfpbbHMGFaqeXQdJN8rtSzsgcD07qZtfvxBtdtv8LXFVtiW8+Op6xL3TPplESGMGX2cNlXs3yMDJfoYqjm2pIS6xg4mszH3adTsWzl8fHuideBDo09dZeXNP5PBnH0WyqffXtt+pvi8dvu2eXXrL4/LuZYDsPR+++OppdkK43Hr8yHt1QT8bppfpeueqfqvU8DFvq2eozkjAY6faus/O+92Fn7Xz74pVEsWp/zF5K7zv1MbNZlOrC1zz292zFqX6DzGHKeKH3/uOH7id9p46OjuYXr55irrq47R+rvtTlcR5r71Odkz9XPKfq8831Wry6I1PWphgWlZIHOXTPvCQJxhPtH5uIiOR9fiU/1LuUyxs9nSWX7br3Irulz+b3s/5MCsNnZV5l1zyzrkuSxtEnXc5n/ty6TtHUGwXpXTmrxZNrv6rcYmlVV2W5kKwuK3WmR+XFxxzL6by68Khd5VRVqzLdyrN+7uS7aqnnf17XU5jj6VP162/v1L/f/PZWnb55++6nX35QP7/54adj9ePJ25NyAq+yVVvfeqZFU2mkkihO1WR2ldXBSOWRJonyklHWvASTcQnF5bU3Og92Zq+jzssvLrFOZ/FETb040a/CyEvbnlnyd7Jb+eCx8/yxUhdzfYv2wHbxEtYJf95s0st9/5lP93yyt5/4+sKbhamaxlG2huknHfXkm4OD4+OTkycbDp4hDnGIQxziEIc4xCEOcYhDnD8njkpmV9k/gZWvzYPK9+4MUax90pCGNKQhDWlIQxrSkIY0pCFNMc1N/qdZf6A5D2eaOMQhDnGIQxziEIc4xCEOcYhTB+f+ewMd872BpzPpewP7Tv4O2/Pne3uHhyQlKUlJSlKSkpSkJCUpSUlKUpKSdDtI3ZzUSyXSXk7a77vuwZCkJCUpSUlKUpKSlKQkJSlJSUpSkm4Had+QvooDgdQ9zEkdZ3+/3ycpSUlKUpKSlKQkJSlJSUpSkpKUpNtBumdI313OJNKDnPQwOwYvSEpSkpKUpCQlKUlJSlKSkpSkJCXpdpAODOm/tC+R7uekL18eH+/vk5SkJCUpSUlKUpKSlKQkJSlJSUrS7SAd5r+ZmGmJdJiTHh8PhyQlKUlJSlKSkpSkJCUpSUlKUpKSdFtI9w3p60hKFnQHOenBgesOBiQlKUlJSlKSkpSkJCUpSUlKUpKStDHSJYofezfttWK33TRIQ3166U11N9W3afvJj9EsTtZj3H155svgSk+SIJqEOskV1kg8faqe+77yVK6kboL0UiXRlVZ+f82ZyfW4602neuK3W8a7tbPmhOXR9dI0brduWx017FU86S47yS1/UpLehXqOt+tNRpdRnJ3fCvVFBdqFxkU0SXdvdDC+TI3GeRT65TXm9+Z0uvv/BenoUk/OXoXx2VCd3iW7fZX9vLunTkeXuy/Uj7+Go6t0V3tJqv7zi/rl5PiFeVaqr1Rf/Xr6H/VmNDJPfbJTdGO/f5qM4mCa/kN8zvdP/eD668PiObJYpqUC/6g1MlV/nF0oL5jo+Mxx+i2VX76jlh8k09C7exZMwmxs9zyMRp++a8mAmer8Naj0bpqdb67g04/etTd/tPBMc1x7salQdaT84Goa6u5E35xej9utb74C2VF7vV7+n7VTzuj6Xuplwu9/b4XeuQ5bz1q+vvBmYaqmcXQRhLrVmY+c3baeOd1ep3XthTPdejYYdPuHD47+oNMamYUqk8jWnuPjk5PW504pWXczsv3NyO5tRnawGdnhZmT3NyN7sBnZw83IOr0N6W5onjkbmmjOhmaas6Gp5mxorjkbmmzOhmabs6Hp5mxovrkbmm/upva1Dc03d0PzzbWZbyqZXV2tfCV4nc4h1n4F1bLXt5pq2atbTbXsta2mWnYlq6Zadh2rplp2FaumWnYNq6ZadgWrplq6Yagou5nZVbpdqCi7mflVulmoKLuZGVa6Vagou5k5VrpRqCi7mVlWuk2oKLuhPWwzs6x0j1BRtvYsuwkmqXV7cG6eUV627KWtKFv20laULXtpK8qWXcAqypZdwCrKll3AKsqWXcAqypZdwCrKlu4TqupuaJ6V7hSq6m5oppXuFarqbmiule4WqupuaLaV7heq6m5ovpXuGKrqbmpf29B8K900VNWtNt8+lHnjYvG+pDpSE32zfGMkfz+knVyPO/kbG2vfAVm+uZno9EU0m/hJe9DrKMcZdFTf/OQOyr2Lcpth3L9n6/vHXqrHUXz3/DZI5m8O3l+LEu+gZgJvYl/Hb2fmvbrSJxqOu1WO19pLZrGeY5i3Gxf3wPY94fwNqVWrUx0HOlngZk6LGzINo7Rr3iVba5l87XWvJ026eeFNo9BLg2iSQbWSVE93z/VFFOtWuUr6WY/1xF99QfPH2sOsCvqmEsybao75z+It17XvRi9lu2djnZ5MUnN9MouL2WSUk7Z31O8l3nM1hPr+7Pdr54Y5ggvVTi+DJKtrc145I3M8OKmbXb8Tb3TZ/i9wVbUl/uI9xoXu2TRKAiP4Mnu4zKtZHkbmK1RxdFMNaYkVTHxtJu6u06l49vL4WPfEi0CHpt7ai2s6nyfjOJpNta++/Vb9bfH4bffs0ksW64mZYDsPR+++OppdkK43Hr8yHt1QT8bppfpeueqfqvU8DFvq2eozkjAY6faus/O+92Fn7Xz74pVEsWp/zF5K7zv1MbNZlOrC1zz29yPlVL9B5jBlvNB7//FD95POlrejo/nFq6eYqy5u+8eqL3V5nMfa+1Tn5M8Vz6n6fHO9Fq/uyJS1KYZFpeQbY/ds/vdE2s//oih5n1/JD/Uu5fJGT2fJZbvuvchu6bP5/aw/k8LwWZlX2TXPrOuSpHH0SZfzmT+3rlM09UZBelfOavHk2q8qt1ha1VVZLiSry0qd6VF58THHcjqvLjxqVzlV1apMt/Ksnzv5rlrq+Z/X9RTmePpU/frbO/XvN7+9Vadv3r776Zcf1M9vfvjpWP148vaknMCrbNXWt55p0VQaqSTKGunJ7Cqrg5HKW8REeckoa16CybiE4vLaG50HO7PXUeflF5dYp7N4oqZenOhXYeSlbc8s+TvZrXzw2Hn+WKmLub5Fe2C7eAnrhD//D/7u8w/v2C7+uNO8Afs/+TNU4hCHOMQhDnGIQxziEIc4xNl6nC//8sUQxdonDWlIQxrSkIY0pCENaUhDGtIU03zxN4GGxvyJH3GIQxziEIc4xCEOcYhDHOIQ53+YtvhOX0117KWzWKv2qx3mLT6uvMXZdBreqedBrMyN2pLMxL1tyEzcaywzMf+5bjgTSKcP0tkD6QxAOkOQzj5I5wCkcwjSWckUsBJCVbSDKmkHVdMOqqgdVFU7qLJ2UHXtoArbQVW2i6psF7ZWoyrbRVW2W6myy2f5rUjVD++zkBGvUP14PgsZcd7XD+CzkBHnfP2IPQsZcb5bhOjZ6IDqWN7GLHLxbHRApSzvYRZRdzY6oGqWNzCL9DqbdRBUz/LuZRFIZ6MDqmd566qfMbciYxEqZ6MjXh6L2DgbHXG6WwTD2eiI090i+s1GR5zuNuFuVkKoipZ3MJu8NishVFHLm5hNBJuVEKqu5X3MJlXNamVEVba8ldkEpVkJoSpb3s2+ELr/vifHfN/T6Uz6vqe+U+73jc+f7+0dHgIs5H/dwizkf/fCLOR/EcMs5N8CwSzk3w/BLOTfHMEs5N8pwSzk3zbBLAp+xYrzaGB+F/xiFufRwAwv+HUuzqOBOV7wS2CcRwOzvOBXxziPBuZ5wS+ccR5N7OMNzPOC32DjPOrNczf38FLJo1eurer3XfdgCLCQ7wbMQr4ZMAv5XsAs5CUXZiGvuDALecGFWcjrLcxCXm5hFgVtFc6jgfld0FbhPBqY4QVtFc6jgTle0FbhPBqY5QVtFc6jgXle0FbhPJrYxxuY5wVtFc6j3jzvG49XcSB9O/lhubbKcfb3+32AhXw3YBbyzYBZyPcCZiEvuTALecWFWcgLLsxCXm9hFvJyC7MoaKtwHg3M74K2CufRwAwvaKtwHg3M8YK2CufRwCwvaKtwHg3M84K2CufRxD7ewDwvaKtwHvXm+Z7xeHc5kzwOyrVV5huXBi8AFvLdgFnINwNmId8LmIW85MIs5BUXZiEvuDALeb2FWcjLLcyioK3CeTQwvwvaKpxHAzO8oK3CeTQwxwvaKpxHA7O8oK3CeTQwzwvaKpxHE/t4A/O8oK3CedSb5wPj8S/tSx775dqqly+Pj/f3ARby3YBZyDcDZiHfC5iFvOTCLOQVF2YhL7gwC3m9hVnIyy3MoqCtwnk0ML8L2iqcRwMzvKCtwnk0MMcL2iqcRwOzvKCtwnk0MM8L2iqcRxP7eAPzvKCtwnnUm+fDvHWbacljWK6tOj4eDiEW8t2AWcg3A2Yh3wuYhbzkwizkFRdmIS+4MAt5vYVZyMstzKKgrcJ5NDC/C9oqnEcDM7ygrcJ5NDDHC9oqnEcDs7ygrcJ5NDDPC9oqnEcT+3gD87ygrcJ51Jvn+8bjdST9Wbw7KNdWHRy47mAAsCjKuQFZFCXggCyKsnFAFkV5UCCLoqQokEVRhhTIoihdCmRRlDsFsigMW0N5NDC/CyPaUB4NzPDCYDeURwNzvDAODuXRwCwvDJFDeTQwzwuj51AeTezjDczzwiw7lMf6ef6hTMLrIoZZHamJvlkmyObBse3ketzJE2DXRsUus5wTnb6IZhM/aQ96HeU4g47qm5/cQbm42dsM4z6H2vePvVSPo/ju+W2QzJOQ719/icDoTOBN7Ov47cwEE5c+0XDcrXK81l4yi/Ucw2QrL677hhO5OcxhDnOYwxzmMIc5zGEOc5jDHOYwhznMYQ5zmMMc5jCHOcxhDnOYwxzmMIc5zGEOc5jDHOYwhznMYQ5zmMMc5jCHOcxhDnOYwxzmMIc5/KcavutG1zqOA1+/9swHa51uz/LzquajscnqR2NPdRzoZPHx2lZn+QHiaRil3TCY6LUfkU2+9jnd9Z+sTbr5V89Po9BLg2iSQbWSVE93z/VFFOtWuU8+/6zHeuKvvqD5Y+1hr6P65pPLPfNBZvOfVqgvUgO2Rnop2z0b6/Rkkprrk1lczCajnLS9o35fI7Ek1Pdnv1/7WW5zBBeqnV4GSTfJ70o5I3M8OKmbXb8Tb3TZ/i9wVbUlvvnoeMa+0D2bRklgBF9mD5d5NcvDyHyFKo5uqiEtsYKJr8182HU6Fc9eHh/rnngR6NDUW3txTefzZBxHs6n21bffqr8tHr/tnl16yeLz72aC7TwcvfvqaHZBut54/Mp4dEM9GaeX6nvlqn+q1vMwbKlnq89IwmCk27vOzvveh5218+2LVxLFqv0xeym979THzGZRqgtf89jfsxWn+g0yhynjhd77jx+6n/SdOjo6ml+8eoq56uK2f6z6UpfHeay9T3VO/lzxnKrPN9dr8eqOTFmbYlhUSh7k0D3zkiQYT7R/bCIikvf5lfxQ71Iub/R0lly2696L7JY+m9/P+jMpDJ+VeZVd88y6LkkaR590OZ/5c+s6RVNvFKR35awWT679qnKLpVVdleVCsrqs1JkelRcfcyyn8+rCo3aVU1WtynQrz/q5k++qpZ7/eV1PYY6nT9Wvv71T/37z21t1+ubtu59++UH9/OaHn47VjydvT8oJvMpWbX3rmRZNpZFKojhVk9lVVgcjlUeaJMpLRlnzEkzGJRSX197oPNiZvY46L7+4xDqdxRM19eJEvwojL217ZsnfyW7lg8fO88dKXcz1LdoD28VLWCf8ebNJL/f9Zz7d88nefuLrC28WpmoaR9kapp901JNvDg6Oj09Onmw4eIY4xCEOcYhDHOIQhzjEIQ5x/pw4KpldZf8EVr42DyrfuzNEsfZJQxrSkIY0pCENaUhDGtKQhjTFNDf5n2b9geY8nGniEIc4xCEOcYhDHOIQhzjEIU4dnPvvDXTM9waezqTvDew7+Ttsz5/v7R0ekpSkJCUpSUlKUpKSlKQkJSlJSUrS7SB1c1IvlUh7OWm/77oHQ5KSlKQkJSlJSUpSkpKUpCQlKUlJuh2kfUP6Kg4EUvcwJ3Wc/f1+n6QkJSlJSUpSkpKUpCQlKUlJSlKSbgfpniF9dzmTSA9y0sPsGLwgKUlJSlKSkpSkJCUpSUlKUpKSlKTbQTowpP/SvkS6n5O+fHl8vL9PUpKSlKQkJSlJSUpSkpKUpCQlKUm3g3SY/2ZipiXSYU56fDwckpSkJCUpSUlKUpKSlKQkJSlJSUrSbSHdN6SvIylZ0B3kpAcHrjsYkJSkJCUpSUlKUpKSlKQkJSlJSUrSxkiXKH7s3bTXit120yAN9emlN9XdVN+m7Sc/RrM4WY9x9+WZL4MrPUmCaBLqJFdYI/H0qXru+8pTuZK6CdJLlURXWvn9NWcm1+OuN53qid9uGe/WzpoTlkfXS9O43bptddSwV/Gku+wkt/xJSXoX6jnerjcZXUZxdn4r1BcVaBcaF9Ek3b3RwfgyNRrnUeiX15jfm//z/P/ML/Bbfam9VL0ZjdTp6PLJTtFN+v5pMoqDafoP8TnfP/WD668Pi+fIYpmWCvyj1shU8HH2or1gouMzxxm0VH4pjlp+kExD7+5ZMAmzsd3zMBp9+q4lA2aq89eg0rtpdr65Gk8/etfe/NHCM81x7cWm2tSR8oOraai7E31zej1ut775CmRH7fV6+X/WTh+j63uplwm//70Veuc6bD1r+frCm4WpmsbRRRDqVmc+cnbbeuZ0e53WtRfOdOvZ8LB7+OA4OOy0RmbNyRSyZeT4+OSk9blTStXdiGp/I6p7G1EdbER1uBHV/Y2oHmxE9XAjqk5vM7KbmV3OZqaXs5n55WxmgjmbmWHOZqaYs5k55mxmkjmbmWXuZmaZu6E9bDOzzN3MLHMtZplKZldXK1/jXaNDiLVfQbTkta0mWvLKVhMteV2riZZcu6qJlly5qomWXLeqiZZctaqJllyzqomWbQwqqm5kTpVtCyqqbmRWlW0KKqpuZF6VbQkqqm5kZpVtCCqqbmRulW0HKqpuZr/ayNwq2wtUVK07t26CSWrbBpybJ5RXLXlZK6qWvKwVVUte1oqqJZesiqoll6yKqiWXrIqqJZesiqoll6yKqmX7gaqym5ldZTuCqrKbmV9le4KqspuZYWW7gqqym5ljZfuCqrKbmWVlO4OqshvawzYzy8o2B1VlK82yD2XecFi8N6iO1ETfLN/QyN/HaCfX407+hsTady6WbzAmOn0RzSZ+0h70OspxBh3VNz+5g3LvftxmGPfvm/r+sZfqcRTfPb8NkvkbdPeXosS7mJnAm9jX8duZeb+s9ImG426V47X2klms5xjmLb/FLbB9XzZ/I2nV6lTHgU4WuJnT4oZMwyjtmne31lomX3vd60mTbl530yj00iCaZFCtJNXT3XN9EcW6Va6SftZjPfFXX9D8sfYwq4K+qQTzZphj/rN423PtO8JL2e7ZWKcnk9Rcn8ziYjYZ5aTtHfV7ifc9DaG+P/v92rlhjuBCtdPLIMnq2pxXzsgcD07qZtfvxBtdtv8LXFVtib94b3ChezaNksAIvsweLvNqloeR+QpVHN1UQ1piBRNfm4m763Qqnr08PtY98SLQoam39uKazufJOI5mU+2rb79Vf1s8fts9u/SSxXpiJtjOw9G7r45mF6TrjcevjEc31JNxeqm+V676p2o9D8OWerb6jCQMRrq96+y8733YWTvfvnglUazaH7OX0vtOfcxsFqW68DWP/f1IOdVvkDlMGS/03n/80P2ks+Xt6Gh+8eop5qqL2/6x6ktdHuex9j7VOflzxXOqPt9cr8WrOzJlbYphUSn5xtg9m/9Nj/bzv+pJ3udX8kO9S7m80dNZctmuey+yW/psfj/rz6QwfFbmVXbNM+u6JGkcfdLlfObPresUTb1RkN6Vs1o8ufaryi2WVnVVlgvJ6rJSZ3pUXnzMsZzOqwuP2lVOVbUq06086+dOvquWev7ndT2FOZ4+Vb/+9k79+81vb9Xpm7fvfvrlB/Xzmx9+OlY/nrw9KSfwKlu19a1nWjSVRiqJskZ6MrvK6mCk8hYxUV4yypqXYDIuobi89kbnwc7sddR5+cUl1uksnqipFyf6VRh5adszS/5OdisfPHaeP1bqYq5v0R7YLl7COuHP/4O/vfzDG7CLP7A0b6j+T/4UlDjEIQ5xiEMc4hCHOMQhDnG2HufLP3AxRLH2SUMa0pCGNKQhDWlIQxrSkIY0xTRf/EmgoTF/4kcc4hCHOMQhDnGIQxziEIc4xPkfJh6+01dTHXvpLNaq/WqHmYePKvPwX56puB91/j/Pr84DPUmVuWUm+VD7s+z676r93qstCUEcbkMI4rCxEMT8o6d1Q5hAOn2Qzh5IZwDSGYJ09kE6ByCdQ5DOSrqAlRCqoh1USTuomnZQRe2gqtpBlbWDqmsHVdgOqrJdVGW7sLUaVdkuqrLdSpVdPrRvRap+TJ+FjHiF6kfxWciI875+3J6FjDjn60fqWciI890iNs9GB1TH8jZmEYZnowMqZXkPs4i4s9EBVbO8gVkE19msg6B6lncvizg6Gx1QPctbV/2QuRUZi1g5Gx3x8lhEx9noiNPdIh7ORkec7hYRcDY64nS3iXmzEkJVtLyD2YS3WQmhilrexGwi2ayEUHUt72M2QWtWKyOqsuWtzCY+zUoIVdnybsZQtK0IReMwhznMYQ5zmMMc5jCHOcxhDnOYwxzm8GMavutG1zqOA1+/9swvqpxuj6H4D14JQ/HvD4biVzoYis9Q/AoHQ/H/eDAU/48HQ/ErHgzFZyj+Vw+G4hOHOMQhDnGIQxziEIc4xCEOcbYhUpI0pCENaUhDGtKQhjSkIQ1ptofmLxNlSRziEIc4xCEOcYhDHOIQhzj1/f4Hofgvgys9SYJoEuokYST+44rEj+JP6uTiIhgFejK6uw/CbzYCf/HsP4w8/P/Ln+f/e6+++OH+f84j/87872V6Ff7j//n/ATa2WFg="
               },
               {
                  "name" : "annual_peak_electric_demand",
                  "units" : "kW",
                  "value" : 274.33964000000003
               },
               {
                  "name" : "first_year_capital_cost",
                  "units" : "$",
                  "value" : 0
               },
               {
                  "name" : "annual_utility_cost",
                  "units" : "$",
                  "value" : 0
               },
               {
                  "name" : "total_lifecycle_cost",
                  "units" : "$",
                  "value" : 0
               }
            ],
            "step_warnings" : []
         }
      }
   ],
   "updated_at" : "20170710T193225Z",
   "weather_file" : "USA_CO_Denver.Intl.AP.725650_TMY3.epw"
}
