{
   "completed_at" : "20170710T191755Z",
   "completed_status" : "Success",
   "created_at" : "2017-07-10 19:12:50 +0000",
   "current_step" : 5,
   "description" : "",
   "eplusout_err" : "Program Version,EnergyPlus, Version 8.7.0-78a111df4a, YMD=2017.07.10 19:14,IDD_Version 8.7.0\n   ************* IDF Context for following error/warning message:\n   ************* Note -- lines truncated at 300 characters, if necessary...\n   *************      5 Building,\n   ************* indicated Name=NECB 2011-MidriseApartment-NECB HDD Method-CAN_NB_Saint.John.716090_CWEC.epw created: 2017-07-10 19:12:56 +0000\n   ************* Only last 1 lines before error line shown.....\n   *************      6   NECB 2011-MidriseApartment-NECB HDD Method-CAN_NB_Saint.John.716090_CWEC.epw created: 2017-07-10 19:12:56 +0000, !- Name\n   ** Warning ** IP: IDF line~6 Alpha Argument length exceeds maximum, will be truncated=  NECB 2011-MidriseApartment-NECB HDD Method-CAN_NB_Saint.John.716090_CWEC.epw created: 2017-07-10 19:12:56 +000\n   **   ~~~   ** Will be processed as Alpha=NECB 2011-MIDRISEAPARTMENT-NECB HDD METHOD-CAN_NB_SAINT.JOHN.716090_CWEC.EPW CREATED: 2017-07-10 19:12:56 +0000\n   ************* Beginning Zone Sizing Calculations\n   ** Warning ** ProcessScheduleInput: Schedule:Day:Interval=\"ECONOMIZER MAX OA FRACTION 100 PCT DEFAULT\", Blank Schedule Type Limits Name input -- will not be validated.\n   ** Warning ** ProcessScheduleInput: Schedule:Day:Interval=\"SCHEDULE DAY 1\", Blank Schedule Type Limits Name input -- will not be validated.\n   ** Warning ** ProcessScheduleInput: Schedule:Day:Interval=\"SCHEDULE DAY 10\", Blank Schedule Type Limits Name input -- will not be validated.\n   ** Warning ** ProcessScheduleInput: Schedule:Day:Interval=\"SCHEDULE DAY 11\", Blank Schedule Type Limits Name input -- will not be validated.\n   ** Warning ** ProcessScheduleInput: Schedule:Day:Interval=\"SCHEDULE DAY 12\", Blank Schedule Type Limits Name input -- will not be validated.\n   ** Warning ** ProcessScheduleInput: Schedule:Day:Interval=\"SCHEDULE DAY 13\", Blank Schedule Type Limits Name input -- will not be validated.\n   ** Warning ** ProcessScheduleInput: Schedule:Day:Interval=\"SCHEDULE DAY 14\", Blank Schedule Type Limits Name input -- will not be validated.\n   ** Warning ** ProcessScheduleInput: Schedule:Day:Interval=\"SCHEDULE DAY 15\", Blank Schedule Type Limits Name input -- will not be validated.\n   ** Warning ** ProcessScheduleInput: Schedule:Day:Interval=\"SCHEDULE DAY 16\", Blank Schedule Type Limits Name input -- will not be validated.\n   ** Warning ** ProcessScheduleInput: Schedule:Day:Interval=\"SCHEDULE DAY 17\", Blank Schedule Type Limits Name input -- will not be validated.\n   ** Warning ** ProcessScheduleInput: Schedule:Day:Interval=\"SCHEDULE DAY 18\", Blank Schedule Type Limits Name input -- will not be validated.\n   ** Warning ** ProcessScheduleInput: Schedule:Day:Interval=\"SCHEDULE DAY 19\", Blank Schedule Type Limits Name input -- will not be validated.\n   ** Warning ** ProcessScheduleInput: Schedule:Day:Interval=\"SCHEDULE DAY 2\", Blank Schedule Type Limits Name input -- will not be validated.\n   ** Warning ** ProcessScheduleInput: Schedule:Day:Interval=\"SCHEDULE DAY 20\", Blank Schedule Type Limits Name input -- will not be validated.\n   ** Warning ** ProcessScheduleInput: Schedule:Day:Interval=\"SCHEDULE DAY 21\", Blank Schedule Type Limits Name input -- will not be validated.\n   ** Warning ** ProcessScheduleInput: Schedule:Day:Interval=\"SCHEDULE DAY 22\", Blank Schedule Type Limits Name input -- will not be validated.\n   ** Warning ** ProcessScheduleInput: Schedule:Day:Interval=\"SCHEDULE DAY 23\", Blank Schedule Type Limits Name input -- will not be validated.\n   ** Warning ** ProcessScheduleInput: Schedule:Day:Interval=\"SCHEDULE DAY 24\", Blank Schedule Type Limits Name input -- will not be validated.\n   ** Warning ** ProcessScheduleInput: Schedule:Day:Interval=\"SCHEDULE DAY 25\", Blank Schedule Type Limits Name input -- will not be validated.\n   ** Warning ** ProcessScheduleInput: Schedule:Day:Interval=\"SCHEDULE DAY 26\", Blank Schedule Type Limits Name input -- will not be validated.\n   ** Warning ** ProcessScheduleInput: Schedule:Day:Interval=\"SCHEDULE DAY 27\", Blank Schedule Type Limits Name input -- will not be validated.\n   ** Warning ** ProcessScheduleInput: Schedule:Day:Interval=\"SCHEDULE DAY 28\", Blank Schedule Type Limits Name input -- will not be validated.\n   ** Warning ** ProcessScheduleInput: Schedule:Day:Interval=\"SCHEDULE DAY 29\", Blank Schedule Type Limits Name input -- will not be validated.\n   ** Warning ** ProcessScheduleInput: Schedule:Day:Interval=\"SCHEDULE DAY 30\", Blank Schedule Type Limits Name input -- will not be validated.\n   ** Warning ** ProcessScheduleInput: Schedule:Day:Interval=\"SCHEDULE DAY 31\", Blank Schedule Type Limits Name input -- will not be validated.\n   ** Warning ** ProcessScheduleInput: Schedule:Day:Interval=\"SCHEDULE DAY 32\", Blank Schedule Type Limits Name input -- will not be validated.\n   ** Warning ** ProcessScheduleInput: Schedule:Day:Interval=\"SCHEDULE DAY 33\", Blank Schedule Type Limits Name input -- will not be validated.\n   ** Warning ** ProcessScheduleInput: Schedule:Day:Interval=\"SCHEDULE DAY 34\", Blank Schedule Type Limits Name input -- will not be validated.\n   ** Warning ** ProcessScheduleInput: Schedule:Day:Interval=\"SCHEDULE DAY 35\", Blank Schedule Type Limits Name input -- will not be validated.\n   ** Warning ** ProcessScheduleInput: Schedule:Day:Interval=\"SCHEDULE DAY 36\", Blank Schedule Type Limits Name input -- will not be validated.\n   ** Warning ** ProcessScheduleInput: Schedule:Day:Interval=\"SCHEDULE DAY 37\", Blank Schedule Type Limits Name input -- will not be validated.\n   ** Warning ** ProcessScheduleInput: Schedule:Day:Interval=\"SCHEDULE DAY 38\", Blank Schedule Type Limits Name input -- will not be validated.\n   ** Warning ** ProcessScheduleInput: Schedule:Day:Interval=\"SCHEDULE DAY 39\", Blank Schedule Type Limits Name input -- will not be validated.\n   ** Warning ** ProcessScheduleInput: Schedule:Day:Interval=\"SCHEDULE DAY 40\", Blank Schedule Type Limits Name input -- will not be validated.\n   ** Warning ** ProcessScheduleInput: Schedule:Day:Interval=\"SCHEDULE DAY 41\", Blank Schedule Type Limits Name input -- will not be validated.\n   ** Warning ** ProcessScheduleInput: Schedule:Day:Interval=\"SCHEDULE DAY 42\", Blank Schedule Type Limits Name input -- will not be validated.\n   ** Warning ** ProcessScheduleInput: Schedule:Day:Interval=\"SCHEDULE DAY 43\", Blank Schedule Type Limits Name input -- will not be validated.\n   ** Warning ** ProcessScheduleInput: Schedule:Day:Interval=\"SCHEDULE DAY 44\", Blank Schedule Type Limits Name input -- will not be validated.\n   ** Warning ** ProcessScheduleInput: Schedule:Day:Interval=\"SCHEDULE DAY 45\", Blank Schedule Type Limits Name input -- will not be validated.\n   ** Warning ** ProcessScheduleInput: Schedule:Day:Interval=\"SCHEDULE DAY 46\", Blank Schedule Type Limits Name input -- will not be validated.\n   ** Warning ** ProcessScheduleInput: Schedule:Day:Interval=\"SCHEDULE DAY 47\", Blank Schedule Type Limits Name input -- will not be validated.\n   ** Warning ** ProcessScheduleInput: Schedule:Day:Interval=\"SCHEDULE DAY 48\", Blank Schedule Type Limits Name input -- will not be validated.\n   ** Warning ** ProcessScheduleInput: Schedule:Day:Interval=\"SCHEDULE DAY 49\", Blank Schedule Type Limits Name input -- will not be validated.\n   ** Warning ** ProcessScheduleInput: Schedule:Day:Interval=\"SCHEDULE DAY 50\", Blank Schedule Type Limits Name input -- will not be validated.\n   ** Warning ** ProcessScheduleInput: Schedule:Day:Interval=\"SCHEDULE DAY 51\", Blank Schedule Type Limits Name input -- will not be validated.\n   ** Warning ** ProcessScheduleInput: Schedule:Day:Interval=\"SCHEDULE DAY 52\", Blank Schedule Type Limits Name input -- will not be validated.\n   ** Warning ** ProcessScheduleInput: Schedule:Day:Interval=\"SCHEDULE DAY 53\", Blank Schedule Type Limits Name input -- will not be validated.\n   ** Warning ** ProcessScheduleInput: Schedule:Day:Interval=\"SCHEDULE DAY 54\", Blank Schedule Type Limits Name input -- will not be validated.\n   ** Warning ** ProcessScheduleInput: Schedule:Day:Interval=\"SCHEDULE DAY 55\", Blank Schedule Type Limits Name input -- will not be validated.\n   ** Warning ** ProcessScheduleInput: Schedule:Day:Interval=\"SCHEDULE DAY 56\", Blank Schedule Type Limits Name input -- will not be validated.\n   ** Warning ** ProcessScheduleInput: Schedule:Day:Interval=\"SCHEDULE DAY 57\", Blank Schedule Type Limits Name input -- will not be validated.\n   ** Warning ** ProcessScheduleInput: Schedule:Day:Interval=\"SCHEDULE DAY 58\", Blank Schedule Type Limits Name input -- will not be validated.\n   ** Warning ** ProcessScheduleInput: Schedule:Day:Interval=\"SCHEDULE DAY 59\", Blank Schedule Type Limits Name input -- will not be validated.\n   ** Warning ** ProcessScheduleInput: Schedule:Day:Interval=\"SCHEDULE DAY 6\", Blank Schedule Type Limits Name input -- will not be validated.\n   ** Warning ** ProcessScheduleInput: Schedule:Day:Interval=\"SCHEDULE DAY 60\", Blank Schedule Type Limits Name input -- will not be validated.\n   ** Warning ** ProcessScheduleInput: Schedule:Day:Interval=\"SCHEDULE DAY 61\", Blank Schedule Type Limits Name input -- will not be validated.\n   ** Warning ** ProcessScheduleInput: Schedule:Day:Interval=\"SCHEDULE DAY 62\", Blank Schedule Type Limits Name input -- will not be validated.\n   ** Warning ** ProcessScheduleInput: Schedule:Day:Interval=\"SCHEDULE DAY 63\", Blank Schedule Type Limits Name input -- will not be validated.\n   ** Warning ** ProcessScheduleInput: Schedule:Day:Interval=\"SCHEDULE DAY 64\", Blank Schedule Type Limits Name input -- will not be validated.\n   ** Warning ** ProcessScheduleInput: Schedule:Day:Interval=\"SCHEDULE DAY 65\", Blank Schedule Type Limits Name input -- will not be validated.\n   ** Warning ** ProcessScheduleInput: Schedule:Day:Interval=\"SCHEDULE DAY 66\", Blank Schedule Type Limits Name input -- will not be validated.\n   ** Warning ** ProcessScheduleInput: Schedule:Day:Interval=\"SCHEDULE DAY 67\", Blank Schedule Type Limits Name input -- will not be validated.\n   ** Warning ** ProcessScheduleInput: Schedule:Day:Interval=\"SCHEDULE DAY 68\", Blank Schedule Type Limits Name input -- will not be validated.\n   ** Warning ** ProcessScheduleInput: Schedule:Day:Interval=\"SCHEDULE DAY 69\", Blank Schedule Type Limits Name input -- will not be validated.\n   ** Warning ** ProcessScheduleInput: Schedule:Day:Interval=\"SCHEDULE DAY 7\", Blank Schedule Type Limits Name input -- will not be validated.\n   ** Warning ** ProcessScheduleInput: Schedule:Day:Interval=\"SCHEDULE DAY 70\", Blank Schedule Type Limits Name input -- will not be validated.\n   ** Warning ** ProcessScheduleInput: Schedule:Day:Interval=\"SCHEDULE DAY 71\", Blank Schedule Type Limits Name input -- will not be validated.\n   ** Warning ** ProcessScheduleInput: Schedule:Day:Interval=\"SCHEDULE DAY 72\", Blank Schedule Type Limits Name input -- will not be validated.\n   ** Warning ** ProcessScheduleInput: Schedule:Day:Interval=\"SCHEDULE DAY 73\", Blank Schedule Type Limits Name input -- will not be validated.\n   ** Warning ** ProcessScheduleInput: Schedule:Day:Interval=\"SCHEDULE DAY 74\", Blank Schedule Type Limits Name input -- will not be validated.\n   ** Warning ** ProcessScheduleInput: Schedule:Day:Interval=\"SCHEDULE DAY 75\", Blank Schedule Type Limits Name input -- will not be validated.\n   ** Warning ** ProcessScheduleInput: Schedule:Day:Interval=\"SCHEDULE DAY 76\", Blank Schedule Type Limits Name input -- will not be validated.\n   ** Warning ** ProcessScheduleInput: Schedule:Day:Interval=\"SCHEDULE DAY 77\", Blank Schedule Type Limits Name input -- will not be validated.\n   ** Warning ** ProcessScheduleInput: Schedule:Day:Interval=\"SCHEDULE DAY 78\", Blank Schedule Type Limits Name input -- will not be validated.\n   ** Warning ** ProcessScheduleInput: Schedule:Day:Interval=\"SCHEDULE DAY 79\", Blank Schedule Type Limits Name input -- will not be validated.\n   ** Warning ** ProcessScheduleInput: Schedule:Day:Interval=\"SCHEDULE DAY 8\", Blank Schedule Type Limits Name input -- will not be validated.\n   ** Warning ** ProcessScheduleInput: Schedule:Day:Interval=\"SCHEDULE DAY 9\", Blank Schedule Type Limits Name input -- will not be validated.\n   ** Warning ** ProcessScheduleInput: Schedule:Year=\"ECONOMIZER MAX OA FRACTION 100 PCT\", Blank Schedule Type Limits Name input -- will not be validated.\n   ** Warning ** ProcessScheduleInput: Schedule:Year=\"SCHEDULE RULESET 10\", Blank Schedule Type Limits Name input -- will not be validated.\n   ** Warning ** ProcessScheduleInput: Schedule:Year=\"SCHEDULE RULESET 11\", Blank Schedule Type Limits Name input -- will not be validated.\n   ** Warning ** ProcessScheduleInput: Schedule:Year=\"SCHEDULE RULESET 12\", Blank Schedule Type Limits Name input -- will not be validated.\n   ** Warning ** ProcessScheduleInput: Schedule:Year=\"SCHEDULE RULESET 13\", Blank Schedule Type Limits Name input -- will not be validated.\n   ** Warning ** ProcessScheduleInput: Schedule:Year=\"SCHEDULE RULESET 14\", Blank Schedule Type Limits Name input -- will not be validated.\n   ** Warning ** ProcessScheduleInput: Schedule:Year=\"SCHEDULE RULESET 15\", Blank Schedule Type Limits Name input -- will not be validated.\n   ** Warning ** ProcessScheduleInput: Schedule:Year=\"SCHEDULE RULESET 16\", Blank Schedule Type Limits Name input -- will not be validated.\n   ** Warning ** ProcessScheduleInput: Schedule:Year=\"SCHEDULE RULESET 17\", Blank Schedule Type Limits Name input -- will not be validated.\n   ** Warning ** ProcessScheduleInput: Schedule:Year=\"SCHEDULE RULESET 18\", Blank Schedule Type Limits Name input -- will not be validated.\n   ** Warning ** ProcessScheduleInput: Schedule:Year=\"SCHEDULE RULESET 19\", Blank Schedule Type Limits Name input -- will not be validated.\n   ** Warning ** ProcessScheduleInput: Schedule:Year=\"SCHEDULE RULESET 20\", Blank Schedule Type Limits Name input -- will not be validated.\n   ** Warning ** ProcessScheduleInput: Schedule:Year=\"SCHEDULE RULESET 21\", Blank Schedule Type Limits Name input -- will not be validated.\n   ** Warning ** ProcessScheduleInput: Schedule:Year=\"SCHEDULE RULESET 22\", Blank Schedule Type Limits Name input -- will not be validated.\n   ** Warning ** ProcessScheduleInput: Schedule:Year=\"SCHEDULE RULESET 23\", Blank Schedule Type Limits Name input -- will not be validated.\n   ** Warning ** ProcessScheduleInput: Schedule:Year=\"SCHEDULE RULESET 24\", Blank Schedule Type Limits Name input -- will not be validated.\n   ** Warning ** ProcessScheduleInput: Schedule:Year=\"SCHEDULE RULESET 25\", Blank Schedule Type Limits Name input -- will not be validated.\n   ** Warning ** ProcessScheduleInput: Schedule:Year=\"SCHEDULE RULESET 26\", Blank Schedule Type Limits Name input -- will not be validated.\n   ** Warning ** ProcessScheduleInput: Schedule:Year=\"SCHEDULE RULESET 27\", Blank Schedule Type Limits Name input -- will not be validated.\n   ** Warning ** ProcessScheduleInput: Schedule:Year=\"SCHEDULE RULESET 28\", Blank Schedule Type Limits Name input -- will not be validated.\n   ** Warning ** ProcessScheduleInput: Schedule:Year=\"SCHEDULE RULESET 29\", Blank Schedule Type Limits Name input -- will not be validated.\n   ** Warning ** ProcessScheduleInput: Schedule:Year=\"SCHEDULE RULESET 3\", Blank Schedule Type Limits Name input -- will not be validated.\n   ** Warning ** ProcessScheduleInput: Schedule:Year=\"SCHEDULE RULESET 30\", Blank Schedule Type Limits Name input -- will not be validated.\n   ** Warning ** ProcessScheduleInput: Schedule:Year=\"SCHEDULE RULESET 31\", Blank Schedule Type Limits Name input -- will not be validated.\n   ** Warning ** ProcessScheduleInput: Schedule:Year=\"SCHEDULE RULESET 32\", Blank Schedule Type Limits Name input -- will not be validated.\n   ** Warning ** ProcessScheduleInput: Schedule:Year=\"SCHEDULE RULESET 33\", Blank Schedule Type Limits Name input -- will not be validated.\n   ** Warning ** ProcessScheduleInput: Schedule:Year=\"SCHEDULE RULESET 34\", Blank Schedule Type Limits Name input -- will not be validated.\n   ** Warning ** ProcessScheduleInput: Schedule:Year=\"SCHEDULE RULESET 35\", Blank Schedule Type Limits Name input -- will not be validated.\n   ** Warning ** ProcessScheduleInput: Schedule:Year=\"SCHEDULE RULESET 36\", Blank Schedule Type Limits Name input -- will not be validated.\n   ** Warning ** ProcessScheduleInput: Schedule:Year=\"SCHEDULE RULESET 37\", Blank Schedule Type Limits Name input -- will not be validated.\n   ** Warning ** ProcessScheduleInput: Schedule:Year=\"SCHEDULE RULESET 38\", Blank Schedule Type Limits Name input -- will not be validated.\n   ** Warning ** ProcessScheduleInput: Schedule:Year=\"SCHEDULE RULESET 39\", Blank Schedule Type Limits Name input -- will not be validated.\n   ** Warning ** ProcessScheduleInput: Schedule:Year=\"SCHEDULE RULESET 4\", Blank Schedule Type Limits Name input -- will not be validated.\n   ** Warning ** ProcessScheduleInput: Schedule:Year=\"SCHEDULE RULESET 40\", Blank Schedule Type Limits Name input -- will not be validated.\n   ** Warning ** ProcessScheduleInput: Schedule:Year=\"SCHEDULE RULESET 41\", Blank Schedule Type Limits Name input -- will not be validated.\n   ** Warning ** ProcessScheduleInput: Schedule:Year=\"SCHEDULE RULESET 42\", Blank Schedule Type Limits Name input -- will not be validated.\n   ** Warning ** ProcessScheduleInput: Schedule:Year=\"SCHEDULE RULESET 43\", Blank Schedule Type Limits Name input -- will not be validated.\n   ** Warning ** ProcessScheduleInput: Schedule:Year=\"SCHEDULE RULESET 44\", Blank Schedule Type Limits Name input -- will not be validated.\n   ** Warning ** ProcessScheduleInput: Schedule:Year=\"SCHEDULE RULESET 45\", Blank Schedule Type Limits Name input -- will not be validated.\n   ** Warning ** ProcessScheduleInput: Schedule:Year=\"SCHEDULE RULESET 46\", Blank Schedule Type Limits Name input -- will not be validated.\n   ** Warning ** ProcessScheduleInput: Schedule:Year=\"SCHEDULE RULESET 47\", Blank Schedule Type Limits Name input -- will not be validated.\n   ** Warning ** ProcessScheduleInput: Schedule:Year=\"SCHEDULE RULESET 48\", Blank Schedule Type Limits Name input -- will not be validated.\n   ** Warning ** ProcessScheduleInput: Schedule:Year=\"SCHEDULE RULESET 49\", Blank Schedule Type Limits Name input -- will not be validated.\n   ** Warning ** ProcessScheduleInput: Schedule:Year=\"SCHEDULE RULESET 5\", Blank Schedule Type Limits Name input -- will not be validated.\n   ** Warning ** ProcessScheduleInput: Schedule:Year=\"SCHEDULE RULESET 50\", Blank Schedule Type Limits Name input -- will not be validated.\n   ** Warning ** ProcessScheduleInput: Schedule:Year=\"SCHEDULE RULESET 51\", Blank Schedule Type Limits Name input -- will not be validated.\n   ** Warning ** ProcessScheduleInput: Schedule:Year=\"SCHEDULE RULESET 52\", Blank Schedule Type Limits Name input -- will not be validated.\n   ** Warning ** ProcessScheduleInput: Schedule:Year=\"SCHEDULE RULESET 53\", Blank Schedule Type Limits Name input -- will not be validated.\n   ** Warning ** ProcessScheduleInput: Schedule:Year=\"SCHEDULE RULESET 54\", Blank Schedule Type Limits Name input -- will not be validated.\n   ** Warning ** ProcessScheduleInput: Schedule:Year=\"SCHEDULE RULESET 55\", Blank Schedule Type Limits Name input -- will not be validated.\n   ** Warning ** ProcessScheduleInput: Schedule:Year=\"SCHEDULE RULESET 56\", Blank Schedule Type Limits Name input -- will not be validated.\n   ** Warning ** ProcessScheduleInput: Schedule:Year=\"SCHEDULE RULESET 57\", Blank Schedule Type Limits Name input -- will not be validated.\n   ** Warning ** ProcessScheduleInput: Schedule:Year=\"SCHEDULE RULESET 58\", Blank Schedule Type Limits Name input -- will not be validated.\n   ** Warning ** ProcessScheduleInput: Schedule:Year=\"SCHEDULE RULESET 59\", Blank Schedule Type Limits Name input -- will not be validated.\n   ** Warning ** ProcessScheduleInput: Schedule:Year=\"SCHEDULE RULESET 6\", Blank Schedule Type Limits Name input -- will not be validated.\n   ** Warning ** ProcessScheduleInput: Schedule:Year=\"SCHEDULE RULESET 60\", Blank Schedule Type Limits Name input -- will not be validated.\n   ** Warning ** ProcessScheduleInput: Schedule:Year=\"SCHEDULE RULESET 61\", Blank Schedule Type Limits Name input -- will not be validated.\n   ** Warning ** ProcessScheduleInput: Schedule:Year=\"SCHEDULE RULESET 62\", Blank Schedule Type Limits Name input -- will not be validated.\n   ** Warning ** ProcessScheduleInput: Schedule:Year=\"SCHEDULE RULESET 63\", Blank Schedule Type Limits Name input -- will not be validated.\n   ** Warning ** ProcessScheduleInput: Schedule:Year=\"SCHEDULE RULESET 64\", Blank Schedule Type Limits Name input -- will not be validated.\n   ** Warning ** ProcessScheduleInput: Schedule:Year=\"SCHEDULE RULESET 65\", Blank Schedule Type Limits Name input -- will not be validated.\n   ** Warning ** ProcessScheduleInput: Schedule:Year=\"SCHEDULE RULESET 66\", Blank Schedule Type Limits Name input -- will not be validated.\n   ** Warning ** ProcessScheduleInput: Schedule:Year=\"SCHEDULE RULESET 67\", Blank Schedule Type Limits Name input -- will not be validated.\n   ** Warning ** ProcessScheduleInput: Schedule:Year=\"SCHEDULE RULESET 68\", Blank Schedule Type Limits Name input -- will not be validated.\n   ** Warning ** ProcessScheduleInput: Schedule:Year=\"SCHEDULE RULESET 69\", Blank Schedule Type Limits Name input -- will not be validated.\n   ** Warning ** ProcessScheduleInput: Schedule:Year=\"SCHEDULE RULESET 7\", Blank Schedule Type Limits Name input -- will not be validated.\n   ** Warning ** ProcessScheduleInput: Schedule:Year=\"SCHEDULE RULESET 70\", Blank Schedule Type Limits Name input -- will not be validated.\n   ** Warning ** ProcessScheduleInput: Schedule:Year=\"SCHEDULE RULESET 71\", Blank Schedule Type Limits Name input -- will not be validated.\n   ** Warning ** ProcessScheduleInput: Schedule:Year=\"SCHEDULE RULESET 72\", Blank Schedule Type Limits Name input -- will not be validated.\n   ** Warning ** ProcessScheduleInput: Schedule:Year=\"SCHEDULE RULESET 73\", Blank Schedule Type Limits Name input -- will not be validated.\n   ** Warning ** ProcessScheduleInput: Schedule:Year=\"SCHEDULE RULESET 74\", Blank Schedule Type Limits Name input -- will not be validated.\n   ** Warning ** ProcessScheduleInput: Schedule:Year=\"SCHEDULE RULESET 8\", Blank Schedule Type Limits Name input -- will not be validated.\n   ** Warning ** ProcessScheduleInput: Schedule:Year=\"SCHEDULE RULESET 9\", Blank Schedule Type Limits Name input -- will not be validated.\n   ** Warning ** ProcessScheduleInput: Schedule:Constant=\"ALWAYS OFF DISCRETE\", Blank Schedule Type Limits Name input -- will not be validated.\n   ** Warning ** ProcessScheduleInput: Schedule:Constant=\"ALWAYS ON CONTINUOUS\", Blank Schedule Type Limits Name input -- will not be validated.\n   ** Warning ** CheckUsedConstructions: There are 26 nominally unused constructions in input.\n   **   ~~~   ** For explicit details on each unused construction, use Output:Diagnostics,DisplayExtraWarnings;\n   ************* Beginning System Sizing Calculations\n   ** Warning ** GetDXCoils: Coil:Cooling:DX:SingleSpeed=\"COIL COOLING DX SINGLE SPEED 24 6KBTU/HR 11.0EER\", invalid\n   **   ~~~   ** ...Part Load Fraction Correlation Curve Name = DXCOOL-NECB2011-REF-COOLPLFFPLR 16 has out of range value.\n   **   ~~~   ** ...Curve maximum must be <= 1.0, curve max at PLR = 0.99 is 1.015\n   **   ~~~   ** ...Setting curve maximum to 1.0 and simulation continues.\n   ** Warning ** GetDXCoils: Coil:Cooling:DX:SingleSpeed=\"COIL COOLING DX SINGLE SPEED 22 4KBTU/HR 11.0EER\", invalid\n   **   ~~~   ** ...Part Load Fraction Correlation Curve Name = DXCOOL-NECB2011-REF-COOLPLFFPLR 14 has out of range value.\n   **   ~~~   ** ...Curve maximum must be <= 1.0, curve max at PLR = 0.99 is 1.015\n   **   ~~~   ** ...Setting curve maximum to 1.0 and simulation continues.\n   ** Warning ** GetDXCoils: Coil:Cooling:DX:SingleSpeed=\"COIL COOLING DX SINGLE SPEED 21 4KBTU/HR 11.0EER\", invalid\n   **   ~~~   ** ...Part Load Fraction Correlation Curve Name = DXCOOL-NECB2011-REF-COOLPLFFPLR 13 has out of range value.\n   **   ~~~   ** ...Curve maximum must be <= 1.0, curve max at PLR = 0.99 is 1.015\n   **   ~~~   ** ...Setting curve maximum to 1.0 and simulation continues.\n   ** Warning ** GetDXCoils: Coil:Cooling:DX:SingleSpeed=\"COIL COOLING DX SINGLE SPEED 23 9KBTU/HR 10.7EER\", invalid\n   **   ~~~   ** ...Part Load Fraction Correlation Curve Name = DXCOOL-NECB2011-REF-COOLPLFFPLR 15 has out of range value.\n   **   ~~~   ** ...Curve maximum must be <= 1.0, curve max at PLR = 0.99 is 1.015\n   **   ~~~   ** ...Setting curve maximum to 1.0 and simulation continues.\n   ** Warning ** GetDXCoils: Coil:Cooling:DX:SingleSpeed=\"COIL COOLING DX SINGLE SPEED 20 8KBTU/HR 10.8EER\", invalid\n   **   ~~~   ** ...Part Load Fraction Correlation Curve Name = DXCOOL-NECB2011-REF-COOLPLFFPLR 12 has out of range value.\n   **   ~~~   ** ...Curve maximum must be <= 1.0, curve max at PLR = 0.99 is 1.015\n   **   ~~~   ** ...Setting curve maximum to 1.0 and simulation continues.\n   ** Warning ** GetDXCoils: Coil:Cooling:DX:SingleSpeed=\"COIL COOLING DX SINGLE SPEED 25 6KBTU/HR 11.0EER\", invalid\n   **   ~~~   ** ...Part Load Fraction Correlation Curve Name = DXCOOL-NECB2011-REF-COOLPLFFPLR 17 has out of range value.\n   **   ~~~   ** ...Curve maximum must be <= 1.0, curve max at PLR = 0.99 is 1.015\n   **   ~~~   ** ...Setting curve maximum to 1.0 and simulation continues.\n   ** Warning ** GetDXCoils: Coil:Cooling:DX:SingleSpeed=\"COIL COOLING DX SINGLE SPEED 26 6KBTU/HR 11.0EER\", invalid\n   **   ~~~   ** ...Part Load Fraction Correlation Curve Name = DXCOOL-NECB2011-REF-COOLPLFFPLR 18 has out of range value.\n   **   ~~~   ** ...Curve maximum must be <= 1.0, curve max at PLR = 0.99 is 1.015\n   **   ~~~   ** ...Setting curve maximum to 1.0 and simulation continues.\n   ** Warning ** GetDXCoils: Coil:Cooling:DX:SingleSpeed=\"COIL COOLING DX SINGLE SPEED 27 9KBTU/HR 10.6EER\", invalid\n   **   ~~~   ** ...Part Load Fraction Correlation Curve Name = DXCOOL-NECB2011-REF-COOLPLFFPLR 19 has out of range value.\n   **   ~~~   ** ...Curve maximum must be <= 1.0, curve max at PLR = 0.99 is 1.015\n   **   ~~~   ** ...Setting curve maximum to 1.0 and simulation continues.\n   ** Warning ** GetDXCoils: Coil:Cooling:DX:SingleSpeed=\"COIL COOLING DX SINGLE SPEED 6 6KBTU/HR 11.0EER\", invalid\n   **   ~~~   ** ...Part Load Fraction Correlation Curve Name = DXCOOL-NECB2011-REF-COOLPLFFPLR 24 has out of range value.\n   **   ~~~   ** ...Curve maximum must be <= 1.0, curve max at PLR = 0.99 is 1.015\n   **   ~~~   ** ...Setting curve maximum to 1.0 and simulation continues.\n   ** Warning ** GetDXCoils: Coil:Cooling:DX:SingleSpeed=\"COIL COOLING DX SINGLE SPEED 4 5KBTU/HR 11.0EER\", invalid\n   **   ~~~   ** ...Part Load Fraction Correlation Curve Name = DXCOOL-NECB2011-REF-COOLPLFFPLR 22 has out of range value.\n   **   ~~~   ** ...Curve maximum must be <= 1.0, curve max at PLR = 0.99 is 1.015\n   **   ~~~   ** ...Setting curve maximum to 1.0 and simulation continues.\n   ** Warning ** GetDXCoils: Coil:Cooling:DX:SingleSpeed=\"COIL COOLING DX SINGLE SPEED 3 5KBTU/HR 11.0EER\", invalid\n   **   ~~~   ** ...Part Load Fraction Correlation Curve Name = DXCOOL-NECB2011-REF-COOLPLFFPLR 21 has out of range value.\n   **   ~~~   ** ...Curve maximum must be <= 1.0, curve max at PLR = 0.99 is 1.015\n   **   ~~~   ** ...Setting curve maximum to 1.0 and simulation continues.\n   ** Warning ** GetDXCoils: Coil:Cooling:DX:SingleSpeed=\"COIL COOLING DX SINGLE SPEED 2 9KBTU/HR 10.6EER\", invalid\n   **   ~~~   ** ...Part Load Fraction Correlation Curve Name = DXCOOL-NECB2011-REF-COOLPLFFPLR 11 has out of range value.\n   **   ~~~   ** ...Curve maximum must be <= 1.0, curve max at PLR = 0.99 is 1.015\n   **   ~~~   ** ...Setting curve maximum to 1.0 and simulation continues.\n   ** Warning ** GetDXCoils: Coil:Cooling:DX:SingleSpeed=\"COIL COOLING DX SINGLE SPEED 5 9KBTU/HR 10.5EER\", invalid\n   **   ~~~   ** ...Part Load Fraction Correlation Curve Name = DXCOOL-NECB2011-REF-COOLPLFFPLR 23 has out of range value.\n   **   ~~~   ** ...Curve maximum must be <= 1.0, curve max at PLR = 0.99 is 1.015\n   **   ~~~   ** ...Setting curve maximum to 1.0 and simulation continues.\n   ** Warning ** GetDXCoils: Coil:Cooling:DX:SingleSpeed=\"COIL COOLING DX SINGLE SPEED 7 6KBTU/HR 11.0EER\", invalid\n   **   ~~~   ** ...Part Load Fraction Correlation Curve Name = DXCOOL-NECB2011-REF-COOLPLFFPLR 25 has out of range value.\n   **   ~~~   ** ...Curve maximum must be <= 1.0, curve max at PLR = 0.99 is 1.015\n   **   ~~~   ** ...Setting curve maximum to 1.0 and simulation continues.\n   ** Warning ** GetDXCoils: Coil:Cooling:DX:SingleSpeed=\"COIL COOLING DX SINGLE SPEED 9 6KBTU/HR 11.0EER\", invalid\n   **   ~~~   ** ...Part Load Fraction Correlation Curve Name = DXCOOL-NECB2011-REF-COOLPLFFPLR 27 has out of range value.\n   **   ~~~   ** ...Curve maximum must be <= 1.0, curve max at PLR = 0.99 is 1.015\n   **   ~~~   ** ...Setting curve maximum to 1.0 and simulation continues.\n   ** Warning ** GetDXCoils: Coil:Cooling:DX:SingleSpeed=\"COIL COOLING DX SINGLE SPEED 8 9KBTU/HR 10.6EER\", invalid\n   **   ~~~   ** ...Part Load Fraction Correlation Curve Name = DXCOOL-NECB2011-REF-COOLPLFFPLR 26 has out of range value.\n   **   ~~~   ** ...Curve maximum must be <= 1.0, curve max at PLR = 0.99 is 1.015\n   **   ~~~   ** ...Setting curve maximum to 1.0 and simulation continues.\n   ** Warning ** GetDXCoils: Coil:Cooling:DX:SingleSpeed=\"COIL COOLING DX SINGLE SPEED 10 10KBTU/HR 10.3EER\", invalid\n   **   ~~~   ** ...Part Load Fraction Correlation Curve Name = DXCOOL-NECB2011-REF-COOLPLFFPLR 1 has out of range value.\n   **   ~~~   ** ...Curve maximum must be <= 1.0, curve max at PLR = 0.99 is 1.015\n   **   ~~~   ** ...Setting curve maximum to 1.0 and simulation continues.\n   ** Warning ** GetDXCoils: Coil:Cooling:DX:SingleSpeed=\"COIL COOLING DX SINGLE SPEED 15 10KBTU/HR 10.3EER\", invalid\n   **   ~~~   ** ...Part Load Fraction Correlation Curve Name = DXCOOL-NECB2011-REF-COOLPLFFPLR 6 has out of range value.\n   **   ~~~   ** ...Curve maximum must be <= 1.0, curve max at PLR = 0.99 is 1.015\n   **   ~~~   ** ...Setting curve maximum to 1.0 and simulation continues.\n   ** Warning ** GetDXCoils: Coil:Cooling:DX:SingleSpeed=\"COIL COOLING DX SINGLE SPEED 12 9KBTU/HR 10.7EER\", invalid\n   **   ~~~   ** ...Part Load Fraction Correlation Curve Name = DXCOOL-NECB2011-REF-COOLPLFFPLR 3 has out of range value.\n   **   ~~~   ** ...Curve maximum must be <= 1.0, curve max at PLR = 0.99 is 1.015\n   **   ~~~   ** ...Setting curve maximum to 1.0 and simulation continues.\n   ** Warning ** GetDXCoils: Coil:Cooling:DX:SingleSpeed=\"COIL COOLING DX SINGLE SPEED 13 9KBTU/HR 10.7EER\", invalid\n   **   ~~~   ** ...Part Load Fraction Correlation Curve Name = DXCOOL-NECB2011-REF-COOLPLFFPLR 4 has out of range value.\n   **   ~~~   ** ...Curve maximum must be <= 1.0, curve max at PLR = 0.99 is 1.015\n   **   ~~~   ** ...Setting curve maximum to 1.0 and simulation continues.\n   ** Warning ** GetDXCoils: Coil:Cooling:DX:SingleSpeed=\"COIL COOLING DX SINGLE SPEED 14 10KBTU/HR 10.3EER\", invalid\n   **   ~~~   ** ...Part Load Fraction Correlation Curve Name = DXCOOL-NECB2011-REF-COOLPLFFPLR 5 has out of range value.\n   **   ~~~   ** ...Curve maximum must be <= 1.0, curve max at PLR = 0.99 is 1.015\n   **   ~~~   ** ...Setting curve maximum to 1.0 and simulation continues.\n   ** Warning ** GetDXCoils: Coil:Cooling:DX:SingleSpeed=\"COIL COOLING DX SINGLE SPEED 11 11KBTU/HR 10.1EER\", invalid\n   **   ~~~   ** ...Part Load Fraction Correlation Curve Name = DXCOOL-NECB2011-REF-COOLPLFFPLR 2 has out of range value.\n   **   ~~~   ** ...Curve maximum must be <= 1.0, curve max at PLR = 0.99 is 1.015\n   **   ~~~   ** ...Setting curve maximum to 1.0 and simulation continues.\n   ** Warning ** GetDXCoils: Coil:Cooling:DX:SingleSpeed=\"COIL COOLING DX SINGLE SPEED 16 9KBTU/HR 10.5EER\", invalid\n   **   ~~~   ** ...Part Load Fraction Correlation Curve Name = DXCOOL-NECB2011-REF-COOLPLFFPLR 7 has out of range value.\n   **   ~~~   ** ...Curve maximum must be <= 1.0, curve max at PLR = 0.99 is 1.015\n   **   ~~~   ** ...Setting curve maximum to 1.0 and simulation continues.\n   ** Warning ** GetDXCoils: Coil:Cooling:DX:SingleSpeed=\"COIL COOLING DX SINGLE SPEED 19 9KBTU/HR 10.5EER\", invalid\n   **   ~~~   ** ...Part Load Fraction Correlation Curve Name = DXCOOL-NECB2011-REF-COOLPLFFPLR 10 has out of range value.\n   **   ~~~   ** ...Curve maximum must be <= 1.0, curve max at PLR = 0.99 is 1.015\n   **   ~~~   ** ...Setting curve maximum to 1.0 and simulation continues.\n   ** Warning ** GetDXCoils: Coil:Cooling:DX:SingleSpeed=\"COIL COOLING DX SINGLE SPEED 18 11KBTU/HR 10.2EER\", invalid\n   **   ~~~   ** ...Part Load Fraction Correlation Curve Name = DXCOOL-NECB2011-REF-COOLPLFFPLR 9 has out of range value.\n   **   ~~~   ** ...Curve maximum must be <= 1.0, curve max at PLR = 0.99 is 1.015\n   **   ~~~   ** ...Setting curve maximum to 1.0 and simulation continues.\n   ** Warning ** GetDXCoils: Coil:Cooling:DX:SingleSpeed=\"COIL COOLING DX SINGLE SPEED 17 12KBTU/HR 9.9EER\", invalid\n   **   ~~~   ** ...Part Load Fraction Correlation Curve Name = DXCOOL-NECB2011-REF-COOLPLFFPLR 8 has out of range value.\n   **   ~~~   ** ...Curve maximum must be <= 1.0, curve max at PLR = 0.99 is 1.015\n   **   ~~~   ** ...Setting curve maximum to 1.0 and simulation continues.\n   ** Warning ** GetDXCoils: Coil:Cooling:DX:SingleSpeed=\"COIL COOLING DX SINGLE SPEED 1 63KBTU/HR 14.0SEER\", invalid\n   **   ~~~   ** ...Part Load Fraction Correlation Curve Name = DXCOOL-NECB2011-REF-COOLPLFFPLR has out of range value.\n   **   ~~~   ** ...Curve maximum must be <= 1.0, curve max at PLR = 0.99 is 1.015\n   **   ~~~   ** ...Setting curve maximum to 1.0 and simulation continues.\n   ** Warning ** GetDXCoils: Coil:Cooling:DX:SingleSpeed=\"COIL COOLING DX SINGLE SPEED 28 15KBTU/HR 14.0SEER\", invalid\n   **   ~~~   ** ...Part Load Fraction Correlation Curve Name = DXCOOL-NECB2011-REF-COOLPLFFPLR 20 has out of range value.\n   **   ~~~   ** ...Curve maximum must be <= 1.0, curve max at PLR = 0.99 is 1.015\n   **   ~~~   ** ...Setting curve maximum to 1.0 and simulation continues.\n   ************* Beginning Plant Sizing Calculations\n   ** Warning ** The Standard Ratings is calculated for Coil:Cooling:DX:SingleSpeed = COIL COOLING DX SINGLE SPEED 24 6KBTU/HR 11.0EER but not at the AHRI test condition due to curve out of bound.\n   **   ~~~   **  Review the Standard Ratings calculations in the Engineering Reference for this coil type. Also, use Output:Diagnostics, DisplayExtraWarnings for further guidance.\n   ** Warning ** The Standard Ratings is calculated for Coil:Cooling:DX:SingleSpeed = COIL COOLING DX SINGLE SPEED 22 4KBTU/HR 11.0EER but not at the AHRI test condition due to curve out of bound.\n   **   ~~~   **  Review the Standard Ratings calculations in the Engineering Reference for this coil type. Also, use Output:Diagnostics, DisplayExtraWarnings for further guidance.\n   ** Warning ** The Standard Ratings is calculated for Coil:Cooling:DX:SingleSpeed = COIL COOLING DX SINGLE SPEED 21 4KBTU/HR 11.0EER but not at the AHRI test condition due to curve out of bound.\n   **   ~~~   **  Review the Standard Ratings calculations in the Engineering Reference for this coil type. Also, use Output:Diagnostics, DisplayExtraWarnings for further guidance.\n   ** Warning ** The Standard Ratings is calculated for Coil:Cooling:DX:SingleSpeed = COIL COOLING DX SINGLE SPEED 23 9KBTU/HR 10.7EER but not at the AHRI test condition due to curve out of bound.\n   **   ~~~   **  Review the Standard Ratings calculations in the Engineering Reference for this coil type. Also, use Output:Diagnostics, DisplayExtraWarnings for further guidance.\n   ** Warning ** The Standard Ratings is calculated for Coil:Cooling:DX:SingleSpeed = COIL COOLING DX SINGLE SPEED 20 8KBTU/HR 10.8EER but not at the AHRI test condition due to curve out of bound.\n   **   ~~~   **  Review the Standard Ratings calculations in the Engineering Reference for this coil type. Also, use Output:Diagnostics, DisplayExtraWarnings for further guidance.\n   ** Warning ** The Standard Ratings is calculated for Coil:Cooling:DX:SingleSpeed = COIL COOLING DX SINGLE SPEED 25 6KBTU/HR 11.0EER but not at the AHRI test condition due to curve out of bound.\n   **   ~~~   **  Review the Standard Ratings calculations in the Engineering Reference for this coil type. Also, use Output:Diagnostics, DisplayExtraWarnings for further guidance.\n   ** Warning ** The Standard Ratings is calculated for Coil:Cooling:DX:SingleSpeed = COIL COOLING DX SINGLE SPEED 26 6KBTU/HR 11.0EER but not at the AHRI test condition due to curve out of bound.\n   **   ~~~   **  Review the Standard Ratings calculations in the Engineering Reference for this coil type. Also, use Output:Diagnostics, DisplayExtraWarnings for further guidance.\n   ** Warning ** The Standard Ratings is calculated for Coil:Cooling:DX:SingleSpeed = COIL COOLING DX SINGLE SPEED 27 9KBTU/HR 10.6EER but not at the AHRI test condition due to curve out of bound.\n   **   ~~~   **  Review the Standard Ratings calculations in the Engineering Reference for this coil type. Also, use Output:Diagnostics, DisplayExtraWarnings for further guidance.\n   ** Warning ** The Standard Ratings is calculated for Coil:Cooling:DX:SingleSpeed = COIL COOLING DX SINGLE SPEED 6 6KBTU/HR 11.0EER but not at the AHRI test condition due to curve out of bound.\n   **   ~~~   **  Review the Standard Ratings calculations in the Engineering Reference for this coil type. Also, use Output:Diagnostics, DisplayExtraWarnings for further guidance.\n   ** Warning ** The Standard Ratings is calculated for Coil:Cooling:DX:SingleSpeed = COIL COOLING DX SINGLE SPEED 4 5KBTU/HR 11.0EER but not at the AHRI test condition due to curve out of bound.\n   **   ~~~   **  Review the Standard Ratings calculations in the Engineering Reference for this coil type. Also, use Output:Diagnostics, DisplayExtraWarnings for further guidance.\n   ** Warning ** The Standard Ratings is calculated for Coil:Cooling:DX:SingleSpeed = COIL COOLING DX SINGLE SPEED 3 5KBTU/HR 11.0EER but not at the AHRI test condition due to curve out of bound.\n   **   ~~~   **  Review the Standard Ratings calculations in the Engineering Reference for this coil type. Also, use Output:Diagnostics, DisplayExtraWarnings for further guidance.\n   ** Warning ** The Standard Ratings is calculated for Coil:Cooling:DX:SingleSpeed = COIL COOLING DX SINGLE SPEED 2 9KBTU/HR 10.6EER but not at the AHRI test condition due to curve out of bound.\n   **   ~~~   **  Review the Standard Ratings calculations in the Engineering Reference for this coil type. Also, use Output:Diagnostics, DisplayExtraWarnings for further guidance.\n   ** Warning ** The Standard Ratings is calculated for Coil:Cooling:DX:SingleSpeed = COIL COOLING DX SINGLE SPEED 5 9KBTU/HR 10.5EER but not at the AHRI test condition due to curve out of bound.\n   **   ~~~   **  Review the Standard Ratings calculations in the Engineering Reference for this coil type. Also, use Output:Diagnostics, DisplayExtraWarnings for further guidance.\n   ** Warning ** The Standard Ratings is calculated for Coil:Cooling:DX:SingleSpeed = COIL COOLING DX SINGLE SPEED 7 6KBTU/HR 11.0EER but not at the AHRI test condition due to curve out of bound.\n   **   ~~~   **  Review the Standard Ratings calculations in the Engineering Reference for this coil type. Also, use Output:Diagnostics, DisplayExtraWarnings for further guidance.\n   ** Warning ** The Standard Ratings is calculated for Coil:Cooling:DX:SingleSpeed = COIL COOLING DX SINGLE SPEED 9 6KBTU/HR 11.0EER but not at the AHRI test condition due to curve out of bound.\n   **   ~~~   **  Review the Standard Ratings calculations in the Engineering Reference for this coil type. Also, use Output:Diagnostics, DisplayExtraWarnings for further guidance.\n   ** Warning ** The Standard Ratings is calculated for Coil:Cooling:DX:SingleSpeed = COIL COOLING DX SINGLE SPEED 8 9KBTU/HR 10.6EER but not at the AHRI test condition due to curve out of bound.\n   **   ~~~   **  Review the Standard Ratings calculations in the Engineering Reference for this coil type. Also, use Output:Diagnostics, DisplayExtraWarnings for further guidance.\n   ** Warning ** The Standard Ratings is calculated for Coil:Cooling:DX:SingleSpeed = COIL COOLING DX SINGLE SPEED 10 10KBTU/HR 10.3EER but not at the AHRI test condition due to curve out of bound.\n   **   ~~~   **  Review the Standard Ratings calculations in the Engineering Reference for this coil type. Also, use Output:Diagnostics, DisplayExtraWarnings for further guidance.\n   ** Warning ** The Standard Ratings is calculated for Coil:Cooling:DX:SingleSpeed = COIL COOLING DX SINGLE SPEED 15 10KBTU/HR 10.3EER but not at the AHRI test condition due to curve out of bound.\n   **   ~~~   **  Review the Standard Ratings calculations in the Engineering Reference for this coil type. Also, use Output:Diagnostics, DisplayExtraWarnings for further guidance.\n   ** Warning ** The Standard Ratings is calculated for Coil:Cooling:DX:SingleSpeed = COIL COOLING DX SINGLE SPEED 12 9KBTU/HR 10.7EER but not at the AHRI test condition due to curve out of bound.\n   **   ~~~   **  Review the Standard Ratings calculations in the Engineering Reference for this coil type. Also, use Output:Diagnostics, DisplayExtraWarnings for further guidance.\n   ** Warning ** The Standard Ratings is calculated for Coil:Cooling:DX:SingleSpeed = COIL COOLING DX SINGLE SPEED 13 9KBTU/HR 10.7EER but not at the AHRI test condition due to curve out of bound.\n   **   ~~~   **  Review the Standard Ratings calculations in the Engineering Reference for this coil type. Also, use Output:Diagnostics, DisplayExtraWarnings for further guidance.\n   ** Warning ** The Standard Ratings is calculated for Coil:Cooling:DX:SingleSpeed = COIL COOLING DX SINGLE SPEED 14 10KBTU/HR 10.3EER but not at the AHRI test condition due to curve out of bound.\n   **   ~~~   **  Review the Standard Ratings calculations in the Engineering Reference for this coil type. Also, use Output:Diagnostics, DisplayExtraWarnings for further guidance.\n   ** Warning ** The Standard Ratings is calculated for Coil:Cooling:DX:SingleSpeed = COIL COOLING DX SINGLE SPEED 11 11KBTU/HR 10.1EER but not at the AHRI test condition due to curve out of bound.\n   **   ~~~   **  Review the Standard Ratings calculations in the Engineering Reference for this coil type. Also, use Output:Diagnostics, DisplayExtraWarnings for further guidance.\n   ** Warning ** The Standard Ratings is calculated for Coil:Cooling:DX:SingleSpeed = COIL COOLING DX SINGLE SPEED 16 9KBTU/HR 10.5EER but not at the AHRI test condition due to curve out of bound.\n   **   ~~~   **  Review the Standard Ratings calculations in the Engineering Reference for this coil type. Also, use Output:Diagnostics, DisplayExtraWarnings for further guidance.\n   ** Warning ** The Standard Ratings is calculated for Coil:Cooling:DX:SingleSpeed = COIL COOLING DX SINGLE SPEED 19 9KBTU/HR 10.5EER but not at the AHRI test condition due to curve out of bound.\n   **   ~~~   **  Review the Standard Ratings calculations in the Engineering Reference for this coil type. Also, use Output:Diagnostics, DisplayExtraWarnings for further guidance.\n   ** Warning ** The Standard Ratings is calculated for Coil:Cooling:DX:SingleSpeed = COIL COOLING DX SINGLE SPEED 18 11KBTU/HR 10.2EER but not at the AHRI test condition due to curve out of bound.\n   **   ~~~   **  Review the Standard Ratings calculations in the Engineering Reference for this coil type. Also, use Output:Diagnostics, DisplayExtraWarnings for further guidance.\n   ** Warning ** The Standard Ratings is calculated for Coil:Cooling:DX:SingleSpeed = COIL COOLING DX SINGLE SPEED 17 12KBTU/HR 9.9EER but not at the AHRI test condition due to curve out of bound.\n   **   ~~~   **  Review the Standard Ratings calculations in the Engineering Reference for this coil type. Also, use Output:Diagnostics, DisplayExtraWarnings for further guidance.\n   ** Warning ** The Standard Ratings is calculated for Coil:Cooling:DX:SingleSpeed = COIL COOLING DX SINGLE SPEED 1 63KBTU/HR 14.0SEER but not at the AHRI test condition due to curve out of bound.\n   **   ~~~   **  Review the Standard Ratings calculations in the Engineering Reference for this coil type. Also, use Output:Diagnostics, DisplayExtraWarnings for further guidance.\n   ** Warning ** The Standard Ratings is calculated for Coil:Cooling:DX:SingleSpeed = COIL COOLING DX SINGLE SPEED 28 15KBTU/HR 14.0SEER but not at the AHRI test condition due to curve out of bound.\n   **   ~~~   **  Review the Standard Ratings calculations in the Engineering Reference for this coil type. Also, use Output:Diagnostics, DisplayExtraWarnings for further guidance.\n   ** Warning ** Output:Meter: invalid Name=\"DISTRICTCOOLING:FACILITY\" - not found.\n   ** Warning ** Output:Meter: invalid Name=\"DISTRICTHEATING:FACILITY\" - not found.\n   ** Warning ** Output:Meter:MeterFileOnly requested for \"Electricity:Facility\" (TimeStep), already on \"Output:Meter\". Will report to both eplusout.eso and eplusout.mtr\n   ************* Testing Individual Branch Integrity\n   ************* All Branches passed integrity testing\n   ************* Testing Individual Supply Air Path Integrity\n   ************* All Supply Air Paths passed integrity testing\n   ************* Testing Individual Return Air Path Integrity\n   ************* All Return Air Paths passed integrity testing\n   ************* No node connection errors were found.\n   ************* Beginning Simulation\n   ** Warning ** CalcDoe2DXCoil: Coil:Cooling:DX:SingleSpeed \"COIL COOLING DX SINGLE SPEED 27 9KBTU/HR 10.6EER\" - Air-cooled condenser inlet dry-bulb temperature below 0 C. Outdoor dry-bulb temperature = -0.28\n   **   ~~~   **  ... Occurrence info = RUN PERIOD 1, 01/01 15:08 - 15:15\n   **   ~~~   ** ... Operation at low ambient temperatures may require special performance curves.\n   ** Warning ** CalcDoe2DXCoil: Coil:Cooling:DX:SingleSpeed \"COIL COOLING DX SINGLE SPEED 26 6KBTU/HR 11.0EER\" - Air-cooled condenser inlet dry-bulb temperature below 0 C. Outdoor dry-bulb temperature = -0.83\n   **   ~~~   **  ... Occurrence info = RUN PERIOD 1, 01/01 15:30 - 15:45\n   **   ~~~   ** ... Operation at low ambient temperatures may require special performance curves.\n   ** Warning ** CalcDoe2DXCoil: Coil:Cooling:DX:SingleSpeed \"COIL COOLING DX SINGLE SPEED 25 6KBTU/HR 11.0EER\" - Air-cooled condenser inlet dry-bulb temperature below 0 C. Outdoor dry-bulb temperature = -10.00\n   **   ~~~   **  ... Occurrence info = RUN PERIOD 1, 01/04 11:53 - 12:00\n   **   ~~~   ** ... Operation at low ambient temperatures may require special performance curves.\n   ** Warning ** CalcDoe2DXCoil: Coil:Cooling:DX:SingleSpeed \"COIL COOLING DX SINGLE SPEED 25 6KBTU/HR 11.0EER\" - Full load outlet air dry-bulb temperature < 2C. This indicates the possibility of coil frost/freeze. Outlet temperature = 0.49 C.\n   **   ~~~   **  ...Occurrence info = RUN PERIOD 1, 01/04 11:53 - 12:00\n   **   ~~~   ** ... Possible reasons for low outlet air dry-bulb temperatures are: This DX coil\n   **   ~~~   **    1) may have a low inlet air dry-bulb temperature. Inlet air temperature = 13.236 C.\n   **   ~~~   **    2) may have a low air flow rate per watt of cooling capacity. Check inputs.\n   **   ~~~   **    3) is used as part of a HX assisted cooling coil which uses a high sensible effectiveness. Check inputs.\n   ** Warning ** CalcDoe2DXCoil: Coil:Cooling:DX:SingleSpeed \"COIL COOLING DX SINGLE SPEED 26 6KBTU/HR 11.0EER\" - Full load outlet air dry-bulb temperature < 2C. This indicates the possibility of coil frost/freeze. Outlet temperature = 1.03 C.\n   **   ~~~   **  ...Occurrence info = RUN PERIOD 1, 01/04 11:53 - 12:00\n   **   ~~~   ** ... Possible reasons for low outlet air dry-bulb temperatures are: This DX coil\n   **   ~~~   **    1) may have a low inlet air dry-bulb temperature. Inlet air temperature = 13.770 C.\n   **   ~~~   **    2) may have a low air flow rate per watt of cooling capacity. Check inputs.\n   **   ~~~   **    3) is used as part of a HX assisted cooling coil which uses a high sensible effectiveness. Check inputs.\n   ** Warning ** CalcDoe2DXCoil: Coil:Cooling:DX:SingleSpeed \"COIL COOLING DX SINGLE SPEED 7 6KBTU/HR 11.0EER\" - Air-cooled condenser inlet dry-bulb temperature below 0 C. Outdoor dry-bulb temperature = -10.83\n   **   ~~~   **  ... Occurrence info = RUN PERIOD 1, 01/04 12:30 - 12:38\n   **   ~~~   ** ... Operation at low ambient temperatures may require special performance curves.\n   ** Warning ** CalcDoe2DXCoil: Coil:Cooling:DX:SingleSpeed \"COIL COOLING DX SINGLE SPEED 7 6KBTU/HR 11.0EER\" - Full load outlet air dry-bulb temperature < 2C. This indicates the possibility of coil frost/freeze. Outlet temperature = 1.60 C.\n   **   ~~~   **  ...Occurrence info = RUN PERIOD 1, 01/04 12:30 - 12:38\n   **   ~~~   ** ... Possible reasons for low outlet air dry-bulb temperatures are: This DX coil\n   **   ~~~   **    1) may have a low inlet air dry-bulb temperature. Inlet air temperature = 14.349 C.\n   **   ~~~   **    2) may have a low air flow rate per watt of cooling capacity. Check inputs.\n   **   ~~~   **    3) is used as part of a HX assisted cooling coil which uses a high sensible effectiveness. Check inputs.\n   ** Warning ** CalcDoe2DXCoil: Coil:Cooling:DX:SingleSpeed \"COIL COOLING DX SINGLE SPEED 9 6KBTU/HR 11.0EER\" - Air-cooled condenser inlet dry-bulb temperature below 0 C. Outdoor dry-bulb temperature = -10.83\n   **   ~~~   **  ... Occurrence info = RUN PERIOD 1, 01/04 12:30 - 12:38\n   **   ~~~   ** ... Operation at low ambient temperatures may require special performance curves.\n   ** Warning ** CalcDoe2DXCoil: Coil:Cooling:DX:SingleSpeed \"COIL COOLING DX SINGLE SPEED 9 6KBTU/HR 11.0EER\" - Full load outlet air dry-bulb temperature < 2C. This indicates the possibility of coil frost/freeze. Outlet temperature = 1.77 C.\n   **   ~~~   **  ...Occurrence info = RUN PERIOD 1, 01/04 12:30 - 12:38\n   **   ~~~   ** ... Possible reasons for low outlet air dry-bulb temperatures are: This DX coil\n   **   ~~~   **    1) may have a low inlet air dry-bulb temperature. Inlet air temperature = 14.523 C.\n   **   ~~~   **    2) may have a low air flow rate per watt of cooling capacity. Check inputs.\n   **   ~~~   **    3) is used as part of a HX assisted cooling coil which uses a high sensible effectiveness. Check inputs.\n   ** Warning ** CalcDoe2DXCoil: Coil:Cooling:DX:SingleSpeed \"COIL COOLING DX SINGLE SPEED 8 9KBTU/HR 10.6EER\" - Air-cooled condenser inlet dry-bulb temperature below 0 C. Outdoor dry-bulb temperature = -11.65\n   **   ~~~   **  ... Occurrence info = RUN PERIOD 1, 01/04 13:00 - 13:08\n   **   ~~~   ** ... Operation at low ambient temperatures may require special performance curves.\n   ** Warning ** CalcDoe2DXCoil: Coil:Cooling:DX:SingleSpeed \"COIL COOLING DX SINGLE SPEED 10 10KBTU/HR 10.3EER\" - Air-cooled condenser inlet dry-bulb temperature below 0 C. Outdoor dry-bulb temperature = -12.20\n   **   ~~~   **  ... Occurrence info = RUN PERIOD 1, 01/04 13:15 - 13:30\n   **   ~~~   ** ... Operation at low ambient temperatures may require special performance curves.\n   ** Warning ** CalcDoe2DXCoil: Coil:Cooling:DX:SingleSpeed \"COIL COOLING DX SINGLE SPEED 19 9KBTU/HR 10.5EER\" - Air-cooled condenser inlet dry-bulb temperature below 0 C. Outdoor dry-bulb temperature = -15.55\n   **   ~~~   **  ... Occurrence info = RUN PERIOD 1, 01/05 12:15 - 12:22\n   **   ~~~   ** ... Operation at low ambient temperatures may require special performance curves.\n   ** Warning ** CalcDoe2DXCoil: Coil:Cooling:DX:SingleSpeed \"COIL COOLING DX SINGLE SPEED 16 9KBTU/HR 10.5EER\" - Air-cooled condenser inlet dry-bulb temperature below 0 C. Outdoor dry-bulb temperature = -15.55\n   **   ~~~   **  ... Occurrence info = RUN PERIOD 1, 01/05 12:23 - 12:30\n   **   ~~~   ** ... Operation at low ambient temperatures may require special performance curves.\n   ** Warning ** CalcDoe2DXCoil: Coil:Cooling:DX:SingleSpeed \"COIL COOLING DX SINGLE SPEED 18 11KBTU/HR 10.2EER\" - Air-cooled condenser inlet dry-bulb temperature below 0 C. Outdoor dry-bulb temperature = -15.55\n   **   ~~~   **  ... Occurrence info = RUN PERIOD 1, 01/05 12:23 - 12:30\n   **   ~~~   ** ... Operation at low ambient temperatures may require special performance curves.\n   ** Warning ** CalcDoe2DXCoil: Coil:Cooling:DX:SingleSpeed \"COIL COOLING DX SINGLE SPEED 17 12KBTU/HR 9.9EER\" - Air-cooled condenser inlet dry-bulb temperature below 0 C. Outdoor dry-bulb temperature = -13.73\n   **   ~~~   **  ... Occurrence info = RUN PERIOD 1, 01/05 13:00 - 13:15\n   **   ~~~   ** ... Operation at low ambient temperatures may require special performance curves.\n   ** Warning ** CalcDoe2DXCoil: Coil:Cooling:DX:SingleSpeed \"COIL COOLING DX SINGLE SPEED 28 15KBTU/HR 14.0SEER\" - Full load outlet air dry-bulb temperature < 2C. This indicates the possibility of coil frost/freeze. Outlet temperature = 0.42 C.\n   **   ~~~   **  ...Occurrence info = RUN PERIOD 1, 01/08 10:02 - 10:05\n   **   ~~~   ** ... Possible reasons for low outlet air dry-bulb temperatures are: This DX coil\n   **   ~~~   **    1) may have a low inlet air dry-bulb temperature. Inlet air temperature = 12.090 C.\n   **   ~~~   **    2) may have a low air flow rate per watt of cooling capacity. Check inputs.\n   **   ~~~   **    3) is used as part of a HX assisted cooling coil which uses a high sensible effectiveness. Check inputs.\n   ** Warning ** CalcDoe2DXCoil: Coil:Cooling:DX:SingleSpeed \"COIL COOLING DX SINGLE SPEED 6 6KBTU/HR 11.0EER\" - Air-cooled condenser inlet dry-bulb temperature below 0 C. Outdoor dry-bulb temperature = -0.28\n   **   ~~~   **  ... Occurrence info = RUN PERIOD 1, 01/16 15:00 - 15:15\n   **   ~~~   ** ... Operation at low ambient temperatures may require special performance curves.\n   ** Warning ** CalcDoe2DXCoil: Coil:Cooling:DX:SingleSpeed \"COIL COOLING DX SINGLE SPEED 24 6KBTU/HR 11.0EER\" - Air-cooled condenser inlet dry-bulb temperature below 0 C. Outdoor dry-bulb temperature = -8.30\n   **   ~~~   **  ... Occurrence info = RUN PERIOD 1, 02/11 13:45 - 14:00\n   **   ~~~   ** ... Operation at low ambient temperatures may require special performance curves.\n   ** Warning ** CalcDoe2DXCoil: Coil:Cooling:DX:SingleSpeed \"COIL COOLING DX SINGLE SPEED 15 10KBTU/HR 10.3EER\" - Air-cooled condenser inlet dry-bulb temperature below 0 C. Outdoor dry-bulb temperature = -4.00\n   **   ~~~   **  ... Occurrence info = RUN PERIOD 1, 02/17 13:45 - 14:00\n   **   ~~~   ** ... Operation at low ambient temperatures may require special performance curves.\n   ** Warning ** CalcDoe2DXCoil: Coil:Cooling:DX:SingleSpeed \"COIL COOLING DX SINGLE SPEED 20 8KBTU/HR 10.8EER\" - Air-cooled condenser inlet dry-bulb temperature below 0 C. Outdoor dry-bulb temperature = -2.40\n   **   ~~~   **  ... Occurrence info = RUN PERIOD 1, 02/17 15:45 - 16:00\n   **   ~~~   ** ... Operation at low ambient temperatures may require special performance curves.\n   ** Warning ** CalcDoe2DXCoil: Coil:Cooling:DX:SingleSpeed \"COIL COOLING DX SINGLE SPEED 5 9KBTU/HR 10.5EER\" - Air-cooled condenser inlet dry-bulb temperature below 0 C. Outdoor dry-bulb temperature = -2.40\n   **   ~~~   **  ... Occurrence info = RUN PERIOD 1, 02/17 16:15 - 16:30\n   **   ~~~   ** ... Operation at low ambient temperatures may require special performance curves.\n   ** Warning ** CalcDoe2DXCoil: Coil:Cooling:DX:SingleSpeed \"COIL COOLING DX SINGLE SPEED 11 11KBTU/HR 10.1EER\" - Air-cooled condenser inlet dry-bulb temperature below 0 C. Outdoor dry-bulb temperature = -2.40\n   **   ~~~   **  ... Occurrence info = RUN PERIOD 1, 02/17 16:30 - 16:45\n   **   ~~~   ** ... Operation at low ambient temperatures may require special performance curves.\n   ** Warning ** CalcDoe2DXCoil: Coil:Cooling:DX:SingleSpeed \"COIL COOLING DX SINGLE SPEED 4 5KBTU/HR 11.0EER\" - Air-cooled condenser inlet dry-bulb temperature below 0 C. Outdoor dry-bulb temperature = -3.58\n   **   ~~~   **  ... Occurrence info = RUN PERIOD 1, 03/02 19:00 - 19:15\n   **   ~~~   ** ... Operation at low ambient temperatures may require special performance curves.\n   ** Warning ** CalcDoe2DXCoil: Coil:Cooling:DX:SingleSpeed \"COIL COOLING DX SINGLE SPEED 4 5KBTU/HR 11.0EER\" - Full load outlet air dry-bulb temperature < 2C. This indicates the possibility of coil frost/freeze. Outlet temperature = 1.84 C.\n   **   ~~~   **  ...Occurrence info = RUN PERIOD 1, 03/02 19:00 - 19:15\n   **   ~~~   ** ... Possible reasons for low outlet air dry-bulb temperatures are: This DX coil\n   **   ~~~   **    1) may have a low inlet air dry-bulb temperature. Inlet air temperature = 14.360 C.\n   **   ~~~   **    2) may have a low air flow rate per watt of cooling capacity. Check inputs.\n   **   ~~~   **    3) is used as part of a HX assisted cooling coil which uses a high sensible effectiveness. Check inputs.\n   ** Warning ** CalcDoe2DXCoil: Coil:Cooling:DX:SingleSpeed \"COIL COOLING DX SINGLE SPEED 3 5KBTU/HR 11.0EER\" - Air-cooled condenser inlet dry-bulb temperature below 0 C. Outdoor dry-bulb temperature = -3.85\n   **   ~~~   **  ... Occurrence info = RUN PERIOD 1, 03/02 19:15 - 19:30\n   **   ~~~   ** ... Operation at low ambient temperatures may require special performance curves.\n   ** Warning ** CalcDoe2DXCoil: Coil:Cooling:DX:SingleSpeed \"COIL COOLING DX SINGLE SPEED 3 5KBTU/HR 11.0EER\" - Full load outlet air dry-bulb temperature < 2C. This indicates the possibility of coil frost/freeze. Outlet temperature = 1.89 C.\n   **   ~~~   **  ...Occurrence info = RUN PERIOD 1, 03/02 19:15 - 19:30\n   **   ~~~   ** ... Possible reasons for low outlet air dry-bulb temperatures are: This DX coil\n   **   ~~~   **    1) may have a low inlet air dry-bulb temperature. Inlet air temperature = 14.328 C.\n   **   ~~~   **    2) may have a low air flow rate per watt of cooling capacity. Check inputs.\n   **   ~~~   **    3) is used as part of a HX assisted cooling coil which uses a high sensible effectiveness. Check inputs.\n   ** Warning ** CalcDoe2DXCoil: Coil:Cooling:DX:SingleSpeed \"COIL COOLING DX SINGLE SPEED 23 9KBTU/HR 10.7EER\" - Air-cooled condenser inlet dry-bulb temperature below 0 C. Outdoor dry-bulb temperature = -3.63\n   **   ~~~   **  ... Occurrence info = RUN PERIOD 1, 03/17 10:00 - 10:05\n   **   ~~~   ** ... Operation at low ambient temperatures may require special performance curves.\n   ** Warning ** CalcDoe2DXCoil: Coil:Cooling:DX:SingleSpeed \"COIL COOLING DX SINGLE SPEED 2 9KBTU/HR 10.6EER\" - Air-cooled condenser inlet dry-bulb temperature below 0 C. Outdoor dry-bulb temperature = -3.08\n   **   ~~~   **  ... Occurrence info = RUN PERIOD 1, 03/17 10:30 - 10:38\n   **   ~~~   ** ... Operation at low ambient temperatures may require special performance curves.\n   ************* Simulation Error Summary *************\n   ************* There are 9 unused schedules in input.\n   ************* There are 9 unused week schedules in input.\n   ************* There are 17 unused day schedules in input.\n   ************* Use Output:Diagnostics,DisplayUnusedSchedules; to see them.\n   *************\n   ************* ===== Recurring Error Summary =====\n   ************* The following recurring error messages occurred.\n   *************\n   *************  ** Warning ** CalcDoe2DXCoil: Coil:Cooling:DX:SingleSpeed=\"COIL COOLING DX SINGLE SPEED 27 9KBTU/HR 10.6EER\" - Low condenser dry-bulb temperature error continues...\n   *************  **   ~~~   **   This error occurred 1712 total times;\n   *************  **   ~~~   **   during Warmup 0 times;\n   *************  **   ~~~   **   during Sizing 0 times.\n   *************  **   ~~~   **   Max=-5.000000E-002 [C]  Min=-20.3 [C]\n   *************\n   *************  ** Warning ** CalcDoe2DXCoil: Coil:Cooling:DX:SingleSpeed=\"COIL COOLING DX SINGLE SPEED 26 6KBTU/HR 11.0EER\" - Low condenser dry-bulb temperature error continues...\n   *************  **   ~~~   **   This error occurred 2020 total times;\n   *************  **   ~~~   **   during Warmup 0 times;\n   *************  **   ~~~   **   during Sizing 0 times.\n   *************  **   ~~~   **   Max=-5.000000E-002 [C]  Min=-20.6 [C]\n   *************\n   *************  ** Warning ** CalcDoe2DXCoil: Coil:Cooling:DX:SingleSpeed=\"COIL COOLING DX SINGLE SPEED 25 6KBTU/HR 11.0EER\" - Low condenser dry-bulb temperature error continues...\n   *************  **   ~~~   **   This error occurred 2056 total times;\n   *************  **   ~~~   **   during Warmup 0 times;\n   *************  **   ~~~   **   during Sizing 0 times.\n   *************  **   ~~~   **   Max=-5.000000E-002 [C]  Min=-20.6 [C]\n   *************\n   *************  ** Warning ** CalcDoe2DXCoil: Coil:Cooling:DX:SingleSpeed=\"COIL COOLING DX SINGLE SPEED 25 6KBTU/HR 11.0EER\" - Full load outlet temperature indicates a possibility of frost/freeze error continues. Outlet air temperature statistics follow:\n   *************  **   ~~~   **   This error occurred 1116 total times;\n   *************  **   ~~~   **   during Warmup 0 times;\n   *************  **   ~~~   **   during Sizing 0 times.\n   *************  **   ~~~   **   Max=1.999143  Min=-2.855685\n   *************\n   *************  ** Warning ** CalcDoe2DXCoil: Coil:Cooling:DX:SingleSpeed=\"COIL COOLING DX SINGLE SPEED 26 6KBTU/HR 11.0EER\" - Full load outlet temperature indicates a possibility of frost/freeze error continues. Outlet air temperature statistics follow:\n   *************  **   ~~~   **   This error occurred 906 total times;\n   *************  **   ~~~   **   during Warmup 0 times;\n   *************  **   ~~~   **   during Sizing 0 times.\n   *************  **   ~~~   **   Max=1.99928  Min=-2.288136\n   *************\n   *************  ** Warning ** CalcDoe2DXCoil: Coil:Cooling:DX:SingleSpeed=\"COIL COOLING DX SINGLE SPEED 7 6KBTU/HR 11.0EER\" - Low condenser dry-bulb temperature error continues...\n   *************  **   ~~~   **   This error occurred 3242 total times;\n   *************  **   ~~~   **   during Warmup 0 times;\n   *************  **   ~~~   **   during Sizing 0 times.\n   *************  **   ~~~   **   Max=-2.775558E-017 [C]  Min=-24.2 [C]\n   *************\n   *************  ** Warning ** CalcDoe2DXCoil: Coil:Cooling:DX:SingleSpeed=\"COIL COOLING DX SINGLE SPEED 7 6KBTU/HR 11.0EER\" - Full load outlet temperature indicates a possibility of frost/freeze error continues. Outlet air temperature statistics follow:\n   *************  **   ~~~   **   This error occurred 829 total times;\n   *************  **   ~~~   **   during Warmup 0 times;\n   *************  **   ~~~   **   during Sizing 0 times.\n   *************  **   ~~~   **   Max=1.999549  Min=-1.862548\n   *************\n   *************  ** Warning ** CalcDoe2DXCoil: Coil:Cooling:DX:SingleSpeed=\"COIL COOLING DX SINGLE SPEED 9 6KBTU/HR 11.0EER\" - Low condenser dry-bulb temperature error continues...\n   *************  **   ~~~   **   This error occurred 3231 total times;\n   *************  **   ~~~   **   during Warmup 0 times;\n   *************  **   ~~~   **   during Sizing 0 times.\n   *************  **   ~~~   **   Max=-2.775558E-017 [C]  Min=-24.2 [C]\n   *************\n   *************  ** Warning ** CalcDoe2DXCoil: Coil:Cooling:DX:SingleSpeed=\"COIL COOLING DX SINGLE SPEED 9 6KBTU/HR 11.0EER\" - Full load outlet temperature indicates a possibility of frost/freeze error continues. Outlet air temperature statistics follow:\n   *************  **   ~~~   **   This error occurred 746 total times;\n   *************  **   ~~~   **   during Warmup 0 times;\n   *************  **   ~~~   **   during Sizing 0 times.\n   *************  **   ~~~   **   Max=1.99928  Min=-1.644372\n   *************\n   *************  ** Warning ** CalcDoe2DXCoil: Coil:Cooling:DX:SingleSpeed=\"COIL COOLING DX SINGLE SPEED 8 9KBTU/HR 10.6EER\" - Low condenser dry-bulb temperature error continues...\n   *************  **   ~~~   **   This error occurred 2177 total times;\n   *************  **   ~~~   **   during Warmup 0 times;\n   *************  **   ~~~   **   during Sizing 0 times.\n   *************  **   ~~~   **   Max=-2.775558E-017 [C]  Min=-20.45 [C]\n   *************\n   *************  ** Warning ** CalcDoe2DXCoil: Coil:Cooling:DX:SingleSpeed=\"COIL COOLING DX SINGLE SPEED 10 10KBTU/HR 10.3EER\" - Low condenser dry-bulb temperature error continues...\n   *************  **   ~~~   **   This error occurred 2150 total times;\n   *************  **   ~~~   **   during Warmup 0 times;\n   *************  **   ~~~   **   during Sizing 0 times.\n   *************  **   ~~~   **   Max=-2.775558E-017 [C]  Min=-20.95 [C]\n   *************\n   *************  ** Warning ** CalcDoe2DXCoil: Coil:Cooling:DX:SingleSpeed=\"COIL COOLING DX SINGLE SPEED 19 9KBTU/HR 10.5EER\" - Low condenser dry-bulb temperature error continues...\n   *************  **   ~~~   **   This error occurred 955 total times;\n   *************  **   ~~~   **   during Warmup 0 times;\n   *************  **   ~~~   **   during Sizing 0 times.\n   *************  **   ~~~   **   Max=-5.000000E-002 [C]  Min=-19.45 [C]\n   *************\n   *************  ** Warning ** CalcDoe2DXCoil: Coil:Cooling:DX:SingleSpeed=\"COIL COOLING DX SINGLE SPEED 16 9KBTU/HR 10.5EER\" - Low condenser dry-bulb temperature error continues...\n   *************  **   ~~~   **   This error occurred 953 total times;\n   *************  **   ~~~   **   during Warmup 0 times;\n   *************  **   ~~~   **   during Sizing 0 times.\n   *************  **   ~~~   **   Max=-5.000000E-002 [C]  Min=-19.45 [C]\n   *************\n   *************  ** Warning ** CalcDoe2DXCoil: Coil:Cooling:DX:SingleSpeed=\"COIL COOLING DX SINGLE SPEED 18 11KBTU/HR 10.2EER\" - Low condenser dry-bulb temperature error continues...\n   *************  **   ~~~   **   This error occurred 967 total times;\n   *************  **   ~~~   **   during Warmup 0 times;\n   *************  **   ~~~   **   during Sizing 0 times.\n   *************  **   ~~~   **   Max=-0.15 [C]  Min=-19.175 [C]\n   *************\n   *************  ** Warning ** CalcDoe2DXCoil: Coil:Cooling:DX:SingleSpeed=\"COIL COOLING DX SINGLE SPEED 17 12KBTU/HR 9.9EER\" - Low condenser dry-bulb temperature error continues...\n   *************  **   ~~~   **   This error occurred 864 total times;\n   *************  **   ~~~   **   during Warmup 0 times;\n   *************  **   ~~~   **   during Sizing 0 times.\n   *************  **   ~~~   **   Max=-5.000000E-002 [C]  Min=-18.625 [C]\n   *************\n   *************  ** Warning ** CalcDoe2DXCoil: Coil:Cooling:DX:SingleSpeed=\"COIL COOLING DX SINGLE SPEED 28 15KBTU/HR 14.0SEER\" - Full load outlet temperature indicates a possibility of frost/freeze error continues. Outlet air temperature statistics follow:\n   *************  **   ~~~   **   This error occurred 477 total times;\n   *************  **   ~~~   **   during Warmup 0 times;\n   *************  **   ~~~   **   during Sizing 0 times.\n   *************  **   ~~~   **   Max=1.990694  Min=-3.033353\n   *************\n   *************  ** Warning ** CalcDoe2DXCoil: Coil:Cooling:DX:SingleSpeed=\"COIL COOLING DX SINGLE SPEED 6 6KBTU/HR 11.0EER\" - Low condenser dry-bulb temperature error continues...\n   *************  **   ~~~   **   This error occurred 901 total times;\n   *************  **   ~~~   **   during Warmup 0 times;\n   *************  **   ~~~   **   during Sizing 0 times.\n   *************  **   ~~~   **   Max=-5.000000E-002 [C]  Min=-11.475 [C]\n   *************\n   *************  ** Warning ** CalcDoe2DXCoil: Coil:Cooling:DX:SingleSpeed=\"COIL COOLING DX SINGLE SPEED 24 6KBTU/HR 11.0EER\" - Low condenser dry-bulb temperature error continues...\n   *************  **   ~~~   **   This error occurred 159 total times;\n   *************  **   ~~~   **   during Warmup 0 times;\n   *************  **   ~~~   **   during Sizing 0 times.\n   *************  **   ~~~   **   Max=-5.000000E-002 [C]  Min=-8.3 [C]\n   *************\n   *************  ** Warning ** CalcDoe2DXCoil: Coil:Cooling:DX:SingleSpeed=\"COIL COOLING DX SINGLE SPEED 15 10KBTU/HR 10.3EER\" - Low condenser dry-bulb temperature error continues...\n   *************  **   ~~~   **   This error occurred 54 total times;\n   *************  **   ~~~   **   during Warmup 0 times;\n   *************  **   ~~~   **   during Sizing 0 times.\n   *************  **   ~~~   **   Max=-0.15 [C]  Min=-4. [C]\n   *************\n   *************  ** Warning ** CalcDoe2DXCoil: Coil:Cooling:DX:SingleSpeed=\"COIL COOLING DX SINGLE SPEED 20 8KBTU/HR 10.8EER\" - Low condenser dry-bulb temperature error continues...\n   *************  **   ~~~   **   This error occurred 86 total times;\n   *************  **   ~~~   **   during Warmup 0 times;\n   *************  **   ~~~   **   during Sizing 0 times.\n   *************  **   ~~~   **   Max=-5.000000E-002 [C]  Min=-4.425 [C]\n   *************\n   *************  ** Warning ** CalcDoe2DXCoil: Coil:Cooling:DX:SingleSpeed=\"COIL COOLING DX SINGLE SPEED 5 9KBTU/HR 10.5EER\" - Low condenser dry-bulb temperature error continues...\n   *************  **   ~~~   **   This error occurred 191 total times;\n   *************  **   ~~~   **   during Warmup 0 times;\n   *************  **   ~~~   **   during Sizing 0 times.\n   *************  **   ~~~   **   Max=-5.000000E-002 [C]  Min=-8.075 [C]\n   *************\n   *************  ** Warning ** CalcDoe2DXCoil: Coil:Cooling:DX:SingleSpeed=\"COIL COOLING DX SINGLE SPEED 11 11KBTU/HR 10.1EER\" - Low condenser dry-bulb temperature error continues...\n   *************  **   ~~~   **   This error occurred 29 total times;\n   *************  **   ~~~   **   during Warmup 0 times;\n   *************  **   ~~~   **   during Sizing 0 times.\n   *************  **   ~~~   **   Max=-0.15 [C]  Min=-3.15 [C]\n   *************\n   *************  ** Warning ** CalcDoe2DXCoil: Coil:Cooling:DX:SingleSpeed=\"COIL COOLING DX SINGLE SPEED 4 5KBTU/HR 11.0EER\" - Low condenser dry-bulb temperature error continues...\n   *************  **   ~~~   **   This error occurred 129 total times;\n   *************  **   ~~~   **   during Warmup 0 times;\n   *************  **   ~~~   **   during Sizing 0 times.\n   *************  **   ~~~   **   Max=-0.15 [C]  Min=-10.6 [C]\n   *************\n   *************  ** Warning ** CalcDoe2DXCoil: Coil:Cooling:DX:SingleSpeed=\"COIL COOLING DX SINGLE SPEED 4 5KBTU/HR 11.0EER\" - Full load outlet temperature indicates a possibility of frost/freeze error continues. Outlet air temperature statistics follow:\n   *************  **   ~~~   **   This error occurred 34 total times;\n   *************  **   ~~~   **   during Warmup 0 times;\n   *************  **   ~~~   **   during Sizing 0 times.\n   *************  **   ~~~   **   Max=1.953202  Min=-0.701266\n   *************\n   *************  ** Warning ** CalcDoe2DXCoil: Coil:Cooling:DX:SingleSpeed=\"COIL COOLING DX SINGLE SPEED 3 5KBTU/HR 11.0EER\" - Low condenser dry-bulb temperature error continues...\n   *************  **   ~~~   **   This error occurred 103 total times;\n   *************  **   ~~~   **   during Warmup 0 times;\n   *************  **   ~~~   **   during Sizing 0 times.\n   *************  **   ~~~   **   Max=-0.15 [C]  Min=-8.5 [C]\n   *************\n   *************  ** Warning ** CalcDoe2DXCoil: Coil:Cooling:DX:SingleSpeed=\"COIL COOLING DX SINGLE SPEED 3 5KBTU/HR 11.0EER\" - Full load outlet temperature indicates a possibility of frost/freeze error continues. Outlet air temperature statistics follow:\n   *************  **   ~~~   **   This error occurred 27 total times;\n   *************  **   ~~~   **   during Warmup 0 times;\n   *************  **   ~~~   **   during Sizing 0 times.\n   *************  **   ~~~   **   Max=1.952976  Min=3.959198E-002\n   *************\n   *************  ** Warning ** CalcDoe2DXCoil: Coil:Cooling:DX:SingleSpeed=\"COIL COOLING DX SINGLE SPEED 23 9KBTU/HR 10.7EER\" - Low condenser dry-bulb temperature error continues...\n   *************  **   ~~~   **   This error occurred 13 total times;\n   *************  **   ~~~   **   during Warmup 0 times;\n   *************  **   ~~~   **   during Sizing 0 times.\n   *************  **   ~~~   **   Max=-1.425 [C]  Min=-3.625 [C]\n   *************\n   *************  ** Warning ** CalcDoe2DXCoil: Coil:Cooling:DX:SingleSpeed=\"COIL COOLING DX SINGLE SPEED 2 9KBTU/HR 10.6EER\" - Low condenser dry-bulb temperature error continues...\n   *************  **   ~~~   **   This error occurred 34 total times;\n   *************  **   ~~~   **   during Warmup 0 times;\n   *************  **   ~~~   **   during Sizing 0 times.\n   *************  **   ~~~   **   Max=-0.15 [C]  Min=-6. [C]\n   *************\n   *************\n   ************* ===== Final Error Summary =====\n   ************* The following error categories occurred.  Consider correcting or noting.\n   ************* Nominally Unused Constructions\n   ************* ..The nominally unused constructions warning is provided to alert you to potential conditions that can cause\n   ************* ..extra time during simulation. Each construction is calculated by the algorithm indicated in the HeatBalanceAlgorithm\n   ************* ..object. You may remove the constructions indicated (when you use the DisplayExtraWarnings option).\n   *************\n   ************* EnergyPlus Warmup Error Summary. During Warmup: 0 Warning; 0 Severe Errors.\n   ************* EnergyPlus Sizing Error Summary. During Sizing: 181 Warning; 0 Severe Errors.\n   ************* EnergyPlus Completed Successfully-- 26374 Warning; 0 Severe Errors; Elapsed Time=00hr 02min 42.27sec\n",
   "file_format_version" : "0.0.1",
   "file_paths" : [ "../weather", "../seeds", "../seed" ],
   "hash" : "D15F5654",
   "measure_paths" : [ "../measures" ],
   "name" : "LHS Autogenerated 773",
   "osa_id" : "4fef0e0f-5396-4c55-a6e1-2cd6803db3ab",
   "osd_id" : "8f26459e-0e87-4b56-9362-6338816046b4",
   "run_directory" : "./run",
   "seed_file" : "seed.osm",
   "started_at" : "20170710T191253Z",
   "steps" : [
      {
         "arguments" : {
            "__SKIP__" : false,
            "building_type" : "MidriseApartment",
            "climate_zone" : "NECB HDD Method",
            "epw_file" : "CAN_NB_Saint.John.716090_CWEC.epw",
            "template" : "NECB 2011"
         },
         "measure_dir_name" : "create_prototype_building",
         "name" : "create_prototype_building",
         "result" : {
            "completed_at" : "20170710T191411Z",
            "measure_class_name" : "CreatePrototypeBuilding",
            "measure_display_name" : "Create Prototype Building",
            "measure_name" : "create_prototype_building",
            "measure_taxonomy" : "Whole Building.Space Types",
            "measure_type" : "ModelMeasure",
            "measure_uid" : "ae90fsd7-a651-467a-bc8d-29d310b0f937",
            "measure_version_id" : "c6ec5c18-5595-459f-a082-09a19c8c869c",
            "measure_version_modified" : "20170519T182315Z",
            "measure_xml_checksum" : "057E8D9D",
            "started_at" : "20170710T191255Z",
            "stderr" : "",
[...]
dhtQJuGglK9Hiw2oE1DN2Oq2YOtBrRpKCjV7MFKm9emLXOANg0F1a8IaNNQUH34gTYNBdWHH2jTUFB9+Ik2jSXFuj3YbESbxpJi9R4sN6JNY0mxhg/2G9Gmsbsy1vHBiiPaNJYU6/hgy6lNU5umNu0Todq091GbpjZNbdpg1KapTVv1V6lNWzx/xefVpj2O2rT7vOBbWhuzC4gjjjjiiCOOOOKII4444uweZ2PSAWmkkUYaaaSRRhpppJFGmv3QfBvZgTjiiCOOOOKII4444ogjzvzz1KZ9jNq0uzat7UObdt6BNu38Zdq0tx89Yk0jOYdQzjGUcwrlnEM5l1DONZRzC+UsfnSPglKNbqlKt1SnW6rULdXqlqp1S/W6pYrdUs3uqWb32F2danZPNbuvavbzerRF1LwdDcSUb2jejQZiynM/b0YDMeWZn/eigZjyvAMrGskJ9bheY0CJRnJCVa53GPChkZxQm+sFBmRo5B4M9bneXsCERnJCfa5X17wGbREDLGgkp3w9wIFGcsrjDgxoJKc87sB/RnLK407sZygo1eh6gxH1GQpKlbpeYsR7hoJSva73GJGeoZsx1ex6lRHjGQpKNbveZurO1J2pO/tEqO7sfdSdqTtTdzYYdWfqzlb9VerOFs9f8Xl1Z4+j7uw+L/h21casAOKII4444ogjjjjiiCOOOLvH2ZgsQBpppJFGGmmkkUYaaaSRZj8030ZSII444ogjjjjiiCOOOOKIM/88dWcfo+7srjvr+9CdXXagO7t8oe7s7RTynYGgQyromAo6pYLOqaBLKuiaCrqlgn75uT1JinW7xcrdYu1usXq3WL9brOAt1vAWq3iLdbzHOt5z93es4z3W8b6u42s0aI9ZxIM2n1O/JWJCm8+pbwHiQpvPqW8AYkObz6lPP/KhgaBUowfrDSnRQFCq1IPdhqxoICjV68FiQ2I0cDOmmj3YasiNBoJSzR6sNKJHe8xBfjQQVL8iZEgDQfXhR440EFQffmRJA0H14WeeNJIU6/ZgszFVGkmK1Xuw3JgtjSTFGj7Yb0yYRu7KWMcHK44500hSrOODLac2TW2a2rRPhGrT3kdtmto0tWmDUZumNm3VX6U2bfH8FZ9Xm/Y4atPu84JvaW3MLiCOOOKII4444ogjjjjiiLN7nI1JB6SRRhpppJFGGmmkkUYaafZD821kB+KII4444ogjjjjiiCOOOPPPU5v2MWrT7tq0wz60adcdaNOuX6ZNO//8Ueis4iYVdEgFHVNBp1TQORV0SQVdU0G3VNDi1/csKdbtFit3i7W7xerdYv1usYK3WMNbrOIt1vEe63jP3d+xjvdYx/u6jj+vTVtmzWvTSE79lua1aSSnvgXmtWkkp74B5rVpJKc+/UCbhoJSjR6sN6BNQ0GpUg92G9CmoaBUrweLDWjT0M2YavZgqwFtGgpKNXuw0ua1acscoE1DQfUrAto0FFQffqBNQ0H14QfaNBRUH36iTWNJsW4PNhvRprGkWL0Hy41o01hSrOGD/Ua0aeyujHV8sOKINo0lxTo+2HJq09SmqU37RKg27X3UpqlNU5s2GLVpatNW/VVq0xbPX/F5tWmPozbtPi/4ltbG7ALiiCOOOOKII4444ogjjji7x9mYdEAaaaSRRhpppJFGGmmkkWY/NN9GdiCOOOKII4444ogjjjjiiDP/PLVpH6M27a5NO+5Dm3bbgTbt9mXatLcfPWJNIzmHUM4xlHMK5ZxDOZdQzjWUcwvlLH50j4JSjW6pSrdUp1uq1C3V6paqdUv1uqWK3VLN7qlm99hdnWp2TzW7r2r283q0RdS8HQ3ElG9o3o0GYspzP29GAzHlmZ/3ooGY8rwDKxrJCfW4XmNAiUZyQlWudxjwoZGcUJvrBQZkaOQeDPW53l7AhEZyQn2uV9e8Bm0RAyxoJKd8PcCBRnLK4w4MaCSnPO7Af0ZyyuNO7GcoKNXoeoMR9RkKSpW6XmLEe4aCUr2u9xiRnqGbMdXsepUR4xkKSjW73mbqztSdqTv7RKju7H3Unak7U3c2GHVn6s5W/VXqzhbPX/F5dWePo+7sPi/4dtXGrADiiCOOOOKII4444ogjjji7x9mYLEAaaaSRRhpppJFGGmmkkWY/NN9GUiCOOOKII4444ogjjjjiiDP/PHVnH6Pu7K47O+1Cd3Z5277u7K+MX6c7ezuFfGcg6JAKOqaCTqmgcyrokgq6poJuqaBffm5PkmLdbrFyt1i7W6zeLdbvFit4izW8xSreYh3vsY733P0d63iPdbyv6/gaDdpjFvGgzefUb4mY0OZz6luAuNDmc+obgNjQ5nPq0498aCAo1ejBekNKNBCUKvVgtyErGghK9Xqw2JAYDdyMqWYPthpyo4GgVLMHK43o0R5zkB8NBNWvCBnSQFB9+JEjDQTVhx9Z0kBQffiZJ40kxbo92GxMlUaSYvUeLDdmSyNJsYYP9hsTppG7MtbxwYpjzjSSFOv4YMupTVObpjbtE6HatPdRm6Y2TW3aYNSmqU1b9VepTVs8f8Xn1aY9jtq0+7zgW1obswuII4444ogjjjjiiCOOOOLsHmdj0gFppJFGGmmkkUYaaaSRRpr90Hwb2YE44ogjjjjiiCOOOOKII87889SmfYzatLs27bwPbVrbgTatfZk27fzzR6GziptU0CEVdEwFnVJB51TQJRV0TQXdUkGLX9+zpFi3W6zcLdbuFqt3i/W7xQreYg1vsYq3WMd7rOM9d3/HOt5jHe/rOv68Nm2ZNa9NIzn1W5rXppGc+haY16aRnPoGmNemkZz69ANtGgpKNXqw3oA2DQWlSj3YbUCbhoJSvR4sNqBNQzdjqtmDrQa0aSgo1ezBSpvXpi1zgDYNBdWvCGjTUFB9+IE2DQXVhx9o01BQffiJNo0lxbo92GxEm8aSYvUeLDeiTWNJsYYP9hvRprG7MtbxwYoj2jSWFOv4YMupTVObpjbtE6HatPdRm6Y2TW3aYNSmqU1b9VepTVs8f8Xn1aY9jtq0+7zgW1obswuII4444ogjjjjiiCOOOOLsHmdj0gFppJFGGmmkkUYaaaSRRpr90Hwb2YE44ogjjjjiiCOOOOKII87889SmfYzatLs27bIPbVrfgTatf5k27e1Hj1jTSM4hlHMM5ZxCOedQziWUcw3l3EI5ix/do6BUo1uq0i3V6ZYqdUu1uqVq3VK9bqlit1Sze6rZPXZXp5rdU83uq5r9vB5tETVvRwMx5Ruad6OBmPLcz5vRQEx55ue9aCCmPO/AikZyQj2u1xhQopGcUJXrHQZ8aCQn1OZ6gQEZGrkHQ32utxcwoZGcUJ/r1TWvQVvEAAsaySlfD3CgkZzyuAMDGskpjzvwn5Gc8rgT+xkKSjW63mBEfYaCUqWulxjxnqGgVK/rPUakZ+hmTDW7XmXEeIaCUs2ut5m6M3Vn6s4+Eao7ex91Z+rO1J0NRt2ZurNVf5W6s8XzV3xe3dnjqDu7zwu+XbUxK4A44ogjjjjiiCOOOOKII87ucTYmC5BGGmmkkUYaaaSRRhpppNkPzbeRFIgjjjjiiCOOOOKII4444sw/T93Zx6g7u+vOrvvQnR12oDs7fKHu7O0U8p2BoEMq6JgKOqWCzqmgSyromgq6pYJ++bk9SYp1u8XK3WLtbrF6t1i/W6zgLdbwFqt4i3W8xzrec/d3rOM91vG+ruNrNGiPWcSDNp9TvyViQpvPqW8B4kKbz6lvAGJDm8+pTz/yoYGgVKMH6w0p0UBQqtSD3YasaCAo1evBYkNiNHAzppo92GrIjQaCUs0erDSiR3vMQX40EFS/ImRIA0H14UeONBBUH35kSQNB9eFnnjSSFOv2YLMxVRpJitV7sNyYLY0kxRo+2G9MmEbuyljHByuOOdNIUqzjgy2nNk1tmtq0T4Rq095HbZraNLVpg1GbpjZt1V+lNm3x/BWfV5v2OGrT7vOCb2ltzC4gjjjiiCOOOOKII4444oize5yNSQekkUYaaaSRRhpppJFGGmn2Q/NtZAfiiCOOOOKII4444ogjjjjzz1Ob9jFq0+7atNs+tGnHHWjTjl+mTTv//FHorOImFXRIBR1TQadU0DkVdEkFXVNBt1TQ4tf3LCnW7RYrd4u1u8Xq3WL9brGCt1jDW6ziLdbxHut4z93fsY73WMf7uo4/r01bZs1r00hO/ZbmtWkkp74F5rVpJKe+Aea1aSSnPv1Am4aCUo0erDegTUNBqVIPdhvQpqGgVK8Hiw1o09DNmGr2YKsBbRoKSjV7sNLmtWnLHKBNQ0H1KwLaNBRUH36gTUNB9eEH2jQUVB9+ok1jSbFuDzYb0aaxpFi9B8uNaNNYUqzhg/1GtGnsrox1fLDiiDaNJcU6PthyatPUpqlN+0SoNu191KapTVObNhi1aWrTVv1VatMWz1/xebVpj6M27T4v+JbWxuwC4ogjjjjiiCOOOOKII444u8fZmHRAGmmkkUYaaaSRRhpppJFmPzTfRnYgjjjiiCOOOOKII4444ogz/zy1aR+jNu13bdppH9a00w6saSetaXNBWtP+OEhr2lNJWtO0pmlN05qmNU1rmtY0rWla0/7mzag17Y+DtKb9YZDWNK1pWtO0psWStKY9l6Q1rYbRmqY17dfRmvY7vta0X0dr2jOjNW3d57WmaU1b9VdpTVs8f8XntaY9jta0+7zgS1obkwuII4444ogjjjjiiCOOOOLsHmdjzgFppJFGGmmkkUYaaaSRRpr90Hwb14E44ogjjjjiiCOOOOKII87887SmfYzWtLs17W0f2rTzDrRp5y/Tpr396BFrGsk5hHKOoZxTKOccyrmEcq6hnFsoZ/GjexSUanRLVbqlOt1SpW6pVrdUrVuq1y1V7JZqdk81u8fu6lSze6rZfVWzn9ejLaLm7WggpnxD8240EFOe+3kzGogpz/y8Fw3ElOcdWNFITqjH9RoDSjSSE6pyvcOAD43khNpcLzAgQyP3YKjP9fYCJjSSE+pzvbrmNWiLGGBBIznl6wEONJJTHndgQCM55XEH/jOSUx53Yj9DQalG1xuMqM9QUKrU9RIj3jMUlOp1vceI9AzdjKlm16uMGM9QUKrZ9TZTd6buTN3ZJ0J1Z++j7kzdmbqzwag7U3e26q9Sd7Z4/orPqzt7HHVn93nBt6s2ZgUQRxxxxBFHHHHEEUccccTZPc7GZAHSSCONNNJII4000kgjjTT7ofk2kgJxxBFHHHHEEUccccQRR5z556k7+xh1Z3fdWduH7uyyA93Z5Qt1Z2+nkO8MBB1SQcdU0CkVdE4FXVJB11TQLRX0y8/tSVKs2y1W7hZrd4vVu8X63WIFb7GGt1jFW6zjPdbxnru/Yx3vsY73dR1fo0F7zCIetPmc+i0RE9p8Tn0LEBfafE59AxAb2nxOffqRDw0EpRo9WG9IiQaCUqUe7DZkRQNBqV4PFhsSo4GbMdXswVZDbjQQlGr2YKURPdpjDvKjgaD6FSFDGgiqDz9ypIGg+vAjSxoIqg8/86SRpFi3B5uNqdJIUqzeg+XGbGkkKdbwwX5jwjRyV8Y6PlhxzJlGkmIdH2w5tWlq09SmfSJUm/Y+atPUpqlNG4zaNLVpq/4qtWmL56/4vNq0x1Gbdp8XfEtrY3YBccQRRxxxxBFHHHHEEUec3eNsTDogjTTSSCONNNJII4000kizH5pvIzsQRxxxxBFHHHHEEUccccSZf57atI9Rm3bXpvV9aNOuO9CmXb9Mm3b++aPQWcVNKuiQCjqmgk6poHMq6JIKuqaCbqmgxa/vWVKs2y1W7hZrd4vVu8X63WIFb7GGt1jFW6zjPdbxnru/Yx3vsY73dR1/Xpu2zJrXppGc+i3Na9NITn0LzGvTSE59A8xr00hOffqBNg0FpRo9WG9Am4aCUqUe7DagTUNBqV4PFhvQpqGbMdXswVYD2jQUlGr2YKXNa9OWOUCbhoLqVwS0aSioPvxAm4aC6sMPtGkoqD78RJvGkmLdHmw2ok1jSbF6D5Yb0aaxpFjDB/uNaNPYXRnr+GDFEW0aS4p1fLDl1KapTVOb9olQbdr7qE1Tm6Y2bTBq09Smrfqr1KYtnr/i82rTHkdt2n1e8C2tjdkFxBFHHHHEEUccccQRRxxxdo+zMemANNJII4000kgjjTTSSCPNfmi+jexAHHHEEUccccQRRxxxxBFn/nlq0z5Gbdpdm3bYhzbttgNt2u3LtGlvP3rEmkZyDqGcYyjnFMo5h3IuoZxrKOcWyln86B4FpRrdUpVuqU63VKlbqtUtVeuW6nVLFbulmt1Tze6xuzrV7J5qdl/V7Of1aIuoeTsaiCnf0LwbDcSU537ejAZiyjM/70UDMeV5B1Y0khPqcb3GgBKN5ISqXO8w4EMjOaE21wsMyNDIPRjqc729gAmN5IT6XK+ueQ3aIgZY0EhO+XqAA43klMcdGNBITnncgf+M5JTHndjPUFCq0fUGI+ozFJQqdb3EiPcMBaV6Xe8xIj1DN2Oq2fUqI8YzFJRqdr3N1J2pO1N39olQ3dn7qDtTd6bubDDqztSdrfqr1J0tnr/i8+rOHkfd2X1e8O2qjVkBxBFHHHHEEUccccQRRxxxdo+zMVmANNJII4000kgjjTTSSCPNfmi+jaRAHHHEEUccccQRRxxxxBFn/nnqzj5G3dldd3bche7s+rZ93dlfGb9Od/Z2CvnOQNAhFXRMBZ1SQedU0CUVdE0F3VJBv/zcniTFut1i5W6xdrdYvVus3y1W8BZreItVvMU63mMd77n7O9bxHut4X9fxNRq0xyziQZvPqd8SMaHN59S3AHGhzefUNwCxoc3n1Kcf+dBAUKrRg/WGlGggKFXqwW5DVjQQlOr1YLEhMRq4GVPNHmw15EYDQalmD1Ya0aM95iA/GgiqXxEypIGg+vAjRxoIqg8/sqSBoPrwM08aSYp1e7DZmCqNJMXqPVhuzJZGkmINH+w3Jkwjd2Ws44MVx5xpJCnW8cGWU5umNk1t2idCtWnvozZNbZratMGoTVObtuqvUpu2eP6Kz6tNexy1afd5wbe0NmYXEEccccQRRxxxxBFHHHHE2T3OxqQD0kgjjTTSSCONNNJII400+6H5NrIDccQRRxxxxBFHHHHEEUec+eepTfsYtWl3bdppH9q0tgNtWvsybdr5549CZxU3qaBDKuiYCjqlgs6poEsq6JoKuqWCFr++Z0mxbrdYuVus3S1W7xbrd4sVvMUa3mIVb7GO91jHe+7+jnW8xzre13X8eW3aMmtem0Zy6rc0r00jOfUtMK9NIzn1DTCvTSM59ekH2jQUlGr0YL0BbRoKSpV6sNuANg0FpXo9WGxAm4ZuxlSzB1sNaNNQUKrZg5U2r01b5gBtGgqqXxHQpqGg+vADbRoKqg8/0KahoPrwE20aS4p1e7DZiDaNJcXqPVhuRJvGkmINH+w3ok1jd2Ws44MVR7RpLCnW8cGWU5umNk1t2idCtWnvozZNbZratMGoTVObtuqvUpu2eP6Kz6tNexy1afd5wbe0NmYXEEccccQRRxxxxBFHHHHE2T3OxqQD0kgjjTTSSCONNNJII400+6H5NrIDccQRRxxxxBFHHHHEEUec+eepTfsYtWl3bdp5H9q0vgNtWv8ybdrbjx6xppGcQyjnGMo5hXLOoZxLKOcayrmFchY/ukdBqUa3VKVbqtMtVeqWanVL1bqlet1SxW6pZvdUs3vsrk41u6ea3Vc1+3k92iJq3o4GYso3NO9GAzHluZ83o4GY8szPe9FATHnegRWN5IR6XK8xoEQjOaEq1zsM+NBITqjN9QIDMjRyD4b6XG8vYEIjOaE+16trXoO2iAEWNJJTvh7gQCM55XEHBjSSUx534D8jOeVxJ/YzFJRqdL3BiPoMBaVKXS8x4j1DQale13uMSM/QzZhqdr3KiPEMBaWaXW8zdWfqztSdfSJUd/Y+6s7Unak7G4y6M3Vnq/4qdWeL56/4vLqzx1F3dp8XfLtqY1YAccQRRxxxxBFHHHHEEUec3eNsTBYgjTTSSCONNNJII4000kizH5pvIykQRxxxxBFHHHHEEUccccSZf566s49Rd3bXnV32oTs77EB3dvhC3dnbKeQ7A0GHVNAxFXRKBZ1TQZdU0DUVdEsF/fJze5IU63aLlbvF2t1i9W6xfrdYwVus4S1W8RbreI91vOfu71jHe6zjfV3H12jQHrOIB20+p35LxIQ2n1PfAsSFNp9T3wDEhjafU59+5EMDQalGD9YbUqKBoFSpB7sNWdFAUKrXg8WGxGjgZkw1e7DVkBsNBKWaPVhpRI/2mIP8aCCofkXIkAaC6sOPHGkgqD78yJIGgurDzzxpJCnW7cFmY6o0khSr92C5MVsaSYo1fLDfmDCN3JWxjg9WHHOmkaRYxwdbTm2a2jS1aZ8I1aa9j9o0tWlq0wajNk1t2qq/Sm3a4vkrPq827XHUpt3nBd/S2phdQBxxxBFHHHHEEUccccQRZ/c4G5MOSCONNNJII4000kgjjTTS7Ifm28gOxBFHHHHEEUccccQRRxxx5p+nNu1j1KbdtWnXfWjTjjvQph2/TJt2/vmj0FnFTSrokAo6poJOqaBzKuiSCrqmgm6poMWv71lSrNstVu4Wa3eL1bvF+t1iBW+xhrdYxVus4z3W8Z67v2Md77GO93Udf16btsya16aRnPotzWvTSE59C8xr00hOfQPMa9NITn36gTYNBaUaPVhvQJuGglKlHuw2oE1DQaleDxYb0KahmzHV7MFWA9o0FJRq9mClzWvTljlAm4aC6lcEtGkoqD78QJuGgurDD7RpKKg+/ESbxpJi3R5sNqJNY0mxeg+WG9GmsaRYwwf7jWjT2F0Z6/hgxRFtGkuKdXyw5dSmqU1Tm/aJUG3a+6hNU5umNm0watPUpq36q9SmLZ6/4vNq0x5Hbdp9XvAtrY3ZBcQRRxxxxBFHHHHEEUcccXaPszHpgDTSSCONNNJII4000kgjzX5ovo3sQBxxxBFHHHHEEUccccQRZ/55atM+Rm3aXZt224c27bQDbdrpy7Rpbz96xJpGcg6hnGMo5xTKOYdyLqGcayjnFspZ/OgeBaUa3VKVbqlOt1SpW6rVLVXrlup1SxW7pZrdU83usbs61eyeanZf1ezn9WiLqHk7Gogp39C8Gw3ElOd+3owGYsozP+9FAzHleQdWNJIT6nG9xoASjeSEqlzvMOBDIzmhNtcLDMjQyD0Y6nO9vYAJjeSE+lyvrnkN2iIGWNBITvl6gAON5JTHHRjQSE553IH/jOSUx53Yz1BQqtH1BiPqMxSUKnW9xIj3DAWlel3vMSI9Qzdjqtn1KiPGMxSUana9zdSdqTtTd/aJUN3Z+6g7U3em7mww6s7Una36q9SdLZ6/4vPqzh5H3dl9XvDtqo1ZAcQRRxxxxBFHHHHEEUcccXaPszFZgDTSSCONNNJII4000kgjzX5ovo2kQBxxxBFHHHHEEUccccQRZ/556s4+Rt3Z77qz8z5sZ+cd2M7O2s60nf3xj+y1nWk703am7eyZIG1n2s60nWk703am7UzbmbazVYtL25m2s6eCtJ39cZC2sz8O0nb2x0HazioYbWfazn4dbWe/42s7+3W0nT0z2s7WfV7bmbazVX+VtrPF81d8XtvZ42g7u88Lvly1MSmAOOKII4444ogjjjjiiCPO7nE25gqQRhpppJFGGmmkkUYaaaTZD823cRSII4444ogjjjjiiCOOOOLMP0/b2cdoO7vbzt72oTu77EB3dvlC3dnbKeQ7A0GHVNAxFXRKBZ1TQZdU0DUVdEsF/fJze5IU63aLlbvF2t1i9W6xfrdYwVus4S1W8RbreI91vOfu71jHe6zjfV3H12jQHrOIB20+p35LxIQ2n1PfAsSFNp9T3wDEhjafU59+5EMDQalGD9YbUqKBoFSpB7sNWdFAUKrXg8WGxGjgZkw1e7DVkBsNBKWaPVhpRI/2mIP8aCCofkXIkAaC6sOPHGkgqD78yJIGgurDzzxpJCnW7cFmY6o0khSr92C5MVsaSYo1fLDfmDCN3JWxjg9WHHOmkaRYxwdbTm2a2jS1aZ8I1aa9j9o0tWlq0wajNk1t2qq/Sm3a4vkrPq827XHUpt3nBd/S2phdQBxxxBFHHHHEEUccccQRZ/c4G5MOSCONNNJII4000kgjjTTS7Ifm28gOxBFHHHHEEUccccQRRxxx5p+nNu1j1KbdtWltH9q06w60adcv06adf/4odFZxkwo6pIKOqaBTKuicCrqkgq6poFsqaPHre5YU63aLlbvF2t1i9W6xfrdYwVus4S1W8RbreI91vOfu71jHe6zjfV3Hn9emLbPmtWkkp35L89o0klPfAvPaNJJT3wDz2jSSU59+oE1DQalGD9Yb0KahoFSpB7sNaNNQUKrXg8UGtGnoZkw1e7DVgDYNBaWaPVhp89q0ZQ7QpqGg+hUBbRoKqg8/0KahoPrwA20aCqoPP9GmsaRYtwebjWjTWFKs3oPlRrRpLCnW8MF+I9o0dlfGOj5YcUSbxpJiHR9sObVpatPUpn0iVJv2PmrT1KapTRuM2jS1aav+KrVpi+ev+LzatMdRm3afF3xLa2N2AXHEEUccccQRRxxxxBFHnN3jbEw6II000kgjjTTSSCONNNJIsx+abyM7EEccccQRRxxxxBFHHHHEmX+e2rSPUZt216b1fWjTbjvQpt2+TJv29qNHrGkk5xDKOYZyTqGccyjnEsq5hnJuoZzFj+5RUKrRLVXplup0S5W6pVrdUrVuqV63VLFbqtk91eweu6tTze6pZvdVzX5ej7aImrejgZjyDc270UBMee7nzWggpjzz8140EFOed2BFIzmhHtdrDCjRSE6oyvUOAz40khNqc73AgAyN3IOhPtfbC5jQSE6oz/XqmtegLWKABY3klK8HONBITnncgQGN5JTHHfjPSE553In9DAWlGl1vMKI+Q0GpUtdLjHjPUFCq1/UeI9IzdDOmml2vMmI8Q0GpZtfbTN2ZujN1Z58I1Z29j7ozdWfqzgaj7kzd2aq/St3Z4vkrPq/u7HHUnd3nBd+u2pgVQBxxxBFHHHHEEUccccQRZ/c4G5MFSCONNNJII4000kgjjTTS7Ifm20gKxBFHHHHEEUccccQRRxxx5p+n7uxj1J3ddWeHXejObm/b1539lfHrdGdvp5DvDAQdUkHHVNApFXROBV1SQddU0C0V9MvP7UlSrNstVu4Wa3eL1bvF+t1iBW+xhrdYxVus4z3W8Z67v2Md77GO93UdX6NBe8wiHrT5nPotERPafE59CxAX2nxOfQMQG9p8Tn36kQ8NBKUaPVhvSIkGglKlHuw2ZEUDQaleDxYbEqOBmzHV7MFWQ240EJRq9mClET3aYw7yo4Gg+hUhQxoIqg8/cqSBoPrwI0saCKoPP/OkkaRYtwebjanSSFKs3oPlxmxpJCnW8MF+Y8I0clfGOj5YccyZRpJiHR9sObVpatPUpn0iVJv2PmrT1KapTRuM2jS1aav+KrVpi+ev+LzatMdRm3afF3xLa2N2AXHEEUccccQRRxxxxBFHnN3jbEw6II000kgjjTTSSCONNNJIsx+abyM7EEccccQRRxxxxBFHHHHEmX+e2rSPUZt216Yd96FNazvQprUv06adf/4odFZxkwo6pIKOqaBTKuicCrqkgq6poFsqaPHre5YU63aLlbvF2t1i9W6xfrdYwVus4S1W8RbreI91vOfu71jHe6zjfV3Hn9emLbPmtWkkp35L89o0klPfAvPaNJJT3wDz2jSSU59+oE1DQalGD9Yb0KahoFSpB7sNaNNQUKrXg8UGtGnoZkw1e7DVgDYNBaWaPVhp89q0ZQ7QpqGg+hUBbRoKqg8/0KahoPrwA20aCqoPP9GmsaRYtwebjWjTWFKs3oPlRrRpLCnW8MF+I9o0dlfGOj5YcUSbxpJiHR9sObVpatPUpn0iVJv2PmrT1KapTRuM2jS1aav+KrVpi+ev+LzatMdRm3afF3xLa2N2AXHEEUccccQRRxxxxBFHnN3jbEw6II000kgjjTTSSCONNNJIsx+abyM7EEccccQRRxxxxBFHHHHEmX+e2rSPUZt216ad9qFN6zvQpvUv06a9/egRaxrJOYRyjqGcUyjnHMq5hHKuoZxbKGfxo3sUlGp0S1W6pTrdUqVuqVa3VK1bqtctVeyWanZPNbvH7upUs3uq2X1Vs5/Xoy2i5u1oIKZ8Q/NuNBBTnvt5MxqIKc/8vBcNxJTnHVjRSE6ox/UaA0o0khOqcr3DgA+N5ITaXC8wIEMj92Coz/X2AiY0khPqc7265jVoixhgQSM55esBDjSSUx53YEAjOeVxB/4zklMed2I/Q0GpRtcbjKjPUFCq1PUSI94zFJTqdb3HiPQM3YypZterjBjPUFCq2fU2U3em7kzd2SdCdWfvo+5M3Zm6s8GoO1N3tuqvUne2eP6Kz6s7exx1Z/d5wberNmYFEEccccQRRxxxxBFHHHHE2T3OxmQB0kgjjTTSSCONNNJII400+6H5NpICccQRRxxxxBFHHHHEEUec+eepO/sYdWd33dl5H7qzww50Z4cv1J29nUK+MxB0SAUdU0GnVNA5FXRJBV1TQbdU0C8/tydJsW63WLlbrN0tVu8W63eLFbzFGt5iFW+xjvdYx3vu/o51vMc63td1fI0G7TGLeNDmc+q3RExo8zn1LUBcaPM59Q1AbGjzOfXpRz40EJRq9GC9ISUaCEqVerDbkBUNBKV6PVhsSIwGbsZUswdbDbnRQFCq2YOVRvRojznIjwaC6leEDGkgqD78yJEGgurDjyxpIKg+/MyTRpJi3R5sNqZKI0mxeg+WG7OlkaRYwwf7jQnTyF0Z6/hgxTFnGkmKdXyw5dSmqU1Tm/aJUG3a+6hNU5umNm0watPUpq36q9SmLZ6/4vNq0x5Hbdp9XvAtrY3ZBcQRRxxxxBFHHHHEEUcccXaPszHpgDTSSCONNNJII4000kgjzX5ovo3sQBxxxBFHHHHEEUccccQRZ/55atM+Rm3aXZt22Yc27bgDbdrxy7Rp558/Cp1V3KSCDqmgYyrolAo6p4IuqaBrKuiWClr8+p4lxbrdYuVusXa3WL1brN8tVvAWa3iLVbzFOt5jHe+5+zvW8R7reF/X8ee1acuseW0ayanf0rw2jeTUt8C8No3k1DfAvDaN5NSnH2jTUFCq0YP1BrRpKChV6sFuA9o0FJTq9WCxAW0auhlTzR5sNaBNQ0GpZg9W2rw2bZkDtGkoqH5FQJuGgurDD7RpKKg+/ECbhoLqw0+0aSwp1u3BZiPaNJYUq/dguRFtGkuKNXyw34g2jd2VsY4PVhzRprGkWMcHW05tmto0tWmfCNWmvY/aNLVpatMGozZNbdqqv0pt2uL5Kz6vNu1x1Kbd5wXf0tqYXUAcccQRRxxxxBFHHHHEEWf3OBuTDkgjjTTSSCONNNJII4000uyH5tvIDsQRRxxxxBFHHHHEEUccceafpzbtY9Sm3bVp131o00470Kadvkyb9vajR6xpJOcQyjmGck6hnHMo5xLKuYZybqGcxY/uUVCq0S1V6ZbqdEuVuqVa3VK1bqlet1SxW6rZPdXsHrurU83uqWb3Vc1+Xo+2iJq3o4GY8g3Nu9FATHnu581oIKY88/NeNBBTnndgRSM5oR7Xawwo0UhOqMr1DgM+NJITanO9wIAMjdyDoT7X2wuY0EhOqM/16prXoC1igAWN5JSvBzjQSE553IEBjeSUxx34z0hOedyJ/QwFpRpdbzCiPkNBqVLXS4x4z1BQqtf1HiPSM3QzpppdrzJiPENBqWbX20zdmbozdWefCNWdvY+6M3Vn6s4Go+5M3dmqv0rd2eL5Kz6v7uxx1J3d5wXfrtqYFUAcccQRRxxxxBFHHHHEEWf3OBuTBUgjjTTSSCONNNJII4000uyH5ttICsQRRxxxxBFHHHHEEUccceafp+7sY9Sd3XVnt33ozs470J2dv1B39nYK+c5A0CEVdEwFnVJB51TQJRV0TQXdUkG//NyeJMW63WLlbrF2t1i9W6zfLVbwFmt4i1W8xTreYx3vufs71vEe63hf1/E1GrTHLOJBm8+p3xIxoc3n1LcAcaHN59Q3ALGhzefUpx/50EBQqtGD9YaUaCAoVerBbkNWNBCU6vVgsSExGrgZU80ebDXkRgNBqWYPVhrRoz3mID8aCKpfETKkgaD68CNHGgiqDz+ypIGg+vAzTxpJinV7sNmYKo0kxeo9WG7MlkaSYg0f7DcmTCN3ZazjgxXHnGkkKdbxwZZTm6Y2TW3aJ0K1ae+jNk1tmtq0wahNU5u26q9Sm7Z4/orPq017HLVp93nBt7Q2ZhcQRxxxxBFHHHHEEUccccTZPc7GpAPSSCONNNJII4000kgjjTT7ofk2sgNxxBFHHHHEEUccccQRR5z556lN+xi1ab9r0y77sKZddmBNu2hNmwvSmvbHQVrTnkrSmqY1TWua1jStaVrTtKZpTdOa9jdvRq1pfxykNe0Pg7SmaU3TmqY1TWvaU0la00ajNe1vzzP/92mtaeNorWm/42tN+3W0pj0zWtPWfV5rmta0VX+V1rTF81d8Xmva42hNu88LvqS1MbmAOOKII4444ogjjjjiiCPO7nE25hyQRhpppJFGGmmkkUYaaaTZD823cR2II4444ogjjjjiiCOOOOLMP09r2sdoTbtb0972oU277kCbdv0ybdr5549CZxU3qaBDKuiYCjqlgs6poEsq6JoKuqWCFr++Z0mxbrdYuVus3S1W7xbrd4sVvMUa3mIVb7GO91jHe+7+jnW8xzre13X8eW3aMmtem0Zy6rc0r00jOfUtMK9NIzn1DTCvTSM59ekH2jQUlGr0YL0BbRoKSpV6sNuANg0FpXo9WGxAm4ZuxlSzB1sNaNNQUKrZg5U2r01b5gBtGgqqXxHQpqGg+vADbRoKqg8/0KahoPrwE20aS4p1e7DZiDaNJcXqPVhuRJvGkmINH+w3ok1jd2Ws44MVR7RpLCnW8cGWU5umNk1t2idCtWnvozZNbZratMGoTVObtuqvUpu2eP6Kz6tNexy1afd5wbe0NmYXEEccccQRRxxxxBFHHHHE2T3OxqQD0kgjjTTSSCONNNJII400+6H5NrIDccQRRxxxxBFHHHHEEUec+eepTfsYtWl3bVrbhzbttgNt2u3LtGlvP3rEmkZyDqGcYyjnFMo5h3IuoZxrKOcWyln86B4FpRrdUpVuqU63VKlbqtUtVeuW6nVLFbulmt1Tze6xuzrV7J5qdl/V7Of1aIuoeTsaiCnf0LwbDcSU537ejAZiyjM/70UDMeV5B1Y0khPqcb3GgBKN5ISqXO8w4EMjOaE21wsMyNDIPRjqc729gAmN5IT6XK+ueQ3aIgZY0EhO+XqAA43klMcdGNBITnncgf+M5JTHndjPUFCq0fUGI+ozFJQqdb3EiPcMBaV6Xe8xIj1DN2Oq2fUqI8YzFJRqdr3N1J2pO1N39olQ3dn7qDtTd6bubDDqztSdrfqr1J0tnr/i8+rOHkfd2X1e8O2qjVkBxBFHHHHEEUccccQRRxxxdo+zMVmANNJII4000kgjjTTSSCPNfmi+jaRAHHHEEUccccQRRxxxxBFn/nnqzj5G3dldd9Z3oTtrb2/b9529Q36d8OztFDKegaBDKuiYCjqlgs6poEsq6JoKuqWCfvnBPUmKdbvFyt1i7W6xerdYv1us4C3W8BareIt1vMc63nP3d6zjPdbxvq7ja0Roj1nEhDafU78l4kKbz6lvAWJDm8+pbwDiQ5vPqU8/MqKBoFSjB+sNSdFAUKrUg92GvGggKNXrwWJDajRwM6aaPdhqyI4GglLNHqw0Ikh7zEGGNBBUvyLkSANB9eFHljQQVB9+5EkDQfXhZ6Y0khTr9mCzMVkaSYrVe7DcmC+NJMUaPthvTJlG7spYxwcrjlnTSFKs44MtpzhNcZritE+EitPeR3Ga4jTFaYNRnKY4bdVfpTht8fwVn1ec9jiK0+7zgu9pbcwvII444ogjjjjiiCOOOOKIs3ucjWkHpJFGGmmkkUYaaaSRRhpp9kPzbXQH4ogjjjjiiCOOOOKII444889TnPYxitPu4rTDTsRpbQ/itPZl4rTzz5+FzkpuUkGHVNAxFXRKBZ1TQZdU0DUVdEsFLX5/z5Ji3W6xcrdYu1us3i3W7xYreIs1vMUq3mId77GO99z9Het4j3W8r+v48+K0Zda8OI3k1G9pXpxGcupbYF6cRnLqG2BenEZy6tMPxGkoKNXowXoD4jQUlCr1YLcBcRoKSvV6sNiAOA3djKlmD7YaEKehoFSzByttXpy2zAHiNBRUvyIgTkNB9eEH4jQUVB9+IE5DQfXhJ+I0lhTr9mCzEXEaS4rVe7DciDiNJcUaPthvRJzG7spYxwcrjojTWFKs44MtpzhNcZritE+EitPeR3Ga4jTFaYNRnKY4bdVfpTht8fwVn1ec9jiK0+7zgu9pbcwvII444ogjjjjiiCOOOOKIs3ucjWkHpJFGGmmkkUYaaaSRRhpp9kPzbXQH4ogjjjjiiCOOOOKII444889TnPYxitPu4rTjTsRpfQ/itK44bS5IcdofBylOeypJcZriNMVpitMUpylOU5ymOE1x2t+8GRWn/XGQ4rQ/DFKcpjhNcZritFiS4rTnkhSn1TCK0xSn/TqK037HV5z26yhOe2YUp637vOI0xWmr/irFaYvnr/i84rTHUZx2nxd8T2tjfgFxxBFHHHHEEUccccQRR5zd42xMOyCNNNJII4000kgjjTTSSLMfmm+jOxBHHHHEEUccccQRRxxxxJl/nuK0j1Gc9rs47boTb9phD960w5d5095+9Ig2jeQcQjnHUM4plHMO5VxCOddQzi2Us/jVPQpKNbqlKt1SnW6pUrdUq1uq1i3V65Yqdks1u6ea3WN3darZPdXsvqrZz/vRFlHzejQQU76heTkaiCnP/bwaDcSUZ35ejAZiyvMOtGgkJ9Tjeo0BJxrJCVW53mFAiEZyQm2uFxiwoZF7MNTnensBFRrJCfW5Xl3zHrRFDNCgkZzy9QAJGskpjztQoJGc8rgDARrJKY870Z+hoFSj6w1G3GcoKFXqeokR8RkKSvW63mPEeoZuxlSz61VGlGcoKNXsepvpO9N3pu/sE6G+s/fRd6bvTN/ZYPSd6Ttb9VfpO1s8f8Xn9Z09jr6z+7zg61Ub0wKII4444ogjjjjiiCOOOOLsHmdjtgBppJFGGmmkkUYaaaSRRpr90HwbS4E44ogjjjjiiCOOOOKII8788/SdfYy+s999Z7ed+M6Oe/CdHb/Md9aObz/eHqYdI/qzYOzhNbHH18SeXhN7fk3s5TWx19fE3l4Tu/i1fzL3ReesveigtRedtPaio9ZedNbaiw5be9Fpay86bu1F562/6Lz1V+21F523/qLz1sl5e94rN0qe18zlUp99u/MSulzqszfZvKIul/rsLTYvsMulPnuDAb1dMPY1p+vpfy4AF14w9jUH7Ol/KwBxXjD2NWfs6X8oAMtecCu85pQ9/a8EoOQLxr7mlD39T4R5f98oFej8grHPvlog+wvGPnuBARVgMPbZCwyIAoOxz15gRCOYzH3ROXv6XwrEOZjMfdFRe/ofC0RQmMx90Wl7+t8LxGaY3BMvOm9P/5OBqA+TuS86b0//q0FPop5EPYmfCPUkvo+eRD2JehIHoydRT+Kqv0pP4uL5Kz6vJ/Fx9CTe5wVfy9yYTkQcccQRRxxxxBFHHHHEEWf3OBuzjEgjjTTSSCONNNJII4000uyH5tvYTcQRRxxxxBFHHHHEEUccceaf99/Bk/j//PaP/+W3v/z9v/zXv/z2d//jv/uf1CZuS5v421/+25/+4be/+3///r15/+ef//xf/u79/8Pev+d8fPt3O1EonvagUDx9mULxfPtxe5jrLWJQzKUeXpJ6fEnq6SWp55ekXl6Sen1J6u0lqQvBQTD2NaerveZ4tdecr/aaA9Zec8Laa45Ye80Za685ZO01p6y/5pT1F+2w15yy/ppT1sEpe16VOAieNyXGQp98s/OexFjok3fXvCUxFvrkvTXvSIyFPnlnAUNiLvUlZ+rZfxYAPWIu9SXH6tl/EwA3Yi71JSfr2X8QADFibge85Gw9+68BYEXMpb7kbD37T4F5JeIgFBgRc6lPvlbgQ8ylPnllARtiLvXJKwu4EHOpT15ZxIQYjH3N6Xr2XwREgxiMfc0Be/YfBcSBGIx9zRl79t8FRIAY3AqvOWXP/tOA2A+Dsa85Zc/+60D1oepD1YefCFUfvo/qQ9WHqg8Ho/pQ9eGqv0r14eL5Kz6v+vBxVB/e5wXftNyYIUQcccQRRxxxxBFHHHHEEWf3OBsTh0gjjTTSSCONNNJII4000uyH5tsIS8QRRxxxxBFHHHHEEUccceafp/rwb8+3VR/+m/Lw//jt5//4X//x3//pt3/6l3+TH/7f//CffvsP//Wv7/9//rvLbiSI5z1IEM9fJkH8+dPTWQlTKOcQyjmGck6hnHMo5xLKuYZybqGchV0ABaUa3VKVbqlOt1SpW6rVLVXrlup1SxW7pZrdU83usbs61eyeanZf1eznpX2LqHlNH4gp39C8ig/ElOd+XrcHYsozP6/UAzHleQfaPJIT6nG9xoAMj+SEqlzvMKC4IzmhNtcLDIjryD0Y6nO9vYCOjuSE+lyvrnnJ3CIGaOVITvl6gDqO5JTHHejhSE553IECjuSUx51o3lBQqtH1BiPyNhSUKnW9xIiSDQWlel3vMSJaQzdjqtn1KiP6NBSUana9zZSi7UKK5n/2P/uf/c/+Z/+z/9n/7H/2P/uf/c/+Z/+z/9n/7H/e0n/+1x9//m+//eUvf/oPv/1ff//+f6hqP96U4j/8JUrx76MUf9UoxVeKv2KU4v86SvF/HaX4K0cpvlL8vzlK8cURRxxxxBFHHHHEEUccccTZg1JSGmmkkUYaaaSRRhpppJFmPzTfRmUpjjjiiCOOOOKII4444ogz/7z/DlL8/+1P//jbP/3zn/78T//5t3/+Z5X421Li//kv/9/f/e//8T/+6R/+9Ns//cO/3kX4X6vA//j0L//l8f/9+//+b//znv7xv9z/x7//83/41/f/+Z/+5R//8//yP/z/L7H90g=="
               },
               {
                  "name" : "annual_peak_electric_demand",
                  "units" : "kW",
                  "value" : 50.988010000000003
               },
               {
                  "name" : "first_year_capital_cost",
                  "units" : "$",
                  "value" : 0
               },
               {
                  "name" : "annual_utility_cost",
                  "units" : "$",
                  "value" : 33001.919999999998
               },
               {
                  "name" : "total_lifecycle_cost",
                  "units" : "$",
                  "value" : 574557.76000000001
               }
            ],
            "step_warnings" : []
         }
      }
   ],
   "updated_at" : "20170710T191755Z",
   "weather_file" : "USA_CO_Denver.Intl.AP.725650_TMY3.epw"
}
