{
   "completed_at" : "20170710T194142Z",
   "completed_status" : "Success",
   "created_at" : "2017-07-10 19:26:04 +0000",
   "current_step" : 5,
   "description" : "",
   "eplusout_err" : "Program Version,EnergyPlus, Version 8.7.0-78a111df4a, YMD=2017.07.10 19:31,IDD_Version 8.7.0\n   ************* IDF Context for following error/warning message:\n   ************* Note -- lines truncated at 300 characters, if necessary...\n   *************      5 Building,\n   ************* indicated Name=NECB 2011-HighriseApartment-NECB HDD Method-CAN_AB_Edmonton.711230_CWEC.epw created: 2017-07-10 19:26:14 +0000\n   ************* Only last 1 lines before error line shown.....\n   *************      6   NECB 2011-HighriseApartment-NECB HDD Method-CAN_AB_Edmonton.711230_CWEC.epw created: 2017-07-10 19:26:14 +0000, !- Name\n   ** Warning ** IP: IDF line~6 Alpha Argument length exceeds maximum, will be truncated=  NECB 2011-HighriseApartment-NECB HDD Method-CAN_AB_Edmonton.711230_CWEC.epw created: 2017-07-10 19:26:14 +000\n   **   ~~~   ** Will be processed as Alpha=NECB 2011-HIGHRISEAPARTMENT-NECB HDD METHOD-CAN_AB_EDMONTON.711230_CWEC.EPW CREATED: 2017-07-10 19:26:14 +0000\n   ************* Beginning Zone Sizing Calculations\n   ** Warning ** ProcessScheduleInput: Schedule:Day:Interval=\"ECONOMIZER MAX OA FRACTION 100 PCT DEFAULT\", Blank Schedule Type Limits Name input -- will not be validated.\n   ** Warning ** ProcessScheduleInput: Schedule:Day:Interval=\"SCHEDULE DAY 1\", Blank Schedule Type Limits Name input -- will not be validated.\n   ** Warning ** ProcessScheduleInput: Schedule:Day:Interval=\"SCHEDULE DAY 10\", Blank Schedule Type Limits Name input -- will not be validated.\n   ** Warning ** ProcessScheduleInput: Schedule:Day:Interval=\"SCHEDULE DAY 100\", Blank Schedule Type Limits Name input -- will not be validated.\n   ** Warning ** ProcessScheduleInput: Schedule:Day:Interval=\"SCHEDULE DAY 101\", Blank Schedule Type Limits Name input -- will not be validated.\n   ** Warning ** ProcessScheduleInput: Schedule:Day:Interval=\"SCHEDULE DAY 102\", Blank Schedule Type Limits Name input -- will not be validated.\n   ** Warning ** ProcessScheduleInput: Schedule:Day:Interval=\"SCHEDULE DAY 103\", Blank Schedule Type Limits Name input -- will not be validated.\n   ** Warning ** ProcessScheduleInput: Schedule:Day:Interval=\"SCHEDULE DAY 104\", Blank Schedule Type Limits Name input -- will not be validated.\n   ** Warning ** ProcessScheduleInput: Schedule:Day:Interval=\"SCHEDULE DAY 105\", Blank Schedule Type Limits Name input -- will not be validated.\n   ** Warning ** ProcessScheduleInput: Schedule:Day:Interval=\"SCHEDULE DAY 106\", Blank Schedule Type Limits Name input -- will not be validated.\n   ** Warning ** ProcessScheduleInput: Schedule:Day:Interval=\"SCHEDULE DAY 107\", Blank Schedule Type Limits Name input -- will not be validated.\n   ** Warning ** ProcessScheduleInput: Schedule:Day:Interval=\"SCHEDULE DAY 108\", Blank Schedule Type Limits Name input -- will not be validated.\n   ** Warning ** ProcessScheduleInput: Schedule:Day:Interval=\"SCHEDULE DAY 109\", Blank Schedule Type Limits Name input -- will not be validated.\n   ** Warning ** ProcessScheduleInput: Schedule:Day:Interval=\"SCHEDULE DAY 11\", Blank Schedule Type Limits Name input -- will not be validated.\n   ** Warning ** ProcessScheduleInput: Schedule:Day:Interval=\"SCHEDULE DAY 110\", Blank Schedule Type Limits Name input -- will not be validated.\n   ** Warning ** ProcessScheduleInput: Schedule:Day:Interval=\"SCHEDULE DAY 111\", Blank Schedule Type Limits Name input -- will not be validated.\n   ** Warning ** ProcessScheduleInput: Schedule:Day:Interval=\"SCHEDULE DAY 112\", Blank Schedule Type Limits Name input -- will not be validated.\n   ** Warning ** ProcessScheduleInput: Schedule:Day:Interval=\"SCHEDULE DAY 113\", Blank Schedule Type Limits Name input -- will not be validated.\n   ** Warning ** ProcessScheduleInput: Schedule:Day:Interval=\"SCHEDULE DAY 114\", Blank Schedule Type Limits Name input -- will not be validated.\n   ** Warning ** ProcessScheduleInput: Schedule:Day:Interval=\"SCHEDULE DAY 115\", Blank Schedule Type Limits Name input -- will not be validated.\n   ** Warning ** ProcessScheduleInput: Schedule:Day:Interval=\"SCHEDULE DAY 116\", Blank Schedule Type Limits Name input -- will not be validated.\n   ** Warning ** ProcessScheduleInput: Schedule:Day:Interval=\"SCHEDULE DAY 117\", Blank Schedule Type Limits Name input -- will not be validated.\n   ** Warning ** ProcessScheduleInput: Schedule:Day:Interval=\"SCHEDULE DAY 118\", Blank Schedule Type Limits Name input -- will not be validated.\n   ** Warning ** ProcessScheduleInput: Schedule:Day:Interval=\"SCHEDULE DAY 119\", Blank Schedule Type Limits Name input -- will not be validated.\n   ** Warning ** ProcessScheduleInput: Schedule:Day:Interval=\"SCHEDULE DAY 12\", Blank Schedule Type Limits Name input -- will not be validated.\n   ** Warning ** ProcessScheduleInput: Schedule:Day:Interval=\"SCHEDULE DAY 120\", Blank Schedule Type Limits Name input -- will not be validated.\n   ** Warning ** ProcessScheduleInput: Schedule:Day:Interval=\"SCHEDULE DAY 121\", Blank Schedule Type Limits Name input -- will not be validated.\n   ** Warning ** ProcessScheduleInput: Schedule:Day:Interval=\"SCHEDULE DAY 122\", Blank Schedule Type Limits Name input -- will not be validated.\n   ** Warning ** ProcessScheduleInput: Schedule:Day:Interval=\"SCHEDULE DAY 123\", Blank Schedule Type Limits Name input -- will not be validated.\n   ** Warning ** ProcessScheduleInput: Schedule:Day:Interval=\"SCHEDULE DAY 124\", Blank Schedule Type Limits Name input -- will not be validated.\n   ** Warning ** ProcessScheduleInput: Schedule:Day:Interval=\"SCHEDULE DAY 125\", Blank Schedule Type Limits Name input -- will not be validated.\n   ** Warning ** ProcessScheduleInput: Schedule:Day:Interval=\"SCHEDULE DAY 126\", Blank Schedule Type Limits Name input -- will not be validated.\n   ** Warning ** ProcessScheduleInput: Schedule:Day:Interval=\"SCHEDULE DAY 127\", Blank Schedule Type Limits Name input -- will not be validated.\n   ** Warning ** ProcessScheduleInput: Schedule:Day:Interval=\"SCHEDULE DAY 128\", Blank Schedule Type Limits Name input -- will not be validated.\n   ** Warning ** ProcessScheduleInput: Schedule:Day:Interval=\"SCHEDULE DAY 129\", Blank Schedule Type Limits Name input -- will not be validated.\n   ** Warning ** ProcessScheduleInput: Schedule:Day:Interval=\"SCHEDULE DAY 13\", Blank Schedule Type Limits Name input -- will not be validated.\n   ** Warning ** ProcessScheduleInput: Schedule:Day:Interval=\"SCHEDULE DAY 130\", Blank Schedule Type Limits Name input -- will not be validated.\n   ** Warning ** ProcessScheduleInput: Schedule:Day:Interval=\"SCHEDULE DAY 131\", Blank Schedule Type Limits Name input -- will not be validated.\n   ** Warning ** ProcessScheduleInput: Schedule:Day:Interval=\"SCHEDULE DAY 132\", Blank Schedule Type Limits Name input -- will not be validated.\n   ** Warning ** ProcessScheduleInput: Schedule:Day:Interval=\"SCHEDULE DAY 133\", Blank Schedule Type Limits Name input -- will not be validated.\n   ** Warning ** ProcessScheduleInput: Schedule:Day:Interval=\"SCHEDULE DAY 134\", Blank Schedule Type Limits Name input -- will not be validated.\n   ** Warning ** ProcessScheduleInput: Schedule:Day:Interval=\"SCHEDULE DAY 135\", Blank Schedule Type Limits Name input -- will not be validated.\n   ** Warning ** ProcessScheduleInput: Schedule:Day:Interval=\"SCHEDULE DAY 136\", Blank Schedule Type Limits Name input -- will not be validated.\n   ** Warning ** ProcessScheduleInput: Schedule:Day:Interval=\"SCHEDULE DAY 137\", Blank Schedule Type Limits Name input -- will not be validated.\n   ** Warning ** ProcessScheduleInput: Schedule:Day:Interval=\"SCHEDULE DAY 138\", Blank Schedule Type Limits Name input -- will not be validated.\n   ** Warning ** ProcessScheduleInput: Schedule:Day:Interval=\"SCHEDULE DAY 139\", Blank Schedule Type Limits Name input -- will not be validated.\n   ** Warning ** ProcessScheduleInput: Schedule:Day:Interval=\"SCHEDULE DAY 14\", Blank Schedule Type Limits Name input -- will not be validated.\n   ** Warning ** ProcessScheduleInput: Schedule:Day:Interval=\"SCHEDULE DAY 140\", Blank Schedule Type Limits Name input -- will not be validated.\n   ** Warning ** ProcessScheduleInput: Schedule:Day:Interval=\"SCHEDULE DAY 141\", Blank Schedule Type Limits Name input -- will not be validated.\n   ** Warning ** ProcessScheduleInput: Schedule:Day:Interval=\"SCHEDULE DAY 142\", Blank Schedule Type Limits Name input -- will not be validated.\n   ** Warning ** ProcessScheduleInput: Schedule:Day:Interval=\"SCHEDULE DAY 143\", Blank Schedule Type Limits Name input -- will not be validated.\n   ** Warning ** ProcessScheduleInput: Schedule:Day:Interval=\"SCHEDULE DAY 144\", Blank Schedule Type Limits Name input -- will not be validated.\n   ** Warning ** ProcessScheduleInput: Schedule:Day:Interval=\"SCHEDULE DAY 145\", Blank Schedule Type Limits Name input -- will not be validated.\n   ** Warning ** ProcessScheduleInput: Schedule:Day:Interval=\"SCHEDULE DAY 146\", Blank Schedule Type Limits Name input -- will not be validated.\n   ** Warning ** ProcessScheduleInput: Schedule:Day:Interval=\"SCHEDULE DAY 147\", Blank Schedule Type Limits Name input -- will not be validated.\n   ** Warning ** ProcessScheduleInput: Schedule:Day:Interval=\"SCHEDULE DAY 148\", Blank Schedule Type Limits Name input -- will not be validated.\n   ** Warning ** ProcessScheduleInput: Schedule:Day:Interval=\"SCHEDULE DAY 149\", Blank Schedule Type Limits Name input -- will not be validated.\n   ** Warning ** ProcessScheduleInput: Schedule:Day:Interval=\"SCHEDULE DAY 15\", Blank Schedule Type Limits Name input -- will not be validated.\n   ** Warning ** ProcessScheduleInput: Schedule:Day:Interval=\"SCHEDULE DAY 150\", Blank Schedule Type Limits Name input -- will not be validated.\n   ** Warning ** ProcessScheduleInput: Schedule:Day:Interval=\"SCHEDULE DAY 151\", Blank Schedule Type Limits Name input -- will not be validated.\n   ** Warning ** ProcessScheduleInput: Schedule:Day:Interval=\"SCHEDULE DAY 152\", Blank Schedule Type Limits Name input -- will not be validated.\n   ** Warning ** ProcessScheduleInput: Schedule:Day:Interval=\"SCHEDULE DAY 153\", Blank Schedule Type Limits Name input -- will not be validated.\n   ** Warning ** ProcessScheduleInput: Schedule:Day:Interval=\"SCHEDULE DAY 154\", Blank Schedule Type Limits Name input -- will not be validated.\n   ** Warning ** ProcessScheduleInput: Schedule:Day:Interval=\"SCHEDULE DAY 155\", Blank Schedule Type Limits Name input -- will not be validated.\n   ** Warning ** ProcessScheduleInput: Schedule:Day:Interval=\"SCHEDULE DAY 156\", Blank Schedule Type Limits Name input -- will not be validated.\n   ** Warning ** ProcessScheduleInput: Schedule:Day:Interval=\"SCHEDULE DAY 157\", Blank Schedule Type Limits Name input -- will not be validated.\n   ** Warning ** ProcessScheduleInput: Schedule:Day:Interval=\"SCHEDULE DAY 158\", Blank Schedule Type Limits Name input -- will not be validated.\n   ** Warning ** ProcessScheduleInput: Schedule:Day:Interval=\"SCHEDULE DAY 159\", Blank Schedule Type Limits Name input -- will not be validated.\n   ** Warning ** ProcessScheduleInput: Schedule:Day:Interval=\"SCHEDULE DAY 16\", Blank Schedule Type Limits Name input -- will not be validated.\n   ** Warning ** ProcessScheduleInput: Schedule:Day:Interval=\"SCHEDULE DAY 160\", Blank Schedule Type Limits Name input -- will not be validated.\n   ** Warning ** ProcessScheduleInput: Schedule:Day:Interval=\"SCHEDULE DAY 161\", Blank Schedule Type Limits Name input -- will not be validated.\n   ** Warning ** ProcessScheduleInput: Schedule:Day:Interval=\"SCHEDULE DAY 162\", Blank Schedule Type Limits Name input -- will not be validated.\n   ** Warning ** ProcessScheduleInput: Schedule:Day:Interval=\"SCHEDULE DAY 163\", Blank Schedule Type Limits Name input -- will not be validated.\n   ** Warning ** ProcessScheduleInput: Schedule:Day:Interval=\"SCHEDULE DAY 164\", Blank Schedule Type Limits Name input -- will not be validated.\n   ** Warning ** ProcessScheduleInput: Schedule:Day:Interval=\"SCHEDULE DAY 165\", Blank Schedule Type Limits Name input -- will not be validated.\n   ** Warning ** ProcessScheduleInput: Schedule:Day:Interval=\"SCHEDULE DAY 166\", Blank Schedule Type Limits Name input -- will not be validated.\n   ** Warning ** ProcessScheduleInput: Schedule:Day:Interval=\"SCHEDULE DAY 167\", Blank Schedule Type Limits Name input -- will not be validated.\n   ** Warning ** ProcessScheduleInput: Schedule:Day:Interval=\"SCHEDULE DAY 168\", Blank Schedule Type Limits Name input -- will not be validated.\n   ** Warning ** ProcessScheduleInput: Schedule:Day:Interval=\"SCHEDULE DAY 169\", Blank Schedule Type Limits Name input -- will not be validated.\n   ** Warning ** ProcessScheduleInput: Schedule:Day:Interval=\"SCHEDULE DAY 17\", Blank Schedule Type Limits Name input -- will not be validated.\n   ** Warning ** ProcessScheduleInput: Schedule:Day:Interval=\"SCHEDULE DAY 170\", Blank Schedule Type Limits Name input -- will not be validated.\n   ** Warning ** ProcessScheduleInput: Schedule:Day:Interval=\"SCHEDULE DAY 171\", Blank Schedule Type Limits Name input -- will not be validated.\n   ** Warning ** ProcessScheduleInput: Schedule:Day:Interval=\"SCHEDULE DAY 172\", Blank Schedule Type Limits Name input -- will not be validated.\n   ** Warning ** ProcessScheduleInput: Schedule:Day:Interval=\"SCHEDULE DAY 173\", Blank Schedule Type Limits Name input -- will not be validated.\n   ** Warning ** ProcessScheduleInput: Schedule:Day:Interval=\"SCHEDULE DAY 174\", Blank Schedule Type Limits Name input -- will not be validated.\n   ** Warning ** ProcessScheduleInput: Schedule:Day:Interval=\"SCHEDULE DAY 175\", Blank Schedule Type Limits Name input -- will not be validated.\n   ** Warning ** ProcessScheduleInput: Schedule:Day:Interval=\"SCHEDULE DAY 176\", Blank Schedule Type Limits Name input -- will not be validated.\n   ** Warning ** ProcessScheduleInput: Schedule:Day:Interval=\"SCHEDULE DAY 177\", Blank Schedule Type Limits Name input -- will not be validated.\n   ** Warning ** ProcessScheduleInput: Schedule:Day:Interval=\"SCHEDULE DAY 178\", Blank Schedule Type Limits Name input -- will not be validated.\n   ** Warning ** ProcessScheduleInput: Schedule:Day:Interval=\"SCHEDULE DAY 179\", Blank Schedule Type Limits Name input -- will not be validated.\n   ** Warning ** ProcessScheduleInput: Schedule:Day:Interval=\"SCHEDULE DAY 18\", Blank Schedule Type Limits Name input -- will not be validated.\n   ** Warning ** ProcessScheduleInput: Schedule:Day:Interval=\"SCHEDULE DAY 180\", Blank Schedule Type Limits Name input -- will not be validated.\n   ** Warning ** ProcessScheduleInput: Schedule:Day:Interval=\"SCHEDULE DAY 181\", Blank Schedule Type Limits Name input -- will not be validated.\n   ** Warning ** ProcessScheduleInput: Schedule:Day:Interval=\"SCHEDULE DAY 182\", Blank Schedule Type Limits Name input -- will not be validated.\n   ** Warning ** ProcessScheduleInput: Schedule:Day:Interval=\"SCHEDULE DAY 183\", Blank Schedule Type Limits Name input -- will not be validated.\n   ** Warning ** ProcessScheduleInput: Schedule:Day:Interval=\"SCHEDULE DAY 184\", Blank Schedule Type Limits Name input -- will not be validated.\n   ** Warning ** ProcessScheduleInput: Schedule:Day:Interval=\"SCHEDULE DAY 185\", Blank Schedule Type Limits Name input -- will not be validated.\n   ** Warning ** ProcessScheduleInput: Schedule:Day:Interval=\"SCHEDULE DAY 186\", Blank Schedule Type Limits Name input -- will not be validated.\n   ** Warning ** ProcessScheduleInput: Schedule:Day:Interval=\"SCHEDULE DAY 187\", Blank Schedule Type Limits Name input -- will not be validated.\n   ** Warning ** ProcessScheduleInput: Schedule:Day:Interval=\"SCHEDULE DAY 188\", Blank Schedule Type Limits Name input -- will not be validated.\n   ** Warning ** ProcessScheduleInput: Schedule:Day:Interval=\"SCHEDULE DAY 189\", Blank Schedule Type Limits Name input -- will not be validated.\n   ** Warning ** ProcessScheduleInput: Schedule:Day:Interval=\"SCHEDULE DAY 19\", Blank Schedule Type Limits Name input -- will not be validated.\n   ** Warning ** ProcessScheduleInput: Schedule:Day:Interval=\"SCHEDULE DAY 190\", Blank Schedule Type Limits Name input -- will not be validated.\n   ** Warning ** ProcessScheduleInput: Schedule:Day:Interval=\"SCHEDULE DAY 191\", Blank Schedule Type Limits Name input -- will not be validated.\n   ** Warning ** ProcessScheduleInput: Schedule:Day:Interval=\"SCHEDULE DAY 192\", Blank Schedule Type Limits Name input -- will not be validated.\n   ** Warning ** ProcessScheduleInput: Schedule:Day:Interval=\"SCHEDULE DAY 193\", Blank Schedule Type Limits Name input -- will not be validated.\n   ** Warning ** ProcessScheduleInput: Schedule:Day:Interval=\"SCHEDULE DAY 194\", Blank Schedule Type Limits Name input -- will not be validated.\n   ** Warning ** ProcessScheduleInput: Schedule:Day:Interval=\"SCHEDULE DAY 195\", Blank Schedule Type Limits Name input -- will not be validated.\n   ** Warning ** ProcessScheduleInput: Schedule:Day:Interval=\"SCHEDULE DAY 196\", Blank Schedule Type Limits Name input -- will not be validated.\n   ** Warning ** ProcessScheduleInput: Schedule:Day:Interval=\"SCHEDULE DAY 197\", Blank Schedule Type Limits Name input -- will not be validated.\n   ** Warning ** ProcessScheduleInput: Schedule:Day:Interval=\"SCHEDULE DAY 198\", Blank Schedule Type Limits Name input -- will not be validated.\n   ** Warning ** ProcessScheduleInput: Schedule:Day:Interval=\"SCHEDULE DAY 199\", Blank Schedule Type Limits Name input -- will not be validated.\n   ** Warning ** ProcessScheduleInput: Schedule:Day:Interval=\"SCHEDULE DAY 2\", Blank Schedule Type Limits Name input -- will not be validated.\n   ** Warning ** ProcessScheduleInput: Schedule:Day:Interval=\"SCHEDULE DAY 20\", Blank Schedule Type Limits Name input -- will not be validated.\n   ** Warning ** ProcessScheduleInput: Schedule:Day:Interval=\"SCHEDULE DAY 200\", Blank Schedule Type Limits Name input -- will not be validated.\n   ** Warning ** ProcessScheduleInput: Schedule:Day:Interval=\"SCHEDULE DAY 201\", Blank Schedule Type Limits Name input -- will not be validated.\n   ** Warning ** ProcessScheduleInput: Schedule:Day:Interval=\"SCHEDULE DAY 202\", Blank Schedule Type Limits Name input -- will not be validated.\n   ** Warning ** ProcessScheduleInput: Schedule:Day:Interval=\"SCHEDULE DAY 203\", Blank Schedule Type Limits Name input -- will not be validated.\n   ** Warning ** ProcessScheduleInput: Schedule:Day:Interval=\"SCHEDULE DAY 204\", Blank Schedule Type Limits Name input -- will not be validated.\n   ** Warning ** ProcessScheduleInput: Schedule:Day:Interval=\"SCHEDULE DAY 205\", Blank Schedule Type Limits Name input -- will not be validated.\n   ** Warning ** ProcessScheduleInput: Schedule:Day:Interval=\"SCHEDULE DAY 206\", Blank Schedule Type Limits Name input -- will not be validated.\n   ** Warning ** ProcessScheduleInput: Schedule:Day:Interval=\"SCHEDULE DAY 207\", Blank Schedule Type Limits Name input -- will not be validated.\n   ** Warning ** ProcessScheduleInput: Schedule:Day:Interval=\"SCHEDULE DAY 208\", Blank Schedule Type Limits Name input -- will not be validated.\n   ** Warning ** ProcessScheduleInput: Schedule:Day:Interval=\"SCHEDULE DAY 209\", Blank Schedule Type Limits Name input -- will not be validated.\n   ** Warning ** ProcessScheduleInput: Schedule:Day:Interval=\"SCHEDULE DAY 21\", Blank Schedule Type Limits Name input -- will not be validated.\n   ** Warning ** ProcessScheduleInput: Schedule:Day:Interval=\"SCHEDULE DAY 210\", Blank Schedule Type Limits Name input -- will not be validated.\n   ** Warning ** ProcessScheduleInput: Schedule:Day:Interval=\"SCHEDULE DAY 211\", Blank Schedule Type Limits Name input -- will not be validated.\n   ** Warning ** ProcessScheduleInput: Schedule:Day:Interval=\"SCHEDULE DAY 212\", Blank Schedule Type Limits Name input -- will not be validated.\n   ** Warning ** ProcessScheduleInput: Schedule:Day:Interval=\"SCHEDULE DAY 213\", Blank Schedule Type Limits Name input -- will not be validated.\n   ** Warning ** ProcessScheduleInput: Schedule:Day:Interval=\"SCHEDULE DAY 214\", Blank Schedule Type Limits Name input -- will not be validated.\n   ** Warning ** ProcessScheduleInput: Schedule:Day:Interval=\"SCHEDULE DAY 215\", Blank Schedule Type Limits Name input -- will not be validated.\n   ** Warning ** ProcessScheduleInput: Schedule:Day:Interval=\"SCHEDULE DAY 216\", Blank Schedule Type Limits Name input -- will not be validated.\n   ** Warning ** ProcessScheduleInput: Schedule:Day:Interval=\"SCHEDULE DAY 217\", Blank Schedule Type Limits Name input -- will not be validated.\n   ** Warning ** ProcessScheduleInput: Schedule:Day:Interval=\"SCHEDULE DAY 218\", Blank Schedule Type Limits Name input -- will not be validated.\n   ** Warning ** ProcessScheduleInput: Schedule:Day:Interval=\"SCHEDULE DAY 219\", Blank Schedule Type Limits Name input -- will not be validated.\n   ** Warning ** ProcessScheduleInput: Schedule:Day:Interval=\"SCHEDULE DAY 22\", Blank Schedule Type Limits Name input -- will not be validated.\n   ** Warning ** ProcessScheduleInput: Schedule:Day:Interval=\"SCHEDULE DAY 220\", Blank Schedule Type Limits Name input -- will not be validated.\n   ** Warning ** ProcessScheduleInput: Schedule:Day:Interval=\"SCHEDULE DAY 221\", Blank Schedule Type Limits Name input -- will not be validated.\n   ** Warning ** ProcessScheduleInput: Schedule:Day:Interval=\"SCHEDULE DAY 222\", Blank Schedule Type Limits Name input -- will not be validated.\n   ** Warning ** ProcessScheduleInput: Schedule:Day:Interval=\"SCHEDULE DAY 223\", Blank Schedule Type Limits Name input -- will not be validated.\n   ** Warning ** ProcessScheduleInput: Schedule:Day:Interval=\"SCHEDULE DAY 224\", Blank Schedule Type Limits Name input -- will not be validated.\n   ** Warning ** ProcessScheduleInput: Schedule:Day:Interval=\"SCHEDULE DAY 225\", Blank Schedule Type Limits Name input -- will not be validated.\n   ** Warning ** ProcessScheduleInput: Schedule:Day:Interval=\"SCHEDULE DAY 226\", Blank Schedule Type Limits Name input -- will not be validated.\n   ** Warning ** ProcessScheduleInput: Schedule:Day:Interval=\"SCHEDULE DAY 227\", Blank Schedule Type Limits Name input -- will not be validated.\n   ** Warning ** ProcessScheduleInput: Schedule:Day:Interval=\"SCHEDULE DAY 228\", Blank Schedule Type Limits Name input -- will not be validated.\n   ** Warning ** ProcessScheduleInput: Schedule:Day:Interval=\"SCHEDULE DAY 229\", Blank Schedule Type Limits Name input -- will not be validated.\n   ** Warning ** ProcessScheduleInput: Schedule:Day:Interval=\"SCHEDULE DAY 23\", Blank Schedule Type Limits Name input -- will not be validated.\n   ** Warning ** ProcessScheduleInput: Schedule:Day:Interval=\"SCHEDULE DAY 230\", Blank Schedule Type Limits Name input -- will not be validated.\n   ** Warning ** ProcessScheduleInput: Schedule:Day:Interval=\"SCHEDULE DAY 231\", Blank Schedule Type Limits Name input -- will not be validated.\n   ** Warning ** ProcessScheduleInput: Schedule:Day:Interval=\"SCHEDULE DAY 232\", Blank Schedule Type Limits Name input -- will not be validated.\n   ** Warning ** ProcessScheduleInput: Schedule:Day:Interval=\"SCHEDULE DAY 233\", Blank Schedule Type Limits Name input -- will not be validated.\n   ** Warning ** ProcessScheduleInput: Schedule:Day:Interval=\"SCHEDULE DAY 234\", Blank Schedule Type Limits Name input -- will not be validated.\n   ** Warning ** ProcessScheduleInput: Schedule:Day:Interval=\"SCHEDULE DAY 235\", Blank Schedule Type Limits Name input -- will not be validated.\n   ** Warning ** ProcessScheduleInput: Schedule:Day:Interval=\"SCHEDULE DAY 236\", Blank Schedule Type Limits Name input -- will not be validated.\n   ** Warning ** ProcessScheduleInput: Schedule:Day:Interval=\"SCHEDULE DAY 237\", Blank Schedule Type Limits Name input -- will not be validated.\n   ** Warning ** ProcessScheduleInput: Schedule:Day:Interval=\"SCHEDULE DAY 238\", Blank Schedule Type Limits Name input -- will not be validated.\n   ** Warning ** ProcessScheduleInput: Schedule:Day:Interval=\"SCHEDULE DAY 239\", Blank Schedule Type Limits Name input -- will not be validated.\n   ** Warning ** ProcessScheduleInput: Schedule:Day:Interval=\"SCHEDULE DAY 24\", Blank Schedule Type Limits Name input -- will not be validated.\n   ** Warning ** ProcessScheduleInput: Schedule:Day:Interval=\"SCHEDULE DAY 240\", Blank Schedule Type Limits Name input -- will not be validated.\n   ** Warning ** ProcessScheduleInput: Schedule:Day:Interval=\"SCHEDULE DAY 241\", Blank Schedule Type Limits Name input -- will not be validated.\n   ** Warning ** ProcessScheduleInput: Schedule:Day:Interval=\"SCHEDULE DAY 242\", Blank Schedule Type Limits Name input -- will not be validated.\n   ** Warning ** ProcessScheduleInput: Schedule:Day:Interval=\"SCHEDULE DAY 243\", Blank Schedule Type Limits Name input -- will not be validated.\n   ** Warning ** ProcessScheduleInput: Schedule:Day:Interval=\"SCHEDULE DAY 244\", Blank Schedule Type Limits Name input -- will not be validated.\n   ** Warning ** ProcessScheduleInput: Schedule:Day:Interval=\"SCHEDULE DAY 245\", Blank Schedule Type Limits Name input -- will not be validated.\n   ** Warning ** ProcessScheduleInput: Schedule:Day:Interval=\"SCHEDULE DAY 246\", Blank Schedule Type Limits Name input -- will not be validated.\n   ** Warning ** ProcessScheduleInput: Schedule:Day:Interval=\"SCHEDULE DAY 247\", Blank Schedule Type Limits Name input -- will not be validated.\n   ** Warning ** ProcessScheduleInput: Schedule:Day:Interval=\"SCHEDULE DAY 248\", Blank Schedule Type Limits Name input -- will not be validated.\n   ** Warning ** ProcessScheduleInput: Schedule:Day:Interval=\"SCHEDULE DAY 249\", Blank Schedule Type Limits Name input -- will not be validated.\n   ** Warning ** ProcessScheduleInput: Schedule:Day:Interval=\"SCHEDULE DAY 25\", Blank Schedule Type Limits Name input -- will not be validated.\n   ** Warning ** ProcessScheduleInput: Schedule:Day:Interval=\"SCHEDULE DAY 250\", Blank Schedule Type Limits Name input -- will not be validated.\n   ** Warning ** ProcessScheduleInput: Schedule:Day:Interval=\"SCHEDULE DAY 251\", Blank Schedule Type Limits Name input -- will not be validated.\n   ** Warning ** ProcessScheduleInput: Schedule:Day:Interval=\"SCHEDULE DAY 26\", Blank Schedule Type Limits Name input -- will not be validated.\n   ** Warning ** ProcessScheduleInput: Schedule:Day:Interval=\"SCHEDULE DAY 27\", Blank Schedule Type Limits Name input -- will not be validated.\n   ** Warning ** ProcessScheduleInput: Schedule:Day:Interval=\"SCHEDULE DAY 28\", Blank Schedule Type Limits Name input -- will not be validated.\n   ** Warning ** ProcessScheduleInput: Schedule:Day:Interval=\"SCHEDULE DAY 29\", Blank Schedule Type Limits Name input -- will not be validated.\n   ** Warning ** ProcessScheduleInput: Schedule:Day:Interval=\"SCHEDULE DAY 30\", Blank Schedule Type Limits Name input -- will not be validated.\n   ** Warning ** ProcessScheduleInput: Schedule:Day:Interval=\"SCHEDULE DAY 31\", Blank Schedule Type Limits Name input -- will not be validated.\n   ** Warning ** ProcessScheduleInput: Schedule:Day:Interval=\"SCHEDULE DAY 32\", Blank Schedule Type Limits Name input -- will not be validated.\n   ** Warning ** ProcessScheduleInput: Schedule:Day:Interval=\"SCHEDULE DAY 33\", Blank Schedule Type Limits Name input -- will not be validated.\n   ** Warning ** ProcessScheduleInput: Schedule:Day:Interval=\"SCHEDULE DAY 34\", Blank Schedule Type Limits Name input -- will not be validated.\n   ** Warning ** ProcessScheduleInput: Schedule:Day:Interval=\"SCHEDULE DAY 35\", Blank Schedule Type Limits Name input -- will not be validated.\n   ** Warning ** ProcessScheduleInput: Schedule:Day:Interval=\"SCHEDULE DAY 36\", Blank Schedule Type Limits Name input -- will not be validated.\n   ** Warning ** ProcessScheduleInput: Schedule:Day:Interval=\"SCHEDULE DAY 37\", Blank Schedule Type Limits Name input -- will not be validated.\n   ** Warning ** ProcessScheduleInput: Schedule:Day:Interval=\"SCHEDULE DAY 38\", Blank Schedule Type Limits Name input -- will not be validated.\n   ** Warning ** ProcessScheduleInput: Schedule:Day:Interval=\"SCHEDULE DAY 39\", Blank Schedule Type Limits Name input -- will not be validated.\n   ** Warning ** ProcessScheduleInput: Schedule:Day:Interval=\"SCHEDULE DAY 40\", Blank Schedule Type Limits Name input -- will not be validated.\n   ** Warning ** ProcessScheduleInput: Schedule:Day:Interval=\"SCHEDULE DAY 41\", Blank Schedule Type Limits Name input -- will not be validated.\n   ** Warning ** ProcessScheduleInput: Schedule:Day:Interval=\"SCHEDULE DAY 42\", Blank Schedule Type Limits Name input -- will not be validated.\n   ** Warning ** ProcessScheduleInput: Schedule:Day:Interval=\"SCHEDULE DAY 43\", Blank Schedule Type Limits Name input -- will not be validated.\n   ** Warning ** ProcessScheduleInput: Schedule:Day:Interval=\"SCHEDULE DAY 44\", Blank Schedule Type Limits Name input -- will not be validated.\n   ** Warning ** ProcessScheduleInput: Schedule:Day:Interval=\"SCHEDULE DAY 45\", Blank Schedule Type Limits Name input -- will not be validated.\n   ** Warning ** ProcessScheduleInput: Schedule:Day:Interval=\"SCHEDULE DAY 46\", Blank Schedule Type Limits Name input -- will not be validated.\n   ** Warning ** ProcessScheduleInput: Schedule:Day:Interval=\"SCHEDULE DAY 47\", Blank Schedule Type Limits Name input -- will not be validated.\n   ** Warning ** ProcessScheduleInput: Schedule:Day:Interval=\"SCHEDULE DAY 48\", Blank Schedule Type Limits Name input -- will not be validated.\n   ** Warning ** ProcessScheduleInput: Schedule:Day:Interval=\"SCHEDULE DAY 49\", Blank Schedule Type Limits Name input -- will not be validated.\n   ** Warning ** ProcessScheduleInput: Schedule:Day:Interval=\"SCHEDULE DAY 50\", Blank Schedule Type Limits Name input -- will not be validated.\n   ** Warning ** ProcessScheduleInput: Schedule:Day:Interval=\"SCHEDULE DAY 51\", Blank Schedule Type Limits Name input -- will not be validated.\n   ** Warning ** ProcessScheduleInput: Schedule:Day:Interval=\"SCHEDULE DAY 52\", Blank Schedule Type Limits Name input -- will not be validated.\n   ** Warning ** ProcessScheduleInput: Schedule:Day:Interval=\"SCHEDULE DAY 53\", Blank Schedule Type Limits Name input -- will not be validated.\n   ** Warning ** ProcessScheduleInput: Schedule:Day:Interval=\"SCHEDULE DAY 54\", Blank Schedule Type Limits Name input -- will not be validated.\n   ** Warning ** ProcessScheduleInput: Schedule:Day:Interval=\"SCHEDULE DAY 55\", Blank Schedule Type Limits Name input -- will not be validated.\n   ** Warning ** ProcessScheduleInput: Schedule:Day:Interval=\"SCHEDULE DAY 56\", Blank Schedule Type Limits Name input -- will not be validated.\n   ** Warning ** ProcessScheduleInput: Schedule:Day:Interval=\"SCHEDULE DAY 57\", Blank Schedule Type Limits Name input -- will not be validated.\n   ** Warning ** ProcessScheduleInput: Schedule:Day:Interval=\"SCHEDULE DAY 58\", Blank Schedule Type Limits Name input -- will not be validated.\n   ** Warning ** ProcessScheduleInput: Schedule:Day:Interval=\"SCHEDULE DAY 59\", Blank Schedule Type Limits Name input -- will not be validated.\n   ** Warning ** ProcessScheduleInput: Schedule:Day:Interval=\"SCHEDULE DAY 60\", Blank Schedule Type Limits Name input -- will not be validated.\n   ** Warning ** ProcessScheduleInput: Schedule:Day:Interval=\"SCHEDULE DAY 61\", Blank Schedule Type Limits Name input -- will not be validated.\n   ** Warning ** ProcessScheduleInput: Schedule:Day:Interval=\"SCHEDULE DAY 62\", Blank Schedule Type Limits Name input -- will not be validated.\n   ** Warning ** ProcessScheduleInput: Schedule:Day:Interval=\"SCHEDULE DAY 63\", Blank Schedule Type Limits Name input -- will not be validated.\n   ** Warning ** ProcessScheduleInput: Schedule:Day:Interval=\"SCHEDULE DAY 64\", Blank Schedule Type Limits Name input -- will not be validated.\n   ** Warning ** ProcessScheduleInput: Schedule:Day:Interval=\"SCHEDULE DAY 65\", Blank Schedule Type Limits Name input -- will not be validated.\n   ** Warning ** ProcessScheduleInput: Schedule:Day:Interval=\"SCHEDULE DAY 66\", Blank Schedule Type Limits Name input -- will not be validated.\n   ** Warning ** ProcessScheduleInput: Schedule:Day:Interval=\"SCHEDULE DAY 67\", Blank Schedule Type Limits Name input -- will not be validated.\n   ** Warning ** ProcessScheduleInput: Schedule:Day:Interval=\"SCHEDULE DAY 68\", Blank Schedule Type Limits Name input -- will not be validated.\n   ** Warning ** ProcessScheduleInput: Schedule:Day:Interval=\"SCHEDULE DAY 69\", Blank Schedule Type Limits Name input -- will not be validated.\n   ** Warning ** ProcessScheduleInput: Schedule:Day:Interval=\"SCHEDULE DAY 70\", Blank Schedule Type Limits Name input -- will not be validated.\n   ** Warning ** ProcessScheduleInput: Schedule:Day:Interval=\"SCHEDULE DAY 71\", Blank Schedule Type Limits Name input -- will not be validated.\n   ** Warning ** ProcessScheduleInput: Schedule:Day:Interval=\"SCHEDULE DAY 72\", Blank Schedule Type Limits Name input -- will not be validated.\n   ** Warning ** ProcessScheduleInput: Schedule:Day:Interval=\"SCHEDULE DAY 73\", Blank Schedule Type Limits Name input -- will not be validated.\n   ** Warning ** ProcessScheduleInput: Schedule:Day:Interval=\"SCHEDULE DAY 74\", Blank Schedule Type Limits Name input -- will not be validated.\n   ** Warning ** ProcessScheduleInput: Schedule:Day:Interval=\"SCHEDULE DAY 75\", Blank Schedule Type Limits Name input -- will not be validated.\n   ** Warning ** ProcessScheduleInput: Schedule:Day:Interval=\"SCHEDULE DAY 76\", Blank Schedule Type Limits Name input -- will not be validated.\n   ** Warning ** ProcessScheduleInput: Schedule:Day:Interval=\"SCHEDULE DAY 77\", Blank Schedule Type Limits Name input -- will not be validated.\n   ** Warning ** ProcessScheduleInput: Schedule:Day:Interval=\"SCHEDULE DAY 78\", Blank Schedule Type Limits Name input -- will not be validated.\n   ** Warning ** ProcessScheduleInput: Schedule:Day:Interval=\"SCHEDULE DAY 79\", Blank Schedule Type Limits Name input -- will not be validated.\n   ** Warning ** ProcessScheduleInput: Schedule:Day:Interval=\"SCHEDULE DAY 8\", Blank Schedule Type Limits Name input -- will not be validated.\n   ** Warning ** ProcessScheduleInput: Schedule:Day:Interval=\"SCHEDULE DAY 80\", Blank Schedule Type Limits Name input -- will not be validated.\n   ** Warning ** ProcessScheduleInput: Schedule:Day:Interval=\"SCHEDULE DAY 81\", Blank Schedule Type Limits Name input -- will not be validated.\n   ** Warning ** ProcessScheduleInput: Schedule:Day:Interval=\"SCHEDULE DAY 82\", Blank Schedule Type Limits Name input -- will not be validated.\n   ** Warning ** ProcessScheduleInput: Schedule:Day:Interval=\"SCHEDULE DAY 83\", Blank Schedule Type Limits Name input -- will not be validated.\n   ** Warning ** ProcessScheduleInput: Schedule:Day:Interval=\"SCHEDULE DAY 84\", Blank Schedule Type Limits Name input -- will not be validated.\n   ** Warning ** ProcessScheduleInput: Schedule:Day:Interval=\"SCHEDULE DAY 85\", Blank Schedule Type Limits Name input -- will not be validated.\n   ** Warning ** ProcessScheduleInput: Schedule:Day:Interval=\"SCHEDULE DAY 86\", Blank Schedule Type Limits Name input -- will not be validated.\n   ** Warning ** ProcessScheduleInput: Schedule:Day:Interval=\"SCHEDULE DAY 87\", Blank Schedule Type Limits Name input -- will not be validated.\n   ** Warning ** ProcessScheduleInput: Schedule:Day:Interval=\"SCHEDULE DAY 88\", Blank Schedule Type Limits Name input -- will not be validated.\n   ** Warning ** ProcessScheduleInput: Schedule:Day:Interval=\"SCHEDULE DAY 89\", Blank Schedule Type Limits Name input -- will not be validated.\n   ** Warning ** ProcessScheduleInput: Schedule:Day:Interval=\"SCHEDULE DAY 9\", Blank Schedule Type Limits Name input -- will not be validated.\n   ** Warning ** ProcessScheduleInput: Schedule:Day:Interval=\"SCHEDULE DAY 90\", Blank Schedule Type Limits Name input -- will not be validated.\n   ** Warning ** ProcessScheduleInput: Schedule:Day:Interval=\"SCHEDULE DAY 91\", Blank Schedule Type Limits Name input -- will not be validated.\n   ** Warning ** ProcessScheduleInput: Schedule:Day:Interval=\"SCHEDULE DAY 92\", Blank Schedule Type Limits Name input -- will not be validated.\n   ** Warning ** ProcessScheduleInput: Schedule:Day:Interval=\"SCHEDULE DAY 93\", Blank Schedule Type Limits Name input -- will not be validated.\n   ** Warning ** ProcessScheduleInput: Schedule:Day:Interval=\"SCHEDULE DAY 94\", Blank Schedule Type Limits Name input -- will not be validated.\n   ** Warning ** ProcessScheduleInput: Schedule:Day:Interval=\"SCHEDULE DAY 95\", Blank Schedule Type Limits Name input -- will not be validated.\n   ** Warning ** ProcessScheduleInput: Schedule:Day:Interval=\"SCHEDULE DAY 96\", Blank Schedule Type Limits Name input -- will not be validated.\n   ** Warning ** ProcessScheduleInput: Schedule:Day:Interval=\"SCHEDULE DAY 97\", Blank Schedule Type Limits Name input -- will not be validated.\n   ** Warning ** ProcessScheduleInput: Schedule:Day:Interval=\"SCHEDULE DAY 98\", Blank Schedule Type Limits Name input -- will not be validated.\n   ** Warning ** ProcessScheduleInput: Schedule:Day:Interval=\"SCHEDULE DAY 99\", Blank Schedule Type Limits Name input -- will not be validated.\n   ** Warning ** ProcessScheduleInput: Schedule:Year=\"ECONOMIZER MAX OA FRACTION 100 PCT\", Blank Schedule Type Limits Name input -- will not be validated.\n   ** Warning ** ProcessScheduleInput: Schedule:Year=\"SCHEDULE RULESET 10\", Blank Schedule Type Limits Name input -- will not be validated.\n   ** Warning ** ProcessScheduleInput: Schedule:Year=\"SCHEDULE RULESET 100\", Blank Schedule Type Limits Name input -- will not be validated.\n   ** Warning ** ProcessScheduleInput: Schedule:Year=\"SCHEDULE RULESET 101\", Blank Schedule Type Limits Name input -- will not be validated.\n   ** Warning ** ProcessScheduleInput: Schedule:Year=\"SCHEDULE RULESET 102\", Blank Schedule Type Limits Name input -- will not be validated.\n   ** Warning ** ProcessScheduleInput: Schedule:Year=\"SCHEDULE RULESET 103\", Blank Schedule Type Limits Name input -- will not be validated.\n   ** Warning ** ProcessScheduleInput: Schedule:Year=\"SCHEDULE RULESET 104\", Blank Schedule Type Limits Name input -- will not be validated.\n   ** Warning ** ProcessScheduleInput: Schedule:Year=\"SCHEDULE RULESET 105\", Blank Schedule Type Limits Name input -- will not be validated.\n   ** Warning ** ProcessScheduleInput: Schedule:Year=\"SCHEDULE RULESET 106\", Blank Schedule Type Limits Name input -- will not be validated.\n   ** Warning ** ProcessScheduleInput: Schedule:Year=\"SCHEDULE RULESET 107\", Blank Schedule Type Limits Name input -- will not be validated.\n   ** Warning ** ProcessScheduleInput: Schedule:Year=\"SCHEDULE RULESET 108\", Blank Schedule Type Limits Name input -- will not be validated.\n   ** Warning ** ProcessScheduleInput: Schedule:Year=\"SCHEDULE RULESET 109\", Blank Schedule Type Limits Name input -- will not be validated.\n   ** Warning ** ProcessScheduleInput: Schedule:Year=\"SCHEDULE RULESET 11\", Blank Schedule Type Limits Name input -- will not be validated.\n   ** Warning ** ProcessScheduleInput: Schedule:Year=\"SCHEDULE RULESET 110\", Blank Schedule Type Limits Name input -- will not be validated.\n   ** Warning ** ProcessScheduleInput: Schedule:Year=\"SCHEDULE RULESET 111\", Blank Schedule Type Limits Name input -- will not be validated.\n   ** Warning ** ProcessScheduleInput: Schedule:Year=\"SCHEDULE RULESET 112\", Blank Schedule Type Limits Name input -- will not be validated.\n   ** Warning ** ProcessScheduleInput: Schedule:Year=\"SCHEDULE RULESET 113\", Blank Schedule Type Limits Name input -- will not be validated.\n   ** Warning ** ProcessScheduleInput: Schedule:Year=\"SCHEDULE RULESET 114\", Blank Schedule Type Limits Name input -- will not be validated.\n   ** Warning ** ProcessScheduleInput: Schedule:Year=\"SCHEDULE RULESET 115\", Blank Schedule Type Limits Name input -- will not be validated.\n   ** Warning ** ProcessScheduleInput: Schedule:Year=\"SCHEDULE RULESET 116\", Blank Schedule Type Limits Name input -- will not be validated.\n   ** Warning ** ProcessScheduleInput: Schedule:Year=\"SCHEDULE RULESET 117\", Blank Schedule Type Limits Name input -- will not be validated.\n   ** Warning ** ProcessScheduleInput: Schedule:Year=\"SCHEDULE RULESET 118\", Blank Schedule Type Limits Name input -- will not be validated.\n   ** Warning ** ProcessScheduleInput: Schedule:Year=\"SCHEDULE RULESET 119\", Blank Schedule Type Limits Name input -- will not be validated.\n   ** Warning ** ProcessScheduleInput: Schedule:Year=\"SCHEDULE RULESET 12\", Blank Schedule Type Limits Name input -- will not be validated.\n   ** Warning ** ProcessScheduleInput: Schedule:Year=\"SCHEDULE RULESET 120\", Blank Schedule Type Limits Name input -- will not be validated.\n   ** Warning ** ProcessScheduleInput: Schedule:Year=\"SCHEDULE RULESET 121\", Blank Schedule Type Limits Name input -- will not be validated.\n   ** Warning ** ProcessScheduleInput: Schedule:Year=\"SCHEDULE RULESET 122\", Blank Schedule Type Limits Name input -- will not be validated.\n   ** Warning ** ProcessScheduleInput: Schedule:Year=\"SCHEDULE RULESET 123\", Blank Schedule Type Limits Name input -- will not be validated.\n   ** Warning ** ProcessScheduleInput: Schedule:Year=\"SCHEDULE RULESET 124\", Blank Schedule Type Limits Name input -- will not be validated.\n   ** Warning ** ProcessScheduleInput: Schedule:Year=\"SCHEDULE RULESET 125\", Blank Schedule Type Limits Name input -- will not be validated.\n   ** Warning ** ProcessScheduleInput: Schedule:Year=\"SCHEDULE RULESET 126\", Blank Schedule Type Limits Name input -- will not be validated.\n   ** Warning ** ProcessScheduleInput: Schedule:Year=\"SCHEDULE RULESET 127\", Blank Schedule Type Limits Name input -- will not be validated.\n   ** Warning ** ProcessScheduleInput: Schedule:Year=\"SCHEDULE RULESET 128\", Blank Schedule Type Limits Name input -- will not be validated.\n   ** Warning ** ProcessScheduleInput: Schedule:Year=\"SCHEDULE RULESET 129\", Blank Schedule Type Limits Name input -- will not be validated.\n   ** Warning ** ProcessScheduleInput: Schedule:Year=\"SCHEDULE RULESET 13\", Blank Schedule Type Limits Name input -- will not be validated.\n   ** Warning ** ProcessScheduleInput: Schedule:Year=\"SCHEDULE RULESET 130\", Blank Schedule Type Limits Name input -- will not be validated.\n   ** Warning ** ProcessScheduleInput: Schedule:Year=\"SCHEDULE RULESET 131\", Blank Schedule Type Limits Name input -- will not be validated.\n   ** Warning ** ProcessScheduleInput: Schedule:Year=\"SCHEDULE RULESET 132\", Blank Schedule Type Limits Name input -- will not be validated.\n   ** Warning ** ProcessScheduleInput: Schedule:Year=\"SCHEDULE RULESET 133\", Blank Schedule Type Limits Name input -- will not be validated.\n   ** Warning ** ProcessScheduleInput: Schedule:Year=\"SCHEDULE RULESET 134\", Blank Schedule Type Limits Name input -- will not be validated.\n   ** Warning ** ProcessScheduleInput: Schedule:Year=\"SCHEDULE RULESET 135\", Blank Schedule Type Limits Name input -- will not be validated.\n   ** Warning ** ProcessScheduleInput: Schedule:Year=\"SCHEDULE RULESET 136\", Blank Schedule Type Limits Name input -- will not be validated.\n   ** Warning ** ProcessScheduleInput: Schedule:Year=\"SCHEDULE RULESET 137\", Blank Schedule Type Limits Name input -- will not be validated.\n   ** Warning ** ProcessScheduleInput: Schedule:Year=\"SCHEDULE RULESET 138\", Blank Schedule Type Limits Name input -- will not be validated.\n   ** Warning ** ProcessScheduleInput: Schedule:Year=\"SCHEDULE RULESET 139\", Blank Schedule Type Limits Name input -- will not be validated.\n   ** Warning ** ProcessScheduleInput: Schedule:Year=\"SCHEDULE RULESET 14\", Blank Schedule Type Limits Name input -- will not be validated.\n   ** Warning ** ProcessScheduleInput: Schedule:Year=\"SCHEDULE RULESET 140\", Blank Schedule Type Limits Name input -- will not be validated.\n   ** Warning ** ProcessScheduleInput: Schedule:Year=\"SCHEDULE RULESET 141\", Blank Schedule Type Limits Name input -- will not be validated.\n   ** Warning ** ProcessScheduleInput: Schedule:Year=\"SCHEDULE RULESET 142\", Blank Schedule Type Limits Name input -- will not be validated.\n   ** Warning ** ProcessScheduleInput: Schedule:Year=\"SCHEDULE RULESET 143\", Blank Schedule Type Limits Name input -- will not be validated.\n   ** Warning ** ProcessScheduleInput: Schedule:Year=\"SCHEDULE RULESET 144\", Blank Schedule Type Limits Name input -- will not be validated.\n   ** Warning ** ProcessScheduleInput: Schedule:Year=\"SCHEDULE RULESET 145\", Blank Schedule Type Limits Name input -- will not be validated.\n   ** Warning ** ProcessScheduleInput: Schedule:Year=\"SCHEDULE RULESET 146\", Blank Schedule Type Limits Name input -- will not be validated.\n   ** Warning ** ProcessScheduleInput: Schedule:Year=\"SCHEDULE RULESET 147\", Blank Schedule Type Limits Name input -- will not be validated.\n   ** Warning ** ProcessScheduleInput: Schedule:Year=\"SCHEDULE RULESET 148\", Blank Schedule Type Limits Name input -- will not be validated.\n   ** Warning ** ProcessScheduleInput: Schedule:Year=\"SCHEDULE RULESET 149\", Blank Schedule Type Limits Name input -- will not be validated.\n   ** Warning ** ProcessScheduleInput: Schedule:Year=\"SCHEDULE RULESET 15\", Blank Schedule Type Limits Name input -- will not be validated.\n   ** Warning ** ProcessScheduleInput: Schedule:Year=\"SCHEDULE RULESET 150\", Blank Schedule Type Limits Name input -- will not be validated.\n   ** Warning ** ProcessScheduleInput: Schedule:Year=\"SCHEDULE RULESET 151\", Blank Schedule Type Limits Name input -- will not be validated.\n   ** Warning ** ProcessScheduleInput: Schedule:Year=\"SCHEDULE RULESET 152\", Blank Schedule Type Limits Name input -- will not be validated.\n   ** Warning ** ProcessScheduleInput: Schedule:Year=\"SCHEDULE RULESET 153\", Blank Schedule Type Limits Name input -- will not be validated.\n   ** Warning ** ProcessScheduleInput: Schedule:Year=\"SCHEDULE RULESET 154\", Blank Schedule Type Limits Name input -- will not be validated.\n   ** Warning ** ProcessScheduleInput: Schedule:Year=\"SCHEDULE RULESET 155\", Blank Schedule Type Limits Name input -- will not be validated.\n   ** Warning ** ProcessScheduleInput: Schedule:Year=\"SCHEDULE RULESET 156\", Blank Schedule Type Limits Name input -- will not be validated.\n   ** Warning ** ProcessScheduleInput: Schedule:Year=\"SCHEDULE RULESET 157\", Blank Schedule Type Limits Name input -- will not be validated.\n   ** Warning ** ProcessScheduleInput: Schedule:Year=\"SCHEDULE RULESET 158\", Blank Schedule Type Limits Name input -- will not be validated.\n   ** Warning ** ProcessScheduleInput: Schedule:Year=\"SCHEDULE RULESET 159\", Blank Schedule Type Limits Name input -- will not be validated.\n   ** Warning ** ProcessScheduleInput: Schedule:Year=\"SCHEDULE RULESET 16\", Blank Schedule Type Limits Name input -- will not be validated.\n   ** Warning ** ProcessScheduleInput: Schedule:Year=\"SCHEDULE RULESET 160\", Blank Schedule Type Limits Name input -- will not be validated.\n   ** Warning ** ProcessScheduleInput: Schedule:Year=\"SCHEDULE RULESET 161\", Blank Schedule Type Limits Name input -- will not be validated.\n   ** Warning ** ProcessScheduleInput: Schedule:Year=\"SCHEDULE RULESET 162\", Blank Schedule Type Limits Name input -- will not be validated.\n   ** Warning ** ProcessScheduleInput: Schedule:Year=\"SCHEDULE RULESET 163\", Blank Schedule Type Limits Name input -- will not be validated.\n   ** Warning ** ProcessScheduleInput: Schedule:Year=\"SCHEDULE RULESET 164\", Blank Schedule Type Limits Name input -- will not be validated.\n   ** Warning ** ProcessScheduleInput: Schedule:Year=\"SCHEDULE RULESET 165\", Blank Schedule Type Limits Name input -- will not be validated.\n   ** Warning ** ProcessScheduleInput: Schedule:Year=\"SCHEDULE RULESET 166\", Blank Schedule Type Limits Name input -- will not be validated.\n   ** Warning ** ProcessScheduleInput: Schedule:Year=\"SCHEDULE RULESET 167\", Blank Schedule Type Limits Name input -- will not be validated.\n   ** Warning ** ProcessScheduleInput: Schedule:Year=\"SCHEDULE RULESET 168\", Blank Schedule Type Limits Name input -- will not be validated.\n   ** Warning ** ProcessScheduleInput: Schedule:Year=\"SCHEDULE RULESET 169\", Blank Schedule Type Limits Name input -- will not be validated.\n   ** Warning ** ProcessScheduleInput: Schedule:Year=\"SCHEDULE RULESET 17\", Blank Schedule Type Limits Name input -- will not be validated.\n   ** Warning ** ProcessScheduleInput: Schedule:Year=\"SCHEDULE RULESET 170\", Blank Schedule Type Limits Name input -- will not be validated.\n   ** Warning ** ProcessScheduleInput: Schedule:Year=\"SCHEDULE RULESET 171\", Blank Schedule Type Limits Name input -- will not be validated.\n   ** Warning ** ProcessScheduleInput: Schedule:Year=\"SCHEDULE RULESET 172\", Blank Schedule Type Limits Name input -- will not be validated.\n   ** Warning ** ProcessScheduleInput: Schedule:Year=\"SCHEDULE RULESET 173\", Blank Schedule Type Limits Name input -- will not be validated.\n   ** Warning ** ProcessScheduleInput: Schedule:Year=\"SCHEDULE RULESET 174\", Blank Schedule Type Limits Name input -- will not be validated.\n   ** Warning ** ProcessScheduleInput: Schedule:Year=\"SCHEDULE RULESET 175\", Blank Schedule Type Limits Name input -- will not be validated.\n   ** Warning ** ProcessScheduleInput: Schedule:Year=\"SCHEDULE RULESET 176\", Blank Schedule Type Limits Name input -- will not be validated.\n   ** Warning ** ProcessScheduleInput: Schedule:Year=\"SCHEDULE RULESET 177\", Blank Schedule Type Limits Name input -- will not be validated.\n   ** Warning ** ProcessScheduleInput: Schedule:Year=\"SCHEDULE RULESET 178\", Blank Schedule Type Limits Name input -- will not be validated.\n   ** Warning ** ProcessScheduleInput: Schedule:Year=\"SCHEDULE RULESET 179\", Blank Schedule Type Limits Name input -- will not be validated.\n   ** Warning ** ProcessScheduleInput: Schedule:Year=\"SCHEDULE RULESET 18\", Blank Schedule Type Limits Name input -- will not be validated.\n   ** Warning ** ProcessScheduleInput: Schedule:Year=\"SCHEDULE RULESET 180\", Blank Schedule Type Limits Name input -- will not be validated.\n   ** Warning ** ProcessScheduleInput: Schedule:Year=\"SCHEDULE RULESET 181\", Blank Schedule Type Limits Name input -- will not be validated.\n   ** Warning ** ProcessScheduleInput: Schedule:Year=\"SCHEDULE RULESET 182\", Blank Schedule Type Limits Name input -- will not be validated.\n   ** Warning ** ProcessScheduleInput: Schedule:Year=\"SCHEDULE RULESET 183\", Blank Schedule Type Limits Name input -- will not be validated.\n   ** Warning ** ProcessScheduleInput: Schedule:Year=\"SCHEDULE RULESET 184\", Blank Schedule Type Limits Name input -- will not be validated.\n   ** Warning ** ProcessScheduleInput: Schedule:Year=\"SCHEDULE RULESET 185\", Blank Schedule Type Limits Name input -- will not be validated.\n   ** Warning ** ProcessScheduleInput: Schedule:Year=\"SCHEDULE RULESET 186\", Blank Schedule Type Limits Name input -- will not be validated.\n   ** Warning ** ProcessScheduleInput: Schedule:Year=\"SCHEDULE RULESET 187\", Blank Schedule Type Limits Name input -- will not be validated.\n   ** Warning ** ProcessScheduleInput: Schedule:Year=\"SCHEDULE RULESET 188\", Blank Schedule Type Limits Name input -- will not be validated.\n   ** Warning ** ProcessScheduleInput: Schedule:Year=\"SCHEDULE RULESET 189\", Blank Schedule Type Limits Name input -- will not be validated.\n   ** Warning ** ProcessScheduleInput: Schedule:Year=\"SCHEDULE RULESET 19\", Blank Schedule Type Limits Name input -- will not be validated.\n   ** Warning ** ProcessScheduleInput: Schedule:Year=\"SCHEDULE RULESET 190\", Blank Schedule Type Limits Name input -- will not be validated.\n   ** Warning ** ProcessScheduleInput: Schedule:Year=\"SCHEDULE RULESET 191\", Blank Schedule Type Limits Name input -- will not be validated.\n   ** Warning ** ProcessScheduleInput: Schedule:Year=\"SCHEDULE RULESET 192\", Blank Schedule Type Limits Name input -- will not be validated.\n   ** Warning ** ProcessScheduleInput: Schedule:Year=\"SCHEDULE RULESET 193\", Blank Schedule Type Limits Name input -- will not be validated.\n   ** Warning ** ProcessScheduleInput: Schedule:Year=\"SCHEDULE RULESET 194\", Blank Schedule Type Limits Name input -- will not be validated.\n   ** Warning ** ProcessScheduleInput: Schedule:Year=\"SCHEDULE RULESET 195\", Blank Schedule Type Limits Name input -- will not be validated.\n   ** Warning ** ProcessScheduleInput: Schedule:Year=\"SCHEDULE RULESET 196\", Blank Schedule Type Limits Name input -- will not be validated.\n   ** Warning ** ProcessScheduleInput: Schedule:Year=\"SCHEDULE RULESET 197\", Blank Schedule Type Limits Name input -- will not be validated.\n   ** Warning ** ProcessScheduleInput: Schedule:Year=\"SCHEDULE RULESET 198\", Blank Schedule Type Limits Name input -- will not be validated.\n   ** Warning ** ProcessScheduleInput: Schedule:Year=\"SCHEDULE RULESET 199\", Blank Schedule Type Limits Name input -- will not be validated.\n   ** Warning ** ProcessScheduleInput: Schedule:Year=\"SCHEDULE RULESET 20\", Blank Schedule Type Limits Name input -- will not be validated.\n   ** Warning ** ProcessScheduleInput: Schedule:Year=\"SCHEDULE RULESET 200\", Blank Schedule Type Limits Name input -- will not be validated.\n   ** Warning ** ProcessScheduleInput: Schedule:Year=\"SCHEDULE RULESET 201\", Blank Schedule Type Limits Name input -- will not be validated.\n   ** Warning ** ProcessScheduleInput: Schedule:Year=\"SCHEDULE RULESET 202\", Blank Schedule Type Limits Name input -- will not be validated.\n   ** Warning ** ProcessScheduleInput: Schedule:Year=\"SCHEDULE RULESET 203\", Blank Schedule Type Limits Name input -- will not be validated.\n   ** Warning ** ProcessScheduleInput: Schedule:Year=\"SCHEDULE RULESET 204\", Blank Schedule Type Limits Name input -- will not be validated.\n   ** Warning ** ProcessScheduleInput: Schedule:Year=\"SCHEDULE RULESET 205\", Blank Schedule Type Limits Name input -- will not be validated.\n   ** Warning ** ProcessScheduleInput: Schedule:Year=\"SCHEDULE RULESET 206\", Blank Schedule Type Limits Name input -- will not be validated.\n   ** Warning ** ProcessScheduleInput: Schedule:Year=\"SCHEDULE RULESET 207\", Blank Schedule Type Limits Name input -- will not be validated.\n   ** Warning ** ProcessScheduleInput: Schedule:Year=\"SCHEDULE RULESET 208\", Blank Schedule Type Limits Name input -- will not be validated.\n   ** Warning ** ProcessScheduleInput: Schedule:Year=\"SCHEDULE RULESET 209\", Blank Schedule Type Limits Name input -- will not be validated.\n   ** Warning ** ProcessScheduleInput: Schedule:Year=\"SCHEDULE RULESET 21\", Blank Schedule Type Limits Name input -- will not be validated.\n   ** Warning ** ProcessScheduleInput: Schedule:Year=\"SCHEDULE RULESET 210\", Blank Schedule Type Limits Name input -- will not be validated.\n   ** Warning ** ProcessScheduleInput: Schedule:Year=\"SCHEDULE RULESET 211\", Blank Schedule Type Limits Name input -- will not be validated.\n   ** Warning ** ProcessScheduleInput: Schedule:Year=\"SCHEDULE RULESET 212\", Blank Schedule Type Limits Name input -- will not be validated.\n   ** Warning ** ProcessScheduleInput: Schedule:Year=\"SCHEDULE RULESET 213\", Blank Schedule Type Limits Name input -- will not be validated.\n   ** Warning ** ProcessScheduleInput: Schedule:Year=\"SCHEDULE RULESET 214\", Blank Schedule Type Limits Name input -- will not be validated.\n   ** Warning ** ProcessScheduleInput: Schedule:Year=\"SCHEDULE RULESET 215\", Blank Schedule Type Limits Name input -- will not be validated.\n   ** Warning ** ProcessScheduleInput: Schedule:Year=\"SCHEDULE RULESET 216\", Blank Schedule Type Limits Name input -- will not be validated.\n   ** Warning ** ProcessScheduleInput: Schedule:Year=\"SCHEDULE RULESET 217\", Blank Schedule Type Limits Name input -- will not be validated.\n   ** Warning ** ProcessScheduleInput: Schedule:Year=\"SCHEDULE RULESET 218\", Blank Schedule Type Limits Name input -- will not be validated.\n   ** Warning ** ProcessScheduleInput: Schedule:Year=\"SCHEDULE RULESET 219\", Blank Schedule Type Limits Name input -- will not be validated.\n   ** Warning ** ProcessScheduleInput: Schedule:Year=\"SCHEDULE RULESET 22\", Blank Schedule Type Limits Name input -- will not be validated.\n   ** Warning ** ProcessScheduleInput: Schedule:Year=\"SCHEDULE RULESET 220\", Blank Schedule Type Limits Name input -- will not be validated.\n   ** Warning ** ProcessScheduleInput: Schedule:Year=\"SCHEDULE RULESET 221\", Blank Schedule Type Limits Name input -- will not be validated.\n   ** Warning ** ProcessScheduleInput: Schedule:Year=\"SCHEDULE RULESET 222\", Blank Schedule Type Limits Name input -- will not be validated.\n   ** Warning ** ProcessScheduleInput: Schedule:Year=\"SCHEDULE RULESET 223\", Blank Schedule Type Limits Name input -- will not be validated.\n   ** Warning ** ProcessScheduleInput: Schedule:Year=\"SCHEDULE RULESET 224\", Blank Schedule Type Limits Name input -- will not be validated.\n   ** Warning ** ProcessScheduleInput: Schedule:Year=\"SCHEDULE RULESET 225\", Blank Schedule Type Limits Name input -- will not be validated.\n   ** Warning ** ProcessScheduleInput: Schedule:Year=\"SCHEDULE RULESET 226\", Blank Schedule Type Limits Name input -- will not be validated.\n   ** Warning ** ProcessScheduleInput: Schedule:Year=\"SCHEDULE RULESET 227\", Blank Schedule Type Limits Name input -- will not be validated.\n   ** Warning ** ProcessScheduleInput: Schedule:Year=\"SCHEDULE RULESET 228\", Blank Schedule Type Limits Name input -- will not be validated.\n   ** Warning ** ProcessScheduleInput: Schedule:Year=\"SCHEDULE RULESET 229\", Blank Schedule Type Limits Name input -- will not be validated.\n   ** Warning ** ProcessScheduleInput: Schedule:Year=\"SCHEDULE RULESET 23\", Blank Schedule Type Limits Name input -- will not be validated.\n   ** Warning ** ProcessScheduleInput: Schedule:Year=\"SCHEDULE RULESET 230\", Blank Schedule Type Limits Name input -- will not be validated.\n   ** Warning ** ProcessScheduleInput: Schedule:Year=\"SCHEDULE RULESET 231\", Blank Schedule Type Limits Name input -- will not be validated.\n   ** Warning ** ProcessScheduleInput: Schedule:Year=\"SCHEDULE RULESET 232\", Blank Schedule Type Limits Name input -- will not be validated.\n   ** Warning ** ProcessScheduleInput: Schedule:Year=\"SCHEDULE RULESET 233\", Blank Schedule Type Limits Name input -- will not be validated.\n   ** Warning ** ProcessScheduleInput: Schedule:Year=\"SCHEDULE RULESET 234\", Blank Schedule Type Limits Name input -- will not be validated.\n   ** Warning ** ProcessScheduleInput: Schedule:Year=\"SCHEDULE RULESET 235\", Blank Schedule Type Limits Name input -- will not be validated.\n   ** Warning ** ProcessScheduleInput: Schedule:Year=\"SCHEDULE RULESET 236\", Blank Schedule Type Limits Name input -- will not be validated.\n   ** Warning ** ProcessScheduleInput: Schedule:Year=\"SCHEDULE RULESET 237\", Blank Schedule Type Limits Name input -- will not be validated.\n   ** Warning ** ProcessScheduleInput: Schedule:Year=\"SCHEDULE RULESET 238\", Blank Schedule Type Limits Name input -- will not be validated.\n   ** Warning ** ProcessScheduleInput: Schedule:Year=\"SCHEDULE RULESET 239\", Blank Schedule Type Limits Name input -- will not be validated.\n   ** Warning ** ProcessScheduleInput: Schedule:Year=\"SCHEDULE RULESET 24\", Blank Schedule Type Limits Name input -- will not be validated.\n   ** Warning ** ProcessScheduleInput: Schedule:Year=\"SCHEDULE RULESET 240\", Blank Schedule Type Limits Name input -- will not be validated.\n   ** Warning ** ProcessScheduleInput: Schedule:Year=\"SCHEDULE RULESET 241\", Blank Schedule Type Limits Name input -- will not be validated.\n   ** Warning ** ProcessScheduleInput: Schedule:Year=\"SCHEDULE RULESET 242\", Blank Schedule Type Limits Name input -- will not be validated.\n   ** Warning ** ProcessScheduleInput: Schedule:Year=\"SCHEDULE RULESET 25\", Blank Schedule Type Limits Name input -- will not be validated.\n   ** Warning ** ProcessScheduleInput: Schedule:Year=\"SCHEDULE RULESET 26\", Blank Schedule Type Limits Name input -- will not be validated.\n   ** Warning ** ProcessScheduleInput: Schedule:Year=\"SCHEDULE RULESET 27\", Blank Schedule Type Limits Name input -- will not be validated.\n   ** Warning ** ProcessScheduleInput: Schedule:Year=\"SCHEDULE RULESET 28\", Blank Schedule Type Limits Name input -- will not be validated.\n   ** Warning ** ProcessScheduleInput: Schedule:Year=\"SCHEDULE RULESET 29\", Blank Schedule Type Limits Name input -- will not be validated.\n   ** Warning ** ProcessScheduleInput: Schedule:Year=\"SCHEDULE RULESET 3\", Blank Schedule Type Limits Name input -- will not be validated.\n   ** Warning ** ProcessScheduleInput: Schedule:Year=\"SCHEDULE RULESET 30\", Blank Schedule Type Limits Name input -- will not be validated.\n   ** Warning ** ProcessScheduleInput: Schedule:Year=\"SCHEDULE RULESET 31\", Blank Schedule Type Limits Name input -- will not be validated.\n   ** Warning ** ProcessScheduleInput: Schedule:Year=\"SCHEDULE RULESET 32\", Blank Schedule Type Limits Name input -- will not be validated.\n   ** Warning ** ProcessScheduleInput: Schedule:Year=\"SCHEDULE RULESET 33\", Blank Schedule Type Limits Name input -- will not be validated.\n   ** Warning ** ProcessScheduleInput: Schedule:Year=\"SCHEDULE RULESET 34\", Blank Schedule Type Limits Name input -- will not be validated.\n   ** Warning ** ProcessScheduleInput: Schedule:Year=\"SCHEDULE RULESET 35\", Blank Schedule Type Limits Name input -- will not be validated.\n   ** Warning ** ProcessScheduleInput: Schedule:Year=\"SCHEDULE RULESET 36\", Blank Schedule Type Limits Name input -- will not be validated.\n   ** Warning ** ProcessScheduleInput: Schedule:Year=\"SCHEDULE RULESET 37\", Blank Schedule Type Limits Name input -- will not be validated.\n   ** Warning ** ProcessScheduleInput: Schedule:Year=\"SCHEDULE RULESET 38\", Blank Schedule Type Limits Name input -- will not be validated.\n   ** Warning ** ProcessScheduleInput: Schedule:Year=\"SCHEDULE RULESET 39\", Blank Schedule Type Limits Name input -- will not be validated.\n   ** Warning ** ProcessScheduleInput: Schedule:Year=\"SCHEDULE RULESET 4\", Blank Schedule Type Limits Name input -- will not be validated.\n   ** Warning ** ProcessScheduleInput: Schedule:Year=\"SCHEDULE RULESET 40\", Blank Schedule Type Limits Name input -- will not be validated.\n   ** Warning ** ProcessScheduleInput: Schedule:Year=\"SCHEDULE RULESET 41\", Blank Schedule Type Limits Name input -- will not be validated.\n   ** Warning ** ProcessScheduleInput: Schedule:Year=\"SCHEDULE RULESET 42\", Blank Schedule Type Limits Name input -- will not be validated.\n   ** Warning ** ProcessScheduleInput: Schedule:Year=\"SCHEDULE RULESET 43\", Blank Schedule Type Limits Name input -- will not be validated.\n   ** Warning ** ProcessScheduleInput: Schedule:Year=\"SCHEDULE RULESET 44\", Blank Schedule Type Limits Name input -- will not be validated.\n   ** Warning ** ProcessScheduleInput: Schedule:Year=\"SCHEDULE RULESET 45\", Blank Schedule Type Limits Name input -- will not be validated.\n   ** Warning ** ProcessScheduleInput: Schedule:Year=\"SCHEDULE RULESET 46\", Blank Schedule Type Limits Name input -- will not be validated.\n   ** Warning ** ProcessScheduleInput: Schedule:Year=\"SCHEDULE RULESET 47\", Blank Schedule Type Limits Name input -- will not be validated.\n   ** Warning ** ProcessScheduleInput: Schedule:Year=\"SCHEDULE RULESET 48\", Blank Schedule Type Limits Name input -- will not be validated.\n   ** Warning ** ProcessScheduleInput: Schedule:Year=\"SCHEDULE RULESET 49\", Blank Schedule Type Limits Name input -- will not be validated.\n   ** Warning ** ProcessScheduleInput: Schedule:Year=\"SCHEDULE RULESET 5\", Blank Schedule Type Limits Name input -- will not be validated.\n   ** Warning ** ProcessScheduleInput: Schedule:Year=\"SCHEDULE RULESET 50\", Blank Schedule Type Limits Name input -- will not be validated.\n   ** Warning ** ProcessScheduleInput: Schedule:Year=\"SCHEDULE RULESET 51\", Blank Schedule Type Limits Name input -- will not be validated.\n   ** Warning ** ProcessScheduleInput: Schedule:Year=\"SCHEDULE RULESET 52\", Blank Schedule Type Limits Name input -- will not be validated.\n   ** Warning ** ProcessScheduleInput: Schedule:Year=\"SCHEDULE RULESET 53\", Blank Schedule Type Limits Name input -- will not be validated.\n   ** Warning ** ProcessScheduleInput: Schedule:Year=\"SCHEDULE RULESET 54\", Blank Schedule Type Limits Name input -- will not be validated.\n   ** Warning ** ProcessScheduleInput: Schedule:Year=\"SCHEDULE RULESET 55\", Blank Schedule Type Limits Name input -- will not be validated.\n   ** Warning ** ProcessScheduleInput: Schedule:Year=\"SCHEDULE RULESET 56\", Blank Schedule Type Limits Name input -- will not be validated.\n   ** Warning ** ProcessScheduleInput: Schedule:Year=\"SCHEDULE RULESET 57\", Blank Schedule Type Limits Name input -- will not be validated.\n   ** Warning ** ProcessScheduleInput: Schedule:Year=\"SCHEDULE RULESET 58\", Blank Schedule Type Limits Name input -- will not be validated.\n   ** Warning ** ProcessScheduleInput: Schedule:Year=\"SCHEDULE RULESET 59\", Blank Schedule Type Limits Name input -- will not be validated.\n   ** Warning ** ProcessScheduleInput: Schedule:Year=\"SCHEDULE RULESET 6\", Blank Schedule Type Limits Name input -- will not be validated.\n   ** Warning ** ProcessScheduleInput: Schedule:Year=\"SCHEDULE RULESET 60\", Blank Schedule Type Limits Name input -- will not be validated.\n   ** Warning ** ProcessScheduleInput: Schedule:Year=\"SCHEDULE RULESET 61\", Blank Schedule Type Limits Name input -- will not be validated.\n   ** Warning ** ProcessScheduleInput: Schedule:Year=\"SCHEDULE RULESET 62\", Blank Schedule Type Limits Name input -- will not be validated.\n   ** Warning ** ProcessScheduleInput: Schedule:Year=\"SCHEDULE RULESET 63\", Blank Schedule Type Limits Name input -- will not be validated.\n   ** Warning ** ProcessScheduleInput: Schedule:Year=\"SCHEDULE RULESET 64\", Blank Schedule Type Limits Name input -- will not be validated.\n   ** Warning ** ProcessScheduleInput: Schedule:Year=\"SCHEDULE RULESET 65\", Blank Schedule Type Limits Name input -- will not be validated.\n   ** Warning ** ProcessScheduleInput: Schedule:Year=\"SCHEDULE RULESET 66\", Blank Schedule Type Limits Name input -- will not be validated.\n   ** Warning ** ProcessScheduleInput: Schedule:Year=\"SCHEDULE RULESET 67\", Blank Schedule Type Limits Name input -- will not be validated.\n   ** Warning ** ProcessScheduleInput: Schedule:Year=\"SCHEDULE RULESET 68\", Blank Schedule Type Limits Name input -- will not be validated.\n   ** Warning ** ProcessScheduleInput: Schedule:Year=\"SCHEDULE RULESET 69\", Blank Schedule Type Limits Name input -- will not be validated.\n   ** Warning ** ProcessScheduleInput: Schedule:Year=\"SCHEDULE RULESET 7\", Blank Schedule Type Limits Name input -- will not be validated.\n   ** Warning ** ProcessScheduleInput: Schedule:Year=\"SCHEDULE RULESET 70\", Blank Schedule Type Limits Name input -- will not be validated.\n   ** Warning ** ProcessScheduleInput: Schedule:Year=\"SCHEDULE RULESET 71\", Blank Schedule Type Limits Name input -- will not be validated.\n   ** Warning ** ProcessScheduleInput: Schedule:Year=\"SCHEDULE RULESET 72\", Blank Schedule Type Limits Name input -- will not be validated.\n   ** Warning ** ProcessScheduleInput: Schedule:Year=\"SCHEDULE RULESET 73\", Blank Schedule Type Limits Name input -- will not be validated.\n   ** Warning ** ProcessScheduleInput: Schedule:Year=\"SCHEDULE RULESET 74\", Blank Schedule Type Limits Name input -- will not be validated.\n   ** Warning ** ProcessScheduleInput: Schedule:Year=\"SCHEDULE RULESET 75\", Blank Schedule Type Limits Name input -- will not be validated.\n   ** Warning ** ProcessScheduleInput: Schedule:Year=\"SCHEDULE RULESET 76\", Blank Schedule Type Limits Name input -- will not be validated.\n   ** Warning ** ProcessScheduleInput: Schedule:Year=\"SCHEDULE RULESET 77\", Blank Schedule Type Limits Name input -- will not be validated.\n   ** Warning ** ProcessScheduleInput: Schedule:Year=\"SCHEDULE RULESET 78\", Blank Schedule Type Limits Name input -- will not be validated.\n   ** Warning ** ProcessScheduleInput: Schedule:Year=\"SCHEDULE RULESET 79\", Blank Schedule Type Limits Name input -- will not be validated.\n   ** Warning ** ProcessScheduleInput: Schedule:Year=\"SCHEDULE RULESET 8\", Blank Schedule Type Limits Name input -- will not be validated.\n   ** Warning ** ProcessScheduleInput: Schedule:Year=\"SCHEDULE RULESET 80\", Blank Schedule Type Limits Name input -- will not be validated.\n   ** Warning ** ProcessScheduleInput: Schedule:Year=\"SCHEDULE RULESET 81\", Blank Schedule Type Limits Name input -- will not be validated.\n   ** Warning ** ProcessScheduleInput: Schedule:Year=\"SCHEDULE RULESET 82\", Blank Schedule Type Limits Name input -- will not be validated.\n   ** Warning ** ProcessScheduleInput: Schedule:Year=\"SCHEDULE RULESET 83\", Blank Schedule Type Limits Name input -- will not be validated.\n   ** Warning ** ProcessScheduleInput: Schedule:Year=\"SCHEDULE RULESET 84\", Blank Schedule Type Limits Name input -- will not be validated.\n   ** Warning ** ProcessScheduleInput: Schedule:Year=\"SCHEDULE RULESET 85\", Blank Schedule Type Limits Name input -- will not be validated.\n   ** Warning ** ProcessScheduleInput: Schedule:Year=\"SCHEDULE RULESET 86\", Blank Schedule Type Limits Name input -- will not be validated.\n   ** Warning ** ProcessScheduleInput: Schedule:Year=\"SCHEDULE RULESET 87\", Blank Schedule Type Limits Name input -- will not be validated.\n   ** Warning ** ProcessScheduleInput: Schedule:Year=\"SCHEDULE RULESET 88\", Blank Schedule Type Limits Name input -- will not be validated.\n   ** Warning ** ProcessScheduleInput: Schedule:Year=\"SCHEDULE RULESET 89\", Blank Schedule Type Limits Name input -- will not be validated.\n   ** Warning ** ProcessScheduleInput: Schedule:Year=\"SCHEDULE RULESET 9\", Blank Schedule Type Limits Name input -- will not be validated.\n   ** Warning ** ProcessScheduleInput: Schedule:Year=\"SCHEDULE RULESET 90\", Blank Schedule Type Limits Name input -- will not be validated.\n   ** Warning ** ProcessScheduleInput: Schedule:Year=\"SCHEDULE RULESET 91\", Blank Schedule Type Limits Name input -- will not be validated.\n   ** Warning ** ProcessScheduleInput: Schedule:Year=\"SCHEDULE RULESET 92\", Blank Schedule Type Limits Name input -- will not be validated.\n   ** Warning ** ProcessScheduleInput: Schedule:Year=\"SCHEDULE RULESET 93\", Blank Schedule Type Limits Name input -- will not be validated.\n   ** Warning ** ProcessScheduleInput: Schedule:Year=\"SCHEDULE RULESET 94\", Blank Schedule Type Limits Name input -- will not be validated.\n   ** Warning ** ProcessScheduleInput: Schedule:Year=\"SCHEDULE RULESET 95\", Blank Schedule Type Limits Name input -- will not be validated.\n   ** Warning ** ProcessScheduleInput: Schedule:Year=\"SCHEDULE RULESET 96\", Blank Schedule Type Limits Name input -- will not be validated.\n   ** Warning ** ProcessScheduleInput: Schedule:Year=\"SCHEDULE RULESET 97\", Blank Schedule Type Limits Name input -- will not be validated.\n   ** Warning ** ProcessScheduleInput: Schedule:Year=\"SCHEDULE RULESET 98\", Blank Schedule Type Limits Name input -- will not be validated.\n   ** Warning ** ProcessScheduleInput: Schedule:Year=\"SCHEDULE RULESET 99\", Blank Schedule Type Limits Name input -- will not be validated.\n   ** Warning ** ProcessScheduleInput: Schedule:Constant=\"ALWAYS OFF DISCRETE\", Blank Schedule Type Limits Name input -- will not be validated.\n   ** Warning ** ProcessScheduleInput: Schedule:Constant=\"ALWAYS ON CONTINUOUS\", Blank Schedule Type Limits Name input -- will not be validated.\n   ** Warning ** CheckUsedConstructions: There are 24 nominally unused constructions in input.\n   **   ~~~   ** For explicit details on each unused construction, use Output:Diagnostics,DisplayExtraWarnings;\n   ************* Beginning System Sizing Calculations\n   ** Warning ** GetDXCoils: Coil:Cooling:DX:SingleSpeed=\"COIL COOLING DX SINGLE SPEED 59 7KBTU/HR 11.0EER\", invalid\n   **   ~~~   ** ...Part Load Fraction Correlation Curve Name = DXCOOL-NECB2011-REF-COOLPLFFPLR 54 has out of range value.\n   **   ~~~   ** ...Curve maximum must be <= 1.0, curve max at PLR = 0.99 is 1.015\n   **   ~~~   ** ...Setting curve maximum to 1.0 and simulation continues.\n   ** Warning ** GetDXCoils: Coil:Cooling:DX:SingleSpeed=\"COIL COOLING DX SINGLE SPEED 56 6KBTU/HR 11.0EER\", invalid\n   **   ~~~   ** ...Part Load Fraction Correlation Curve Name = DXCOOL-NECB2011-REF-COOLPLFFPLR 51 has out of range value.\n   **   ~~~   ** ...Curve maximum must be <= 1.0, curve max at PLR = 0.99 is 1.015\n   **   ~~~   ** ...Setting curve maximum to 1.0 and simulation continues.\n   ** Warning ** GetDXCoils: Coil:Cooling:DX:SingleSpeed=\"COIL COOLING DX SINGLE SPEED 57 5KBTU/HR 11.0EER\", invalid\n   **   ~~~   ** ...Part Load Fraction Correlation Curve Name = DXCOOL-NECB2011-REF-COOLPLFFPLR 52 has out of range value.\n   **   ~~~   ** ...Curve maximum must be <= 1.0, curve max at PLR = 0.99 is 1.015\n   **   ~~~   ** ...Setting curve maximum to 1.0 and simulation continues.\n   ** Warning ** GetDXCoils: Coil:Cooling:DX:SingleSpeed=\"COIL COOLING DX SINGLE SPEED 58 10KBTU/HR 10.5EER\", invalid\n   **   ~~~   ** ...Part Load Fraction Correlation Curve Name = DXCOOL-NECB2011-REF-COOLPLFFPLR 53 has out of range value.\n   **   ~~~   ** ...Curve maximum must be <= 1.0, curve max at PLR = 0.99 is 1.015\n   **   ~~~   ** ...Setting curve maximum to 1.0 and simulation continues.\n   ** Warning ** GetDXCoils: Coil:Cooling:DX:SingleSpeed=\"COIL COOLING DX SINGLE SPEED 55 11KBTU/HR 10.2EER\", invalid\n   **   ~~~   ** ...Part Load Fraction Correlation Curve Name = DXCOOL-NECB2011-REF-COOLPLFFPLR 50 has out of range value.\n   **   ~~~   ** ...Curve maximum must be <= 1.0, curve max at PLR = 0.99 is 1.015\n   **   ~~~   ** ...Setting curve maximum to 1.0 and simulation continues.\n   ** Warning ** GetDXCoils: Coil:Cooling:DX:SingleSpeed=\"COIL COOLING DX SINGLE SPEED 63 9KBTU/HR 10.6EER\", invalid\n   **   ~~~   ** ...Part Load Fraction Correlation Curve Name = DXCOOL-NECB2011-REF-COOLPLFFPLR 59 has out of range value.\n   **   ~~~   ** ...Curve maximum must be <= 1.0, curve max at PLR = 0.99 is 1.015\n   **   ~~~   ** ...Setting curve maximum to 1.0 and simulation continues.\n   ** Warning ** GetDXCoils: Coil:Cooling:DX:SingleSpeed=\"COIL COOLING DX SINGLE SPEED 62 9KBTU/HR 10.6EER\", invalid\n   **   ~~~   ** ...Part Load Fraction Correlation Curve Name = DXCOOL-NECB2011-REF-COOLPLFFPLR 58 has out of range value.\n   **   ~~~   ** ...Curve maximum must be <= 1.0, curve max at PLR = 0.99 is 1.015\n   **   ~~~   ** ...Setting curve maximum to 1.0 and simulation continues.\n   ** Warning ** GetDXCoils: Coil:Cooling:DX:SingleSpeed=\"COIL COOLING DX SINGLE SPEED 60 13KBTU/HR 9.8EER\", invalid\n   **   ~~~   ** ...Part Load Fraction Correlation Curve Name = DXCOOL-NECB2011-REF-COOLPLFFPLR 56 has out of range value.\n   **   ~~~   ** ...Curve maximum must be <= 1.0, curve max at PLR = 0.99 is 1.015\n   **   ~~~   ** ...Setting curve maximum to 1.0 and simulation continues.\n   ** Warning ** GetDXCoils: Coil:Cooling:DX:SingleSpeed=\"COIL COOLING DX SINGLE SPEED 61 13KBTU/HR 9.7EER\", invalid\n   **   ~~~   ** ...Part Load Fraction Correlation Curve Name = DXCOOL-NECB2011-REF-COOLPLFFPLR 57 has out of range value.\n   **   ~~~   ** ...Curve maximum must be <= 1.0, curve max at PLR = 0.99 is 1.015\n   **   ~~~   ** ...Setting curve maximum to 1.0 and simulation continues.\n   ** Warning ** GetDXCoils: Coil:Cooling:DX:SingleSpeed=\"COIL COOLING DX SINGLE SPEED 77 7KBTU/HR 11.0EER\", invalid\n   **   ~~~   ** ...Part Load Fraction Correlation Curve Name = DXCOOL-NECB2011-REF-COOLPLFFPLR 74 has out of range value.\n   **   ~~~   ** ...Curve maximum must be <= 1.0, curve max at PLR = 0.99 is 1.015\n   **   ~~~   ** ...Setting curve maximum to 1.0 and simulation continues.\n   ** Warning ** GetDXCoils: Coil:Cooling:DX:SingleSpeed=\"COIL COOLING DX SINGLE SPEED 73 6KBTU/HR 11.0EER\", invalid\n   **   ~~~   ** ...Part Load Fraction Correlation Curve Name = DXCOOL-NECB2011-REF-COOLPLFFPLR 70 has out of range value.\n   **   ~~~   ** ...Curve maximum must be <= 1.0, curve max at PLR = 0.99 is 1.015\n   **   ~~~   ** ...Setting curve maximum to 1.0 and simulation continues.\n   ** Warning ** GetDXCoils: Coil:Cooling:DX:SingleSpeed=\"COIL COOLING DX SINGLE SPEED 75 6KBTU/HR 11.0EER\", invalid\n   **   ~~~   ** ...Part Load Fraction Correlation Curve Name = DXCOOL-NECB2011-REF-COOLPLFFPLR 72 has out of range value.\n   **   ~~~   ** ...Curve maximum must be <= 1.0, curve max at PLR = 0.99 is 1.015\n   **   ~~~   ** ...Setting curve maximum to 1.0 and simulation continues.\n   ** Warning ** GetDXCoils: Coil:Cooling:DX:SingleSpeed=\"COIL COOLING DX SINGLE SPEED 76 10KBTU/HR 10.4EER\", invalid\n   **   ~~~   ** ...Part Load Fraction Correlation Curve Name = DXCOOL-NECB2011-REF-COOLPLFFPLR 73 has out of range value.\n   **   ~~~   ** ...Curve maximum must be <= 1.0, curve max at PLR = 0.99 is 1.015\n   **   ~~~   ** ...Setting curve maximum to 1.0 and simulation continues.\n   ** Warning ** GetDXCoils: Coil:Cooling:DX:SingleSpeed=\"COIL COOLING DX SINGLE SPEED 74 11KBTU/HR 10.2EER\", invalid\n   **   ~~~   ** ...Part Load Fraction Correlation Curve Name = DXCOOL-NECB2011-REF-COOLPLFFPLR 71 has out of range value.\n   **   ~~~   ** ...Curve maximum must be <= 1.0, curve max at PLR = 0.99 is 1.015\n   **   ~~~   ** ...Setting curve maximum to 1.0 and simulation continues.\n   ** Warning ** GetDXCoils: Coil:Cooling:DX:SingleSpeed=\"COIL COOLING DX SINGLE SPEED 81 9KBTU/HR 10.6EER\", invalid\n   **   ~~~   ** ...Part Load Fraction Correlation Curve Name = DXCOOL-NECB2011-REF-COOLPLFFPLR 79 has out of range value.\n   **   ~~~   ** ...Curve maximum must be <= 1.0, curve max at PLR = 0.99 is 1.015\n   **   ~~~   ** ...Setting curve maximum to 1.0 and simulation continues.\n   ** Warning ** GetDXCoils: Coil:Cooling:DX:SingleSpeed=\"COIL COOLING DX SINGLE SPEED 80 9KBTU/HR 10.5EER\", invalid\n   **   ~~~   ** ...Part Load Fraction Correlation Curve Name = DXCOOL-NECB2011-REF-COOLPLFFPLR 78 has out of range value.\n   **   ~~~   ** ...Curve maximum must be <= 1.0, curve max at PLR = 0.99 is 1.015\n   **   ~~~   ** ...Setting curve maximum to 1.0 and simulation continues.\n   ** Warning ** GetDXCoils: Coil:Cooling:DX:SingleSpeed=\"COIL COOLING DX SINGLE SPEED 78 12KBTU/HR 9.9EER\", invalid\n   **   ~~~   ** ...Part Load Fraction Correlation Curve Name = DXCOOL-NECB2011-REF-COOLPLFFPLR 75 has out of range value.\n   **   ~~~   ** ...Curve maximum must be <= 1.0, curve max at PLR = 0.99 is 1.015\n   **   ~~~   ** ...Setting curve maximum to 1.0 and simulation continues.\n   ** Warning ** GetDXCoils: Coil:Cooling:DX:SingleSpeed=\"COIL COOLING DX SINGLE SPEED 79 13KBTU/HR 9.7EER\", invalid\n   **   ~~~   ** ...Part Load Fraction Correlation Curve Name = DXCOOL-NECB2011-REF-COOLPLFFPLR 76 has out of range valu
[...]
zKiCUGuRhfGmyRFE4JcpS7MNsmLJgS5el0YbJIaTbgZXc0uTDXJjiYEuZpdGGmKIO0wRzKkCUHxWyQ50oSg+PBLljQhKD78kidNCIoPv2ZKU5Js3S5MNk2WpiTZ6l0YbpovTUmyNbww3zRlmnJX2jpeGHGaNU1JsnW8MOUQpyFOQ5z2gBBxWrMQpyFOQ5xWWIjTEKf1elWI01r793g+4rTDhThtvwb4ntaJ+QXAAQcccMABBxxwwAEHHHBGj3Ni2gFooIEGGmiggQYaaKCBBprx0DwZ3QE44IADDjjggAMOOOCAA079fojTdgtx2l6cthyJOG0zBnHa5mjitOXdz0JrJTeuoJkraO4KWriClq6glSto7QrauIJav7/XkmzdTrZyJ1u7k63eydbvZCt4sjU82SqebB3Pto5n3/1t63i2dTz363h3cVo7q16cpuTE71K9OE3JiW+BenGakhPfAPXiNCUnPv2COE0KcjW6MN4EcZoU5Cp1YbYJ4jQpyNXrwmATxGnSzehqdmGqCeI0KcjV7MJIqxentXMEcZoUFL9FgjhNCooPvyBOk4Liwy+I06Sg+PAr4jQtydbtwmRTxGlakq3eheGmiNO0JFvDC/NNEadpd6Wt44URp4jTtCRbxwtTDnEa4jTEaQ8IEac1C3Ea4jTEaYWFOA1xWq9XhTittX+P5yNOO1yI0/ZrgO9pnZhfABxwwAEHHHDAAQcccMABZ/Q4J6YdgAYaaKCBBhpooIEGGmigGQ/Nk9EdgAMOOOCAAw444IADDjjg1O+HOG23EKftxWmrcYjTFtMRiNNuIY8lTpueZYs3TcmZmXLmppyFKWdpylmZctamnI0pp/WzeynI1ejkqnRydTq5Sp1crU6uWidXr5Or2MnV7Oxqdrbd1a5mZ1ezc69mdxektaLq/WhCTPgO1dvRhJjw3Ne70YSY8MzXm9GEmPC8C140JcfU43iMCVI0JcdU5XiGCUY0JcfU5niACTo05R409TmeXoILTckx9TkeXfUitFaM4EFTcsK3R7CgKTnhcRccaEpOeNwFA5qSEx53xX8mBbkaHU8wRX4mBblKHQ8xxXwmBbl6Hc8xRXsm3YyuZsejTHGeSUGuZsfTDOEZwjOEZw8IEZ41C+EZwjOEZ4WF8AzhWa9XhfCstX+P5yM8O1wIz/ZrgO9XnZgXABxwwAEHHHDAAQcccMABZ/Q4J6YLgAYaaKCBBhpooIEGGmigGQ/Nk9EUgAMOOOCAAw444IADDjjg1O+H8Gy3EJ7thWfrkQjP0hiEZ+mIwrPpwmQ8E4JmrqC5K2jhClq6glauoLUraOMK+ugH90qSrdvJVu5ka3ey1TvZ+p1sBU+2hidbxZOt49nW8ey7v20dz7aO534d7yNCO8xSTGj1OfG7pLjQ6nPiW0CxodXnxDeA4kOrz4lPv2REE4JcjS6MN0mKJgS5Sl2YbZIXTQhy9bow2CQ1mnAzuppdmGqSHU0IcjW7MNIUQdphjmRIE4Lit0hypAlB8eGXLGlCUHz4JU+aEBQffs2UpiTZul2YbJosTUmy1bsw3DRfmpJka3hhvmnKNOWutHW8MOI0a5qSZOt4YcohTkOchjjtASHitGYhTkOchjitsBCnIU7r9aoQp7X27/F8xGmHC3Hafg3wPa0T8wuAAw444IADDjjggAMOOOCMHufEtAPQQAMNNNBAAw000EADDTTjoXkyugNwwAEHHHDAAQcccMABB5z6/RCn7RbitL04bTMScVoegzgtH02ctrz7WWit5MYVNHMFzV1BC1fQ0hW0cgWtXUEbV1Dr9/dakq3byVbuZGt3stU72fqdbAVPtoYnW8WTrePZ1vHsu79tHc+2jud+He8uTmtn1YvTlJz4XaoXpyk58S1QL05TcuIboF6cpuTEp18Qp0lBrkYXxpsgTpOCXKUuzDZBnCYFuXpdGGyCOE26GV3NLkw1QZwmBbmaXRhp9eK0do4gTpOC4rdIEKdJQfHhF8RpUlB8+AVxmhQUH35FnKYl2bpdmGyKOE1LstW7MNwUcZqWZGt4Yb4p4jTtrrR1vDDiFHGalmTreGHKIU5DnIY47QEh4rRmIU5DnIY4rbAQpyFO6/WqEKe19u/xfMRphwtx2n4N8D2tE/MLgAMOOOCAAw444IADDjjgjB7nxLQD0EADDTTQQAMNNNBAAw0046F5MroDcMABBxxwwAEHHHDAAQec+v0Qp+0W4rR7cdp6JN602Ri8aTO8aXVBeNMeD8Kb1ikJbxreNLxpeNPwpuFNw5uGNw1v2s/ejHjTHg/Cm/ZoEN40vGl40/Cm2ZLwpnVLwpsWw+BNw5v28cKbdo+PN+3jhTety8Kb1u/5eNPwpvV6VXjTWvv3eD7etMOFN22/Bvia1onpBcABBxxwwAEHHHDAAQcccEaPc2LWAWiggQYaaKCBBhpooIEGmvHQPBnbATjggAMOOOCAAw444IADTv1+eNN2C2/a3ps2HYk4bT4Gcdr8aOK06Vm2eNOUnJkpZ27KWZhylqaclSlnbcrZmHJaP7uXglyNTq5KJ1enk6vUydXq5Kp1cvU6uYqdXM3OrmZn213tanZ2NTv3anZ3QVorqt6PJsSE71C9HU2ICc99vRtNiAnPfL0ZTYgJz7vgRVNyTD2Ox5ggRVNyTFWOZ5hgRFNyTG2OB5igQ1PuQVOf4+kluNCUHFOf49FVL0JrxQgeNCUnfHsEC5qSEx53wYGm5ITHXTCgKTnhcVf8Z1KQq9HxBFPkZ1KQq9TxEFPMZ1KQq9fxHFO0Z9LN6Gp2PMoU55kU5Gp2PM0QniE8Q3j2gBDhWbMQniE8Q3hWWAjPEJ71elUIz1r793g+wrPDhfBsvwb4ftWJeQHAAQcccMABBxxwwAEHHHBGj3NiugBooIEGGmiggQYaaKCBBprx0DwZTQE44IADDjjggAMOOOCAA079fgjPdgvh2V54lkYiPFuMQXi2OKLwbLowGc+EoJkraO4KWriClq6glSto7QrauII++sG9kmTrdrKVO9nanWz1TrZ+J1vBk63hyVbxZOt4tnU8++5vW8ezreO5X8f7iNAOsxQTWn1O/C4pLrT6nPgWUGxo9TnxDaD40Opz4tMvGdGEIFejC+NNkqIJQa5SF2ab5EUTgly9Lgw2SY0m3IyuZhemmmRHE4JczS6MNEWQdpgjGdKEoPgtkhxpQlB8+CVLmhAUH37JkyYExYdfM6UpSbZuFyabJktTkmz1Lgw3zZemJNkaXphvmjJNuSttHS+MOM2apiTZOl6YcojTEKchTntAiDitWYjTEKchTissxGmI03q9KsRprf17PB9x2uFCnLZfA3xP68T8AuCAAw444IADDjjggAMOOKPHOTHtADTQQAMNNNBAAw000EADzXhonozuABxwwAEHHHDAAQcccMABp34/xGm7hThtL07LIxGnLccgTlseTZy2vPtZaK3kxhU0cwXNXUELV9DSFbRyBa1dQRtXUOv391qSrdvJVu5ka3ey1TvZ+p1sBU+2hidbxZOt49nW8ey7v20dz7aO534d7y5Oa2fVi9OUnPhdqhenKTnxLVAvTlNy4hugXpym5MSnXxCnSUGuRhfGmyBOk4JcpS7MNkGcJgW5el0YbII4TboZXc0uTDVBnCYFuZpdGGn14rR2jiBOk4Lit0gQp0lB8eEXxGlSUHz4BXGaFBQffkWcpiXZul2YbIo4TUuy1bsw3BRxmpZka3hhviniNO2utHW8MOIUcZqWZOt4YcohTkOchjjtASHitGYhTkOchjitsBCnIU7r9aoQp7X27/F8xGmHC3Hafg3wPa0T8wuAAw444IADDjjggAMOOOCMHufEtAPQQAMNNNBAAw000EADDTTjoXkyugNwwAEHHHDAAQcccMABB5z6/RCn7RbitL04bTYScdpqDOK01dHEadOzbPGmKTkzU87clLMw5SxNOStTztqUszHltH52LwW5Gp1clU6uTidXqZOr1clV6+TqdXIVO7manV3Nzra72tXs7Gp27tXs7oK0VlS9H02ICd+hejuaEBOe+3o3mhATnvl6M5oQE553wYum5Jh6HI8xQYqm5JiqHM8wwYim5JjaHA8wQYem3IOmPsfTS3ChKTmmPsejq16E1ooRPGhKTvj2CBY0JSc87oIDTckJj7tgQFNywuOu+M+kIFej4wmmyM+kIFep4yGmmM+kIFev4zmmaM+km9HV7HiUKc4zKcjV7HiaITxDeIbw7AEhwrNmITxDeIbwrLAQniE86/WqEJ619u/xfIRnhwvh2X4N8P2qE/MCgAMOOOCAAw444IADDjjgjB7nxHQB0EADDTTQQAMNNNBAAw0046F5MpoCcMABBxxwwAEHHHDAAQec+v0Qnu0WwrO98Gw+EuHZegzCs/URhWfThcl4JgTNXEFzV9DCFbR0Ba1cQWtX0MYV9NEP7pUkW7eTrdzJ1u5kq3ey9TvZCp5sDU+2iidbx7Ot49l3f9s6nm0dz/063keEdpilmNDqc+J3SXGh1efEt4BiQ6vPiW8AxYdWnxOffsmIJgS5Gl0Yb5IUTQhylbow2yQvmhDk6nVhsElqNOFmdDW7MNUkO5oQ5Gp2YaQpgrTDHMmQJgTFb5HkSBOC4sMvWdKEoPjwS540ISg+/JopTUmydbsw2TRZmpJkq3dhuGm+NCXJ1vDCfNOUacpdaet4YcRp1jQlydbxwpRDnIY4DXHaA0LEac1CnIY4DXFaYSFOQ5zW61UhTmvt3+P5iNMOF+K0/Rrge1on5hcABxxwwAEHHHDAAQcccMAZPc6JaQeggQYaaKCBBhpooIEGGmjGQ/NkdAfggAMOOOCAAw444IADDjj1+yFO2y3EaXtx2mIk4rTNGMRpm6OJ05Z3Pwutldy4gmauoLkraOEKWrqCVq6gtSto4wpq/f5eS7J1O9nKnWztTrZ6J1u/k63gydbwZKt4snU82zqeffe3rePZ1vHcr+PdxWntrHpxmpITv0v14jQlJ74F6sVpSk58A9SL05Sc+PQL4jQpyNXowngTxGlSkKvUhdkmiNOkIFevC4NNEKdJN6Or2YWpJojTpCBXswsjrV6c1s4RxGlSUPwWCeI0KSg+/II4TQqKD78gTpOC4sOviNO0JFu3C5NNEadpSbZ6F4abIk7TkmwNL8w3RZym3ZW2jhdGnCJO05JsHS9MOcRpiNMQpz0gRJzWLMRpiNMQpxUW4jTEab1eFeK01v49no847XAhTtuvAb6ndWJ+AXDAAQcccMABBxxwwAEHnNHjnJh2ABpooIEGGmiggQYaaKCBZjw0T0Z3AA444IADDjjggAMOOOCAU78f4rTdQpy2F6ctxyFOW05HIE67hTyWOG16li3eNCVnZsqZm3IWppylKWdlylmbcjamnNbP7qUgV6OTq9LJ1enkKnVytTq5ap1cvU6uYidXs7Or2dl2V7uanV3Nzr2a3V2Q1oqq96MJMeE7VG9HE2LCc1/vRhNiwjNfb0YTYsLzLnjRlBxTj+MxJkjRlBxTleMZJhjRlBxTm+MBJujQlHvQ1Od4egkuNCXH1Od4dNWL0FoxggdNyQnfHsGCpuSEx11woCk54XEXDGhKTnjcFf+ZFORqdDzBFPmZFOQqdTzEFPOZFOTqdTzHFO2ZdDO6mh2PMsV5JgW5mh1PM4RnCM8Qnj0gRHjWLIRnCM8QnhUWwjOEZ71eFcKz1v49no/w7HAhPNuvAb5fdWJeAHDAAQcccMABBxxwwAEHnNHjnJguABpooIEGGmiggQYaaKCBZjw0T0ZTAA444IADDjjggAMOOOCAU78fwrPdQni2F56tRiI8S2MQnqUjCs+mC5PxTAiauYLmrqCFK2jpClq5gtauoI0r6KMf3CtJtm4nW7mTrd3JVu9k63eyFTzZGp5sFU+2jmdbx7Pv/rZ1PNs6nvt1vI8I7TBLMaHV58TvkuJCq8+JbwHFhlafE98Aig+tPic+/ZIRTQhyNbow3iQpmhDkKnVhtkleNCHI1evCYJPUaMLN6Gp2YapJdjQhyNXswkhTBGmHOZIhTQiK3yLJkSYExYdfsqQJQfHhlzxpQlB8+DVTmpJk63ZhsmmyNCXJVu/CcNN8aUqSreGF+aYp05S70tbxwojTrGlKkq3jhSmHOA1xGuK0B4SI05qFOA1xGuK0wkKchjit16tCnNbav8fzEacdLsRp+zXA97ROzC8ADjjggAMOOOCAAw444IAzepwT0w5AAw000EADDTTQQAMNNNCMh+bJ6A7AAQcccMABBxxwwAEHHHDq90OctluI0/bitPVIxGl5DOK0fDRx2vLuZ6G1khtX0MwVNHcFLVxBS1fQyhW0dgVtXEGt399rSbZuJ1u5k63dyVbvZOt3shU82RqebBVPto5nW8ez7/62dTzbOp77dby7OK2dVS9OU3Lid6lenKbkxLdAvThNyYlvgHpxmpITn35BnCYFuRpdGG+COE0KcpW6MNsEcZoU5Op1YbAJ4jTpZnQ1uzDVBHGaFORqdmGk1YvT2jmCOE0Kit8iQZwmBcWHXxCnSUHx4RfEaVJQfPgVcZqWZOt2YbIp4jQtyVbvwnBTxGlakq3hhfmmiNO0u9LW8cKIU8RpWpKt44UphzgNcRritAeEiNOahTgNcRritMJCnIY4rderQpzW2r/H8xGnHS7Eafs1wPe0TswvAA444IADDjjggAMOOOCAM3qcE9MOQAMNNNBAAw000EADDTTQjIfmyegOwAEHHHDAAQcccMABBxxw6vdDnLZbiNP24rTNSMRpszGI02ZHE6dNz7LFm6bkzEw5c1POwpSzNOWsTDlrU87GlNP62b0U5Gp0clU6uTqdXKVOrlYnV62Tq9fJVezkanZ2NTvb7mpXs7Or2blXs7sL0lpR9X40ISZ8h+rtaEJMeO7r3WhCTHjm681oQkx43gUvmpJj6nE8xgQpmpJjqnI8wwQjmpJjanM8wAQdmnIPmvocTy/BhabkmPocj656EVorRvCgKTnh2yNY0JSc8LgLDjQlJzzuggFNyQmPu+I/k4JcjY4nmCI/k4JcpY6HmGI+k4JcvY7nmKI9k25GV7PjUaY4z6QgV7PjaYbwDOEZwrMHhAjPmoXwDOEZwrPCQniG8KzXq0J41tq/x/MRnh0uhGf7NcD3q07MCwAOOOCAAw444IADDjjggDN6nBPTBUADDTTQQAMNNNBAAw000IyH5sloCsABBxxwwAEHHHDAAQcccOr3Q3i2WwjP7oVnY/GdzcfgO5vjO8N39vjP7PGd4TvDd4bvrEsQvjN8Z/jO8J3hO8N3hu8M31mvwYXvDN9ZpyB8Z48H4Tt7PAjf2eNB+M4iGHxn+M4+XvjO7vHxnX288J11WfjO+j0f3xm+s16vCt9Za/8ez8d3drjwne3XAF+vOjEtADjggAMOOOCAAw444IADzuhxTswWAA000EADDTTQQAMNNNBAMx6aJ2MpAAcccMABBxxwwAEHHHDAqd8P39lu4Tvb+86mIxGeLcYgPFscUXg2XZiMZ0LQzBU0dwUtXEFLV9DKFbR2BW1cQR/94F5JsnU72cqdbO1OtnonW7+TreDJ1vBkq3iydTzbOp5997et49nW8dyv431EaIdZigmtPid+lxQXWn1OfAsoNrT6nPgGUHxo9Tnx6ZeMaEKQq9GF8SZJ0YQgV6kLs03yoglBrl4XBpukRhNuRlezC1NNsqMJQa5mF0aaIkg7zJEMaUJQ/BZJjjQhKD78kiVNCIoPv+RJE4Liw6+Z0pQkW7cLk02TpSlJtnoXhpvmS1OSbA0vzDdNmabclbaOF0acZk1TkmwdL0w5xGmI0xCnPSBEnNYsxGmI0xCnFRbiNMRpvV4V4rTW/j2ejzjtcCFO268Bvqd1Yn4BcMABBxxwwAEHHHDAAQec0eOcmHYAGmiggQYaaKCBBhpooIFmPDRPRncADjjggAMOOOCAAw444IBTvx/itN1CnLYXp6WRiNOWYxCnLY8mTlve/Sy0VnLjCpq5guauoIUraOkKWrmC1q6gjSuo9ft7LcnW7WQrd7K1O9nqnWz9TraCJ1vDk63iydbxbOt49t3fto5nW8dzv453F6e1s+rFaUpO/C7Vi9OUnPgWqBenKTnxDVAvTlNy4tMviNOkIFejC+NNEKdJQa5SF2abIE6Tgly9Lgw2QZwm3YyuZhemmiBOk4JczS6MtHpxWjtHEKdJQfFbJIjTpKD48AviNCkoPvyCOE0Kig+/Ik7TkmzdLkw2RZymJdnqXRhuijhNS7I1vDDfFHGadlfaOl4YcYo4TUuydbww5RCnIU5DnPaAEHFasxCnIU5DnFZYiNMQp/V6VYjTWvv3eD7itMOFOG2/Bvie1on5BcABBxxwwAEHHHDAAQcccEaPc2LaAWiggQYaaKCBBhpooIEGmvHQPBndATjggAMOOOCAAw444IADTv1+iNN2C3HaXpyWRyJOW41BnLY6mjhtepYt3jQlZ2bKmZtyFqacpSlnZcpZm3I2ppzWz+6lIFejk6vSydXp5Cp1crU6uWqdXL1OrmInV7Ozq9nZdle7mp1dzc69mt1dkNaKqvejCTHhO1RvRxNiwnNf70YTYsIzX29GE2LC8y540ZQcU4/jMSZI0ZQcU5XjGSYY0ZQcU5vjASbo0JR70NTneHoJLjQlx9TneHTVi9BaMYIHTckJ3x7BgqbkhMddcKApOeFxFwxoSk543BX/mRTkanQ8wRT5mRTkKnU8xBTzmRTk6nU8xxTtmXQzupodjzLFeSYFuZodTzOEZwjPEJ49IER41iyEZwjPEJ4VFsIzhGe9XhXCs9b+PZ6P8OxwITzbrwG+X3ViXgBwwAEHHHDAAQcccMABB5zR45yYLgAaaKCBBhpooIEGGmiggWY8NE9GUwAOOOCAAw444IADDjjggFO/H8Kz3UJ4theezUYiPFuPQXi2PqLwbLowGc+EoJkraO4KWriClq6glSto7QrauII++sG9kmTrdrKVO9nanWz1TrZ+J1vBk63hyVbxZOt4tnU8++5vW8ezreO5X8f7iNAOsxQTWn1O/C4pLrT6nPgWUGxo9TnxDaD40Opz4tMvGdGEIFejC+NNkqIJQa5SF2ab5EUTgly9Lgw2SY0m3IyuZhemmmRHE4JczS6MNEWQdpgjGdKEoPgtkhxpQlB8+CVLmhAUH37JkyYExYdfM6UpSbZuFyabJktTkmz1Lgw3zZemJNkaXphvmjJNuSttHS+MOM2apiTZOl6YcojTEKchTntAiDitWYjTEKchTissxGmI03q9KsRprf17PB9x2uFCnLZfA3xP68T8AuCAAw444IADDjjggAMOOKPHOTHtADTQQAMNNNBAAw000EADzXhonozuABxwwAEHHHDAAQcccMABp34/xGm7hThtL06bj0ScthmDOG1zNHHa8u5nobWSG1fQzBU0dwUtXEFLV9DKFbR2BW1cQa3f32tJtm4nW7mTrd3JVu9k63eyFTzZGp5sFU+2jmdbx7Pv/rZ1PNs6nvt1vLs4rZ1VL05TcuJ3qV6cpuTEt0C9OE3JiW+AenGakhOffkGcJgW5Gl0Yb4I4TQpylbow2wRxmhTk6nVhsAniNOlmdDW7MNUEcZoU5Gp2YaTVi9PaOYI4TQqK3yJBnCYFxYdfEKdJQfHhF8RpUlB8+BVxmpZk63ZhsiniNC3JVu/CcFPEaVqSreGF+aaI07S70tbxwohTxGlakq3jhSmHOA1xGuK0B4SI05qFOA1xGuK0wkKchjit16tCnNbav8fzEacdLsRp+zXA97ROzC8ADjjggAMOOOCAAw444IAzepwT0w5AAw000EADDTTQQAMNNNCMh+bJ6A7AAQcccMABBxxwwAEHHHDq90OctluI0/bitMU4xGmr6QjEabeQxxKnTc+yxZum5MxMOXNTzsKUszTlrEw5a1POxpTT+tm9FORqdHJVOrk6nVylTq5WJ1etk6vXyVXs5Gp2djU72+5qV7Ozq9m5V7O7C9JaUfV+NCEmfIfq7WhCTHju691oQkx45uvNaEJMeN4FL5qSY+pxPMYEKZqSY6pyPMMEI5qSY2pzPMAEHZpyD5r6HE8vwYWm5Jj6HI+uehFaK0bwoCk54dsjWNCUnPC4Cw40JSc87oIBTckJj7viP5OCXI2OJ5giP5OCXKWOh5hiPpOCXL2O55iiPZNuRlez41GmOM+kIFez42mG8AzhGcKzB4QIz5qF8AzhGcKzwkJ4hvCs16tCeNbav8fzEZ4dLoRn+zXA96tOzAsADjjggAMOOOCAAw444IAzepwT0wVAAw000EADDTTQQAMNNNCMh+bJaArAAQcccMABBxxwwAEHHHDq90N4tlsIz/bCs+VIhGdpDMKzdETh2XRhMp4JQTNX0NwVtHAFLV1BK1fQ2hW0cQV99IN7JcnW7WQrd7K1O9nqnWz9TraCJ1vDk63iydbxbOt49t3fto5nW8dzv473EaEdZikmtPqc+F1SXGj1OfEtoNjQ6nPiG0DxodXnxKdfMqIJQa5GF8abJEUTglylLsw2yYsmBLl6XRhskhpNuBldzS5MNcmOJgS5ml0YaYog7TBHMqQJQfFbJDnShKD48EuWNCEoPvySJ00Iig+/ZkpTkmzdLkw2TZamJNnqXRhumi9NSbI1vDDfNGWaclfaOl4YcZo1TUmydbww5RCnIU5DnPaAEHFasxCnIU5DnFZYiNMQp/V6VYjTWvv3eD7itMOFOG2/Bvie1on5BcABBxxwwAEHHHDAAQcccEaPc2LaAWiggQYaaKCBBhpooIEGmvHQPBndATjggAMOOOCAAw444IADTv1+iNN2C3HaXpy2Gok4LY9BnJaPJk5b3v0stFZy4wqauYLmrqCFK2jpClq5gtauoI0rqPX7ey3J1u1kK3eytTvZ6p1s/U62gidbw5Ot4snW8WzrePbd37aOZ1vHc7+OdxentbPqxWlKTvwu1YvTlJz4FqgXpyk58Q1QL05TcuLTL4jTpCBXowvjTRCnSUGuUhdmmyBOk4JcvS4MNkGcJt2MrmYXppogTpOCXM0ujLR6cVo7RxCnSUHxWySI06Sg+PAL4jQpKD78gjhNCooPvyJO05Js3S5MNkWcpiXZ6l0Yboo4TUuyNbww3xRxmnZX2jpeGHGKOE1LsnW8MOUQpyFOQ5z2gBBxWrMQpyFOQ5xWWIjTEKf1elWI01r793g+4rTDhThtvwb4ntaJ+QXAAQcccMABBxxwwAEHHHBGj3Ni2gFooIEGGmiggQYaaKCBBprx0DwZ3QE44IADDjjggAMOOOCAA079fojTdgtx2l6cth6JOG02BnHa7GjitOlZtnjTlJyZKWduylmYcpamnJUpZ23K2ZhyWj+7l4JcjU6uSidXp5Or1MnV6uSqdXL1OrmKnVzNzq5mZ9td7Wp2djU792p2d0FaK6rejybEhO9QvR1NiAnPfb0bTYgJz3y9GU2ICc+74EVTckw9jseYIEVTckxVjmeYYERTckxtjgeYoENT7kFTn+PpJbjQlBxTn+PRVS9Ca8UIHjQlJ3x7BAuakhMed8GBpuSEx10woCk54XFX/GdSkKvR8QRT5GdSkKvU8RBTzGdSkKvX8RxTtGfSzehqdjzKFOeZFORqdjzNEJ4hPEN49oAQ4VmzEJ4hPEN4VlgIzxCe9XpVCM9a+/d4PsKzw4XwbL8G+H7ViXkBwAEHHHDAAQcccMABBxxwRo9zYroAaKCBBhpooIEGGmiggQaa8dA8GU0BOOCAAw444IADDjjggANO/X4Iz3YL4dleeLYZifBsPgbh2fxowrM0n55ND1aaW/xnxtjZMLHzYWIXw8Quh4ldDRO7HiZ2M0xs6+f+ztyBzlka6KClgU5aGuiopYHOWhrosKWBTlsa6Lilgc5bHui85aHm2kDnLQ903rJy3rqL5UrJ9Z45X2rXd7feQudL7XqT1TvqfKldb7F6g50vtesNJvjtjLHDnK7OHxcEGZ4xdpgD1vmzgmDOM8YOc8Y6f1AQNHvGqTDMKev8KUFw8hljhzllnT8i1Av8SqmCz88Y2/WtFWx/xtiuF5jgAjTGdr3ABFOgMbbrBaZ4BJ25A52zzp8UFOmgM3ego9b5w4JiKHTmDnTaOn9eUHSGzjkx0Hnr/JFBcR86cwc6b50/NSBKRJSIKPEBIaLEZiFKRJSIKLGwECUiSuz1qhAltvbv8XxEiYcLUeJ+DfC9zBPziYADDjjggAMOOOCAAw444Iwe58Q0I9BAAw000EADDTTQQAMNNOOheTJ6E3DAAQcccMABBxxwwAEHnPr9/hNEib/ffv9ue3V+8/5qO3n+1Sd4E0/Lm7i9+uHi5Xby7+dN8/758vLdpPkLa77nPJ9+NRKF4mIMCsXF0RSKi8XZbHOwZguLQtEYOxsmdj5M7GKY2OUwsathYtfDxG6GiW2ZDpy5A52zNNBBSwOdtDTQUUsDnbU00GFLA522NNBxSwOdtzzQectDzbWBzlse6Lxl5bx1VyiWkusVir7Uru9uvULRl9r1JqtXKPpSu95i9QpFX2rXG0xQKBpjhzldnT8uCApFY+wwB6zzZwVBoWiMHeaMdf6gICgUjVNhmFPW+VOCoFA0xg5zyjp/RKhXKJZSBYWiMbbrWysoFI2xXS8wQaFojO16gQkKRWNs1wtMUSg6cwc6Z50/KSgKRWfuQEet84cFRaHozB3otHX+vKAoFJ1zYqDz1vkjg6JQdOYOdN46f2pAoYhCEYXiA0IUis1CoYhCEYViYaFQRKHY61WhUGzt3+P5KBQPFwrF/RrgG5snZhoBBxxwwAEHHHDAAQcccMAZPc6JCUiggQYaaKCBBhpooIEGGmjGQ/NkxCfggAMOOOCAAw444IADDjj1+6FQ/Pn1dBWK79+9e/PT5POLqzt14kicicsxOBOXR3Mm3v3PtXImU87MlDM35SxMOUtTzsqUszblbEw5LaeAFORqdHJVOrk6nVylTq5WJ1etk6vXyVXs5Gp2djU72+5qV7Ozq9m5V7O7u/xaUfXyPiEmfIfq9XxCTHju6wV8Qkx45usVe0JMeN4FiZ6SY+pxPMYEL56SY6pyPMME1Z2SY2pzPMAEe51yD5r6HE8vQUin5Jj6HI+uesdcK0aQyik54dsjaOOUnPC4C2I4JSc87oL6TckJj7sid5OCXI2OJ5jia5OCXKWOh5iiYJOCXL2O55hiVZNuRlez41GmiNKkIFez42n2IOhfry4ury5ufpqkyaeT5797//aTxkK1/PR/nr/9dJo+vfuff719+eksRWNu2vp/6H3++Xy+2Ri2yMNvMRt+i/nwWyyG32I5/Bar4bdYD7/FZvgtWpN9qD2OcL7TEQ54OsIJT0c44ukIZzwd4ZCnI5zydIRjno5wzvMRznk+xhw/wjnPRzjnue6c57s9zm+iPabdPlbNZjmvl4Yt4r8N2xbxX4Zti/jvwrZFfOXatohvXNsW8YVr2yK+b21bxNetbYvCxyrfHkc434WPVb49jnDCCx+rfHsc4YwXPlb59jjCKS98rPLtcYRzXvhY5dvjGHP8COe88LHKt0fdOZ81e3x1dRHskTfdPlaltFrNZoYt4r8N2xbxX4Zti/jvwrZFfOXatohvXNsW8YVr2yK+b21bxN+Nsm1R+EKgb4/4G1W+PeIvW/n2iL+H5dsj/oqWb4/4e4m+PeKvLPr2iL/N6Nsj/qKjb48jnPPCxyrfHseY40cY5IWPVb496kb5vNnj99++j/ZYd/tY1fxvXFr8vWGL+G/DtkX8l2HbIv67sG0Rf6yybRF/rLJtEX+ssm0Rf6yybRFft7YtCh+rfHvEH6t8e8Qfq3x7xB+rfHvEH6t8e8Qfq3x7xB+rfHvEH6t8e8Qfq3x7HOGcFz5W+fY4xhw/wiAvfKzy7VE3yhfNHv++fRXtser2serXv/7ii9XKsEX8t2HbIv7LsG0R/13Ytog/Vtm2iD9W2baIP1bZtog/Vtm2iK9b2xaFj1W+PeKPVb494o9Vvj3ij1W+PeKPVb494o9Vvj3ij1W+PeKPVb494o9Vvj2OcM4LH6t8exxjjh9hkBc+Vvn2qBvly7uPbu+30R7Lbh+rvvhiubRsEf9t2LaI/zJsW8R/F7Yt4o9Vti3ij1W2LeKPVbYt4o9Vti3i69a2ReFjlW+P+GOVb4/4Y5Vvj/hjlW+P+GOVb4/4Y5Vvj/hjlW+P+GOVb4/4Y5VvjyOc88LHKt8ex5jjRxjkhY9Vvj3qRvmq2eNfLqOvxedFt49V63XOi4Vhi/hvw7ZF/Jdh2yL+u7BtEX+ssm0Rf6yybRF/rLJtEX+ssm1R8k6ZtijK1lx7lGxVrj1KIivXHiXHlWuPkv7KtUfJ+ebao6SDc+1RMsW59ihJ5Fx7HOGcFz5W+fY4xhw/wiAvfKzy7fH4KP9jF8PrTsM8+WzydvuXe4PsnTj2+fUPr1/cGWAfVcXeu5yvtzd/f/n+7avr54vpi0lKixeTWfM/5UU33eyPtxh7D/WrV1+c32xfX1799PmPF9cfTMj7199BGH0b8JurV9ur375vxMSd/2DD8VOb41+259fvr7YfMBq38u59H9jIzcM8zMM8zMM8zMM8zMM8zMM8zMM8zMM8zMM8zMM8zMM8zMM8zMM8zMM8zMM8zMM8zMM8zMM8zMM8zMM8zMM8zMM8zMM8zMM8zMM8zMM8zMM8zMM8zMP/Xz3809nlD9urq4tX2385b35Ym86m4u9Vm5/GXrd/Gvu77dXF9nr389pnL+5/QPzuzeXN2ZuLt9tHfyJ7/XO/0338l7XXZ3f/q+ffXb45v7m4fHsL9ez6Zvvu06+331xebZ91++XzP29fb9++ar+gD//t+XL6YjJrfrk8bX7I3Pwfz95sv7lpwB6Jvo89+9Pr7c2Xb2+a9+d2i2/ev315R/r8k8l/PBJxT7jd/+k/PPpb7mZdfDN5fvPtxfXZ9d3fSreNmnXwh85u378vz19++/z/AfdNu8dvfjp+y77L/dO7y+uLJvDXt/+5y6u5X03Mz1BdXf6lH9I91sXbV9vmPHyaXvT80/fru9o/+M3F9k3Tt+e79/TDOXl9dfn+3fbV5G/+ZvJfdv/9x7M/fXt+vfv9e3PAPjl89KefffT2DTk7f/36q2aPszfbt69vvp383SRP/sfk2edv3jyb/Kr9jOs3Fy+3zz9Nn/xh+sdPHj1vD17J5dXk+Xe3L2X6t5PvbrfZVXW3b/Pf/tvtjdP/L6hZTY13eX/47o9nf97+NPnss88+vHl1iXepu7/27/q+1Pv19dX2/M81f/ivPf9M3+c379fu1X3W1Lopw64pdyKHsz+dX19fvH67ffVFo4i4/sPdO/nHurfy/i/63fvrb5/X/l3c/pX+6sPfZ/1JevPmV11e5VnzzNpdrm+uLv+87bbPh+fW7nT57vzlxc1P3bbaPbn6Vd1tcb9Vbcr9RdK+VmqOR+/Lp1n3x7l98Uw+naS+aX2OW3fWv764m6qdnv/Xxz5TNOuXv5z867/9fvJ/fvNvv5387je//f0//a9/mPzzb/7hn76Y/OOXv/2yW8BXt7f29sfz5iPa5OZycn15dTN5+/772x68nNwpTa4n59cvbz+8XLx93SHx/r1vcg4m8/mLydfdL5er7c37q7eTd+dX19uv3lye3zw/b678T27/Kg/+29d3/63Tm/n4R7SDbXcv4bHgvw5retl//rw77neH/fkvXm2/OX//5mby7ury9g7b/uLF5Bf/db3+4osvv/zFwOIZcMABBxxwwAEHHHDAAQec/z9xJtfvv7/9fwJPXm2b/zh5df5TQ3S1fQUNNNBAAw000EADDTTQQANNmeYvd1/N+ojm6zfvt+CAAw444IADDjjggAMOOODU4Oz/9wam5n9v4O/eR/97A2fp7l/YPv98Pt9sIIUUUkghhRRSSCGFFFJIIYUU0nGQ5jvS85uIdHpHOpvlvF5CCimkkEIKKaSQQgoppJBCCimk4yCdNaRfXV0EpHlzR5rSajWbQQoppJBCCimkkEIKKaSQQgoppOMgnTekv//2fUS6viPd3K7F30MKKaSQQgoppJBCCimkkEIKKaTjIF00pP++fRWRru5If/3rL75YrSCFFFJIIYUUUkghhRRSSCGFFNJxkC7v/n8m3m8j0uUd6RdfLJeQQgoppJBCCimkkEIKKaSQQgrpWEhXDem/XEZmwby4I12vc14sIIUUUkghhRRSSCGFFFJIIYUU0qOR3qO8ujr/y/NHw348u7m4ebP93bfn77ZnN9sfb57/4h8v319dP47x08M/+euL77dvry8u377ZXt8lPBLxy19OPn/1anI+uUua/OXi5tvJ9eX328mr2SN/8vqH12fn795t3756/qzZ+9knj/yB+3V2fnNz9fzZj89eTJbTnn/op9s/lLv/oeubn95sP+B9ev725beXV7d//tmb7Tc9aHcZ31y+vfn0L9uL19/eNBlfX7551T3jw9/N//78f394g3+7/XZ7fjP5zcuXk9+9/PYXn5T+kv7ul9cvry7e3fz38Dl/98tXFz/8/MPhn4nDbrMmF68+e/ayafAXty/6/OLt9upPebV6Nrl7Kz579uri+t2b859+dfH2ze1jn3795vLln//2WQx4m/rhNUxufnp3++ebd+OX353/cP7hvxb/ZLN+OL9q2jb5bPLq4vt3b7Znb7d/+d0Pr58/+68/A/liMp9O7/6PR49Pk/vq/Ob8NvgP//HszfnX2zfPfvXs1fab8/dvbibvri6/uXizffbiwyN/+vHZr9LZ9MWzH87fvN8++9Vyc7Y5WOvNi2cvmzvnNuH2Gvniiy+/fPbXF51S8yCps0FS54OkLgZJXQ6SuhokdT1I6maQ1DQdJnaY05WGOV5pmPOVhjlgaZgTloY5YmmYM5aGOWRpmFOWhzlleaAZNswpy8Ocsiycssn1+++/b/2v8a74hHC1fdUjtON72y+04zvbL7Tj+9ovtOPd1S+0483VL7TjvdUvtOOt1S+0453VL7TrB4OeqYOcqa4fC3qmDnKqun4o6Jk6yLnq+pGgZ+ogJ6vrB4KeqYOcra4fB3qmDjOvBjlbXT8L9EytPVt/uXh7o34M+Lp5QvfUjm9rz9SOb2vP1I5va8/UjldWz9SOV1bP1I5XVs/UjldWz9SOV1bP1K6fB/rGDnO6un4i6Bs7zPnq+pmgb+wwJ6zrp4K+scOcsa6fC/rGDnPKun4y6Bs70Awb5pR1/XDQN7bXKftjl39w2P3b4OSzydvtX+7/QePu3zGeX//w+sXdP0g8+i8X9//AeL29+fvL929fXT9fTF9MUlq8mMya/ykvuv3rx4+3GPt/N3316ovzm+3ry6ufPv/x4vrDP9Dt34oO/4p5G/Cbq1fbq9++b/69rPMfbDh+anP8y/b8+v3V9gNG809+u78C9d9l7/4hqb3V77ZXF9vrHe7tTru/kHdvLm/Omn/denTL65973Y+TXp/d9e7d5Zvzm4vLt7dQz65vtu8+/Xr7zeXV9lm3Jv3z9vX27av2C/rw354vb1swa5rQ/GNYav6P3T97PvovwvexZ396vb358u1N8/7cbvHN+7cv70iffzL5jw7/7tkQbvd/+g+Pno1mXXwzeX7z7cX1ba+bP9dto2Yd/KGz2/fvy/OX3z7/f8B90+7xd/82uMv907vL64sm8Ne3/7nLq7lfTczPUF1d/qUf0j3WxdtX2+bgfppe9PzT9+u72j/4zcX2TdO357v39MM5eX11+f7d9tXkb/5m8l92//3Hsz99e369u0+aA/bJ4aM//eyjt2/I2fnr1181e5y92b59ffPt5O8mefI/Js8+f/Pm2eRX7Wdcv7l4uX3+afrkD9M/fvLoeXvwSi6vJs+/u30p07+dfHe7za6qu32b//bfPpuk/n9BzWpqvMv7w3d/PPvz9vZ6++yzD29eXeJd6u6v/bu+L/V+fX21Pf9zzR/+a88/0/f5zfu1e3WfNbVuyrBryt1gPPvTh+/0bF/dfavn+g937+Qf697K+7/od++vv31e+3dx+1f6qw9/n/Un6c2bX3V5lWfNM2t3ub65uvzztts+H55bu9Plu/OXFzc/ddtq9+TqV3W3xf1WtSn3F0n7Wqk5Hr0vn2bdH+f2xTP5dJL6pvU5bt1Z//ribqp2ev5fH/tM0axf/nLyr//2+8n/+c2//Xbyu9/89vf/9L/+YfLPv/mHf/pi8o9f/vbLbgFf3d7a2x/Pm49ok5vLyfXl7Qfpt++/v+3By8ndR8Tryfn1y9sPLxdvX3dIvH/vm5yDyXz+YvJ198vlanvz/urt5N351fX2qzeX5zfPz5sr/5Pbv8qD//b13X/r9GY+/hHtYNvdS3gs+K//Cd+9/OgfYHdfsGz+QfU/5aug4IADDjjggAMOOOCAAw44o8d5+AWXhuhq+woaaKCBBhpooIEGGmiggQaaMs2DrwQ2NM1X/MABBxxwwAEHHHDAAQcccMD5TzQe/n77/bvt1fnN+6vt5PlXn+A8PCnn4b+fN437x+3d//X5919fbN/eTJq/ssZ8uH31/vb9/3Symn41EgniegwSxPXRJIh3Pz2tlTCZcmamnLkpZ2HKWZpyVqactSlnY8pp2QWkIFejk6vSydXp5Cp1crU6uWqdXL1OrmInV7Ozq9nZdle7mp1dzc69mt1d2teKqtf0CTHhO1Sv4hNiwnNfr9sTYsIzX6/UE2LC8y5o85QcU4/jMSbI8JQcU5XjGSYo7pQcU5vjASaI65R70NTneHoJOjolx9TneHTVS+ZaMYJWTskJ3x5BHafkhMdd0MMpOeFxFxRwSk543BXNmxTkanQ8wRR5mxTkKnU8xBQlmxTk6nU8xxTRmnQzupodjzJFnyYFuZodTzOkaKOQovEwD/MwD/MwD/MwD/MwD/MwD/MwD/MwD/PwKT3809nlD9urq4tX/7edu8dBEAYDMLx7Ck9g9AJOOnoIxRob+UnEhdsbIjaEuOCgEp9vaQmEPqwMb9jt2x9Vq8VSFL/3JaL4aUTxR40ovij+iBHFH44o/nBE8UeOKL4o/ssRxcfBwcHBwcHBwcHBwcGZQlKShoaGhoaGhoaGhoZmOpq/SVni4ODg4ODg4ODg4OC8f94XovibWISyjlWZh7qWxP+tJH51vcy3p1PMYiizJoXwP5vA754e3OlfP/ePNb2926TlUB2bdj3finw9uwNn/7Qe"
               },
               {
                  "name" : "annual_peak_electric_demand",
                  "units" : "kW",
                  "value" : 147.18466000000001
               },
               {
                  "name" : "first_year_capital_cost",
                  "units" : "$",
                  "value" : 0
               },
               {
                  "name" : "annual_utility_cost",
                  "units" : "$",
                  "value" : 59912.470000000001
               },
               {
                  "name" : "total_lifecycle_cost",
                  "units" : "$",
                  "value" : 1019869.12
               }
            ],
            "step_warnings" : []
         }
      }
   ],
   "updated_at" : "20170710T194142Z",
   "weather_file" : "USA_CO_Denver.Intl.AP.725650_TMY3.epw"
}
