{
   "completed_at" : "20170710T183738Z",
   "completed_status" : "Success",
   "created_at" : "2017-07-10 18:23:51 +0000",
   "current_step" : 5,
   "description" : "",
   "eplusout_err" : "Program Version,EnergyPlus, Version 8.7.0-78a111df4a, YMD=2017.07.10 18:27,IDD_Version 8.7.0\n   ************* IDF Context for following error/warning message:\n   ************* Note -- lines truncated at 300 characters, if necessary...\n   *************      5 Building,\n   ************* indicated Name=NECB 2011-SmallHotel-NECB HDD Method-CAN_NS_Sable.Island.716000_CWEC.epw created: 2017-07-10 18:24:05 +0000\n   ************* Only last 1 lines before error line shown.....\n   *************      6   NECB 2011-SmallHotel-NECB HDD Method-CAN_NS_Sable.Island.716000_CWEC.epw created: 2017-07-10 18:24:05 +0000, !- Name\n   ** Warning ** IP: IDF line~6 Alpha Argument length exceeds maximum, will be truncated=  NECB 2011-SmallHotel-NECB HDD Method-CAN_NS_Sable.Island.716000_CWEC.epw created: 2017-07-10 18:24:05 +000\n   **   ~~~   ** Will be processed as Alpha=NECB 2011-SMALLHOTEL-NECB HDD METHOD-CAN_NS_SABLE.ISLAND.716000_CWEC.EPW CREATED: 2017-07-10 18:24:05 +0000\n   ************* Beginning Zone Sizing Calculations\n   ** Warning ** ProcessScheduleInput: Schedule:Day:Interval=\"ECONOMIZER MAX OA FRACTION 100 PCT DEFAULT\", Blank Schedule Type Limits Name input -- will not be validated.\n   ** Warning ** ProcessScheduleInput: Schedule:Day:Interval=\"SCHEDULE DAY 1\", Blank Schedule Type Limits Name input -- will not be validated.\n   ** Warning ** ProcessScheduleInput: Schedule:Day:Interval=\"SCHEDULE DAY 10\", Blank Schedule Type Limits Name input -- will not be validated.\n   ** Warning ** ProcessScheduleInput: Schedule:Day:Interval=\"SCHEDULE DAY 100\", Blank Schedule Type Limits Name input -- will not be validated.\n   ** Warning ** ProcessScheduleInput: Schedule:Day:Interval=\"SCHEDULE DAY 101\", Blank Schedule Type Limits Name input -- will not be validated.\n   ** Warning ** ProcessScheduleInput: Schedule:Day:Interval=\"SCHEDULE DAY 102\", Blank Schedule Type Limits Name input -- will not be validated.\n   ** Warning ** ProcessScheduleInput: Schedule:Day:Interval=\"SCHEDULE DAY 103\", Blank Schedule Type Limits Name input -- will not be validated.\n   ** Warning ** ProcessScheduleInput: Schedule:Day:Interval=\"SCHEDULE DAY 104\", Blank Schedule Type Limits Name input -- will not be validated.\n   ** Warning ** ProcessScheduleInput: Schedule:Day:Interval=\"SCHEDULE DAY 105\", Blank Schedule Type Limits Name input -- will not be validated.\n   ** Warning ** ProcessScheduleInput: Schedule:Day:Interval=\"SCHEDULE DAY 106\", Blank Schedule Type Limits Name input -- will not be validated.\n   ** Warning ** ProcessScheduleInput: Schedule:Day:Interval=\"SCHEDULE DAY 107\", Blank Schedule Type Limits Name input -- will not be validated.\n   ** Warning ** ProcessScheduleInput: Schedule:Day:Interval=\"SCHEDULE DAY 108\", Blank Schedule Type Limits Name input -- will not be validated.\n   ** Warning ** ProcessScheduleInput: Schedule:Day:Interval=\"SCHEDULE DAY 109\", Blank Schedule Type Limits Name input -- will not be validated.\n   ** Warning ** ProcessScheduleInput: Schedule:Day:Interval=\"SCHEDULE DAY 11\", Blank Schedule Type Limits Name input -- will not be validated.\n   ** Warning ** ProcessScheduleInput: Schedule:Day:Interval=\"SCHEDULE DAY 110\", Blank Schedule Type Limits Name input -- will not be validated.\n   ** Warning ** ProcessScheduleInput: Schedule:Day:Interval=\"SCHEDULE DAY 111\", Blank Schedule Type Limits Name input -- will not be validated.\n   ** Warning ** ProcessScheduleInput: Schedule:Day:Interval=\"SCHEDULE DAY 112\", Blank Schedule Type Limits Name input -- will not be validated.\n   ** Warning ** ProcessScheduleInput: Schedule:Day:Interval=\"SCHEDULE DAY 113\", Blank Schedule Type Limits Name input -- will not be validated.\n   ** Warning ** ProcessScheduleInput: Schedule:Day:Interval=\"SCHEDULE DAY 114\", Blank Schedule Type Limits Name input -- will not be validated.\n   ** Warning ** ProcessScheduleInput: Schedule:Day:Interval=\"SCHEDULE DAY 115\", Blank Schedule Type Limits Name input -- will not be validated.\n   ** Warning ** ProcessScheduleInput: Schedule:Day:Interval=\"SCHEDULE DAY 116\", Blank Schedule Type Limits Name input -- will not be validated.\n   ** Warning ** ProcessScheduleInput: Schedule:Day:Interval=\"SCHEDULE DAY 117\", Blank Schedule Type Limits Name input -- will not be validated.\n   ** Warning ** ProcessScheduleInput: Schedule:Day:Interval=\"SCHEDULE DAY 118\", Blank Schedule Type Limits Name input -- will not be validated.\n   ** Warning ** ProcessScheduleInput: Schedule:Day:Interval=\"SCHEDULE DAY 119\", Blank Schedule Type Limits Name input -- will not be validated.\n   ** Warning ** ProcessScheduleInput: Schedule:Day:Interval=\"SCHEDULE DAY 12\", Blank Schedule Type Limits Name input -- will not be validated.\n   ** Warning ** ProcessScheduleInput: Schedule:Day:Interval=\"SCHEDULE DAY 120\", Blank Schedule Type Limits Name input -- will not be validated.\n   ** Warning ** ProcessScheduleInput: Schedule:Day:Interval=\"SCHEDULE DAY 121\", Blank Schedule Type Limits Name input -- will not be validated.\n   ** Warning ** ProcessScheduleInput: Schedule:Day:Interval=\"SCHEDULE DAY 122\", Blank Schedule Type Limits Name input -- will not be validated.\n   ** Warning ** ProcessScheduleInput: Schedule:Day:Interval=\"SCHEDULE DAY 123\", Blank Schedule Type Limits Name input -- will not be validated.\n   ** Warning ** ProcessScheduleInput: Schedule:Day:Interval=\"SCHEDULE DAY 124\", Blank Schedule Type Limits Name input -- will not be validated.\n   ** Warning ** ProcessScheduleInput: Schedule:Day:Interval=\"SCHEDULE DAY 125\", Blank Schedule Type Limits Name input -- will not be validated.\n   ** Warning ** ProcessScheduleInput: Schedule:Day:Interval=\"SCHEDULE DAY 126\", Blank Schedule Type Limits Name input -- will not be validated.\n   ** Warning ** ProcessScheduleInput: Schedule:Day:Interval=\"SCHEDULE DAY 127\", Blank Schedule Type Limits Name input -- will not be validated.\n   ** Warning ** ProcessScheduleInput: Schedule:Day:Interval=\"SCHEDULE DAY 128\", Blank Schedule Type Limits Name input -- will not be validated.\n   ** Warning ** ProcessScheduleInput: Schedule:Day:Interval=\"SCHEDULE DAY 129\", Blank Schedule Type Limits Name input -- will not be validated.\n   ** Warning ** ProcessScheduleInput: Schedule:Day:Interval=\"SCHEDULE DAY 13\", Blank Schedule Type Limits Name input -- will not be validated.\n   ** Warning ** ProcessScheduleInput: Schedule:Day:Interval=\"SCHEDULE DAY 130\", Blank Schedule Type Limits Name input -- will not be validated.\n   ** Warning ** ProcessScheduleInput: Schedule:Day:Interval=\"SCHEDULE DAY 131\", Blank Schedule Type Limits Name input -- will not be validated.\n   ** Warning ** ProcessScheduleInput: Schedule:Day:Interval=\"SCHEDULE DAY 132\", Blank Schedule Type Limits Name input -- will not be validated.\n   ** Warning ** ProcessScheduleInput: Schedule:Day:Interval=\"SCHEDULE DAY 133\", Blank Schedule Type Limits Name input -- will not be validated.\n   ** Warning ** ProcessScheduleInput: Schedule:Day:Interval=\"SCHEDULE DAY 134\", Blank Schedule Type Limits Name input -- will not be validated.\n   ** Warning ** ProcessScheduleInput: Schedule:Day:Interval=\"SCHEDULE DAY 135\", Blank Schedule Type Limits Name input -- will not be validated.\n   ** Warning ** ProcessScheduleInput: Schedule:Day:Interval=\"SCHEDULE DAY 136\", Blank Schedule Type Limits Name input -- will not be validated.\n   ** Warning ** ProcessScheduleInput: Schedule:Day:Interval=\"SCHEDULE DAY 137\", Blank Schedule Type Limits Name input -- will not be validated.\n   ** Warning ** ProcessScheduleInput: Schedule:Day:Interval=\"SCHEDULE DAY 138\", Blank Schedule Type Limits Name input -- will not be validated.\n   ** Warning ** ProcessScheduleInput: Schedule:Day:Interval=\"SCHEDULE DAY 139\", Blank Schedule Type Limits Name input -- will not be validated.\n   ** Warning ** ProcessScheduleInput: Schedule:Day:Interval=\"SCHEDULE DAY 14\", Blank Schedule Type Limits Name input -- will not be validated.\n   ** Warning ** ProcessScheduleInput: Schedule:Day:Interval=\"SCHEDULE DAY 140\", Blank Schedule Type Limits Name input -- will not be validated.\n   ** Warning ** ProcessScheduleInput: Schedule:Day:Interval=\"SCHEDULE DAY 141\", Blank Schedule Type Limits Name input -- will not be validated.\n   ** Warning ** ProcessScheduleInput: Schedule:Day:Interval=\"SCHEDULE DAY 142\", Blank Schedule Type Limits Name input -- will not be validated.\n   ** Warning ** ProcessScheduleInput: Schedule:Day:Interval=\"SCHEDULE DAY 143\", Blank Schedule Type Limits Name input -- will not be validated.\n   ** Warning ** ProcessScheduleInput: Schedule:Day:Interval=\"SCHEDULE DAY 144\", Blank Schedule Type Limits Name input -- will not be validated.\n   ** Warning ** ProcessScheduleInput: Schedule:Day:Interval=\"SCHEDULE DAY 145\", Blank Schedule Type Limits Name input -- will not be validated.\n   ** Warning ** ProcessScheduleInput: Schedule:Day:Interval=\"SCHEDULE DAY 146\", Blank Schedule Type Limits Name input -- will not be validated.\n   ** Warning ** ProcessScheduleInput: Schedule:Day:Interval=\"SCHEDULE DAY 147\", Blank Schedule Type Limits Name input -- will not be validated.\n   ** Warning ** ProcessScheduleInput: Schedule:Day:Interval=\"SCHEDULE DAY 148\", Blank Schedule Type Limits Name input -- will not be validated.\n   ** Warning ** ProcessScheduleInput: Schedule:Day:Interval=\"SCHEDULE DAY 149\", Blank Schedule Type Limits Name input -- will not be validated.\n   ** Warning ** ProcessScheduleInput: Schedule:Day:Interval=\"SCHEDULE DAY 15\", Blank Schedule Type Limits Name input -- will not be validated.\n   ** Warning ** ProcessScheduleInput: Schedule:Day:Interval=\"SCHEDULE DAY 150\", Blank Schedule Type Limits Name input -- will not be validated.\n   ** Warning ** ProcessScheduleInput: Schedule:Day:Interval=\"SCHEDULE DAY 151\", Blank Schedule Type Limits Name input -- will not be validated.\n   ** Warning ** ProcessScheduleInput: Schedule:Day:Interval=\"SCHEDULE DAY 152\", Blank Schedule Type Limits Name input -- will not be validated.\n   ** Warning ** ProcessScheduleInput: Schedule:Day:Interval=\"SCHEDULE DAY 153\", Blank Schedule Type Limits Name input -- will not be validated.\n   ** Warning ** ProcessScheduleInput: Schedule:Day:Interval=\"SCHEDULE DAY 154\", Blank Schedule Type Limits Name input -- will not be validated.\n   ** Warning ** ProcessScheduleInput: Schedule:Day:Interval=\"SCHEDULE DAY 155\", Blank Schedule Type Limits Name input -- will not be validated.\n   ** Warning ** ProcessScheduleInput: Schedule:Day:Interval=\"SCHEDULE DAY 16\", Blank Schedule Type Limits Name input -- will not be validated.\n   ** Warning ** ProcessScheduleInput: Schedule:Day:Interval=\"SCHEDULE DAY 17\", Blank Schedule Type Limits Name input -- will not be validated.\n   ** Warning ** ProcessScheduleInput: Schedule:Day:Interval=\"SCHEDULE DAY 18\", Blank Schedule Type Limits Name input -- will not be validated.\n   ** Warning ** ProcessScheduleInput: Schedule:Day:Interval=\"SCHEDULE DAY 19\", Blank Schedule Type Limits Name input -- will not be validated.\n   ** Warning ** ProcessScheduleInput: Schedule:Day:Interval=\"SCHEDULE DAY 2\", Blank Schedule Type Limits Name input -- will not be validated.\n   ** Warning ** ProcessScheduleInput: Schedule:Day:Interval=\"SCHEDULE DAY 20\", Blank Schedule Type Limits Name input -- will not be validated.\n   ** Warning ** ProcessScheduleInput: Schedule:Day:Interval=\"SCHEDULE DAY 21\", Blank Schedule Type Limits Name input -- will not be validated.\n   ** Warning ** ProcessScheduleInput: Schedule:Day:Interval=\"SCHEDULE DAY 22\", Blank Schedule Type Limits Name input -- will not be validated.\n   ** Warning ** ProcessScheduleInput: Schedule:Day:Interval=\"SCHEDULE DAY 23\", Blank Schedule Type Limits Name input -- will not be validated.\n   ** Warning ** ProcessScheduleInput: Schedule:Day:Interval=\"SCHEDULE DAY 24\", Blank Schedule Type Limits Name input -- will not be validated.\n   ** Warning ** ProcessScheduleInput: Schedule:Day:Interval=\"SCHEDULE DAY 25\", Blank Schedule Type Limits Name input -- will not be validated.\n   ** Warning ** ProcessScheduleInput: Schedule:Day:Interval=\"SCHEDULE DAY 26\", Blank Schedule Type Limits Name input -- will not be validated.\n   ** Warning ** ProcessScheduleInput: Schedule:Day:Interval=\"SCHEDULE DAY 27\", Blank Schedule Type Limits Name input -- will not be validated.\n   ** Warning ** ProcessScheduleInput: Schedule:Day:Interval=\"SCHEDULE DAY 28\", Blank Schedule Type Limits Name input -- will not be validated.\n   ** Warning ** ProcessScheduleInput: Schedule:Day:Interval=\"SCHEDULE DAY 29\", Blank Schedule Type Limits Name input -- will not be validated.\n   ** Warning ** ProcessScheduleInput: Schedule:Day:Interval=\"SCHEDULE DAY 30\", Blank Schedule Type Limits Name input -- will not be validated.\n   ** Warning ** ProcessScheduleInput: Schedule:Day:Interval=\"SCHEDULE DAY 31\", Blank Schedule Type Limits Name input -- will not be validated.\n   ** Warning ** ProcessScheduleInput: Schedule:Day:Interval=\"SCHEDULE DAY 32\", Blank Schedule Type Limits Name input -- will not be validated.\n   ** Warning ** ProcessScheduleInput: Schedule:Day:Interval=\"SCHEDULE DAY 33\", Blank Schedule Type Limits Name input -- will not be validated.\n   ** Warning ** ProcessScheduleInput: Schedule:Day:Interval=\"SCHEDULE DAY 34\", Blank Schedule Type Limits Name input -- will not be validated.\n   ** Warning ** ProcessScheduleInput: Schedule:Day:Interval=\"SCHEDULE DAY 35\", Blank Schedule Type Limits Name input -- will not be validated.\n   ** Warning ** ProcessScheduleInput: Schedule:Day:Interval=\"SCHEDULE DAY 36\", Blank Schedule Type Limits Name input -- will not be validated.\n   ** Warning ** ProcessScheduleInput: Schedule:Day:Interval=\"SCHEDULE DAY 37\", Blank Schedule Type Limits Name input -- will not be validated.\n   ** Warning ** ProcessScheduleInput: Schedule:Day:Interval=\"SCHEDULE DAY 38\", Blank Schedule Type Limits Name input -- will not be validated.\n   ** Warning ** ProcessScheduleInput: Schedule:Day:Interval=\"SCHEDULE DAY 39\", Blank Schedule Type Limits Name input -- will not be validated.\n   ** Warning ** ProcessScheduleInput: Schedule:Day:Interval=\"SCHEDULE DAY 40\", Blank Schedule Type Limits Name input -- will not be validated.\n   ** Warning ** ProcessScheduleInput: Schedule:Day:Interval=\"SCHEDULE DAY 41\", Blank Schedule Type Limits Name input -- will not be validated.\n   ** Warning ** ProcessScheduleInput: Schedule:Day:Interval=\"SCHEDULE DAY 42\", Blank Schedule Type Limits Name input -- will not be validated.\n   ** Warning ** ProcessScheduleInput: Schedule:Day:Interval=\"SCHEDULE DAY 43\", Blank Schedule Type Limits Name input -- will not be validated.\n   ** Warning ** ProcessScheduleInput: Schedule:Day:Interval=\"SCHEDULE DAY 44\", Blank Schedule Type Limits Name input -- will not be validated.\n   ** Warning ** ProcessScheduleInput: Schedule:Day:Interval=\"SCHEDULE DAY 45\", Blank Schedule Type Limits Name input -- will not be validated.\n   ** Warning ** ProcessScheduleInput: Schedule:Day:Interval=\"SCHEDULE DAY 46\", Blank Schedule Type Limits Name input -- will not be validated.\n   ** Warning ** ProcessScheduleInput: Schedule:Day:Interval=\"SCHEDULE DAY 47\", Blank Schedule Type Limits Name input -- will not be validated.\n   ** Warning ** ProcessScheduleInput: Schedule:Day:Interval=\"SCHEDULE DAY 48\", Blank Schedule Type Limits Name input -- will not be validated.\n   ** Warning ** ProcessScheduleInput: Schedule:Day:Interval=\"SCHEDULE DAY 49\", Blank Schedule Type Limits Name input -- will not be validated.\n   ** Warning ** ProcessScheduleInput: Schedule:Day:Interval=\"SCHEDULE DAY 50\", Blank Schedule Type Limits Name input -- will not be validated.\n   ** Warning ** ProcessScheduleInput: Schedule:Day:Interval=\"SCHEDULE DAY 51\", Blank Schedule Type Limits Name input -- will not be validated.\n   ** Warning ** ProcessScheduleInput: Schedule:Day:Interval=\"SCHEDULE DAY 52\", Blank Schedule Type Limits Name input -- will not be validated.\n   ** Warning ** ProcessScheduleInput: Schedule:Day:Interval=\"SCHEDULE DAY 53\", Blank Schedule Type Limits Name input -- will not be validated.\n   ** Warning ** ProcessScheduleInput: Schedule:Day:Interval=\"SCHEDULE DAY 54\", Blank Schedule Type Limits Name input -- will not be validated.\n   ** Warning ** ProcessScheduleInput: Schedule:Day:Interval=\"SCHEDULE DAY 55\", Blank Schedule Type Limits Name input -- will not be validated.\n   ** Warning ** ProcessScheduleInput: Schedule:Day:Interval=\"SCHEDULE DAY 56\", Blank Schedule Type Limits Name input -- will not be validated.\n   ** Warning ** ProcessScheduleInput: Schedule:Day:Interval=\"SCHEDULE DAY 57\", Blank Schedule Type Limits Name input -- will not be validated.\n   ** Warning ** ProcessScheduleInput: Schedule:Day:Interval=\"SCHEDULE DAY 58\", Blank Schedule Type Limits Name input -- will not be validated.\n   ** Warning ** ProcessScheduleInput: Schedule:Day:Interval=\"SCHEDULE DAY 59\", Blank Schedule Type Limits Name input -- will not be validated.\n   ** Warning ** ProcessScheduleInput: Schedule:Day:Interval=\"SCHEDULE DAY 60\", Blank Schedule Type Limits Name input -- will not be validated.\n   ** Warning ** ProcessScheduleInput: Schedule:Day:Interval=\"SCHEDULE DAY 61\", Blank Schedule Type Limits Name input -- will not be validated.\n   ** Warning ** ProcessScheduleInput: Schedule:Day:Interval=\"SCHEDULE DAY 62\", Blank Schedule Type Limits Name input -- will not be validated.\n   ** Warning ** ProcessScheduleInput: Schedule:Day:Interval=\"SCHEDULE DAY 63\", Blank Schedule Type Limits Name input -- will not be validated.\n   ** Warning ** ProcessScheduleInput: Schedule:Day:Interval=\"SCHEDULE DAY 64\", Blank Schedule Type Limits Name input -- will not be validated.\n   ** Warning ** ProcessScheduleInput: Schedule:Day:Interval=\"SCHEDULE DAY 65\", Blank Schedule Type Limits Name input -- will not be validated.\n   ** Warning ** ProcessScheduleInput: Schedule:Day:Interval=\"SCHEDULE DAY 66\", Blank Schedule Type Limits Name input -- will not be validated.\n   ** Warning ** ProcessScheduleInput: Schedule:Day:Interval=\"SCHEDULE DAY 67\", Blank Schedule Type Limits Name input -- will not be validated.\n   ** Warning ** ProcessScheduleInput: Schedule:Day:Interval=\"SCHEDULE DAY 68\", Blank Schedule Type Limits Name input -- will not be validated.\n   ** Warning ** ProcessScheduleInput: Schedule:Day:Interval=\"SCHEDULE DAY 69\", Blank Schedule Type Limits Name input -- will not be validated.\n   ** Warning ** ProcessScheduleInput: Schedule:Day:Interval=\"SCHEDULE DAY 70\", Blank Schedule Type Limits Name input -- will not be validated.\n   ** Warning ** ProcessScheduleInput: Schedule:Day:Interval=\"SCHEDULE DAY 71\", Blank Schedule Type Limits Name input -- will not be validated.\n   ** Warning ** ProcessScheduleInput: Schedule:Day:Interval=\"SCHEDULE DAY 72\", Blank Schedule Type Limits Name input -- will not be validated.\n   ** Warning ** ProcessScheduleInput: Schedule:Day:Interval=\"SCHEDULE DAY 73\", Blank Schedule Type Limits Name input -- will not be validated.\n   ** Warning ** ProcessScheduleInput: Schedule:Day:Interval=\"SCHEDULE DAY 74\", Blank Schedule Type Limits Name input -- will not be validated.\n   ** Warning ** ProcessScheduleInput: Schedule:Day:Interval=\"SCHEDULE DAY 75\", Blank Schedule Type Limits Name input -- will not be validated.\n   ** Warning ** ProcessScheduleInput: Schedule:Day:Interval=\"SCHEDULE DAY 76\", Blank Schedule Type Limits Name input -- will not be validated.\n   ** Warning ** ProcessScheduleInput: Schedule:Day:Interval=\"SCHEDULE DAY 77\", Blank Schedule Type Limits Name input -- will not be validated.\n   ** Warning ** ProcessScheduleInput: Schedule:Day:Interval=\"SCHEDULE DAY 78\", Blank Schedule Type Limits Name input -- will not be validated.\n   ** Warning ** ProcessScheduleInput: Schedule:Day:Interval=\"SCHEDULE DAY 79\", Blank Schedule Type Limits Name input -- will not be validated.\n   ** Warning ** ProcessScheduleInput: Schedule:Day:Interval=\"SCHEDULE DAY 8\", Blank Schedule Type Limits Name input -- will not be validated.\n   ** Warning ** ProcessScheduleInput: Schedule:Day:Interval=\"SCHEDULE DAY 80\", Blank Schedule Type Limits Name input -- will not be validated.\n   ** Warning ** ProcessScheduleInput: Schedule:Day:Interval=\"SCHEDULE DAY 81\", Blank Schedule Type Limits Name input -- will not be validated.\n   ** Warning ** ProcessScheduleInput: Schedule:Day:Interval=\"SCHEDULE DAY 82\", Blank Schedule Type Limits Name input -- will not be validated.\n   ** Warning ** ProcessScheduleInput: Schedule:Day:Interval=\"SCHEDULE DAY 83\", Blank Schedule Type Limits Name input -- will not be validated.\n   ** Warning ** ProcessScheduleInput: Schedule:Day:Interval=\"SCHEDULE DAY 84\", Blank Schedule Type Limits Name input -- will not be validated.\n   ** Warning ** ProcessScheduleInput: Schedule:Day:Interval=\"SCHEDULE DAY 85\", Blank Schedule Type Limits Name input -- will not be validated.\n   ** Warning ** ProcessScheduleInput: Schedule:Day:Interval=\"SCHEDULE DAY 86\", Blank Schedule Type Limits Name input -- will not be validated.\n   ** Warning ** ProcessScheduleInput: Schedule:Day:Interval=\"SCHEDULE DAY 87\", Blank Schedule Type Limits Name input -- will not be validated.\n   ** Warning ** ProcessScheduleInput: Schedule:Day:Interval=\"SCHEDULE DAY 88\", Blank Schedule Type Limits Name input -- will not be validated.\n   ** Warning ** ProcessScheduleInput: Schedule:Day:Interval=\"SCHEDULE DAY 89\", Blank Schedule Type Limits Name input -- will not be validated.\n   ** Warning ** ProcessScheduleInput: Schedule:Day:Interval=\"SCHEDULE DAY 9\", Blank Schedule Type Limits Name input -- will not be validated.\n   ** Warning ** ProcessScheduleInput: Schedule:Day:Interval=\"SCHEDULE DAY 90\", Blank Schedule Type Limits Name input -- will not be validated.\n   ** Warning ** ProcessScheduleInput: Schedule:Day:Interval=\"SCHEDULE DAY 91\", Blank Schedule Type Limits Name input -- will not be validated.\n   ** Warning ** ProcessScheduleInput: Schedule:Day:Interval=\"SCHEDULE DAY 92\", Blank Schedule Type Limits Name input -- will not be validated.\n   ** Warning ** ProcessScheduleInput: Schedule:Day:Interval=\"SCHEDULE DAY 93\", Blank Schedule Type Limits Name input -- will not be validated.\n   ** Warning ** ProcessScheduleInput: Schedule:Day:Interval=\"SCHEDULE DAY 94\", Blank Schedule Type Limits Name input -- will not be validated.\n   ** Warning ** ProcessScheduleInput: Schedule:Day:Interval=\"SCHEDULE DAY 95\", Blank Schedule Type Limits Name input -- will not be validated.\n   ** Warning ** ProcessScheduleInput: Schedule:Day:Interval=\"SCHEDULE DAY 96\", Blank Schedule Type Limits Name input -- will not be validated.\n   ** Warning ** ProcessScheduleInput: Schedule:Day:Interval=\"SCHEDULE DAY 97\", Blank Schedule Type Limits Name input -- will not be validated.\n   ** Warning ** ProcessScheduleInput: Schedule:Day:Interval=\"SCHEDULE DAY 98\", Blank Schedule Type Limits Name input -- will not be validated.\n   ** Warning ** ProcessScheduleInput: Schedule:Day:Interval=\"SCHEDULE DAY 99\", Blank Schedule Type Limits Name input -- will not be validated.\n   ** Warning ** ProcessScheduleInput: Schedule:Year=\"ECONOMIZER MAX OA FRACTION 100 PCT\", Blank Schedule Type Limits Name input -- will not be validated.\n   ** Warning ** ProcessScheduleInput: Schedule:Year=\"SCHEDULE RULESET 10\", Blank Schedule Type Limits Name input -- will not be validated.\n   ** Warning ** ProcessScheduleInput: Schedule:Year=\"SCHEDULE RULESET 100\", Blank Schedule Type Limits Name input -- will not be validated.\n   ** Warning ** ProcessScheduleInput: Schedule:Year=\"SCHEDULE RULESET 101\", Blank Schedule Type Limits Name input -- will not be validated.\n   ** Warning ** ProcessScheduleInput: Schedule:Year=\"SCHEDULE RULESET 102\", Blank Schedule Type Limits Name input -- will not be validated.\n   ** Warning ** ProcessScheduleInput: Schedule:Year=\"SCHEDULE RULESET 103\", Blank Schedule Type Limits Name input -- will not be validated.\n   ** Warning ** ProcessScheduleInput: Schedule:Year=\"SCHEDULE RULESET 104\", Blank Schedule Type Limits Name input -- will not be validated.\n   ** Warning ** ProcessScheduleInput: Schedule:Year=\"SCHEDULE RULESET 105\", Blank Schedule Type Limits Name input -- will not be validated.\n   ** Warning ** ProcessScheduleInput: Schedule:Year=\"SCHEDULE RULESET 106\", Blank Schedule Type Limits Name input -- will not be validated.\n   ** Warning ** ProcessScheduleInput: Schedule:Year=\"SCHEDULE RULESET 107\", Blank Schedule Type Limits Name input -- will not be validated.\n   ** Warning ** ProcessScheduleInput: Schedule:Year=\"SCHEDULE RULESET 108\", Blank Schedule Type Limits Name input -- will not be validated.\n   ** Warning ** ProcessScheduleInput: Schedule:Year=\"SCHEDULE RULESET 109\", Blank Schedule Type Limits Name input -- will not be validated.\n   ** Warning ** ProcessScheduleInput: Schedule:Year=\"SCHEDULE RULESET 11\", Blank Schedule Type Limits Name input -- will not be validated.\n   ** Warning ** ProcessScheduleInput: Schedule:Year=\"SCHEDULE RULESET 110\", Blank Schedule Type Limits Name input -- will not be validated.\n   ** Warning ** ProcessScheduleInput: Schedule:Year=\"SCHEDULE RULESET 111\", Blank Schedule Type Limits Name input -- will not be validated.\n   ** Warning ** ProcessScheduleInput: Schedule:Year=\"SCHEDULE RULESET 112\", Blank Schedule Type Limits Name input -- will not be validated.\n   ** Warning ** ProcessScheduleInput: Schedule:Year=\"SCHEDULE RULESET 113\", Blank Schedule Type Limits Name input -- will not be validated.\n   ** Warning ** ProcessScheduleInput: Schedule:Year=\"SCHEDULE RULESET 114\", Blank Schedule Type Limits Name input -- will not be validated.\n   ** Warning ** ProcessScheduleInput: Schedule:Year=\"SCHEDULE RULESET 115\", Blank Schedule Type Limits Name input -- will not be validated.\n   ** Warning ** ProcessScheduleInput: Schedule:Year=\"SCHEDULE RULESET 116\", Blank Schedule Type Limits Name input -- will not be validated.\n   ** Warning ** ProcessScheduleInput: Schedule:Year=\"SCHEDULE RULESET 117\", Blank Schedule Type Limits Name input -- will not be validated.\n   ** Warning ** ProcessScheduleInput: Schedule:Year=\"SCHEDULE RULESET 118\", Blank Schedule Type Limits Name input -- will not be validated.\n   ** Warning ** ProcessScheduleInput: Schedule:Year=\"SCHEDULE RULESET 119\", Blank Schedule Type Limits Name input -- will not be validated.\n   ** Warning ** ProcessScheduleInput: Schedule:Year=\"SCHEDULE RULESET 12\", Blank Schedule Type Limits Name input -- will not be validated.\n   ** Warning ** ProcessScheduleInput: Schedule:Year=\"SCHEDULE RULESET 120\", Blank Schedule Type Limits Name input -- will not be validated.\n   ** Warning ** ProcessScheduleInput: Schedule:Year=\"SCHEDULE RULESET 121\", Blank Schedule Type Limits Name input -- will not be validated.\n   ** Warning ** ProcessScheduleInput: Schedule:Year=\"SCHEDULE RULESET 122\", Blank Schedule Type Limits Name input -- will not be validated.\n   ** Warning ** ProcessScheduleInput: Schedule:Year=\"SCHEDULE RULESET 123\", Blank Schedule Type Limits Name input -- will not be validated.\n   ** Warning ** ProcessScheduleInput: Schedule:Year=\"SCHEDULE RULESET 124\", Blank Schedule Type Limits Name input -- will not be validated.\n   ** Warning ** ProcessScheduleInput: Schedule:Year=\"SCHEDULE RULESET 125\", Blank Schedule Type Limits Name input -- will not be validated.\n   ** Warning ** ProcessScheduleInput: Schedule:Year=\"SCHEDULE RULESET 126\", Blank Schedule Type Limits Name input -- will not be validated.\n   ** Warning ** ProcessScheduleInput: Schedule:Year=\"SCHEDULE RULESET 127\", Blank Schedule Type Limits Name input -- will not be validated.\n   ** Warning ** ProcessScheduleInput: Schedule:Year=\"SCHEDULE RULESET 128\", Blank Schedule Type Limits Name input -- will not be validated.\n   ** Warning ** ProcessScheduleInput: Schedule:Year=\"SCHEDULE RULESET 129\", Blank Schedule Type Limits Name input -- will not be validated.\n   ** Warning ** ProcessScheduleInput: Schedule:Year=\"SCHEDULE RULESET 13\", Blank Schedule Type Limits Name input -- will not be validated.\n   ** Warning ** ProcessScheduleInput: Schedule:Year=\"SCHEDULE RULESET 130\", Blank Schedule Type Limits Name input -- will not be validated.\n   ** Warning ** ProcessScheduleInput: Schedule:Year=\"SCHEDULE RULESET 131\", Blank Schedule Type Limits Name input -- will not be validated.\n   ** Warning ** ProcessScheduleInput: Schedule:Year=\"SCHEDULE RULESET 132\", Blank Schedule Type Limits Name input -- will not be validated.\n   ** Warning ** ProcessScheduleInput: Schedule:Year=\"SCHEDULE RULESET 133\", Blank Schedule Type Limits Name input -- will not be validated.\n   ** Warning ** ProcessScheduleInput: Schedule:Year=\"SCHEDULE RULESET 134\", Blank Schedule Type Limits Name input -- will not be validated.\n   ** Warning ** ProcessScheduleInput: Schedule:Year=\"SCHEDULE RULESET 135\", Blank Schedule Type Limits Name input -- will not be validated.\n   ** Warning ** ProcessScheduleInput: Schedule:Year=\"SCHEDULE RULESET 136\", Blank Schedule Type Limits Name input -- will not be validated.\n   ** Warning ** ProcessScheduleInput: Schedule:Year=\"SCHEDULE RULESET 137\", Blank Schedule Type Limits Name input -- will not be validated.\n   ** Warning ** ProcessScheduleInput: Schedule:Year=\"SCHEDULE RULESET 138\", Blank Schedule Type Limits Name input -- will not be validated.\n   ** Warning ** ProcessScheduleInput: Schedule:Year=\"SCHEDULE RULESET 139\", Blank Schedule Type Limits Name input -- will not be validated.\n   ** Warning ** ProcessScheduleInput: Schedule:Year=\"SCHEDULE RULESET 14\", Blank Schedule Type Limits Name input -- will not be validated.\n   ** Warning ** ProcessScheduleInput: Schedule:Year=\"SCHEDULE RULESET 140\", Blank Schedule Type Limits Name input -- will not be validated.\n   ** Warning ** ProcessScheduleInput: Schedule:Year=\"SCHEDULE RULESET 141\", Blank Schedule Type Limits Name input -- will not be validated.\n   ** Warning ** ProcessScheduleInput: Schedule:Year=\"SCHEDULE RULESET 142\", Blank Schedule Type Limits Name input -- will not be validated.\n   ** Warning ** ProcessScheduleInput: Schedule:Year=\"SCHEDULE RULESET 143\", Blank Schedule Type Limits Name input -- will not be validated.\n   ** Warning ** ProcessScheduleInput: Schedule:Year=\"SCHEDULE RULESET 144\", Blank Schedule Type Limits Name input -- will not be validated.\n   ** Warning ** ProcessScheduleInput: Schedule:Year=\"SCHEDULE RULESET 145\", Blank Schedule Type Limits Name input -- will not be validated.\n   ** Warning ** ProcessScheduleInput: Schedule:Year=\"SCHEDULE RULESET 146\", Blank Schedule Type Limits Name input -- will not be validated.\n   ** Warning ** ProcessScheduleInput: Schedule:Year=\"SCHEDULE RULESET 15\", Blank Schedule Type Limits Name input -- will not be validated.\n   ** Warning ** ProcessScheduleInput: Schedule:Year=\"SCHEDULE RULESET 16\", Blank Schedule Type Limits Name input -- will not be validated.\n   ** Warning ** ProcessScheduleInput: Schedule:Year=\"SCHEDULE RULESET 17\", Blank Schedule Type Limits Name input -- will not be validated.\n   ** Warning ** ProcessScheduleInput: Schedule:Year=\"SCHEDULE RULESET 18\", Blank Schedule Type Limits Name input -- will not be validated.\n   ** Warning ** ProcessScheduleInput: Schedule:Year=\"SCHEDULE RULESET 19\", Blank Schedule Type Limits Name input -- will not be validated.\n   ** Warning ** ProcessScheduleInput: Schedule:Year=\"SCHEDULE RULESET 20\", Blank Schedule Type Limits Name input -- will not be validated.\n   ** Warning ** ProcessScheduleInput: Schedule:Year=\"SCHEDULE RULESET 21\", Blank Schedule Type Limits Name input -- will not be validated.\n   ** Warning ** ProcessScheduleInput: Schedule:Year=\"SCHEDULE RULESET 22\", Blank Schedule Type Limits Name input -- will not be validated.\n   ** Warning ** ProcessScheduleInput: Schedule:Year=\"SCHEDULE RULESET 23\", Blank Schedule Type Limits Name input -- will not be validated.\n   ** Warning ** ProcessScheduleInput: Schedule:Year=\"SCHEDULE RULESET 24\", Blank Schedule Type Limits Name input -- will not be validated.\n   ** Warning ** ProcessScheduleInput: Schedule:Year=\"SCHEDULE RULESET 25\", Blank Schedule Type Limits Name input -- will not be validated.\n   ** Warning ** ProcessScheduleInput: Schedule:Year=\"SCHEDULE RULESET 26\", Blank Schedule Type Limits Name input -- will not be validated.\n   ** Warning ** ProcessScheduleInput: Schedule:Year=\"SCHEDULE RULESET 27\", Blank Schedule Type Limits Name input -- will not be validated.\n   ** Warning ** ProcessScheduleInput: Schedule:Year=\"SCHEDULE RULESET 28\", Blank Schedule Type Limits Name input -- will not be validated.\n   ** Warning ** ProcessScheduleInput: Schedule:Year=\"SCHEDULE RULESET 29\", Blank Schedule Type Limits Name input -- will not be validated.\n   ** Warning ** ProcessScheduleInput: Schedule:Year=\"SCHEDULE RULESET 3\", Blank Schedule Type Limits Name input -- will not be validated.\n   ** Warning ** ProcessScheduleInput: Schedule:Year=\"SCHEDULE RULESET 30\", Blank Schedule Type Limits Name input -- will not be validated.\n   ** Warning ** ProcessScheduleInput: Schedule:Year=\"SCHEDULE RULESET 31\", Blank Schedule Type Limits Name input -- will not be validated.\n   ** Warning ** ProcessScheduleInput: Schedule:Year=\"SCHEDULE RULESET 32\", Blank Schedule Type Limits Name input -- will not be validated.\n   ** Warning ** ProcessScheduleInput: Schedule:Year=\"SCHEDULE RULESET 33\", Blank Schedule Type Limits Name input -- will not be validated.\n   ** Warning ** ProcessScheduleInput: Schedule:Year=\"SCHEDULE RULESET 34\", Blank Schedule Type Limits Name input -- will not be validated.\n   ** Warning ** ProcessScheduleInput: Schedule:Year=\"SCHEDULE RULESET 35\", Blank Schedule Type Limits Name input -- will not be validated.\n   ** Warning ** ProcessScheduleInput: Schedule:Year=\"SCHEDULE RULESET 36\", Blank Schedule Type Limits Name input -- will not be validated.\n   ** Warning ** ProcessScheduleInput: Schedule:Year=\"SCHEDULE RULESET 37\", Blank Schedule Type Limits Name input -- will not be validated.\n   ** Warning ** ProcessScheduleInput: Schedule:Year=\"SCHEDULE RULESET 38\", Blank Schedule Type Limits Name input -- will not be validated.\n   ** Warning ** ProcessScheduleInput: Schedule:Year=\"SCHEDULE RULESET 39\", Blank Schedule Type Limits Name input -- will not be validated.\n   ** Warning ** ProcessScheduleInput: Schedule:Year=\"SCHEDULE RULESET 4\", Blank Schedule Type Limits Name input -- will not be validated.\n   ** Warning ** ProcessScheduleInput: Schedule:Year=\"SCHEDULE RULESET 40\", Blank Schedule Type Limits Name input -- will not be validated.\n   ** Warning ** ProcessScheduleInput: Schedule:Year=\"SCHEDULE RULESET 41\", Blank Schedule Type Limits Name input -- will not be validated.\n   ** Warning ** ProcessScheduleInput: Schedule:Year=\"SCHEDULE RULESET 42\", Blank Schedule Type Limits Name input -- will not be validated.\n   ** Warning ** ProcessScheduleInput: Schedule:Year=\"SCHEDULE RULESET 43\", Blank Schedule Type Limits Name input -- will not be validated.\n   ** Warning ** ProcessScheduleInput: Schedule:Year=\"SCHEDULE RULESET 44\", Blank Schedule Type Limits Name input -- will not be validated.\n   ** Warning ** ProcessScheduleInput: Schedule:Year=\"SCHEDULE RULESET 45\", Blank Schedule Type Limits Name input -- will not be validated.\n   ** Warning ** ProcessScheduleInput: Schedule:Year=\"SCHEDULE RULESET 46\", Blank Schedule Type Limits Name input -- will not be validated.\n   ** Warning ** ProcessScheduleInput: Schedule:Year=\"SCHEDULE RULESET 47\", Blank Schedule Type Limits Name input -- will not be validated.\n   ** Warning ** ProcessScheduleInput: Schedule:Year=\"SCHEDULE RULESET 48\", Blank Schedule Type Limits Name input -- will not be validated.\n   ** Warning ** ProcessScheduleInput: Schedule:Year=\"SCHEDULE RULESET 49\", Blank Schedule Type Limits Name input -- will not be validated.\n   ** Warning ** ProcessScheduleInput: Schedule:Year=\"SCHEDULE RULESET 5\", Blank Schedule Type Limits Name input -- will not be validated.\n   ** Warning ** ProcessScheduleInput: Schedule:Year=\"SCHEDULE RULESET 50\", Blank Schedule Type Limits Name input -- will not be validated.\n   ** Warning ** ProcessScheduleInput: Schedule:Year=\"SCHEDULE RULESET 51\", Blank Schedule Type Limits Name input -- will not be validated.\n   ** Warning ** ProcessScheduleInput: Schedule:Year=\"SCHEDULE RULESET 52\", Blank Schedule Type Limits Name input -- will not be validated.\n   ** Warning ** ProcessScheduleInput: Schedule:Year=\"SCHEDULE RULESET 53\", Blank Schedule Type Limits Name input -- will not be validated.\n   ** Warning ** ProcessScheduleInput: Schedule:Year=\"SCHEDULE RULESET 54\", Blank Schedule Type Limits Name input -- will not be validated.\n   ** Warning ** ProcessScheduleInput: Schedule:Year=\"SCHEDULE RULESET 55\", Blank Schedule Type Limits Name input -- will not be validated.\n   ** Warning ** ProcessScheduleInput: Schedule:Year=\"SCHEDULE RULESET 56\", Blank Schedule Type Limits Name input -- will not be validated.\n   ** Warning ** ProcessScheduleInput: Schedule:Year=\"SCHEDULE RULESET 57\", Blank Schedule Type Limits Name input -- will not be validated.\n   ** Warning ** ProcessScheduleInput: Schedule:Year=\"SCHEDULE RULESET 58\", Blank Schedule Type Limits Name input -- will not be validated.\n   ** Warning ** ProcessScheduleInput: Schedule:Year=\"SCHEDULE RULESET 59\", Blank Schedule Type Limits Name input -- will not be validated.\n   ** Warning ** ProcessScheduleInput: Schedule:Year=\"SCHEDULE RULESET 6\", Blank Schedule Type Limits Name input -- will not be validated.\n   ** Warning ** ProcessScheduleInput: Schedule:Year=\"SCHEDULE RULESET 60\", Blank Schedule Type Limits Name input -- will not be validated.\n   ** Warning ** ProcessScheduleInput: Schedule:Year=\"SCHEDULE RULESET 61\", Blank Schedule Type Limits Name input -- will not be validated.\n   ** Warning ** ProcessScheduleInput: Schedule:Year=\"SCHEDULE RULESET 62\", Blank Schedule Type Limits Name input -- will not be validated.\n   ** Warning ** ProcessScheduleInput: Schedule:Year=\"SCHEDULE RULESET 63\", Blank Schedule Type Limits Name input -- will not be validated.\n   ** Warning ** ProcessScheduleInput: Schedule:Year=\"SCHEDULE RULESET 64\", Blank Schedule Type Limits Name input -- will not be validated.\n   ** Warning ** ProcessScheduleInput: Schedule:Year=\"SCHEDULE RULESET 65\", Blank Schedule Type Limits Name input -- will not be validated.\n   ** Warning ** ProcessScheduleInput: Schedule:Year=\"SCHEDULE RULESET 66\", Blank Schedule Type Limits Name input -- will not be validated.\n   ** Warning ** ProcessScheduleInput: Schedule:Year=\"SCHEDULE RULESET 67\", Blank Schedule Type Limits Name input -- will not be validated.\n   ** Warning ** ProcessScheduleInput: Schedule:Year=\"SCHEDULE RULESET 68\", Blank Schedule Type Limits Name input -- will not be validated.\n   ** Warning ** ProcessScheduleInput: Schedule:Year=\"SCHEDULE RULESET 69\", Blank Schedule Type Limits Name input -- will not be validated.\n   ** Warning ** ProcessScheduleInput: Schedule:Year=\"SCHEDULE RULESET 7\", Blank Schedule Type Limits Name input -- will not be validated.\n   ** Warning ** ProcessScheduleInput: Schedule:Year=\"SCHEDULE RULESET 70\", Blank Schedule Type Limits Name input -- will not be validated.\n   ** Warning ** ProcessScheduleInput: Schedule:Year=\"SCHEDULE RULESET 71\", Blank Schedule Type Limits Name input -- will not be validated.\n   ** Warning ** ProcessScheduleInput: Schedule:Year=\"SCHEDULE RULESET 72\", Blank Schedule Type Limits Name input -- will not be validated.\n   ** Warning ** ProcessScheduleInput: Schedule:Year=\"SCHEDULE RULESET 73\", Blank Schedule Type Limits Name input -- will not be validated.\n   ** Warning ** ProcessScheduleInput: Schedule:Year=\"SCHEDULE RULESET 74\", Blank Schedule Type Limits Name input -- will not be validated.\n   ** Warning ** ProcessScheduleInput: Schedule:Year=\"SCHEDULE RULESET 75\", Blank Schedule Type Limits Name input -- will not be validated.\n   ** Warning ** ProcessScheduleInput: Schedule:Year=\"SCHEDULE RULESET 76\", Blank Schedule Type Limits Name input -- will not be validated.\n   ** Warning ** ProcessScheduleInput: Schedule:Year=\"SCHEDULE RULESET 77\", Blank Schedule Type Limits Name input -- will not be validated.\n   ** Warning ** ProcessScheduleInput: Schedule:Year=\"SCHEDULE RULESET 78\", Blank Schedule Type Limits Name input -- will not be validated.\n   ** Warning ** ProcessScheduleInput: Schedule:Year=\"SCHEDULE RULESET 79\", Blank Schedule Type Limits Name input -- will not be validated.\n   ** Warning ** ProcessScheduleInput: Schedule:Year=\"SCHEDULE RULESET 8\", Blank Schedule Type Limits Name input -- will not be validated.\n   ** Warning ** ProcessScheduleInput: Schedule:Year=\"SCHEDULE RULESET 80\", Blank Schedule Type Limits Name input -- will not be validated.\n   ** Warning ** ProcessScheduleInput: Schedule:Year=\"SCHEDULE RULESET 81\", Blank Schedule Type Limits Name input -- will not be validated.\n   ** Warning ** ProcessScheduleInput: Schedule:Year=\"SCHEDULE RULESET 82\", Blank Schedule Type Limits Name input -- will not be validated.\n   ** Warning ** ProcessScheduleInput: Schedule:Year=\"SCHEDULE RULESET 83\", Blank Schedule Type Limits Name input -- will not be validated.\n   ** Warning ** ProcessScheduleInput: Schedule:Year=\"SCHEDULE RULESET 84\", Blank Schedule Type Limits Name input -- will not be validated.\n   ** Warning ** ProcessScheduleInput: Schedule:Year=\"SCHEDULE RULESET 85\", Blank Schedule Type Limits Name input -- will not be validated.\n   ** Warning ** ProcessScheduleInput: Schedule:Year=\"SCHEDULE RULESET 86\", Blank Schedule Type Limits Name input -- will not be validated.\n   ** Warning ** ProcessScheduleInput: Schedule:Year=\"SCHEDULE RULESET 87\", Blank Schedule Type Limits Name input -- will not be validated.\n   ** Warning ** ProcessScheduleInput: Schedule:Year=\"SCHEDULE RULESET 88\", Blank Schedule Type Limits Name input -- will not be validated.\n   ** Warning ** ProcessScheduleInput: Schedule:Year=\"SCHEDULE RULESET 89\", Blank Schedule Type Limits Name input -- will not be validated.\n   ** Warning ** ProcessScheduleInput: Schedule:Year=\"SCHEDULE RULESET 9\", Blank Schedule Type Limits Name input -- will not be validated.\n   ** Warning ** ProcessScheduleInput: Schedule:Year=\"SCHEDULE RULESET 90\", Blank Schedule Type Limits Name input -- will not be validated.\n   ** Warning ** ProcessScheduleInput: Schedule:Year=\"SCHEDULE RULESET 91\", Blank Schedule Type Limits Name input -- will not be validated.\n   ** Warning ** ProcessScheduleInput: Schedule:Year=\"SCHEDULE RULESET 92\", Blank Schedule Type Limits Name input -- will not be validated.\n   ** Warning ** ProcessScheduleInput: Schedule:Year=\"SCHEDULE RULESET 93\", Blank Schedule Type Limits Name input -- will not be validated.\n   ** Warning ** ProcessScheduleInput: Schedule:Year=\"SCHEDULE RULESET 94\", Blank Schedule Type Limits Name input -- will not be validated.\n   ** Warning ** ProcessScheduleInput: Schedule:Year=\"SCHEDULE RULESET 95\", Blank Schedule Type Limits Name input -- will not be validated.\n   ** Warning ** ProcessScheduleInput: Schedule:Year=\"SCHEDULE RULESET 96\", Blank Schedule Type Limits Name input -- will not be validated.\n   ** Warning ** ProcessScheduleInput: Schedule:Year=\"SCHEDULE RULESET 97\", Blank Schedule Type Limits Name input -- will not be validated.\n   ** Warning ** ProcessScheduleInput: Schedule:Year=\"SCHEDULE RULESET 98\", Blank Schedule Type Limits Name input -- will not be validated.\n   ** Warning ** ProcessScheduleInput: Schedule:Year=\"SCHEDULE RULESET 99\", Blank Schedule Type Limits Name input -- will not be validated.\n   ** Warning ** ProcessScheduleInput: Schedule:Constant=\"ALWAYS OFF DISCRETE\", Blank Schedule Type Limits Name input -- will not be validated.\n   ** Warning ** ProcessScheduleInput: Schedule:Constant=\"ALWAYS ON CONTINUOUS\", Blank Schedule Type Limits Name input -- will not be validated.\n   ** Warning ** CheckUsedConstructions: There are 24 nominally unused constructions in input.\n   **   ~~~   ** For explicit details on each unused construction, use Output:Diagnostics,DisplayExtraWarnings;\n   ** Warning ** GetInternalHeatGains: People Combination of ZoneList and Object Name generate a name too long.\n   **   ~~~   ** Object Name=\"SPACE FUNCTION ELECTRICAL/MECHANICAL-SCH-F PEOPLE\".\n   **   ~~~   ** ZoneList/Zone Name=\"SP-MECHANICALROOMFLR1 SYS-3 FLR-2 SCH-F HPLCMT-SOUTH ZN\".\n   **   ~~~   ** Item length=[104] > Maximum Length=[100]. You may need to shorten the names.\n   **   ~~~   ** Shortening the Object Name by [5] characters will assure uniqueness for this ZoneList.\n   **   ~~~   ** name that will be used (may be needed in reporting)=\"SP-MECHANICALROOMFLR1 SYS-3 FLR-2 SCH-F HPLCMT-SOUTH ZN SPACE FUNCTION ELECTRICAL/MECHANICAL-SCH-F PEOPLE\".\n   ** Warning ** GetInternalHeatGains: People Combination of ZoneList and Object Name generate a name too long.\n   **   ~~~   ** Object Name=\"SPACE FUNCTION ELECTRICAL/MECHANICAL-SCH-F PEOPLE\".\n   **   ~~~   ** ZoneList/Zone Name=\"SP-MEETINGROOMFLR1 SYS-3 FLR-2 SCH-F HPLCMT-SOUTH ZN\".\n   **   ~~~   ** Item length=[101] > Maximum Length=[100]. You may need to shorten the names.\n   **   ~~~   ** Shortening the Object Name by [5] characters will assure uniqueness for this ZoneList.\n   **   ~~~   ** name that will be used (may be needed in reporting)=\"SP-MEETINGROOMFLR1 SYS-3 FLR-2 SCH-F HPLCMT-SOUTH ZN SPACE FUNCTION ELECTRICAL/MECHANICAL-SCH-F PEOPLE\".\n   ** Warning ** GetInternalHeatGains: Lights Combination of ZoneList and Object Name generate a name too long.\n   **   ~~~   ** Object Name=\"SPACE FUNCTION ELECTRICAL/MECHANICAL-SCH-F LIGHTS\".\n   **   ~~~   ** ZoneList/Zone Name=\"SP-MECHANICALROOMFLR1 SYS-3 FLR-2 SCH-F HPLCMT-SOUTH ZN\".\n   **   ~~~   ** Item length=[104] > Maximum Length=[100]. You may need to shorten the names.\n   **   ~~~   ** Shortening the Object Name by [5] characters will assure uniqueness for this ZoneList.\n   **   ~~~   ** name that will be used (may be needed in reporting)=\"SP-MECHANICALROOMFLR1 SYS-3 FLR-2 SCH-F HPLCMT-SOUTH ZN SPACE FUNCTION ELECTRICAL/MECHANICAL-SCH-F LIGHTS\".\n   ** Warning ** GetInternalHeatGains: Lights Combination of ZoneList and Object Name generate a name too long.\n   **   ~~~   ** Object Name=\"SPACE FUNCTION ELECTRICAL/MECHANICAL-SCH-F LIGHTS\".\n   **   ~~~   ** ZoneList/Zone Name=\"SP-MEETINGROOMFLR1 SYS-3 FLR-2 SCH-F HPLCMT-SOUTH ZN\".\n   **   ~~~   ** Item length=[101] > Maximum Length=[100]. You may need to shorten the names.\n   **   ~~~   ** Shortening the Object Name by [5] characters will assure uniqueness for this ZoneList.\n   **   ~~~   ** name that will be used (may be needed in reporting)=\"SP-MEETINGROOMFLR1 SYS-3 FLR-2 SCH-F HPLCMT-SOUTH ZN SPACE FUNCTION ELECTRICAL/MECHANICAL-SCH-F LIGHTS\".\n   ** Warning ** GetInternalHeatGains: ElectricEquipment Combination of ZoneList and Object Name generate a name too long.\n   **   ~~~   ** Object Name=\"SPACE FUNCTION ELECTRICAL/MECHANICAL-SCH-F ELEC EQUIP\".\n   **   ~~~   ** ZoneList/Zone Name=\"SP-MECHANICALROOMFLR1 SYS-3 FLR-2 SCH-F HPLCMT-SOUTH ZN\".\n   **   ~~~   ** Item length=[108] > Maximum Length=[100]. You may need to shorten the names.\n   **   ~~~   ** Shortening the Object Name by [9] characters will assure uniqueness for this ZoneList.\n   **   ~~~   ** name that will be used (may be needed in reporting)=\"SP-MECHANICALROOMFLR1 SYS-3 FLR-2 SCH-F HPLCMT-SOUTH ZN SPACE FUNCTION ELECTRICAL/MECHANICAL-SCH-F ELEC EQUIP\".\n   ** Warning ** GetInternalHeatGains: ElectricEquipment Combination of ZoneList and Object Name generate a name too long.\n   **   ~~~   ** Object Name=\"SPACE FUNCTION ELECTRICAL/MECHANICAL-SCH-F ELEC EQUIP\".\n   **   ~~~   ** ZoneList/Zone Name=\"SP-MEETINGROOMFLR1 SYS-3 FLR-2 SCH-F HPLCMT-SOUTH ZN\".\n   **   ~~~   ** Item length=[105] > Maximum Length=[100]. You may need to shorten the names.\n   **   ~~~   ** Shortening the Object Name by [9] characters will assure uniqueness for this ZoneList.\n   **   ~~~   ** name that will be used (may be needed in reporting)=\"SP-MEETINGROOMFLR1 SYS-3 FLR-2 SCH-F HPLCMT-SOUTH ZN SPACE FUNCTION ELECTRICAL/MECHANICAL-SCH-F ELEC EQUIP\".\n   ** Warning ** GetInternalHeatGains: ElectricEquipment Combination of ZoneList and Object Name generate a name too long.\n   **   ~~~   ** Object Name=\"SPACE FUNCTION STORAGE AREA - OCCSENS ELEC EQUIP\".\n   **   ~~~   ** ZoneList/Zone Name=\"SP-FRONTSTORAGEFLR1 SYS-4 FLR-2 SCH-E HPLCMT-NORTH ZN\".\n   **   ~~~   ** Item length=[101] > Maximum Length=[100]. You may need to shorten the names.\n   **   ~~~   ** Shortening the Object Name by [2] characters will assure uniqueness for this ZoneList.\n   **   ~~~   ** name that will be used (may be needed in reporting)=\"SP-FRONTSTORAGEFLR1 SYS-4 FLR-2 SCH-E HPLCMT-NORTH ZN SPACE FUNCTION STORAGE AREA - OCCSENS ELEC EQUIP\".\n   ** Warning ** GetInternalHeatGains: ElectricEquipment Combination of ZoneList and Object Name generate a name too long.\n   **   ~~~   ** Object Name=\"SPACE FUNCTION STORAGE AREA - OCCSENS ELEC EQUIP\".\n   **   ~~~   ** ZoneList/Zone Name=\"SP-FRONTSTORAGEFLR2 SYS-4 FLR-1 SCH-E HPLCMT-NORTH ZN\".\n   **   ~~~   ** Item length=[101] > Maximum Length=[100]. You may need to shorten the names.\n   **   ~~~   ** Shortening the Object Name by [2] characters will assure uniqueness for this ZoneList.\n   **   ~~~   ** name that will be used (may be needed in reporting)=\"SP-FRONTSTORAGEFLR2 SYS-4 FLR-1 SCH-E HPLCMT-NORTH ZN SPACE FUNCTION STORAGE AREA - OCCSENS ELEC EQUIP\".\n   ** Warning ** GetInternalHeatGains: ElectricEquipment Combination of ZoneList and Object Name generate a name too long.\n   **   ~~~   ** Object Name=\"SPACE FUNCTION STORAGE AREA - OCCSENS ELEC EQUIP\".\n   **   ~~~   ** ZoneList/Zone Name=\"SP-FRONTSTORAGEFLR3 SYS-4 FLR-4 SCH-E HPLCMT-NORTH ZN\".\n   **   ~~~   ** Item length=[101] > Maximum Length=[100]. You may need to shorten the names.\n   **   ~~~   ** Shortening the Object Name by [2] characters will assure uniqueness for this ZoneList.\n   **   ~~~   ** name that will be used (may be needed in reporting)=\"SP-FRONTSTORAGEFLR3 SYS-4 FLR-4 SCH-E HPLCMT-NORTH ZN SPACE FUNCTION STORAGE AREA - OCCSENS ELEC EQUIP\".\n   ** Warning ** GetInternalHeatGains: ElectricEquipment Combination of ZoneList and Object Name generate a name too long.\n   **   ~~~   ** Object Name=\"SPACE FUNCTION STORAGE AREA - OCCSENS ELEC EQUIP\".\n   **   ~~~   ** ZoneList/Zone Name=\"SP-FRONTSTORAGEFLR4 SYS-4 FLR-3 SCH-E HPLCMT-NORTH ZN\".\n   **   ~~~   ** Item length=[101] > Maximum Length=[100]. You may need to shorten the names.\n   **   ~~~   ** Shortening the Object Name by [2] characters will assure uniqueness for this ZoneList.\n   **   ~~~   ** name that will be used (may be needed in reporting)=\"SP-FRONTSTORAGEFLR4 SYS-4 FLR-3 SCH-E HPLCMT-NORTH ZN SPACE FUNCTION STORAGE AREA - OCCSENS ELEC EQUIP\".\n   ************* Beginning System Sizing Calculations\n   ** Warning ** GetDXCoils: Coil:Cooling:DX:SingleSpeed=\"COIL COOLING DX SINGLE SPEED 7 5KBTU/HR 11.0EER\", invalid\n   **   ~~~   ** ...Part Load Fraction Correlation Curve Name = DXCOOL-NECB2011-REF-COOLPLFFPLR 63 has out of range value.\n   **   ~~~   ** ...Curve maximum must be <= 1.0, curve max at PLR = 0.99 is 1.015\n   **   ~~~   ** ...Setting curve maximum to 1.0 and simulation continues.\n   ** Warning ** GetDXCoils: Coil:Cooling:DX:SingleSpeed=\"COIL COOLING DX SINGLE SPEED 37 5KBTU/HR 11.0EER\", invalid\n   **   ~~~   ** ...Part Load Fraction Correlation Curve Name = DXCOOL-NECB2011-REF-COOLPLFFPLR 30 has out of range value.\n   **   ~~~   ** ...Curve maximum must be <= 1.0, curve max at PLR = 0.99 is 1.015\n   **   ~~~   ** ...Setting curve maximum to 1.0 and simulation continues.\n   ** Warning ** GetDXCoils: Coil:Cooling:DX:SingleSpeed=\"COIL COOLING DX SINGLE SPEED 25 17KBTU/HR 9.3EER\", invalid\n   **   ~~~   ** ...Part Load Fraction Correlation Curve Name = DXCOOL-NECB2011-REF-COOLPLFFPLR 17 has out of range value.\n   **   ~~~   ** ...Curve maximum must be <= 1.0, curve max at PLR = 0.99 is 1.015\n   **   ~~~   ** ...Setting curve maximum to 1.0 and simulation continues.\n   ** Warning ** GetDXCoils: Coil:Cooling:DX:SingleSpeed=\"COIL COOLING DX SINGLE SPEED 17 2KBTU/HR 11.0EER\", invalid\n   **   ~~~   ** ...Part Load Fraction Correlation Curve Name = DXCOOL-NECB2011-REF-COOLPLFFPLR 8 has out of range value.\n   **   ~~~   ** ...Curve maximum must be <= 1.0, curve max at PLR = 0.99 is 1.015\n   **   ~~~   ** ...Setting curve maximum to 1.0 and simulation continues.\n   ** Warning ** GetDXCoils: Coil:Cooling:DX:SingleSpeed=\"COIL COOLING DX SINGLE SPEED 18 2KBTU/HR 11.0EER\", invalid\n   **   ~~~   ** ...Part Load Fraction Correlation Curve Name = DXCOOL-NECB2011-REF-COOLPLFFPLR 9 has out of range value.\n   **   ~~~   ** ...Curve maximum must be <= 1.0, curve max at PLR = 0.99 is 1.015\n   **   ~~~   ** ...Setting curve maximum to 1.0 and simulation continues.\n   ** Warning ** GetDXCoils: Coil:Cooling:DX:SingleSpeed=\"COIL COOLING DX SINGLE SPEED 19 2KBTU/HR 11.0EER\", invalid\n   **   ~~~   ** ...Part Load Fraction Correlation Curve Name = DXCOOL-NECB2011-REF-COOLPLFFPLR 10 has out of range value.\n   **   ~~~   ** ...Curve maximum must be <= 1.0, curve max at PLR = 0.99 is 1.015\n   **   ~~~   ** ...Setting curve maximum to 1.0 and simulation continues.\n   ** Warning ** GetDXCoils: Coil:Cooling:DX:SingleSpeed=\"COIL COOLING DX SINGLE SPEED 14 2KBTU/HR 11.0EER\", invalid\n   **   ~~~   ** ...Part Load Fraction Correlation Curve Name = DXCOOL-NECB2011-REF-COOLPLFFPLR 5 has out of range value.\n   **   ~~~   ** ...Curve maximum must be <= 1.0, curve max at PLR = 0.99 is 1.015\n   **   ~~~   ** ...Setting curve maximum to 1.0 and simulation continues.\n   ** Warning ** GetDXCoils: Coil:Cooling:DX:SingleSpeed=\"COIL COOLING DX SINGLE SPEED 15 2KBTU/HR 11.0EER\", invalid\n   **   ~~~   ** ...Part Load Fraction Correlation Curve Name = DXCOOL-NECB2011-REF-COOLPLFFPLR 6 has out of range value.\n   **   ~~~   ** ...Curve maximum must be <= 1.0, curve max at PLR = 0.99 is 1.015\n   **   ~~~   ** ...Setting curve maximum to 1.0 and simulation continues.\n   ** Warning ** GetDXCoils: Coil:Cooling:DX:SingleSpeed=\"COIL COOLING DX SINGLE SPEED 9 3KBTU/HR 11.0EER\", invalid\n   **   ~~~   ** ...Part Load Fraction Correlation Curve Name = DXCOOL-NECB2011-REF-COOLPLFFPLR 65 has out of range value.\n   **   ~~~   ** ...Curve maximum must be <= 1.0, curve max at PLR = 0.99 is 1.015\n   **   ~~~   ** ...Setting curve maximum to 1.0 and simulation continues.\n   ** Warning ** GetDXCoils: Coil:Cooling:DX:SingleSpeed=\"COIL COOLING DX SINGLE SPEED 11 6KBTU/HR 11.0EER\", invalid\n   **   ~~~   ** ...Part Load Fraction Correlation Curve Name = DXCOOL-NECB2011-REF-COOLPLFFPLR 2 has out of range value.\n   **   ~~~   ** ...Curve maximum must be <= 1.0, curve max at PLR = 0.99 is 1.015\n   **   ~~~   ** ...Setting curve maximum to 1.0 and simulation continues.\n   ** Warning ** GetDXCoils: Coil:Cooling:DX:SingleSpeed=\"COIL COOLING DX SINGLE SPEED 13 5KBTU/HR 11.0EER\", invalid\n   **   ~~~   ** ...Part Load Fraction Correlation Curve Name = DXCOOL-NECB2011-REF-COOLPLFFPLR 4 has out of range value.\n   **   ~~~   ** ...Curve maximum must be <= 1.0, curve max at PLR = 0.99 is 1.015\n   **   ~~~   ** ...Setting curve maximum to 1.0 and simulation continues.\n   ** Warning ** GetDXCoils: Coil:Cooling:DX:SingleSpeed=\"COIL COOLING DX SINGLE SPEED 12 6KBTU/HR 11.0EER\", invalid\n   **   ~~~   ** ...Part Load Fraction Correlation Curve Name = DXCOOL-NECB2011-REF-COOLPLFFPLR 3 has out of range value.\n   **   ~~~   ** ...Curve maximum must be <= 1.0, curve max at PLR = 0.99 is 1.015\n   **   ~~~   ** ...Setting curve maximum to 1.0 and simulation continues.\n   ** Warning ** GetDXCoils: Coil:Cooling:DX:SingleSpeed=\"COIL COOLING DX SINGLE SPEED 10 2KBTU/HR 11.0EER\", invalid\n   **   ~~~   ** ...Part Load Fraction Correlation Curve Name = DXCOOL-NECB2011-REF-COOLPLFFPLR 1 has out of range value.\n   **   ~~~   ** ...Curve maximum must be <= 1.0, curve max at PLR = 0.99 is 1.015\n   **   ~~~   ** ...Setting curve maximum to 1.0 and simulation continues.\n   ** Warning ** GetDXCoils: Coil:Cooling:DX:SingleSpeed=\"COIL COOLING DX SINGLE SPEED 5 2KBTU/HR 11.0EER\", invalid\n   **   ~~~   ** ...Part Load Fraction Correlation Curve Name = DXCOOL-NECB2011-REF-COOLPLFFPLR 44 has out of range value.\n   **   ~~~   ** ...Curve maximum must be <= 1.0, curve max at PLR = 0.99 is 1.015\n   **   ~~~   ** ...Setting curve maximum to 1.0 and simulation continues.\n   ** Warning ** GetDXCoils: Coil:Cooling:DX:SingleSpeed=\"COIL COOLING DX SINGLE SPEED 6 7KBTU/HR 11.0EER\", invalid\n   **   ~~~   ** ...Part Load Fraction Correlation Curve Name = DXCOOL-NECB2011-REF-COOLPLFFPLR 55 has out of range value.\n   **   ~~~   ** ...Curve maximum must be <= 1.0, curve max at PLR = 0.99 is 1.015\n   **   ~~~   ** ...Setting curve maximum to 1.0 and simulation continues.\n   ** Warning ** GetDXCoils: Coil:Cooling:DX:SingleSpeed=\"COIL COOLING DX SINGLE SPEED 3 2KBTU/HR 11.0EER\", invalid\n   **   ~~~   ** ...Part Load Fraction Correlation Curve Name = DXCOOL-NECB2011-REF-COOLPLFFPLR 22 has out of range value.\n   **   ~~~   ** ...Curve maximum must be <= 1.0, curve max at PLR = 0.99 is 1.015\n   **   ~~~   ** ...Setting curve maximum to 1.0 and simulation continues.\n   ** Warning ** GetDXCoils: Coil:Cooling:DX:SingleSpeed=\"COIL COOLING DX SINGLE SPEED 2 7KBTU/HR 11.0EER\", invalid\n   **   ~~~   ** ...Part Load Fraction Correlation Curve Name = DXCOOL-NECB2011-REF-COOLPLFFPLR 11 has out of range value.\n   **   ~~~   ** ...Curve maximum must be <= 1.0, curve max at PLR = 0.99 is 1.015\n   **   ~~~   ** ...Setting curve maximum to 1.0 and simulation continues.\n   ** Warning ** GetDXCoils: Coil:Cooling:DX:SingleSpeed=\"COIL COOLING DX SINGLE SPEED 4 2KBTU/HR 11.0EER\", invalid\n   **   ~~~   ** ...Part Load Fraction Correlation Curve Name = DXCOOL-NECB2011-REF-COOLPLFFPLR 33 has out of range value.\n   **   ~~~   ** ...Curve maximum must be <= 1.0, curve max at PLR = 0.99 is 1.015\n   **   ~~~   ** ...Setting curve maximum to 1.0 and simulation continues.\n   ** Warning ** GetDXCoils: Coil:Cooling:DX:SingleSpeed=\"COIL COOLING DX SINGLE SPEED 39 4KBTU/HR 11.0EER\", invalid\n   **   ~~~   ** ...Part Load Fraction Correlation Curve Name = DXCOOL-NECB2011-REF-COOLPLFFPLR 32 has out of range value.\n   **   ~~~   ** ...Curve maximum must be <= 1.0, curve max at PLR = 0.99 is 1.015\n   **   ~~~   ** ...Setting curve maximum to 1.0 and simulation continues.\n   ** Warning ** GetDXCoils: Coil:Cooling:DX:SingleSpeed=\"COIL COOLING DX SINGLE SPEED 40 6KBTU/HR 11.0EER\", invalid\n   **   ~~~   ** ...Part Load Fraction Correlation Curve Name = DXCOOL-NECB2011-REF-COOLPLFFPLR 34 has out of range value.\n   **   ~~~   ** ...Curve maximum must be <= 1.0, curve max at PLR = 0.99 is 1.015\n   **   ~~~   ** ...Setting curve maximum to 1.0 and simulation continues.\n   ** Warning ** GetDXCoils: Coil:Cooling:DX:SingleSpeed=\"COIL COOLING DX SINGLE SPEED 42 5KBTU/HR 11.0EER\", invalid\n   **   ~~~   ** ...Part Load Fraction Correlation Curve Name = DXCOOL-NECB2011-REF-COOLPLFFPLR 36 has out of range value.\n   **   ~~~   ** ...Curve maximum must be <= 1.0, curve max at PLR = 0.99 is 1.015\n   **   ~~~   ** ...Setting curve maximum to 1.0 and simulation continues.\n   ** Warning ** GetDXCoils: Coil:Cooling:DX:SingleSpeed=\"COIL COOLING DX SINGLE SPEED 43 6KBTU/HR 11.0EER\", invalid\n   **   ~~~   ** ...Part Load Fraction Correlation Curve Name = DXCOOL-NECB2011-REF-COOLPLFFPLR 37 has out of range value.\n   **   ~~~   ** ...Curve maximum must be <= 1.0, curve max at PLR = 0.99 is 1.015\n   **   ~~~   ** ...Setting curve maximum to 1.0 and simulation continues.\n   ** Warning ** GetDXCoils: Coil:Cooling:DX:SingleSpeed=\"COIL COOLING DX SINGLE SPEED 41 2KBTU/HR 11.0EER\", invalid\n   **   ~~~   ** ...Part Load Fraction Correlation Curve Name = DXCOOL-NECB2011-REF-COOLPLFFPLR 35 has out of range value.\n   **   ~~~   ** ...Curve maximum must be <= 1.0, curve max at PLR = 0.99 is 1.015\n   **   ~~~   ** ...Setting curve maximum to 1.0 and simulation continues.\n   ** Warning ** GetDXCoils: Coil:Cooling:DX:SingleSpeed=\"COIL COOLING DX SINGLE SPEED 34 2KBTU/HR 11.0EER\", invalid\n   **   ~~~   ** ...Part Load Fraction Correlation Curve Name = DXCOOL-NECB2011-REF-COOLPLFFPLR 27 has out of range value.\n   **   ~~~   ** ...Curve maximum must be <= 1.0, curve max at PLR = 0.99 is 1.015\n   **   ~~~   ** ...Setting curve maximum to 1.0 and simulation continues.\n   ** Warning ** GetDXCoils: Coil:Cooling:DX:SingleSpeed=\"COIL COOLING DX SINGLE SPEED 36 7KBTU/HR 11.0EER\", invalid\n   **   ~~~   ** ...Part Load Fraction Correlation Curve Name = DXCOOL-NECB2011-REF-COOLPLFFPLR 29 has out of range value.\n   **   ~~~   ** ...Curve maximum must be <= 1.0, curve max at PLR = 0.99 is 1.015\n   **   ~~~   ** ...Setting curve maximum to 1.0 and simulation continues.\n   ** Warning ** GetDXCoils: Coil:Cooling:DX:SingleSpeed=\"COIL COOLING DX SINGLE SPEED 35 2KBTU/HR 11.0EER\", invalid\n   **   ~~~   ** ...Part Load Fraction Correlation Curve Name = DXCOOL-NECB2011-REF-COOLPLFFPLR 28 has out of range value.\n   **   ~~~   ** ...Curve maximum must be <= 1.0, curve max at PLR = 0.99 is 1.015\n   **   ~~~   ** ...Setting curve maximum to 1.0 and simulation continues.\n   ** Warning ** GetDXCoils: Coil:Cooling:DX:SingleSpeed=\"COIL COOLING DX SINGLE SPEED 33 7KBTU/HR 11.0EER\", invalid\n   **   ~~~   ** ...Part Load Fraction Correlation Curve Name = DXCOOL-NECB2011-REF-COOLPLFFPLR 26 has out of range value.\n   **   ~~~   ** ...Curve maximum must be <= 1.0, curve max at PLR = 0.99 is 1.015\n   **   ~~~   ** ...Setting curve maximum to 1.0 and simulation continues.\n   ** Warning ** GetDXCoils: Coil:Cooling:DX:SingleSpeed=\"COIL COOLING DX SINGLE SPEED 32 2KBTU/HR 11.0EER\", invalid\n   **   ~~~   ** ...Part Load Fraction Correlation Curve Name = DXCOOL-NECB2011-REF-COOLPLFFPLR 25 has out of range value.\n   **   ~~~   ** ...Curve maximum must be <= 1.0, curve max at PLR = 0.99 is 1.015\n   **   ~~~   ** ...Setting curve maximum to 1.0 and simulation continues.\n   ** Warning ** GetDXCoils: Coil:Cooling:DX:SingleSpeed=\"COIL COOLING DX SINGLE SPEED 27 7KBTU/HR 10.9EER\", invalid\n   **   ~~~   ** ...Part Load Fraction Correlation Curve Name = DXCOOL-NECB2011-REF-COOLPLFFPLR 19 has out of range value.\n   **   ~~~   ** ...Curve maximum must be <= 1.0, curve max at PLR = 0.99 is 1.015\n   **   ~~~   ** ...Setting curve maximum to 1.0 and simulation continues.\n   ** Warning ** GetDXCoils: Coil:Cooling:DX:SingleSpeed=\"COIL COOLING DX SINGLE SPEED 28 18KBTU/HR 9.3EER\", invalid\n   **   ~~~   ** ...Part Load Fraction Correlation Curve Name = DXCOOL-NECB2011-REF-COOLPLFFPLR 20 has out of range value.\n   **   ~~~   ** ...Curve maximum must be <= 1.0, curve max at PLR = 0.99 is 1.015\n   **   ~~~   ** ...Setting curve maximum to 1.0 and simulation continues.\n   ** Warning ** GetDXCoils: Coil:Cooling:DX:SingleSpeed=\"COIL COOLING DX SINGLE SPEED 31 15KBTU/HR 9.3EER\", invalid\n   **   ~~~   ** ...Part Load Fraction Correlation Curve Name = DXCOOL-NECB2011-REF-COOLPLFFPLR 24 has out of range value.\n   **   ~~~   ** ...Curve maximum must be <= 1.0, curve max at PLR = 0.99 is 1.015\n   **   ~~~   ** ...Setting curve maximum to 1.0 and simulation continues.\n   ** Warning ** GetDXCoils: Coil:Cooling:DX:SingleSpeed=\"COIL COOLING DX SINGLE SPEED 30 18KBTU/HR 9.3EER\", invalid\n   **   ~~~   ** ...Part Load Fraction Correlation Curve Name = DXCOOL-NECB2011-REF-COOLPLFFPLR 23 has out of range value.\n   **   ~~~   ** ...Curve maximum must be <= 1.0, curve max at PLR = 0.99 is 1.015\n   **   ~~~   ** ...Setting curve maximum to 1.0 and simulation continues.\n   ** Warning ** GetDXCoils: Coil:Cooling:DX:SingleSpeed=\"COIL COOLING DX SINGLE SPEED 29 5KBTU/HR 11.0EER\", invalid\n   **   ~~~   ** ...Part Load Fraction Correlation Curve Name = DXCOOL-NECB2011-REF-COOLPLFFPLR 21 has out of range value.\n   **   ~~~   ** ...Curve maximum must be <= 1.0, curve max at PLR = 0.99 is 1.015\n   **   ~~~   ** ...Setting curve maximum to 1.0 and simulation continues.\n   ** Warning ** GetDXCoils: Coil:Cooling:DX:SingleSpeed=\"COIL COOLING DX SINGLE SPEED 24 5KBTU/HR 11.0EER\", invalid\n   **   ~~~   ** ...Part Load Fraction Correlation Curve Name = DXCOOL-NECB2011-REF-COOLPLFFPLR 16 has out of range value.\n   **   ~~~   ** ...Curve maximum must be <= 1.0, curve max at PLR = 0.99 is 1.015\n   **   ~~~   ** ...Setting curve maximum to 1.0 and simulation continues.\n   ** Warning ** GetDXCoils: Coil:Cooling:DX:SingleSpeed=\"COIL COOLING DX SINGLE SPEED 22 16KBTU/HR 9.3EER\", invalid\n   **   ~~~   ** ...Part Load Fraction Correlation Curve Name = DXCOOL-NECB2011-REF-COOLPLFFPLR 14 has out of range value.\n   **   ~~~   ** ...Curve maximum must be <= 1.0, curve max at PLR = 0.99 is 1.015\n   **   ~~~   ** ...Setting curve maximum to 1.0 and simulation continues.\n   ** Warning ** GetDXCoils: Coil:Cooling:DX:SingleSpeed=\"COIL COOLING DX SINGLE SPEED 21 4KBTU/HR 11.0EER\", invalid\n   **   ~~~   ** ...Part Load Fraction Correlation Curve Name = DXCOOL-NECB2011-REF-COOLPLFFPLR 13 has out of range value.\n   **   ~~~   ** ...Curve maximum must be <= 1.0, curve max at PLR = 0.99 is 1.015\n   **   ~~~   ** ...Setting curve maximum to 1.0 and simulation continues.\n   ** Warning ** GetDXCoils: Coil:Cooling:DX:SingleSpeed=\"COIL COOLING DX SINGLE SPEED 20 16KBTU/HR 9.3EER\", invalid\n   **   ~~~   ** ...Part Load Fraction Correlation Curve Name = DXCOOL-NECB2011-REF-COOLPLFFPLR 12 has out of range value.\n   **   ~~~   ** ...Curve maximum must be <= 1.0, curve max at PLR = 0.99 is 1.015\n   **   ~~~   ** ...Setting curve maximum to 1.0 and simulation continues.\n   ** Warning ** GetDXCoils: Coil:Cooling:DX:SingleSpeed=\"COIL COOLING DX SINGLE SPEED 23 4KBTU/HR 11.0EER\", invalid\n   **   ~~~   ** ...Part Load Fraction Correlation Curve Name = DXCOOL-NECB2011-REF-COOLPLFFPLR 15 has out of range value.\n   **   ~~~   ** ...Curve maximum must be <= 1.0, curve max at PLR = 0.99 is 1.015\n   **   ~~~   ** ...Setting curve maximum to 1.0 and simulation continues.\n   ** Warning ** GetDXCoils: Coil:Cooling:DX:SingleSpeed=\"COIL COOLING DX SINGLE SPEED 16 3KBTU/HR 11.0EER\", invalid\n   **   ~~~   ** ...Part Load Fraction Correlation Curve Name = DXCOOL-NECB2011-REF-COOLPLFFPLR 7 has out of range value.\n   **   ~~~   ** ...Curve maximum must be <= 1.0, curve max at PLR = 0.99 is 1.015\n   **   ~~~   ** ...Setting curve maximum to 1.0 and simulation continues.\n   ** Warning ** GetDXCoils: Coil:Cooling:DX:SingleSpeed=\"COIL COOLING DX SINGLE SPEED 8 3KBTU/HR 11.0EER\", invalid\n   **   ~~~   ** ...Part Load Fraction Correlation Curve Name = DXCOOL-NECB2011-REF-COOLPLFFPLR 64 has out of range value.\n   **   ~~~   ** ...Curve maximum must be <= 1.0, curve max at PLR = 0.99 is 1.015\n   **   ~~~   ** ...Setting curve maximum to 1.0 and simulation continues.\n   ** Warning ** GetDXCoils: Coil:Cooling:DX:SingleSpeed=\"COIL COOLING DX SINGLE SPEED 38 3KBTU/HR 11.0EER\", invalid\n   **   ~~~   ** ...Part Load Fraction Correlation Curve Name = DXCOOL-NECB2011-REF-COOLPLFFPLR 31 has out of range value.\n   **   ~~~   ** ...Curve maximum must be <= 1.0, curve max at PLR = 0.99 is 1.015\n   **   ~~~   ** ...Setting curve maximum to 1.0 and simulation continues.\n   ** Warning ** GetDXCoils: Coil:Cooling:DX:SingleSpeed=\"COIL COOLING DX SINGLE SPEED 26 6KBTU/HR 11.0EER\", invalid\n   **   ~~~   ** ...Part Load Fraction Correlation Curve Name = DXCOOL-NECB2011-REF-COOLPLFFPLR 18 has out of range value.\n   **   ~~~   ** ...Curve maximum must be <= 1.0, curve max at PLR = 0.99 is 1.015\n   **   ~~~   ** ...Setting curve maximum to 1.0 and simulation continues.\n   ** Warning ** GetDXCoils: Coil:Cooling:DX:SingleSpeed=\"COIL COOLING DX SINGLE SPEED 1 116KBTU/HR 9.7EER\", invalid\n   **   ~~~   ** ...Part Load Fraction Correlation Curve Name = DXCOOL-NECB2011-REF-COOLPLFFPLR has out of range value.\n   **   ~~~   ** ...Curve maximum must be <= 1.0, curve max at PLR = 0.99 is 1.015\n   **   ~~~   ** ...Setting curve maximum to 1.0 and simulation continues.\n   ** Warning ** GetDXCoils: Coil:Cooling:DX:SingleSpeed=\"COIL COOLING DX SINGLE SPEED 45 7KBTU/HR 14.0SEER\", invalid\n   **   ~~~   ** ...Part Load Fraction Correlation Curve Name = DXCOOL-NECB2011-REF-COOLPLFFPLR 39 has out of range value.\n   **   ~~~   ** ...Curve maximum must be <= 1.0, curve max at PLR = 0.99 is 1.015\n   **   ~~~   ** ...Setting curve maximum to 1.0 and simulation continues.\n   ** Warning ** GetDXCoils: Coil:Cooling:DX:SingleSpeed=\"COIL COOLING DX SINGLE SPEED 50 5KBTU/HR 14.0SEER\", invalid\n   **   ~~~   ** ...Part Load Fraction Correlation Curve Name = DXCOOL-NECB2011-REF-COOLPLFFPLR 45 has out of range value.\n   **   ~~~   ** ...Curve maximum must be <= 1.0, curve max at PLR = 0.99 is 1.015\n   **   ~~~   ** ...Setting curve maximum to 1.0 and simulation continues.\n   ** Warning ** GetDXCoils: Coil:Cooling:DX:SingleSpeed=\"COIL COOLING DX SINGLE SPEED 44 5KBTU/HR 14.0SEER\", invalid\n   **   ~~~   ** ...Part Load Fraction Correlation Curve Name = DXCOOL-NECB2011-REF-COOLPLFFPLR 38 has out of range value.\n   **   ~~~   ** ...Curve maximum must be <= 1.0, curve max at PLR = 0.99 is 1.015\n   **   ~~~   ** ...Setting curve maximum to 1.0 and simulation continues.\n   ** Warning ** GetDXCoils: Coil:Cooling:DX:SingleSpeed=\"COIL COOLING DX SINGLE SPEED 53 5KBTU/HR 14.0SEER\", invalid\n   **   ~~~   ** ...Part Load Fraction Correlation Curve Name = DXCOOL-NECB2011-REF-COOLPLFFPLR 48 has out of range value.\n   **   ~~~   ** ...Curve maximum must be <= 1.0, curve max at PLR = 0.99 is 1.015\n   **   ~~~   ** ...Setting curve maximum to 1.0 and simulation continues.\n   ** Warning ** GetDXCoils: Coil:Cooling:DX:SingleSpeed=\"COIL COOLING DX SINGLE SPEED 52 5KBTU/HR 14.0SEER\", invalid\n   **   ~~~   ** ...Part Load Fraction Correlation Curve Name = DXCOOL-NECB2011-REF-COOLPLFFPLR 47 has out of range value.\n   **   ~~~   ** ...Curve maximum must be <= 1.0, curve max at PLR = 0.99 is 1.015\n   **   ~~~   ** ...Setting curve maximum to 1.0 and simulation continues.\n   ** Warning ** GetDXCoils: Coil:Cooling:DX:SingleSpeed=\"COIL COOLING DX SINGLE SPEED 49 3KBTU/HR 14.0SEER\", invalid\n   **   ~~~   ** ...Part Load Fraction Correlation Curve Name = DXCOOL-NECB2011-REF-COOLPLFFPLR 43 has out of range value.\n   **   ~~~   ** ...Curve maximum must be <= 1.0, curve max at PLR = 0.99 is 1.015\n   **   ~~~   ** ...Setting curve maximum to 1.0 and simulation continues.\n   ** Warning ** GetDXCoils: Coil:Cooling:DX:SingleSpeed=\"COIL COOLING DX SINGLE SPEED 51 19KBTU/HR 14.0SEER\", invalid\n   **   ~~~   ** ...Part Load Fraction Correlation Curve Name = DXCOOL-NECB2011-REF-COOLPLFFPLR 46 has out of range value.\n   **   ~~~   ** ...Curve maximum must be <= 1.0, curve max at PLR = 0.99 is 1.015\n   **   ~~~   ** ...Setting curve maximum to 1.0 and simulation continues.\n   ** Warning ** GetDXCoils: Coil:Cooling:DX:SingleSpeed=\"COIL COOLING DX SINGLE SPEED 57 3KBTU/HR 14.0SEER\", invalid\n   **   ~~~   ** ...Part Load Fraction Correlation Curve Name = DXCOOL-NECB2011-REF-COOLPLFFPLR 52 has out of range value.\n   **   ~~~   ** ...Curve maximum must be <= 1.0, curve max at PLR = 0.99 is 1.015\n   **   ~~~   ** ...Setting curve maximum to 1.0 and simulation continues.\n   ** Warning ** GetDXCoils: Coil:Cooling:DX:SingleSpeed=\"COIL COOLING DX SINGLE SPEED 54 3KBTU/HR 14.0SEER\", invalid\n   **   ~~~   ** ...Part Load Fraction Correlation Curve Name = DXCOOL-NECB2011-REF-COOLPLFFPLR 49 has out of range value.\n   **   ~~~   ** ...Curve maximum must be <= 1.0, curve max at PLR = 0.99 is 1.015\n   **   ~~~   ** ...Setting curve maximum to 1.0 and simulation continues.\n   ** Warning ** GetDXCoils: Coil:Cooling:DX:SingleSpeed=\"COIL COOLING DX SINGLE SPEED 64 3KBTU/HR 14.0SEER\", invalid\n   **   ~~~   ** ...Part Load Fraction Correlation Curve Name = DXCOOL-NECB2011-REF-COOLPLFFPLR 60 has out of range value.\n   **   ~~~   ** ...Curve maximum must be <= 1.0, curve max at PLR = 0.99 is 1.015\n   **   ~~~   ** ...Setting curve maximum to 1.0 and simulation continues.\n   ** Warning ** GetDXCoils: Coil:Cooling:DX:SingleSpeed=\"COIL COOLING DX SINGLE SPEED 61 6KBTU/HR 14.0SEER\", invalid\n   **   ~~~   ** ...Part Load Fraction Correlation Curve Name = DXCOOL-NECB2011-REF-COOLPLFFPLR 57 has out of range value.\n   **   ~~~   ** ...Curve maximum must be <= 1.0, curve max at PLR = 0.99 is 1.015\n   **   ~~~   ** ...Setting curve maximum to 1.0 and simulation continues.\n   ** Warning ** GetDXCoils: Coil:Cooling:DX:SingleSpeed=\"COIL COOLING DX SINGLE SPEED 58 1KBTU/HR 14.0SEER\", invalid\n   **   ~~~   ** ...Part Load Fraction Correlation Curve Name = DXCOOL-NECB2011-REF-COOLPLFFPLR 53 has out of range value.\n   **   ~~~   ** ...Curve maximum must be <= 1.0, curve max at PLR = 0.99 is 1.015\n   **   ~~~   ** ...Setting curve maximum to 1.0 and simulation continues.\n   ** Warning ** GetDXCoils: Coil:Cooling:DX:SingleSpeed=\"COIL COOLING DX SINGLE SPEED 55 1KBTU/HR 14.0SEER\", invalid\n   **   ~~~   ** ...Part Load Fraction Correlation Curve Name = DXCOOL-NECB2011-REF-COOLPLFFPLR 50 has out of range value.\n   **   ~~~   ** ...Curve maximum must be <= 1.0, curve max at PLR = 0.99 is 1.015\n   **   ~~~   ** ...Setting curve maximum to 1.0 and simulation continues.\n   ** Warning ** GetDXCoils: Coil:Cooling:DX:SingleSpeed=\"COIL COOLING DX SINGLE SPEED 65 1KBTU/HR 14.0SEER\", invalid\n   **   ~~~   ** ...Part Load Fraction Correlation Curve Name = DXCOOL-NECB2011-REF-COOLPLFFPLR 61 has out of range value.\n   **   ~~~   ** ...Curve maximum must be <= 1.0, curve max at PLR = 0.99 is 1.015\n   **   ~~~   ** ...Setting curve maximum to 1.0 and simulation continues.\n   ** Warning ** GetDXCoils: Coil:Cooling:DX:SingleSpeed=\"COIL COOLING DX SINGLE SPEED 62 2KBTU/HR 14.0SEER\", invalid\n   **   ~~~   ** ...Part Load Fraction Correlation Curve Name = DXCOOL-NECB2011-REF-COOLPLFFPLR 58 has out of range value.\n   **   ~~~   ** ...Curve maximum must be <= 1.0, curve max at PLR = 0.99 is 1.015\n   **   ~~~   ** ...Setting curve maximum to 1.0 and simulation continues.\n   ** Warning ** GetDXCoils: Coil:Cooling:DX:SingleSpeed=\"COIL COOLING DX SINGLE SPEED 59 6KBTU/HR 14.0SEER\", invalid\n   **   ~~~   ** ...Part Load Fraction Correlation Curve Name = DXCOOL-NECB2011-REF-COOLPLFFPLR 54 has out of range value.\n   **   ~~~   ** ...Curve maximum must be <= 1.0, curve max at PLR = 0.99 is 1.015\n   **   ~~~   ** ...Setting curve maximum to 1.0 and simulation continues.\n   ** Warning ** GetDXCoils: Coil:Cooling:DX:SingleSpeed=\"COIL COOLING DX SINGLE SPEED 48 1KBTU/HR 14.0SEER\", invalid\n   **   ~~~   ** ...Part Load Fraction Correlation Curve Name = DXCOOL-NECB2011-REF-COOLPLFFPLR 42 has out of range value.\n   **   ~~~   ** ...Curve maximum must be <= 1.0, curve max at PLR = 0.99 is 1.015\n   **   ~~~   ** ...Setting curve maximum to 1.0 and simulation continues.\n   ** Warning ** GetDXCoils: Coil:Cooling:DX:SingleSpeed=\"COIL COOLING DX SINGLE SPEED 47 3KBTU/HR 14.0SEER\", invalid\n   **   ~~~   ** ...Part Load Fraction Correlation Curve Name = DXCOOL-NECB2011-REF-COOLPLFFPLR 41 has out of range value.\n   **   ~~~   ** ...Curve maximum must be <= 1.0, curve max at PLR = 0.99 is 1.015\n   **   ~~~   ** ...Setting curve maximum to 1.0 and simulation continues.\n   ** Warning ** GetDXCoils: Coil:Cooling:DX:SingleSpeed=\"COIL COOLING DX SINGLE SPEED 60 4KBTU/HR 14.0SEER\", invalid\n   **   ~~~   ** ...Part Load Fraction Correlation Curve Name = DXCOOL-NECB2011-REF-COOLPLFFPLR 56 has out of range value.\n   **   ~~~   ** ...Curve maximum must be <= 1.0, curve max at PLR = 0.99 is 1.015\n   **   ~~~   ** ...Setting curve maximum to 1.0 and simulation continues.\n   ** Warning ** GetDXCoils: Coil:Cooling:DX:SingleSpeed=\"COIL COOLING DX SINGLE SPEED 56 4KBTU/HR 14.0SEER\", invalid\n   **   ~~~   ** ...Part Load Fraction Correlation Curve Name = DXCOOL-NECB2011-REF-COOLPLFFPLR 51 has out of range value.\n   **   ~~~   ** ...Curve maximum must be <= 1.0, curve max at PLR = 0.99 is 1.015\n   **   ~~~   ** ...Setting curve maximum to 1.0 and simulation continues.\n   ** Warning ** GetDXCoils: Coil:Cooling:DX:SingleSpeed=\"COIL COOLING DX SINGLE SPEED 66 4KBTU/HR 14.0SEER\", invalid\n   **   ~~~   ** ...Part Load Fraction Correlation Curve Name = DXCOOL-NECB2011-REF-COOLPLFFPLR 62 has out of range value.\n   **   ~~~   ** ...Curve maximum must be <= 1.0, curve max at PLR = 0.99 is 1.015\n   **   ~~~   ** ...Setting curve maximum to 1.0 and simulation continues.\n   ** Warning ** GetDXCoils: Coil:Cooling:DX:SingleSpeed=\"COIL COOLING DX SINGLE SPEED 63 6KBTU/HR 14.0SEER\", invalid\n   **   ~~~   ** ...Part Load Fraction Correlation Curve Name = DXCOOL-NECB2011-REF-COOLPLFFPLR 59 has out of range value.\n   **   ~~~   ** ...Curve maximum must be <= 1.0, curve max at PLR = 0.99 is 1.015\n   **   ~~~   ** ...Setting curve maximum to 1.0 and simulation continues.\n   ** Warning ** GetDXCoils: Coil:Cooling:DX:SingleSpeed=\"COIL COOLING DX SINGLE SPEED 46 1KBTU/HR 14.0SEER\", invalid\n   **   ~~~   ** ...Part Load Fraction Correlation Curve Name = DXCOOL-NECB2011-REF-COOLPLFFPLR 40 has out of range value.\n   **   ~~~   ** ...Curve maximum must be <= 1.0, curve max at PLR = 0.99 is 1.015\n   **   ~~~   ** ...Setting curve maximum to 1.0 and simulation continues.\n   ** Warning ** Since Zone Minimum Air Flow Input Method = CONSTANT, input for Fixed Minimum Air Flow Rate will be ignored.\n   **   ~~~   ** Occurs in AirTerminal:SingleDuct:VAV:Reheat = AIR TERMINAL SINGLE DUCT VAV REHEAT 1\n   ** Warning ** Since Zone Minimum Air Flow Input Method = CONSTANT, input for Fixed Minimum Air Flow Rate will be ignored.\n   **   ~~~   ** Occurs in AirTerminal:SingleDuct:VAV:Reheat = AIR TERMINAL SINGLE DUCT VAV REHEAT 2\n   ************* Beginning Plant Sizing Calculations\n   ** Warning ** The Standard Ratings is calculated for Coil:Cooling:DX:SingleSpeed = COIL COOLING DX SINGLE SPEED 7 5KBTU/HR 11.0EER but not at the AHRI test condition due to curve out of bound.\n   **   ~~~   **  Review the Standard Ratings calculations in the Engineering Reference for this coil type. Also, use Output:Diagnostics, DisplayExtraWarnings for further guidance.\n   ** Warning ** The Standard Ratings is calculated for Coil:Cooling:DX:SingleSpeed = COIL COOLING DX SINGLE SPEED 37 5KBTU/HR 11.0EER but not at the AHRI test condition due to curve out of bound.\n   **   ~~~   **  Review the Standard Ratings calculations in the Engineering Reference for this coil type. Also, use Output:Diagnostics, DisplayExtraWarnings for further guidance.\n   ** Warning ** The Standard Ratings is calculated for Coil:Cooling:DX:SingleSpeed = COIL COOLING DX SINGLE SPEED 25 17KBTU/HR 9.3EER but not at the AHRI test condition due to curve out of bound.\n   **   ~~~   **  Review the Standard Ratings calculations in the Engineering Reference for this coil type. Also, use Output:Diagnostics, DisplayExtraWarnings for further guidance.\n   ** Warning ** The Standard
[...]
c6MN0mKJgS5Sp2ZbZIXTQhy9Toz2CQ1mnAzupqdmWqSHU0IcjU7M9IUQdpujmRIE4Lit0hypAlB8eGXLGlCUHz4JU+aEBQffs2UpiTZup2ZbJosTUmy1Tsz3DRfmpJka3hmvmnKNOWutHU8M+I0a5qSZOt4ZsohTkOchjjtHiHitHohTkOchjgtsxCnIU7r9KoQpzX27/B8xGm7C3HadvXwc1oH5hcABxxwwAEHHHDAAQcccMAZPM6BaQeggQYaaKCBBhpooIEGGmiGQ/NodAfggAMOOOCAAw444IADDjjl+yFO2yzEaVtx2nwg4rT5EMRp872J0+a3Xwstldy4giauoKkraOYKmruCFq6gpSto5QpqfP9eS7J1O9nKnWztTrZ6J1u/k63gydbwZKt4snW8snW88t3fto5Xto5X3TreXpzWzCoXpyk58btULk5TcuJboFycpuTEN0C5OE3JiU+/IE6TglyNzow3QZwmBblKnZltgjhNCnL1OjPYBHGadDO6mp2ZaoI4TQpyNTsz0srFac0cQZwmBcVvkSBOk4Liwy+I06Sg+PAL4jQpKD78ijhNS7J1OzPZFHGalmSrd2a4KeI0LcnW8Mx8U8Rp2l1p63hmxCniNC3J1vHMlEOchjgNcdo9QsRp9UKchjgNcVpmIU5DnNbpVSFOa+zf4fmI03YX4rTt6uHntA7MLwAOOOCAAw444IADDjjggDN4nAPTDkADDTTQQAMNNNBAAw000AyH5tHoDsABBxxwwAEHHHDAAQcccMr3Q5y2WYjTtuK0xUDEaYshiNMWexOnjY8qizdNyZmYcqamnJkpZ27KWZhylqaclSmn8bV7KcjV6OSqdHJ1OrlKnVytTq5aJ1evk6vYydXsytXsynZXu5pduZpddWp2e0FaI6rcjybEhO9QuR1NiAnPfbkbTYgJz3y5GU2ICc+74EVTckw9jseYIEVTckxVjmeYYERTckxtjgeYoENT7kFTn+PpJbjQlBxTn+PRVS5Ca8QIHjQlJ3x7BAuakhMed8GBpuSEx10woCk54XFX/GdSkKvR8QRT5GdSkKvU8RBTzGdSkKvX8RxTtGfSzehqdjzKFOeZFORqdjzNEJ4hPEN4do8Q4Vm9EJ4hPEN4llkIzxCedXpVCM8a+3d4PsKz3YXwbLt6+PmqA/MCgAMOOOCAAw444IADDjjgDB7nwHQB0EADDTTQQAMNNNBAAw00w6F5NJoCcMABBxxwwAEHHHDAAQec8v0Qnm0WwrOt8Gw5EOHZcgjCs+UehWfjmcl4JgRNXEFTV9DMFTR3BS1cQUtX0MoV9MEX7pUkW7eTrdzJ1u5kq3ey9TvZCp5sDU+2iidbxytbxyvf/W3reGXreNWt411EaLtZigmtPCd+lxQXWnlOfAsoNrTynPgGUHxo5Tnx6ZeMaEKQq9GZ8SZJ0YQgV6kzs03yoglBrl5nBpukRhNuRlezM1NNsqMJQa5mZ0aaIkjbzZEMaUJQ/BZJjjQhKD78kiVNCIoPv+RJE4Liw6+Z0pQkW7czk02TpSlJtnpnhpvmS1OSbA3PzDdNmabclbaOZ0acZk1Tkmwdz0w5xGmI0xCn3SNEnFYvxGmI0xCnZRbiNMRpnV4V4rTG/h2ejzhtdyFO264efk7rwPwC4IADDjjggAMOOOCAAw44g8c5MO0ANNBAAw000EADDTTQQAPNcGgeje4AHHDAAQcccMABBxxwwAGnfD/EaZuFOG0rTlsNRJy2GoI4bbU3cdr89muhpZIbV9DEFTR1Bc1cQXNX0MIVtHQFrVxBje/fa0m2bidbuZOt3clW72Trd7IVPNkanmwVT7aOV7aOV77729bxytbxqlvH24vTmlnl4jQlJ36XysVpSk58C5SL05Sc+AYoF6cpOfHpF8RpUpCr0ZnxJojTpCBXqTOzTRCnSUGuXmcGmyBOk25GV7MzU00Qp0lBrmZnRlq5OK2ZI4jTpKD4LRLEaVJQfPgFcZoUFB9+QZwmBcWHXxGnaUm2bmcmmyJO05Js9c4MN0WcpiXZGp6Zb4o4TbsrbR3PjDhFnKYl2TqemXKI0xCnIU67R4g4rV6I0xCnIU7LLMRpiNM6vSrEaY39OzwfcdruQpy2XT38nNaB+QXAAQcccMABBxxwwAEHHHAGj3Ng2gFooIEGGmiggQYaaKCBBprh0Dwa3QE44IADDjjggAMOOOCAA075fojTNgtx2p04bTkMb9pyPABv2g0k3rSiILxpDwfhTWuVhDcNbxreNLxpeNPwpuFNw5uGN+13b0a8aQ8H4U17MAhvGt40vGl402xJeNPaJeFNi2HwpuFN+3DhTbvDx5v24cKb1mbhTev2fLxpeNM6vSq8aY39Ozwfb9ruwpu2XT38mNaB6QXAAQcccMABBxxwwAEHHHAGj3Ng1gFooIEGGmiggQYaaKCBBprh0Dwa2wE44IADDjjggAMOOOCAA075fnjTNgtv2tabNh6IOC0NQZyW9iZOGx9VFm+akjMx5UxNOTNTztyUszDlLE05K1NO42v3UpCr0clV6eTqdHKVOrlanVy1Tq5eJ1exk6vZlavZle2udjW7cjW76tTs9oK0RlS5H02ICd+hcjuaEBOe+3I3mhATnvlyM5oQE553wYum5Jh6HI8xQYqm5JiqHM8wwYim5JjaHA8wQYem3IOmPsfTS3ChKTmmPsejq1yE1ogRPGhKTvj2CBY0JSc87oIDTckJj7tgQFNywuOu+M+kIFej4wmmyM+kIFep4yGmmM+kIFev4zmmaM+km9HV7HiUKc4zKcjV7HiaITxDeIbw7B4hwrN6ITxDeIbwLLMQniE86/SqEJ419u/wfIRnuwvh2Xb18PNVB+YFAAcccMABBxxwwAEHHHDAGTzOgekCoIEGGmiggQYaaKCBBhpohkPzaDQF4IADDjjggAMOOOCAAw445fshPNsshGdb4VkaiPCsGoLwrNqj8Gw8MxnPhKCJK2jqCpq5guauoIUraOkKWrmCPvjCvZJk63aylTvZ2p1s9U62fidbwZOt4clW8WTreGXreOW7v20dr2wdr7p1vIsIbTdLMaGV58TvkuJCK8+JbwHFhlaeE98Aig+tPCc+/ZIRTQhyNToz3iQpmhDkKnVmtkleNCHI1evMYJPUaMLN6Gp2ZqpJdjQhyNXszEhTBGm7OZIhTQiK3yLJkSYExYdfsqQJQfHhlzxpQlB8+DVTmpJk63ZmsmmyNCXJVu/McNN8aUqSreGZ+aYp05S70tbxzIjTrGlKkq3jmSmHOA1xGuK0e4SI0+qFOA1xGuK0zEKchjit06tCnNbYv8PzEaftLsRp29XDz2kdmF8AHHDAAQcccMABBxxwwAFn8DgHph2ABhpooIEGGmiggQYaaKAZDs2j0R2AAw444IADDjjggAMOOOCU74c4bbMQp23FadVAxGmTIYjTJnsTp81vvxZaKrlxBU1cQVNX0MwVNHcFLVxBS1fQyhXU+P69lmTrdrKVO9nanWz1TrZ+J1vBk63hyVbxZOt4Zet45bu/bR2vbB2vunW8vTitmVUuTlNy4nepXJym5MS3QLk4TcmJb4BycZqSE59+QZwmBbkanRlvgjhNCnKVOjPbBHGaFOTqdWawCeI06WZ0NTsz1QRxmhTkanZmpJWL05o5gjhNCorfIkGcJgXFh18Qp0lB8eEXxGlSUHz4FXGalmTrdmayKeI0LclW78xwU8RpWpKt4Zn5pojTtLvS1vHMiFPEaVqSreOZKYc4DXEa4rR7hIjT6oU4DXEa4rTMQpyGOK3Tq0Kc1ti/w/MRp+0uxGnb1cPPaR2YXwAccMABBxxwwAEHHHDAAWfwOAemHYAGGmiggQYaaKCBBhpooBkOzaPRHYADDjjggAMOOOCAAw444JTvhzhtsxCnbcVpk4GI06ZDEKdN9yZOGx9VFm+akjMx5UxNOTNTztyUszDlLE05K1NO42v3UpCr0clV6eTqdHKVOrlanVy1Tq5eJ1exk6vZlavZle2udjW7cjW76tTs9oK0RlS5H02ICd+hcjuaEBOe+3I3mhATnvlyM5oQE553wYum5Jh6HI8xQYqm5JiqHM8wwYim5JjaHA8wQYem3IOmPsfTS3ChKTmmPsejq1yE1ogRPGhKTvj2CBY0JSc87oIDTckJj7tgQFNywuOu+M+kIFej4wmmyM+kIFep4yGmmM+kIFev4zmmaM+km9HV7HiUKc4zKcjV7HiaITxDeIbw7B4hwrN6ITxDeIbwLLMQniE86/SqEJ419u/wfIRnuwvh2Xb18PNVB+YFAAcccMABBxxwwAEHHHDAGTzOgekCoIEGGmiggQYaaKCBBhpohkPzaDQF4IADDjjggAMOOOCAAw445fshPNsshGdb4dl0IMKz2RCEZ7M9Cs/GM5PxTAiauIKmrqCZK2juClq4gpauoJUr6IMv3CtJtm4nW7mTrd3JVu9k63eyFTzZGp5sFU+2jle2jle++9vW8crW8apbx7uI0HazFBNaeU78LikutPKc+BZQbGjlOfENoPjQynPi0y8Z0YQgV6Mz402SoglBrlJnZpvkRROCXL3ODDZJjSbcjK5mZ6aaZEcTglzNzow0RZC2myMZ0oSg+C2SHGlCUHz4JUuaEBQffsmTJgTFh18zpSlJtm5nJpsmS1OSbPXODDfNl6Yk2RqemW+aMk25K20dz4w4zZqmJNk6nplyiNMQpyFOu0eIOK1eiNMQpyFOyyzEaYjTOr0qxGmN/Ts8H3Ha7kKctl09/JzWgfkFwAEHHHDAAQcccMABBxxwBo9zYNoBaKCBBhpooIEGGmiggQaa4dA8Gt0BOOCAAw444IADDjjggANO+X6I0zYLcdpWnDYbiDhtPgRx2nxv4rT57ddCSyU3rqCJK2jqCpq5guauoIUraOkKWrmCGt+/15Js3U62cidbu5Ot3snW72QreLI1PNkqnmwdr2wdr3z3t63jla3jVbeOtxenNbPKxWlKTvwulYvTlJz4FigXpyk58Q1QLk5TcuLTL4jTpCBXozPjTRCnSUGuUmdmmyBOk4Jcvc4MNkGcJt2MrmZnppogTpOCXM3OjLRycVozRxCnSUHxWySI06Sg+PAL4jQpKD78gjhNCooPvyJO05Js3c5MNkWcpiXZ6p0Zboo4TUuyNTwz3xRxmnZX2jqeGXGKOE1LsnU8M+UQpyFOQ5x2jxBxWr0QpyFOQ5yWWYjTEKd1elWI0xr7d3g+4rTdhThtu3r4Oa0D8wuAAw444IADDjjggAMOOOAMHufAtAPQQAMNNNBAAw000EADDTTDoXk0ugNwwAEHHHDAAQcccMABB5zy/RCnbRbitK04bT4QcdpiCOK0xd7EaeOjyuJNU3ImppypKWdmypmbchamnKUpZ2XKaXztXgpyNTq5Kp1cnU6uUidXq5Or1snV6+QqdnI1u3I1u7Ld1a5mV65mV52a3V6Q1ogq96MJMeE7VG5HE2LCc1/uRhNiwjNfbkYTYsLzLnjRlBxTj+MxJkjRlBxTleMZJhjRlBxTm+MBJujQlHvQ1Od4egkuNCXH1Od4dJWL0BoxggdNyQnfHsGCpuSEx11woCk54XEXDGhKTnjcFf+ZFORqdDzBFPmZFOQqdTzEFPOZFOTqdTzHFO2ZdDO6mh2PMsV5JgW5mh1PM4RnCM8Qnt0jRHhWL4RnCM8QnmUWwjOEZ51eFcKzxv4dno/wbHchPNuuHn6+6sC8AOCAAw444IADDjjggAMOOIPHOTBdADTQQAMNNNBAAw000EADzXBoHo2mABxwwAEHHHDAAQcccMABp3w/hGebhfBsKzxbDER4thyC8Gy5R+HZeGYynglBE1fQ1BU0cwXNXUELV9DSFbRyBX3whXslydbtZCt3srU72eqdbP1OtoInW8OTreLJ1vHK1vHKd3/bOl7ZOl5163gXEdpulmJCK8+J3yXFhVaeE98Cig2tPCe+ARQfWnlOfPolI5oQ5Gp0ZrxJUjQhyFXqzGyTvGhCkKvXmcEmqdGEm9HV7MxUk+xoQpCr2ZmRpgjSdnMkQ5oQFL9FkiNNCIoPv2RJE4Liwy950oSg+PBrpjQlydbtzGTTZGlKkq3emeGm+dKUJFvDM/NNU6Ypd6Wt45kRp1nTlCRbxzNTDnEa4jTEafcIEafVC3Ea4jTEaZmFOA1xWqdXhTitsX+H5yNO212I07arh5/TOjC/ADjggAMOOOCAAw444IADzuBxDkw7AA000EADDTTQQAMNNNBAMxyaR6M7AAcccMABBxxwwAEHHHDAKd8PcdpmIU7bitOWAxGnrYYgTlvtTZw2v/1aaKnkxhU0cQVNXUEzV9DcFbRwBS1dQStXUOP791qSrdvJVu5ka3ey1TvZ+p1sBU+2hidbxZOt45Wt45Xv/rZ1vLJ1vOrW8fbitGZWuThNyYnfpXJxmpIT3wLl4jQlJ74BysVpSk58+gVxmhTkanRmvAniNCnIVerMbBPEaVKQq9eZwSaI06Sb0dXszFQTxGlSkKvZmZFWLk5r5gjiNCkofosEcZoUFB9+QZwmBcWHXxCnSUHx4VfEaVqSrduZyaaI07QkW70zw00Rp2lJtoZn5psiTtPuSlvHMyNOEadpSbaOZ6Yc4jTEaYjT7hEiTqsX4jTEaYjTMgtxGuK0Tq8KcVpj/w7PR5y2uxCnbVcPP6d1YH4BcMABBxxwwAEHHHDAAQecweMcmHYAGmiggQYaaKCBBhpooIFmODSPRncADjjggAMOOOCAAw444IBTvh/itM1CnLYVp62GIU5bjQcgTruB3Jc4bXxUWbxpSs7ElDM15cxMOXNTzsKUszTlrEw5ja/dS0GuRidXpZOr08lV6uRqdXLVOrl6nVzFTq5mV65mV7a72tXsytXsqlOz2wvSGlHlfjQhJnyHyu1oQkx47svdaEJMeObLzWhCTHjeBS+akmPqcTzGBCmakmOqcjzDBCOakmNqczzABB2acg+a+hxPL8GFpuSY+hyPrnIRWiNG8KApOeHbI1jQlJzwuAsONCUnPO6CAU3JCY+74j+TglyNjieYIj+TglyljoeYYj6Tgly9jueYoj2TbkZXs+NRpjjPpCBXs+NphvAM4RnCs3uECM/qhfAM4RnCs8xCeIbwrNOrQnjW2L/D8xGe7S6EZ9vVw89XHZgXABxwwAEHHHDAAQcccMABZ/A4B6YLgAYaaKCBBhpooIEGGmigGQ7No9EUgAMOOOCAAw444IADDjjglO+H8GyzEJ7dCc+G4jtLQ/CdJXxn+M4e/po9vjN8Z/jO8J21CcJ3hu8M3xm+M3xn+M7wneE76zS48J3hO2sVhO/s4SB8Zw8H4Tt7OAjfWQSD7wzf2YcL39kdPr6zDxe+szYL31m35+M7w3fW6VXhO2vs3+H5+M52F76z7erhx6sOTAsADjjggAMOOOCAAw444IAzeJwDswVAAw000EADDTTQQAMNNNAMh+bRWArAAQcccMABBxxwwAEHHHDK98N3tln4zra+s/FAhGfVEIRn1R6FZ+OZyXgmBE1cQVNX0MwVNHcFLVxBS1fQyhX0wRfulSRbt5Ot3MnW7mSrd7L1O9kKnmwNT7aKJ1vHK1vHK9/9bet4Zet41a3jXURou1mKCa08J36XFBdaeU58Cyg2tPKc+AZQfGjlOfHpl4xoQpCr0ZnxJknRhCBXqTOzTfKiCUGuXmcGm6RGE25GV7MzU02yowlBrmZnRpoiSNvNkQxpQlD8FkmONCEoPvySJU0Iig+/5EkTguLDr5nSlCRbtzOTTZOlKUm2emeGm+ZLU5JsDc/MN02ZptyVto5nRpxmTVOSbB3PTDnEaYjTEKfdI0ScVi/EaYjTEKdlFuI0xGmdXhXitMb+HZ6POG13IU7brh5+TuvA/ALggAMOOOCAAw444IADDjiDxzkw7QA00EADDTTQQAMNNNBAA81waB6N7gAccMABBxxwwAEHHHDAAad8P8Rpm4U4bStOSwMRp02GIE6b7E2cNr/9Wmip5MYVNHEFTV1BM1fQ3BW0cAUtXUErV1Dj+/dakq3byVbuZGt3stU72fqdbAVPtoYnW8WTreOVreOV7/62dbyydbzq1vH24rRmVrk4TcmJ36VycZqSE98C5eI0JSe+AcrFaUpOfPoFcZoU5Gp0ZrwJ4jQpyFXqzGwTxGlSkKvXmcEmiNOkm9HV7MxUE8RpUpCr2ZmRVi5Oa+YI4jQpKH6LBHGaFBQffkGcJgXFh18Qp0lB8eFXxGlakq3bmcmmiNO0JFu9M8NNEadpSbaGZ+abIk7T7kpbxzMjThGnaUm2jmemHOI0xGmI0+4RIk6rF+I0xGmI0zILcRritE6vCnFaY/8Oz0ectrsQp21XDz+ndWB+AXDAAQcccMABBxxwwAEHnMHjHJh2ABpooIEGGmiggQYaaKCBZjg0j0Z3AA444IADDjjggAMOOOCAU74f4rTNQpy2FadVAxGnTYcgTpvuTZw2Pqos3jQlZ2LKmZpyZqacuSlnYcpZmnJWppzG1+6lIFejk6vSydXp5Cp1crU6uWqdXL1OrmInV7MrV7Mr213tanblanbVqdntBWmNqHI/mhATvkPldjQhJjz35W40ISY88+VmNCEmPO+CF03JMfU4HmOCFE3JMVU5nmGCEU3JMbU5HmCCDk25B019jqeX4EJTckx9jkdXuQitESN40JSc8O0RLGhKTnjcBQeakhMed8GApuSEx13xn0lBrkbHE0yRn0lBrlLHQ0wxn0lBrl7Hc0zRnkk3o6vZ8ShTnGdSkKvZ8TRDeIbwDOHZPUKEZ/VCeIbwDOFZZiE8Q3jW6VUhPGvs3+H5CM92F8Kz7erh56sOzAsADjjggAMOOOCAAw444IAzeJwD0wVAAw000EADDTTQQAMNNNAMh+bRaArAAQcccMABBxxwwAEHHHDK90N4tlkIz7bCs8lAhGezIQjPZnsUno1nJuOZEDRxBU1dQTNX0NwVtHAFLV1BK1fQB1+4V5Js3U62cidbu5Ot3snW72QreLI1PNkqnmwdr2wdr3z3t63jla3jVbeOdxGh7WYpJrTynPhdUlxo5TnxLaDY0Mpz4htA8aGV58SnXzKiCUGuRmfGmyRFE4Jcpc7MNsmLJgS5ep0ZbJIaTbgZXc3OTDXJjiYEuZqdGWmKIG03RzKkCUHxWyQ50oSg+PBLljQhKD78kidNCIoPv2ZKU5Js3c5MNk2WpiTZ6p0ZbpovTUmyNTwz3zRlmnJX2jqeGXGaNU1JsnU8M+UQpyFOQ5x2jxBxWr0QpyFOQ5yWWYjTEKd1elWI0xr7d3g+4rTdhThtu3r4Oa0D8wuAAw444IADDjjggAMOOOAMHufAtAPQQAMNNNBAAw000EADDTTDoXk0ugNwwAEHHHDAAQcccMABB5zy/RCnbRbitK04bToQcdp8COK0+d7EafPbr4WWSm5cQRNX0NQVNHMFzV1BC1fQ0hW0cgU1vn+vJdm6nWzlTrZ2J1u9k63fyVbwZGt4slU82Tpe2Tpe+e5vW8crW8erbh1vL05rZpWL05Sc+F0qF6cpOfEtUC5OU3LiG6BcnKbkxKdfEKdJQa5GZ8abIE6Tglylzsw2QZwmBbl6nRlsgjhNuhldzc5MNUGcJgW5mp0ZaeXitGaOIE6TguK3SBCnSUHx4RfEaVJQfPgFcZoUFB9+RZymJdm6nZlsijhNS7LVOzPcFHGalmRreGa+KeI07a60dTwz4hRxmpZk63hmyiFOQ5yGOO0eIeK0eiFOQ5yGOC2zEKchTuv0qhCnNfbv8HzEabsLcdp29fBzWgfmFwAHHHDAAQcccMABBxxwwBk8zoFpB6CBBhpooIEGGmiggQYaaIZD82h0B+CAAw444IADDjjggAMOOOX7IU7bLMRpW3HabCDitMUQxGmLvYnTxkeVxZum5ExMOVNTzsyUMzflLEw5S1POypTT+Nq9FORqdHJVOrk6nVylTq5WJ1etk6vXyVXs5Gp25Wp2ZburXc2uXM2uOjW7vSCtEVXuRxNiwneo3I4mxITnvtyNJsSEZ77cjCbEhOdd8KIpOaYex2NMkKIpOaYqxzNMMKIpOaY2xwNM0KEp96Cpz/H0ElxoSo6pz/HoKhehNWIED5qSE749ggVNyQmPu+BAU3LC4y4Y0JSc8Lgr/jMpyNXoeIIp8jMpyFXqeIgp5jMpyNXreI4p2jPpZnQ1Ox5livNMCnI1O55mCM8QniE8u0eI8KxeCM8QniE8yyyEZwjPOr0qhGeN/Ts8H+HZ7kJ4tl09/HzVgXkBwAEHHHDAAQcccMABBxxwBo9zYLoAaKCBBhpooIEGGmiggQaa4dA8Gk0BOOCAAw444IADDjjggANO+X4IzzYL4dlWeDYfiPBsOQTh2XKPwrPxzGQ8E4ImrqCpK2jmCpq7ghauoKUraOUK+uAL90qSrdvJVu5ka3ey1TvZ+p1sBU+2hidbxZOt45Wt45Xv/rZ1vLJ1vOrW8S4itN0sxYRWnhO/S4oLrTwnvgUUG1p5TnwDKD608pz49EtGNCHI1ejMeJOkaEKQq9SZ2SZ50YQgV68zg01Sowk3o6vZmakm2dGEIFezMyNNEaTt5kiGNCEofoskR5oQFB9+yZImBMWHX/KkCUHx4ddMaUqSrduZyabJ0pQkW70zw03zpSlJtoZn5pumTFPuSlvHMyNOs6YpSbaOZ6Yc4jTEaYjT7hEiTqsX4jTEaYjTMgtxGuK0Tq8KcVpj/w7PR5y2uxCnbVcPP6d1YH4BcMABBxxwwAEHHHDAAQecweMcmHYAGmiggQYaaKCBBhpooIFmODSPRncADjjggAMOOOCAAw444IBTvh/itM1CnLYVpy0GIk5bDUGcttqbOG1++7XQUsmNK2jiCpq6gmauoLkraOEKWrqCVq6gxvfvtSRbt5Ot3MnW7mSrd7L1O9kKnmwNT7aKJ1vHK1vHK9/9bet4Zet41a3j7cVpzaxycZqSE79L5eI0JSe+BcrFaUpOfAOUi9OUnPj0C+I0KcjV6Mx4E8RpUpCr1JnZJojTpCBXrzODTRCnSTejq9mZqSaI06QgV7MzI61cnNbMEcRpUlD8FgniNCkoPvyCOE0Kig+/IE6TguLDr4jTtCRbtzOTTRGnaUm2emeGmyJO05JsDc/MN0Wcpt2Vto5nRpwiTtOSbB3PTDnEaYjTEKfdI0ScVi/EaYjTEKdlFuI0xGmdXhXitMb+HZ6POG13IU7brh5+TuvA/ALggAMOOOCAAw444IADDjiDxzkw7QA00EADDTTQQAMNNNBAA81waB6N7gAccMABBxxwwAEHHHDAAad8P8Rpm4U4bStOWw5CnFaNx4cvTqsh9yVOGx9VFm+akjMx5UxNOTNTztyUszDlLE05K1NO42v3UpCr0clV6eTqdHKVOrlanVy1Tq5eJ1exk6vZlavZle2udjW7cjW76tTs9oK0RlS5H02ICd+hcjuaEBOe+3I3mhATnvlyM5oQE553wYum5Jh6HI8xQYqm5JiqHM8wwYim5JjaHA8wQYem3IOmPsfTS3ChKTmmPsejq1yE1ogRPGhKTvj2CBY0JSc87oIDTckJj7tgQFNywuOu+M+kIFej4wmmyM+kIFep4yGmmM+kIFev4zmmaM+km9HV7HiUKc4zKcjV7HiaITxDeIbw7B4hwrN6ITxDeIbwLLMQniE86/SqEJ419u/wfIRnuwvh2Xb18PNVB+YFAAcccMABBxxwwAEHHHDAGTzOgekCoIEGGmiggQYaaKCBBhpohkPzaDQF4IADDjjggAMOOOCAAw445fshPNsshGdb4dlqIMKzNAThWdqb8CxNx0fjnZWmFv+ZMXbST+y0n9hZP7HzfmIX/cQu+4ld9RPb+Lq/M7enc5Z6Omipp5OWejpqqaezlno6bKmn05Z6Om6pp/NW9XTeqr7mWk/nrerpvFXKeWsvlssll3vmfKlt391yC50vte1NVu6o86W2vcXKDXa+1LY3mOC3M8b2c7paf1wQZHjG2H4OWOvPCoI5zxjbzxlr/UFB0OwZp0I/p6z1pwTByWeM7eeUtf6IUC7wy6UKPj9jbNu3VrD9GWPbXmCCC9AY2/YCE0yBxti2F5jiEXTm9nTOWn9SUKSDztyejlrrDwuKodCZ29Npa/15QdEZOudET+et9UcGxX3ozO3pvLX+1IAoEVEiosR7hIgS64UoEVEiosTMQpSIKLHTq0KU2Ni/w/MRJe4uRInb1cPPZR6YTwQccMABBxxwwAEHHHDAAWfwOAemGYEGGmiggQYaaKCBBhpooBkOzaPRm4ADDjjggAMOOOCAAw444JTv9zcQJf55/dOb9eXx9dvL9ejplx/hTTwsb+L68ufTl+vRfxzXzfvjxcWbUf0HVv+c83T85UAUitUQFIrV3hSKs9nRZLWzJjOLQtEYO+kndtpP7Kyf2Hk/sYt+Ypf9xK76iW2YDpy5PZ2z1NNBSz2dtNTTUUs9nbXU02FLPZ221NNxSz2dt6qn81b1Ndd6Om9VT+etUs5be4ViLrlcoehLbfvulisUfaltb7JyhaIvte0tVq5Q9KW2vcEEhaIxtp/T1frjgqBQNMb2c8Baf1YQFIrG2H7OWOsPCoJC0TgV+jllrT8lCApFY2w/p6z1R4RyhWIuVVAoGmPbvrWCQtEY2/YCExSKxti2F5igUDTGtr3AFIWiM7enc9b6k4KiUHTm9nTUWn9YUBSKztyeTlvrzwuKQtE5J3o6b60/MigKRWduT+et9acGFIooFFEo3iNEoVgvFIooFFEoZhYKRRSKnV4VCsXG/h2ej0Jxd6FQ3K4efmLzwEwj4IADDjjggAMOOOCAAw44g8c5MAEJNNBAAw000EADDTTQQAPNcGgejfgEHHDAAQcccMABBxxwwAGnfD8Uir+/Hq9C8e2bN2fvRp+dXt6qEwfiTJwMwZk42Zsz8fafS+VMppyJKWdqypmZcuamnIUpZ2nKWZlyGk4BKcjV6OSqdHJ1OrlKnVytTq5aJ1evk6vYydXsytXsynZXu5pduZpddWp2e5dfI6pc3ifEhO9QuZ5PiAnPfbmAT4gJz3y5Yk+ICc+7INFTckw9jseY4MVTckxVjmeYoLpTckxtjgeYYK9T7kFTn+PpJQjplBxTn+PRVe6Ya8QIUjklJ3x7BG2ckhMed0EMp+SEx11Qvyk54XFX5G5SkKvR8QRTfG1SkKvU8RBTFGxSkKvX8RxTrGrSzehqdjzKFFGaFORqdjzN7gX92+XpxeXp9btRGj0fPf3m7flHtYVq/vx/Hp8/H6fnt//8+frl80mKxty48f/offbZdLpaGbao+t9i0v8W0/63mPW/xbz/LRb9b7Hsf4tV/1s0Jntfe+zhfGf+xaxvj/jfbPn2iP+ll2+P+N/0+vbYwyFPezjlaQ/HPPNvlX3zL/4Xzr494n8X7dtjD+e82sMkr8pGeXW7x/F1tMe43V/jTiZVtZwbtog/Vtm2iP8wbFvEfxa2LeKPVbYt4hvXtkV84dq2iO9b2xbxxyrbFpmPVb494o9Vvj3i69a3R/yxyrdH/LHKt0f8scq3xx4OeeZjlW+PPRzzzMcq3/yLP1b59tjHHN/DOc/8YIBvj7JzPqn3+PLyNNijWrX7t1UpLRaTiWGL+GOVbYv4Y5Vti/hjlW2L+GOVbYv4xrVtEV+4ti3i+9a2RXzd2rbI/ECgb4/4uvXtEV+3vj3i69a3R3zd+vaIP1b59oh/ZNG3R/zTjL494h909O2xh3Oe+Vjl22MP5zzzscq3xx7OeeZjVW6Pab3Hn1+/jfZYtvtYVf8vLs3+ybBF/LHKtkX8scq2RfyxyrZF/LHKtkX8scq2RfyxyrZF/LHKtkV83dq2yHys8u0RX7e+PeLr1rdHfN369oivW98e8ccq3x7xxyrfHvHHKt8e8ccq3x57OOeZj1W+PfZwzjMfq3x77OGcZz5W5faY1Xv8x/ok2mPR7mPV55+/eLFYGLaIP1bZtog/Vtm2iD9W2baIP1bZtog/Vtm2iD9W2baIP1bZtoivW9sWmY9Vvj3i69a3R3zd+vaIr1vfHvF169sj/ljl2yP+WOXbI/5Y5dsj/ljl22MP5zzzscq3xx7OeeZjlW+PPZzzzMeq3B7z249ub9fRHvN2H6tevJjPLVvEH6tsW8Qfq2xbxB+rbFvEH6tsW8Qfq2xbxB+rbFvEH6tsW8TXrW2LzMcq3x7xdevbI75ufXvE161vj/i69e0Rf6zy7RF/rPLtEX+s8u0Rf6zy7bGHc575WOXbYw/nPPOxyrfHHs555mNVbo9FvcefLqIfi69m7T5WLZdVNZsZtog/Vtm2iD9W2baIP1bZtog/Vtm2iD9W2baIP1bZtog/Vtm2yHmnTFtkZWuuPeLr1rdHTmTl2iPnuHLtkdNfufbIOd9ce+R0cK49cqY41x45iZxrjz2c86x6zrXHHs55Vljn2mMP5zyruXu/x1/aGF43GubRp6Pz9S93BtlbcezTq59fPbs1wD6oir1zOV+tr//p4u35ydXT2fjZKKXZs9Gk/qdq1k43++sNxtZDfXLy4vh6/eri8t1nv55evTchb19/C2H0TcBXlyfry6/f1mLi1r+x5njX5PjT+vjq7eX6PUbtVt687z0buXmYh3mYh3mYh3mYh3mYh3mYh3mYh3mYh3mYh3mYh3mYh3mYh3mYh3mYh3mYh3mYh3mYh3mYh3mYh3mYh3mYh3mYh3mYh3mYh3mYh3mYh3mYh3mYh3n4/6uH3x1d/Ly+vDw9Wf/puP5ibToai99Xrb8ae9X8auw368vT9dXm67VPnt19gfjN2cX10dnp+frBr8he/d73dB/+Zu3V0e3/9Pybi7Pj69OL8xuoJ1fX6zfPv1//cHG5ftLum89/XL9an580X9D7X3s6Hz8bTepvLo/rLzLX//HkbP3DdQ32QPRd7NF3r9bXX5xf1+/PzRY/vD1/eUv69KPRfz4QcUe43v7ubx/8Lne9Tn8YPb1+fXp1dHX7p9Juo3rt/Kajm/fvi+OXr5/+P+CuaXf49VfHb9g3ud+9ubg6rQM/v/nlNq/mbtUxv0N1efFLN6Q7rNPzk3V9Hp6nZx1/9936sfQ3/nC6Pqv79nTznr4/J68uL96+WZ+M/u7vRv918+u/Hn33+vhq8/33+oB9tPvou9999OYNOTp+9erLeo+js/X5q+vXo38cVaP/MXry2dnZk9EnzWdcnZ2+XD99nj76dvyXjx48b/deycXl6OmPNy9l/A+jH2+22VR1s2/9a39/c+N0/wOqV13jTd63P/7l6K/rd6NPP/30/ZtXlnibuvlj/7HrS71b31+uj/9a8pt/6/h7uj6/fr82r+7TutZ1GTZNuRU5HH13fHV1+up8ffKiVkRcfXv7Tv6l7K28+4N+8/bq9dPSP4ubP9JP3v95lp+ks7NP2rzKo/qZpbtcXV9e/HXdbp/3zy3d6eLN8cvT63fttto8ufhV3W5xt1Vpyt1F0rxWSo5H58unXnfHuXnxjJ6PUte0LsetPetvz26naqvn//bQZ4p6ffzx6N/+/c+j//PVv389+uarr//8r//rn0d//Oqf//XF6F+++PqLdgFf3tza61+P649oo+uL0dXF5fXo/O1PNz14ObpVmlyNjq9e3nx4OT1/1SLx7r2vc3Ym8/Gz0fftL5fL9fXby/PRm+PLq/WXZxfH10+P6yv/o5s/yp1f+/7211q9mQ9/RNvZdvMSHgr+rV/Ty/bz5+1xvz3sT/9wsv7h+O3Z9ejN5cXNHbb+w7PRH/7bcvnixRdf/KFn8Qw44IADDjjggAMOOOCAA87/nzijq7c/3fy/wKOTdf2Lo5PjdzXR5foEGmiggQYaaKCBBhpooIEGmjzNL7c/mvUBzfdnb9fggAMOOOCAAw444IADDjjglOBs/3cDU/2/G/jN2+h/N3CSbv+G7bPPptPVClJIIYUUUkghhRRSSCGFFFJIIR0GaXVLenwdkY5vSSeTqlrOIYUUUkghhRRSSCGFFFJIIYUU0mGQTmrSLy9PA9JqdUua0mIxmUAKKaSQQgoppJBCCimkkEIKKaTDIJ3WpH9+/TYiXd6Srm7W7J8ghRRSSCGFFFJIIYUUUkghhRTSYZDOatL/WJ9EpItb0s8/f/FisYAUUkghhRRSSCGFFFJIIYUUUkiHQTq//TcTb9cR6fyW9MWL+RxSSCGFFFJIIYUUUkghhRRSSCEdCumiJv3TRWQWrGa3pMtlVc1mkEIKKaSQQgoppJBCCimkkEIK6d5I71BOLo9/efpg2K9H16fXZ+tvXh+/WR9dr3+9fvqHf7l4e3n1MMa7+7/z89Of1udXpxfnZ+ur24QHIj7+ePTZycnoeHSbNPrl9Pr16Orip/XoZPLA77z6+dXR8Zs36/OTp0/qvZ989MBvuFtHx9fXl0+f/Prk2Wg+7vib3t38pqr9b7q6fne2fo/3/Pj85euLy5vf/+Rs/UMH2k3GDxfn189/WZ++en1dZ3x/cXbSPuP9n83//ux/v3+Dv16/Xh9fj756+XL0zcvXf/go94f0jx9fvbw8fXP938Pn/OPHJ6c///7D4e+Jw26yRqcnnz55WTf4xc2LPj49X19+V42nT0a3b8WnT05Or96cHb/75PT87Oax59+fXbz86z88iQFvUt+/htH1uzc3v79+Nz7+8fjn4/e/mv2d9fr5+LJu2+jT0cnpT2/O1kfn61+++fnV0yf/7Xcgn42m4/Htfzx4fOrck+Pr45vgb//zydnx9+uzJ588OVn/cPz27Hr05vLih9Oz9ZNn7x/57tcnn6Sj8bMnPx+fvV0/+WS+OlrtrOXq2ZOX9Z1zk3Bzjbx48cUXT3571iq16iV10kvqtJfUWS+p815SF72kLntJXfWSmsb9xPZzulI/xyv1c75SPwcs9XPCUj9HLPVzxlI/hyz1c8qqfk5Z1dMM6+eUVf2csko4ZaOrtz/91Pif8S74hHC5PukQ2vK97Rba8p3tFtryfe0W2vLu6hba8ubqFtry3uoW2vLW6hba8s7qFtr2g0HH1F7OVNuPBR1TezlVbT8UdEzt5Vy1/UjQMbWXk9X2A0HH1F7OVtuPAx1T+5lXvZyttp8FOqaWnq1fTs+v1Y8B39dPaJ/a8m3tmNrybe2Y2vJt7Zja8srqmNryyuqY2vLK6pja8srqmNryyuqY2vbzQNfYfk5X208EXWP7OV9tPxN0je3nhLX9VNA1tp8z1vZzQdfYfk5Z208GXWN7mmH9nLK2Hw66xnY6ZX9p8xcOm78bHH06Ol//cvcXGrd/j/H06udXz27/QuLBv7m4+wvGq/X1P128PT+5ejobPxulNHs2mtT/VM3a/e3HrzcY2783PTl5cXy9fnVx+e6zX0+v3v8F3fataPG3mDcBX12erC+/flv/fVnr31hzvGty/Gl9fPX2cv0eo/4rv80fgfr3srd/kdTc6pv15en6aoN7s9PmD+TN2cX1Uf23Ww9uefV7r/th0quj2969uTg7vj69OL+BenJ1vX7z/Pv1DxeX6yftmvTH9av1+UnzBb3/tafzmxZM6ibUfxmW6v/Y/LXng38jfBd79N2r9fUX59f1+3OzxQ9vz1/ekj79aPSfLf7esyZcb3/3tw+ejXqd/jB6ev369Oqm1/Xva7dRvXZ+09HN+/fF8cvXT/8fcNe0O/zN3w1ucr97c3F1Wgd+fvPLbV7N3apjfofq8uKXbkh3WKfnJ+v64D5Pzzr+7rv1Y+lv/OF0fVb37enmPX1/Tl5dXrx9sz4Z/d3fjf7r5td/Pfru9fHV5j6pD9hHu4+++91Hb96Qo+NXr76s9zg6W5+/un49+sdRNfofoyefnZ09GX3SfMbV2enL9dPn6aNvx3/56MHzdu+VXFyOnv5481LG/zD68WabTVU3+9a/9vefjlL3P6B61TXe5H3741+O/rq+ud4+/fT9m1eWeJu6+WP/setLvVvfX66P/1rym3/r+Hu6Pr9+vzav7tO61nUZNk25HYxH373/mZ71ye1P9Vx9e/tO/qXsrbz7g37z9ur109I/i5s/0k/e/3mWn6Szs0/avMqj+pmlu1xdX178dd1un/fPLd3p4s3xy9Prd+222jy5+FXdbnG3VWnK3UXSvFZKjkfny6ded8e5efGMno9S17Qux60962/Pbqdqq+f/9tBninp9/PHo3/79z6P/89W/fz365quv//yv/+ufR3/86p//9cXoX774+ot2AV/e3NrrX4/rj2ij64vR1cXNB+nztz/d9ODl6PYj4tXo+OrlzYeX0/NXLRLv3vs6Z2cyHz8bfd/+crlcX7+9PB+9Ob68Wn95dnF8/fS4vvI/uvmj3Pm1729/rdWb+fBHtJ1tNy/hoeDf/gY/e/nBX8BufsCy/gvVv8mPgoIDDjjggAMOOOCAAw444Awe5/4PuNREl+sTaKCBBhpooIEGGmiggQYaaPI0934ksKapf8QPHHDAAQcccMABBxxwwAEHnL+h8fDP65/erC+Pr99erkdPv/wI5+FBOQ//47hu3L+sb//rs5++P12fX4/qP7LafLg+eXvz/j8fLcZfDkSCOBuCBHG2Nwni7VdPSyVMppyJKWdqypmZcuamnIUpZ2nKWZlyGnYBKcjV6OSqdHJ1OrlKnVytTq5aJ1evk6vYydXsytXsynZXu5pduZpddWp2e2lfI6pc0yfEhO9QuYpPiAnPfbluT4gJz3y5Uk+ICc+7oM1Tckw9jseYIMNTckxVjmeYoLhTckxtjgeYIK5T7kFTn+PpJejolBxTn+PRVS6Za8QIWjklJ3x7BHWckhMed0EPp+SEx11QwCk54XFXNG9SkKvR8QRT5G1SkKvU8RBTlGxSkKvX8RxTRGvSzehqdjzKFH2aFORqdjzNkKINQorGwzzMwzzMwzzMwzzMwzzMwzzMwzzMwzzMw4f08Luji5/Xl5enJ+s/Hdf/oiodjZHi77wSpPjbhRS/00KKjxS/w0KK/+FCiv/hQorfcSHFR4r/uwspPjjggAMOOOCAAw444IADDjhDUEpCAw000EADDTTQQAMNNNAMh+bRqCzBAQcccMABBxxwwAEHHHDK9/sbSPE/P/1pfX51enF+tr66Qol/WEr8i8u/jr744YfTl6fr85fvtiL8/SrwN8/+4JHd//vun9//9zZ98w/b//r+4uRd/d+vr386++//5f8CFBvDDQ=="
               },
               {
                  "name" : "annual_peak_electric_demand",
                  "units" : "kW",
                  "value" : 57.689109999999999
               },
               {
                  "name" : "first_year_capital_cost",
                  "units" : "$",
                  "value" : 0
               },
               {
                  "name" : "annual_utility_cost",
                  "units" : "$",
                  "value" : 22853.369999999999
               },
               {
                  "name" : "total_lifecycle_cost",
                  "units" : "$",
                  "value" : 382620.59999999998
               }
            ],
            "step_warnings" : []
         }
      }
   ],
   "updated_at" : "20170710T183738Z",
   "weather_file" : "USA_CO_Denver.Intl.AP.725650_TMY3.epw"
}
