{
   "completed_at" : "20170710T185214Z",
   "completed_status" : "Success",
   "created_at" : "2017-07-10 18:46:08 +0000",
   "current_step" : 5,
   "description" : "",
   "eplusout_err" : "Program Version,EnergyPlus, Version 8.7.0-78a111df4a, YMD=2017.07.10 18:48,IDD_Version 8.7.0\n   ************* IDF Context for following error/warning message:\n   ************* Note -- lines truncated at 300 characters, if necessary...\n   *************      5 Building,\n   ************* indicated Name=NECB 2011-LargeHotel-NECB HDD Method-CAN_MB_Churchill.719130_CWEC.epw created: 2017-07-10 18:46:14 +0000\n   ************* Only last 1 lines before error line shown.....\n   *************      6   NECB 2011-LargeHotel-NECB HDD Method-CAN_MB_Churchill.719130_CWEC.epw created: 2017-07-10 18:46:14 +0000, !- Name\n   ** Warning ** IP: IDF line~6 Alpha Argument length exceeds maximum, will be truncated=  NECB 2011-LargeHotel-NECB HDD Method-CAN_MB_Churchill.719130_CWEC.epw created: 2017-07-10 18:46:14 +000\n   **   ~~~   ** Will be processed as Alpha=NECB 2011-LARGEHOTEL-NECB HDD METHOD-CAN_MB_CHURCHILL.719130_CWEC.EPW CREATED: 2017-07-10 18:46:14 +0000\n   ************* Beginning Zone Sizing Calculations\n   ** Warning ** ProcessScheduleInput: Schedule:Day:Interval=\"ECONOMIZER MAX OA FRACTION 100 PCT DEFAULT\", Blank Schedule Type Limits Name input -- will not be validated.\n   ** Warning ** ProcessScheduleInput: Schedule:Day:Interval=\"SCHEDULE DAY 1\", Blank Schedule Type Limits Name input -- will not be validated.\n   ** Warning ** ProcessScheduleInput: Schedule:Day:Interval=\"SCHEDULE DAY 10\", Blank Schedule Type Limits Name input -- will not be validated.\n   ** Warning ** ProcessScheduleInput: Schedule:Day:Interval=\"SCHEDULE DAY 11\", Blank Schedule Type Limits Name input -- will not be validated.\n   ** Warning ** ProcessScheduleInput: Schedule:Day:Interval=\"SCHEDULE DAY 12\", Blank Schedule Type Limits Name input -- will not be validated.\n   ** Warning ** ProcessScheduleInput: Schedule:Day:Interval=\"SCHEDULE DAY 13\", Blank Schedule Type Limits Name input -- will not be validated.\n   ** Warning ** ProcessScheduleInput: Schedule:Day:Interval=\"SCHEDULE DAY 14\", Blank Schedule Type Limits Name input -- will not be validated.\n   ** Warning ** ProcessScheduleInput: Schedule:Day:Interval=\"SCHEDULE DAY 15\", Blank Schedule Type Limits Name input -- will not be validated.\n   ** Warning ** ProcessScheduleInput: Schedule:Day:Interval=\"SCHEDULE DAY 16\", Blank Schedule Type Limits Name input -- will not be validated.\n   ** Warning ** ProcessScheduleInput: Schedule:Day:Interval=\"SCHEDULE DAY 17\", Blank Schedule Type Limits Name input -- will not be validated.\n   ** Warning ** ProcessScheduleInput: Schedule:Day:Interval=\"SCHEDULE DAY 18\", Blank Schedule Type Limits Name input -- will not be validated.\n   ** Warning ** ProcessScheduleInput: Schedule:Day:Interval=\"SCHEDULE DAY 19\", Blank Schedule Type Limits Name input -- will not be validated.\n   ** Warning ** ProcessScheduleInput: Schedule:Day:Interval=\"SCHEDULE DAY 2\", Blank Schedule Type Limits Name input -- will not be validated.\n   ** Warning ** ProcessScheduleInput: Schedule:Day:Interval=\"SCHEDULE DAY 20\", Blank Schedule Type Limits Name input -- will not be validated.\n   ** Warning ** ProcessScheduleInput: Schedule:Day:Interval=\"SCHEDULE DAY 21\", Blank Schedule Type Limits Name input -- will not be validated.\n   ** Warning ** ProcessScheduleInput: Schedule:Day:Interval=\"SCHEDULE DAY 22\", Blank Schedule Type Limits Name input -- will not be validated.\n   ** Warning ** ProcessScheduleInput: Schedule:Day:Interval=\"SCHEDULE DAY 23\", Blank Schedule Type Limits Name input -- will not be validated.\n   ** Warning ** ProcessScheduleInput: Schedule:Day:Interval=\"SCHEDULE DAY 24\", Blank Schedule Type Limits Name input -- will not be validated.\n   ** Warning ** ProcessScheduleInput: Schedule:Day:Interval=\"SCHEDULE DAY 25\", Blank Schedule Type Limits Name input -- will not be validated.\n   ** Warning ** ProcessScheduleInput: Schedule:Day:Interval=\"SCHEDULE DAY 26\", Blank Schedule Type Limits Name input -- will not be validated.\n   ** Warning ** ProcessScheduleInput: Schedule:Day:Interval=\"SCHEDULE DAY 27\", Blank Schedule Type Limits Name input -- will not be validated.\n   ** Warning ** ProcessScheduleInput: Schedule:Day:Interval=\"SCHEDULE DAY 28\", Blank Schedule Type Limits Name input -- will not be validated.\n   ** Warning ** ProcessScheduleInput: Schedule:Day:Interval=\"SCHEDULE DAY 29\", Blank Schedule Type Limits Name input -- will not be validated.\n   ** Warning ** ProcessScheduleInput: Schedule:Day:Interval=\"SCHEDULE DAY 30\", Blank Schedule Type Limits Name input -- will not be validated.\n   ** Warning ** ProcessScheduleInput: Schedule:Day:Interval=\"SCHEDULE DAY 31\", Blank Schedule Type Limits Name input -- will not be validated.\n   ** Warning ** ProcessScheduleInput: Schedule:Day:Interval=\"SCHEDULE DAY 32\", Blank Schedule Type Limits Name input -- will not be validated.\n   ** Warning ** ProcessScheduleInput: Schedule:Day:Interval=\"SCHEDULE DAY 33\", Blank Schedule Type Limits Name input -- will not be validated.\n   ** Warning ** ProcessScheduleInput: Schedule:Day:Interval=\"SCHEDULE DAY 34\", Blank Schedule Type Limits Name input -- will not be validated.\n   ** Warning ** ProcessScheduleInput: Schedule:Day:Interval=\"SCHEDULE DAY 35\", Blank Schedule Type Limits Name input -- will not be validated.\n   ** Warning ** ProcessScheduleInput: Schedule:Day:Interval=\"SCHEDULE DAY 36\", Blank Schedule Type Limits Name input -- will not be validated.\n   ** Warning ** ProcessScheduleInput: Schedule:Day:Interval=\"SCHEDULE DAY 37\", Blank Schedule Type Limits Name input -- will not be validated.\n   ** Warning ** ProcessScheduleInput: Schedule:Day:Interval=\"SCHEDULE DAY 38\", Blank Schedule Type Limits Name input -- will not be validated.\n   ** Warning ** ProcessScheduleInput: Schedule:Day:Interval=\"SCHEDULE DAY 39\", Blank Schedule Type Limits Name input -- will not be validated.\n   ** Warning ** ProcessScheduleInput: Schedule:Day:Interval=\"SCHEDULE DAY 40\", Blank Schedule Type Limits Name input -- will not be validated.\n   ** Warning ** ProcessScheduleInput: Schedule:Day:Interval=\"SCHEDULE DAY 41\", Blank Schedule Type Limits Name input -- will not be validated.\n   ** Warning ** ProcessScheduleInput: Schedule:Day:Interval=\"SCHEDULE DAY 42\", Blank Schedule Type Limits Name input -- will not be validated.\n   ** Warning ** ProcessScheduleInput: Schedule:Day:Interval=\"SCHEDULE DAY 43\", Blank Schedule Type Limits Name input -- will not be validated.\n   ** Warning ** ProcessScheduleInput: Schedule:Day:Interval=\"SCHEDULE DAY 44\", Blank Schedule Type Limits Name input -- will not be validated.\n   ** Warning ** ProcessScheduleInput: Schedule:Day:Interval=\"SCHEDULE DAY 45\", Blank Schedule Type Limits Name input -- will not be validated.\n   ** Warning ** ProcessScheduleInput: Schedule:Day:Interval=\"SCHEDULE DAY 46\", Blank Schedule Type Limits Name input -- will not be validated.\n   ** Warning ** ProcessScheduleInput: Schedule:Day:Interval=\"SCHEDULE DAY 47\", Blank Schedule Type Limits Name input -- will not be validated.\n   ** Warning ** ProcessScheduleInput: Schedule:Day:Interval=\"SCHEDULE DAY 48\", Blank Schedule Type Limits Name input -- will not be validated.\n   ** Warning ** ProcessScheduleInput: Schedule:Day:Interval=\"SCHEDULE DAY 49\", Blank Schedule Type Limits Name input -- will not be validated.\n   ** Warning ** ProcessScheduleInput: Schedule:Day:Interval=\"SCHEDULE DAY 50\", Blank Schedule Type Limits Name input -- will not be validated.\n   ** Warning ** ProcessScheduleInput: Schedule:Day:Interval=\"SCHEDULE DAY 51\", Blank Schedule Type Limits Name input -- will not be validated.\n   ** Warning ** ProcessScheduleInput: Schedule:Day:Interval=\"SCHEDULE DAY 52\", Blank Schedule Type Limits Name input -- will not be validated.\n   ** Warning ** ProcessScheduleInput: Schedule:Day:Interval=\"SCHEDULE DAY 53\", Blank Schedule Type Limits Name input -- will not be validated.\n   ** Warning ** ProcessScheduleInput: Schedule:Day:Interval=\"SCHEDULE DAY 54\", Blank Schedule Type Limits Name input -- will not be validated.\n   ** Warning ** ProcessScheduleInput: Schedule:Day:Interval=\"SCHEDULE DAY 55\", Blank Schedule Type Limits Name input -- will not be validated.\n   ** Warning ** ProcessScheduleInput: Schedule:Day:Interval=\"SCHEDULE DAY 56\", Blank Schedule Type Limits Name input -- will not be validated.\n   ** Warning ** ProcessScheduleInput: Schedule:Day:Interval=\"SCHEDULE DAY 57\", Blank Schedule Type Limits Name input -- will not be validated.\n   ** Warning ** ProcessScheduleInput: Schedule:Day:Interval=\"SCHEDULE DAY 58\", Blank Schedule Type Limits Name input -- will not be validated.\n   ** Warning ** ProcessScheduleInput: Schedule:Day:Interval=\"SCHEDULE DAY 59\", Blank Schedule Type Limits Name input -- will not be validated.\n   ** Warning ** ProcessScheduleInput: Schedule:Day:Interval=\"SCHEDULE DAY 60\", Blank Schedule Type Limits Name input -- will not be validated.\n   ** Warning ** ProcessScheduleInput: Schedule:Day:Interval=\"SCHEDULE DAY 61\", Blank Schedule Type Limits Name input -- will not be validated.\n   ** Warning ** ProcessScheduleInput: Schedule:Day:Interval=\"SCHEDULE DAY 62\", Blank Schedule Type Limits Name input -- will not be validated.\n   ** Warning ** ProcessScheduleInput: Schedule:Day:Interval=\"SCHEDULE DAY 63\", Blank Schedule Type Limits Name input -- will not be validated.\n   ** Warning ** ProcessScheduleInput: Schedule:Day:Interval=\"SCHEDULE DAY 64\", Blank Schedule Type Limits Name input -- will not be validated.\n   ** Warning ** ProcessScheduleInput: Schedule:Day:Interval=\"SCHEDULE DAY 65\", Blank Schedule Type Limits Name input -- will not be validated.\n   ** Warning ** ProcessScheduleInput: Schedule:Day:Interval=\"SCHEDULE DAY 66\", Blank Schedule Type Limits Name input -- will not be validated.\n   ** Warning ** ProcessScheduleInput: Schedule:Day:Interval=\"SCHEDULE DAY 67\", Blank Schedule Type Limits Name input -- will not be validated.\n   ** Warning ** ProcessScheduleInput: Schedule:Day:Interval=\"SCHEDULE DAY 68\", Blank Schedule Type Limits Name input -- will not be validated.\n   ** Warning ** ProcessScheduleInput: Schedule:Day:Interval=\"SCHEDULE DAY 69\", Blank Schedule Type Limits Name input -- will not be validated.\n   ** Warning ** ProcessScheduleInput: Schedule:Day:Interval=\"SCHEDULE DAY 70\", Blank Schedule Type Limits Name input -- will not be validated.\n   ** Warning ** ProcessScheduleInput: Schedule:Day:Interval=\"SCHEDULE DAY 71\", Blank Schedule Type Limits Name input -- will not be validated.\n   ** Warning ** ProcessScheduleInput: Schedule:Day:Interval=\"SCHEDULE DAY 72\", Blank Schedule Type Limits Name input -- will not be validated.\n   ** Warning ** ProcessScheduleInput: Schedule:Day:Interval=\"SCHEDULE DAY 73\", Blank Schedule Type Limits Name input -- will not be validated.\n   ** Warning ** ProcessScheduleInput: Schedule:Day:Interval=\"SCHEDULE DAY 74\", Blank Schedule Type Limits Name input -- will not be validated.\n   ** Warning ** ProcessScheduleInput: Schedule:Day:Interval=\"SCHEDULE DAY 75\", Blank Schedule Type Limits Name input -- will not be validated.\n   ** Warning ** ProcessScheduleInput: Schedule:Day:Interval=\"SCHEDULE DAY 76\", Blank Schedule Type Limits Name input -- will not be validated.\n   ** Warning ** ProcessScheduleInput: Schedule:Day:Interval=\"SCHEDULE DAY 77\", Blank Schedule Type Limits Name input -- will not be validated.\n   ** Warning ** ProcessScheduleInput: Schedule:Day:Interval=\"SCHEDULE DAY 78\", Blank Schedule Type Limits Name input -- will not be validated.\n   ** Warning ** ProcessScheduleInput: Schedule:Day:Interval=\"SCHEDULE DAY 8\", Blank Schedule Type Limits Name input -- will not be validated.\n   ** Warning ** ProcessScheduleInput: Schedule:Day:Interval=\"SCHEDULE DAY 9\", Blank Schedule Type Limits Name input -- will not be validated.\n   ** Warning ** ProcessScheduleInput: Schedule:Year=\"ECONOMIZER MAX OA FRACTION 100 PCT\", Blank Schedule Type Limits Name input -- will not be validated.\n   ** Warning ** ProcessScheduleInput: Schedule:Year=\"SCHEDULE RULESET 10\", Blank Schedule Type Limits Name input -- will not be validated.\n   ** Warning ** ProcessScheduleInput: Schedule:Year=\"SCHEDULE RULESET 11\", Blank Schedule Type Limits Name input -- will not be validated.\n   ** Warning ** ProcessScheduleInput: Schedule:Year=\"SCHEDULE RULESET 12\", Blank Schedule Type Limits Name input -- will not be validated.\n   ** Warning ** ProcessScheduleInput: Schedule:Year=\"SCHEDULE RULESET 13\", Blank Schedule Type Limits Name input -- will not be validated.\n   ** Warning ** ProcessScheduleInput: Schedule:Year=\"SCHEDULE RULESET 14\", Blank Schedule Type Limits Name input -- will not be validated.\n   ** Warning ** ProcessScheduleInput: Schedule:Year=\"SCHEDULE RULESET 15\", Blank Schedule Type Limits Name input -- will not be validated.\n   ** Warning ** ProcessScheduleInput: Schedule:Year=\"SCHEDULE RULESET 16\", Blank Schedule Type Limits Name input -- will not be validated.\n   ** Warning ** ProcessScheduleInput: Schedule:Year=\"SCHEDULE RULESET 17\", Blank Schedule Type Limits Name input -- will not be validated.\n   ** Warning ** ProcessScheduleInput: Schedule:Year=\"SCHEDULE RULESET 18\", Blank Schedule Type Limits Name input -- will not be validated.\n   ** Warning ** ProcessScheduleInput: Schedule:Year=\"SCHEDULE RULESET 19\", Blank Schedule Type Limits Name input -- will not be validated.\n   ** Warning ** ProcessScheduleInput: Schedule:Year=\"SCHEDULE RULESET 20\", Blank Schedule Type Limits Name input -- will not be validated.\n   ** Warning ** ProcessScheduleInput: Schedule:Year=\"SCHEDULE RULESET 21\", Blank Schedule Type Limits Name input -- will not be validated.\n   ** Warning ** ProcessScheduleInput: Schedule:Year=\"SCHEDULE RULESET 22\", Blank Schedule Type Limits Name input -- will not be validated.\n   ** Warning ** ProcessScheduleInput: Schedule:Year=\"SCHEDULE RULESET 23\", Blank Schedule Type Limits Name input -- will not be validated.\n   ** Warning ** ProcessScheduleInput: Schedule:Year=\"SCHEDULE RULESET 24\", Blank Schedule Type Limits Name input -- will not be validated.\n   ** Warning ** ProcessScheduleInput: Schedule:Year=\"SCHEDULE RULESET 25\", Blank Schedule Type Limits Name input -- will not be validated.\n   ** Warning ** ProcessScheduleInput: Schedule:Year=\"SCHEDULE RULESET 26\", Blank Schedule Type Limits Name input -- will not be validated.\n   ** Warning ** ProcessScheduleInput: Schedule:Year=\"SCHEDULE RULESET 27\", Blank Schedule Type Limits Name input -- will not be validated.\n   ** Warning ** ProcessScheduleInput: Schedule:Year=\"SCHEDULE RULESET 28\", Blank Schedule Type Limits Name input -- will not be validated.\n   ** Warning ** ProcessScheduleInput: Schedule:Year=\"SCHEDULE RULESET 29\", Blank Schedule Type Limits Name input -- will not be validated.\n   ** Warning ** ProcessScheduleInput: Schedule:Year=\"SCHEDULE RULESET 3\", Blank Schedule Type Limits Name input -- will not be validated.\n   ** Warning ** ProcessScheduleInput: Schedule:Year=\"SCHEDULE RULESET 30\", Blank Schedule Type Limits Name input -- will not be validated.\n   ** Warning ** ProcessScheduleInput: Schedule:Year=\"SCHEDULE RULESET 31\", Blank Schedule Type Limits Name input -- will not be validated.\n   ** Warning ** ProcessScheduleInput: Schedule:Year=\"SCHEDULE RULESET 32\", Blank Schedule Type Limits Name input -- will not be validated.\n   ** Warning ** ProcessScheduleInput: Schedule:Year=\"SCHEDULE RULESET 33\", Blank Schedule Type Limits Name input -- will not be validated.\n   ** Warning ** ProcessScheduleInput: Schedule:Year=\"SCHEDULE RULESET 34\", Blank Schedule Type Limits Name input -- will not be validated.\n   ** Warning ** ProcessScheduleInput: Schedule:Year=\"SCHEDULE RULESET 35\", Blank Schedule Type Limits Name input -- will not be validated.\n   ** Warning ** ProcessScheduleInput: Schedule:Year=\"SCHEDULE RULESET 36\", Blank Schedule Type Limits Name input -- will not be validated.\n   ** Warning ** ProcessScheduleInput: Schedule:Year=\"SCHEDULE RULESET 37\", Blank Schedule Type Limits Name input -- will not be validated.\n   ** Warning ** ProcessScheduleInput: Schedule:Year=\"SCHEDULE RULESET 38\", Blank Schedule Type Limits Name input -- will not be validated.\n   ** Warning ** ProcessScheduleInput: Schedule:Year=\"SCHEDULE RULESET 39\", Blank Schedule Type Limits Name input -- will not be validated.\n   ** Warning ** ProcessScheduleInput: Schedule:Year=\"SCHEDULE RULESET 4\", Blank Schedule Type Limits Name input -- will not be validated.\n   ** Warning ** ProcessScheduleInput: Schedule:Year=\"SCHEDULE RULESET 40\", Blank Schedule Type Limits Name input -- will not be validated.\n   ** Warning ** ProcessScheduleInput: Schedule:Year=\"SCHEDULE RULESET 41\", Blank Schedule Type Limits Name input -- will not be validated.\n   ** Warning ** ProcessScheduleInput: Schedule:Year=\"SCHEDULE RULESET 42\", Blank Schedule Type Limits Name input -- will not be validated.\n   ** Warning ** ProcessScheduleInput: Schedule:Year=\"SCHEDULE RULESET 43\", Blank Schedule Type Limits Name input -- will not be validated.\n   ** Warning ** ProcessScheduleInput: Schedule:Year=\"SCHEDULE RULESET 44\", Blank Schedule Type Limits Name input -- will not be validated.\n   ** Warning ** ProcessScheduleInput: Schedule:Year=\"SCHEDULE RULESET 45\", Blank Schedule Type Limits Name input -- will not be validated.\n   ** Warning ** ProcessScheduleInput: Schedule:Year=\"SCHEDULE RULESET 46\", Blank Schedule Type Limits Name input -- will not be validated.\n   ** Warning ** ProcessScheduleInput: Schedule:Year=\"SCHEDULE RULESET 47\", Blank Schedule Type Limits Name input -- will not be validated.\n   ** Warning ** ProcessScheduleInput: Schedule:Year=\"SCHEDULE RULESET 48\", Blank Schedule Type Limits Name input -- will not be validated.\n   ** Warning ** ProcessScheduleInput: Schedule:Year=\"SCHEDULE RULESET 49\", Blank Schedule Type Limits Name input -- will not be validated.\n   ** Warning ** ProcessScheduleInput: Schedule:Year=\"SCHEDULE RULESET 5\", Blank Schedule Type Limits Name input -- will not be validated.\n   ** Warning ** ProcessScheduleInput: Schedule:Year=\"SCHEDULE RULESET 50\", Blank Schedule Type Limits Name input -- will not be validated.\n   ** Warning ** ProcessScheduleInput: Schedule:Year=\"SCHEDULE RULESET 51\", Blank Schedule Type Limits Name input -- will not be validated.\n   ** Warning ** ProcessScheduleInput: Schedule:Year=\"SCHEDULE RULESET 52\", Blank Schedule Type Limits Name input -- will not be validated.\n   ** Warning ** ProcessScheduleInput: Schedule:Year=\"SCHEDULE RULESET 53\", Blank Schedule Type Limits Name input -- will not be validated.\n   ** Warning ** ProcessScheduleInput: Schedule:Year=\"SCHEDULE RULESET 54\", Blank Schedule Type Limits Name input -- will not be validated.\n   ** Warning ** ProcessScheduleInput: Schedule:Year=\"SCHEDULE RULESET 55\", Blank Schedule Type Limits Name input -- will not be validated.\n   ** Warning ** ProcessScheduleInput: Schedule:Year=\"SCHEDULE RULESET 56\", Blank Schedule Type Limits Name input -- will not be validated.\n   ** Warning ** ProcessScheduleInput: Schedule:Year=\"SCHEDULE RULESET 57\", Blank Schedule Type Limits Name input -- will not be validated.\n   ** Warning ** ProcessScheduleInput: Schedule:Year=\"SCHEDULE RULESET 58\", Blank Schedule Type Limits Name input -- will not be validated.\n   ** Warning ** ProcessScheduleInput: Schedule:Year=\"SCHEDULE RULESET 59\", Blank Schedule Type Limits Name input -- will not be validated.\n   ** Warning ** ProcessScheduleInput: Schedule:Year=\"SCHEDULE RULESET 6\", Blank Schedule Type Limits Name input -- will not be validated.\n   ** Warning ** ProcessScheduleInput: Schedule:Year=\"SCHEDULE RULESET 7\", Blank Schedule Type Limits Name input -- will not be validated.\n   ** Warning ** ProcessScheduleInput: Schedule:Year=\"SCHEDULE RULESET 8\", Blank Schedule Type Limits Name input -- will not be validated.\n   ** Warning ** ProcessScheduleInput: Schedule:Year=\"SCHEDULE RULESET 9\", Blank Schedule Type Limits Name input -- will not be validated.\n   ** Warning ** ProcessScheduleInput: Schedule:Constant=\"ALWAYS OFF DISCRETE\", Blank Schedule Type Limits Name input -- will not be validated.\n   ** Warning ** ProcessScheduleInput: Schedule:Constant=\"ALWAYS ON CONTINUOUS\", Blank Schedule Type Limits Name input -- will not be validated.\n   ** Warning ** CheckUsedConstructions: There are 23 nominally unused constructions in input.\n   **   ~~~   ** For explicit details on each unused construction, use Output:Diagnostics,DisplayExtraWarnings;\n   ** Warning ** GetInternalHeatGains: ElectricEquipment Combination of ZoneList and Object Name generate a name too long.\n   **   ~~~   ** Object Name=\"SPACE FUNCTION HOSPITAL - LAUNDRY/WASHING ELEC EQUIP\".\n   **   ~~~   ** ZoneList/Zone Name=\"SP-LAUNDRY_FLR_1 SYS-3 FLR-1 SCH-C HPLCMT-EAST ZN\".\n   **   ~~~   ** Item length=[101] > Maximum Length=[100]. You may need to shorten the names.\n   **   ~~~   ** Shortening the Object Name by [2] characters will assure uniqueness for this ZoneList.\n   **   ~~~   ** name that will be used (may be needed in reporting)=\"SP-LAUNDRY_FLR_1 SYS-3 FLR-1 SCH-C HPLCMT-EAST ZN SPACE FUNCTION HOSPITAL - LAUNDRY/WASHING ELEC EQUIP\".\n   ** Warning ** GetInternalHeatGains: ElectricEquipment Combination of ZoneList and Object Name generate a name too long.\n   **   ~~~   ** Object Name=\"SPACE FUNCTION HOTEL/MOTEL - ROOMS ELEC EQUIP\".\n   **   ~~~   ** ZoneList/Zone Name=\"SP-ROOM_3_MULT19_FLR_3 SYS-1 FLR-2 SCH-F HPLCMT-SOUTH ZN\".\n   **   ~~~   ** Item length=[101] > Maximum Length=[100]. You may need to shorten the names.\n   **   ~~~   ** Shortening the Object Name by [2] characters will assure uniqueness for this ZoneList.\n   **   ~~~   ** name that will be used (may be needed in reporting)=\"SP-ROOM_3_MULT19_FLR_3 SYS-1 FLR-2 SCH-F HPLCMT-SOUTH ZN SPACE FUNCTION HOTEL/MOTEL - ROOMS ELEC EQUIP\".\n   ** Warning ** GetInternalHeatGains: ElectricEquipment Combination of ZoneList and Object Name generate a name too long.\n   **   ~~~   ** Object Name=\"SPACE FUNCTION HOTEL/MOTEL - ROOMS ELEC EQUIP\".\n   **   ~~~   ** ZoneList/Zone Name=\"SP-ROOM_4_MULT19_FLR_3 SYS-1 FLR-2 SCH-F HPLCMT-NORTH ZN\".\n   **   ~~~   ** Item length=[101] > Maximum Length=[100]. You may need to shorten the names.\n   **   ~~~   ** Shortening the Object Name by [2] characters will assure uniqueness for this ZoneList.\n   **   ~~~   ** name that will be used (may be needed in reporting)=\"SP-ROOM_4_MULT19_FLR_3 SYS-1 FLR-2 SCH-F HPLCMT-NORTH ZN SPACE FUNCTION HOTEL/MOTEL - ROOMS ELEC EQUIP\".\n   ** Warning ** Calculated design heating load for zone=SP-BASEMENT SYS-4 FLR-3 SCH-E HPLCMT-NORTH ZN is zero.\n   **   ~~~   ** Check Sizing:Zone and ZoneControl:Thermostat inputs.\n   ** Warning ** Calculated design heating load for zone=SP-LOBBY_FLR_1 SYS-6 FLR-1 SCH-H HPLCMT-NORTH ZN is zero.\n   **   ~~~   ** Check Sizing:Zone and ZoneControl:Thermostat inputs.\n   ************* Beginning System Sizing Calculations\n   ** Warning ** Since Zone Minimum Air Flow Input Method = CONSTANT, input for Fixed Minimum Air Flow Rate will be ignored.\n   **   ~~~   ** Occurs in AirTerminal:SingleDuct:VAV:Reheat = AIR TERMINAL SINGLE DUCT VAV REHEAT 4\n   ** Warning ** Since Zone Minimum Air Flow Input Method = CONSTANT, input for Fixed Minimum Air Flow Rate will be ignored.\n   **   ~~~   ** Occurs in AirTerminal:SingleDuct:VAV:Reheat = AIR TERMINAL SINGLE DUCT VAV REHEAT 3\n   ** Warning ** Since Zone Minimum Air Flow Input Method = CONSTANT, input for Fixed Minimum Air Flow Rate will be ignored.\n   **   ~~~   ** Occurs in AirTerminal:SingleDuct:VAV:Reheat = AIR TERMINAL SINGLE DUCT VAV REHEAT 1\n   ** Warning ** Since Zone Minimum Air Flow Input Method = CONSTANT, input for Fixed Minimum Air Flow Rate will be ignored.\n   **   ~~~   ** Occurs in AirTerminal:SingleDuct:VAV:Reheat = AIR TERMINAL SINGLE DUCT VAV REHEAT 5\n   ** Warning ** Since Zone Minimum Air Flow Input Method = CONSTANT, input for Fixed Minimum Air Flow Rate will be ignored.\n   **   ~~~   ** Occurs in AirTerminal:SingleDuct:VAV:Reheat = AIR TERMINAL SINGLE DUCT VAV REHEAT 2\n   ** Warning ** GetDXCoils: Coil:Cooling:DX:SingleSpeed=\"COIL COOLING DX SINGLE SPEED 8 54KBTU/HR 9.3EER\", invalid\n   **   ~~~   ** ...Part Load Fraction Correlation Curve Name = DXCOOL-NECB2011-REF-COOLPLFFPLR 16 has out of range value.\n   **   ~~~   ** ...Curve maximum must be <= 1.0, curve max at PLR = 0.99 is 1.015\n   **   ~~~   ** ...Setting curve maximum to 1.0 and simulation continues.\n   ** Warning ** GetDXCoils: Coil:Cooling:DX:SingleSpeed=\"COIL COOLING DX SINGLE SPEED 5 15KBTU/HR 9.3EER\", invalid\n   **   ~~~   ** ...Part Load Fraction Correlation Curve Name = DXCOOL-NECB2011-REF-COOLPLFFPLR 13 has out of range value.\n   **   ~~~   ** ...Curve maximum must be <= 1.0, curve max at PLR = 0.99 is 1.015\n   **   ~~~   ** ...Setting curve maximum to 1.0 and simulation continues.\n   ** Warning ** GetDXCoils: Coil:Cooling:DX:SingleSpeed=\"COIL COOLING DX SINGLE SPEED 9 18KBTU/HR 9.3EER\", invalid\n   **   ~~~   ** ...Part Load Fraction Correlation Curve Name = DXCOOL-NECB2011-REF-COOLPLFFPLR 17 has out of range value.\n   **   ~~~   ** ...Curve maximum must be <= 1.0, curve max at PLR = 0.99 is 1.015\n   **   ~~~   ** ...Setting curve maximum to 1.0 and simulation continues.\n   ** Warning ** GetDXCoils: Coil:Cooling:DX:SingleSpeed=\"COIL COOLING DX SINGLE SPEED 6 15KBTU/HR 9.4EER\", invalid\n   **   ~~~   ** ...Part Load Fraction Correlation Curve Name = DXCOOL-NECB2011-REF-COOLPLFFPLR 14 has out of range value.\n   **   ~~~   ** ...Curve maximum must be <= 1.0, curve max at PLR = 0.99 is 1.015\n   **   ~~~   ** ...Setting curve maximum to 1.0 and simulation continues.\n   ** Warning ** GetDXCoils: Coil:Cooling:DX:SingleSpeed=\"COIL COOLING DX SINGLE SPEED 10 17KBTU/HR 9.3EER\", invalid\n   **   ~~~   ** ...Part Load Fraction Correlation Curve Name = DXCOOL-NECB2011-REF-COOLPLFFPLR 1 has out of range value.\n   **   ~~~   ** ...Curve maximum must be <= 1.0, curve max at PLR = 0.99 is 1.015\n   **   ~~~   ** ...Setting curve maximum to 1.0 and simulation continues.\n   ** Warning ** GetDXCoils: Coil:Cooling:DX:SingleSpeed=\"COIL COOLING DX SINGLE SPEED 7 6KBTU/HR 11.0EER\", invalid\n   **   ~~~   ** ...Part Load Fraction Correlation Curve Name = DXCOOL-NECB2011-REF-COOLPLFFPLR 15 has out of range value.\n   **   ~~~   ** ...Curve maximum must be <= 1.0, curve max at PLR = 0.99 is 1.015\n   **   ~~~   ** ...Setting curve maximum to 1.0 and simulation continues.\n   ** Warning ** GetDXCoils: Coil:Cooling:DX:SingleSpeed=\"COIL COOLING DX SINGLE SPEED 11 11KBTU/HR 10.1EER\", invalid\n   **   ~~~   ** ...Part Load Fraction Correlation Curve Name = DXCOOL-NECB2011-REF-COOLPLFFPLR 2 has out of range value.\n   **   ~~~   ** ...Curve maximum must be <= 1.0, curve max at PLR = 0.99 is 1.015\n   **   ~~~   ** ...Setting curve maximum to 1.0 and simulation continues.\n   ** Warning ** GetDXCoils: Coil:Cooling:DX:SingleSpeed=\"COIL COOLING DX SINGLE SPEED 2 3KBTU/HR 11.0EER\", invalid\n   **   ~~~   ** ...Part Load Fraction Correlation Curve Name = DXCOOL-NECB2011-REF-COOLPLFFPLR 10 has out of range value.\n   **   ~~~   ** ...Curve maximum must be <= 1.0, curve max at PLR = 0.99 is 1.015\n   **   ~~~   ** ...Setting curve maximum to 1.0 and simulation continues.\n   ** Warning ** GetDXCoils: Coil:Cooling:DX:SingleSpeed=\"COIL COOLING DX SINGLE SPEED 4 15KBTU/HR 9.3EER\", invalid\n   **   ~~~   ** ...Part Load Fraction Correlation Curve Name = DXCOOL-NECB2011-REF-COOLPLFFPLR 12 has out of range value.\n   **   ~~~   ** ...Curve maximum must be <= 1.0, curve max at PLR = 0.99 is 1.015\n   **   ~~~   ** ...Setting curve maximum to 1.0 and simulation continues.\n   ** Warning ** GetDXCoils: Coil:Cooling:DX:SingleSpeed=\"COIL COOLING DX SINGLE SPEED 3 14KBTU/HR 9.4EER\", invalid\n   **   ~~~   ** ...Part Load Fraction Correlation Curve Name = DXCOOL-NECB2011-REF-COOLPLFFPLR 11 has out of range value.\n   **   ~~~   ** ...Curve maximum must be <= 1.0, curve max at PLR = 0.99 is 1.015\n   **   ~~~   ** ...Setting curve maximum to 1.0 and simulation continues.\n   ** Warning ** GetDXCoils: Coil:Cooling:DX:SingleSpeed=\"COIL COOLING DX SINGLE SPEED 1 174KBTU/HR 9.7EER\", invalid\n   **   ~~~   ** ...Part Load Fraction Correlation Curve Name = DXCOOL-NECB2011-REF-COOLPLFFPLR has out of range value.\n   **   ~~~   ** ...Curve maximum must be <= 1.0, curve max at PLR = 0.99 is 1.015\n   **   ~~~   ** ...Setting curve maximum to 1.0 and simulation continues.\n   ** Warning ** GetDXCoils: Coil:Cooling:DX:SingleSpeed=\"COIL COOLING DX SINGLE SPEED 14 67KBTU/HR 9.7EER\", invalid\n   **   ~~~   ** ...Part Load Fraction Correlation Curve Name = DXCOOL-NECB2011-REF-COOLPLFFPLR 5 has out of range value.\n   **   ~~~   ** ...Curve maximum must be <= 1.0, curve max at PLR = 0.99 is 1.015\n   **   ~~~   ** ...Setting curve maximum to 1.0 and simulation continues.\n   ** Warning ** GetDXCoils: Coil:Cooling:DX:SingleSpeed=\"COIL COOLING DX SINGLE SPEED 18 85KBTU/HR 9.7EER\", invalid\n   **   ~~~   ** ...Part Load Fraction Correlation Curve Name = DXCOOL-NECB2011-REF-COOLPLFFPLR 9 has out of range value.\n   **   ~~~   ** ...Curve maximum must be <= 1.0, curve max at PLR = 0.99 is 1.015\n   **   ~~~   ** ...Setting curve maximum to 1.0 and simulation continues.\n   ** Warning ** GetDXCoils: Coil:Cooling:DX:SingleSpeed=\"COIL COOLING DX SINGLE SPEED 13 80KBTU/HR 9.7EER\", invalid\n   **   ~~~   ** ...Part Load Fraction Correlation Curve Name = DXCOOL-NECB2011-REF-COOLPLFFPLR 4 has out of range value.\n   **   ~~~   ** ...Curve maximum must be <= 1.0, curve max at PLR = 0.99 is 1.015\n   **   ~~~   ** ...Setting curve maximum to 1.0 and simulation continues.\n   ** Warning ** GetDXCoils: Coil:Cooling:DX:SingleSpeed=\"COIL COOLING DX SINGLE SPEED 15 67KBTU/HR 9.7EER\", invalid\n   **   ~~~   ** ...Part Load Fraction Correlation Curve Name = DXCOOL-NECB2011-REF-COOLPLFFPLR 6 has out of range value.\n   **   ~~~   ** ...Curve maximum must be <= 1.0, curve max at PLR = 0.99 is 1.015\n   **   ~~~   ** ...Setting curve maximum to 1.0 and simulation continues.\n   ** Warning ** GetDXCoils: Coil:Cooling:DX:SingleSpeed=\"COIL COOLING DX SINGLE SPEED 16 49KBTU/HR 14.0SEER\", invalid\n   **   ~~~   ** ...Part Load Fraction Correlation Curve Name = DXCOOL-NECB2011-REF-COOLPLFFPLR 7 has out of range value.\n   **   ~~~   ** ...Curve maximum must be <= 1.0, curve max at PLR = 0.99 is 1.015\n   **   ~~~   ** ...Setting curve maximum to 1.0 and simulation continues.\n   ** Warning ** GetDXCoils: Coil:Cooling:DX:SingleSpeed=\"COIL COOLING DX SINGLE SPEED 12 13KBTU/HR 14.0SEER\", invalid\n   **   ~~~   ** ...Part Load Fraction Correlation Curve Name = DXCOOL-NECB2011-REF-COOLPLFFPLR 3 has out of range value.\n   **   ~~~   ** ...Curve maximum must be <= 1.0, curve max at PLR = 0.99 is 1.015\n   **   ~~~   ** ...Setting curve maximum to 1.0 and simulation continues.\n   ** Warning ** GetDXCoils: Coil:Cooling:DX:SingleSpeed=\"COIL COOLING DX SINGLE SPEED 17 6KBTU/HR 14.0SEER\", invalid\n   **   ~~~   ** ...Part Load Fraction Correlation Curve Name = DXCOOL-NECB2011-REF-COOLPLFFPLR 8 has out of range value.\n   **   ~~~   ** ...Curve maximum must be <= 1.0, curve max at PLR = 0.99 is 1.015\n   **   ~~~   ** ...Setting curve maximum to 1.0 and simulation continues.\n   ************* Beginning Plant Sizing Calculations\n   ** Warning ** The Standard Ratings is calculated for Coil:Cooling:DX:SingleSpeed = COIL COOLING DX SINGLE SPEED 8 54KBTU/HR 9.3EER but not at the AHRI test condition due to curve out of bound.\n   **   ~~~   **  Review the Standard Ratings calculations in the Engineering Reference for this coil type. Also, use Output:Diagnostics, DisplayExtraWarnings for further guidance.\n   ** Warning ** The Standard Ratings is calculated for Coil:Cooling:DX:SingleSpeed = COIL COOLING DX SINGLE SPEED 5 15KBTU/HR 9.3EER but not at the AHRI test condition due to curve out of bound.\n   **   ~~~   **  Review the Standard Ratings calculations in the Engineering Reference for this coil type. Also, use Output:Diagnostics, DisplayExtraWarnings for further guidance.\n   ** Warning ** The Standard Ratings is calculated for Coil:Cooling:DX:SingleSpeed = COIL COOLING DX SINGLE SPEED 9 18KBTU/HR 9.3EER but not at the AHRI test condition due to curve out of bound.\n   **   ~~~   **  Review the Standard Ratings calculations in the Engineering Reference for this coil type. Also, use Output:Diagnostics, DisplayExtraWarnings for further guidance.\n   ** Warning ** The Standard Ratings is calculated for Coil:Cooling:DX:SingleSpeed = COIL COOLING DX SINGLE SPEED 6 15KBTU/HR 9.4EER but not at the AHRI test condition due to curve out of bound.\n   **   ~~~   **  Review the Standard Ratings calculations in the Engineering Reference for this coil type. Also, use Output:Diagnostics, DisplayExtraWarnings for further guidance.\n   ** Warning ** The Standard Ratings is calculated for Coil:Cooling:DX:SingleSpeed = COIL COOLING DX SINGLE SPEED 10 17KBTU/HR 9.3EER but not at the AHRI test condition due to curve out of bound.\n   **   ~~~   **  Review the Standard Ratings calculations in the Engineering Reference for this coil type. Also, use Output:Diagnostics, DisplayExtraWarnings for further guidance.\n   ** Warning ** The Standard Ratings is calculated for Coil:Cooling:DX:SingleSpeed = COIL COOLING DX SINGLE SPEED 7 6KBTU/HR 11.0EER but not at the AHRI test condition due to curve out of bound.\n   **   ~~~   **  Review the Standard Ratings calculations in the Engineering Reference for this coil type. Also, use Output:Diagnostics, DisplayExtraWarnings for further guidance.\n   ** Warning ** The Standard Ratings is calculated for Coil:Cooling:DX:SingleSpeed = COIL COOLING DX SINGLE SPEED 11 11KBTU/HR 10.1EER but not at the AHRI test condition due to curve out of bound.\n   **   ~~~   **  Review the Standard Ratings calculations in the Engineering Reference for this coil type. Also, use Output:Diagnostics, DisplayExtraWarnings for further guidance.\n   ** Warning ** The Standard Ratings is calculated for Coil:Cooling:DX:SingleSpeed = COIL COOLING DX SINGLE SPEED 2 3KBTU/HR 11.0EER but not at the AHRI test condition due to curve out of bound.\n   **   ~~~   **  Review the Standard Ratings calculations in the Engineering Reference for this coil type. Also, use Output:Diagnostics, DisplayExtraWarnings for further guidance.\n   ** Warning ** The Standard Ratings is calculated for Coil:Cooling:DX:SingleSpeed = COIL COOLING DX SINGLE SPEED 4 15KBTU/HR 9.3EER but not at the AHRI test condition due to curve out of bound.\n   **   ~~~   **  Review the Standard Ratings calculations in the Engineering Reference for this coil type. Also, use Output:Diagnostics, DisplayExtraWarnings for further guidance.\n   ** Warning ** The Standard Ratings is calculated for Coil:Cooling:DX:SingleSpeed = COIL COOLING DX SINGLE SPEED 3 14KBTU/HR 9.4EER but not at the AHRI test condition due to curve out of bound.\n   **   ~~~   **  Review the Standard Ratings calculations in the Engineering Reference for this coil type. Also, use Output:Diagnostics, DisplayExtraWarnings for further guidance.\n   ** Warning ** The Standard Ratings is calculated for Coil:Cooling:DX:SingleSpeed = COIL COOLING DX SINGLE SPEED 1 174KBTU/HR 9.7EER but not at the AHRI test condition due to curve out of bound.\n   **   ~~~   **  Review the Standard Ratings calculations in the Engineering Reference for this coil type. Also, use Output:Diagnostics, DisplayExtraWarnings for further guidance.\n   ** Warning ** The Standard Ratings is calculated for Coil:Cooling:DX:SingleSpeed = COIL COOLING DX SINGLE SPEED 14 67KBTU/HR 9.7EER but not at the AHRI test condition due to curve out of bound.\n   **   ~~~   **  Review the Standard Ratings calculations in the Engineering Reference for this coil type. Also, use Output:Diagnostics, DisplayExtraWarnings for further guidance.\n   ** Warning ** The Standard Ratings is calculated for Coil:Cooling:DX:SingleSpeed = COIL COOLING DX SINGLE SPEED 18 85KBTU/HR 9.7EER but not at the AHRI test condition due to curve out of bound.\n   **   ~~~   **  Review the Standard Ratings calculations in the Engineering Reference for this coil type. Also, use Output:Diagnostics, DisplayExtraWarnings for further guidance.\n   ** Warning ** The Standard Ratings is calculated for Coil:Cooling:DX:SingleSpeed = COIL COOLING DX SINGLE SPEED 13 80KBTU/HR 9.7EER but not at the AHRI test condition due to curve out of bound.\n   **   ~~~   **  Review the Standard Ratings calculations in the Engineering Reference for this coil type. Also, use Output:Diagnostics, DisplayExtraWarnings for further guidance.\n   ** Warning ** The Standard Ratings is calculated for Coil:Cooling:DX:SingleSpeed = COIL COOLING DX SINGLE SPEED 15 67KBTU/HR 9.7EER but not at the AHRI test condition due to curve out of bound.\n   **   ~~~   **  Review the Standard Ratings calculations in the Engineering Reference for this coil type. Also, use Output:Diagnostics, DisplayExtraWarnings for further guidance.\n   ** Warning ** The Standard Ratings is calculated for Coil:Cooling:DX:SingleSpeed = COIL COOLING DX SINGLE SPEED 16 49KBTU/HR 14.0SEER but not at the AHRI test condition due to curve out of bound.\n   **   ~~~   **  Review the Standard Ratings calculations in the Engineering Reference for this coil type. Also, use Output:Diagnostics, DisplayExtraWarnings for further guidance.\n   ** Warning ** The Standard Ratings is calculated for Coil:Cooling:DX:SingleSpeed = COIL COOLING DX SINGLE SPEED 12 13KBTU/HR 14.0SEER but not at the AHRI test condition due to curve out of bound.\n   **   ~~~   **  Review the Standard Ratings calculations in the Engineering Reference for this coil type. Also, use Output:Diagnostics, DisplayExtraWarnings for further guidance.\n   ** Warning ** The Standard Ratings is calculated for Coil:Cooling:DX:SingleSpeed = COIL COOLING DX SINGLE SPEED 17 6KBTU/HR 14.0SEER but not at the AHRI test condition due to curve out of bound.\n   **   ~~~   **  Review the Standard Ratings calculations in the Engineering Reference for this coil type. Also, use Output:Diagnostics, DisplayExtraWarnings for further guidance.\n   ** Warning ** Missing temperature setpoint for LeavingSetpointModulated mode chiller named PRIMARY CHILLER WATERCOOLED SCROLL 29TONS 0.8KW/TON\n   **   ~~~   **   A temperature setpoint is needed at the outlet node of a chiller in variable flow mode, use a SetpointManager\n   **   ~~~   **   The overall loop setpoint will be assumed for chiller. The simulation continues ... \n   ** Warning ** Missing temperature setpoint for LeavingSetpointModulated mode chiller named SECONDARY CHILLER WATERCOOLED SCROLL 0TONS 0.8KW/TON\n   **   ~~~   **   A temperature setpoint is needed at the outlet node of a chiller in variable flow mode, use a SetpointManager\n   **   ~~~   **   The overall loop setpoint will be assumed for chiller. The simulation continues ... \n   ** Warning ** Water heater = 600.0GAL ELECTRICITY WATER HEATER - 600KBTU/HR 1.0 THERM EFF:  Recovery Efficiency and Energy Factor could not be calculated during the test for standard ratings\n   **   ~~~   ** Setpoint was never recovered and/or heater never turned on\n   ** Warning ** Output:Meter: invalid Name=\"GAS:FACILITY\" - not found.\n   ** Warning ** Output:Meter: invalid Name=\"DISTRICTCOOLING:FACILITY\" - not found.\n   ** Warning ** Output:Meter: invalid Name=\"DISTRICTHEATING:FACILITY\" - not found.\n   ** Warning ** Output:Meter:MeterFileOnly: invalid Name=\"GAS:FACILITY\" - not found.\n   ** Warning ** Output:Meter:MeterFileOnly requested for \"Electricity:Facility\" (TimeStep), already on \"Output:Meter\". Will report to both eplusout.eso and eplusout.mtr\n   ************* Testing Individual Branch Integrity\n   ************* All Branches passed integrity testing\n   ************* Testing Individual Supply Air Path Integrity\n   ************* All Supply Air Paths passed integrity testing\n   ************* Testing Individual Return Air Path Integrity\n   ************* All Return Air Paths passed integrity testing\n   ************* No node connection errors were found.\n   ************* Beginning Simulation\n   ** Warning ** CalcDoe2DXCoil: Coil:Cooling:DX:SingleSpeed \"COIL COOLING DX SINGLE SPEED 14 67KBTU/HR 9.7EER\" - Air-cooled condenser inlet dry-bulb temperature below 0 C. Outdoor dry-bulb temperature = -19.40\n   **   ~~~   **  ... Occurrence info = RUN PERIOD 1, 01/01 09:02 - 09:05\n   **   ~~~   ** ... Operation at low ambient temperatures may require special performance curves.\n   ** Warning ** CalcDoe2DXCoil: Coil:Cooling:DX:SingleSpeed \"COIL COOLING DX SINGLE SPEED 15 67KBTU/HR 9.7EER\" - Air-cooled condenser inlet dry-bulb temperature below 0 C. Outdoor dry-bulb temperature = -19.40\n   **   ~~~   **  ... Occurrence info = RUN PERIOD 1, 01/01 09:02 - 09:05\n   **   ~~~   ** ... Operation at low ambient temperatures may require special performance curves.\n   ** Warning ** CalcDoe2DXCoil: Coil:Cooling:DX:SingleSpeed \"COIL COOLING DX SINGLE SPEED 16 49KBTU/HR 14.0SEER\" - Air-cooled condenser inlet dry-bulb temperature below 0 C. Outdoor dry-bulb temperature = -17.93\n   **   ~~~   **  ... Occurrence info = RUN PERIOD 1, 01/02 00:02 - 00:03\n   **   ~~~   ** ... Operation at low ambient temperatures may require special performance curves.\n   ** Warning ** CalcDoe2DXCoil: Coil:Cooling:DX:SingleSpeed \"COIL COOLING DX SINGLE SPEED 16 49KBTU/HR 14.0SEER\" - Full load outlet air dry-bulb temperature < 2C. This indicates the possibility of coil frost/freeze. Outlet temperature = 1.95 C.\n   **   ~~~   **  ...Occurrence info = RUN PERIOD 1, 01/02 00:02 - 00:03\n   **   ~~~   ** ... Possible reasons for low outlet air dry-bulb temperatures are: This DX coil\n   **   ~~~   **    1) may have a low inlet air dry-bulb temperature. Inlet air temperature = 14.606 C.\n   **   ~~~   **    2) may have a low air flow rate per watt of cooling capacity. Check inputs.\n   **   ~~~   **    3) is used as part of a HX assisted cooling coil which uses a high sensible effectiveness. Check inputs.\n   ** Warning ** CalcDoe2DXCoil: Coil:Cooling:DX:SingleSpeed \"COIL COOLING DX SINGLE SPEED 11 11KBTU/HR 10.1EER\" - Air-cooled condenser inlet dry-bulb temperature below 0 C. Outdoor dry-bulb temperature = -22.93\n   **   ~~~   **  ... Occurrence info = RUN PERIOD 1, 01/02 11:38 - 11:45\n   **   ~~~   ** ... Operation at low ambient temperatures may require special performance curves.\n   ** Warning ** CalcDoe2DXCoil: Coil:Cooling:DX:SingleSpeed \"COIL COOLING DX SINGLE SPEED 7 6KBTU/HR 11.0EER\" - Air-cooled condenser inlet dry-bulb temperature below 0 C. Outdoor dry-bulb temperature = -22.80\n   **   ~~~   **  ... Occurrence info = RUN PERIOD 1, 01/02 11:45 - 11:52\n   **   ~~~   ** ... Operation at low ambient temperatures may require special performance curves.\n   ** Warning ** SimHVAC: Maximum iterations (20) exceeded for all HVAC loops, at RUN PERIOD 1, 01/19 12:00 - 12:15\n   **   ~~~   ** The solution for one or more of the Air Loop HVAC systems did not appear to converge\n   **   ~~~   ** ...use Output:Diagnostics,DisplayExtraWarnings; to show more details on each max iteration exceeded.\n   ** Warning ** CalcDoe2DXCoil: Coil:Cooling:DX:SingleSpeed \"COIL COOLING DX SINGLE SPEED 5 15KBTU/HR 9.3EER\" - Air-cooled condenser inlet dry-bulb temperature below 0 C. Outdoor dry-bulb temperature = -23.90\n   **   ~~~   **  ... Occurrence info = RUN PERIOD 1, 01/19 14:45 - 15:00\n   **   ~~~   ** ... Operation at low ambient temperatures may require special performance curves.\n   ** Warning ** CalcDoe2DXCoil: Coil:Cooling:DX:SingleSpeed \"COIL COOLING DX SINGLE SPEED 17 6KBTU/HR 14.0SEER\" - Air-cooled condenser inlet dry-bulb temperature below 0 C. Outdoor dry-bulb temperature = -7.50\n   **   ~~~   **  ... Occurrence info = RUN PERIOD 1, 01/20 19:15 - 19:18\n   **   ~~~   ** ... Operation at low ambient temperatures may require special performance curves.\n   ** Warning ** CalcDoe2DXCoil: Coil:Cooling:DX:SingleSpeed \"COIL COOLING DX SINGLE SPEED 17 6KBTU/HR 14.0SEER\" - Full load outlet air dry-bulb temperature < 2C. This indicates the possibility of coil frost/freeze. Outlet temperature = -0.47 C.\n   **   ~~~   **  ...Occurrence info = RUN PERIOD 1, 01/20 19:15 - 19:18\n   **   ~~~   ** ... Possible reasons for low outlet air dry-bulb temperatures are: This DX coil\n   **   ~~~   **    1) may have a low inlet air dry-bulb temperature. Inlet air temperature = 12.166 C.\n   **   ~~~   **    2) may have a low air flow rate per watt of cooling capacity. Check inputs.\n   **   ~~~   **    3) is used as part of a HX assisted cooling coil which uses a high sensible effectiveness. Check inputs.\n   ** Warning ** CalcDoe2DXCoil: Coil:Cooling:DX:SingleSpeed \"COIL COOLING DX SINGLE SPEED 4 15KBTU/HR 9.3EER\" - Air-cooled condenser inlet dry-bulb temperature below 0 C. Outdoor dry-bulb temperature = -6.98\n   **   ~~~   **  ... Occurrence info = RUN PERIOD 1, 01/24 11:38 - 11:45\n   **   ~~~   ** ... Operation at low ambient temperatures may require special performance curves.\n   ** Warning ** SimHVAC: Maximum iterations (20) exceeded for all HVAC loops, at RUN PERIOD 1, 01/28 11:45 - 12:00\n   **   ~~~   ** The solution for one or more of the Air Loop HVAC systems did not appear to converge\n   ** Warning ** SimHVAC: Maximum iterations (20) exceeded for all HVAC loops, at RUN PERIOD 1, 01/28 12:00 - 12:15\n   **   ~~~   ** The solution for one or more of the Air Loop HVAC systems did not appear to converge\n   ** Warning ** SimHVAC: Maximum iterations (20) exceeded for all HVAC loops, at RUN PERIOD 1, 01/28 12:15 - 12:30\n   **   ~~~   ** The solution for one or more of the Air Loop HVAC systems did not appear to converge\n   ** Warning ** SimHVAC: Maximum iterations (20) exceeded for all HVAC loops, at RUN PERIOD 1, 01/28 12:30 - 12:45\n   **   ~~~   ** The solution for one or more of the Air Loop HVAC systems did not appear to converge\n   ** Warning ** SimHVAC: Maximum iterations (20) exceeded for all HVAC loops, at RUN PERIOD 1, 01/28 12:45 - 12:49\n   **   ~~~   ** The solution for one or more of the Air Loop HVAC systems did not appear to converge\n   ** Warning ** SimHVAC: Maximum iterations (20) exceeded for all HVAC loops, at RUN PERIOD 1, 01/28 12:56 - 13:00\n   **   ~~~   ** The solution for one or more of the Air Loop HVAC systems did not appear to converge\n   ** Warning ** SimHVAC: Maximum iterations (20) exceeded for all HVAC loops, at RUN PERIOD 1, 01/28 13:00 - 13:15\n   **   ~~~   ** The solution for one or more of the Air Loop HVAC systems did not appear to converge\n   ** Warning ** SimHVAC: Maximum iterations (20) exceeded for all HVAC loops, at RUN PERIOD 1, 01/28 13:00 - 13:08\n   **   ~~~   ** The solution for one or more of the Air Loop HVAC systems did not appear to converge\n   ** Warning ** SimHVAC: Maximum iterations (20) exceeded for all HVAC loops, at RUN PERIOD 1, 01/28 13:08 - 13:15\n   **   ~~~   ** The solution for one or more of the Air Loop HVAC systems did not appear to converge\n   ** Warning ** SimHVAC: Maximum iterations (20) exceeded for all HVAC loops, at RUN PERIOD 1, 01/28 13:15 - 13:30\n   **   ~~~   ** The solution for one or more of the Air Loop HVAC systems did not appear to converge\n   ** Warning ** SimHVAC: Maximum iterations (20) exceeded for all HVAC loops, at RUN PERIOD 1, 01/28 13:15 - 13:20\n   **   ~~~   ** The solution for one or more of the Air Loop HVAC systems did not appear to converge\n   ** Warning ** SimHVAC: Maximum iterations (20) exceeded for all HVAC loops, at RUN PERIOD 1, 01/28 13:20 - 13:25\n   **   ~~~   ** The solution for one or more of the Air Loop HVAC systems did not appear to converge\n   ** Warning ** SimHVAC: Maximum iterations (20) exceeded for all HVAC loops, at RUN PERIOD 1, 01/28 13:25 - 13:30\n   **   ~~~   ** The solution for one or more of the Air Loop HVAC systems did not appear to converge\n   ** Warning ** CalcDoe2DXCoil: Coil:Cooling:DX:SingleSpeed \"COIL COOLING DX SINGLE SPEED 9 18KBTU/HR 9.3EER\" - Air-cooled condenser inlet dry-bulb temperature below 0 C. Outdoor dry-bulb temperature = -18.10\n   **   ~~~   **  ... Occurrence info = RUN PERIOD 1, 02/14 13:15 - 13:30\n   **   ~~~   ** ... Operation at low ambient temperatures may require special performance curves.\n   ** Warning ** CalcDoe2DXCoil: Coil:Cooling:DX:SingleSpeed \"COIL COOLING DX SINGLE SPEED 6 15KBTU/HR 9.4EER\" - Air-cooled condenser inlet dry-bulb temperature below 0 C. Outdoor dry-bulb temperature = -12.45\n   **   ~~~   **  ... Occurrence info = RUN PERIOD 1, 02/20 15:30 - 15:38\n   **   ~~~   ** ... Operation at low ambient temperatures may require special performance curves.\n   ** Warning ** CalcDoe2DXCoil: Coil:Cooling:DX:SingleSpeed \"COIL COOLING DX SINGLE SPEED 10 17KBTU/HR 9.3EER\" - Air-cooled condenser inlet dry-bulb temperature below 0 C. Outdoor dry-bulb temperature = -13.35\n   **   ~~~   **  ... Occurrence info = RUN PERIOD 1, 03/02 16:23 - 16:30\n   **   ~~~   ** ... Operation at low ambient temperatures may require special performance curves.\n   ** Warning ** CalcDoe2DXCoil: Coil:Cooling:DX:SingleSpeed \"COIL COOLING DX SINGLE SPEED 3 14KBTU/HR 9.4EER\" - Air-cooled condenser inlet dry-bulb temperature below 0 C. Outdoor dry-bulb temperature = -29.30\n   **   ~~~   **  ... Occurrence info = RUN PERIOD 1, 03/11 09:49 - 09:52\n   **   ~~~   ** ... Operation at low ambient temperatures may require special performance curves.\n   ** Warning ** CalcDoe2DXCoil: Coil:Cooling:DX:SingleSpeed \"COIL COOLING DX SINGLE SPEED 2 3KBTU/HR 11.0EER\" - Air-cooled condenser inlet dry-bulb temperature below 0 C. Outdoor dry-bulb temperature = -9.15\n   **   ~~~   **  ... Occurrence info = RUN PERIOD 1, 04/24 21:27 - 21:30\n   **   ~~~   ** ... Operation at low ambient temperatures may require special performance curves.\n   ** Warning ** CalcDoe2DXCoil: Coil:Cooling:DX:SingleSpeed \"COIL COOLING DX SINGLE SPEED 2 3KBTU/HR 11.0EER\" - Full load outlet air dry-bulb temperature < 2C. This indicates the possibility of coil frost/freeze. Outlet temperature = 1.58 C.\n   **   ~~~   **  ...Occurrence info = RUN PERIOD 1, 04/24 21:27 - 21:30\n   **   ~~~   ** ... Possible reasons for low outlet air dry-bulb temperatures are: This DX coil\n   **   ~~~   **    1) may have a low inlet air dry-bulb temperature. Inlet air temperature = 14.223 C.\n   **   ~~~   **    2) may have a low air flow rate per watt of cooling capacity. Check inputs.\n   **   ~~~   **    3) is used as part of a HX assisted cooling coil which uses a high sensible effectiveness. Check inputs.\n   ** Warning ** CalcDoe2DXCoil: Coil:Cooling:DX:SingleSpeed \"COIL COOLING DX SINGLE SPEED 8 54KBTU/HR 9.3EER\" - Air-cooled condenser inlet dry-bulb temperature below 0 C. Outdoor dry-bulb temperature = -3.75\n   **   ~~~   **  ... Occurrence info = RUN PERIOD 1, 05/01 14:00 - 14:15\n   **   ~~~   ** ... Operation at low ambient temperatures may require special performance curves.\n   ** Warning ** CalcDoe2DXCoil: Coil:Cooling:DX:SingleSpeed \"COIL COOLING DX SINGLE SPEED 12 13KBTU/HR 14.0SEER\" - Full load outlet air dry-bulb temperature < 2C. This indicates the possibility of coil frost/freeze. Outlet temperature = 0.30 C.\n   **   ~~~   **  ...Occurrence info = RUN PERIOD 1, 06/08 07:03 - 07:06\n   **   ~~~   ** ... Possible reasons for low outlet air dry-bulb temperatures are: This DX coil\n   **   ~~~   **    1) may have a low inlet air dry-bulb temperature. Inlet air temperature = 11.888 C.\n   **   ~~~   **    2) may have a low air flow rate per watt of cooling capacity. Check inputs.\n   **   ~~~   **    3) is used as part of a HX assisted cooling coil which uses a high sensible effectiveness. Check inputs.\n   ************* Simulation Error Summary *************\n   ************* There are 9 unused schedules in input.\n   ************* There are 9 unused week schedules in input.\n   ************* There are 35 unused day schedules in input.\n   ************* Use Output:Diagnostics,DisplayUnusedSchedules; to see them.\n   *************\n   ************* ===== Recurring Error Summary =====\n   ************* The following recurring error messages occurred.\n   *************\n   *************  ** Warning ** Plant loop falling below lower temperature limit, PlantLoop=\"MAIN SERVICE WATER LOOP\"\n   *************  **   ~~~   **   This error occurred 6 total times;\n   *************  **   ~~~   **   during Warmup 6 times;\n   *************  **   ~~~   **   during Sizing 0 times.\n   *************  **   ~~~   **   Min=0.971686\n   *************\n   *************  ** Warning ** CalcDoe2DXCoil: Coil:Cooling:DX:SingleSpeed=\"COIL COOLING DX SINGLE SPEED 14 67KBTU/HR 9.7EER\" - Low condenser dry-bulb temperature error continues...\n   *************  **   ~~~   **   This error occurred 343 total times;\n   *************  **   ~~~   **   during Warmup 0 times;\n   *************  **   ~~~   **   during Sizing 0 times.\n   *************  **   ~~~   **   Max=-0.125 [C]  Min=-38.05 [C]\n   *************\n   *************  ** Warning ** CalcDoe2DXCoil: Coil:Cooling:DX:SingleSpeed=\"COIL COOLING DX SINGLE SPEED 15 67KBTU/HR 9.7EER\" - Low condenser dry-bulb temperature error continues...\n   *************  **   ~~~   **   This error occurred 346 total times;\n   *************  **   ~~~   **   during Warmup 0 times;\n   *************  **   ~~~   **   during Sizing 0 times.\n   *************  **   ~~~   **   Max=-0.125 [C]  Min=-38.05 [C]\n   *************\n   *************  ** Warning ** CalcDoe2DXCoil: Coil:Cooling:DX:SingleSpeed=\"COIL COOLING DX SINGLE SPEED 16 49KBTU/HR 14.0SEER\" - Low condenser dry-bulb temperature error continues...\n   *************  **   ~~~   **   This error occurred 1013 total times;\n   *************  **   ~~~   **   during Warmup 0 times;\n   *************  **   ~~~   **   during Sizing 0 times.\n   *************  **   ~~~   **   Max=-5.551115E-017 [C]  Min=-39.275 [C]\n   *************\n   *************  ** Warning ** CalcDoe2DXCoil: Coil:Cooling:DX:SingleSpeed=\"COIL COOLING DX SINGLE SPEED 16 49KBTU/HR 14.0SEER\" - Full load outlet temperature indicates a possibility of frost/freeze error continues. Outlet air temperature statistics follow:\n   *************  **   ~~~   **   This error occurred 11 total times;\n   *************  **   ~~~   **   during Warmup 0 times;\n   *************  **   ~~~   **   during Sizing 0 times.\n   *************  **   ~~~   **   Max=1.945761  Min=1.031796E-002\n   *************\n   *************  ** Warning ** CalcDoe2DXCoil: Coil:Cooling:DX:SingleSpeed=\"COIL COOLING DX SINGLE SPEED 11 11KBTU/HR 10.1EER\" - Low condenser dry-bulb temperature error continues...\n   *************  **   ~~~   **   This error occurred 4909 total times;\n   *************  **   ~~~   **   during Warmup 0 times;\n   *************  **   ~~~   **   during Sizing 0 times.\n   *************  **   ~~~   **   Max=-1.387779E-017 [C]  Min=-37.35 [C]\n   *************\n   *************  ** Warning ** CalcDoe2DXCoil: Coil:Cooling:DX:SingleSpeed=\"COIL COOLING DX SINGLE SPEED 7 6KBTU/HR 11.0EER\" - Low condenser dry-bulb temperature error continues...\n   *************  **   ~~~   **   This error occurred 11058 total times;\n   *************  **   ~~~   **   during Warmup 0 times;\n   *************  **   ~~~   **   during Sizing 0 times.\n   *************  **   ~~~   **   Max=-1.387779E-017 [C]  Min=-37.35 [C]\n   *************\n   *************  ** Warning ** CalcDoe2DXCoil: Coil:Cooling:DX:SingleSpeed=\"COIL COOLING DX SINGLE SPEED 5 15KBTU/HR 9.3EER\" - Low condenser dry-bulb temperature error continues...\n   *************  **   ~~~   **   This error occurred 4098 total times;\n   *************  **   ~~~   **   during Warmup 0 times;\n   *************  **   ~~~   **   during Sizing 0 times.\n   *************  **   ~~~   **   Max=-1.387779E-017 [C]  Min=-32.8 [C]\n   *************\n   *************  ** Warning ** CalcDoe2DXCoil: Coil:Cooling:DX:SingleSpeed=\"COIL COOLING DX SINGLE SPEED 17 6KBTU/HR 14.0SEER\" - Low condenser dry-bulb temperature error continues...\n   *************  **   ~~~   **   This error occurred 132 total times;\n   *************  **   ~~~   **   during Warmup 0 times;\n   *************  **   ~~~   **   during Sizing 0 times.\n   *************  **   ~~~   **   Max=-0.175 [C]  Min=-9.85 [C]\n   *************\n   *************  ** Warning ** CalcDoe2DXCoil: Coil:Cooling:DX:SingleSpeed=\"COIL COOLING DX SINGLE SPEED 17 6KBTU/HR 14.0SEER\" - Full load outlet temperature indicates a possibility of frost/freeze error continues. Outlet air temperature statistics follow:\n   *************  **   ~~~   **   This error occurred 120 total times;\n   *************  **   ~~~   **   during Warmup 0 times;\n   *************  **   ~~~   **   during Sizing 0 times.\n   *************  **   ~~~   **   Max=1.985895  Min=-0.845049\n   *************\n   *************  ** Warning ** CalcDoe2DXCoil: Coil:Cooling:DX:SingleSpeed=\"COIL COOLING DX SINGLE SPEED 4 15KBTU/HR 9.3EER\" - Low condenser dry-bulb temperature error continues...\n   *************  **   ~~~   **   This error occurred 4615 total times;\n   *************  **   ~~~   **   during Warmup 0 times;\n   *************  **   ~~~   **   during Sizing 0 times.\n   *************  **   ~~~   **   Max=-1.387779E-017 [C]  Min=-32.4 [C]\n   *************\n   *************  ** Warning ** SimHVAC: Exceeding Maximum iterations for all HVAC loops, during RUN PERIOD 1 continues\n   *************  **   ~~~   **   This error occurred 284 total times;\n   *************  **   ~~~   **   during Warmup 0 times;\n   *************  **   ~~~   **   during Sizing 0 times.\n   *************\n   *************  ** Warning ** CalcDoe2DXCoil: Coil:Cooling:DX:SingleSpeed=\"COIL COOLING DX SINGLE SPEED 9 18KBTU/HR 9.3EER\" - Low condenser dry-bulb temperature error continues...\n   *************  **   ~~~   **   This error occurred 2559 total times;\n   *************  **   ~~~   **   during Warmup 0 times;\n   *************  **   ~~~   **   during Sizing 0 times.\n   *************  **   ~~~   **   Max=-1.387779E-017 [C]  Min=-29.275 [C]\n   *************\n   *************  ** Warning ** CalcDoe2DXCoil: Coil:Cooling:DX:SingleSpeed=\"COIL COOLING DX SINGLE SPEED 6 15KBTU/HR 9.4EER\" - Low condenser dry-bulb temperature error continues...\n   *************  **   ~~~   **   This error occurred 2344 total times;\n   *************  **   ~~~   **   during Warmup 0 times;\n   *************  **   ~~~   **   during Sizing 0 times.\n   *************  **   ~~~   **   Max=-2.500000E-002 [C]  Min=-29.275 [C]\n   *************\n   *************  ** Warning ** CalcDoe2DXCoil: Coil:Cooling:DX:SingleSpeed=\"COIL COOLING DX SINGLE SPEED 10 17KBTU/HR 9.3EER\" - Low condenser dry-bulb temperature error continues...\n   *************  **   ~~~   **   This error occurred 1580 total times;\n   *************  **   ~~~   **   during Warmup 0 times;\n   *************  **   ~~~   **   during Sizing 0 times.\n   *************  **   ~~~   **   Max=-2.500000E-002 [C]  Min=-29.275 [C]\n   *************\n   *************  ** Warning ** CalcDoe2DXCoil: Coil:Cooling:DX:SingleSpeed=\"COIL COOLING DX SINGLE SPEED 3 14KBTU/HR 9.4EER\" - Low condenser dry-bulb temperature error continues...\n   *************  **   ~~~   **   This error occurred 2657 total times;\n   *************  **   ~~~   **   during Warmup 0 times;\n   *************  **   ~~~   **   during Sizing 0 times.\n   *************  **   ~~~   **   Max=-1.387779E-017 [C]  Min=-29.3 [C]\n   *************\n   *************  ** Warning ** CalcDoe2DXCoil: Coil:Cooling:DX:SingleSpeed=\"COIL COOLING DX SINGLE SPEED 2 3KBTU/HR 11.0EER\" - Low condenser dry-bulb temperature error continues...\n   *************  **   ~~~   **   This error occurred 1902 total times;\n   *************  **   ~~~   **   during Warmup 0 times;\n   *************  **   ~~~   **   during Sizing 0 times.\n   *************  **   ~~~   **   Max=-1.387779E-017 [C]  Min=-9.9 [C]\n   *************\n   *************  ** Warning ** CalcDoe2DXCoil: Coil:Cooling:DX:SingleSpeed=\"COIL COOLING DX SINGLE SPEED 2 3KBTU/HR 11.0EER\" - Full load outlet temperature indicates a possibility of frost/freeze error continues. Outlet air temperature statistics follow:\n   *************  **   ~~~   **   This error occurred 26 total times;\n   *************  **   ~~~   **   during Warmup 0 times;\n   *************  **   ~~~   **   during Sizing 0 times.\n   *************  **   ~~~   **   Max=1.963399  Min=1.213466\n   *************\n   *************  ** Warning ** CalcDoe2DXCoil: Coil:Cooling:DX:SingleSpeed=\"COIL COOLING DX SINGLE SPEED 8 54KBTU/HR 9.3EER\" - Low condenser dry-bulb temperature error continues...\n   *************  **   ~~~   **   This error occurred 1 total times;\n   *************  **   ~~~   **   during Warmup 0 times;\n   *************  **   ~~~   **   during Sizing 0 times.\n   *************  **   ~~~   **   Max=-3.75 [C]  Min=-3.75 [C]\n   *************\n   *************  ** Warning ** CalcDoe2DXCoil: Coil:Cooling:DX:SingleSpeed=\"COIL COOLING DX SINGLE SPEED 12 13KBTU/HR 14.0SEER\" - Full load outlet temperature indicates a possibility of frost/freeze error continues. Outlet air temperature statistics follow:\n   *************  **   ~~~   **   This error occurred 11 total times;\n   *************  **   ~~~   **   during Warmup 0 times;\n   *************  **   ~~~   **   during Sizing 0 times.\n   *************  **   ~~~   **   Max=1.942932  Min=0.298542\n   *************\n   *************\n   ************* ===== Final Error Summary =====\n   ************* The following error categories occurred.  Consider correcting or noting.\n   ************* Nominally Unused Constructions\n   ************* ..The nominally unused constructions warning is provided to alert you to potential conditions that can cause\n   ************* ..extra time during simulation. Each construction is calculated by the algorithm indicated in the HeatBalanceAlgorithm\n   ************* ..object. You may remove the constructions indicated (when you use the DisplayExtraWarnings option).\n   *************\n   ************* EnergyPlus Warmup Error Summary. During Warmup: 0 Warning; 0 Severe Errors.\n   ************* EnergyPlus Sizing Error Summary. During Sizing: 163 Warning; 0 Severe Errors.\n   ************* EnergyPlus Completed Successfully-- 38219 Warning; 0 Severe Errors; Elapsed Time=00hr 03min 13.77sec\n",
   "file_format_version" : "0.0.1",
   "file_paths" : [ "../weather", "../seeds", "../seed" ],
   "hash" : "1717AE1E",
   "measure_paths" : [ "../measures" ],
   "name" : "LHS Autogenerated 388",
   "osa_id" : "4fef0e0f-5396-4c55-a6e1-2cd6803db3ab",
   "osd_id" : "924e7220-062f-442e-a505-e8993af31c75",
   "run_directory" : "./run",
   "seed_file" : "seed.osm",
   "started_at" : "20170710T184611Z",
   "steps" : [
      {
         "arguments" : {
            "__SKIP__" : false,
            "building_type" : "LargeHotel",
            "climate_zone" : "NECB HDD Method",
            "epw_file" : "CAN_MB_Churchill.719130_CWEC.epw",
            "template" : "NECB 2011"
         },
         "measure_dir_name" : "create_prototype_building",
         "name" : "create_prototype_building",
         "result" : {
            "completed_at" : "20170710T184803Z",
            "measure_class_name" : "CreatePrototypeBuilding",
            "measure_display_name" : "Create Prototype Building",
            "measure_name" : "create_prototype_building",
            "measure_taxonomy" : "Whole Building.Space Types",
            "measure_type" : "ModelMeasure",
            "measure_uid" : "ae90fsd7-a651-467a-bc8d-29d310b0f937",
            "measure_version_id" : "c6ec5c18-5595-459f-a082-09a19c8c869c",
            "measure_version_modified" : "20170519T182315Z",
            "measure_xml_checksum" : "057E8D9D",
            "started_at" : "20170710T184613Z",
            "stderr" : "",
[...]
WTIZ0pWyMG8tKPInfrSGakSEdFF1pNf63XlaqDnSTRr1R2LdEgPl+NZP5I877DKVZrqzLoqURwG32Q1neW5dZWCuT1240U1qfzk2leVSayk6npZLSTPl5U64aG9+KhjFc7PFx7REZauN51wq8760M521UrnP5TlFOrY2RGffvsi/n3222dxfvb5yy8ffxa/nv38y0i8P/l8Us3Babpqy3tbpWgiDkQUhLHwk5t0HoxFVtIkEnY0TpMX159W8Ljqe+Xnyc5st8VV9cUllHES+mJuh5E89QI7btlqyd9Oh/LJZ1fZZ5U6szxFeyKbX0KZ44fNVnp5zD+zcM+CvbXlyImdeLGYh0G6hsmtttj6YX9/NDo52dpw4RngAAc4wAEOcIADHOAABzjA+WviiCi5Sf8JLBypPhSOvVBEoXRAAxrQgAY0oAENaEADGtCABjTFNHfZT7P+RHPlJRI4wAEOcIADHOAABzjAAQ5wgFMH5/G9gZZ6b+B5Qr03sG9ld9iOj3d3Dw5AClKQghSkIAUpSEEKUpCCFKQgBenrIO1lpHZMkXYz0n6/19sfghSkIAUpSEEKUpCCFKQgBSlIQQrS10HaV6SnoUuQ9g4yUsva2+v3QQpSkIIUpCAFKUhBClKQghSkIAXp6yDdVaRfZglFup+RHqTH4C1IQQpSkIIUpCAFKUhBClKQghSkIH0dpANF+i/pUKR7Gem7d6PR3h5IQQpSkIIUpCAFKUhBClKQghSkIH0dpMPsm4lEUqTDjHQ0Gg5BClKQghSkIAUpSEEKUpCCFKQgBelrId1TpB8CqrJgb5CR7u/3eoMBSEEKUpCCFKQgBSlIQQpSkIIUpCBtjHSF4oT2XavU2b0Zu7Enz2f2XJqxvI9bW++DJIzKMRbft3zn3kg/cgPfk1HmocTFzo44dhxhi8yTuHPjmYiCGymcfknL6HZq2vO59J2WobSN7ZIGq8O04zhsGfdGWwy7mo0WaaNe9UZRvPDkEq9j++NZEKbtDU9ONGhzH5PAjzt30p3OYuXjKvCc6j6WY3M+77y1I5kOUCzOF1FnV5x6Yacvzsezzol4/8kb38QdPwjTIfj9o/h4MnqrTovljdgVn85/F2fjsTp3a7toUN/sROPQncf/IM95s+O4ty+byTa0s9SXcJ0jY6xm/CjtJNv1ZXhpdfcMkXXdkeG40dyzF4eu76W2zpUXjL/9ZNCAqdflNYh4MU/bq97bubZv7eWnhS3VcWuHanaKI+G4N3NPmr68O7+dtowfXoBsi91uN/ujNNyUX8eO7dTxxR+GZ19Jzzg0HDmxEy8W8zCYuJ402kvL5b1xaJndtnFre4nM/z5Wq1LaJl1oRqOTE+OhXclPj8lPn8nPLpOfAZOfIZOfPSY/+0x+Dpj8WF0uR1wz2uKa0hbXnLa4JrXFNastrmltcc1ri2tiW1wzu8c1s3tsazXXzO5xzeye1swWUXJz8+w11ZV2tFA6Gm7IPtJzQ/aQnhuyf/TckHGv54aMej03ZMzruSEjXs8NGe96buiNTNMP0zymtzFNP0wzmd7ENP0wzWV6C9P0wzSb6Q1M0w/TfKa3L00/XOsy03ym9y5NP9Xn853rx/rb1pX6qLofsns0/ZDdo+mH7B5NP2S4a/ohw13TDxnumn7IcNf0Q4a7ph96/9J1xDWj6R1M1xHXnKb3MF1HXLOa3sV0HXHNa3of03XENbPpnUzXEdtazTWz6c1M11H1mf1436L0vcLUNtd99g+95YuHGSR6m5fob15id/MSg81LDDcvsbd5if3NSxxsXuLZzr4pjQbi22ogwK0GItxqIMStBmLcaiDIrQai3GogzK0G4rzXQJz3mtjHG4jzXgNx3qsX56Wvb6yWVi3f78ggQY8GmwQ9GGwS9FiwSdBLLpsEveKySdALLpsEvd6ySdDLLZtEwZ1rPg361h+fBn1XkE+DvmHIp9FAiBekVXwaDQR5QVrFp9FAmBekVXz7H51W8Wk0sY83sJEXpFV8GvXivPQtWdXSquVrtBgk6NFgk6AHg02CHgs2CXrJZZOgV1w2CXrBZZOg11s2Cfq3UWwSBWkVnwadVvFp0GkVnwadVvFp0D/R4tOgf5fIp0H/ZJFPg/41I58G/UNHPo0G4rwgreLTaGIfb2AjL0ir+DTqbeWlLyOpllYt31bCIEGPBpsEPRhsEvRYsEnQaRWbBJ1WsUnQaRWbBJ1WsUnQyy2bREFaxadBp1V8GnRaxadBp1V8GnRaxadBp1V8GnRaxadBp1V8GnRaxafRQJwXpFV8Gk3s4w1s5AVpFZ9Gva28tOZ7tbRqWRSeQYIeDTYJejDYJOixYJOg0yo2CTqtYpOg0yo2CTqtYpOgl1s2iYK0ik+DTqv4NOi0ik+DTqv4NOi0ik+DTqv4NOi0ik+DTqv4NOi0ik+jgTgvSKv4NJrYxxvYyAvSKj6Nelt5aWndamnVsvYugwQ9GmwS9GCwSdBjwSZBp1VsEnRaxSZBp1VsEnRaxSZBL7dsEgVpFZ8GnVbxadBpFZ8GnVbxadBpFZ8GnVbxadBpFZ8GnVbxadBpFZ9GA3FekFbxaTSxjzewkRekVXwa9bby0gqG1dKqZYlDBgl6NNgk6MFgk6DHgk2CTqvYJOi0ik2CTqvYJOi0ik2iqO4Uk0RhsTUujaJqVVwaRYWsuDSKalxxaRSVv+LSKKr5xqVRVA6OS6OoUhyXRlEROS6NBuK8IK3i02hiH29gIy9Iq/g0yrfyr1UqvObFm8WR8OXdqoJsVji2Fd1O21kF2NJSsasK0JGM3waJ70StQbctLGvQFn31t96gWrnZ+xTjsbC144zsWE6DcHF870bLCsqP11+hzHTq4Cx0ZPg5UQWNKzdUHIvnHB+kHSWhXGKomsx5v2+4xDfMMMMMM8wwwwwzzDDDDDPMMMMMM8wwwwwzzDDDDDPMMMMMM8wwwwwzzDDDDDPMMMMMM8wwwwwzzDDDDDPMMMMMM8wwwwwzzH8p88IMbmUYuo78YKsHay2zu+bzqurR2Oj5o7HnMnRllD9ea7RXDxDPvSA2PdeXpY/IRi89p1v+ZG1kZq+enweeHbuBn0IZUSznnSs5CUJpVHvy+Vc5lb7z/IKWn7WG3bboqyeXu+pBZvWH4clJrMBKXK/cmpdTGZ/4seqfVGKS+OOMtLUt/ihxsSKUj60vSp/lVoc7Ea145kZmlI1KNSF1PGlkpv13Yo9nrf8A63pb4atHx1P23O/lPIhc5fBd+nGVq1kdys0LVGFwp4e0wnJ9R6p46Fhtzdar47puw4krPTXfWnmfLuNkGgbJXDrixx/F3/LP783LmR3lz7+rANt+al28aE07xLSn01OlYXrSn8Yz8Ub0xD+Fcex5hjh8fkbkuWPZ6ljbF92v26Xx9t2VBKFoXaeX0v1JXKcy+VTNddVnf09XHP0BUoeaxrm/i+uv5je5EEdHR8vOq+cx85oP+7Xupa6Oq1Da3+o0ftBso3u+6q/86o7UtFaTIZ8pWSEH89KOInfqS2ekSkREF1lPfq3XlauBnifRrFV3LNIhPVyOZ/1I8rzDKldpqjPrqkRxGHyT1XSW59ZVCub22I0X1aTyk2tfVSaxkqrrZbWQPF9W6oSH9uKjjlU4P194REdYut50wq0660M721Urnf9QllOoY2dHfPrti/j32W+fxfnZ5y+/fPxZ/Hr28y8j8f7k80k1B6fpqi3vbZWiiTgQURDGwk9u0nkwFllJk0jY0ThNXlx/WsHjqu+Vnyc7s90WV9UXl1DGSeiLuR1G8tQL7LhlqyV/Ox3KJ59dZZ9V6szyFO2JbH4JZY4fNlvp5TH/zMI9C/bWliMnduLFYh4G6Romt9pi64f9/dHo5GRrw4VngAMc4AAHOMABDnCAAxzgAOeviSOi5Cb9J7BwpPpQOPZCEYXSAQ1oQAMa0IAGNKABDWhAAxrQFNPcZT/N+hPNlZdI4AAHOMABDnCAAxzgAAc4wAFOHZzH9wZa6r2B5wn13sC+ld1hOz7e3T04AClIQQpSkIIUpCAFKUhBClKQghSkr4O0l5HaMUXazUj7/V5vfwhSkIIUpCAFKUhBClKQghSkIAUpSF8HaV+RnoYuQdo7yEgta2+v3wcpSEEKUpCCFKQgBSlIQQpSkIIUpK+DdFeRfpklFOl+RnqQHoO3IAUpSEEKUpCCFKQgBSlIQQpSkIL0dZAOFOm/pEOR7mWk796NRnt7IAUpSEEKUpCCFKQgBSlIQQpSkIL0dZAOs28mEkmRDjPS0Wg4BClIQQpSkIIUpCAFKUhBClKQghSkr4V0T5F+CKjKgr1BRrq/3+sNBiAFKUhBClKQghSkIAUpSEEKUpCCtDHSFYoT2netUmf3ZuzGnjyf2XNpxvI+bm29D5IwKsdYfN/ynXsj/cgNfE9GmYcSFzs74thxhC0yT+LOjWciCm6kcPolLaPbqWnP59J3WobSNrZLGqwO047jsGXcG20x7Go2WqSNetUbRfHCk0u8ju2PZ0GYtjc8OdGgzX1MAj/u3El3OouVj6vAc6r7WI7N+bwzCsLQdYLw8tQLL4fifBF1+iL9e2dXnI9nnRPx/pM3vok7UZCkA/H7R/HxZPRWnRbLG9EXn85/F2fjsTp3a7toaN/sROPQncf/IM95s+O4ty+byTa0s9SXcJ0jY6zm/SjtKtv1ZXhpdfcNkXXgkeG40dyzF4eu76W2zpUXjL/9ZNCAqdflNYh4MU/bqz7cubZv7eWnhS3VcWuHao6KI+G4N3NPmr68O7+dtowfXoBsi91uN/ujNOiUX8eO7dTxxR+GZ19Jzzg0HDmxEy8W8zCYuJ402kvL5b1xaJndtnFre4nM/z5Wa1PaJl1uRqOTE+OhXclPj8lPn8nPLpOfAZOfIZOfPSY/+0x+Dpj8WF0uR1wz2uKa0hbXnLa4JrXFNastrmltcc1ri2tiW1wzu8c1s3tsazXXzO5xzeye1swWUXJz8+xl1ZV2tFA6Gm7IPtJzQ/aQnhuyf/TckHGv54aMej03ZMzruSEjXs8NGe96buiNTNMP0zymtzFNP0wzmd7ENP0wzWV6C9P0wzSb6Q1M0w/TfKa3L00/XOsy03ym9y5NP9Xn853rx/rb1pX6qLofsns0/ZDdo+mH7B5NP2S4a/ohw13TDxnumn7IcNf0Q4a7ph96/9J1xDWj6R1M1xHXnKb3MF1HXLOa3sV0HXHNa3of03XENbPpnUzXEdtazTWz6c1M11H1mf1496L07cLUNtd99g+95euHGSTof92ySfQ3fxW7m5cYbF5iuHmJvc1L7G9e4mDzEs929k1pNBDfBV/M8mnQ32zxadBfevFp0N/08mnQXwLzadDfD/Np0F8d82nQ3yrz7X/0F858GvR30XwaDcR5wTfYfBr1tvLSlzhWu427fMsjgwQ9GmwSdFrFJkGPBZsEnVaxSdBpFZsEnVaxSdBpFZsEnVaxSRSkVXwaDcR3QVrFp0Evt3wadFrFp0GnVXwadFrFp0GnVXwadFrFp0GnVXz7H51W8Wk0sY83EOcFaRWfRr04L31XVrW0avkyLQaJHrl7sEnQaRWbBJ1WsUnQaRWbBJ1WsUnQaRWbBJ1WsUnQaRWbREFaxafRQHwXpFV8GvRyy6dBL7d8GnRaxadBp1V8GnRaxadBp1V8GnRaxbf/0WkVn0YT+3gDcV6QVvFp1Ivz0leSVEurlu8sYZCg0yo2CTqtYpOg0yo2CTqtYpOg0yo2CTqtYpOg0yo2CTqtYpMoSKv4NBqI74K0ik+DXm75NOjllk+DTqv4NOi0ik+DTqv4NOi0ik+DTqv49j86reLTaGIfbyDOC9IqPo16cV5a+b1aWrUsDc8gQadVbBJ0WsUmQadVbBJ0WsUmQadVbBJ0WsUmQadVbBJ0WsUmUZBW8Wk0EN8FaRWfBr3c8mnQyy2fBp1W8WnQaRWfBp1W8WnQaRWfBp1W8e1/dFrFp9HEPt5AnBekVXwa9eK8tMButbRqWYGXQYJOq9gk6LSKTYJOq9gk6LSKTYJOq9gk6LSKTYJOq9gk6LSKTaIgreLTaCC+C9IqPg16ueXToJdbPg06reLToNMqPg06reLToNMqPg06reLb/+i0ik+jiX28gTgvSKv4NOrFeWkdw2pp1bLQIYMEnVaxSdBpFZsEnVaxSdBpFZsEnVaxSdBpFZsEnVaxSdBpFZtEQVrFp9FAfBeWaOPSKKpxxaVRVP6KS6Oo5huXRlE5OC6NokpxXBpFReS4NIrqy3Htf0Wl57g0mtjHG4jzwlp2XBrlcf61SoXXvISzOBK+vFtVkM0Kx7ai22k7qwBbWip2VQc6kvHbIPGdqDXotoVlDdqir/7WG1QrN3ufYjyWt3ackR3LaRAuju/daFlH+fH6KxSbTh2chY4MPyeqrHHlhopj8Zzjg7SjJJRLDFWZOe/3DRf6hhlmmGGGGWaYYYYZZphhhhlmmGGGGWaYYYYZZphhhhlmmGGGGWaYYYYZZphhhhlmmGGGGWaYYYYZZphhhhlmmGGGGWaYYYb5L2VemMGtDEPXkR9s9WCtZXbXfF5VPRobPX809lyGrozyx2uN9uoB4rkXxKbn+rL0Ednoped0y5+sjczs1fPzwLNjN/BTKCOK5bxzJSdBKI1qTz7/KqfSd55f0PKz1rDbFn315HJXPcis/jA8OYkVWInrlVvzcirjEz9W/ZNKTBJ/nJG2tsUfJS5WhPKx9UXps9zqcCeiFc/cyIyyUakmpI4njcy0/07s8az1H2Bdbyt89eh4yp77vZwHkascvks/rnI1q0O5eYEqDO70kFZYru9IFQ8dq63ZenVc1204caWn5lsr79NlnEzDIJlLR/z4o/hb/vm9eTmzo/z5dxVg20+tixetaYeY9nR6qjRMT/rTeCbeiJ74pzCOPc8Qh8/PiDx3LFsda/ui+3W7NN6+u5IgFK3r9FK6P4nrVCafqrmu+uzv6YqjP0DqUNM493dx/dX8Jhfi6Oho2Xn1PGZe82G/1r3U1XEVSvtbncYPmm10z1f9lV/dkZrWajLkMyUr5GBe2lHkTn3pjFSJiOgi68mv9bpyNdDzJJq16o5FOqSHy/GsH0med1jlKk11Zl2VKA6Db7KazvLcukrB3B678aKaVH5y7avKJFZSdb2sFpLny0qd8NBefNSxCufnC4/oCEvXm064VWd9aGe7aqXzH8pyCnXs7IhPv30R/z777bM4P/v85ZePP4tfz37+ZSTen3w+qebgNF215b2tUjQRByIKwlj4yU06D8YiK2kSCTsap8mL608reFz1vfLzZGe22+Kq+uISyjgJfTG3w0ieeoEdt2y15G+nQ/nks6vss0qdWZ6iPZHNL6HM8cNmK7085p9ZuGfB3tpy5MROvFjMwyBdw+RWW2z9sL8/Gp2cbG248AxwgAMc4AAHOMABDnCAAxzg/DVxRJTcpP8EFo5UHwrHXiiiUDqgAQ1oQAMa0IAGNKABDWhAA5pimrvsp1l/ornyEgkc4AAHOMABDnCAAxzgAAc4wKmD8/jeQEu9N/A8od4b2LeyO2zHx7u7BwcgBSlIQQpSkIIUpCAFKUhBClKQgvR1kPYyUjumSLsZab/f6+0PQQpSkIIUpCAFKUhBClKQghSkIAXp6yDtK9LT0CVIewcZqWXt7fX7IAUpSEEKUpCCFKQgBSlIQQpSkIL0dZDuKtIvs4Qi3c9ID9Jj8BakIAUpSEEKUpCCFKQgBSlIQQpSkL4O0oEi/Zd0KNK9jPTdu9Fobw+kIAUpSEEKUpCCFKQgBSlIQQpSkL4O0mH2zUQiKdJhRjoaDYcgBSlIQQpSkIIUpCAFKUhBClKQgvS1kO4p0g8BVVmwN8hI9/d7vcEApCAFKUhBClKQghSkIAUpSEEKUpA2RrpCcUL7rlXq7N6M3diT5zN7Ls1Y3setrfdBEkblGIvvW75zb6QfuYHvySjzUOJiZ0ccO46wReZJ3LnxTETBjRROv6RldDs17flc+k7LUNrGdkmD1WHacRy2jHujLYZdzUaLtFGveqMoXnhyidex/fEsCNP2hicnGrS5j0ngx5076U5nsfJxFXhOdR/LsTmfd965vutPL0+98HIozhdRpy/Sv3d2xfl41nkr3n/yxjdxxw/CdBh+/yg+nozeqtNieSP64tP57+JsPFbnbm0XDeybnWgcuvP4H+Q5b3Yc9/ZlM9mGdpb6Eq5zZIzVrB+lHWW7vgwvre6BIbLuOzIcN5p79uLQ9b3U1rnygvG3nwwaMPW6vAYRL+Zpe9WDO9f2rb38tLClOm7tUM1QcSQc92buSdOXd+e305bxwwuQbbHb7WZ/lIac8uvYsZ06vvjD8Owr6RmHhiMnduLFYh4GE9eTRntpubw3Di2z2zZubS+R+d/HamVK26SLzWh0cmI8tCv56TH56TP52WXyM2DyM2Tys8fkZ5/JzwGTH6vL5YhrRltcU9rimtMW16S2uGa1xTWtLa55bXFNbItrZve4ZnaPba3mmtk9rpnd05rZIkpubp69qrrSjhZKR8MN2Ud6bsge0nND9o+eGzLu9dyQUa/nhox5PTdkxOu5IeNdzw29kWn6YZrH9Dam6YdpJtObmKYfprlMb2GafphmM72Bafphms/09qXph2tdZprP9N6l6af6fL5z/Vh/27pSH1X3Q3aPph+yezT9kN2j6YcMd00/ZLhr+iHDXdMPGe6afshw1/RD71+6jrhmNL2D6TrimtP0HqbriGtW07uYriOueU3vY7qOuGY2vZPpOmJbq7lmNr2Z6TqqPrMf712UvluY2ua6z/6ht3z5MIME/a9bNon+5q9id/MSg81LDDcvsbd5if3NSxxsXuLZzr4pjQbiu+CLWT4N+pstPg36Sy8+DfqbXj4N+ktgPg36+2E+DfqrYz4N+ltlvv2P/sKZT4P+LppPo4E4L/gGm0+j3lZe+grHardxl+94ZJCgR4NNgk6r2CTosWCToNMqNgk6rWKToNMqNgk6rWKToNMqNomCtIpPo4H4Lkir+DTo5ZZPg06r+DTotIpPg06r+DTotIpPg06r+DTotIpv/6PTKj6NJvbxBuK8IK3i06gX56VvyqqWVi1fpcUg0SN3DzYJOq1ik6DTKjYJOq1ik6DTKjYJOq1ik6DTKjYJOq1ikyhIq/g0GojvgrSKT4Nebvk06OWWT4NOq/g06LSKT4NOq/g06LSKT4NOq/j2Pzqt4tNoYh9vIM4L0io+jXpxXvpCkmpp1fKNJQwSdFrFJkGnVWwSdFrFJkGnVWwSdFrFJkGnVWwSdFrFJkGnVWwSBWkVn0YD8V2QVvFp0Mstnwa93PJp0GkVnwadVvFp0GkVnwadVvFp0GkV3/5Hp1V8Gk3s4w3EeUFaxadRL85L675XS6uWheEZJOi0ik2CTqvYJOi0ik2CTqvYJOi0ik2CTqvYJOi0ik2CTqvYJArSKj6NBuK7IK3i06CXWz4Nernl06DTKj4NOq3i06DTKj4NOq3i06DTKr79j06r+DSa2McbiPOCtIpPo16cl5bXrZZWLevvMkjQaRWbBJ1WsUnQaRWbBJ1WsUnQaRWbBJ1WsUnQaRWbBJ1WsUkUpFV8Gg3Ed0FaxadBL7d8GvRyy6dBp1V8GnRaxadBp1V8GnRaxadBp1V8+x+dVvFpNLGPNxDnBWkVn0a9OC+tYlgtrVqWOWSQoNMqNgk6rWKToNMqNgk6rWKToNMqNgk6rWKToNMqNgk6rWKTKEir+DQaiO/CEm1cGkU1rrg0ispfcWkU1Xzj0igqB8elUVQpjkujqIgcl0ZRfTmu/a+o9ByXRhP7eANxXljLjkujPM6/VqnwmhdwFkfCl3erCrJZ4dhWdDttZxVgS0vFrqpARzJ+GyS+E7UG3bawrEFb9NXfeoNq5WbvU4zH4taOM7JjOQ3CxfG9Gy2rKD9ef4VS06mDs9CR4edEFTWu3FBxLJ5zfJB2lIRyiaHqMuf9vuEy3zDDDDPMMMMMM8wwwwwzzDDDDDPMMMMMM8wwwwwzzDDDDDPMMMMMM8wwwwwzzDDDDDPMMMMMM8wwwwwzzDDDDDPMMMMMM8ww/6XMCzO4lWHoOvKDrR6stczums+rqkdjo+ePxp7L0JVR/nit0V49QDz3gtj0XF+WPiIbvfScbvmTtZGZvXp+Hnh27AZ+CmVEsZx3ruQkCKVR7cnnX+VU+s7zC1p+1hp226KvnlzuqgeZ1R+GJyexAitxvXJrXk5lfOLHqn9SiUnijzPS1rb4o8TFilA+tr4ofZZbHe5EtOKZG5lRNirVhNTxpJGZ9t+JPZ61/gOs622Frx4dT9lzv5fzIHKVw3fpx1WuZnUoNy9QhcGdHtIKy/UdqeKhY7U1W6+O67oNJ6701Hxr5X26jJNpGCRz6YgffxR/yz+/Ny9ndpQ//64CbPupdfGiNe0Q055OT5WG6Ul/Gs/EG9ET/xTGsecZ4vD5GZHnjmWrY21fdL9ul8bbd1cShKJ1nV5K9ydxncrkUzXXVZ/9PV1x9AdIHWoa5/4urr+a3+RCHB0dLTuvnsfMaz7s17qXujquQml/q9P4QbON7vmqv/KrO1LTWk2GfKZkhRzMSzuK3KkvnZEqERFdZD35tV5XrgZ6nkSzVt2xSIf0cDme9SPJ8w6rXKWpzqyrEsVh8E1W01meW1cpmNtjN15Uk8pPrn1VmcRKqq6X1ULyfFmpEx7ai486VuH8fOERHWHpetMJt+qsD+1sV610/kNZTqGOnR3x6bcv4t9nv30W52efv/zy8Wfx69nPv4zE+5PPJ9UcnKartry3VYom4kBEQRgLP7lJ58FYZCVNImFH4zR5cf1pBY+rvld+nuzMdltcVV9cQhknoS/mdhjJUy+w45atlvztdCiffHaVfVapM8tTtCey+SWUOX7YbKWXx/wzC/cs2FtbjpzYiReLeRika5jcaoutH/b3R6OTk60NF54BDnCAAxzgAAc4wAEOcIADnL8mjoiSm/SfwMKR6kPh2AtFFEoHNKABDWhAAxrQgAY0oAENaEBTTHOX/TTrTzRXXiKBAxzgAAc4wAEOcIADHOAABzh1cB7fG2ip9waeJ9R7A/tWdoft+Hh39+AApCAFKUhBClKQghSkIAUpSEEKUpC+DtJeRmrHFGk3I+33e739IUhBClKQghSkIAUpSEEKUpCCFKQgfR2kfUV6GroEae8gI7Wsvb1+H6QgBSlIQQpSkIIUpCAFKUhBClKQvg7SXUX6ZZZQpPsZ6UF6DN6CFKQgBSlIQQpSkIIUpCAFKUhBCtLXQTpQpP+SDkW6l5G+ezca7e2BFKQgBSlIQQpSkIIUpCAFKUhBCtLXQTrMvplIJEU6zEhHo+EQpCAFKUhBClKQghSkIAUpSEEKUpC+FtI9RfohoCoL9gYZ6f5+rzcYgBSkIAUpSEEKUpCCFKQgBSlIQQrSxkhXKE5o37VKnd2bsRt78nxmz6UZy/u4tfU+SMKoHGPxfct37o30IzfwPRllHkpc7OyIY8cRtsg8iTs3nokouJHC6Ze0jG6npj2fS99pGUrb2C5psDpMO47DlnFvtMWwq9lokTbqVW8UxQtPLvE6tj+eBWHa3vDkRIM29zEJ/LhzJ93pLFY+rgLPqe5jOTbn887/duPxTPqXp154ORTni6jTF+nfO7vifDzrvBXvP3njm7gj7SgWv38UH09Gb9VZsbwRffHp/HdxNh6rU7e2iwb2zU40Dt15/A/ynDc7jnv7splsQztLfQnXOTLGataP0o6yXV+Gl5bVNUTWfUeG40Zzz14cur6X2jpXXjD+9pNBA6Zel9cg4sU8ba96cOfavrWXnxa2VMetHaoZKo6E497MPWn68u78dtoyfngBsi12u93sj9KQU34dO7ZTxxd/GJ59JT3j0HDkxE68WMzDYOJ60mgvLZf3xqFldtvGre0l0jgcDMz+wZOjP2gbY7VQpS7StWc0OjkxHtqV3PY247a/Gbe7m3E72Izb4Wbc7m3G7f5m3B5sxq3V3ZDfDcWZtaFAszYUadaGQs3aUKxZGwo2a0PRZm0o3KwNxVtvQ/HW29S+tqF4620o3nrrxJuIkpubZ68Er5M5hNLR8Fq1f/W8Vu1dPa9V+1bPa9WVTM9r1XVMz2vVVUzPa9U1TM9r1RVMz2vlhEHT7Waiq3K6oOl2M/FVOVnQdLuZCKucKmi63UyMVU4UNN1uJsoqpwmabje0h20myirnCJpua0fZnevHa6cHV+qM6m6rdq2m26pdq+m2atdquq26gGm6rbqAabqtuoBpuq26gGm6rbqAabqtnCfo+t1QnFXOFHT9bijSKucKun43FGuVswVdvxuKtsr5gq7fDcVb5YxB1++m9rUNxVvlpEHXr168fa1y4yK/LymOhC/vVjdGsvshreh22s5ubJTeAVnd3Ixk/DZIfCdqDbptYVmDtuirv/UG1e6i3KcYj/dsHWdkx3IahIvjezda3hx87IsKd1BTB2ehI8PPibpXV7mh4lg85/gg7SgJ5RJD3W7Mx2Dde8LZDannUucydGWU46ZK+YDMvSA21V2yUsnopesuJ43MbOLNA8+O3cBPoYwolvPOlZwEoTSqzaRf5VT6zvMLWn7WGqazoK9mgrqpZqk/8luupXejV27Ny6mMT/xY9U8qMUn8cUba2hZ/VLjnqgjlY+uL0thQhzsRrXjmRum8Vu2qCanjSSMz7b8Tezxr/QdY19sKP7/HmPu9nAeRqxy+Sz+ucjWrQ7l5gSoM7vSQVliu70gVuB2rrdl6dVzXbThxpafmWyvv02WcTMMgmUtH/Pij+Fv++b15ObOjfD1RAbb91Lp40Zp2iGlPp6dKw/SkP41n4o3oiX8K49jzDHH4/IzIc8ey1bG2L7pft0vj7bsrCULRuk4vpfuTuE5l8qma66rP/n4kLP0BUoeaxrm/i+uv5jeZLm9HR8vOq+cx85oP+7Xupa6Oq1Da3+o0ftBso3u+6q/86o7UtFaTIZ8p2cZoXi5/TySd7BdF0UXWk1/rdeVqoOdJNGvVHYt0SA+X41k/kjzvsMpVmurMuipRHAbfZDWd5bl1lYK5PXbjRTWp/OTaV5VJrKTqelktJM+XlTrhob34qGMVzs8XHtERlq43nXCrzvrQznbVSuc/lOUU6tjZEZ9++yL+ffbbZ3F+9vnLLx9/Fr+e/fzLSLw/+XxSzcFpumrLe1ulaCIORBSkibSf3KTzYCyyFDESdjROkxfXn1bwuOp75efJzmy3xVX1xSWUcRL6Ym6HkTz1Ajtu2WrJ306H8slnV9lnlTqzPEV7IptfQpnjh//C7z7/dMc2/3GnugH7X/kZKnCAAxzgAAc4wAEOcIADHOC8epzvf/miiELpgAY0oAENaEADGtCABjSgAQ1oimm++02golE/8QMOcIADHOAABzjAAQ5wgAMc4PwXqy1+kTdzGdpxEkrROt1GvcX/WfUWk/ncW4hjNxRqoF5JzUTrNdRMtBqrmZj9vW5xJiY/fSY/u0x+Bkx+hkx+9pj87DP5OWDy86ymwFqOuGa0xTWlLa45bXFNaotrVltc09rimtcW18S2uGZ2j2tm99jWaq6Z3eOa2T2tmV29lt8zV/WL963hhuyh+uX51nBDxn39AnxruCFjvn6JvTXckPG+RhG9dfwwzWN6G1ujLt46fpimMr2HrVHqbh0/TLOZ3sDWqF63zjrINJ/p3WuNgnTr+GGaz/TWVb/G3DM3axSVW8cP2T1rlI1bxw8Z7msUhlvHDxnua5R+W8cPGe7rFHdbyxHXjKZ3sHXqta3liGtS05vYOiXY1nLENa/pfWydqmprrYxcM5veytYplLaWI66ZTe9m3zl6fN+Tpd73dJ5Q73vqW9W+bzw+3t09OGCQoP91yyZB/7uXTYL+FzGbBP0tEJsE/f0QmwT9zRGbBP2dEpsE/W0Tm0TBV6x8Gg3Ed8EXs3waDUR4wde5fBoNxHjBl8B8Gg1EecFXx3waDcR5wRfOfBpN7OMNxHnBN9h8GvXivJdp2DGl0a2WVvX7vd7+kEGCHg02CXow2CTosWCToJdcNgl6xWWToBdcNgl6vWWToJdbNomCtIpPo4H4Lkir+DQaiPCCtIpPo4EYL0ir+DQaiPKCtIpPo4E4L0ir+DSa2McbiPOCtIpPo16c95XGaehSbyc/qJZWWdbeXr/PIEGPBpsEPRhsEvRYsEnQSy6bBL3isknQCy6bBL3esknQyy2bREFaxafRQHwXpFV8Gg1EeEFaxafRQIwXpFV8Gg1EeUFaxafRQJwXpFV8Gk3s4w3EeUFaxadRL853lcaXWUJp7FdLq9QblwZvGSTo0WCToAeDTYIeCzYJesllk6BXXDYJesFlk6DXWzYJerllkyhIq/g0GojvgrSKT6OBCC9Iq/g0GojxgrSKT6OBKC9Iq/g0GojzgrSKT6OJfbyBOC9Iq/g06sX5QGn8SzqUxl61tOrdu9Fob49Bgh4NNgl6MNgk6LFgk6CXXDYJesVlk6AXXDYJer1lk6CXWzaJgrSKT6OB+C5Iq/g0GojwgrSKT6OBGC9Iq/g0GojygrSKT6OBOC9Iq/g0mtjHG4jzgrSKT6NenA+z1C2RlMawWlo1Gg2HLBL0aLBJ0IPBJkGPBZsEveSySdArLpsEveCySdDrLZsEvdyySRSkVXwaDcR3QVrFp9FAhBekVXwaDcR4QVrFp9FAlBekVXwaDcR5QVrFp9HEPt5AnBekVXwa9eJ8T2l8CKifxfcG1dKq/f1ebzBgkCiqc8MkUVQBh0miqDYOk0RRPSgmiaJKUUwSRTWkmCSKqksxSRTVnWKSKCy2xqXRQHwXlmjj0mggwgsLu3FpNBDjheXguDQaiPLCInJcGg3EeWHpOS6NJvbxBuK8sJYdl0Z5nH+tUuE1L8MsjoQv71YVZLPCsa3odtrOKsCWlopd1XKOZPw2SHwnag26bWFZg7boq7/1BtXKzd6nGI91qB1nZMdyGoSL43s3WlZCfrz+CgWjUwdnoSPDz4kqTFy5oeJYPOf4IO0oCeUSQ9VWzvt9wxW5YYYZZphhhhlmmGGGGWaYYYYZZphhhhlmmGGGGWaYYYYZZphhhhlmmGGGGWaYYYYZZphhhhlmmGGGGWaYYYYZZphhhhlmmGH+S5kXZnArw9B15AdbPVhrmd01n1dVj8ZGzx+NPZehK6P88VqjvXqAeO4Fsem5vix9RDZ66Tnd8idrIzN79fw88OzYDfwUyohiOe9cyUkQSqPak8+/yqn0necXtPysNey2RV89udxVDzKrPwxPTmIFVuJ65da8nMr4xI9V/6QSk8QfZ6StbfFHiYsVoXxsfVH6LLc63IloxTM3MqNsVKoJqeNJIzPtvxN7PGv9B1jX2wpfPTqesud+L+dB5CqH79KPq1zN6lBuXqAKgzs9pBWW6ztSxUPHamu2Xh3XdRtOXOmp+dbK+3QZJ9MwSObSET/+KP6Wf35vXs7sKH/+XQXY9lPr4kVr2iGmPZ2eKg3Tk/40nok3oif+KYxjzzPE4fMzIs8dy1bH2r7oft0ujbfvriQIRes6vZTuT+I6lcmnaq6rPvt7uuLoD5A61DTO/V1cfzW/yYU4Ojpadl49j5nXfNivdS91dVyF0v5Wp/GDZhvd81V/5Vd3pKa1mgz5TMkKOZiXdhS5U186I1UiIrrIevJrva5cDfQ8iWatumORDunhcjzrR5LnHVa5SlOdWVclisPgm6ymszy3rlIwt8duvKgmlZ9c+6oyiZVUXS+rheT5slInPLQXH3Wswvn5wiM6wtL1phNu1Vkf2tmuWun8h7KcQh07O+LTb1/Ev89++yzOzz5/+eXjz+LXs59/GYn3J59Pqjk4TVdteW+rFE3EgYiCMBZ+cpPOg7HISppEwo7GafLi+tMKHld9r/w82ZnttriqvriEMk5CX8ztMJKnXmDHLVst+dvpUD757Cr7rFJnlqdoT2TzSyhz/LDZSi+P+WcW7lmwt7YcObETLxbzMEjXMLnVFls/7O+PRicnWxsuPAMc4AAHOMABDnCAAxzgAAc4f00cESU36T+BhSPVh8KxF4oolA5oQAMa0IAGNKABDWhAAxrQgKaY5i77adafaK68RAIHOMABDnCAAxzgAAc4wAEOcOrgPL430FLvDTxPqPcG9q3sDtvx8e7uwQFIQQpSkIIUpCAFKUhBClKQghSkIH0dpL2M1I4p0m5G2u/3evtDkIIUpCAFKUhBClKQghSkIAUpSEH6Okj7ivQ0dAnS3kFGall7e/0+SEEKUpCCFKQgBSlIQQpSkIIUpCB9HaS7ivTLLKFI9zPSg/QYvAUpSEEKUpCCFKQgBSlIQQpSkIIUpK+DdKBI/yUdinQvI333bjTa2wMpSEEKUpCCFKQgBSlIQQpSkIIUpK+DdJh9M5FIinSYkY5GwyFIQQpSkIIUpCAFKUhBClKQghSkIH0tpHuK9ENAVRbsDTLS/f1ebzAAKUhBClKQghSkIAUpSEEKUpCCFKSNka5QnNC+a5U6uzdjN/bk+cyeSzOW93Fr632QhFE5xuL7lu/cG+lHbuB7Mso8lLjY2RHHjiNskXkSd248E1FwI4XTL2kZ3U5Nez6XvtMylLaxXdJgdZh2HIct495oi2FXs9EibdSr3iiKF55c4nVsfzwLwrS94cmJBm3uYxL4cedOutNZrHxcBZ5T3cdybP7P8f9ZdvBnOZN2LM7GY3E+nm1tFw3Sm51oHLrz+B/kOW92HPf2ZTPZhnaW+hKuc2SM1QwepRdtu74MLy2rZ4isK44Mx43mnr04dH0vtXWuvGD87SeDBky9Lq9BxIt52l71xs61fWsvPy1sqY5bO1SzTRwJx72Ze9L05d357bRl/PACZFvsdrvZH6Xho/w6dmynji/+MDz7SnrGoeHIiZ14sZiHwcT1pNFeWi7vjUPL7LaNW9tLpHE4PDAPnhz7B21jrNac1EO6jIxGJyfGQ7uS195GvPY34nV3I14HG/E63IjXvY143d+I14ONeLW6m3G7meiyNhNe1mbiy9pMgFmbiTBrMyFmbSbGrM0EmbWZKOttJsp6G9rDNhNlvc1EWW+NKBNRcnPz7DXeNTKEUDoaTiv2rZ7Tij2r57Riv+o5rbh26TmtuHLpOa24buk5rbhq6TmtuGbpOa2aGGh63UhMVU0LNL1uJKqqJgWaXjcSV1VTAk2vG4msqgmBpteNxFbVdEDT62b2q43EVtVcQNNr3di6c/143TTgSp1Q3WvFbtX0WrFbNb1W7FZNrxWXLE2vFZcsTa8VlyxNrxWXLE2vFZcsTa9V8wFdt5uJrqoZga7bzcRX1ZxA1+1mIqxqVqDrdjMxVjUv0HW7mSirmhnout3QHraZKKuaHOi61Yqyr1VuOOT3BsWR8OXd6oZGdh+jFd1O29kNidI7F6sbjJGM3waJ70StQbctLGvQFn31t96g2t2P+xTj8b6p44zsWE6DcHF870bLG3SPXVHhLmbq4Cx0ZPg5UffLKjdUHIvnHB+kHSWhXGKoW375EKx7Xza7kfRc6lyGroxy3FQpH5C5F8SmurtVKhm9dN3lpJGZzbt54NmxG/gplBHFct65kpMglEa1mfSrnErfeX5By89aw3QW9NVMUDfDLPVHftuz9I7wyq15OZXxiR+r/kklJok/zkhb2+KPCvc9FaF8bH1RGhvqcCeiFc/cKJ3Xql01IXU8aWSm/Xdij2et/wDrelvh5/cGc7+X8yBylcN36cdVrmZ1KDcvUIXBnR7SCsv1HakCt2O1NVuvjuu6DSeu9NR8a+V9uoyTaRgkc+mIH38Uf8s/vzcvZ3aUrycqwLafWhcvWtMOMe3p9FRpmJ70p/FMvBE98U9hHHueIQ6fnxF57li2Otb2Rffrdmm8fXclQSha1+mldH8S16lMPlVzXfXZ34+EpT9A6lDTOPd3cf3V/CbT5e3oaNl59TxmXvNhv9a91NVxFUr7W53GD5ptdM9X/ZVf3ZGa1moy5DMl2xjNy+VveqST/aonush68mu9rlwN9DyJZq26Y5EO6eFyPOtHkucdVrlKU51ZVyWKw+CbrKazPLeuUjC3x268qCaVn1z7qjKJlVRdL6uF5PmyUic8tBcfdazC+fnCIzrC0vWmE27VWR/a2a5a6fyHspxCHTs74tNvX8S/z377LM7PPn/55ePP4tezn38Zifcnn0+qOThNV215b6sUTcSBiII0kfaTm3QejEWWIkbCjsZp8uL60woeV32v/DzZme22uKq+uIQyTkJfzO0wkqdeYMctWy352+lQPvnsKvusUmeWp2hPZPNLKHP88F/47eWfbsDmP7BUN1T/Kz8FBQ5wgAMc4AAHOMABDnCAA5xXj/P9D1wUUSgd0IAGNKABDWhAAxrQgAY0oAFNMc13PwlUNOonfsABDnCAAxzgAAc4wAEOcIADnP9ixcMv8mYuQztOQilap9uoefg/qubhv2w1497L7D/HN1eu9GOhhkxVPpROkvZ/R+x1T19JEcT+ayiC2G+sCGL26GndIkxMfvpMfnaZ/AyY/AyZ/Owx+dln8nPA5OdZdYG1HHHNaItrSltcc9rimtQW16y2uKa1xTWvLa6JbXHN7B7XzO6xrdVcM7vHNbN7WjO7etG+Z67ql+lbww3ZQ/VL8a3hhoz7+uX21nBDxnz9knpruCHjfY2yeev4YZrH9Da2RjG8dfwwTWV6D1ujxN06fphmM72BrVG4bp11kGk+07vXGuXo1vHDNJ/prat+kblnbtYoK7eOH7J71igdt44fMtzXKA+3jh8y3NcoAbeOHzLc1ynztpYjrhlN72DrFG9byxHXpKY3sXVKsq3liGte0/vYOoXW1loZuWY2vZWtUz5tLUdcM5vezVAU7VUURYMZZphhhhlmmGGGGWaYYYYZZphhhvl/knlhBrcyDF1HfrDVF1WW2UVR/CdXgqL4jweK4msdKIqPovgaB4ri//lAUfw/HyiKr3mgKD6K4r94oCg+cIADHOAABzjAAQ5wgAMc4ADnNZSUBA1oQAMa0IAGNKABDWhAA5rXQ/P/TSlL4AAHOMABDnCAAxzgAAc4wKmv918oiv/OvZF+5Aa+J6MIJfH/Z5XED8Jv4mQycceu9MeLx0L4zZbAz8/+k+Xp/6/+vvzvo/f8L4//uQqchfrvLL7x/vG//h+G8Og5"
               },
               {
                  "name" : "annual_peak_electric_demand",
                  "units" : "kW",
                  "value" : 1090.0141100000001
               },
               {
                  "name" : "first_year_capital_cost",
                  "units" : "$",
                  "value" : 0
               },
               {
                  "name" : "annual_utility_cost",
                  "units" : "$",
                  "value" : 0
               },
               {
                  "name" : "total_lifecycle_cost",
                  "units" : "$",
                  "value" : 0
               }
            ],
            "step_warnings" : [ "A table in Annual Overview section returned false and was skipped." ]
         }
      }
   ],
   "updated_at" : "20170710T185214Z",
   "weather_file" : "USA_CO_Denver.Intl.AP.725650_TMY3.epw"
}
