{
   "completed_at" : "20170710T183734Z",
   "completed_status" : "Success",
   "created_at" : "2017-07-10 18:35:32 +0000",
   "current_step" : 5,
   "description" : "",
   "eplusout_err" : "Program Version,EnergyPlus, Version 8.7.0-78a111df4a, YMD=2017.07.10 18:36,IDD_Version 8.7.0\n   ************* IDF Context for following error/warning message:\n   ************* Note -- lines truncated at 300 characters, if necessary...\n   *************      5 Building,\n   ************* indicated Name=NECB 2011-SmallOffice-NECB HDD Method-CAN_PQ_Schefferville.718280_CWEC.epw created: 2017-07-10 18:35:38 +0000\n   ************* Only last 1 lines before error line shown.....\n   *************      6   NECB 2011-SmallOffice-NECB HDD Method-CAN_PQ_Schefferville.718280_CWEC.epw created: 2017-07-10 18:35:38 +0000, !- Name\n   ** Warning ** IP: IDF line~6 Alpha Argument length exceeds maximum, will be truncated=  NECB 2011-SmallOffice-NECB HDD Method-CAN_PQ_Schefferville.718280_CWEC.epw created: 2017-07-10 18:35:38 +000\n   **   ~~~   ** Will be processed as Alpha=NECB 2011-SMALLOFFICE-NECB HDD METHOD-CAN_PQ_SCHEFFERVILLE.718280_CWEC.EPW CREATED: 2017-07-10 18:35:38 +0000\n   ************* Beginning Zone Sizing Calculations\n   ** Warning ** ProcessScheduleInput: Schedule:Day:Interval=\"ECONOMIZER MAX OA FRACTION 100 PCT DEFAULT\", Blank Schedule Type Limits Name input -- will not be validated.\n   ** Warning ** ProcessScheduleInput: Schedule:Day:Interval=\"SCHEDULE DAY 1\", Blank Schedule Type Limits Name input -- will not be validated.\n   ** Warning ** ProcessScheduleInput: Schedule:Day:Interval=\"SCHEDULE DAY 10\", Blank Schedule Type Limits Name input -- will not be validated.\n   ** Warning ** ProcessScheduleInput: Schedule:Day:Interval=\"SCHEDULE DAY 11\", Blank Schedule Type Limits Name input -- will not be validated.\n   ** Warning ** ProcessScheduleInput: Schedule:Day:Interval=\"SCHEDULE DAY 12\", Blank Schedule Type Limits Name input -- will not be validated.\n   ** Warning ** ProcessScheduleInput: Schedule:Day:Interval=\"SCHEDULE DAY 13\", Blank Schedule Type Limits Name input -- will not be validated.\n   ** Warning ** ProcessScheduleInput: Schedule:Day:Interval=\"SCHEDULE DAY 14\", Blank Schedule Type Limits Name input -- will not be validated.\n   ** Warning ** ProcessScheduleInput: Schedule:Day:Interval=\"SCHEDULE DAY 15\", Blank Schedule Type Limits Name input -- will not be validated.\n   ** Warning ** ProcessScheduleInput: Schedule:Day:Interval=\"SCHEDULE DAY 16\", Blank Schedule Type Limits Name input -- will not be validated.\n   ** Warning ** ProcessScheduleInput: Schedule:Day:Interval=\"SCHEDULE DAY 17\", Blank Schedule Type Limits Name input -- will not be validated.\n   ** Warning ** ProcessScheduleInput: Schedule:Day:Interval=\"SCHEDULE DAY 18\", Blank Schedule Type Limits Name input -- will not be validated.\n   ** Warning ** ProcessScheduleInput: Schedule:Day:Interval=\"SCHEDULE DAY 19\", Blank Schedule Type Limits Name input -- will not be validated.\n   ** Warning ** ProcessScheduleInput: Schedule:Day:Interval=\"SCHEDULE DAY 2\", Blank Schedule Type Limits Name input -- will not be validated.\n   ** Warning ** ProcessScheduleInput: Schedule:Day:Interval=\"SCHEDULE DAY 20\", Blank Schedule Type Limits Name input -- will not be validated.\n   ** Warning ** ProcessScheduleInput: Schedule:Day:Interval=\"SCHEDULE DAY 21\", Blank Schedule Type Limits Name input -- will not be validated.\n   ** Warning ** ProcessScheduleInput: Schedule:Day:Interval=\"SCHEDULE DAY 5\", Blank Schedule Type Limits Name input -- will not be validated.\n   ** Warning ** ProcessScheduleInput: Schedule:Day:Interval=\"SCHEDULE DAY 6\", Blank Schedule Type Limits Name input -- will not be validated.\n   ** Warning ** ProcessScheduleInput: Schedule:Day:Interval=\"SCHEDULE DAY 7\", Blank Schedule Type Limits Name input -- will not be validated.\n   ** Warning ** ProcessScheduleInput: Schedule:Day:Interval=\"SCHEDULE DAY 8\", Blank Schedule Type Limits Name input -- will not be validated.\n   ** Warning ** ProcessScheduleInput: Schedule:Day:Interval=\"SCHEDULE DAY 9\", Blank Schedule Type Limits Name input -- will not be validated.\n   ** Warning ** ProcessScheduleInput: Schedule:Year=\"ECONOMIZER MAX OA FRACTION 100 PCT\", Blank Schedule Type Limits Name input -- will not be validated.\n   ** Warning ** ProcessScheduleInput: Schedule:Year=\"SCHEDULE RULESET 10\", Blank Schedule Type Limits Name input -- will not be validated.\n   ** Warning ** ProcessScheduleInput: Schedule:Year=\"SCHEDULE RULESET 11\", Blank Schedule Type Limits Name input -- will not be validated.\n   ** Warning ** ProcessScheduleInput: Schedule:Year=\"SCHEDULE RULESET 12\", Blank Schedule Type Limits Name input -- will not be validated.\n   ** Warning ** ProcessScheduleInput: Schedule:Year=\"SCHEDULE RULESET 13\", Blank Schedule Type Limits Name input -- will not be validated.\n   ** Warning ** ProcessScheduleInput: Schedule:Year=\"SCHEDULE RULESET 14\", Blank Schedule Type Limits Name input -- will not be validated.\n   ** Warning ** ProcessScheduleInput: Schedule:Year=\"SCHEDULE RULESET 15\", Blank Schedule Type Limits Name input -- will not be validated.\n   ** Warning ** ProcessScheduleInput: Schedule:Year=\"SCHEDULE RULESET 16\", Blank Schedule Type Limits Name input -- will not be validated.\n   ** Warning ** ProcessScheduleInput: Schedule:Year=\"SCHEDULE RULESET 17\", Blank Schedule Type Limits Name input -- will not be validated.\n   ** Warning ** ProcessScheduleInput: Schedule:Year=\"SCHEDULE RULESET 3\", Blank Schedule Type Limits Name input -- will not be validated.\n   ** Warning ** ProcessScheduleInput: Schedule:Year=\"SCHEDULE RULESET 4\", Blank Schedule Type Limits Name input -- will not be validated.\n   ** Warning ** ProcessScheduleInput: Schedule:Year=\"SCHEDULE RULESET 5\", Blank Schedule Type Limits Name input -- will not be validated.\n   ** Warning ** ProcessScheduleInput: Schedule:Year=\"SCHEDULE RULESET 6\", Blank Schedule Type Limits Name input -- will not be validated.\n   ** Warning ** ProcessScheduleInput: Schedule:Year=\"SCHEDULE RULESET 7\", Blank Schedule Type Limits Name input -- will not be validated.\n   ** Warning ** ProcessScheduleInput: Schedule:Year=\"SCHEDULE RULESET 8\", Blank Schedule Type Limits Name input -- will not be validated.\n   ** Warning ** ProcessScheduleInput: Schedule:Year=\"SCHEDULE RULESET 9\", Blank Schedule Type Limits Name input -- will not be validated.\n   ** Warning ** ProcessScheduleInput: Schedule:Constant=\"ALWAYS OFF DISCRETE\", Blank Schedule Type Limits Name input -- will not be validated.\n   ** Warning ** ProcessScheduleInput: Schedule:Constant=\"ALWAYS ON CONTINUOUS\", Blank Schedule Type Limits Name input -- will not be validated.\n   ** Warning ** CheckUsedConstructions: There are 22 nominally unused constructions in input.\n   **   ~~~   ** For explicit details on each unused construction, use Output:Diagnostics,DisplayExtraWarnings;\n   ************* Beginning System Sizing Calculations\n   ************* Beginning Plant Sizing Calculations\n   ** Warning ** GetDXCoils: Coil:Cooling:DX:SingleSpeed=\"COIL COOLING DX SINGLE SPEED 5 16KBTU/HR 14.0SEER\", invalid\n   **   ~~~   ** ...Part Load Fraction Correlation Curve Name = DXCOOL-NECB2011-REF-COOLPLFFPLR 4 has out of range value.\n   **   ~~~   ** ...Curve maximum must be <= 1.0, curve max at PLR = 0.99 is 1.015\n   **   ~~~   ** ...Setting curve maximum to 1.0 and simulation continues.\n   ** Warning ** GetDXCoils: Coil:Cooling:DX:SingleSpeed=\"COIL COOLING DX SINGLE SPEED 4 21KBTU/HR 14.0SEER\", invalid\n   **   ~~~   ** ...Part Load Fraction Correlation Curve Name = DXCOOL-NECB2011-REF-COOLPLFFPLR 3 has out of range value.\n   **   ~~~   ** ...Curve maximum must be <= 1.0, curve max at PLR = 0.99 is 1.015\n   **   ~~~   ** ...Setting curve maximum to 1.0 and simulation continues.\n   ** Warning ** GetDXCoils: Coil:Cooling:DX:SingleSpeed=\"COIL COOLING DX SINGLE SPEED 2 15KBTU/HR 14.0SEER\", invalid\n   **   ~~~   ** ...Part Load Fraction Correlation Curve Name = DXCOOL-NECB2011-REF-COOLPLFFPLR 1 has out of range value.\n   **   ~~~   ** ...Curve maximum must be <= 1.0, curve max at PLR = 0.99 is 1.015\n   **   ~~~   ** ...Setting curve maximum to 1.0 and simulation continues.\n   ** Warning ** GetDXCoils: Coil:Cooling:DX:SingleSpeed=\"COIL COOLING DX SINGLE SPEED 1 14KBTU/HR 14.0SEER\", invalid\n   **   ~~~   ** ...Part Load Fraction Correlation Curve Name = DXCOOL-NECB2011-REF-COOLPLFFPLR has out of range value.\n   **   ~~~   ** ...Curve maximum must be <= 1.0, curve max at PLR = 0.99 is 1.015\n   **   ~~~   ** ...Setting curve maximum to 1.0 and simulation continues.\n   ** Warning ** GetDXCoils: Coil:Cooling:DX:SingleSpeed=\"COIL COOLING DX SINGLE SPEED 3 18KBTU/HR 14.0SEER\", invalid\n   **   ~~~   ** ...Part Load Fraction Correlation Curve Name = DXCOOL-NECB2011-REF-COOLPLFFPLR 2 has out of range value.\n   **   ~~~   ** ...Curve maximum must be <= 1.0, curve max at PLR = 0.99 is 1.015\n   **   ~~~   ** ...Setting curve maximum to 1.0 and simulation continues.\n   ** Warning ** The Standard Ratings is calculated for Coil:Cooling:DX:SingleSpeed = COIL COOLING DX SINGLE SPEED 5 16KBTU/HR 14.0SEER but not at the AHRI test condition due to curve out of bound.\n   **   ~~~   **  Review the Standard Ratings calculations in the Engineering Reference for this coil type. Also, use Output:Diagnostics, DisplayExtraWarnings for further guidance.\n   ** Warning ** The Standard Ratings is calculated for Coil:Cooling:DX:SingleSpeed = COIL COOLING DX SINGLE SPEED 4 21KBTU/HR 14.0SEER but not at the AHRI test condition due to curve out of bound.\n   **   ~~~   **  Review the Standard Ratings calculations in the Engineering Reference for this coil type. Also, use Output:Diagnostics, DisplayExtraWarnings for further guidance.\n   ** Warning ** The Standard Ratings is calculated for Coil:Cooling:DX:SingleSpeed = COIL COOLING DX SINGLE SPEED 2 15KBTU/HR 14.0SEER but not at the AHRI test condition due to curve out of bound.\n   **   ~~~   **  Review the Standard Ratings calculations in the Engineering Reference for this coil type. Also, use Output:Diagnostics, DisplayExtraWarnings for further guidance.\n   ** Warning ** The Standard Ratings is calculated for Coil:Cooling:DX:SingleSpeed = COIL COOLING DX SINGLE SPEED 1 14KBTU/HR 14.0SEER but not at the AHRI test condition due to curve out of bound.\n   **   ~~~   **  Review the Standard Ratings calculations in the Engineering Reference for this coil type. Also, use Output:Diagnostics, DisplayExtraWarnings for further guidance.\n   ** Warning ** The Standard Ratings is calculated for Coil:Cooling:DX:SingleSpeed = COIL COOLING DX SINGLE SPEED 3 18KBTU/HR 14.0SEER but not at the AHRI test condition due to curve out of bound.\n   **   ~~~   **  Review the Standard Ratings calculations in the Engineering Reference for this coil type. Also, use Output:Diagnostics, DisplayExtraWarnings for further guidance.\n   ** Warning ** Check input. Pump nominal power or motor efficiency is set to 0, for pump=SERVICE WATER LOOP PUMP\n   ** Warning ** Output:Meter: invalid Name=\"GAS:FACILITY\" - not found.\n   ** Warning ** Output:Meter: invalid Name=\"DISTRICTCOOLING:FACILITY\" - not found.\n   ** Warning ** Output:Meter: invalid Name=\"DISTRICTHEATING:FACILITY\" - not found.\n   ** Warning ** Output:Meter:MeterFileOnly: invalid Name=\"GAS:FACILITY\" - not found.\n   ** Warning ** Output:Meter:MeterFileOnly: invalid Name=\"GAS:FACILITY\" - not found.\n   ** Warning ** Output:Meter:MeterFileOnly requested for \"Electricity:Facility\" (TimeStep), already on \"Output:Meter\". Will report to both eplusout.eso and eplusout.mtr\n   ************* Testing Individual Branch Integrity\n   ************* All Branches passed integrity testing\n   ************* Testing Individual Supply Air Path Integrity\n   ************* All Supply Air Paths passed integrity testing\n   ************* Testing Individual Return Air Path Integrity\n   ************* All Return Air Paths passed integrity testing\n   ************* No node connection errors were found.\n   ************* Beginning Simulation\n   ** Warning ** GetInputEconomicsTariff: UtilityCost:Tariff=\"NONEGAS\" missing meter\n   **   ~~~   ** Meter referenced is not present due to a lack of equipment that uses that energy source/meter:\"GAS:FACILITY\".\n   ** Warning ** CalcDoe2DXCoil: Coil:Cooling:DX:SingleSpeed \"COIL COOLING DX SINGLE SPEED 4 21KBTU/HR 14.0SEER\" - Air-cooled condenser inlet dry-bulb temperature below 0 C. Outdoor dry-bulb temperature = -12.20\n   **   ~~~   **  ... Occurrence info = RUN PERIOD 1, 01/02 06:03 - 06:05\n   **   ~~~   ** ... Operation at low ambient temperatures may require special performance curves.\n   ** Warning ** CalcDoe2DXCoil: Coil:Cooling:DX:SingleSpeed \"COIL COOLING DX SINGLE SPEED 2 15KBTU/HR 14.0SEER\" - Air-cooled condenser inlet dry-bulb temperature below 0 C. Outdoor dry-bulb temperature = -12.20\n   **   ~~~   **  ... Occurrence info = RUN PERIOD 1, 01/02 06:03 - 06:05\n   **   ~~~   ** ... Operation at low ambient temperatures may require special performance curves.\n   ** Warning ** CalcDoe2DXCoil: Coil:Cooling:DX:SingleSpeed \"COIL COOLING DX SINGLE SPEED 1 14KBTU/HR 14.0SEER\" - Air-cooled condenser inlet dry-bulb temperature below 0 C. Outdoor dry-bulb temperature = -12.20\n   **   ~~~   **  ... Occurrence info = RUN PERIOD 1, 01/02 06:03 - 06:05\n   **   ~~~   ** ... Operation at low ambient temperatures may require special performance curves.\n   ** Warning ** CalcDoe2DXCoil: Coil:Cooling:DX:SingleSpeed \"COIL COOLING DX SINGLE SPEED 1 14KBTU/HR 14.0SEER\" - Full load outlet air dry-bulb temperature < 2C. This indicates the possibility of coil frost/freeze. Outlet temperature = 0.14 C.\n   **   ~~~   **  ...Occurrence info = RUN PERIOD 1, 01/02 06:03 - 06:05\n   **   ~~~   ** ... Possible reasons for low outlet air dry-bulb temperatures are: This DX coil\n   **   ~~~   **    1) may have a low inlet air dry-bulb temperature. Inlet air temperature = 13.563 C.\n   **   ~~~   **    2) may have a low air flow rate per watt of cooling capacity. Check inputs.\n   **   ~~~   **    3) is used as part of a HX assisted cooling coil which uses a high sensible effectiveness. Check inputs.\n   ** Warning ** CalcDoe2DXCoil: Coil:Cooling:DX:SingleSpeed \"COIL COOLING DX SINGLE SPEED 3 18KBTU/HR 14.0SEER\" - Air-cooled condenser inlet dry-bulb temperature below 0 C. Outdoor dry-bulb temperature = -12.20\n   **   ~~~   **  ... Occurrence info = RUN PERIOD 1, 01/02 06:03 - 06:05\n   **   ~~~   ** ... Operation at low ambient temperatures may require special performance curves.\n   ** Warning ** CalcDoe2DXCoil: Coil:Cooling:DX:SingleSpeed \"COIL COOLING DX SINGLE SPEED 2 15KBTU/HR 14.0SEER\" - Full load outlet air dry-bulb temperature < 2C. This indicates the possibility of coil frost/freeze. Outlet temperature = 1.63 C.\n   **   ~~~   **  ...Occurrence info = RUN PERIOD 1, 01/02 21:30 - 21:35\n   **   ~~~   ** ... Possible reasons for low outlet air dry-bulb temperatures are: This DX coil\n   **   ~~~   **    1) may have a low inlet air dry-bulb temperature. Inlet air temperature = 15.027 C.\n   **   ~~~   **    2) may have a low air flow rate per watt of cooling capacity. Check inputs.\n   **   ~~~   **    3) is used as part of a HX assisted cooling coil which uses a high sensible effectiveness. Check inputs.\n   ** Warning ** CalcDoe2DXCoil: Coil:Cooling:DX:SingleSpeed \"COIL COOLING DX SINGLE SPEED 3 18KBTU/HR 14.0SEER\" - Full load outlet air dry-bulb temperature < 2C. This indicates the possibility of coil frost/freeze. Outlet temperature = 1.96 C.\n   **   ~~~   **  ...Occurrence info = RUN PERIOD 1, 01/04 21:15 - 21:18\n   **   ~~~   ** ... Possible reasons for low outlet air dry-bulb temperatures are: This DX coil\n   **   ~~~   **    1) may have a low inlet air dry-bulb temperature. Inlet air temperature = 15.378 C.\n   **   ~~~   **    2) may have a low air flow rate per watt of cooling capacity. Check inputs.\n   **   ~~~   **    3) is used as part of a HX assisted cooling coil which uses a high sensible effectiveness. Check inputs.\n   ** Warning ** CalcDoe2DXCoil: Coil:Cooling:DX:SingleSpeed \"COIL COOLING DX SINGLE SPEED 5 16KBTU/HR 14.0SEER\" - Air-cooled condenser inlet dry-bulb temperature below 0 C. Outdoor dry-bulb temperature = -8.60\n   **   ~~~   **  ... Occurrence info = RUN PERIOD 1, 01/06 21:15 - 21:18\n   **   ~~~   ** ... Operation at low ambient temperatures may require special performance curves.\n   ** Warning ** CalcDoe2DXCoil: Coil:Cooling:DX:SingleSpeed \"COIL COOLING DX SINGLE SPEED 5 16KBTU/HR 14.0SEER\" - Full load outlet air dry-bulb temperature < 2C. This indicates the possibility of coil frost/freeze. Outlet temperature = 0.18 C.\n   **   ~~~   **  ...Occurrence info = RUN PERIOD 1, 01/06 21:15 - 21:18\n   **   ~~~   ** ... Possible reasons for low outlet air dry-bulb temperatures are: This DX coil\n   **   ~~~   **    1) may have a low inlet air dry-bulb temperature. Inlet air temperature = 13.572 C.\n   **   ~~~   **    2) may have a low air flow rate per watt of cooling capacity. Check inputs.\n   **   ~~~   **    3) is used as part of a HX assisted cooling coil which uses a high sensible effectiveness. Check inputs.\n   ************* Simulation Error Summary *************\n   ************* There are 9 unused schedules in input.\n   ************* There are 9 unused week schedules in input.\n   ************* There are 14 unused day schedules in input.\n   ************* Use Output:Diagnostics,DisplayUnusedSchedules; to see them.\n   *************\n   ************* ===== Recurring Error Summary =====\n   ************* The following recurring error messages occurred.\n   *************\n   *************  ** Warning ** Plant loop exceeding upper temperature limit, PlantLoop=\"MAIN SERVICE WATER LOOP\"\n   *************  **   ~~~   **   This error occurred 40566 total times;\n   *************  **   ~~~   **   during Warmup 1214 times;\n   *************  **   ~~~   **   during Sizing 0 times.\n   *************  **   ~~~   **   Max=82.222222\n   *************\n   *************  ** Warning ** CalcDoe2DXCoil: Coil:Cooling:DX:SingleSpeed=\"COIL COOLING DX SINGLE SPEED 4 21KBTU/HR 14.0SEER\" - Low condenser dry-bulb temperature error continues...\n   *************  **   ~~~   **   This error occurred 938 total times;\n   *************  **   ~~~   **   during Warmup 0 times;\n   *************  **   ~~~   **   during Sizing 0 times.\n   *************  **   ~~~   **   Max=-2.775558E-017 [C]  Min=-37.2 [C]\n   *************\n   *************  ** Warning ** CalcDoe2DXCoil: Coil:Cooling:DX:SingleSpeed=\"COIL COOLING DX SINGLE SPEED 2 15KBTU/HR 14.0SEER\" - Low condenser dry-bulb temperature error continues...\n   *************  **   ~~~   **   This error occurred 1019 total times;\n   *************  **   ~~~   **   during Warmup 0 times;\n   *************  **   ~~~   **   during Sizing 0 times.\n   *************  **   ~~~   **   Max=-2.500000E-002 [C]  Min=-37.9 [C]\n   *************\n   *************  ** Warning ** CalcDoe2DXCoil: Coil:Cooling:DX:SingleSpeed=\"COIL COOLING DX SINGLE SPEED 1 14KBTU/HR 14.0SEER\" - Low condenser dry-bulb temperature error continues...\n   *************  **   ~~~   **   This error occurred 501 total times;\n   *************  **   ~~~   **   during Warmup 0 times;\n   *************  **   ~~~   **   during Sizing 0 times.\n   *************  **   ~~~   **   Max=-5.000000E-002 [C]  Min=-21.3 [C]\n   *************\n   *************  ** Warning ** CalcDoe2DXCoil: Coil:Cooling:DX:SingleSpeed=\"COIL COOLING DX SINGLE SPEED 1 14KBTU/HR 14.0SEER\" - Full load outlet temperature indicates a possibility of frost/freeze error continues. Outlet air temperature statistics follow:\n   *************  **   ~~~   **   This error occurred 305 total times;\n   *************  **   ~~~   **   during Warmup 0 times;\n   *************  **   ~~~   **   during Sizing 0 times.\n   *************  **   ~~~   **   Max=1.995159  Min=-1.694117\n   *************\n   *************  ** Warning ** CalcDoe2DXCoil: Coil:Cooling:DX:SingleSpeed=\"COIL COOLING DX SINGLE SPEED 3 18KBTU/HR 14.0SEER\" - Low condenser dry-bulb temperature error continues...\n   *************  **   ~~~   **   This error occurred 1074 total times;\n   *************  **   ~~~   **   during Warmup 0 times;\n   *************  **   ~~~   **   during Sizing 0 times.\n   *************  **   ~~~   **   Max=-5.000000E-002 [C]  Min=-37.9 [C]\n   *************\n   *************  ** Warning ** CalcDoe2DXCoil: Coil:Cooling:DX:SingleSpeed=\"COIL COOLING DX SINGLE SPEED 2 15KBTU/HR 14.0SEER\" - Full load outlet temperature indicates a possibility of frost/freeze error continues. Outlet air temperature statistics follow:\n   *************  **   ~~~   **   This error occurred 117 total times;\n   *************  **   ~~~   **   during Warmup 0 times;\n   *************  **   ~~~   **   during Sizing 0 times.\n   *************  **   ~~~   **   Max=1.981139  Min=-0.399318\n   *************\n   *************  ** Warning ** CalcDoe2DXCoil: Coil:Cooling:DX:SingleSpeed=\"COIL COOLING DX SINGLE SPEED 3 18KBTU/HR 14.0SEER\" - Full load outlet temperature indicates a possibility of frost/freeze error continues. Outlet air temperature statistics follow:\n   *************  **   ~~~   **   This error occurred 53 total times;\n   *************  **   ~~~   **   during Warmup 0 times;\n   *************  **   ~~~   **   during Sizing 0 times.\n   *************  **   ~~~   **   Max=1.984418  Min=0.612459\n   *************\n   *************  ** Warning ** CalcDoe2DXCoil: Coil:Cooling:DX:SingleSpeed=\"COIL COOLING DX SINGLE SPEED 5 16KBTU/HR 14.0SEER\" - Low condenser dry-bulb temperature error continues...\n   *************  **   ~~~   **   This error occurred 474 total times;\n   *************  **   ~~~   **   during Warmup 0 times;\n   *************  **   ~~~   **   during Sizing 0 times.\n   *************  **   ~~~   **   Max=-5.000000E-002 [C]  Min=-17.875 [C]\n   *************\n   *************  ** Warning ** CalcDoe2DXCoil: Coil:Cooling:DX:SingleSpeed=\"COIL COOLING DX SINGLE SPEED 5 16KBTU/HR 14.0SEER\" - Full load outlet temperature indicates a possibility of frost/freeze error continues. Outlet air temperature statistics follow:\n   *************  **   ~~~   **   This error occurred 370 total times;\n   *************  **   ~~~   **   during Warmup 0 times;\n   *************  **   ~~~   **   during Sizing 0 times.\n   *************  **   ~~~   **   Max=1.959529  Min=-1.692396\n   *************\n   *************\n   ************* ===== Final Error Summary =====\n   ************* The following error categories occurred.  Consider correcting or noting.\n   ************* Nominally Unused Constructions\n   ************* ..The nominally unused constructions warning is provided to alert you to potential conditions that can cause\n   ************* ..extra time during simulation. Each construction is calculated by the algorithm indicated in the HeatBalanceAlgorithm\n   ************* ..object. You may remove the constructions indicated (when you use the DisplayExtraWarnings option).\n   *************\n   ************* EnergyPlus Warmup Error Summary. During Warmup: 0 Warning; 0 Severe Errors.\n   ************* EnergyPlus Sizing Error Summary. During Sizing: 39 Warning; 0 Severe Errors.\n   ************* EnergyPlus Completed Successfully-- 45475 Warning; 0 Severe Errors; Elapsed Time=00hr 00min 37.80sec\n",
   "file_format_version" : "0.0.1",
   "file_paths" : [ "../weather", "../seeds", "../seed" ],
   "hash" : "B1F0FF85",
   "measure_paths" : [ "../measures" ],
   "name" : "LHS Autogenerated 281",
   "osa_id" : "4fef0e0f-5396-4c55-a6e1-2cd6803db3ab",
   "osd_id" : "924f3a1a-e3ef-4eb0-a601-3786face6037",
   "run_directory" : "./run",
   "seed_file" : "seed.osm",
   "started_at" : "20170710T183535Z",
   "steps" : [
      {
         "arguments" : {
            "__SKIP__" : false,
            "building_type" : "SmallOffice",
            "climate_zone" : "NECB HDD Method",
            "epw_file" : "CAN_PQ_Schefferville.718280_CWEC.epw",
            "template" : "NECB 2011"
         },
         "measure_dir_name" : "create_prototype_building",
         "name" : "create_prototype_building",
         "result" : {
            "completed_at" : "20170710T183626Z",
            "measure_class_name" : "CreatePrototypeBuilding",
            "measure_display_name" : "Create Prototype Building",
            "measure_name" : "create_prototype_building",
            "measure_taxonomy" : "Whole Building.Space Types",
            "measure_type" : "ModelMeasure",
            "measure_uid" : "ae90fsd7-a651-467a-bc8d-29d310b0f937",
            "measure_version_id" : "c6ec5c18-5595-459f-a082-09a19c8c869c",
            "measure_version_modified" : "20170519T182315Z",
            "measure_xml_checksum" : "057E8D9D",
            "started_at" : "20170710T183537Z",
            "stderr" : "",
            "stdout" : "[OpenStudio.Measure] <0> OSArgumentVector is deprecated, use OpenStudio::Measure::OSArgumentVector instead.\n[openstudio.EpwFile] <0> Successive data points (1970-Jan-31 to 1985-Feb-01, ending on line 753) are greater than 1 day apart in EPW file '/usr/local/bundle/bundler/gems/openstudio-standards-f448df66933d/openstudio-standards/data/weather/CAN_PQ_Schefferville.718280_CWEC.epw'. Data will be treated as typical (TMY)\n[openstudio.setFileExtension] <0> Path p, '/usr/local/bundle/bundler/gems/openstudio-standards-f448df66933d/openstudio-standards/data/weather/CAN_PQ_Schefferville.718280_CWEC.ddy', has an unexpected file extension. Was expecting 'idf'.\n[openstudio.model.YearDescription] <1> 'UseWeatherFile' is not yet a supported option for YearDescription\n[openstudio.model.YearDescription] <1> 'UseWeatherFile' is not yet a supported option for YearDescription\n[openstudio.setFileExtension] <0> Path p, '/usr/local/bundle/bundler/gems/openstudio-standards-f448df66933d/openstudio-standards/data/weather/CAN_PQ_Schefferville.718280_CWEC.ddy', has an unexpected file extension. Was expecting 'idf'.\n[openstudio.model.YearDescription] <1> 'UseWeatherFile' is not yet a supported option for YearDescription\n[openstudio.model.YearDescription] <1> 'UseWeatherFile' is not yet a supported option for YearDescription\n[openstudio.EpwFile] <0> Successive data points (1970-Jan-31 to 1985-Feb-01, ending on line 753) are greater than 1 day apart in EPW file '/usr/local/bundle/bundler/gems/openstudio-standards-f448df66933d/openstudio-standards/data/weather/CAN_PQ_Schefferville.718280_CWEC.epw'. Data will be treated as typical (TMY)\n[openstudio.weather.Model] <0> Could not find ground temperatures; will use generic temperatures, which will skew results.\n[openstudio.setFileExtension] <0> Path p, '/usr/local/bundle/bundler/gems/openstudio-standards-f448df66933d/openstudio-standards/data/weather/CAN_PQ_Schefferville.718280_CWEC.ddy', has an unexpected file extension. Was expecting 'idf'.\n[openstudio.model.YearDescription] <1> 'UseWeatherFile' is not yet a supported option for YearDescription\n[openstudio.model.YearDescription] <1> 'UseWeatherFile' is not yet a supported option for YearDescription\n[openstudio.EpwFile] <0> Successive data points (1970-Jan-31 to 1985-Feb-01, ending on line 753) are greater than 1 day apart in EPW file '/usr/local/bundle/bundler/gems/openstudio-standards-f448df66933d/openstudio-standards/data/weather/CAN_PQ_Schefferville.718280_CWEC.epw'. Data will be treated as typical (TMY)\n[openstudio.setFileExtension] <0> Path p, '/usr/local/bundle/bundler/gems/openstudio-standards-f448df66933d/openstudio-standards/data/weather/CAN_PQ_Schefferville.718280_CWEC.ddy', has an unexpected file extension. Was expecting 'idf'.\n[openstudio.model.YearDescription] <1> 'UseWeatherFile' is not yet a supported option for YearDescription\n[openstudio.model.YearDescription] <1> 'UseWeatherFile' is not yet a supported option for YearDescription\n[openstudio.setFileExtension] <0> Path p, '/usr/local/bundle/bundler/gems/openstudio-standards-f448df66933d/openstudio-standards/data/weather/CAN_PQ_Schefferville.718280_CWEC.ddy', has an unexpected file extension. Was expecting 'idf'.\n[openstudio.model.YearDescription] <1> 'UseWeatherFile' is not yet a supported option for YearDescription\n[openstudio.model.YearDescription] <1> 'UseWeatherFile' is not yet a supported option for YearDescription\n[openstudio.EpwFile] <0> Successive data points (1970-Jan-31 to 1985-Feb-01, ending on line 753) are greater than 1 day apart in EPW file '/usr/local/bundle/bundler/gems/openstudio-standards-f448df66933d/openstudio-standards/data/weather/CAN_PQ_Schefferville.718280_CWEC.epw'. Data will be treated as typical (TMY)\n[openstudio.setFileExtension] <0> Path p, '/usr/local/bundle/bundler/gems/openstudio-standards-f448df66933d/openstudio-standards/data/weather/CAN_PQ_Schefferville.718280_CWEC.ddy', has an unexpected file extension. Was expecting 'idf'.\n[openstudio.model.YearDescription] <1> 'UseWeatherFile' is not yet a supported option for YearDescription\n[openstudio.model.YearDescription] <1> 'UseWeatherFile' is not yet a supported option for YearDescription\n[openstudio.setFileExtension] <0> Path p, '/usr/local/bundle/bundler/gems/openstudio-standards-f448df66933d/openstudio-standards/data/weather/CAN_PQ_Schefferville.718280_CWEC.ddy', has an unexpected file extension. Was expecting 'idf'.\n[openstudio.model.YearDescription] <1> 'UseWeatherFile' is not yet a supported option for YearDescription\n[openstudio.model.YearDescription] <1> 'UseWeatherFile' is not yet a supported option for YearDescription\n[utilities.idf.WorkspaceObject] <0> Object of type 'Schedule:Constant' and named 'Always Off Discrete', points to an object named OnOff 1 from field 1, but that object cannot be located.\n[utilities.idf.WorkspaceObject] <0> Object of type 'Schedule:Constant' and named 'Always On Continuous', points to an object named Fractional 1 from field 1, but that object cannot be located.\n[utilities.idf.WorkspaceObject] <0> Object of type 'Schedule:Constant' and named 'Always Off Discrete', points to an object named OnOff 1 from field 1, but that object cannot be located.\n[utilities.idf.WorkspaceObject] <0> Object of type 'Schedule:Constant' and named 'Always On Continuous', points to an object named Fractional 1 from field 1, but that object cannot be located.\n[openstudio.standards.Fan] <0> For Fan Constant Volume 1, there is no greater nominal HP.  Use the efficiency of the largest motor category.\n[openstudio.standards.Fan] <0> For Fan Constant Volume 2, there is no greater nominal HP.  Use the efficiency of the largest motor category.\n[openstudio.standards.Fan] <0> For Fan Constant Volume 3, there is no greater nominal HP.  Use the efficiency of the largest motor category.\n[openstudio.standards.Fan] <0> For Fan Constant Volume 4, there is no greater nominal HP.  Use the efficiency of the largest motor category.\n[openstudio.standards.Fan] <0> For Fan Constant Volume 5, there is no greater nominal HP.  Use the efficiency of the largest motor category.\n[openstudio.EpwFile] <0> Successive data points (1970-Jan-31 to 1985-Feb-01, ending on line 753) are greater than 1 day apart in EPW file '/usr/local/bundle/bundler/gems/openstudio-standards-f448df66933d/openstudio-standards/data/weather/CAN_PQ_Schefferville.718280_CWEC.epw'. Data will be treated as typical (TMY)\n[openstudio.setFileExtension] <0> Path p, '/usr/local/bundle/bundler/gems/openstudio-standards-f448df66933d/openstudio-standards/data/weather/CAN_PQ_Schefferville.718280_CWEC.ddy', has an unexpected file extension. Was expecting 'idf'.\n[openstudio.model.YearDescription] <1> 'UseWeatherFile' is not yet a supported option for YearDescription\n[openstudio.model.YearDescription] <1> 'UseWeatherFile' is not yet a supported option for YearDescription\n[openstudio.setFileExtension] <0> Path p, '/usr/local/bundle/bundler/gems/openstudio-standards-f448df66933d/openstudio-standards/data/weather/CAN_PQ_Schefferville.718280_CWEC.ddy', has an unexpected file extension. Was expecting 'idf'.\n[openstudio.model.YearDescription] <1> 'UseWeatherFile' is not yet a supported option for YearDescription\n[openstudio.model.YearDescription] <1> 'UseWeatherFile' is not yet a supported option for YearDescription\n[openstudio.EpwFile] <0> Successive data points (1970-Jan-31 to 1985-Feb-01, ending on line 753) are greater than 1 day apart in EPW file '/usr/local/bundle/bundler/gems/openstudio-standards-f448df66933d/openstudio-standards/data/weather/CAN_PQ_Schefferville.718280_CWEC.epw'. Data will be treated as typical (TMY)\n[openstudio.setFileExtension] <0> Path p, '/usr/local/bundle/bundler/gems/openstudio-standards-f448df66933d/openstudio-standards/data/weather/CAN_PQ_Schefferville.718280_CWEC.ddy', has an unexpected file extension. Was expecting 'idf'.\n[openstudio.model.YearDescription] <1> 'UseWeatherFile' is not yet a supported option for YearDescription\n[openstudio.model.YearDescription] <1> 'UseWeatherFile' is not yet a supported option for YearDescription\n[openstudio.setFileExtension] <0> Path p, '/usr/local/bundle/bundler/gems/openstudio-standards-f448df66933d/openstudio-standards/data/weather/CAN_PQ_Schefferville.718280_CWEC.ddy', has an unexpected file extension. Was expecting 'idf'.\n[openstudio.model.YearDescription] <1> 'UseWeatherFile' is not yet a supported option for YearDescription\n[openstudio.model.YearDescription] <1> 'UseWeatherFile' is not yet a supported option for YearDescription\n[openstudio.EpwFile] <0> Successive data points (1970-Jan-31 to 1985-Feb-01, ending on line 753) are greater than 1 day apart in EPW file '/usr/local/bundle/bundler/gems/openstudio-standards-f448df66933d/openstudio-standards/data/weather/CAN_PQ_Schefferville.718280_CWEC.epw'. Data will be treated as typical (TMY)\n[openstudio.setFileExtension] <0> Path p, '/usr/local/bundle/bundler/gems/openstudio-standards-f448df66933d/openstudio-standards/data/weather/CAN_PQ_Schefferville.718280_CWEC.ddy', has an unexpected file extension. Was expecting 'idf'.\n[openstudio.model.YearDescription] <1> 'UseWeatherFile' is not yet a supported option for YearDescription\n[openstudio.model.YearDescription] <1> 'UseWeatherFile' is not yet a supported option for YearDescription\n[openstudio.setFileExtension] <0> Path p, '/usr/local/bundle/bundler/gems/openstudio-standards-f448df66933d/openstudio-standards/data/weather/CAN_PQ_Schefferville.718280_CWEC.ddy', has an unexpected file extension. Was expecting 'idf'.\n[openstudio.model.YearDescription] <1> 'UseWeatherFile' is not yet a supported option for YearDescription\n[openstudio.model.YearDescription] <1> 'UseWeatherFile' is not yet a supported option for YearDescription\n[openstudio.EpwFile] <0> Successive data points (1970-Jan-31 to 1985-Feb-01, ending on line 753) are greater than 1 day apart in EPW file '/usr/local/bundle/bundler/gems/openstudio-standards-f448df66933d/openstudio-standards/data/weather/CAN_PQ_Schefferville.718280_CWEC.epw'. Data will be treated as typical (TMY)\n[openstudio.setFileExtension] <0> Path p, '/usr/local/bundle/bundler/gems/openstudio-standards-f448df66933d/openstudio-standards/data/weather/CAN_PQ_Schefferville.718280_CWEC.ddy', has an unexpected file extension. Was expecting 'idf'.\n[openstudio.model.YearDescription] <1> 'UseWeatherFile' is not yet a supported option for YearDescription\n[openstudio.model.YearDescription] <1> 'UseWeatherFile' is not yet a supported option for YearDescription\n[openstudio.setFileExtension] <0> Path p, '/usr/local/bundle/bundler/gems/openstudio-standards-f448df66933d/openstudio-standards/data/weather/CAN_PQ_Schefferville.718280_CWEC.ddy', has an unexpected file extension. Was expecting 'idf'.\n[openstudio.model.YearDescription] <1> 'UseWeatherFile' is not yet a supported option for YearDescription\n[openstudio.model.YearDescription] <1> 'UseWeatherFile' is not yet a supported option for YearDescription\n[openstudio.EpwFile] <0> Successive data points (1970-Jan-31 to 1985-Feb-01, ending on line 753) are greater than 1 day apart in EPW file '/usr/local/bundle/bundler/gems/openstudio-standards-f448df66933d/openstudio-standards/data/weather/CAN_PQ_Schefferville.718280_CWEC.epw'. Data will be treated as typical (TMY)\n[openstudio.setFileExtension] <0> Path p, '/usr/local/bundle/bundler/gems/openstudio-standards-f448df66933d/openstudio-standards/data/weather/CAN_PQ_Schefferville.718280_CWEC.ddy', has an unexpected file extension. Was expecting 'idf'.\n[openstudio.model.YearDescription] <1> 'UseWeatherFile' is not yet a supported option for YearDescription\n[openstudio.model.YearDescription] <1> 'UseWeatherFile' is not yet a supported option for YearDescription\n[openstudio.setFileExtension] <0> Path p, '/usr/local/bundle/bundler/gems/openstudio-standards-f448df66933d/openstudio-standards/data/weather/CAN_PQ_Schefferville.718280_CWEC.ddy', has an unexpected file extension. Was expecting 'idf'.\n[openstudio.model.YearDescription] <1> 'UseWeatherFile' is not yet a supported option for YearDescription\n[openstudio.model.YearDescription] <1> 'UseWeatherFile' is not yet a supported option for YearDescription\n[openstudio.standards.Fan] <0> For Fan Constant Volume 1, there is no greater nominal HP.  Use the efficiency of the largest motor category.\n[openstudio.standards.Fan] <0> For Fan Constant Volume 2, there is no greater nominal HP.  Use the efficiency of the largest motor category.\n[openstudio.standards.Fan] <0> For Fan Constant Volume 3, there is no greater nominal HP.  Use the efficiency of the largest motor category.\n[openstudio.standards.Fan] <0> For Fan Constant Volume 4, there is no greater nominal HP.  Use the efficiency of the largest motor category.\n[openstudio.standards.Fan] <0> For Fan Constant Volume 5, there is no greater nominal HP.  Use the efficiency of the largest motor category.\n",
            "step_errors" : [],
            "step_files" : [],
            "step_info" : [
               "Started adding geometry",
               "Finished adding geometry",
               "Started adding weather file for climate zone: NECB HDD Method.",
               "Template =",
               "Setting Attic to Space Function.- undefined -",
               "Setting Core_ZN to Space Function.Office - enclosed",
               "Setting Perimeter_ZN_1 to Space Function.Office - enclosed",
               "Setting Perimeter_ZN_2 to Space Function.Office - enclosed",
               "Setting Perimeter_ZN_3 to Space Function.Office - enclosed",
               "Setting Perimeter_ZN_4 to Space Function.Office - enclosed",
               "Started applying space types (loads)",
               "Space Function - undefined - had no ventilation specification, one has been created.",
               "Space Function - undefined - had no infiltration objects, one has been created.",
               "Space Function - undefined - set infiltration to 0.0 per ft^2 exterior surface area.",
               "Space Function - undefined - set infiltration schedule to Always On.",
               "Space Function Office - enclosed had no people, one has been created.",
               "Space Function Office - enclosed set occupancy to 4.65 people/1000 ft^2.",
               "Space Function Office - enclosed had no lights, one has been created.",
               "Space Function Office - enclosed set LPD to 1.105536975 W/ft^2.",
               "Space Function Office - enclosed had no electric equipment, one has been created.",
               "Space Function Office - enclosed set electric EPD to 0.696767001 W/ft^2.",
               "Space Function Office - enclosed had no ventilation specification, one has been created.",
               "Space Function Office - enclosed set ventilation per area to 0.085 cfm/ft^2.",
               "Space Function Office - enclosed had no infiltration objects, one has been created.",
               "Space Function Office - enclosed set infiltration to 0.0 per ft^2 exterior surface area.",
               "Space Function Office - enclosed set occupancy schedule to NECB-A-Occupancy.",
               "Space Function Office - enclosed set occupant activity schedule to NECB-Activity.",
               "Space Function Office - enclosed set lighting schedule to NECB-A-Lighting.",
               "Space Function Office - enclosed set electric equipment schedule to NECB-A-Electric-Equipment.",
               "Space Function Office - enclosed set infiltration schedule to Always On.",
               "Space Function Office - enclosed set heating setpoint schedule to NECB-A-Thermostat Setpoint-Heating.",
               "Space Function Office - enclosed set cooling setpoint schedule to NECB-A-Thermostat Setpoint-Cooling.",
               "Finished applying space types (loads)",
               "For NECB 2011, no exterior wall area was found, no infiltration will be added.",
               "Started applying constructions",
               "Adding construction set: NECB 2011-NECB HDD Method-Office--is_residentialNo",
               "Adding construction Typical Insulated Exterior Mass Floor R-15.63.",
               "Adding construction Typical Insulated Exterior Mass Wall R-12.5.",
               "Adding construction Typical Insulated Metal Building Roof R-20.41.",
               "Adding construction Typical Interior Floor.",
               "Adding construction Typical Interior Wall.",
               "Adding construction Typical Interior Ceiling.",
               "Adding construction Typical Insulated Carpeted 6in Slab Floor.",
               "Adding construction U 0.55 SHGC 0.31 Dbl Ref-D Tint 6mm/6mm Air.",
               "Adding construction Typical Insulated Metal Door R-1.43.",
               "Adding construction U 0.35 SHGC 0.35 Dbl LoE (e2-.1) Tint 6mm/13mm Air.",
               "Adding construction Typical Overhead Door R-2.0.",
               "Adding construction U 0.48 SHGC 0.40 Dbl Ref-D Clr 6mm/13mm.",
               "Adding construction Typical Interior Window.",
               "Adding construction Typical Interior Door.",
               "Adding construction Typical Interior Partition.",
               "Finished applying constructions",
               "WWR NonRes = 0%; window = 0 ft2, wall = 0 ft2.",
               "WWR Res = 0%; window = 0 ft2, wall = 0 ft2.",
               "WWR Semiheated = 0%; window = 0 ft2, wall = 0 ft2.",
               "Reducing the size of all windows (by raising sill height) to reduce window area down to the limit of 40%.",
               "The skylight to roof ratios (SRRs) are: NonRes: 0%, Res: 0%.",
               "Started creating thermal zones",
               "Finished creating thermal zones",
               "Running simulation /mnt/openstudio/analysis_4fef0e0f-5396-4c55-a6e1-2cd6803db3ab/data_point_924f3a1a-e3ef-4eb0-a601-3786face6037/run/000_create_prototype_building/output/SmallOffice-NECB 2011-NECB HDD Method-CAN_PQ_Schefferville.718280_CWEC.epw/SR0.",
               "Finished run.",
               "Started Adding HVAC",
               "Finished adding HVAC",
               "Started Adding Service Water Heating",
               "Adding service water loop.",
               "Adding water heater.",
               "Template =",
               "Finished adding Service Water Heating",
               "Set sizing factors to 1.3 for heating and 1.3 for cooling.",
               "Running simulation /mnt/openstudio/analysis_4fef0e0f-5396-4c55-a6e1-2cd6803db3ab/data_point_924f3a1a-e3ef-4eb0-a601-3786face6037/run/000_create_prototype_building/output/SmallOffice-NECB 2011-NECB HDD Method-CAN_PQ_Schefferville.718280_CWEC.epw/SR1.",
               "Finished run.",
               "Started applying multizone vav OA sizing.",
               "Finished applying multizone vav OA sizing.",
               "Started applying prototype HVAC assumptions.",
               "For Fan Constant Volume 1: allowed_hp = 1.01HP; motor eff = 61.5%; total fan eff = 40% based on 522 cfm.",
               "For Fan Constant Volume 2: allowed_hp = 1.01HP; motor eff = 61.5%; total fan eff = 40% based on 575 cfm.",
               "For Fan Constant Volume 3: allowed_hp = 1.01HP; motor eff = 61.5%; total fan eff = 40% based on 680 cfm.",
               "For Fan Constant Volume 4: allowed_hp = 1.01HP; motor eff = 61.5%; total fan eff = 40% based on 800 cfm.",
               "For Fan Constant Volume 5: allowed_hp = 1.01HP; motor eff = 61.5%; total fan eff = 40% based on 589 cfm.",
               "Sp-Perimeter_ZN_1 Sys-3 Flr-1 Sch-A HPlcmt-south ZN NECB System 3 PSZ does not require an economizer because the total cooling capacity of 21333 Btu/hr is less than the minimum capacity of 68243 Btu/hr.",
               "Sp-Core_ZN Sys-3 Flr-1 Sch-A HPlcmt-core ZN NECB System 3 PSZ does not require an economizer because the total cooling capacity of 15713 Btu/hr is less than the minimum capacity of 68243 Btu/hr.",
               "Sp-Perimeter_ZN_2 Sys-3 Flr-1 Sch-A HPlcmt-east ZN NECB System 3 PSZ does not require an economizer because the total cooling capacity of 15322 Btu/hr is less than the minimum capacity of 68243 Btu/hr.",
               "Sp-Perimeter_ZN_4 Sys-3 Flr-1 Sch-A HPlcmt-west ZN NECB System 3 PSZ does not require an economizer because the total cooling capacity of 18114 Btu/hr is less than the minimum capacity of 68243 Btu/hr.",
               "Sp-Perimeter_ZN_3 Sys-3 Flr-1 Sch-A HPlcmt-north ZN NECB System 3 PSZ does not require an economizer because the total cooling capacity of 13921 Btu/hr is less than the minimum capacity of 68243 Btu/hr.",
               "Finished applying prototype HVAC assumptions.",
               "Started applying HVAC efficiency standards.",
               "For Sp-Core_ZN Sys-3 Flr-1 Sch-A HPlcmt-core ZN NECB System 3 PSZ, ERV not required based on 0% OA flow, design supply air flow of 589cfm, and climate zone NECB HDD Method.",
               "For Sp-Core_ZN Sys-3 Flr-1 Sch-A HPlcmt-core ZN NECB System 3 PSZ, ERV not required based on exhaust heat content.",
               "For NECB 2011 NECB HDD Method:  Sp-Core_ZN Sys-3 Flr-1 Sch-A HPlcmt-core ZN NECB System 3 PSZ: DCV is not required for any system.",
               "For Sp-Core_ZN Sys-3 Flr-1 Sch-A HPlcmt-core ZN NECB System 3 PSZ: Unoccupied fan shutoff not required because system fan HP of 0.6 HP is less than the minimum threshold of 0.75 HP.",
               "For Sp-Core_ZN Sys-3 Flr-1 Sch-A HPlcmt-core ZN NECB System 3 PSZ: Setting motorized OA damper schedule to Always On Discrete.",
               "For Sp-Perimeter_ZN_1 Sys-3 Flr-1 Sch-A HPlcmt-south ZN NECB System 3 PSZ, ERV not required based on 0% OA flow, design supply air flow of 800cfm, and climate zone NECB HDD Method.",
               "For Sp-Perimeter_ZN_1 Sys-3 Flr-1 Sch-A HPlcmt-south ZN NECB System 3 PSZ, ERV not required based on exhaust heat content.",
               "For NECB 2011 NECB HDD Method:  Sp-Perimeter_ZN_1 Sys-3 Flr-1 Sch-A HPlcmt-south ZN NECB System 3 PSZ: DCV is not required for any system.",
               "For Sp-Perimeter_ZN_1 Sys-3 Flr-1 Sch-A HPlcmt-south ZN NECB System 3 PSZ: Annual occupied hours = 2860 hr/yr, assuming a 0.15 occupancy threshold.  This schedule will be used as the HVAC operation schedule.",
               "For Sp-Perimeter_ZN_1 Sys-3 Flr-1 Sch-A HPlcmt-south ZN NECB System 3 PSZ: Setting motorized OA damper schedule to Sp-Perimeter_ZN_1 Sys-3 Flr-1 Sch-A HPlcmt-south ZN NECB System 3 PSZ Occ Sch.",
               "For Sp-Perimeter_ZN_2 Sys-3 Flr-1 Sch-A HPlcmt-east ZN NECB System 3 PSZ, ERV not required based on 0% OA flow, design supply air flow of 575cfm, and climate zone NECB HDD Method.",
               "For Sp-Perimeter_ZN_2 Sys-3 Flr-1 Sch-A HPlcmt-east ZN NECB System 3 PSZ, ERV not required based on exhaust heat content.",
               "For NECB 2011 NECB HDD Method:  Sp-Perimeter_ZN_2 Sys-3 Flr-1 Sch-A HPlcmt-east ZN NECB System 3 PSZ: DCV is not required for any system.",
               "For Sp-Perimeter_ZN_2 Sys-3 Flr-1 Sch-A HPlcmt-east ZN NECB System 3 PSZ: Unoccupied fan shutoff not required because system fan HP of 0.58 HP is less than the minimum threshold of 0.75 HP.",
               "For Sp-Perimeter_ZN_2 Sys-3 Flr-1 Sch-A HPlcmt-east ZN NECB System 3 PSZ: Setting motorized OA damper schedule to Always On Discrete.",
               "For Sp-Perimeter_ZN_3 Sys-3 Flr-1 Sch-A HPlcmt-north ZN NECB System 3 PSZ, ERV not required based on 0% OA flow, design supply air flow of 522cfm, and climate zone NECB HDD Method.",
               "For Sp-Perimeter_ZN_3 Sys-3 Flr-1 Sch-A HPlcmt-north ZN NECB System 3 PSZ, ERV not required based on exhaust heat content.",
               "For NECB 2011 NECB HDD Method:  Sp-Perimeter_ZN_3 Sys-3 Flr-1 Sch-A HPlcmt-north ZN NECB System 3 PSZ: DCV is not required for any system.",
               "For Sp-Perimeter_ZN_3 Sys-3 Flr-1 Sch-A HPlcmt-north ZN NECB System 3 PSZ: Unoccupied fan shutoff not required because system fan HP of 0.53 HP is less than the minimum threshold of 0.75 HP.",
               "For Sp-Perimeter_ZN_3 Sys-3 Flr-1 Sch-A HPlcmt-north ZN NECB System 3 PSZ: Setting motorized OA damper schedule to Always On Discrete.",
               "For Sp-Perimeter_ZN_4 Sys-3 Flr-1 Sch-A HPlcmt-west ZN NECB System 3 PSZ, ERV not required based on 0% OA flow, design supply air flow of 680cfm, and climate zone NECB HDD Method.",
               "For Sp-Perimeter_ZN_4 Sys-3 Flr-1 Sch-A HPlcmt-west ZN NECB System 3 PSZ, ERV not required based on exhaust heat content.",
               "For NECB 2011 NECB HDD Method:  Sp-Perimeter_ZN_4 Sys-3 Flr-1 Sch-A HPlcmt-west ZN NECB System 3 PSZ: DCV is not required for any system.",
               "For Sp-Perimeter_ZN_4 Sys-3 Flr-1 Sch-A HPlcmt-west ZN NECB System 3 PSZ: Unoccupied fan shutoff not required because system fan HP of 0.69 HP is less than the minimum threshold of 0.75 HP.",
               "For Sp-Perimeter_ZN_4 Sys-3 Flr-1 Sch-A HPlcmt-west ZN NECB System 3 PSZ: Setting motorized OA damper schedule to Always On Discrete.",
               "For Fan Constant Volume 1: motor nameplate = 0.3252963931223782HP, motor eff = 61.5%.",
               "For Fan Constant Volume 2: motor nameplate = 0.3580431936291763HP, motor eff = 61.5%.",
               "For Fan Constant Volume 3: motor nameplate = 0.4232845111847031HP, motor eff = 61.5%.",
               "For Fan Constant Volume 4: motor nameplate = 0.4984923763320223HP, motor eff = 61.5%.",
               "For Fan Constant Volume 5: motor nameplate = 0.3671678214535622HP, motor eff = 61.5%.",
               "For Service Water Loop Pump: brake hp = 0.0HP, motor nameplate = 0.1HP, motor eff = 70.0%.",
               "For NECB 2011: Coil Cooling DX Single Speed 1: AirCooled Electric Resistance or None Single Package Capacity = 14kBtu/hr; SEER = 14.0",
               "For NECB 2011: Coil Cooling DX Single Speed 2: AirCooled Electric Resistance or None Single Package Capacity = 15kBtu/hr; SEER = 14.0",
               "For NECB 2011: Coil Cooling DX Single Speed 3: AirCooled Electric Resistance or None Single Package Capacity = 18kBtu/hr; SEER = 14.0",
               "For NECB 2011: Coil Cooling DX Single Speed 4: AirCooled Electric Resistance or None Single Package Capacity = 21kBtu/hr; SEER = 14.0",
               "For NECB 2011: Coil Cooling DX Single Speed 5: AirCooled Electric Resistance or None Single Package Capacity = 16kBtu/hr; SEER = 14.0",
               "For NECB 2011: 40.0gal Electricity Water Heater - 40kBtu/hr 1.0 Therm Eff; thermal efficiency = 1.0, skin-loss UA = 3Btu/hr",
               "Finished applying HVAC efficiency standards.",
               "Started adding daylighting controls.",
               "For Attic, daylighting control not applicable because no exterior fenestration is present.",
               "For Core_ZN, daylighting control not applicable because no exterior fenestration is present.",
               "Finished adding daylighting controls.",
               "Total Time = 48sec."
            ],
            "step_result" : "Success",
            "step_values" : [
               {
                  "name" : "building_type",
                  "value" : "SmallOffice"
               },
               {
                  "name" : "template",
                  "value" : "NECB 2011"
               },
               {
                  "name" : "climate_zone",
                  "value" : "NECB HDD Method"
               },
               {
                  "name" : "epw_file",
                  "value" : "CAN_PQ_Schefferville.718280_CWEC.epw"
               }
            ],
            "step_warnings" : [
               "[openstudio.EpwFile] Successive data points (1970-Jan-31 to 1985-Feb-01, ending on line 753) are greater than 1 day apart in EPW file '/usr/local/bundle/bundler/gems/openstudio-standards-f448df66933d/openstudio-standards/data/weather/CAN_PQ_Schefferville.718280_CWEC.epw'. Data will be treated as typical (TMY)",
               "[openstudio.EpwFile] Successive data points (1970-Jan-31 to 1985-Feb-01, ending on line 753) are greater than 1 day apart in EPW file '/usr/local/bundle/bundler/gems/openstudio-standards-f448df66933d/openstudio-standards/data/weather/CAN_PQ_Schefferville.718280_CWEC.epw'. Data will be treated as typical (TMY)",
               "[openstudio.weather.Model] Could not find ground temperatures; will use generic temperatures, which will skew results.",
               "[openstudio.EpwFile] Successive data points (1970-Jan-31 to 1985-Feb-01, ending on line 753) are greater than 1 day apart in EPW file '/usr/local/bundle/bundler/gems/openstudio-standards-f448df66933d/openstudio-standards/data/weather/CAN_PQ_Schefferville.718280_CWEC.epw'. Data will be treated as typical (TMY)",
               "[openstudio.EpwFile] Successive data points (1970-Jan-31 to 1985-Feb-01, ending on line 753) are greater than 1 day apart in EPW file '/usr/local/bundle/bundler/gems/openstudio-standards-f448df66933d/openstudio-standards/data/weather/CAN_PQ_Schefferville.718280_CWEC.epw'. Data will be treated as typical (TMY)",
               "[openstudio.standards.Fan] For Fan Constant Volume 1, there is no greater nominal HP.  Use the efficiency of the largest motor category.",
               "[openstudio.standards.Fan] For Fan Constant Volume 2, there is no greater nominal HP.  Use the efficiency of the largest motor category.",
               "[openstudio.standards.Fan] For Fan Constant Volume 3, there is no greater nominal HP.  Use the efficiency of the largest motor category.",
               "[openstudio.standards.Fan] For Fan Constant Volume 4, there is no greater nominal HP.  Use the efficiency of the largest motor category.",
               "[openstudio.standards.Fan] For Fan Constant Volume 5, there is no greater nominal HP.  Use the efficiency of the largest motor category.",
               "[openstudio.EpwFile] Successive data points (1970-Jan-31 to 1985-Feb-01, ending on line 753) are greater than 1 day apart in EPW file '/usr/local/bundle/bundler/gems/openstudio-standards-f448df66933d/openstudio-standards/data/weather/CAN_PQ_Schefferville.718280_CWEC.epw'. Data will be treated as typical (TMY)",
               "[openstudio.EpwFile] Successive data points (1970-Jan-31 to 1985-Feb-01, ending on line 753) are greater than 1 day apart in EPW file '/usr/local/bundle/bundler/gems/openstudio-standards-f448df66933d/openstudio-standards/data/weather/CAN_PQ_Schefferville.718280_CWEC.epw'. Data will be treated as typical (TMY)",
               "[openstudio.EpwFile] Successive data points (1970-Jan-31 to 1985-Feb-01, ending on line 753) are greater than 1 day apart in EPW file '/usr/local/bundle/bundler/gems/openstudio-standards-f448df66933d/openstudio-standards/data/weather/CAN_PQ_Schefferville.718280_CWEC.epw'. Data will be treated as typical (TMY)",
               "[openstudio.EpwFile] Successive data points (1970-Jan-31 to 1985-Feb-01, ending on line 753) are greater than 1 day apart in EPW file '/usr/local/bundle/bundler/gems/openstudio-standards-f448df66933d/openstudio-standards/data/weather/CAN_PQ_Schefferville.718280_CWEC.epw'. Data will be treated as typical (TMY)",
               "[openstudio.EpwFile] Successive data points (1970-Jan-31 to 1985-Feb-01, ending on line 753) are greater than 1 day apart in EPW file '/usr/local/bundle/bundler/gems/openstudio-standards-f448df66933d/openstudio-standards/data/weather/CAN_PQ_Schefferville.718280_CWEC.epw'. Data will be treated as typical (TMY)",
               "[openstudio.standards.Fan] For Fan Constant Volume 1, there is no greater nominal HP.  Use the efficiency of the largest motor category.",
               "[openstudio.standards.Fan] For Fan Constant Volume 2, there is no greater nominal HP.  Use the efficiency of the largest motor category.",
               "[openstudio.standards.Fan] For Fan Constant Volume 3, there is no greater nominal HP.  Use the efficiency of the largest motor category.",
               "[openstudio.standards.Fan] For Fan Constant Volume 4, there is no greater nominal HP.  Use the efficiency of the largest motor category.",
               "[openstudio.standards.Fan] For Fan Constant Volume 5, there is no greater nominal HP.  Use the efficiency of the largest motor category."
            ]
         }
      },
      {
         "arguments" : {
            "__SKIP__" : false
         },
         "measure_dir_name" : "view_model",
         "name" : "view_model",
         "result" : {
            "completed_at" : "20170710T183626Z",
            "measure_class_name" : "ViewModel",
            "measure_display_name" : "ViewModel",
            "measure_name" : "view_model",
            "measure_taxonomy" : "Reporting.QAQC",
            "measure_type" : "ModelMeasure",
            "measure_uid" : "f4669f10-fda5-489d-8e1c-7ca3c2d40378",
            "measure_version_id" : "f4975c5f-7c25-42a2-927b-02d99b4427ef",
            "measure_version_modified" : "20170526T150340Z",
            "measure_xml_checksum" : "1E1F8B97",
            "started_at" : "20170710T183626Z",
            "stderr" : "",
            "stdout" : "[OpenStudio.Measure] <0> OSArgumentVector is deprecated, use OpenStudio::Measure::OSArgumentVector instead.\n",
            "step_errors" : [],
            "step_files" : [
               "/mnt/openstudio/analysis_4fef0e0f-5396-4c55-a6e1-2cd6803db3ab/data_point_924f3a1a-e3ef-4eb0-a601-3786face6037/run/001_view_model/report.html",
               "/mnt/openstudio/analysis_4fef0e0f-5396-4c55-a6e1-2cd6803db3ab/data_point_924f3a1a-e3ef-4eb0-a601-3786face6037/run/001_view_model/report.json"
            ],
            "step_final_condition" : "Report written to <a href='file:////mnt/openstudio/analysis_4fef0e0f-5396-4c55-a6e1-2cd6803db3ab/data_point_924f3a1a-e3ef-4eb0-a601-3786face6037/run/001_view_model/report.html'>report.html</a>.",
            "step_info" : [ "No changes made to the model." ],
            "step_result" : "NA",
            "step_values" : [
               {
                  "name" : "view_model_html_zip",
[...]
2bLAFtK0abAFtiwZbQNuawRbQtmSwBbTepvJFrH2tsd6m8kWsfbWx3qbyRax9vbHepvJFrH3Fsd6m8kWsfc2x3qbyRax/f1P7mmO9TeWLyLHmOD3UUWbLungGhDm47dWtJLjtha4kuO01ryS4bcmpJLht9akkuO39s5UEt73LtpLgtvfiVhLc+sb4aqLb3tlbTXTb2+yriW57N3410W1v2q8muu29/dVEt30EoJro33Sls36goJro33Sts348oZro33Sts96uVxP9m+7orLfxy+gfbJ7CzJ+ZFqdiou6XD3lmz3Y247thK3tKc+PjnMsHr2OV/BDOJoO42eu0hJS9lujqv3k9u0dCH1KMx2fLB4MzP1HDMJq/egjixYPLj6Nh8XR3KvA2Gqjo3Uw/R2x9oOaYr3P8qvx4FqkFhn4UOr8K1OfVs4dr10NdqChQcY6bRsovyHQcJm39xO/GkPHXznszadzObsaZhmM/CcJJCtWIEzXdvVY3YaQadpn0ixqqyWD9hBafNQ/SLOjqTNBPCEv9R/44+MYn5Zey7auhSs4niR6fNMTNbNLPSJs74k+L58E1oXo8+nLj3NAtuBHNZBTEaV7r4+wC6bZyUDsdv3O/P2r+F9hVbYmfPzCd615NwzjQgq/Tj23OZtm0zFeoovDeDWmJFUwGSk/cXdlyPHrZbsseeBOosc63Zj6mi3kyjMLZVA3Ed9+Jv+WfP7SvRn6cryd6gu2s9s6/2psOSNsfDt/oGO2xmgyTkXgpPPEv0Xg1HjfEyfo34nHQV81duXPZ+bCzcb49OZMwEs3b9FQ634vbNEyeqnlc/dk/ToV0v0C66TTO9S5vP7Q/qnR5Oz1dDF45xUw1v+y3rqe6bNeR8j+WOfiz4zGu39fjlZ/dqU5rnQx5pmSFsX218D1RgzNdcuPLbCQ/lBvK5YWezuJRs+y1SC/pyeJ6lp9J4/GJzVm29TfLRomTKPyo7OIsvls2Ujj1++luyy5U/uXSZ5WFWIYqq7JcSNaXlTLTw3nx0W05ndcXnnSvKl3VXKabPevnVlZVrb7/edOeQre9PfH7H+/Ff97+8U5cvH33/ufffhS/vP3x5zPx0/m7czuBN+mqrR58vUUTSSjiMN1IT2af0jzoi2yLGAs/7qebl2AytFBcjr3WWanMfktc2y8ukUpm0URM/ShWb8ahnzR9veTvpJdy5bPr7DOrwdy8RVsJm5/CJuHP38Cf6oun0jPjqcVT5t/ELgs4wAEOcIADHOAABzjAAQ5wth7nqeuHJorUADSgAQ1oQAMa0IAGNKABDWhAU0zzxCdJ02jfI+AABzjAAQ5wgAMc4AAHOMABThkcew+w7DdsC08vkIIUpCAFKUhBClKQghSkIAUpSEG6HaQbzRQz0oU5IkhBClKQghSkIAUpSEEKUpCCFKQg3Q5SJwfWjHrhqApqUIMa1KAGNahBDWpQgxrUoAY1qEH9DamXWIPIv29uFHtoJ0EyVhcjf6raiXpImi9+CmdRvBlj/vTI9+rTVEV+MouUaL7Z0RobRPb2xKvBQPgi0xL3QTIScfhJiUF3w5Hx3bDtT6f6hSINHb2xs+GAZWv7SRItXiFz0HE8SL/wxbM/KE7m+r0rGm/Xn/RHYdR4fNmJo8ZNOEl271UwHCVa4zocD+w1Flfnt/OzH3Zf7b4fqehTGCd+Ii5UMg2DVPgsDMfBZPhip+h6vdyL+1EwTf5p/M7LvUFw9/Vu4zFmsVRLBIPTRl+n81l6/n4wUdGVPGqIbFBOG4Mgno79+Ukw0e/D2b0eh/2P3zfMfKno4hREMp+mx+tx2bv17/zFp4VH6pa9pOduKE6X7+KZqPuLu2Gz8fenjC2xr19tk/6xcSatvNDl8r9vifrCys/0HtWD/XbX9PanhfPf2runClS9SlS7lajuV6Laq0T1oBLV1XfuHRya3wDmprr2Lj3Z7q2q7pdWPa5Edf1Fn3yyshpZrxrZbjWy+9XI9qqRPahG9rAa2WommaxmlnnVzDKvmlnmVVPEvGqqmEcoY0+NqUrsECI1cBC1HFs3UcuRdRO1HFc3UcvdgZuo5ebATdRyb+AmarlquYlarlluorYbA0dVyxXLUdVyW+CoarkrcFS13BQ4qlruCRxVLbcEjqqWOwJH1Uqmlu1+wLEGVDK3bHcDjqqVFCzbvYCjatmS9cQ4pcQ2QPusOKhaDqujquWwOqpaDqujquVWwFHVci/gqGq5GXBUtVyyHFUtlyxHVdv9gKus5aLlKmu5I3CVtdwSuMpa7glcZS03Ba6ylrsCV1nLbYGrbDWTzHZj4FoVqplltlsDV9lqipjt5sBVtmwZs38Eu8zvFxZPbDMEtP2pDVtA25/nsAW0/UkPW0Db32WwBbT9NQdbwMO6Ax7VHfC47oBrO6V6Ita+1sjaFxtZ+2oja19uZO3rjax9wZG1rziy9iVH1r7meLWvOV79+5va1xzr31jxReRYczY+OVhmm7p40JAhoO1VZAtoexHZAtpeQ7aAtmWDLaBt1WALaFs02ALa1gy2gLYlgy2g9TaVL2Lta431NpUvYu2rjfU2lS9i7euN9TaVL2LtK471NpUvYu1rjvU2lS9i/fub2tcc620qX0SONcfp4Y4yW9bFsyDMwW2vbiXBbS90JcFtr3klwW1LTiXBbatPJcFt71GvJLjtXbaVBLe9F7eS4NY3xlcT3fbO3mqi295mX01027vxq4lue9N+NdFt7+2vJrrtIwDVRLd9UqCa6N90qbN+7qCaPc03Xeusn2KoJvo33dBZb92rie66pftg8xRm/uy0OBUTdb98yDN7trMZ3w1b2VOaGx/nXD6AHavkh3A2GcTNXqclpOy1RFf/zevZPRL6kGI8PmM+GJz5iRqG0fzVQxAvHl9+HA2Lp7xTgbfRQEXvZvppYusDNcd8neNX5cezSC0w9APR+VWgPreePVy7HupCRYGKc9w0Un5BpuMwaesnfjeGjL923ptJ43Z2M840HPtJEE5SqEacqOnutboJI9Wwy6Rf1FBNBusntPiseZBmQVdngn5CWOo/8ofCNz4vv5RtXw1Vcj5J9PikIW5mk35G2twRf1o8Fa4J1ePRlxvnhm7BjWgmoyBO81ofZxdIt5WD2un4nfv9UfO/wK5qS/z8gelc92oaxoEWfJ1+bHM2y6ZlvkIVhfduSEusYDJQeuLuypbj0ct2W/bAm0CNdb418zFdzJNhFM6maiC++078Lf/8oX018uN8PdETbGe1d/7V3nRA2v5w+EbHaI/VZJiMxEvhiX+JxqvxuCFO1r8Rj4O+au7KncvOh52N8+3JmYSRaN6mp9L5XtymYfJUzePqz/5xKqT7BdJNp3Gud3n7of1Rpcvb6eli8MopZqr5Zb91PdVlu46U/7HMwZ8dj3H9vh6v/OxOdVrrZMgzJSuM7auF/4kanOmSG19mI/mh3FAuL/R0Fo+aZa9FeklPFtez/Ewaj09szrKtv1k2SpxE4UdlF2fx3bKRwqnfT3dbdqHyL5c+qyzEMlRZleVCsr6slJkezouPbsvpvL7wpHtV6armMt3sWT+3sqpq9f3Pm/YUuu3tid//eC/+8/aPd+Li7bv3P//2o/jl7Y8/n4mfzt+d2wm8SVdt9eDrLZpIQhGH6UZ6MvuU5kFfZFvEWPhxP928BJOhheJy7LXOSmX2W+LafnGJVDKLJmLqR7F6Mw79pOnrJX8nvZQrn11nn1kN5uYt2krY/BQ2CX/+Bj5VXzyVnhlQLZ4y/ya2WcABDnCAAxzgAAc4wAEOcICz9ThPXT80UaQGoAENaEADGtCABjSgAQ1oQAOaYponPkmaRvseAQc4wAEOcIADHOAABzjAAQ5wyuDYe4Blv2FbeHqBFKQgBSlIQQpSkIIUpCAFKUhBCtLtIN1oppiRLswRQQpSkIIUpCAFKUhBClKQghSkIAXpdpA6ObBm1AtHVVCDGtSgBjWoQQ1qUIMa1KAGNahBDepvSL3EGkT+fXOj2EM7CZKxuhj5U9VO1EPSfPFTOIvizRjzp0e+V5+mKvKTWaRE882O1tggsrcnXg0GwheZlrgPkpGIw09KDLobjozvhm1/OtUvFGno6I2dDQcsW9tPkmjxCpmDjuNB+oUvnv1BcTLX713ReLv+pD8Ko8bjy04cNW7CSbJ7r4LhKNEa1+F4YK+xuDq/nZ/9sPtq9/1IRZ/COPETcaGSaRikwj8pPwkmwxc7Rdfr5V7cj4Jp8k/jd17uDYK7r3cbjzGLpVoiGJw2+jqdz9Lz94OJiq7kcUNkg3LaGATxdOzPT4KJfh/O7vU47H/8vmHmS0UXpyCS+TQ9Xo/L3q1/5y8+LTxSt+wlPXdDcbp8F89E3V/cDZuNvz9lbIl9/Wqb9I+NM2nlhS6X/31L1BdWfqb3qMpu9g6wvl5+9BufFm5/a++bKlDy2JS6bEr7bEo9NqUDNqVDNqUjNqVjNqW1l28SpfiyXPKlueTLc8mX6JIv0yVfqku+XJd8yS75st3jy3aPcU3ny3aPL9s9x2x/arxkWQEjNXAQKhgrN6GCkXITKhgnN6GCNcFNqGBFcBMqWA/chApWAzehgrXATaio8DkqseV2UdlzVGLL7qKi56jElt9FJc9RiS3DiwqeoxJbjheVO0clvvWbLceLap2jkkuOPzG+sCxz2hvDQalgmByVCobJUalgmByVCpYCR6WCpcBRqWApcFQqWAoclQqWAkelonrnKsWX5UUVz1WKL8+Lap6rFF+mF1U9Vym+XC+qe65SfNleVPlcpRjXdL5sLyp+rlIbsx0vo8fL6HMhi8PwMvonDS+jt8HCy+jxMvoyDS+j1w0vo8fL6LOGl9EXfxMvo98soBteRr8d72wEDnCAAxzgAAc4wAEOcIADnK3HeWavcgQNaEADGtCABjSgAQ1oQAOa7aF5Xu9sBA5wgAMc4AAHOMABDnCAA5xnhfMNzdle9ZPgLkjmv6g7NRbNf8Oe7Tnas+UXaSuc2LzO83diSxnrcmLrtDs9FiM2klCXS2ifS6jHJXTAJXTIJXTEJXTMJbT2XD5NiS23JVtyS7bslmzpLdnyW7IluGTLcMmW4pItxz22HPf41m+2HPfYctxzy3F7x7V1rfKGaxQd8yiVt1uj6JhXgfJmaxQd8wpQ3mqNomOe/QSjNZIQV0YXlDeCyxpJiCupC2obwWKNJMSV1wWFjeCvRloZuTK7oKoRzNVIQlyZXVDSyjurresQjNVIQuYhItiqkYTMk59gqkYSMk9+gqUaScg8+SmGajQlttwuqGwUNzWaElt6FxQ3ipUaTYktwwvqG8VHjbZWsuV4QYmjmKjRlNhyvKDKwUENDmpwUHtCCAc13eCgBgc1OKgVNDiowUHN6azgoLYW3+H7cFBbbXBQe2wV3LD1zIwGgAMc4AAHOMABDnCAAxzgAGfrcZ6Z/wBoQAMa0IAGNKABDWhAAxrQbA/NX8b3ADjAAQ5wgAMc4AAHOMABDnDKx/sGDmowTHtWhmkX/ZEazNJR1o9DxSoRsrMdtmlyC2zTZG22aQfZQ6FlLW64hLpcQvtcQj0uoQMuoUMuoSMuoWMuobWn72lKbLkt2ZJbsmW3ZEtvyZbfki3BJVuGS7YUl2w57rHluMe3frPluMeW455bjtvbpq1rlbdNo+iYR6m8bRpFx7wKlLdNo+iYV4DytmkUHfPsJ9imkYS4MrqgvBFs00hCXEldUNsItmkkIa68LihsBNs00srIldkFVY1gm0YS4srsgpJW3jZtXYdgm0YSMg8RwTaNJGSe/ATbNJKQefITbNNIQubJT7FNoymx5XZBZaPYptGU2NK7oLhRbNNoSmwZXlDfKLZptLWSLccLShzFNo2mxJbjBVUOtmmwTYNt2hNC2KbpBts02KbBNq2gwTYNtmlOZwXbtLX4Dt+Hbdpqg23aY6vgLq1n5i4AHOAABzjAAQ5wgAMc4AAHOFuP88xMB0ADGtCABjSgAQ1oQAMa0IBme2j+MmYHwAEOcIADHOAABzjAAQ5wgFM+HmzT8gbbtEfbNLkdtmneFtimebXZpnXaHotrGkWny6Szz6TTY9I5YNI5ZNI5YtI5ZtJZe+ieJMSV0ZIrpSVXTkuupJZcWS250lpy5bXkSmzJldkeV2Z7bGs1V2Z7XJntOWW2vT3amlR5dzSCjHGEynujEWSM8768MxpBxjjny/uiEWSM853gikbRYcpjcxkjWKJRdJhS2VzDCH5oFB2mbDYXMIIZGmUdZMpnc/UiOKFRdJjy2Vy6ytugrckQXNAoOsbhIXigUXSM053ggEbRMU53gv8ZRcc43SnuZyQhrow2VzCK9RlJiCupzUWM4ntGEuLKa3Mdo5iekVZGrsw2lzKK4xlJiCuzzdUMdmewO4Pd2RNC2J3pBrsz2J3B7qygwe4MdmdOZwW7s7X4Dt+H3dlqg93ZY6vg7qpn5goAHOAABzjAAQ5wgAMc4AAHOFuP88zMAkADGtCABjSgAQ1oQAMa0IBme2j+MiYFwAEOcIADHOAABzjAAQ5wgFM+HuzO8ga7s0e7M2877M66W2B31q3R7qzTY/I7Iwh1uYT2uYR6XEIHXEKHXEJHXELHXEJfPG5PUWLLbcmW3JItuyVbeku2/JZsCS7ZMlyypbhky3GPLcc9vvWbLcc9thz33HLcxQZtVYvig1ZexzxKFCe08jrmVYDihVZex7wCUNzQyuuYZz/JD40gxJXRBeWNZIlGEOJK6oLaRnJFIwhx5XVBYSMZoxFWRq7MLqhqJG80ghBXZheUNIo92qoOyR+NIGQeIpJDGkHIPPlJHmkEIfPkJ7mkEYTMk5/mk0ZRYsvtgspGs0qjKLGld0Fxo7mlUZTYMrygvtEM0yhrJVuOF5Q4mmcaRYktxwuqHGzTYJsG27QnhLBN0w22abBNg21aQYNtGmzTnM4Ktmlr8R2+D9u01QbbtMdWwV1az8xdADjAAQ5wgAMc4AAHOMABDnC2HueZmQ6ABjSgAQ1oQAMa0IAGNKABzfbQ/GXMDoADHOAABzjAAQ5wgAMc4ACnfDzYpuUNtmmPtmnd7bBN298C27T92mzTDrKHQsta3HAJdbmE9rmEelxCB1xCh1xCR1xCx1xCa0/f05TYcluyJbdky27Jlt6SLb8lW4JLtgyXbCku2XLcY8txj2/9Zstxjy3HPbcct7dNW9cqb5tG0TGPUnnbNIqOeRUob5tG0TGvAOVt0yg65tlPsE0jCXFldEF5I9imkYS4krqgthFs00hCXHldUNgItmmklZErswuqGsE2jSTEldkFJa28bdq6DsE2jSRkHiKCbRpJyDz5CbZpJCHz5CfYppGEzJOfYptGU2LL7YLKRrFNoymxpXdBcaPYptGU2DK8oL5RbNNoayVbjheUOIptGk2JLccLqhxs02CbBtu0J4SwTdMNtmmwTYNtWkGDbRps05zOCrZpa/Edvg/btNUG27THVsFdWs/MXQA4wAEOcIADHOAABzjAAQ5wth7nmZkOgAY0oAENaEADGtCABjSgAc320PxlzA6AAxzgAAc4wAEOcIADHOAAp3w82KblDbZpj7Zp+9thm9bbAtu0Xm22aZ22x+KaRtHpMunsM+n0mHQOmHQOmXSOmHSOmXTWHronCXFltORKacmV05IrqSVXVkuutJZceS25EltyZbbHldke21rNldkeV2Z7Tpltb4+2JlXeHY0gYxyh8t5oBBnjvC/vjEaQMc758r5oBBnjfCe4olF0mPLYXMYIlmgUHaZUNtcwgh8aRYcpm80FjGCGRlkHmfLZXL0ITmgUHaZ8Npeu8jZoazIEFzSKjnF4CB5oFB3jdCc4oFF0jNOd4H9G0TFOd4r7GUmIK6PNFYxifUYS4kpqcxGj+J6RhLjy2lzHKKZnpJWRK7PNpYzieEYS4spsczWD3RnszmB39oQQdme6we4MdmewOytosDuD3ZnTWcHubC2+w/dhd7baYHf22Cq4u+qZuQIABzjAAQ5wgAMc4AAHOMABztbjPDOzANCABjSgAQ1oQAMa0IAGNKDZHpq/jEkBcIADHOAABzjAAQ5wgAMc4JSPB7uzvMHu7NHurLcddmcHW2B3dlCj3Vmnx+R3RhDqcgntcwn1uIQOuIQOuYSOuISOuYS+eNyeosSW25ItuSVbdku29JZs+S3ZElyyZbhkS3HJluMeW457fOs3W457bDnuueW4iw3aqhbFB628jnmUKE5o5XXMqwDFC628jnkFoLihldcxz36SHxpBiCujC8obyRKNIMSV1AW1jeSKRhDiyuuCwkYyRiOsjFyZXVDVSN5oBCGuzC4oaRR7tFUdkj8aQcg8RCSHNIKQefKTPNIIQubJT3JJIwiZJz/NJ42ixJbbBZWNZpVGUWJL74LiRnNLoyixZXhBfaMZplHWSrYcLyhxNM80ihJbjhdUOdimwTYNtmlPCGGbphts02CbBtu0ggbbNNimOZ0VbNPW4jt8H7Zpqw22aY+tgru0npm7AHCAAxzgAAc4wAEOcIADHOBsPc4zMx0ADWhAAxrQgAY0oAENaEADmu2h+cuYHQAHOMABDnCAAxzgAAc4wAFO+XiwTcsbbNMebdMOtsM27XALbNMOa7NNO8geCi1rccMl1OUS2ucS6nEJHXAJHXIJHXEJHXMJrT19T1Niy23JltySLbslW3pLtvyWbAku2TJcsqW4ZMtxjy3HPb71my3HPbYc99xy3N42bV2rvG0aRcc8SuVt0yg65lWgvG0aRce8ApS3TaPomGc/wTaNJMSV0QXljWCbRhLiSuqC2kawTSMJceV1QWEj2KaRVkauzC6oagTbNJIQV2YXlLTytmnrOgTbNJKQeYgItmkkIfPkJ9imkYTMk59gm0YSMk9+im0aTYkttwsqG8U2jabElt4FxY1im0ZTYsvwgvpGsU2jrZVsOV5Q4ii2aTQlthwvqHKwTYNtGmzTnhDCNk032KbBNg22aQUNtmmwTXM6K9imrcV3+D5s01YbbNMeWwV3aT0zdwHgAAc4wAEOcIADHOAABzjA2XqcZ2Y6ABrQgAY0oAENaEADGtCABjTbQ/OXMTsADnCAAxzgAAc4wAEOcIADnPLxYJuWN9imPdqmHW6HbdrRFtimHdVmm9ZpeyyuaRSdLpPOPpNOj0nngEnnkEnniEnnmEln7aF7khBXRkuulJZcOS25klpyZbXkSmvJldeSK7ElV2Z7XJntsa3VXJntcWW255TZ9vZoa1Ll3dEIMsYRKu+NRpAxzvvyzmgEGeOcL++LRpAxzneCKxpFhymPzWWMYIlG0WFKZXMNI/ihUXSYstlcwAhmaJR1kCmfzdWL4IRG0WHKZ3PpKm+DtiZDcEGj6BiHh+CBRtExTneCAxpFxzjdCf5nFB3jdKe4n5GEuDLaXMEo1mckIa6kNhcxiu8ZSYgrr811jGJ6RloZuTLbXMoojmckIa7MNlcz2J3B7gx2Z08IYXemG+zOYHcGu7OCBrsz2J05nRXsztbiO3wfdmerDXZnj62Cu6uemSsAcIADHOAABzjAAQ5wgAMc4Gw9zjMzCwANaEADGtCABjSgAQ1oQAOa7aH5y5gUAAc4wAEOcIADHOAABzjAAU75eLA7yxvszpZ2Z93tcDs73gK3s+Ma3c46PSa7M4JQl0ton0uoxyV0wCV0yCV0xCV0zCX0xdP2FCW23JZsyS3Zsluypbdky2/JluCSLcMlW4pLthz32HLc41u/2XLcY8txzy3HXVzQVrUoNmjldcyjRDFCK69jXgUoVmjldcwrAMUMrbyOefaT7NAIQlwZXVDeSI5oBCGupC6obSRTNIIQV14XFDaSLxphZeTK7IKqRrJGIwhxZXZBSaO4o63qkOzRCELmISIZpBGEzJOfZJFGEDJPfpJJGkHIPPlpNmkUJbbcLqhsNKc0ihJbehcUN5pZGkWJLcML6hvNL42yVrLleEGJo1mmUZTYcrygysE1Da5pcE17QgjXNN3gmgbXNLimFTS4psE1zems4Jq2Ft/h+3BNW21wTXtsFdyk9czMBYADHOAABzjAAQ5wgAMc4ABn63GemecAaEADGtCABjSgAQ1oQAMa0GwPzV/G6wA4wAEOcIADHOAABzjAAQ5wyseDa1re4Jq2dE3b3wrXtG7n+bumpYx1uaYdZM+ElnW44RLqcgntcwn1uIQOuIQOuYSOuISOuYTWHr6nKbHltmRLbsmW3ZItvSVbfku2BJdsGS7ZUlyy5bjHluMe3/rNluMeW457bjlu75q2rlXeNY2iYx6l8q5pFB3zKlDeNY2iY14ByrumUXTMs5/gmkYS4srogvJGcE0jCXEldUFtI7imkYS48rqgsBFc00grI1dmF1Q1gmsaSYgrswtKWnnXtHUdgmsaScg8RATXNJKQefITXNNIQubJT3BNIwmZJz/FNY2mxJbbBZWN4ppGU2JL74LiRnFNoymxZXhBfaO4ptHWSrYcLyhxFNc0mhJbjhdUObimwTUNrmlPCOGaphtc0+CaBte0ggbXNLimOZ0VXNPW4jt8H65pqw2uaY+tgpu0npm5AHCAAxzgAAc4wAEOcIADHOBsPc4z8xwADWhAAxrQgAY0oAENaEADmu2h+ct4HQAHOMABDnCAAxzgAAc4wAFO+XhwTcsbXNOWrmm97XBNk1vgmiZrc03rtD0W0zSKTpdJZ59Jp8ekc8Ckc8ikc8Skc8yks/bMPUmIK6MlV0pLrpyWXEktubJacqW15MpryZXYkiuzPa7M9tjWaq7M9rgy23PKbHt3tDWp8uZoBBnjCJW3RiPIGOd9eWM0goxxzpe3RSPIGOc7wRSNosOUx+YyRnBEo+gwpbK5hhHs0Cg6TNlsLmAELzTKOsiUz+bqRTBCo+gw5bO5dJV3QVuTIZigUXSMw0OwQKPoGKc7wQCNomOc7gT7M4qOcbpTzM9IQlwZba5gFOczkhBXUpuLGMX2jCTEldfmOkbxPCOtjFyZbS5lFMMzkhBXZpurGdzO4HYGt7MnhHA70w1uZ3A7g9tZQYPbGdzOnM4Kbmdr8R2+D7ez1Qa3s8dWwc1Vz8wUADjAAQ5wgAMc4AAHOMABDnC2HueZeQWABjSgAQ1oQAMa0IAGNKABzfbQ/GU8CoADHOAABzjAAQ5wgAMc4ACnfDy4neUNbmdLt7OD7XA787bA7cyr0e2s02OyOyMIdbmE9rmEelxCB1xCh1xCR1xCx1xCXzxtT1Fiy23JltySLbslW3pLtvyWbAku2TJcsqW4ZMtxjy3HPb71my3HPbYc99xy3MUFbVWLYoNWXsc8ShQjtPI65lWAYoVWXse8AlDM0MrrmGc/yQ6NIMSV0QXljeSIRhDiSuqC2kYyRSMIceV1QWEj+aIRVkauzC6oaiRrNIIQV2YXlDSKO9qqDskejSBkHiKSQRpByDz5SRZpBCHz5CeZpBGEzJOfZpNGUWLL7YLKRnNKoyixpXdBcaOZpVGU2DK8oL7R/NIoayVbjheUOJplGkWJLccLqhxc0+CaBte0J4RwTdMNrmlwTYNrWkGDaxpc05zOCq5pa/Edvg/XtNUG17THVsFNWs/MXAA4wAEOcIADHOAABzjAAQ5wth7nmXkOgAY0oAENaEADGtCABjSgAc320PxlvA6AAxzgAAc4wAEOcIADHOAAp3w8uKblDa5pS9e0w+1wTetugWtatzbXtIPsmdCyDjdcQl0uoX0uoR6X0AGX0CGX0BGX0DGX0NrD9zQlttyWbMkt2bJbsqW3ZMtvyZbgki3DJVuKS7Yc99hy3ONbv9ly3GPLcc8tx+1d09a1yrumUXTMo1TeNY2iY14FyrumUXTMK0B51zSKjnn2E1zTSEJcGV1Q3giuaSQhrqQuqG0E1zSSEFdeFxQ2gmsaaWXkyuyCqkZwTSMJcWV2QUkr75q2rkNwTSMJmYeI4JpGEjJPfoJrGknIPPkJrmkkIfPkp7im0ZTYcrugslFc02hKbOldUNwormk0JbYML6hvFNc02lrJluMFJY7imkZTYsvxgioH1zS4psE17QkhXNN0g2saXNPgmlbQ4JoG1zSns4Jr2lp8h+/DNW21wTXtsVVwk9YzMxcADnCAAxzgAAc4wAEOcIADnK3HeWaeA6ABDWhAAxrQgAY0oAENaECzPTR/Ga8D4AAHOMABDnCAAxzgAAc4wCkfD65peYNr2tI17Wg7XNP2t8A1bb8217RO22MxTaPodJl09pl0ekw6B0w6h0w6R0w6x0w6a8/ck4S4MlpypbTkymnJldSSK6slV1pLrryWXIktuTLb48psj22t5spsjyuzPafMtndHW5Mqb45GkDGOUHlrNIKMcd6XN0YjyBjnfHlbNIKMcb4TTNEoOkx5bC5jBEc0ig5TKptrGMEOjaLDlM3mAkbwQqOsg0z5bK5eBCM0ig5TPptLV3kXtDUZggkaRcc4PAQLNIqOcboTDNAoOsbpTrA/o+gYpzvF/IwkxJXR5gpGcT4jCXEltbmIUWzPSEJceW2uYxTPM9LKyJXZ5lJGMTwjCXFltrmawe0MbmdwO3tCCLcz3eB2BrczuJ0VNLidwe3M6azgdrYW3+H7cDtbbXA7e2wV3Fz1zEwBgAMc4AAHOMABDnCAAxzgAGfrcZ6ZVwBoQAMa0IAGNKABDWhAAxrQbA/NX8ajADjAAQ5wgAMc4AAHOMABDnDKx4PbWd7gdrZ0OzveDrez3ha4nfVqczuT+512Z6XJfRbzM0bZbjWy+9XI9qqRPahG9rAa2aNqZI+rkV171p9Tt6J5JiuaaLKimSYrmmqyorkmK5pssqLZJiuabrKi+eZVNN+8qupaRfPNq2i+eZT5Zu8qV6Rc3mSOT9V2dMtb0PGp2q5k5Q3q+FRtV7Hy9nV8qrYrGMHcjlG2mtllvV0gOOExylYzwaz3CgTbPEbZauaY9UaB4LHHWBWqmWXWuwSCIR+jbDWzzHqLUN69r0iVYObHKGs7tASrP0ZZ2wWMYATIKGu7gBFsAhllbRcwiokgp25F88x6p0BxHOTUrWiqWW8WKPaEnLoVzTbr/QLFy5CzTlQ036y3DBTjQ07diuab9a4BLolwSYRL4hNCuCTqBpdEuCTCJbGgwSURLolOZwWXxLX4Dt+HS+Jqg0viY6vgpsxnZiYCHOAABzjAAQ5wgAMc4AAHOFuP88w8RkADGtCABjSgAQ1oQAMa0IBme2j+Mt4mwAEOcIADHOAABzjAAQ5wgFM+3jdwSXyvPk1V5CezSInmmx2YJj4v00QV3QV9Jf7t68z7JQynQl8wfZ/zfufNdhgoHmyBgeJBfQaK+u9lnZqYdLpMOvtMOj0mnQMmnUMmnSMmnWMmnXWDAYoQV0ZLrpSWXDktuZJacmW15EpryZXXkiuxJVdme1yZ7bGt1VyZ7XFltueU2Q7GfqtSBCe/8jLGESJ49ZWXMc57ghtfeRnjnCf47ZWXMc53iqMeQYcpj81ljGKSR9BhSmVzDaP43hF0mLLZXMAoVnaEdZApn83Vi+JOR9Bhymdz6SIYzq3KUBzmCDrG4aF4yBF0jNOd4hJH0DFOd4oPHEHHON1JTm8UIa6MNlcwknkbRYgrqc1FjOTHRhHiymtzHSNZrFFWRq7MNpcykmsaRYgrs83V7InQ71EQRkEyF1LsiubFbLKjLakOdv+vP9ntyN3s769Vf7crTWWus/YPvVev9vePjxlCeNWH6FYfYr/6EL3qQxxUH+Kw+hBH1Yc4rj7EWmWvKkYN81vWMMFlDTNc1jDFZQ1zXNYwyWUNs1zWMM1lDfPcq2Gee3XU8RrmuVfDPPfKzXMvi+Enphgdu21Vt+t5RwcMIcxXgy2E+WKwhTBfC7YQ5iWXLYR5xWULYV5w2UKY11u2EOblli1EwbaKL0YN87tgW8UXo4YZXrCt4otRwxwv2Fbxxahhlhdsq/hi1DDPC7ZVfDHqqOM1zPOCbRVfjHLzvKtjvIkCQwzv2G5bJeXhYbfLEMJ8NdhCmC8GWwjztWALYV5y2UKYV1y2EOYFly2Eeb1lC2G+N4otRMENgXwxzHdU8cUw32zFF8N8HxZfDPMtWnwxzPcl8sUw37LIF8N8NyNfDPONjnwxapjnBdsqvhh11PEaCnnBtoovRrlSvq9jvB/NTDGO7LZVx2nr/cAQwnw12EKYLwZbCPO1YAth3laxhTBvq9hCmLdVbCHM2yq2EOblli1EwbaKL4Z5W8UXw7yt4oth3lbxxTBvq/himLdVfDHM2yq+GOZtFV8M87aKL0YN87xgW8UXo446XkMhL9hW8cUoV8p7Osa/1cAU49BuW/X69dnZ4SFDCPPVYAthvhhsIczXgi2EeVvFFsK8rWILYd5WsYUwb6vYQpiXW7YQBdsqvhjmbRVfDPO2ii+GeVvFF8O8reKLYd5W8cUwb6v4Ypi3VXwxzNsqvhg1zPOCbRVfjDrqeA2FvGBbxRejXCk/yLZuM2WKcWC3rTo7OzhgCWG+GmwhzBeDLYT5WrCFMG+r2EKYt1VsIczbKrYQ5m0VWwjzcssWomBbxRfDvK3ii2HeVvHFMG+r+GKYt1V8MczbKr4Y5m0VXwzztoovhnlbxRejhnlesK3ii1FHHa+hkBdsq/hilCvlhzrGr6HptnivZ7etOjryvF6PIYT5arCFMF8MthDma8EWwrytYgth3laxhTBvq9hCmLdVbCGKfKeYQhSarXHFKHKr4opRZGTFFaPI44orRpH9FVeMIs83rhhFdnBcMYqc4rhiFJnIccWoYZ4XbKv4YtRRx2so5AXbKr4Ym0v5BxuH19yTWZyKibpfGshmvrHN+G7YyhxgN1rFLo2dY5X8EM4mg7jZ67SElL2W6Oq/eT07u9mHFOPRlHowOPMTNQyj+auHIF7YIj+ev4V7dCrwNhqo6N1MuxRbH6g55uscvyo/nkVqgaGNlvNxr9ieG93oRje60Y1udKMb3ehGN7rRjW50oxvd6EY3utGNbnSjG93oRje60Y1udKMb3ehGN7rRjW50oxvd6EY3utGNbnSjG93oRje60Y1udKMb3f+ruuft8E5FUTBQv/r6wVrZ7hCfV9WPxsbrj8ZeqChQcf54baO1fIB4Og6T9jiYqI2PyMZfe05385O1cTt79fw0HPtJEE5SqEacqOnutboJI9Wwe/L5FzVUk8H6CS0+ax50WqKrn1zu6AeZ9R+NsbpJNNgG6aVs+2qokvNJoscnDXEzm/Qz0uaO+HODxJJQPR59ufFZbt2CG9FMRkHcjrOrYhdIt5WD2un4nfv9UfO/wK5qS3z96HjKnuteTcM40IKv049tzmbZtMxXqKLw3g1piRVMBkrPh13Zcjx62W7LHngTqLHOt2Y+pot5MozC2VQNxHffib/lnz+0r0Z+nD//rifYzmrv/Ku96YC0/eHwjY7RHqvJMBmJl8IT/xKNV+NxQ5ysfyMeB33V3JU7l50POxvn25MzCSPRvE1PpfO9uE3D5Kmax9Wf/SNdcdwvkG46jXO9y9sP7Y9qLk5PTxeDV04xU80v+63rqS7bdaT8j2UO/ux4jOv39XjlZ3eq01onQ54pmZFD+8qP42A4UYMzbRERX2Yj+aHcUC4v9HQWj5plr0V6SU8W17P8TBqPT2zOsq2/WTZKnEThR2UXZ/HdspHCqd8PkrldqPzLpc8qC7EMVVZluZCsLytlpofz4qPbcjqvLzxiV0hXNZfpZs/6uZVVVavvf960p9Btb0/8/sd78Z+3f7wTF2/fvf/5tx/FL29//PlM/HT+7txO4E26aqsHX2/RRBKKOIwSMZl9SvOgLzJLk1j4cT/dvASToYXicuy1zkpl9lvi2n5xiVQyiyZi6kexejMO/aTp6yV/J72UK59dZ59ZDebmLdpK2PwUNgl/rtbp5XH/mU33bLI3XwzUjT8bJ2Iahekapl60xIu/Hx2dnZ2fv6jYeAY4wAEOcIADHOAABzjAAQ5w/nfiiHj2Kf0nsBgo/aEY+HNNFKkBaEADGtCABjSgAQ1oQAMa0ICmmOY+uzXrC5rr8UwBBzjAAQ5wgAMc4AAHOMABDnDK4Dy+N1Dq9wZezEzvDezK7Ddsr17t7x8fgxSkIAUpSEEKUpCCFKQgBSlIQQrS7SD1MlI/MZF2MtJu1/OODkAKUpCCFKQgBSlIQQpSkIIUpCAF6XaQdjXpmygwkHrHGamUh4fdLkhBClKQghSkIAUpSEEKUpCCFKQg3Q7SfU36fjQzkR5lpMdp6/0AUpCCFKQgBSlIQQpSkIIUpCAFKUi3g7SnSf+tBibSw4z09euzs8NDkIIUpCAFKUhBClKQghSkIAUpSEG6HaQH2U8mZspEepCRnp0dHIAUpCAFKUhBClKQghSkIAUpSEEK0m0hPdSkv4YmZ0Gvl5EeHXlerwdSkIIUpCAFKUhBClKQghSkIAUpSGsjXaIMIv++uVHsoZ0EyVhdjPypaifqIWm++CmcRfFmjPnTI18Hn9QkDsLJWMWZwgaJvT3xajAQvsiUxH2QjEQcflJi0N1wZHw3bPvTqZoMmg0du7Gz4YBla/tJEjUbD42WOOg4HjRPD/LsD4qT+Vgt8Hb9SX8URunxjbG6caDNNW7CSbJ7r4LhKNEa1+F4YK+xuDYX093fVZReoERFV//z25UUF/N4tyvejKPd9O/90e4r8dPv4/6nZDcOZ+mF+J/fxG/nZz/oryXqk+iK3y/+R7zt9/V3X+wUXdqXe3E/CqbJP43febk3CO6+3m08xiyWaolgcNro67w/S4fKDybpSXYPGyIbv9PGIIinY39+EkzGadfu9Tjsf/y+YeZLRRenIJL5ND1eD+HerX/nLz4tPFK3Oz/SKSpOxSD4NB2r9kTdX9wNm42/P2Vsif1OJ/tj45TTsgM/8VPdyz8bY/9ajRsnjYG68WfjREyj8CYYq0Zr0XP10DiR7U6rceePZ6pxcnDcPl5pR8etRl+vU6lCuvScnZ2fNz63rFS9SlS7lajuV6Laq0T1oBLVw0pUjypRPa5EVXaqka1mdslqppesZn7JaiaYrGaGyWqmmKxmjslqJpmsZpZ51cwyr6IaVs0s86qZZR5hlol49unT2qu/S+wQIjVwELUcWzdRy5F1E7UcVzdRy7XLTdRy5XITtVy33EQtVy03Ucs1y03UdmPgqFrJnLLdFjiqVjKrbDcFjqqVzCvbLYGjaiUzy3ZD4Khaydyy3Q44qlZTryqZW7Z7AUfVsnPrPpgk1G3Atf6CvarlsDqqWg6ro6rlsDqqWi5ZjqqWS5ajquWS5ahquWQ5qlouWY6qtvsBV9lqZpftjsBVtpr5ZbsncJWtZobZ7gpcZauZY7b7AlfZamaZ7c7AVbaiGlbNLLPdHLjKOs2yDza/cMh/nyhOxUTdL3+fkf0aoxnfDVvZLyQ2/uZi+UvJWCU/hLPJIG72Oi0hZa8luvpvXs/utx8PKcbj71oHgzM/UcMwmr96COLFL/Ueh8LiN5+pwNtooKJ3M/07NusDNcd8neNX5cezSC0w9K8J80tA/V1u9nuk9VAXKgpUnOOmkfILMh2HSVv/cmtjyPhr572ZNG5neTcNx34ShJMUqhEnarp7rW7CSDXsMukXNVSTwfoJLT5rHqRZ0NWZoH8ZJvUf+a9KN/4WeSnbvhqq5HyS6PFJQ9zMJv2MtLkj/rT4XakmVI9HX26cG7oFN6KZjII4zWt9nF0g3VYOaqfjd+73R83/AruqLfHz3w3mulfTMA604Ov0Y5uzWTYt8xWqKLx3Q1piBZOB0hN3V7Ycj16227IH3gRqrPOtmY/pYp4Mo3A2VQPx3Xfib/nnD+2rkR/n64meYDurvfOv9qYD0vaHwzc6RnusJsNkJF4KT/xLNF6Nxw1xsv6NeBz0VXNX7lx2PuxsnG9PziSMRPM2PZXO9+I2DZOnah5Xf/aPUyHdL5BuOo1zvcvbD+2PKl3eTk8Xg1dOMVPNL/ut66ku23Wk/I9lDv7seIzr9/V45Wd3qtNaJ0OeKVlhbF8t7gNSg+xOoPgyG8kP5YZyeaGns3jULHst0kt6srie5WfSeHxic5Zt/c2yUeIkCj8quziL75aNFE79fpDM7ULlXy59VlmIZaiyKsuFZH1ZKTM9nBcf3ZbTeX3hEbtCuqq5TDd71s+trKpaff/zpj2Fbnt74vc/3ov/vP3jnbh4++79z7/9KH55++PPZ+Kn83fndgJv0lVbPfh6iyaSUMRhupGezD6ledAX2RYxFn7cTzcvwWRoobgce62zUpn9lri2X1wilcyiiZj6UazejEM/afp6yd9JL+XKZ9fZZ1aDuXmLthI2P4VNwp+/wf2aX/wCNr8pU/9C9ZvcPgoc4AAHOMABDnCAAxzgAAc4W4/z9AYXTRSpAWhAAxrQgAY0oAENaEADGtCAppjmyS2Bmkbf4gcc4AAHOMABDnCAAxzgAAc4wPmGLonv1aepivxkFinRfLMDn8Rn5ZP4b19n3E8q+8+rT9eBmiRCXzLte6gGs3T8d8Vh5812WCAebYEF4lFtFojZg6dlLZiYdLpMOvtMOj0mnQMmnUMmnSMmnWMmnTVvAZIQV0ZLrpSWXDktuZJacmW15EpryZXXkiuxJVdme1yZ7bGt1VyZ7XFltueU2faWfWtS5U36CDLGESpvxEeQMc778mZ7BBnjnC9vqEeQMc53gmkeRYcpj81ljGCFR9FhSmVzDSMY3FF0mLLZXMAItnWUdZApn83Vi2BGR9Fhymdz6SpvMbcmQzCVo+gYh4dgHEfRMU53gjkcRcc43QkGcBQd43SnmLyRhLgy2lzBKNZtJCGupDYXMYohG0mIK6/NdYxis0ZaGbky21zKKOZpJCGuzDZXM1iibYUlGrrRjW50oxvd6EY3utGNbnSjG93oRje6n1P3vB3eqSgKBupXX/+gSrY7sMRfORNY4j82WOI7NVjiwxLfocES/8sGS/wvGyzxHRss8WGJ/9UGS3zgAAc4wAEOcIADHOAABzjAAc42GEqCBjSgAQ1oQAMa0IAGNKABzfbQ/GWMLIEDHOAABzjAAQ5wgAMc4ACnfLxvYIn/OvikJnEQTsYqjmGI/7wM8cPoozi/uQn6gZr05482+PUa4Off/qJn9f+Xf1/891E9/8vjf67DwVz/d5R8Gv/z//z/D6c+jw=="
               },
               {
                  "name" : "annual_peak_electric_demand",
                  "units" : "kW",
                  "value" : 42.494980000000005
               },
               {
                  "name" : "first_year_capital_cost",
                  "units" : "$",
                  "value" : 0
               },
               {
                  "name" : "annual_utility_cost",
                  "units" : "$",
                  "value" : 12093.629999999999
               },
               {
                  "name" : "total_lifecycle_cost",
                  "units" : "$",
                  "value" : 202476.51999999999
               }
            ],
            "step_warnings" : [ "A table in Annual Overview section returned false and was skipped." ]
         }
      }
   ],
   "updated_at" : "20170710T183734Z",
   "weather_file" : "USA_CO_Denver.Intl.AP.725650_TMY3.epw"
}
