{
   "completed_at" : "20170710T190315Z",
   "completed_status" : "Success",
   "created_at" : "2017-07-10 18:49:37 +0000",
   "current_step" : 5,
   "description" : "",
   "eplusout_err" : "Program Version,EnergyPlus, Version 8.7.0-78a111df4a, YMD=2017.07.10 18:53,IDD_Version 8.7.0\n   ************* IDF Context for following error/warning message:\n   ************* Note -- lines truncated at 300 characters, if necessary...\n   *************      5 Building,\n   ************* indicated Name=NECB 2011-SmallHotel-NECB HDD Method-CAN_NF_Gander.718030_CWEC.epw created: 2017-07-10 18:49:46 +0000\n   ************* Only last 1 lines before error line shown.....\n   *************      6   NECB 2011-SmallHotel-NECB HDD Method-CAN_NF_Gander.718030_CWEC.epw created: 2017-07-10 18:49:46 +0000, !- Name\n   ** Warning ** IP: IDF line~6 Alpha Argument length exceeds maximum, will be truncated=  NECB 2011-SmallHotel-NECB HDD Method-CAN_NF_Gander.718030_CWEC.epw created: 2017-07-10 18:49:46 +000\n   **   ~~~   ** Will be processed as Alpha=NECB 2011-SMALLHOTEL-NECB HDD METHOD-CAN_NF_GANDER.718030_CWEC.EPW CREATED: 2017-07-10 18:49:46 +0000\n   ************* Beginning Zone Sizing Calculations\n   ** Warning ** ProcessScheduleInput: Schedule:Day:Interval=\"ECONOMIZER MAX OA FRACTION 100 PCT DEFAULT\", Blank Schedule Type Limits Name input -- will not be validated.\n   ** Warning ** ProcessScheduleInput: Schedule:Day:Interval=\"SCHEDULE DAY 1\", Blank Schedule Type Limits Name input -- will not be validated.\n   ** Warning ** ProcessScheduleInput: Schedule:Day:Interval=\"SCHEDULE DAY 10\", Blank Schedule Type Limits Name input -- will not be validated.\n   ** Warning ** ProcessScheduleInput: Schedule:Day:Interval=\"SCHEDULE DAY 100\", Blank Schedule Type Limits Name input -- will not be validated.\n   ** Warning ** ProcessScheduleInput: Schedule:Day:Interval=\"SCHEDULE DAY 101\", Blank Schedule Type Limits Name input -- will not be validated.\n   ** Warning ** ProcessScheduleInput: Schedule:Day:Interval=\"SCHEDULE DAY 102\", Blank Schedule Type Limits Name input -- will not be validated.\n   ** Warning ** ProcessScheduleInput: Schedule:Day:Interval=\"SCHEDULE DAY 103\", Blank Schedule Type Limits Name input -- will not be validated.\n   ** Warning ** ProcessScheduleInput: Schedule:Day:Interval=\"SCHEDULE DAY 104\", Blank Schedule Type Limits Name input -- will not be validated.\n   ** Warning ** ProcessScheduleInput: Schedule:Day:Interval=\"SCHEDULE DAY 105\", Blank Schedule Type Limits Name input -- will not be validated.\n   ** Warning ** ProcessScheduleInput: Schedule:Day:Interval=\"SCHEDULE DAY 106\", Blank Schedule Type Limits Name input -- will not be validated.\n   ** Warning ** ProcessScheduleInput: Schedule:Day:Interval=\"SCHEDULE DAY 107\", Blank Schedule Type Limits Name input -- will not be validated.\n   ** Warning ** ProcessScheduleInput: Schedule:Day:Interval=\"SCHEDULE DAY 108\", Blank Schedule Type Limits Name input -- will not be validated.\n   ** Warning ** ProcessScheduleInput: Schedule:Day:Interval=\"SCHEDULE DAY 109\", Blank Schedule Type Limits Name input -- will not be validated.\n   ** Warning ** ProcessScheduleInput: Schedule:Day:Interval=\"SCHEDULE DAY 11\", Blank Schedule Type Limits Name input -- will not be validated.\n   ** Warning ** ProcessScheduleInput: Schedule:Day:Interval=\"SCHEDULE DAY 110\", Blank Schedule Type Limits Name input -- will not be validated.\n   ** Warning ** ProcessScheduleInput: Schedule:Day:Interval=\"SCHEDULE DAY 111\", Blank Schedule Type Limits Name input -- will not be validated.\n   ** Warning ** ProcessScheduleInput: Schedule:Day:Interval=\"SCHEDULE DAY 112\", Blank Schedule Type Limits Name input -- will not be validated.\n   ** Warning ** ProcessScheduleInput: Schedule:Day:Interval=\"SCHEDULE DAY 113\", Blank Schedule Type Limits Name input -- will not be validated.\n   ** Warning ** ProcessScheduleInput: Schedule:Day:Interval=\"SCHEDULE DAY 114\", Blank Schedule Type Limits Name input -- will not be validated.\n   ** Warning ** ProcessScheduleInput: Schedule:Day:Interval=\"SCHEDULE DAY 115\", Blank Schedule Type Limits Name input -- will not be validated.\n   ** Warning ** ProcessScheduleInput: Schedule:Day:Interval=\"SCHEDULE DAY 116\", Blank Schedule Type Limits Name input -- will not be validated.\n   ** Warning ** ProcessScheduleInput: Schedule:Day:Interval=\"SCHEDULE DAY 117\", Blank Schedule Type Limits Name input -- will not be validated.\n   ** Warning ** ProcessScheduleInput: Schedule:Day:Interval=\"SCHEDULE DAY 118\", Blank Schedule Type Limits Name input -- will not be validated.\n   ** Warning ** ProcessScheduleInput: Schedule:Day:Interval=\"SCHEDULE DAY 119\", Blank Schedule Type Limits Name input -- will not be validated.\n   ** Warning ** ProcessScheduleInput: Schedule:Day:Interval=\"SCHEDULE DAY 12\", Blank Schedule Type Limits Name input -- will not be validated.\n   ** Warning ** ProcessScheduleInput: Schedule:Day:Interval=\"SCHEDULE DAY 120\", Blank Schedule Type Limits Name input -- will not be validated.\n   ** Warning ** ProcessScheduleInput: Schedule:Day:Interval=\"SCHEDULE DAY 121\", Blank Schedule Type Limits Name input -- will not be validated.\n   ** Warning ** ProcessScheduleInput: Schedule:Day:Interval=\"SCHEDULE DAY 122\", Blank Schedule Type Limits Name input -- will not be validated.\n   ** Warning ** ProcessScheduleInput: Schedule:Day:Interval=\"SCHEDULE DAY 123\", Blank Schedule Type Limits Name input -- will not be validated.\n   ** Warning ** ProcessScheduleInput: Schedule:Day:Interval=\"SCHEDULE DAY 124\", Blank Schedule Type Limits Name input -- will not be validated.\n   ** Warning ** ProcessScheduleInput: Schedule:Day:Interval=\"SCHEDULE DAY 125\", Blank Schedule Type Limits Name input -- will not be validated.\n   ** Warning ** ProcessScheduleInput: Schedule:Day:Interval=\"SCHEDULE DAY 126\", Blank Schedule Type Limits Name input -- will not be validated.\n   ** Warning ** ProcessScheduleInput: Schedule:Day:Interval=\"SCHEDULE DAY 127\", Blank Schedule Type Limits Name input -- will not be validated.\n   ** Warning ** ProcessScheduleInput: Schedule:Day:Interval=\"SCHEDULE DAY 128\", Blank Schedule Type Limits Name input -- will not be validated.\n   ** Warning ** ProcessScheduleInput: Schedule:Day:Interval=\"SCHEDULE DAY 129\", Blank Schedule Type Limits Name input -- will not be validated.\n   ** Warning ** ProcessScheduleInput: Schedule:Day:Interval=\"SCHEDULE DAY 13\", Blank Schedule Type Limits Name input -- will not be validated.\n   ** Warning ** ProcessScheduleInput: Schedule:Day:Interval=\"SCHEDULE DAY 130\", Blank Schedule Type Limits Name input -- will not be validated.\n   ** Warning ** ProcessScheduleInput: Schedule:Day:Interval=\"SCHEDULE DAY 131\", Blank Schedule Type Limits Name input -- will not be validated.\n   ** Warning ** ProcessScheduleInput: Schedule:Day:Interval=\"SCHEDULE DAY 132\", Blank Schedule Type Limits Name input -- will not be validated.\n   ** Warning ** ProcessScheduleInput: Schedule:Day:Interval=\"SCHEDULE DAY 133\", Blank Schedule Type Limits Name input -- will not be validated.\n   ** Warning ** ProcessScheduleInput: Schedule:Day:Interval=\"SCHEDULE DAY 134\", Blank Schedule Type Limits Name input -- will not be validated.\n   ** Warning ** ProcessScheduleInput: Schedule:Day:Interval=\"SCHEDULE DAY 135\", Blank Schedule Type Limits Name input -- will not be validated.\n   ** Warning ** ProcessScheduleInput: Schedule:Day:Interval=\"SCHEDULE DAY 136\", Blank Schedule Type Limits Name input -- will not be validated.\n   ** Warning ** ProcessScheduleInput: Schedule:Day:Interval=\"SCHEDULE DAY 137\", Blank Schedule Type Limits Name input -- will not be validated.\n   ** Warning ** ProcessScheduleInput: Schedule:Day:Interval=\"SCHEDULE DAY 138\", Blank Schedule Type Limits Name input -- will not be validated.\n   ** Warning ** ProcessScheduleInput: Schedule:Day:Interval=\"SCHEDULE DAY 139\", Blank Schedule Type Limits Name input -- will not be validated.\n   ** Warning ** ProcessScheduleInput: Schedule:Day:Interval=\"SCHEDULE DAY 14\", Blank Schedule Type Limits Name input -- will not be validated.\n   ** Warning ** ProcessScheduleInput: Schedule:Day:Interval=\"SCHEDULE DAY 140\", Blank Schedule Type Limits Name input -- will not be validated.\n   ** Warning ** ProcessScheduleInput: Schedule:Day:Interval=\"SCHEDULE DAY 141\", Blank Schedule Type Limits Name input -- will not be validated.\n   ** Warning ** ProcessScheduleInput: Schedule:Day:Interval=\"SCHEDULE DAY 142\", Blank Schedule Type Limits Name input -- will not be validated.\n   ** Warning ** ProcessScheduleInput: Schedule:Day:Interval=\"SCHEDULE DAY 143\", Blank Schedule Type Limits Name input -- will not be validated.\n   ** Warning ** ProcessScheduleInput: Schedule:Day:Interval=\"SCHEDULE DAY 144\", Blank Schedule Type Limits Name input -- will not be validated.\n   ** Warning ** ProcessScheduleInput: Schedule:Day:Interval=\"SCHEDULE DAY 145\", Blank Schedule Type Limits Name input -- will not be validated.\n   ** Warning ** ProcessScheduleInput: Schedule:Day:Interval=\"SCHEDULE DAY 146\", Blank Schedule Type Limits Name input -- will not be validated.\n   ** Warning ** ProcessScheduleInput: Schedule:Day:Interval=\"SCHEDULE DAY 147\", Blank Schedule Type Limits Name input -- will not be validated.\n   ** Warning ** ProcessScheduleInput: Schedule:Day:Interval=\"SCHEDULE DAY 148\", Blank Schedule Type Limits Name input -- will not be validated.\n   ** Warning ** ProcessScheduleInput: Schedule:Day:Interval=\"SCHEDULE DAY 149\", Blank Schedule Type Limits Name input -- will not be validated.\n   ** Warning ** ProcessScheduleInput: Schedule:Day:Interval=\"SCHEDULE DAY 15\", Blank Schedule Type Limits Name input -- will not be validated.\n   ** Warning ** ProcessScheduleInput: Schedule:Day:Interval=\"SCHEDULE DAY 150\", Blank Schedule Type Limits Name input -- will not be validated.\n   ** Warning ** ProcessScheduleInput: Schedule:Day:Interval=\"SCHEDULE DAY 151\", Blank Schedule Type Limits Name input -- will not be validated.\n   ** Warning ** ProcessScheduleInput: Schedule:Day:Interval=\"SCHEDULE DAY 152\", Blank Schedule Type Limits Name input -- will not be validated.\n   ** Warning ** ProcessScheduleInput: Schedule:Day:Interval=\"SCHEDULE DAY 153\", Blank Schedule Type Limits Name input -- will not be validated.\n   ** Warning ** ProcessScheduleInput: Schedule:Day:Interval=\"SCHEDULE DAY 154\", Blank Schedule Type Limits Name input -- will not be validated.\n   ** Warning ** ProcessScheduleInput: Schedule:Day:Interval=\"SCHEDULE DAY 155\", Blank Schedule Type Limits Name input -- will not be validated.\n   ** Warning ** ProcessScheduleInput: Schedule:Day:Interval=\"SCHEDULE DAY 16\", Blank Schedule Type Limits Name input -- will not be validated.\n   ** Warning ** ProcessScheduleInput: Schedule:Day:Interval=\"SCHEDULE DAY 17\", Blank Schedule Type Limits Name input -- will not be validated.\n   ** Warning ** ProcessScheduleInput: Schedule:Day:Interval=\"SCHEDULE DAY 18\", Blank Schedule Type Limits Name input -- will not be validated.\n   ** Warning ** ProcessScheduleInput: Schedule:Day:Interval=\"SCHEDULE DAY 19\", Blank Schedule Type Limits Name input -- will not be validated.\n   ** Warning ** ProcessScheduleInput: Schedule:Day:Interval=\"SCHEDULE DAY 2\", Blank Schedule Type Limits Name input -- will not be validated.\n   ** Warning ** ProcessScheduleInput: Schedule:Day:Interval=\"SCHEDULE DAY 20\", Blank Schedule Type Limits Name input -- will not be validated.\n   ** Warning ** ProcessScheduleInput: Schedule:Day:Interval=\"SCHEDULE DAY 21\", Blank Schedule Type Limits Name input -- will not be validated.\n   ** Warning ** ProcessScheduleInput: Schedule:Day:Interval=\"SCHEDULE DAY 22\", Blank Schedule Type Limits Name input -- will not be validated.\n   ** Warning ** ProcessScheduleInput: Schedule:Day:Interval=\"SCHEDULE DAY 23\", Blank Schedule Type Limits Name input -- will not be validated.\n   ** Warning ** ProcessScheduleInput: Schedule:Day:Interval=\"SCHEDULE DAY 24\", Blank Schedule Type Limits Name input -- will not be validated.\n   ** Warning ** ProcessScheduleInput: Schedule:Day:Interval=\"SCHEDULE DAY 25\", Blank Schedule Type Limits Name input -- will not be validated.\n   ** Warning ** ProcessScheduleInput: Schedule:Day:Interval=\"SCHEDULE DAY 26\", Blank Schedule Type Limits Name input -- will not be validated.\n   ** Warning ** ProcessScheduleInput: Schedule:Day:Interval=\"SCHEDULE DAY 27\", Blank Schedule Type Limits Name input -- will not be validated.\n   ** Warning ** ProcessScheduleInput: Schedule:Day:Interval=\"SCHEDULE DAY 28\", Blank Schedule Type Limits Name input -- will not be validated.\n   ** Warning ** ProcessScheduleInput: Schedule:Day:Interval=\"SCHEDULE DAY 29\", Blank Schedule Type Limits Name input -- will not be validated.\n   ** Warning ** ProcessScheduleInput: Schedule:Day:Interval=\"SCHEDULE DAY 30\", Blank Schedule Type Limits Name input -- will not be validated.\n   ** Warning ** ProcessScheduleInput: Schedule:Day:Interval=\"SCHEDULE DAY 31\", Blank Schedule Type Limits Name input -- will not be validated.\n   ** Warning ** ProcessScheduleInput: Schedule:Day:Interval=\"SCHEDULE DAY 32\", Blank Schedule Type Limits Name input -- will not be validated.\n   ** Warning ** ProcessScheduleInput: Schedule:Day:Interval=\"SCHEDULE DAY 33\", Blank Schedule Type Limits Name input -- will not be validated.\n   ** Warning ** ProcessScheduleInput: Schedule:Day:Interval=\"SCHEDULE DAY 34\", Blank Schedule Type Limits Name input -- will not be validated.\n   ** Warning ** ProcessScheduleInput: Schedule:Day:Interval=\"SCHEDULE DAY 35\", Blank Schedule Type Limits Name input -- will not be validated.\n   ** Warning ** ProcessScheduleInput: Schedule:Day:Interval=\"SCHEDULE DAY 36\", Blank Schedule Type Limits Name input -- will not be validated.\n   ** Warning ** ProcessScheduleInput: Schedule:Day:Interval=\"SCHEDULE DAY 37\", Blank Schedule Type Limits Name input -- will not be validated.\n   ** Warning ** ProcessScheduleInput: Schedule:Day:Interval=\"SCHEDULE DAY 38\", Blank Schedule Type Limits Name input -- will not be validated.\n   ** Warning ** ProcessScheduleInput: Schedule:Day:Interval=\"SCHEDULE DAY 39\", Blank Schedule Type Limits Name input -- will not be validated.\n   ** Warning ** ProcessScheduleInput: Schedule:Day:Interval=\"SCHEDULE DAY 40\", Blank Schedule Type Limits Name input -- will not be validated.\n   ** Warning ** ProcessScheduleInput: Schedule:Day:Interval=\"SCHEDULE DAY 41\", Blank Schedule Type Limits Name input -- will not be validated.\n   ** Warning ** ProcessScheduleInput: Schedule:Day:Interval=\"SCHEDULE DAY 42\", Blank Schedule Type Limits Name input -- will not be validated.\n   ** Warning ** ProcessScheduleInput: Schedule:Day:Interval=\"SCHEDULE DAY 43\", Blank Schedule Type Limits Name input -- will not be validated.\n   ** Warning ** ProcessScheduleInput: Schedule:Day:Interval=\"SCHEDULE DAY 44\", Blank Schedule Type Limits Name input -- will not be validated.\n   ** Warning ** ProcessScheduleInput: Schedule:Day:Interval=\"SCHEDULE DAY 45\", Blank Schedule Type Limits Name input -- will not be validated.\n   ** Warning ** ProcessScheduleInput: Schedule:Day:Interval=\"SCHEDULE DAY 46\", Blank Schedule Type Limits Name input -- will not be validated.\n   ** Warning ** ProcessScheduleInput: Schedule:Day:Interval=\"SCHEDULE DAY 47\", Blank Schedule Type Limits Name input -- will not be validated.\n   ** Warning ** ProcessScheduleInput: Schedule:Day:Interval=\"SCHEDULE DAY 48\", Blank Schedule Type Limits Name input -- will not be validated.\n   ** Warning ** ProcessScheduleInput: Schedule:Day:Interval=\"SCHEDULE DAY 49\", Blank Schedule Type Limits Name input -- will not be validated.\n   ** Warning ** ProcessScheduleInput: Schedule:Day:Interval=\"SCHEDULE DAY 50\", Blank Schedule Type Limits Name input -- will not be validated.\n   ** Warning ** ProcessScheduleInput: Schedule:Day:Interval=\"SCHEDULE DAY 51\", Blank Schedule Type Limits Name input -- will not be validated.\n   ** Warning ** ProcessScheduleInput: Schedule:Day:Interval=\"SCHEDULE DAY 52\", Blank Schedule Type Limits Name input -- will not be validated.\n   ** Warning ** ProcessScheduleInput: Schedule:Day:Interval=\"SCHEDULE DAY 53\", Blank Schedule Type Limits Name input -- will not be validated.\n   ** Warning ** ProcessScheduleInput: Schedule:Day:Interval=\"SCHEDULE DAY 54\", Blank Schedule Type Limits Name input -- will not be validated.\n   ** Warning ** ProcessScheduleInput: Schedule:Day:Interval=\"SCHEDULE DAY 55\", Blank Schedule Type Limits Name input -- will not be validated.\n   ** Warning ** ProcessScheduleInput: Schedule:Day:Interval=\"SCHEDULE DAY 56\", Blank Schedule Type Limits Name input -- will not be validated.\n   ** Warning ** ProcessScheduleInput: Schedule:Day:Interval=\"SCHEDULE DAY 57\", Blank Schedule Type Limits Name input -- will not be validated.\n   ** Warning ** ProcessScheduleInput: Schedule:Day:Interval=\"SCHEDULE DAY 58\", Blank Schedule Type Limits Name input -- will not be validated.\n   ** Warning ** ProcessScheduleInput: Schedule:Day:Interval=\"SCHEDULE DAY 59\", Blank Schedule Type Limits Name input -- will not be validated.\n   ** Warning ** ProcessScheduleInput: Schedule:Day:Interval=\"SCHEDULE DAY 60\", Blank Schedule Type Limits Name input -- will not be validated.\n   ** Warning ** ProcessScheduleInput: Schedule:Day:Interval=\"SCHEDULE DAY 61\", Blank Schedule Type Limits Name input -- will not be validated.\n   ** Warning ** ProcessScheduleInput: Schedule:Day:Interval=\"SCHEDULE DAY 62\", Blank Schedule Type Limits Name input -- will not be validated.\n   ** Warning ** ProcessScheduleInput: Schedule:Day:Interval=\"SCHEDULE DAY 63\", Blank Schedule Type Limits Name input -- will not be validated.\n   ** Warning ** ProcessScheduleInput: Schedule:Day:Interval=\"SCHEDULE DAY 64\", Blank Schedule Type Limits Name input -- will not be validated.\n   ** Warning ** ProcessScheduleInput: Schedule:Day:Interval=\"SCHEDULE DAY 65\", Blank Schedule Type Limits Name input -- will not be validated.\n   ** Warning ** ProcessScheduleInput: Schedule:Day:Interval=\"SCHEDULE DAY 66\", Blank Schedule Type Limits Name input -- will not be validated.\n   ** Warning ** ProcessScheduleInput: Schedule:Day:Interval=\"SCHEDULE DAY 67\", Blank Schedule Type Limits Name input -- will not be validated.\n   ** Warning ** ProcessScheduleInput: Schedule:Day:Interval=\"SCHEDULE DAY 68\", Blank Schedule Type Limits Name input -- will not be validated.\n   ** Warning ** ProcessScheduleInput: Schedule:Day:Interval=\"SCHEDULE DAY 69\", Blank Schedule Type Limits Name input -- will not be validated.\n   ** Warning ** ProcessScheduleInput: Schedule:Day:Interval=\"SCHEDULE DAY 70\", Blank Schedule Type Limits Name input -- will not be validated.\n   ** Warning ** ProcessScheduleInput: Schedule:Day:Interval=\"SCHEDULE DAY 71\", Blank Schedule Type Limits Name input -- will not be validated.\n   ** Warning ** ProcessScheduleInput: Schedule:Day:Interval=\"SCHEDULE DAY 72\", Blank Schedule Type Limits Name input -- will not be validated.\n   ** Warning ** ProcessScheduleInput: Schedule:Day:Interval=\"SCHEDULE DAY 73\", Blank Schedule Type Limits Name input -- will not be validated.\n   ** Warning ** ProcessScheduleInput: Schedule:Day:Interval=\"SCHEDULE DAY 74\", Blank Schedule Type Limits Name input -- will not be validated.\n   ** Warning ** ProcessScheduleInput: Schedule:Day:Interval=\"SCHEDULE DAY 75\", Blank Schedule Type Limits Name input -- will not be validated.\n   ** Warning ** ProcessScheduleInput: Schedule:Day:Interval=\"SCHEDULE DAY 76\", Blank Schedule Type Limits Name input -- will not be validated.\n   ** Warning ** ProcessScheduleInput: Schedule:Day:Interval=\"SCHEDULE DAY 77\", Blank Schedule Type Limits Name input -- will not be validated.\n   ** Warning ** ProcessScheduleInput: Schedule:Day:Interval=\"SCHEDULE DAY 78\", Blank Schedule Type Limits Name input -- will not be validated.\n   ** Warning ** ProcessScheduleInput: Schedule:Day:Interval=\"SCHEDULE DAY 79\", Blank Schedule Type Limits Name input -- will not be validated.\n   ** Warning ** ProcessScheduleInput: Schedule:Day:Interval=\"SCHEDULE DAY 8\", Blank Schedule Type Limits Name input -- will not be validated.\n   ** Warning ** ProcessScheduleInput: Schedule:Day:Interval=\"SCHEDULE DAY 80\", Blank Schedule Type Limits Name input -- will not be validated.\n   ** Warning ** ProcessScheduleInput: Schedule:Day:Interval=\"SCHEDULE DAY 81\", Blank Schedule Type Limits Name input -- will not be validated.\n   ** Warning ** ProcessScheduleInput: Schedule:Day:Interval=\"SCHEDULE DAY 82\", Blank Schedule Type Limits Name input -- will not be validated.\n   ** Warning ** ProcessScheduleInput: Schedule:Day:Interval=\"SCHEDULE DAY 83\", Blank Schedule Type Limits Name input -- will not be validated.\n   ** Warning ** ProcessScheduleInput: Schedule:Day:Interval=\"SCHEDULE DAY 84\", Blank Schedule Type Limits Name input -- will not be validated.\n   ** Warning ** ProcessScheduleInput: Schedule:Day:Interval=\"SCHEDULE DAY 85\", Blank Schedule Type Limits Name input -- will not be validated.\n   ** Warning ** ProcessScheduleInput: Schedule:Day:Interval=\"SCHEDULE DAY 86\", Blank Schedule Type Limits Name input -- will not be validated.\n   ** Warning ** ProcessScheduleInput: Schedule:Day:Interval=\"SCHEDULE DAY 87\", Blank Schedule Type Limits Name input -- will not be validated.\n   ** Warning ** ProcessScheduleInput: Schedule:Day:Interval=\"SCHEDULE DAY 88\", Blank Schedule Type Limits Name input -- will not be validated.\n   ** Warning ** ProcessScheduleInput: Schedule:Day:Interval=\"SCHEDULE DAY 89\", Blank Schedule Type Limits Name input -- will not be validated.\n   ** Warning ** ProcessScheduleInput: Schedule:Day:Interval=\"SCHEDULE DAY 9\", Blank Schedule Type Limits Name input -- will not be validated.\n   ** Warning ** ProcessScheduleInput: Schedule:Day:Interval=\"SCHEDULE DAY 90\", Blank Schedule Type Limits Name input -- will not be validated.\n   ** Warning ** ProcessScheduleInput: Schedule:Day:Interval=\"SCHEDULE DAY 91\", Blank Schedule Type Limits Name input -- will not be validated.\n   ** Warning ** ProcessScheduleInput: Schedule:Day:Interval=\"SCHEDULE DAY 92\", Blank Schedule Type Limits Name input -- will not be validated.\n   ** Warning ** ProcessScheduleInput: Schedule:Day:Interval=\"SCHEDULE DAY 93\", Blank Schedule Type Limits Name input -- will not be validated.\n   ** Warning ** ProcessScheduleInput: Schedule:Day:Interval=\"SCHEDULE DAY 94\", Blank Schedule Type Limits Name input -- will not be validated.\n   ** Warning ** ProcessScheduleInput: Schedule:Day:Interval=\"SCHEDULE DAY 95\", Blank Schedule Type Limits Name input -- will not be validated.\n   ** Warning ** ProcessScheduleInput: Schedule:Day:Interval=\"SCHEDULE DAY 96\", Blank Schedule Type Limits Name input -- will not be validated.\n   ** Warning ** ProcessScheduleInput: Schedule:Day:Interval=\"SCHEDULE DAY 97\", Blank Schedule Type Limits Name input -- will not be validated.\n   ** Warning ** ProcessScheduleInput: Schedule:Day:Interval=\"SCHEDULE DAY 98\", Blank Schedule Type Limits Name input -- will not be validated.\n   ** Warning ** ProcessScheduleInput: Schedule:Day:Interval=\"SCHEDULE DAY 99\", Blank Schedule Type Limits Name input -- will not be validated.\n   ** Warning ** ProcessScheduleInput: Schedule:Year=\"ECONOMIZER MAX OA FRACTION 100 PCT\", Blank Schedule Type Limits Name input -- will not be validated.\n   ** Warning ** ProcessScheduleInput: Schedule:Year=\"SCHEDULE RULESET 10\", Blank Schedule Type Limits Name input -- will not be validated.\n   ** Warning ** ProcessScheduleInput: Schedule:Year=\"SCHEDULE RULESET 100\", Blank Schedule Type Limits Name input -- will not be validated.\n   ** Warning ** ProcessScheduleInput: Schedule:Year=\"SCHEDULE RULESET 101\", Blank Schedule Type Limits Name input -- will not be validated.\n   ** Warning ** ProcessScheduleInput: Schedule:Year=\"SCHEDULE RULESET 102\", Blank Schedule Type Limits Name input -- will not be validated.\n   ** Warning ** ProcessScheduleInput: Schedule:Year=\"SCHEDULE RULESET 103\", Blank Schedule Type Limits Name input -- will not be validated.\n   ** Warning ** ProcessScheduleInput: Schedule:Year=\"SCHEDULE RULESET 104\", Blank Schedule Type Limits Name input -- will not be validated.\n   ** Warning ** ProcessScheduleInput: Schedule:Year=\"SCHEDULE RULESET 105\", Blank Schedule Type Limits Name input -- will not be validated.\n   ** Warning ** ProcessScheduleInput: Schedule:Year=\"SCHEDULE RULESET 106\", Blank Schedule Type Limits Name input -- will not be validated.\n   ** Warning ** ProcessScheduleInput: Schedule:Year=\"SCHEDULE RULESET 107\", Blank Schedule Type Limits Name input -- will not be validated.\n   ** Warning ** ProcessScheduleInput: Schedule:Year=\"SCHEDULE RULESET 108\", Blank Schedule Type Limits Name input -- will not be validated.\n   ** Warning ** ProcessScheduleInput: Schedule:Year=\"SCHEDULE RULESET 109\", Blank Schedule Type Limits Name input -- will not be validated.\n   ** Warning ** ProcessScheduleInput: Schedule:Year=\"SCHEDULE RULESET 11\", Blank Schedule Type Limits Name input -- will not be validated.\n   ** Warning ** ProcessScheduleInput: Schedule:Year=\"SCHEDULE RULESET 110\", Blank Schedule Type Limits Name input -- will not be validated.\n   ** Warning ** ProcessScheduleInput: Schedule:Year=\"SCHEDULE RULESET 111\", Blank Schedule Type Limits Name input -- will not be validated.\n   ** Warning ** ProcessScheduleInput: Schedule:Year=\"SCHEDULE RULESET 112\", Blank Schedule Type Limits Name input -- will not be validated.\n   ** Warning ** ProcessScheduleInput: Schedule:Year=\"SCHEDULE RULESET 113\", Blank Schedule Type Limits Name input -- will not be validated.\n   ** Warning ** ProcessScheduleInput: Schedule:Year=\"SCHEDULE RULESET 114\", Blank Schedule Type Limits Name input -- will not be validated.\n   ** Warning ** ProcessScheduleInput: Schedule:Year=\"SCHEDULE RULESET 115\", Blank Schedule Type Limits Name input -- will not be validated.\n   ** Warning ** ProcessScheduleInput: Schedule:Year=\"SCHEDULE RULESET 116\", Blank Schedule Type Limits Name input -- will not be validated.\n   ** Warning ** ProcessScheduleInput: Schedule:Year=\"SCHEDULE RULESET 117\", Blank Schedule Type Limits Name input -- will not be validated.\n   ** Warning ** ProcessScheduleInput: Schedule:Year=\"SCHEDULE RULESET 118\", Blank Schedule Type Limits Name input -- will not be validated.\n   ** Warning ** ProcessScheduleInput: Schedule:Year=\"SCHEDULE RULESET 119\", Blank Schedule Type Limits Name input -- will not be validated.\n   ** Warning ** ProcessScheduleInput: Schedule:Year=\"SCHEDULE RULESET 12\", Blank Schedule Type Limits Name input -- will not be validated.\n   ** Warning ** ProcessScheduleInput: Schedule:Year=\"SCHEDULE RULESET 120\", Blank Schedule Type Limits Name input -- will not be validated.\n   ** Warning ** ProcessScheduleInput: Schedule:Year=\"SCHEDULE RULESET 121\", Blank Schedule Type Limits Name input -- will not be validated.\n   ** Warning ** ProcessScheduleInput: Schedule:Year=\"SCHEDULE RULESET 122\", Blank Schedule Type Limits Name input -- will not be validated.\n   ** Warning ** ProcessScheduleInput: Schedule:Year=\"SCHEDULE RULESET 123\", Blank Schedule Type Limits Name input -- will not be validated.\n   ** Warning ** ProcessScheduleInput: Schedule:Year=\"SCHEDULE RULESET 124\", Blank Schedule Type Limits Name input -- will not be validated.\n   ** Warning ** ProcessScheduleInput: Schedule:Year=\"SCHEDULE RULESET 125\", Blank Schedule Type Limits Name input -- will not be validated.\n   ** Warning ** ProcessScheduleInput: Schedule:Year=\"SCHEDULE RULESET 126\", Blank Schedule Type Limits Name input -- will not be validated.\n   ** Warning ** ProcessScheduleInput: Schedule:Year=\"SCHEDULE RULESET 127\", Blank Schedule Type Limits Name input -- will not be validated.\n   ** Warning ** ProcessScheduleInput: Schedule:Year=\"SCHEDULE RULESET 128\", Blank Schedule Type Limits Name input -- will not be validated.\n   ** Warning ** ProcessScheduleInput: Schedule:Year=\"SCHEDULE RULESET 129\", Blank Schedule Type Limits Name input -- will not be validated.\n   ** Warning ** ProcessScheduleInput: Schedule:Year=\"SCHEDULE RULESET 13\", Blank Schedule Type Limits Name input -- will not be validated.\n   ** Warning ** ProcessScheduleInput: Schedule:Year=\"SCHEDULE RULESET 130\", Blank Schedule Type Limits Name input -- will not be validated.\n   ** Warning ** ProcessScheduleInput: Schedule:Year=\"SCHEDULE RULESET 131\", Blank Schedule Type Limits Name input -- will not be validated.\n   ** Warning ** ProcessScheduleInput: Schedule:Year=\"SCHEDULE RULESET 132\", Blank Schedule Type Limits Name input -- will not be validated.\n   ** Warning ** ProcessScheduleInput: Schedule:Year=\"SCHEDULE RULESET 133\", Blank Schedule Type Limits Name input -- will not be validated.\n   ** Warning ** ProcessScheduleInput: Schedule:Year=\"SCHEDULE RULESET 134\", Blank Schedule Type Limits Name input -- will not be validated.\n   ** Warning ** ProcessScheduleInput: Schedule:Year=\"SCHEDULE RULESET 135\", Blank Schedule Type Limits Name input -- will not be validated.\n   ** Warning ** ProcessScheduleInput: Schedule:Year=\"SCHEDULE RULESET 136\", Blank Schedule Type Limits Name input -- will not be validated.\n   ** Warning ** ProcessScheduleInput: Schedule:Year=\"SCHEDULE RULESET 137\", Blank Schedule Type Limits Name input -- will not be validated.\n   ** Warning ** ProcessScheduleInput: Schedule:Year=\"SCHEDULE RULESET 138\", Blank Schedule Type Limits Name input -- will not be validated.\n   ** Warning ** ProcessScheduleInput: Schedule:Year=\"SCHEDULE RULESET 139\", Blank Schedule Type Limits Name input -- will not be validated.\n   ** Warning ** ProcessScheduleInput: Schedule:Year=\"SCHEDULE RULESET 14\", Blank Schedule Type Limits Name input -- will not be validated.\n   ** Warning ** ProcessScheduleInput: Schedule:Year=\"SCHEDULE RULESET 140\", Blank Schedule Type Limits Name input -- will not be validated.\n   ** Warning ** ProcessScheduleInput: Schedule:Year=\"SCHEDULE RULESET 141\", Blank Schedule Type Limits Name input -- will not be validated.\n   ** Warning ** ProcessScheduleInput: Schedule:Year=\"SCHEDULE RULESET 142\", Blank Schedule Type Limits Name input -- will not be validated.\n   ** Warning ** ProcessScheduleInput: Schedule:Year=\"SCHEDULE RULESET 143\", Blank Schedule Type Limits Name input -- will not be validated.\n   ** Warning ** ProcessScheduleInput: Schedule:Year=\"SCHEDULE RULESET 144\", Blank Schedule Type Limits Name input -- will not be validated.\n   ** Warning ** ProcessScheduleInput: Schedule:Year=\"SCHEDULE RULESET 145\", Blank Schedule Type Limits Name input -- will not be validated.\n   ** Warning ** ProcessScheduleInput: Schedule:Year=\"SCHEDULE RULESET 146\", Blank Schedule Type Limits Name input -- will not be validated.\n   ** Warning ** ProcessScheduleInput: Schedule:Year=\"SCHEDULE RULESET 15\", Blank Schedule Type Limits Name input -- will not be validated.\n   ** Warning ** ProcessScheduleInput: Schedule:Year=\"SCHEDULE RULESET 16\", Blank Schedule Type Limits Name input -- will not be validated.\n   ** Warning ** ProcessScheduleInput: Schedule:Year=\"SCHEDULE RULESET 17\", Blank Schedule Type Limits Name input -- will not be validated.\n   ** Warning ** ProcessScheduleInput: Schedule:Year=\"SCHEDULE RULESET 18\", Blank Schedule Type Limits Name input -- will not be validated.\n   ** Warning ** ProcessScheduleInput: Schedule:Year=\"SCHEDULE RULESET 19\", Blank Schedule Type Limits Name input -- will not be validated.\n   ** Warning ** ProcessScheduleInput: Schedule:Year=\"SCHEDULE RULESET 20\", Blank Schedule Type Limits Name input -- will not be validated.\n   ** Warning ** ProcessScheduleInput: Schedule:Year=\"SCHEDULE RULESET 21\", Blank Schedule Type Limits Name input -- will not be validated.\n   ** Warning ** ProcessScheduleInput: Schedule:Year=\"SCHEDULE RULESET 22\", Blank Schedule Type Limits Name input -- will not be validated.\n   ** Warning ** ProcessScheduleInput: Schedule:Year=\"SCHEDULE RULESET 23\", Blank Schedule Type Limits Name input -- will not be validated.\n   ** Warning ** ProcessScheduleInput: Schedule:Year=\"SCHEDULE RULESET 24\", Blank Schedule Type Limits Name input -- will not be validated.\n   ** Warning ** ProcessScheduleInput: Schedule:Year=\"SCHEDULE RULESET 25\", Blank Schedule Type Limits Name input -- will not be validated.\n   ** Warning ** ProcessScheduleInput: Schedule:Year=\"SCHEDULE RULESET 26\", Blank Schedule Type Limits Name input -- will not be validated.\n   ** Warning ** ProcessScheduleInput: Schedule:Year=\"SCHEDULE RULESET 27\", Blank Schedule Type Limits Name input -- will not be validated.\n   ** Warning ** ProcessScheduleInput: Schedule:Year=\"SCHEDULE RULESET 28\", Blank Schedule Type Limits Name input -- will not be validated.\n   ** Warning ** ProcessScheduleInput: Schedule:Year=\"SCHEDULE RULESET 29\", Blank Schedule Type Limits Name input -- will not be validated.\n   ** Warning ** ProcessScheduleInput: Schedule:Year=\"SCHEDULE RULESET 3\", Blank Schedule Type Limits Name input -- will not be validated.\n   ** Warning ** ProcessScheduleInput: Schedule:Year=\"SCHEDULE RULESET 30\", Blank Schedule Type Limits Name input -- will not be validated.\n   ** Warning ** ProcessScheduleInput: Schedule:Year=\"SCHEDULE RULESET 31\", Blank Schedule Type Limits Name input -- will not be validated.\n   ** Warning ** ProcessScheduleInput: Schedule:Year=\"SCHEDULE RULESET 32\", Blank Schedule Type Limits Name input -- will not be validated.\n   ** Warning ** ProcessScheduleInput: Schedule:Year=\"SCHEDULE RULESET 33\", Blank Schedule Type Limits Name input -- will not be validated.\n   ** Warning ** ProcessScheduleInput: Schedule:Year=\"SCHEDULE RULESET 34\", Blank Schedule Type Limits Name input -- will not be validated.\n   ** Warning ** ProcessScheduleInput: Schedule:Year=\"SCHEDULE RULESET 35\", Blank Schedule Type Limits Name input -- will not be validated.\n   ** Warning ** ProcessScheduleInput: Schedule:Year=\"SCHEDULE RULESET 36\", Blank Schedule Type Limits Name input -- will not be validated.\n   ** Warning ** ProcessScheduleInput: Schedule:Year=\"SCHEDULE RULESET 37\", Blank Schedule Type Limits Name input -- will not be validated.\n   ** Warning ** ProcessScheduleInput: Schedule:Year=\"SCHEDULE RULESET 38\", Blank Schedule Type Limits Name input -- will not be validated.\n   ** Warning ** ProcessScheduleInput: Schedule:Year=\"SCHEDULE RULESET 39\", Blank Schedule Type Limits Name input -- will not be validated.\n   ** Warning ** ProcessScheduleInput: Schedule:Year=\"SCHEDULE RULESET 4\", Blank Schedule Type Limits Name input -- will not be validated.\n   ** Warning ** ProcessScheduleInput: Schedule:Year=\"SCHEDULE RULESET 40\", Blank Schedule Type Limits Name input -- will not be validated.\n   ** Warning ** ProcessScheduleInput: Schedule:Year=\"SCHEDULE RULESET 41\", Blank Schedule Type Limits Name input -- will not be validated.\n   ** Warning ** ProcessScheduleInput: Schedule:Year=\"SCHEDULE RULESET 42\", Blank Schedule Type Limits Name input -- will not be validated.\n   ** Warning ** ProcessScheduleInput: Schedule:Year=\"SCHEDULE RULESET 43\", Blank Schedule Type Limits Name input -- will not be validated.\n   ** Warning ** ProcessScheduleInput: Schedule:Year=\"SCHEDULE RULESET 44\", Blank Schedule Type Limits Name input -- will not be validated.\n   ** Warning ** ProcessScheduleInput: Schedule:Year=\"SCHEDULE RULESET 45\", Blank Schedule Type Limits Name input -- will not be validated.\n   ** Warning ** ProcessScheduleInput: Schedule:Year=\"SCHEDULE RULESET 46\", Blank Schedule Type Limits Name input -- will not be validated.\n   ** Warning ** ProcessScheduleInput: Schedule:Year=\"SCHEDULE RULESET 47\", Blank Schedule Type Limits Name input -- will not be validated.\n   ** Warning ** ProcessScheduleInput: Schedule:Year=\"SCHEDULE RULESET 48\", Blank Schedule Type Limits Name input -- will not be validated.\n   ** Warning ** ProcessScheduleInput: Schedule:Year=\"SCHEDULE RULESET 49\", Blank Schedule Type Limits Name input -- will not be validated.\n   ** Warning ** ProcessScheduleInput: Schedule:Year=\"SCHEDULE RULESET 5\", Blank Schedule Type Limits Name input -- will not be validated.\n   ** Warning ** ProcessScheduleInput: Schedule:Year=\"SCHEDULE RULESET 50\", Blank Schedule Type Limits Name input -- will not be validated.\n   ** Warning ** ProcessScheduleInput: Schedule:Year=\"SCHEDULE RULESET 51\", Blank Schedule Type Limits Name input -- will not be validated.\n   ** Warning ** ProcessScheduleInput: Schedule:Year=\"SCHEDULE RULESET 52\", Blank Schedule Type Limits Name input -- will not be validated.\n   ** Warning ** ProcessScheduleInput: Schedule:Year=\"SCHEDULE RULESET 53\", Blank Schedule Type Limits Name input -- will not be validated.\n   ** Warning ** ProcessScheduleInput: Schedule:Year=\"SCHEDULE RULESET 54\", Blank Schedule Type Limits Name input -- will not be validated.\n   ** Warning ** ProcessScheduleInput: Schedule:Year=\"SCHEDULE RULESET 55\", Blank Schedule Type Limits Name input -- will not be validated.\n   ** Warning ** ProcessScheduleInput: Schedule:Year=\"SCHEDULE RULESET 56\", Blank Schedule Type Limits Name input -- will not be validated.\n   ** Warning ** ProcessScheduleInput: Schedule:Year=\"SCHEDULE RULESET 57\", Blank Schedule Type Limits Name input -- will not be validated.\n   ** Warning ** ProcessScheduleInput: Schedule:Year=\"SCHEDULE RULESET 58\", Blank Schedule Type Limits Name input -- will not be validated.\n   ** Warning ** ProcessScheduleInput: Schedule:Year=\"SCHEDULE RULESET 59\", Blank Schedule Type Limits Name input -- will not be validated.\n   ** Warning ** ProcessScheduleInput: Schedule:Year=\"SCHEDULE RULESET 6\", Blank Schedule Type Limits Name input -- will not be validated.\n   ** Warning ** ProcessScheduleInput: Schedule:Year=\"SCHEDULE RULESET 60\", Blank Schedule Type Limits Name input -- will not be validated.\n   ** Warning ** ProcessScheduleInput: Schedule:Year=\"SCHEDULE RULESET 61\", Blank Schedule Type Limits Name input -- will not be validated.\n   ** Warning ** ProcessScheduleInput: Schedule:Year=\"SCHEDULE RULESET 62\", Blank Schedule Type Limits Name input -- will not be validated.\n   ** Warning ** ProcessScheduleInput: Schedule:Year=\"SCHEDULE RULESET 63\", Blank Schedule Type Limits Name input -- will not be validated.\n   ** Warning ** ProcessScheduleInput: Schedule:Year=\"SCHEDULE RULESET 64\", Blank Schedule Type Limits Name input -- will not be validated.\n   ** Warning ** ProcessScheduleInput: Schedule:Year=\"SCHEDULE RULESET 65\", Blank Schedule Type Limits Name input -- will not be validated.\n   ** Warning ** ProcessScheduleInput: Schedule:Year=\"SCHEDULE RULESET 66\", Blank Schedule Type Limits Name input -- will not be validated.\n   ** Warning ** ProcessScheduleInput: Schedule:Year=\"SCHEDULE RULESET 67\", Blank Schedule Type Limits Name input -- will not be validated.\n   ** Warning ** ProcessScheduleInput: Schedule:Year=\"SCHEDULE RULESET 68\", Blank Schedule Type Limits Name input -- will not be validated.\n   ** Warning ** ProcessScheduleInput: Schedule:Year=\"SCHEDULE RULESET 69\", Blank Schedule Type Limits Name input -- will not be validated.\n   ** Warning ** ProcessScheduleInput: Schedule:Year=\"SCHEDULE RULESET 7\", Blank Schedule Type Limits Name input -- will not be validated.\n   ** Warning ** ProcessScheduleInput: Schedule:Year=\"SCHEDULE RULESET 70\", Blank Schedule Type Limits Name input -- will not be validated.\n   ** Warning ** ProcessScheduleInput: Schedule:Year=\"SCHEDULE RULESET 71\", Blank Schedule Type Limits Name input -- will not be validated.\n   ** Warning ** ProcessScheduleInput: Schedule:Year=\"SCHEDULE RULESET 72\", Blank Schedule Type Limits Name input -- will not be validated.\n   ** Warning ** ProcessScheduleInput: Schedule:Year=\"SCHEDULE RULESET 73\", Blank Schedule Type Limits Name input -- will not be validated.\n   ** Warning ** ProcessScheduleInput: Schedule:Year=\"SCHEDULE RULESET 74\", Blank Schedule Type Limits Name input -- will not be validated.\n   ** Warning ** ProcessScheduleInput: Schedule:Year=\"SCHEDULE RULESET 75\", Blank Schedule Type Limits Name input -- will not be validated.\n   ** Warning ** ProcessScheduleInput: Schedule:Year=\"SCHEDULE RULESET 76\", Blank Schedule Type Limits Name input -- will not be validated.\n   ** Warning ** ProcessScheduleInput: Schedule:Year=\"SCHEDULE RULESET 77\", Blank Schedule Type Limits Name input -- will not be validated.\n   ** Warning ** ProcessScheduleInput: Schedule:Year=\"SCHEDULE RULESET 78\", Blank Schedule Type Limits Name input -- will not be validated.\n   ** Warning ** ProcessScheduleInput: Schedule:Year=\"SCHEDULE RULESET 79\", Blank Schedule Type Limits Name input -- will not be validated.\n   ** Warning ** ProcessScheduleInput: Schedule:Year=\"SCHEDULE RULESET 8\", Blank Schedule Type Limits Name input -- will not be validated.\n   ** Warning ** ProcessScheduleInput: Schedule:Year=\"SCHEDULE RULESET 80\", Blank Schedule Type Limits Name input -- will not be validated.\n   ** Warning ** ProcessScheduleInput: Schedule:Year=\"SCHEDULE RULESET 81\", Blank Schedule Type Limits Name input -- will not be validated.\n   ** Warning ** ProcessScheduleInput: Schedule:Year=\"SCHEDULE RULESET 82\", Blank Schedule Type Limits Name input -- will not be validated.\n   ** Warning ** ProcessScheduleInput: Schedule:Year=\"SCHEDULE RULESET 83\", Blank Schedule Type Limits Name input -- will not be validated.\n   ** Warning ** ProcessScheduleInput: Schedule:Year=\"SCHEDULE RULESET 84\", Blank Schedule Type Limits Name input -- will not be validated.\n   ** Warning ** ProcessScheduleInput: Schedule:Year=\"SCHEDULE RULESET 85\", Blank Schedule Type Limits Name input -- will not be validated.\n   ** Warning ** ProcessScheduleInput: Schedule:Year=\"SCHEDULE RULESET 86\", Blank Schedule Type Limits Name input -- will not be validated.\n   ** Warning ** ProcessScheduleInput: Schedule:Year=\"SCHEDULE RULESET 87\", Blank Schedule Type Limits Name input -- will not be validated.\n   ** Warning ** ProcessScheduleInput: Schedule:Year=\"SCHEDULE RULESET 88\", Blank Schedule Type Limits Name input -- will not be validated.\n   ** Warning ** ProcessScheduleInput: Schedule:Year=\"SCHEDULE RULESET 89\", Blank Schedule Type Limits Name input -- will not be validated.\n   ** Warning ** ProcessScheduleInput: Schedule:Year=\"SCHEDULE RULESET 9\", Blank Schedule Type Limits Name input -- will not be validated.\n   ** Warning ** ProcessScheduleInput: Schedule:Year=\"SCHEDULE RULESET 90\", Blank Schedule Type Limits Name input -- will not be validated.\n   ** Warning ** ProcessScheduleInput: Schedule:Year=\"SCHEDULE RULESET 91\", Blank Schedule Type Limits Name input -- will not be validated.\n   ** Warning ** ProcessScheduleInput: Schedule:Year=\"SCHEDULE RULESET 92\", Blank Schedule Type Limits Name input -- will not be validated.\n   ** Warning ** ProcessScheduleInput: Schedule:Year=\"SCHEDULE RULESET 93\", Blank Schedule Type Limits Name input -- will not be validated.\n   ** Warning ** ProcessScheduleInput: Schedule:Year=\"SCHEDULE RULESET 94\", Blank Schedule Type Limits Name input -- will not be validated.\n   ** Warning ** ProcessScheduleInput: Schedule:Year=\"SCHEDULE RULESET 95\", Blank Schedule Type Limits Name input -- will not be validated.\n   ** Warning ** ProcessScheduleInput: Schedule:Year=\"SCHEDULE RULESET 96\", Blank Schedule Type Limits Name input -- will not be validated.\n   ** Warning ** ProcessScheduleInput: Schedule:Year=\"SCHEDULE RULESET 97\", Blank Schedule Type Limits Name input -- will not be validated.\n   ** Warning ** ProcessScheduleInput: Schedule:Year=\"SCHEDULE RULESET 98\", Blank Schedule Type Limits Name input -- will not be validated.\n   ** Warning ** ProcessScheduleInput: Schedule:Year=\"SCHEDULE RULESET 99\", Blank Schedule Type Limits Name input -- will not be validated.\n   ** Warning ** ProcessScheduleInput: Schedule:Constant=\"ALWAYS OFF DISCRETE\", Blank Schedule Type Limits Name input -- will not be validated.\n   ** Warning ** ProcessScheduleInput: Schedule:Constant=\"ALWAYS ON CONTINUOUS\", Blank Schedule Type Limits Name input -- will not be validated.\n   ** Warning ** CheckUsedConstructions: There are 24 nominally unused constructions in input.\n   **   ~~~   ** For explicit details on each unused construction, use Output:Diagnostics,DisplayExtraWarnings;\n   ** Warning ** GetInternalHeatGains: People Combination of ZoneList and Object Name generate a name too long.\n   **   ~~~   ** Object Name=\"SPACE FUNCTION ELECTRICAL/MECHANICAL-SCH-F PEOPLE\".\n   **   ~~~   ** ZoneList/Zone Name=\"SP-MECHANICALROOMFLR1 SYS-3 FLR-2 SCH-F HPLCMT-SOUTH ZN\".\n   **   ~~~   ** Item length=[104] > Maximum Length=[100]. You may need to shorten the names.\n   **   ~~~   ** Shortening the Object Name by [5] characters will assure uniqueness for this ZoneList.\n   **   ~~~   ** name that will be used (may be needed in reporting)=\"SP-MECHANICALROOMFLR1 SYS-3 FLR-2 SCH-F HPLCMT-SOUTH ZN SPACE FUNCTION ELECTRICAL/MECHANICAL-SCH-F PEOPLE\".\n   ** Warning ** GetInternalHeatGains: People Combination of ZoneList and Object Name generate a name too long.\n   **   ~~~   ** Object Name=\"SPACE FUNCTION ELECTRICAL/MECHANICAL-SCH-F PEOPLE\".\n   **   ~~~   ** ZoneList/Zone Name=\"SP-MEETINGROOMFLR1 SYS-3 FLR-2 SCH-F HPLCMT-SOUTH ZN\".\n   **   ~~~   ** Item length=[101] > Maximum Length=[100]. You may need to shorten the names.\n   **   ~~~   ** Shortening the Object Name by [5] characters will assure uniqueness for this ZoneList.\n   **   ~~~   ** name that will be used (may be needed in reporting)=\"SP-MEETINGROOMFLR1 SYS-3 FLR-2 SCH-F HPLCMT-SOUTH ZN SPACE FUNCTION ELECTRICAL/MECHANICAL-SCH-F PEOPLE\".\n   ** Warning ** GetInternalHeatGains: Lights Combination of ZoneList and Object Name generate a name too long.\n   **   ~~~   ** Object Name=\"SPACE FUNCTION ELECTRICAL/MECHANICAL-SCH-F LIGHTS\".\n   **   ~~~   ** ZoneList/Zone Name=\"SP-MECHANICALROOMFLR1 SYS-3 FLR-2 SCH-F HPLCMT-SOUTH ZN\".\n   **   ~~~   ** Item length=[104] > Maximum Length=[100]. You may need to shorten the names.\n   **   ~~~   ** Shortening the Object Name by [5] characters will assure uniqueness for this ZoneList.\n   **   ~~~   ** name that will be used (may be needed in reporting)=\"SP-MECHANICALROOMFLR1 SYS-3 FLR-2 SCH-F HPLCMT-SOUTH ZN SPACE FUNCTION ELECTRICAL/MECHANICAL-SCH-F LIGHTS\".\n   ** Warning ** GetInternalHeatGains: Lights Combination of ZoneList and Object Name generate a name too long.\n   **   ~~~   ** Object Name=\"SPACE FUNCTION ELECTRICAL/MECHANICAL-SCH-F LIGHTS\".\n   **   ~~~   ** ZoneList/Zone Name=\"SP-MEETINGROOMFLR1 SYS-3 FLR-2 SCH-F HPLCMT-SOUTH ZN\".\n   **   ~~~   ** Item length=[101] > Maximum Length=[100]. You may need to shorten the names.\n   **   ~~~   ** Shortening the Object Name by [5] characters will assure uniqueness for this ZoneList.\n   **   ~~~   ** name that will be used (may be needed in reporting)=\"SP-MEETINGROOMFLR1 SYS-3 FLR-2 SCH-F HPLCMT-SOUTH ZN SPACE FUNCTION ELECTRICAL/MECHANICAL-SCH-F LIGHTS\".\n   ** Warning ** GetInternalHeatGains: ElectricEquipment Combination of ZoneList and Object Name generate a name too long.\n   **   ~~~   ** Object Name=\"SPACE FUNCTION ELECTRICAL/MECHANICAL-SCH-F ELEC EQUIP\".\n   **   ~~~   ** ZoneList/Zone Name=\"SP-MECHANICALROOMFLR1 SYS-3 FLR-2 SCH-F HPLCMT-SOUTH ZN\".\n   **   ~~~   ** Item length=[108] > Maximum Length=[100]. You may need to shorten the names.\n   **   ~~~   ** Shortening the Object Name by [9] characters will assure uniqueness for this ZoneList.\n   **   ~~~   ** name that will be used (may be needed in reporting)=\"SP-MECHANICALROOMFLR1 SYS-3 FLR-2 SCH-F HPLCMT-SOUTH ZN SPACE FUNCTION ELECTRICAL/MECHANICAL-SCH-F ELEC EQUIP\".\n   ** Warning ** GetInternalHeatGains: ElectricEquipment Combination of ZoneList and Object Name generate a name too long.\n   **   ~~~   ** Object Name=\"SPACE FUNCTION ELECTRICAL/MECHANICAL-SCH-F ELEC EQUIP\".\n   **   ~~~   ** ZoneList/Zone Name=\"SP-MEETINGROOMFLR1 SYS-3 FLR-2 SCH-F HPLCMT-SOUTH ZN\".\n   **   ~~~   ** Item length=[105] > Maximum Length=[100]. You may need to shorten the names.\n   **   ~~~   ** Shortening the Object Name by [9] characters will assure uniqueness for this ZoneList.\n   **   ~~~   ** name that will be used (may be needed in reporting)=\"SP-MEETINGROOMFLR1 SYS-3 FLR-2 SCH-F HPLCMT-SOUTH ZN SPACE FUNCTION ELECTRICAL/MECHANICAL-SCH-F ELEC EQUIP\".\n   ** Warning ** GetInternalHeatGains: ElectricEquipment Combination of ZoneList and Object Name generate a name too long.\n   **   ~~~   ** Object Name=\"SPACE FUNCTION STORAGE AREA - OCCSENS ELEC EQUIP\".\n   **   ~~~   ** ZoneList/Zone Name=\"SP-FRONTSTORAGEFLR1 SYS-4 FLR-2 SCH-E HPLCMT-NORTH ZN\".\n   **   ~~~   ** Item length=[101] > Maximum Length=[100]. You may need to shorten the names.\n   **   ~~~   ** Shortening the Object Name by [2] characters will assure uniqueness for this ZoneList.\n   **   ~~~   ** name that will be used (may be needed in reporting)=\"SP-FRONTSTORAGEFLR1 SYS-4 FLR-2 SCH-E HPLCMT-NORTH ZN SPACE FUNCTION STORAGE AREA - OCCSENS ELEC EQUIP\".\n   ** Warning ** GetInternalHeatGains: ElectricEquipment Combination of ZoneList and Object Name generate a name too long.\n   **   ~~~   ** Object Name=\"SPACE FUNCTION STORAGE AREA - OCCSENS ELEC EQUIP\".\n   **   ~~~   ** ZoneList/Zone Name=\"SP-FRONTSTORAGEFLR2 SYS-4 FLR-1 SCH-E HPLCMT-NORTH ZN\".\n   **   ~~~   ** Item length=[101] > Maximum Length=[100]. You may need to shorten the names.\n   **   ~~~   ** Shortening the Object Name by [2] characters will assure uniqueness for this ZoneList.\n   **   ~~~   ** name that will be used (may be needed in reporting)=\"SP-FRONTSTORAGEFLR2 SYS-4 FLR-1 SCH-E HPLCMT-NORTH ZN SPACE FUNCTION STORAGE AREA - OCCSENS ELEC EQUIP\".\n   ** Warning ** GetInternalHeatGains: ElectricEquipment Combination of ZoneList and Object Name generate a name too long.\n   **   ~~~   ** Object Name=\"SPACE FUNCTION STORAGE AREA - OCCSENS ELEC EQUIP\".\n   **   ~~~   ** ZoneList/Zone Name=\"SP-FRONTSTORAGEFLR3 SYS-4 FLR-4 SCH-E HPLCMT-NORTH ZN\".\n   **   ~~~   ** Item length=[101] > Maximum Length=[100]. You may need to shorten the names.\n   **   ~~~   ** Shortening the Object Name by [2] characters will assure uniqueness for this ZoneList.\n   **   ~~~   ** name that will be used (may be needed in reporting)=\"SP-FRONTSTORAGEFLR3 SYS-4 FLR-4 SCH-E HPLCMT-NORTH ZN SPACE FUNCTION STORAGE AREA - OCCSENS ELEC EQUIP\".\n   ** Warning ** GetInternalHeatGains: ElectricEquipment Combination of ZoneList and Object Name generate a name too long.\n   **   ~~~   ** Object Name=\"SPACE FUNCTION STORAGE AREA - OCCSENS ELEC EQUIP\".\n   **   ~~~   ** ZoneList/Zone Name=\"SP-FRONTSTORAGEFLR4 SYS-4 FLR-3 SCH-E HPLCMT-NORTH ZN\".\n   **   ~~~   ** Item length=[101] > Maximum Length=[100]. You may need to shorten the names.\n   **   ~~~   ** Shortening the Object Name by [2] characters will assure uniqueness for this ZoneList.\n   **   ~~~   ** name that will be used (may be needed in reporting)=\"SP-FRONTSTORAGEFLR4 SYS-4 FLR-3 SCH-E HPLCMT-NORTH ZN SPACE FUNCTION STORAGE AREA - OCCSENS ELEC EQUIP\".\n   ************* Beginning System Sizing Calculations\n   ** Warning ** GetDXCoils: Coil:Cooling:DX:SingleSpeed=\"COIL COOLING DX SINGLE SPEED 7 5KBTU/HR 11.0EER\", invalid\n   **   ~~~   ** ...Part Load Fraction Correlation Curve Name = DXCOOL-NECB2011-REF-COOLPLFFPLR 63 has out of range value.\n   **   ~~~   ** ...Curve maximum must be <= 1.0, curve max at PLR = 0.99 is 1.015\n   **   ~~~   ** ...Setting curve maximum to 1.0 and simulation continues.\n   ** Warning ** GetDXCoils: Coil:Cooling:DX:SingleSpeed=\"COIL COOLING DX SINGLE SPEED 37 5KBTU/HR 11.0EER\", invalid\n   **   ~~~   ** ...Part Load Fraction Correlation Curve Name = DXCOOL-NECB2011-REF-COOLPLFFPLR 30 has out of range value.\n   **   ~~~   ** ...Curve maximum must be <= 1.0, curve max at PLR = 0.99 is 1.015\n   **   ~~~   ** ...Setting curve maximum to 1.0 and simulation continues.\n   ** Warning ** GetDXCoils: Coil:Cooling:DX:SingleSpeed=\"COIL COOLING DX SINGLE SPEED 25 15KBTU/HR 9.3EER\", invalid\n   **   ~~~   ** ...Part Load Fraction Correlation Curve Name = DXCOOL-NECB2011-REF-COOLPLFFPLR 17 has out of range value.\n   **   ~~~   ** ...Curve maximum must be <= 1.0, curve max at PLR = 0.99 is 1.015\n   **   ~~~   ** ...Setting curve maximum to 1.0 and simulation continues.\n   ** Warning ** GetDXCoils: Coil:Cooling:DX:SingleSpeed=\"COIL COOLING DX SINGLE SPEED 17 1KBTU/HR 11.0EER\", invalid\n   **   ~~~   ** ...Part Load Fraction Correlation Curve Name = DXCOOL-NECB2011-REF-COOLPLFFPLR 8 has out of range value.\n   **   ~~~   ** ...Curve maximum must be <= 1.0, curve max at PLR = 0.99 is 1.015\n   **   ~~~   ** ...Setting curve maximum to 1.0 and simulation continues.\n   ** Warning ** GetDXCoils: Coil:Cooling:DX:SingleSpeed=\"COIL COOLING DX SINGLE SPEED 18 2KBTU/HR 11.0EER\", invalid\n   **   ~~~   ** ...Part Load Fraction Correlation Curve Name = DXCOOL-NECB2011-REF-COOLPLFFPLR 9 has out of range value.\n   **   ~~~   ** ...Curve maximum must be <= 1.0, curve max at PLR = 0.99 is 1.015\n   **   ~~~   ** ...Setting curve maximum to 1.0 and simulation continues.\n   ** Warning ** GetDXCoils: Coil:Cooling:DX:SingleSpeed=\"COIL COOLING DX SINGLE SPEED 19 2KBTU/HR 11.0EER\", invalid\n   **   ~~~   ** ...Part Load Fraction Correlation Curve Name = DXCOOL-NECB2011-REF-COOLPLFFPLR 10 has out of range value.\n   **   ~~~   ** ...Curve maximum must be <= 1.0, curve max at PLR = 0.99 is 1.015\n   **   ~~~   ** ...Setting curve maximum to 1.0 and simulation continues.\n   ** Warning ** GetDXCoils: Coil:Cooling:DX:SingleSpeed=\"COIL COOLING DX SINGLE SPEED 14 2KBTU/HR 11.0EER\", invalid\n   **   ~~~   ** ...Part Load Fraction Correlation Curve Name = DXCOOL-NECB2011-REF-COOLPLFFPLR 5 has out of range value.\n   **   ~~~   ** ...Curve maximum must be <= 1.0, curve max at PLR = 0.99 is 1.015\n   **   ~~~   ** ...Setting curve maximum to 1.0 and simulation continues.\n   ** Warning ** GetDXCoils: Coil:Cooling:DX:SingleSpeed=\"COIL COOLING DX SINGLE SPEED 15 2KBTU/HR 11.0EER\", invalid\n   **   ~~~   ** ...Part Load Fraction Correlation Curve Name = DXCOOL-NECB2011-REF-COOLPLFFPLR 6 has out of range value.\n   **   ~~~   ** ...Curve maximum must be <= 1.0, curve max at PLR = 0.99 is 1.015\n   **   ~~~   ** ...Setting curve maximum to 1.0 and simulation continues.\n   ** Warning ** GetDXCoils: Coil:Cooling:DX:SingleSpeed=\"COIL COOLING DX SINGLE SPEED 9 3KBTU/HR 11.0EER\", invalid\n   **   ~~~   ** ...Part Load Fraction Correlation Curve Name = DXCOOL-NECB2011-REF-COOLPLFFPLR 65 has out of range value.\n   **   ~~~   ** ...Curve maximum must be <= 1.0, curve max at PLR = 0.99 is 1.015\n   **   ~~~   ** ...Setting curve maximum to 1.0 and simulation continues.\n   ** Warning ** GetDXCoils: Coil:Cooling:DX:SingleSpeed=\"COIL COOLING DX SINGLE SPEED 11 6KBTU/HR 11.0EER\", invalid\n   **   ~~~   ** ...Part Load Fraction Correlation Curve Name = DXCOOL-NECB2011-REF-COOLPLFFPLR 2 has out of range value.\n   **   ~~~   ** ...Curve maximum must be <= 1.0, curve max at PLR = 0.99 is 1.015\n   **   ~~~   ** ...Setting curve maximum to 1.0 and simulation continues.\n   ** Warning ** GetDXCoils: Coil:Cooling:DX:SingleSpeed=\"COIL COOLING DX SINGLE SPEED 13 4KBTU/HR 11.0EER\", invalid\n   **   ~~~   ** ...Part Load Fraction Correlation Curve Name = DXCOOL-NECB2011-REF-COOLPLFFPLR 4 has out of range value.\n   **   ~~~   ** ...Curve maximum must be <= 1.0, curve max at PLR = 0.99 is 1.015\n   **   ~~~   ** ...Setting curve maximum to 1.0 and simulation continues.\n   ** Warning ** GetDXCoils: Coil:Cooling:DX:SingleSpeed=\"COIL COOLING DX SINGLE SPEED 12 5KBTU/HR 11.0EER\", invalid\n   **   ~~~   ** ...Part Load Fraction Correlation Curve Name = DXCOOL-NECB2011-REF-COOLPLFFPLR 3 has out of range value.\n   **   ~~~   ** ...Curve maximum must be <= 1.0, curve max at PLR = 0.99 is 1.015\n   **   ~~~   ** ...Setting curve maximum to 1.0 and simulation continues.\n   ** Warning ** GetDXCoils: Coil:Cooling:DX:SingleSpeed=\"COIL COOLING DX SINGLE SPEED 10 1KBTU/HR 11.0EER\", invalid\n   **   ~~~   ** ...Part Load Fraction Correlation Curve Name = DXCOOL-NECB2011-REF-COOLPLFFPLR 1 has out of range value.\n   **   ~~~   ** ...Curve maximum must be <= 1.0, curve max at PLR = 0.99 is 1.015\n   **   ~~~   ** ...Setting curve maximum to 1.0 and simulation continues.\n   ** Warning ** GetDXCoils: Coil:Cooling:DX:SingleSpeed=\"COIL COOLING DX SINGLE SPEED 5 2KBTU/HR 11.0EER\", invalid\n   **   ~~~   ** ...Part Load Fraction Correlation Curve Name = DXCOOL-NECB2011-REF-COOLPLFFPLR 44 has out of range value.\n   **   ~~~   ** ...Curve maximum must be <= 1.0, curve max at PLR = 0.99 is 1.015\n   **   ~~~   ** ...Setting curve maximum to 1.0 and simulation continues.\n   ** Warning ** GetDXCoils: Coil:Cooling:DX:SingleSpeed=\"COIL COOLING DX SINGLE SPEED 6 7KBTU/HR 11.0EER\", invalid\n   **   ~~~   ** ...Part Load Fraction Correlation Curve Name = DXCOOL-NECB2011-REF-COOLPLFFPLR 55 has out of range value.\n   **   ~~~   ** ...Curve maximum must be <= 1.0, curve max at PLR = 0.99 is 1.015\n   **   ~~~   ** ...Setting curve maximum to 1.0 and simulation continues.\n   ** Warning ** GetDXCoils: Coil:Cooling:DX:SingleSpeed=\"COIL COOLING DX SINGLE SPEED 3 2KBTU/HR 11.0EER\", invalid\n   **   ~~~   ** ...Part Load Fraction Correlation Curve Name = DXCOOL-NECB2011-REF-COOLPLFFPLR 22 has out of range value.\n   **   ~~~   ** ...Curve maximum must be <= 1.0, curve max at PLR = 0.99 is 1.015\n   **   ~~~   ** ...Setting curve maximum to 1.0 and simulation continues.\n   ** Warning ** GetDXCoils: Coil:Cooling:DX:SingleSpeed=\"COIL COOLING DX SINGLE SPEED 2 7KBTU/HR 10.9EER\", invalid\n   **   ~~~   ** ...Part Load Fraction Correlation Curve Name = DXCOOL-NECB2011-REF-COOLPLFFPLR 11 has out of range value.\n   **   ~~~   ** ...Curve maximum must be <= 1.0, curve max at PLR = 0.99 is 1.015\n   **   ~~~   ** ...Setting curve maximum to 1.0 and simulation continues.\n   ** Warning ** GetDXCoils: Coil:Cooling:DX:SingleSpeed=\"COIL COOLING DX SINGLE SPEED 4 2KBTU/HR 11.0EER\", invalid\n   **   ~~~   ** ...Part Load Fraction Correlation Curve Name = DXCOOL-NECB2011-REF-COOLPLFFPLR 33 has out of range value.\n   **   ~~~   ** ...Curve maximum must be <= 1.0, curve max at PLR = 0.99 is 1.015\n   **   ~~~   ** ...Setting curve maximum to 1.0 and simulation continues.\n   ** Warning ** GetDXCoils: Coil:Cooling:DX:SingleSpeed=\"COIL COOLING DX SINGLE SPEED 39 3KBTU/HR 11.0EER\", invalid\n   **   ~~~   ** ...Part Load Fraction Correlation Curve Name = DXCOOL-NECB2011-REF-COOLPLFFPLR 32 has out of range value.\n   **   ~~~   ** ...Curve maximum must be <= 1.0, curve max at PLR = 0.99 is 1.015\n   **   ~~~   ** ...Setting curve maximum to 1.0 and simulation continues.\n   ** Warning ** GetDXCoils: Coil:Cooling:DX:SingleSpeed=\"COIL COOLING DX SINGLE SPEED 40 5KBTU/HR 11.0EER\", invalid\n   **   ~~~   ** ...Part Load Fraction Correlation Curve Name = DXCOOL-NECB2011-REF-COOLPLFFPLR 34 has out of range value.\n   **   ~~~   ** ...Curve maximum must be <= 1.0, curve max at PLR = 0.99 is 1.015\n   **   ~~~   ** ...Setting curve maximum to 1.0 and simulation continues.\n   ** Warning ** GetDXCoils: Coil:Cooling:DX:SingleSpeed=\"COIL COOLING DX SINGLE SPEED 42 5KBTU/HR 11.0EER\", invalid\n   **   ~~~   ** ...Part Load Fraction Correlation Curve Name = DXCOOL-NECB2011-REF-COOLPLFFPLR 36 has out of range value.\n   **   ~~~   ** ...Curve maximum must be <= 1.0, curve max at PLR = 0.99 is 1.015\n   **   ~~~   ** ...Setting curve maximum to 1.0 and simulation continues.\n   ** Warning ** GetDXCoils: Coil:Cooling:DX:SingleSpeed=\"COIL COOLING DX SINGLE SPEED 43 5KBTU/HR 11.0EER\", invalid\n   **   ~~~   ** ...Part Load Fraction Correlation Curve Name = DXCOOL-NECB2011-REF-COOLPLFFPLR 37 has out of range value.\n   **   ~~~   ** ...Curve maximum must be <= 1.0, curve max at PLR = 0.99 is 1.015\n   **   ~~~   ** ...Setting curve maximum to 1.0 and simulation continues.\n   ** Warning ** GetDXCoils: Coil:Cooling:DX:SingleSpeed=\"COIL COOLING DX SINGLE SPEED 41 2KBTU/HR 11.0EER\", invalid\n   **   ~~~   ** ...Part Load Fraction Correlation Curve Name = DXCOOL-NECB2011-REF-COOLPLFFPLR 35 has out of range value.\n   **   ~~~   ** ...Curve maximum must be <= 1.0, curve max at PLR = 0.99 is 1.015\n   **   ~~~   ** ...Setting curve maximum to 1.0 and simulation continues.\n   ** Warning ** GetDXCoils: Coil:Cooling:DX:SingleSpeed=\"COIL COOLING DX SINGLE SPEED 34 2KBTU/HR 11.0EER\", invalid\n   **   ~~~   ** ...Part Load Fraction Correlation Curve Name = DXCOOL-NECB2011-REF-COOLPLFFPLR 27 has out of range value.\n   **   ~~~   ** ...Curve maximum must be <= 1.0, curve max at PLR = 0.99 is 1.015\n   **   ~~~   ** ...Setting curve maximum to 1.0 and simulation continues.\n   ** Warning ** GetDXCoils: Coil:Cooling:DX:SingleSpeed=\"COIL COOLING DX SINGLE SPEED 36 7KBTU/HR 10.9EER\", invalid\n   **   ~~~   ** ...Part Load Fraction Correlation Curve Name = DXCOOL-NECB2011-REF-COOLPLFFPLR 29 has out of range value.\n   **   ~~~   ** ...Curve maximum must be <= 1.0, curve max at PLR = 0.99 is 1.015\n   **   ~~~   ** ...Setting curve maximum to 1.0 and simulation continues.\n   ** Warning ** GetDXCoils: Coil:Cooling:DX:SingleSpeed=\"COIL COOLING DX SINGLE SPEED 35 2KBTU/HR 11.0EER\", invalid\n   **   ~~~   ** ...Part Load Fraction Correlation Curve Name = DXCOOL-NECB2011-REF-COOLPLFFPLR 28 has out of range value.\n   **   ~~~   ** ...Curve maximum must be <= 1.0, curve max at PLR = 0.99 is 1.015\n   **   ~~~   ** ...Setting curve maximum to 1.0 and simulation continues.\n   ** Warning ** GetDXCoils: Coil:Cooling:DX:SingleSpeed=\"COIL COOLING DX SINGLE SPEED 33 7KBTU/HR 10.9EER\", invalid\n   **   ~~~   ** ...Part Load Fraction Correlation Curve Name = DXCOOL-NECB2011-REF-COOLPLFFPLR 26 has out of range value.\n   **   ~~~   ** ...Curve maximum must be <= 1.0, curve max at PLR = 0.99 is 1.015\n   **   ~~~   ** ...Setting curve maximum to 1.0 and simulation continues.\n   ** Warning ** GetDXCoils: Coil:Cooling:DX:SingleSpeed=\"COIL COOLING DX SINGLE SPEED 32 2KBTU/HR 11.0EER\", invalid\n   **   ~~~   ** ...Part Load Fraction Correlation Curve Name = DXCOOL-NECB2011-REF-COOLPLFFPLR 25 has out of range value.\n   **   ~~~   ** ...Curve maximum must be <= 1.0, curve max at PLR = 0.99 is 1.015\n   **   ~~~   ** ...Setting curve maximum to 1.0 and simulation continues.\n   ** Warning ** GetDXCoils: Coil:Cooling:DX:SingleSpeed=\"COIL COOLING DX SINGLE SPEED 27 6KBTU/HR 11.0EER\", invalid\n   **   ~~~   ** ...Part Load Fraction Correlation Curve Name = DXCOOL-NECB2011-REF-COOLPLFFPLR 19 has out of range value.\n   **   ~~~   ** ...Curve maximum must be <= 1.0, curve max at PLR = 0.99 is 1.015\n   **   ~~~   ** ...Setting curve maximum to 1.0 and simulation continues.\n   ** Warning ** GetDXCoils: Coil:Cooling:DX:SingleSpeed=\"COIL COOLING DX SINGLE SPEED 28 14KBTU/HR 9.4EER\", invalid\n   **   ~~~   ** ...Part Load Fraction Correlation Curve Name = DXCOOL-NECB2011-REF-COOLPLFFPLR 20 has out of range value.\n   **   ~~~   ** ...Curve maximum must be <= 1.0, curve max at PLR = 0.99 is 1.015\n   **   ~~~   ** ...Setting curve maximum to 1.0 and simulation continues.\n   ** Warning ** GetDXCoils: Coil:Cooling:DX:SingleSpeed=\"COIL COOLING DX SINGLE SPEED 31 12KBTU/HR 10.0EER\", invalid\n   **   ~~~   ** ...Part Load Fraction Correlation Curve Name = DXCOOL-NECB2011-REF-COOLPLFFPLR 24 has out of range value.\n   **   ~~~   ** ...Curve maximum must be <= 1.0, curve max at PLR = 0.99 is 1.015\n   **   ~~~   ** ...Setting curve maximum to 1.0 and simulation continues.\n   ** Warning ** GetDXCoils: Coil:Cooling:DX:SingleSpeed=\"COIL COOLING DX SINGLE SPEED 30 14KBTU/HR 9.4EER\", invalid\n   **   ~~~   ** ...Part Load Fraction Correlation Curve Name = DXCOOL-NECB2011-REF-COOLPLFFPLR 23 has out of range value.\n   **   ~~~   ** ...Curve maximum must be <= 1.0, curve max at PLR = 0.99 is 1.015\n   **   ~~~   ** ...Setting curve maximum to 1.0 and simulation continues.\n   ** Warning ** GetDXCoils: Coil:Cooling:DX:SingleSpeed=\"COIL COOLING DX SINGLE SPEED 29 4KBTU/HR 11.0EER\", invalid\n   **   ~~~   ** ...Part Load Fraction Correlation Curve Name = DXCOOL-NECB2011-REF-COOLPLFFPLR 21 has out of range value.\n   **   ~~~   ** ...Curve maximum must be <= 1.0, curve max at PLR = 0.99 is 1.015\n   **   ~~~   ** ...Setting curve maximum to 1.0 and simulation continues.\n   ** Warning ** GetDXCoils: Coil:Cooling:DX:SingleSpeed=\"COIL COOLING DX SINGLE SPEED 24 4KBTU/HR 11.0EER\", invalid\n   **   ~~~   ** ...Part Load Fraction Correlation Curve Name = DXCOOL-NECB2011-REF-COOLPLFFPLR 16 has out of range value.\n   **   ~~~   ** ...Curve maximum must be <= 1.0, curve max at PLR = 0.99 is 1.015\n   **   ~~~   ** ...Setting curve maximum to 1.0 and simulation continues.\n   ** Warning ** GetDXCoils: Coil:Cooling:DX:SingleSpeed=\"COIL COOLING DX SINGLE SPEED 22 14KBTU/HR 9.6EER\", invalid\n   **   ~~~   ** ...Part Load Fraction Correlation Curve Name = DXCOOL-NECB2011-REF-COOLPLFFPLR 14 has out of range value.\n   **   ~~~   ** ...Curve maximum must be <= 1.0, curve max at PLR = 0.99 is 1.015\n   **   ~~~   ** ...Setting curve maximum to 1.0 and simulation continues.\n   ** Warning ** GetDXCoils: Coil:Cooling:DX:SingleSpeed=\"COIL COOLING DX SINGLE SPEED 21 4KBTU/HR 11.0EER\", invalid\n   **   ~~~   ** ...Part Load Fraction Correlation Curve Name = DXCOOL-NECB2011-REF-COOLPLFFPLR 13 has out of range value.\n   **   ~~~   ** ...Curve maximum must be <= 1.0, curve max at PLR = 0.99 is 1.015\n   **   ~~~   ** ...Setting curve maximum to 1.0 and simulation continues.\n   ** Warning ** GetDXCoils: Coil:Cooling:DX:SingleSpeed=\"COIL COOLING DX SINGLE SPEED 20 14KBTU/HR 9.6EER\", invalid\n   **   ~~~   ** ...Part Load Fraction Correlation Curve Name = DXCOOL-NECB2011-REF-COOLPLFFPLR 12 has out of range value.\n   **   ~~~   ** ...Curve maximum must be <= 1.0, curve max at PLR = 0.99 is 1.015\n   **   ~~~   ** ...Setting curve maximum to 1.0 and simulation continues.\n   ** Warning ** GetDXCoils: Coil:Cooling:DX:SingleSpeed=\"COIL COOLING DX SINGLE SPEED 23 4KBTU/HR 11.0EER\", invalid\n   **   ~~~   ** ...Part Load Fraction Correlation Curve Name = DXCOOL-NECB2011-REF-COOLPLFFPLR 15 has out of range value.\n   **   ~~~   ** ...Curve maximum must be <= 1.0, curve max at PLR = 0.99 is 1.015\n   **   ~~~   ** ...Setting curve maximum to 1.0 and simulation continues.\n   ** Warning ** GetDXCoils: Coil:Cooling:DX:SingleSpeed=\"COIL COOLING DX SINGLE SPEED 16 3KBTU/HR 11.0EER\", invalid\n   **   ~~~   ** ...Part Load Fraction Correlation Curve Name = DXCOOL-NECB2011-REF-COOLPLFFPLR 7 has out of range value.\n   **   ~~~   ** ...Curve maximum must be <= 1.0, curve max at PLR = 0.99 is 1.015\n   **   ~~~   ** ...Setting curve maximum to 1.0 and simulation continues.\n   ** Warning ** GetDXCoils: Coil:Cooling:DX:SingleSpeed=\"COIL COOLING DX SINGLE SPEED 8 2KBTU/HR 11.0EER\", invalid\n   **   ~~~   ** ...Part Load Fraction Correlation Curve Name = DXCOOL-NECB2011-REF-COOLPLFFPLR 64 has out of range value.\n   **   ~~~   ** ...Curve maximum must be <= 1.0, curve max at PLR = 0.99 is 1.015\n   **   ~~~   ** ...Setting curve maximum to 1.0 and simulation continues.\n   ** Warning ** GetDXCoils: Coil:Cooling:DX:SingleSpeed=\"COIL COOLING DX SINGLE SPEED 38 3KBTU/HR 11.0EER\", invalid\n   **   ~~~   ** ...Part Load Fraction Correlation Curve Name = DXCOOL-NECB2011-REF-COOLPLFFPLR 31 has out of range value.\n   **   ~~~   ** ...Curve maximum must be <= 1.0, curve max at PLR = 0.99 is 1.015\n   **   ~~~   ** ...Setting curve maximum to 1.0 and simulation continues.\n   ** Warning ** GetDXCoils: Coil:Cooling:DX:SingleSpeed=\"COIL COOLING DX SINGLE SPEED 26 4KBTU/HR 11.0EER\", invalid\n   **   ~~~   ** ...Part Load Fraction Correlation Curve Name = DXCOOL-NECB2011-REF-COOLPLFFPLR 18 has out of range value.\n   **   ~~~   ** ...Curve maximum must be <= 1.0, curve max at PLR = 0.99 is 1.015\n   **   ~~~   ** ...Setting curve maximum to 1.0 and simulation continues.\n   ** Warning ** GetDXCoils: Coil:Cooling:DX:SingleSpeed=\"COIL COOLING DX SINGLE SPEED 1 93KBTU/HR 9.7EER\", invalid\n   **   ~~~   ** ...Part Load Fraction Correlation Curve Name = DXCOOL-NECB2011-REF-COOLPLFFPLR has out of range value.\n   **   ~~~   ** ...Curve maximum must be <= 1.0, curve max at PLR = 0.99 is 1.015\n   **   ~~~   ** ...Setting curve maximum to 1.0 and simulation continues.\n   ** Warning ** GetDXCoils: Coil:Cooling:DX:SingleSpeed=\"COIL COOLING DX SINGLE SPEED 45 7KBTU/HR 14.0SEER\", invalid\n   **   ~~~   ** ...Part Load Fraction Correlation Curve Name = DXCOOL-NECB2011-REF-COOLPLFFPLR 39 has out of range value.\n   **   ~~~   ** ...Curve maximum must be <= 1.0, curve max at PLR = 0.99 is 1.015\n   **   ~~~   ** ...Setting curve maximum to 1.0 and simulation continues.\n   ** Warning ** GetDXCoils: Coil:Cooling:DX:SingleSpeed=\"COIL COOLING DX SINGLE SPEED 50 4KBTU/HR 14.0SEER\", invalid\n   **   ~~~   ** ...Part Load Fraction Correlation Curve Name = DXCOOL-NECB2011-REF-COOLPLFFPLR 45 has out of range value.\n   **   ~~~   ** ...Curve maximum must be <= 1.0, curve max at PLR = 0.99 is 1.015\n   **   ~~~   ** ...Setting curve maximum to 1.0 and simulation continues.\n   ** Warning ** GetDXCoils: Coil:Cooling:DX:SingleSpeed=\"COIL COOLING DX SINGLE SPEED 44 4KBTU/HR 14.0SEER\", invalid\n   **   ~~~   ** ...Part Load Fraction Correlation Curve Name = DXCOOL-NECB2011-REF-COOLPLFFPLR 38 has out of range value.\n   **   ~~~   ** ...Curve maximum must be <= 1.0, curve max at PLR = 0.99 is 1.015\n   **   ~~~   ** ...Setting curve maximum to 1.0 and simulation continues.\n   ** Warning ** GetDXCoils: Coil:Cooling:DX:SingleSpeed=\"COIL COOLING DX SINGLE SPEED 53 4KBTU/HR 14.0SEER\", invalid\n   **   ~~~   ** ...Part Load Fraction Correlation Curve Name = DXCOOL-NECB2011-REF-COOLPLFFPLR 48 has out of range value.\n   **   ~~~   ** ...Curve maximum must be <= 1.0, curve max at PLR = 0.99 is 1.015\n   **   ~~~   ** ...Setting curve maximum to 1.0 and simulation continues.\n   ** Warning ** GetDXCoils: Coil:Cooling:DX:SingleSpeed=\"COIL COOLING DX SINGLE SPEED 52 4KBTU/HR 14.0SEER\", invalid\n   **   ~~~   ** ...Part Load Fraction Correlation Curve Name = DXCOOL-NECB2011-REF-COOLPLFFPLR 47 has out of range value.\n   **   ~~~   ** ...Curve maximum must be <= 1.0, curve max at PLR = 0.99 is 1.015\n   **   ~~~   ** ...Setting curve maximum to 1.0 and simulation continues.\n   ** Warning ** GetDXCoils: Coil:Cooling:DX:SingleSpeed=\"COIL COOLING DX SINGLE SPEED 49 4KBTU/HR 14.0SEER\", invalid\n   **   ~~~   ** ...Part Load Fraction Correlation Curve Name = DXCOOL-NECB2011-REF-COOLPLFFPLR 43 has out of range value.\n   **   ~~~   ** ...Curve maximum must be <= 1.0, curve max at PLR = 0.99 is 1.015\n   **   ~~~   ** ...Setting curve maximum to 1.0 and simulation continues.\n   ** Warning ** GetDXCoils: Coil:Cooling:DX:SingleSpeed=\"COIL COOLING DX SINGLE SPEED 51 16KBTU/HR 14.0SEER\", invalid\n   **   ~~~   ** ...Part Load Fraction Correlation Curve Name = DXCOOL-NECB2011-REF-COOLPLFFPLR 46 has out of range value.\n   **   ~~~   ** ...Curve maximum must be <= 1.0, curve max at PLR = 0.99 is 1.015\n   **   ~~~   ** ...Setting curve maximum to 1.0 and simulation continues.\n   ** Warning ** GetDXCoils: Coil:Cooling:DX:SingleSpeed=\"COIL COOLING DX SINGLE SPEED 57 3KBTU/HR 14.0SEER\", invalid\n   **   ~~~   ** ...Part Load Fraction Correlation Curve Name = DXCOOL-NECB2011-REF-COOLPLFFPLR 52 has out of range value.\n   **   ~~~   ** ...Curve maximum must be <= 1.0, curve max at PLR = 0.99 is 1.015\n   **   ~~~   ** ...Setting curve maximum to 1.0 and simulation continues.\n   ** Warning ** GetDXCoils: Coil:Cooling:DX:SingleSpeed=\"COIL COOLING DX SINGLE SPEED 54 2KBTU/HR 14.0SEER\", invalid\n   **   ~~~   ** ...Part Load Fraction Correlation Curve Name = DXCOOL-NECB2011-REF-COOLPLFFPLR 49 has out of range value.\n   **   ~~~   ** ...Curve maximum must be <= 1.0, curve max at PLR = 0.99 is 1.015\n   **   ~~~   ** ...Setting curve maximum to 1.0 and simulation continues.\n   ** Warning ** GetDXCoils: Coil:Cooling:DX:SingleSpeed=\"COIL COOLING DX SINGLE SPEED 64 3KBTU/HR 14.0SEER\", invalid\n   **   ~~~   ** ...Part Load Fraction Correlation Curve Name = DXCOOL-NECB2011-REF-COOLPLFFPLR 60 has out of range value.\n   **   ~~~   ** ...Curve maximum must be <= 1.0, curve max at PLR = 0.99 is 1.015\n   **   ~~~   ** ...Setting curve maximum to 1.0 and simulation continues.\n   ** Warning ** GetDXCoils: Coil:Cooling:DX:SingleSpeed=\"COIL COOLING DX SINGLE SPEED 61 4KBTU/HR 14.0SEER\", invalid\n   **   ~~~   ** ...Part Load Fraction Correlation Curve Name = DXCOOL-NECB2011-REF-COOLPLFFPLR 57 has out of range value.\n   **   ~~~   ** ...Curve maximum must be <= 1.0, curve max at PLR = 0.99 is 1.015\n   **   ~~~   ** ...Setting curve maximum to 1.0 and simulation continues.\n   ** Warning ** GetDXCoils: Coil:Cooling:DX:SingleSpeed=\"COIL COOLING DX SINGLE SPEED 58 1KBTU/HR 14.0SEER\", invalid\n   **   ~~~   ** ...Part Load Fraction Correlation Curve Name = DXCOOL-NECB2011-REF-COOLPLFFPLR 53 has out of range value.\n   **   ~~~   ** ...Curve maximum must be <= 1.0, curve max at PLR = 0.99 is 1.015\n   **   ~~~   ** ...Setting curve maximum to 1.0 and simulation continues.\n   ** Warning ** GetDXCoils: Coil:Cooling:DX:SingleSpeed=\"COIL COOLING DX SINGLE SPEED 55 1KBTU/HR 14.0SEER\", invalid\n   **   ~~~   ** ...Part Load Fraction Correlation Curve Name = DXCOOL-NECB2011-REF-COOLPLFFPLR 50 has out of range value.\n   **   ~~~   ** ...Curve maximum must be <= 1.0, curve max at PLR = 0.99 is 1.015\n   **   ~~~   ** ...Setting curve maximum to 1.0 and simulation continues.\n   ** Warning ** GetDXCoils: Coil:Cooling:DX:SingleSpeed=\"COIL COOLING DX SINGLE SPEED 65 1KBTU/HR 14.0SEER\", invalid\n   **   ~~~   ** ...Part Load Fraction Correlation Curve Name = DXCOOL-NECB2011-REF-COOLPLFFPLR 61 has out of range value.\n   **   ~~~   ** ...Curve maximum must be <= 1.0, curve max at PLR = 0.99 is 1.015\n   **   ~~~   ** ...Setting curve maximum to 1.0 and simulation continues.\n   ** Warning ** GetDXCoils: Coil:Cooling:DX:SingleSpeed=\"COIL COOLING DX SINGLE SPEED 62 2KBTU/HR 14.0SEER\", invalid\n   **   ~~~   ** ...Part Load Fraction Correlation Curve Name = DXCOOL-NECB2011-REF-COOLPLFFPLR 58 has out of range value.\n   **   ~~~   ** ...Curve maximum must be <= 1.0, curve max at PLR = 0.99 is 1.015\n   **   ~~~   ** ...Setting curve maximum to 1.0 and simulation continues.\n   ** Warning ** GetDXCoils: Coil:Cooling:DX:SingleSpeed=\"COIL COOLING DX SINGLE SPEED 59 6KBTU/HR 14.0SEER\", invalid\n   **   ~~~   ** ...Part Load Fraction Correlation Curve Name = DXCOOL-NECB2011-REF-COOLPLFFPLR 54 has out of range value.\n   **   ~~~   ** ...Curve maximum must be <= 1.0, curve max at PLR = 0.99 is 1.015\n   **   ~~~   ** ...Setting curve maximum to 1.0 and simulation continues.\n   ** Warning ** GetDXCoils: Coil:Cooling:DX:SingleSpeed=\"COIL COOLING DX SINGLE SPEED 48 1KBTU/HR 14.0SEER\", invalid\n   **   ~~~   ** ...Part Load Fraction Correlation Curve Name = DXCOOL-NECB2011-REF-COOLPLFFPLR 42 has out of range value.\n   **   ~~~   ** ...Curve maximum must be <= 1.0, curve max at PLR = 0.99 is 1.015\n   **   ~~~   ** ...Setting curve maximum to 1.0 and simulation continues.\n   ** Warning ** GetDXCoils: Coil:Cooling:DX:SingleSpeed=\"COIL COOLING DX SINGLE SPEED 47 3KBTU/HR 14.0SEER\", invalid\n   **   ~~~   ** ...Part Load Fraction Correlation Curve Name = DXCOOL-NECB2011-REF-COOLPLFFPLR 41 has out of range value.\n   **   ~~~   ** ...Curve maximum must be <= 1.0, curve max at PLR = 0.99 is 1.015\n   **   ~~~   ** ...Setting curve maximum to 1.0 and simulation continues.\n   ** Warning ** GetDXCoils: Coil:Cooling:DX:SingleSpeed=\"COIL COOLING DX SINGLE SPEED 60 3KBTU/HR 14.0SEER\", invalid\n   **   ~~~   ** ...Part Load Fraction Correlation Curve Name = DXCOOL-NECB2011-REF-COOLPLFFPLR 56 has out of range value.\n   **   ~~~   ** ...Curve maximum must be <= 1.0, curve max at PLR = 0.99 is 1.015\n   **   ~~~   ** ...Setting curve maximum to 1.0 and simulation continues.\n   ** Warning ** GetDXCoils: Coil:Cooling:DX:SingleSpeed=\"COIL COOLING DX SINGLE SPEED 56 3KBTU/HR 14.0SEER\", invalid\n   **   ~~~   ** ...Part Load Fraction Correlation Curve Name = DXCOOL-NECB2011-REF-COOLPLFFPLR 51 has out of range value.\n   **   ~~~   ** ...Curve maximum must be <= 1.0, curve max at PLR = 0.99 is 1.015\n   **   ~~~   ** ...Setting curve maximum to 1.0 and simulation continues.\n   ** Warning ** GetDXCoils: Coil:Cooling:DX:SingleSpeed=\"COIL COOLING DX SINGLE SPEED 66 3KBTU/HR 14.0SEER\", invalid\n   **   ~~~   ** ...Part Load Fraction Correlation Curve Name = DXCOOL-NECB2011-REF-COOLPLFFPLR 62 has out of range value.\n   **   ~~~   ** ...Curve maximum must be <= 1.0, curve max at PLR = 0.99 is 1.015\n   **   ~~~   ** ...Setting curve maximum to 1.0 and simulation continues.\n   ** Warning ** GetDXCoils: Coil:Cooling:DX:SingleSpeed=\"COIL COOLING DX SINGLE SPEED 63 4KBTU/HR 14.0SEER\", invalid\n   **   ~~~   ** ...Part Load Fraction Correlation Curve Name = DXCOOL-NECB2011-REF-COOLPLFFPLR 59 has out of range value.\n   **   ~~~   ** ...Curve maximum must be <= 1.0, curve max at PLR = 0.99 is 1.015\n   **   ~~~   ** ...Setting curve maximum to 1.0 and simulation continues.\n   ** Warning ** GetDXCoils: Coil:Cooling:DX:SingleSpeed=\"COIL COOLING DX SINGLE SPEED 46 1KBTU/HR 14.0SEER\", invalid\n   **   ~~~   ** ...Part Load Fraction Correlation Curve Name = DXCOOL-NECB2011-REF-COOLPLFFPLR 40 has out of range value.\n   **   ~~~   ** ...Curve maximum must be <= 1.0, curve max at PLR = 0.99 is 1.015\n   **   ~~~   ** ...Setting curve maximum to 1.0 and simulation continues.\n   ** Warning ** Since Zone Minimum Air Flow Input Method = CONSTANT, input for Fixed Minimum Air Flow Rate will be ignored.\n   **   ~~~   ** Occurs in AirTerminal:SingleDuct:VAV:Reheat = AIR TERMINAL SINGLE DUCT VAV REHEAT 1\n   ** Warning ** Since Zone Minimum Air Flow Input Method = CONSTANT, input for Fixed Minimum Air Flow Rate will be ignored.\n   **   ~~~   ** Occurs in AirTerminal:SingleDuct:VAV:Reheat = AIR TERMINAL SINGLE DUCT VAV REHEAT 2\n   ************* Beginning Plant Sizing Calculations\n   ** Warning ** The Standard Ratings is calculated for Coil:Cooling:DX:SingleSpeed = COIL COOLING DX SINGLE SPEED 7 5KBTU/HR 11.0EER but not at the AHRI test condition due to curve out of bound.\n   **   ~~~   **  Review the Standard Ratings calculations in the Engineering Reference for this coil type. Also, use Output:Diagnostics, DisplayExtraWarnings for further guidance.\n   ** Warning ** The Standard Ratings is calculated for Coil:Cooling:DX:SingleSpeed = COIL COOLING DX SINGLE SPEED 37 5KBTU/HR 11.0EER but not at the AHRI test condition due to curve out of bound.\n   **   ~~~   **  Review the Standard Ratings calculations in the Engineering Reference for this coil type. Also, use Output:Diagnostics, DisplayExtraWarnings for further guidance.\n   ** Warning ** The Standard Ratings is calculated for Coil:Cooling:DX:SingleSpeed = COIL COOLING DX SINGLE SPEED 25 15KBTU/HR 9.3EER but not at the AHRI test condition due to curve out of bound.\n   **   ~~~   **  Review the Standard Ratings calculations in the Engineering Reference for this coil type. Also, use Output:Diagnostics, DisplayExtraWarnings for further guidance.\n   ** Warning ** The Standard Ratings is calculated f
[...]
xjg9WHLOmkaRYxwdbTnGa4jTFaV8IFad9juI0xWmK0wajOE1x2qpvpTht8fwVn1ec9jyK0x7zgv/T2phfQBxxxBFHHHHEEUccccQRZ/c4G9MOSCONNNJII4000kgjjTTS7IfmbXQH4ogjjjjiiCOOOOKII444889TnHYfxWkPcdp5J+K0wx7EaYcfE6edf/8sdFZykwo6pIKOqaBTKuicCrqkgq6poFsqaPH7e5YU63aLlbvF2t1i9W6xfrdYwVus4S1W8RbreI91vOfu71jHe6zj/9feGf42ct1X+/v7V7AqkGjRXVl3KFKSG7dw1naSIqkL22lQGIbBXc3uypYlgaRsLwL/76+GS7Hkyr+rmTlnGE713A+xu0Od+3B07r3Tlfi4aNbx+uK0zaz24jQlJ75L7cVpSk68C7QXpyk58Q7QXpym5MSrXxCnSUGuRmeON0GcJgW5Sp052wRxmhTk6nXmYBPEadLO6Gp25lQTxGlSkKvZmSOtvThtM0cQp0lB8S0SxGlSULz4BXGaFBQvfkGcJgXFi18Rp2lJtm5nTjZFnKYl2eqdOdwUcZqWZGt45nxTxGnaXmnreOaIU8RpWpKt45lTDnEa4jTEafcIEadVA3Ea4jTEaZmBOA1xWqN3hThtY/4Gr0ectj4Qp61GB7+ntWN+AXDAAQcccMABBxxwwAEHnN7j7Jh2ABpooIEGGmiggQYaaKCBpj80j0Z3AA444IADDjjggAMOOOCA034+xGnLgThtJU477ok47agP4rSjrYnTDg8KizdNyRmaco5MOSNTztiUc2zKOTHlnJpyNj52LwW5Gp1clU6uTidXqZOr1clV6+TqdXIVO7maXbiaXdj2alezC1ezi0bNri9I24hq70cTYsI71N6OJsSE6769G02ICdd8ezOaEBOud8GLpuSYehwfY4IUTckxVTk+wwQjmpJjanN8gAk6NGUfNPU5Pr0EF5qSY+pzfHS1F6FtxAgeNCUnvD2CBU3JCZe74EBTcsLlLhjQlJxwuSv+MynI1ej4BFPkZ1KQq9TxIaaYz6QgV6/jc0zRnkk7o6vZ8VGmOM+kIFez49MM4RnCM4Rn9wgRnlUD4RnCM4RnmYHwDOFZo3eF8Gxj/gavR3i2PhCerUYHv1+1Y14AcMABBxxwwAEHHHDAAQec3uPsmC4AGmiggQYaaKCBBhpooIGmPzSPRlMADjjggAMOOOCAAw444IDTfj6EZ8uB8GwlPDvpifBs1Afh2WiLwrPDkcl4JgQNXUFHrqCRK2jsCjp2BZ24gk5dQe994F5JsnU72cqdbO1OtnonW7+TreDJ1vBkq3iydbywdbzw7d+2jhe2jhfNOt5EhLaepZjQ2ufEd0lxobXPiXcBxYbWPifeARQfWvucePVLRjQhyNXozPEmSdGEIFepM2eb5EUTgly9zhxskhpN2Bldzc6capIdTQhyNTtzpCmCtPUcyZAmBMW3SHKkCUHx4pcsaUJQvPglT5oQFC9+zZSmJNm6nTnZNFmakmSrd+Zw03xpSpKt4ZnzTVOmKXulreOZI06zpilJto5nTjnEaYjTEKfdI0ScVg3EaYjTEKdlBuI0xGmN3hXitI35G7wecdr6QJy2Gh38ntaO+QXAAQcccMABBxxwwAEHHHB6j7Nj2gFooIEGGmiggQYaaKCBBpr+0Dwa3QE44IADDjjggAMOOOCAA077+RCnLQfitJU47bQn4rRxH8Rp462J08aLj4W2ldy4goauoCNX0MgVNHYFHbuCTlxBp66gjc/fa0m2bidbuZOt3clW72Trd7IVPNkanmwVT7aOF7aOF77929bxwtbxolnH64vTNrPai9OUnPgutRenKTnxLtBenKbkxDtAe3GakhOvfkGcJgW5Gp053gRxmhTkKnXmbBPEaVKQq9eZg00Qp0k7o6vZmVNNEKdJQa5mZ4609uK0zRxBnCYFxbdIEKdJQfHiF8RpUlC8+AVxmhQUL35FnKYl2bqdOdkUcZqWZKt35nBTxGlakq3hmfNNEadpe6Wt45kjThGnaUm2jmdOOcRpiNMQp90jRJxWDcRpiNMQp2UG4jTEaY3eFeK0jfkbvB5x2vpAnLYaHfye1o75BcABBxxwwAEHHHDAAQcccHqPs2PaAWiggQYaaKCBBhpooIEGmv7QPBrdATjggAMOOOCAAw444IADTvv5EKctB+K0O3HaSU+8acd98KYd401rF4Q37eEgvGm1kvCm4U3Dm4Y3DW8a3jS8aXjT8Kb96s6IN+3hILxpDwbhTcObhjcNb5otCW9avSS8aTEM3jS8ae8PvGl3+HjT3h940+oMvGnNXo83DW9ao3eFN21j/gavx5u2PvCmrUYHv6a1Y3oBcMABBxxwwAEHHHDAAQec3uPsmHUAGmiggQYaaKCBBhpooIGmPzSPxnYADjjggAMOOOCAAw444IDTfj68acuBN23lTTvsiTjtpA/itJOtidMODwqLN03JGZpyjkw5I1PO2JRzbMo5MeWcmnI2PnYvBbkanVyVTq5OJ1epk6vVyVXr5Op1chU7uZpduJpd2PZqV7MLV7OLRs2uL0jbiGrvRxNiwjvU3o4mxITrvr0bTYgJ13x7M5oQE653wYum5Jh6HB9jghRNyTFVOT7DBCOakmNqc3yACTo0ZR809Tk+vQQXmpJj6nN8dLUXoW3ECB40JSe8PYIFTckJl7vgQFNywuUuGNCUnHC5K/4zKcjV6PgEU+RnUpCr1PEhppjPpCBXr+NzTNGeSTujq9nxUaY4z6QgV7Pj0wzhGcIzhGf3CBGeVQPhGcIzhGeZgfAM4Vmjd4XwbGP+Bq9HeLY+EJ6tRge/X7VjXgBwwAEHHHDAAQcccMABB5ze4+yYLgAaaKCBBhpooIEGGmiggaY/NI9GUwAOOOCAAw444IADDjjggNN+PoRny4HwbCU8Sz0Rnp32QXh2ukXh2eHIZDwTgoauoCNX0MgVNHYFHbuCTlxBp66g9z5wryTZup1s5U62didbvZOt38lW8GRreLJVPNk6Xtg6Xvj2b1vHC1vHi2YdbyJCW89STGjtc+K7pLjQ2ufEu4BiQ2ufE+8Aig+tfU68+iUjmhDkanTmeJOkaEKQq9SZs03yoglBrl5nDjZJjSbsjK5mZ041yY4mBLmanTnSFEHaeo5kSBOC4lskOdKEoHjxS5Y0IShe/JInTQiKF79mSlOSbN3OnGyaLE1JstU7c7hpvjQlydbwzPmmKdOUvdLW8cwRp1nTlCRbxzOnHOI0xGmI0+4RIk6rBuI0xGmI0zIDcRritEbvCnHaxvwNXo84bX0gTluNDn5Pa8f8AuCAAw444IADDjjggAMOOL3H2THtADTQQAMNNNBAAw000EADTX9oHo3uABxwwAEHHHDAAQcccMABp/18iNOWA3HaSpxW9EOcdnLYA3HaLeS2xGnjxcdC20puXEFDV9CRK2jkChq7go5dQSeuoFNX0Mbn77UkW7eTrdzJ1u5kq3ey9TvZCp5sDU+2iidbxwtbxwvf/m3reGHreNGs4/XFaZtZ7cVpSk58l9qL05SceBdoL05TcuIdoL04TcmJV78gTpOCXI3OHG+COE0KcpU6c7YJ4jQpyNXrzMEmiNOkndHV7MypJojTpCBXszNHWntx2maOIE6TguJbJIjTpKB48QviNCkoXvyCOE0Kihe/Ik7TkmzdzpxsijhNS7LVO3O4KeI0LcnW8Mz5pojTtL3S1vHMEaeI07QkW8czpxziNMRpiNPuESJOqwbiNMRpiNMyA3Ea4rRG7wpx2sb8DV6POG19IE5bjQ5+T2vH/ALggAMOOOCAAw444IADDji9x9kx7QA00EADDTTQQAMNNNBAA01/aB6N7gAccMABBxxwwAEHHHDAAaf9fIjTlgNx2kqcNuyJOC31QZyWtiZOOzwoLN40JWdoyjky5YxMOWNTzrEp58SUc2rK2fjYvRTkanRyVTq5Op1cpU6uVidXrZOr18lV7ORqduFqdmHbq13NLlzNLho1u74gbSOqvR9NiAnvUHs7mhATrvv2bjQhJlzz7c1oQky43gUvmpJj6nF8jAlSNCXHVOX4DBOMaEqOqc3xASbo0JR90NTn+PQSXGhKjqnP8dHVXoS2ESN40JSc8PYIFjQlJ1zuggNNyQmXu2BAU3LC5a74z6QgV6PjE0yRn0lBrlLHh5hiPpOCXL2OzzFFeybtjK5mx0eZ4jyTglzNjk8zhGcIzxCe3SNEeFYNhGcIzxCeZQbCM4Rnjd4VwrON+Ru8HuHZ+kB4thod/H7VjnkBwAEHHHDAAQcccMABBxxweo+zY7oAaKCBBhpooIEGGmiggQaa/tA8Gk0BOOCAAw444IADDjjggANO+/kQni0HwrOV8OyoJ8Kzog/Cs2KLwrPDkcl4JgQNXUFHrqCRK2jsCjp2BZ24gk5dQe994F5JsnU72cqdbO1OtnonW7+TreDJ1vBkq3iydbywdbzw7d+2jhe2jhfNOt5EhLaepZjQ2ufEd0lxobXPiXcBxYbWPifeARQfWvucePVLRjQhyNXozPEmSdGEIFepM2eb5EUTgly9zhxskhpN2Bldzc6capIdTQhyNTtzpCmCtPUcyZAmBMW3SHKkCUHx4pcsaUJQvPglT5oQFC9+zZSmJNm6nTnZNFmakmSrd+Zw03xpSpKt4ZnzTVOmKXulreOZI06zpilJto5nTjnEaYjTEKfdI0ScVg3EaYjTEKdlBuI0xGmN3hXitI35G7wecdr6QJy2Gh38ntaO+QXAAQcccMABBxxwwAEHHHB6j7Nj2gFooIEGGmiggQYaaKCBBpr+0Dwa3QE44IADDjjggAMOOOCAA077+RCnLQfitJU4bdQTcdqwD+K04dbEaePFx0LbSm5cQUNX0JEraOQKGruCjl1BJ66gU1fQxufvtSRbt5Ot3MnW7mSrd7L1O9kKnmwNT7aKJ1vHC1vHC9/+bet4Yet40azj9cVpm1ntxWlKTnyX2ovTlJx4F2gvTlNy4h2gvThNyYlXvyBOk4Jcjc4cb4I4TQpylTpztgniNCnI1evMwSaI06Sd0dXszKkmiNOkIFezM0dae3HaZo4gTpOC4lskiNOkoHjxC+I0KShe/II4TQqKF78iTtOSbN3OnGyKOE1LstU7c7gp4jQtydbwzPmmiNO0vdLW8cwRp4jTtCRbxzOnHOI0xGmI0+4RIk6rBuI0xGmI0zIDcRritEbvCnHaxvwNXo84bX0gTluNDn5Pa8f8AuCAAw444IADDjjggAMOOL3H2THtADTQQAMNNNBAAw000EADTX9oHo3uABxwwAEHHHDAAQcccMABp/18iNOWA3HaSpw27ok47agP4rSjrYnTDg8KizdNyRmaco5MOSNTztiUc2zKOTHlnJpyNj52LwW5Gp1clU6uTidXqZOr1clV6+TqdXIVO7maXbiaXdj2alezC1ezi0bNri9I24hq70cTYsI71N6OJsSE6769G02ICdd8ezOaEBOud8GLpuSYehwfY4IUTckxVTk+wwQjmpJjanN8gAk6NGUfNPU5Pr0EF5qSY+pzfHS1F6FtxAgeNCUnvD2CBU3JCZe74EBTcsLlLhjQlJxwuSv+MynI1ej4BFPkZ1KQq9TxIaaYz6QgV6/jc0zRnkk7o6vZ8VGmOM+kIFez49MM4RnCM4Rn9wgRnlUD4RnCM4RnmYHwDOFZo3eF8Gxj/gavR3i2PhCerUYHv1+1Y14AcMABBxxwwAEHHHDAAQec3uPsmC4AGmiggQYaaKCBBhpooIGmPzSPRlMADjjggAMOOOCAAw444IDTfj6EZ8uB8GwlPDvuifBs1Afh2WiLwrPDkcl4JgQNXUFHrqCRK2jsCjp2BZ24gk5dQe994F5JsnU72cqdbO1OtnonW7+TreDJ1vBkq3iydbywdbzw7d+2jhe2jhfNOt5EhLaepZjQ2ufEd0lxobXPiXcBxYbWPifeARQfWvucePVLRjQhyNXozPEmSdGEIFepM2eb5EUTgly9zhxskhpN2Bldzc6capIdTQhyNTtzpCmCtPUcyZAmBMW3SHKkCUHx4pcsaUJQvPglT5oQFC9+zZSmJNm6nTnZNFmakmSrd+Zw03xpSpKt4ZnzTVOmKXulreOZI06zpilJto5nTjnEaYjTEKfdI0ScVg3EaYjTEKdlBuI0xGmN3hXitI35G7wecdr6QJy2Gh38ntaO+QXAAQcccMABBxxwwAEHHHB6j7Nj2gFooIEGGmiggQYaaKCBBpr+0Dwa3QE44IADDjjggAMOOOCAA077+RCnLQfitJU47aQn4rRxH8Rp462J08aLj4W2ldy4goauoCNX0MgVNHYFHbuCTlxBp66gjc/fa0m2bidbuZOt3clW72Trd7IVPNkanmwVT7aOF7aOF77929bxwtbxolnH64vTNrPai9OUnPgutRenKTnxLtBenKbkxDtAe3GakhOvfkGcJgW5Gp053gRxmhTkKnXmbBPEaVKQq9eZg00Qp0k7o6vZmVNNEKdJQa5mZ4609uK0zRxBnCYFxbdIEKdJQfHiF8RpUlC8+AVxmhQUL35FnKYl2bqdOdkUcZqWZKt35nBTxGlakq3hmfNNEadpe6Wt45kjThGnaUm2jmdOOcRpiNMQp90jRJxWDcRpiNMQp2UG4jTEaY3eFeK0jfkbvB5x2vpAnLYaHfye1o75BcABBxxwwAEHHHDAAQcccHqPs2PaAWiggQYaaKCBBhpooIEGmv7QPBrdATjggAMOOOCAAw444IADTvv5EKctB+K0lTjttCfitOM+iNOOtyZOOzwoLN40JWdoyjky5YxMOWNTzrEp58SUc2rK2fjYvRTkanRyVTq5Op1cpU6uVidXrZOr18lV7ORqduFqdmHbq13NLlzNLho1u74gbSOqvR9NiAnvUHs7mhATrvv2bjQhJlzz7c1oQky43gUvmpJj6nF8jAlSNCXHVOX4DBOMaEqOqc3xASbo0JR90NTn+PQSXGhKjqnP8dHVXoS2ESN40JSc8PYIFjQlJ1zuggNNyQmXu2BAU3LC5a74z6QgV6PjE0yRn0lBrlLHh5hiPpOCXL2OzzFFeybtjK5mx0eZ4jyTglzNjk8zhGcIzxCe3SNEeFYNhGcIzxCeZQbCM4Rnjd4VwrON+Ru8HuHZ+kB4thod/H7VjnkBwAEHHHDAAQcccMABBxxweo+zY7oAaKCBBhpooIEGGmiggQaa/tA8Gk0BOOCAAw444IADDjjggANO+/kQni0HwrM74VlffGcnffCdneA7w3f28Mfs8Z3hO8N3hu+sThC+M3xn+M7wneE7w3eG7wzfWaODC98ZvrNaQfjOHg7Cd/ZwEL6zh4PwnUUw+M7wnb0/8J3d4eM7e3/gO6sz8J01ez2+M3xnjd4VvrON+Ru8Ht/Z+sB3thod/HrVjmkBwAEHHHDAAQcccMABBxxweo+zY7YAaKCBBhpooIEGGmiggQaa/tA8GksBOOCAAw444IADDjjggANO+/nwnS0HvrOV7+ywJ8Kz0z4Iz063KDw7HJmMZ0LQ0BV05AoauYLGrqBjV9CJK+jUFfTeB+6VJFu3k63cydbuZKt3svU72QqebA1PtoonW8cLW8cL3/5t63hh63jRrONNRGjrWYoJrX1OfJcUF1r7nHgXUGxo7XPiHUDxobXPiVe/ZEQTglyNzhxvkhRNCHKVOnO2SV40IcjV68zBJqnRhJ3R1ezMqSbZ0YQgV7MzR5oiSFvPkQxpQlB8iyRHmhAUL37JkiYExYtf8qQJQfHi10xpSpKt25mTTZOlKUm2emcON82XpiTZGp453zRlmrJX2jqeOeI0a5qSZOt45pRDnIY4DXHaPULEadVAnIY4DXFaZiBOQ5zW6F0hTtuYv8HrEaetD8Rpq9HB72ntmF8AHHDAAQcccMABBxxwwAGn9zg7ph2ABhpooIEGGmiggQYaaKDpD82j0R2AAw444IADDjjggAMOOOC0nw9x2nIgTluJ01I/xGmnhz0Qp91CbkucNl58LLSt5MYVNHQFHbmCRq6gsSvo2BV04go6dQVtfP5eS7J1O9nKnWztTrZ6J1u/k63gydbwZKt4snW8sHW88O3fto4Xto4XzTpeX5y2mdVenKbkxHepvThNyYl3gfbiNCUn3gHai9OUnHj1C+I0KcjV6MzxJojTpCBXqTNnmyBOk4Jcvc4cbII4TdoZXc3OnGqCOE0KcjU7c6S1F6dt5gjiNCkovkWCOE0Kihe/IE6TguLFL4jTpKB48SviNC3J1u3MyaaI07QkW70zh5siTtOSbA3PnG+KOE3bK20dzxxxijhNS7J1PHPKIU5DnIY47R4h4rRqIE5DnIY4LTMQpyFOa/SuEKdtzN/g9YjT1gfitNXo4Pe0dswvAA444IADDjjggAMOOOCA03ucHdMOQAMNNNBAAw000EADDTTQ9Ifm0egOwAEHHHDAAQcccMABBxxw2s+HOG05EKetxGlFT8RpqQ/itLQ1cdrhQWHxpik5Q1POkSlnZMoZm3KOTTknppxTU87Gx+6lIFejk6vSydXp5Cp1crU6uWqdXL1OrmInV7MLV7ML217tanbhanbRqNn1BWkbUe39aEJMeIfa29GEmHDdt3ejCTHhmm9vRhNiwvUueNGUHFOP42NMkKIpOaYqx2eYYERTckxtjg8wQYem7IOmPsenl+BCU3JMfY6PrvYitI0YwYOm5IS3R7CgKTnhchccaEpOuNwFA5qSEy53xX8mBbkaHZ9givxMCnKVOj7EFPOZFOTqdXyOKdozaWd0NTs+yhTnmRTkanZ8miE8Q3iG8OweIcKzaiA8Q3iG8CwzEJ4hPGv0rhCebczf4PUIz9YHwrPV6OD3q3bMCwAOOOCAAw444IADDjjggNN7nB3TBUADDTTQQAMNNNBAAw000PSH5tFoCsABBxxwwAEHHHDAAQcccNrPh/BsORCerYRnw54Iz4o+CM+KLQrPDkcm45kQNHQFHbmCRq6gsSvo2BV04go6dQW994F7JcnW7WQrd7K1O9nqnWz9TraCJ1vDk63iydbxwtbxwrd/2zpe2DpeNOt4ExHaepZiQmufE98lxYXWPifeBRQbWvuceAdQfGjtc+LVLxnRhCBXozPHmyRFE4Jcpc6cbZIXTQhy9TpzsElqNGFndDU7c6pJdjQhyNXszJGmCNLWcyRDmhAU3yLJkSYExYtfsqQJQfHilzxpQlC8+DVTmpJk63bmZNNkaUqSrd6Zw03zpSlJtoZnzjdNmabslbaOZ444zZqmJNk6njnlEKchTkOcdo8QcVo1EKchTkOclhmI0xCnNXpXiNM25m/wesRp6wNx2mp08HtaO+YXAAcccMABBxxwwAEHHHDA6T3OjmkHoIEGGmiggQYaaKCBBhpo+kPzaHQH4IADDjjggAMOOOCAAw447edDnLYciNNW4rSjnojThn0Qpw23Jk4bLz4W2lZy4woauoKOXEEjV9DYFXTsCjpxBZ26gjY+f68l2bqdbOVOtnYnW72Trd/JVvBka3iyVTzZOl7YOl749m9bxwtbx4tmHa8vTtvMai9OU3Liu9RenKbkxLtAe3GakhPvAO3FaUpOvPoFcZoU5Gp05ngTxGlSkKvUmbNNEKdJQa5eZw42QZwm7YyuZmdONUGcJgW5mp050tqL0zZzBHGaFBTfIkGcJgXFi18Qp0lB8eIXxGlSULz4FXGalmTrduZkU8RpWpKt3pnDTRGnaUm2hmfON0Wcpu2Vto5njjhFnKYl2TqeOeUQpyFOQ5x2jxBxWjUQpyFOQ5yWGYjTEKc1eleI0zbmb/B6xGnrA3HaanTwe1o75hcABxxwwAEHHHDAAQcccMDpPc6OaQeggQYaaKCBBhpooIEGGmj6Q/NodAfggAMOOOCAAw444IADDjjt50OcthyI01bitFFPxGlHfRCnHW1NnHZ4UFi8aUrO0JRzZMoZmXLGppxjU86JKefUlLPxsXspyNXo5Kp0cnU6uUqdXK1OrlonV6+Tq9jJ1ezC1ezCtle7ml24ml00anZ9QdpGVHs/mhAT3qH2djQhJlz37d1oQky45tub0YSYcL0LXjQlx9Tj+BgTpGhKjqnK8RkmGNGUHFOb4wNM0KEp+6Cpz/HpJbjQlBxTn+Ojq70IbSNG8KApOeHtESxoSk643AUHmpITLnfBgKbkhMtd8Z9JQa5GxyeYIj+Tglyljg8xxXwmBbl6HZ9jivZM2hldzY6PMsV5JgW5mh2fZgjPEJ4hPLtHiPCsGgjPEJ4hPMsMhGcIzxq9K4RnG/M3eD3Cs/WB8Gw1Ovj9qh3zAoADDjjggAMOOOCAAw444PQeZ8d0AdBAAw000EADDTTQQAMNNP2heTSaAnDAAQcccMABBxxwwAEHnPbzITxbDoRnK+HZuCfCs1EfhGejLQrPDkcm45kQNHQFHbmCRq6gsSvo2BV04go6dQW994F7JcnW7WQrd7K1O9nqnWz9TraCJ1vDk63iydbxwtbxwrd/2zpe2DpeNOt4ExHaepZiQmufE98lxYXWPifeBRQbWvuceAdQfGjtc+LVLxnRhCBXozPHmyRFE4Jcpc6cbZIXTQhy9TpzsElqNGFndDU7c6pJdjQhyNXszJGmCNLWcyRDmhAU3yLJkSYExYtfsqQJQfHilzxpQlC8+DVTmpJk63bmZNNkaUqSrd6Zw03zpSlJtoZnzjdNmabslbaOZ444zZqmJNk6njnlEKchTkOcdo8QcVo1EKchTkOclhmI0xCnNXpXiNM25m/wesRp6wNx2mp08HtaO+YXAAcccMABBxxwwAEHHHDA6T3OjmkHoIEGGmiggQYaaKCBBhpo+kPzaHQH4IADDjjggAMOOOCAAw447edDnLYciNNW4rTjnojTxn0Qp423Jk4bLz4W2lZy4woauoKOXEEjV9DYFXTsCjpxBZ26gjY+f68l2bqdbOVOtnYnW72Trd/JVvBka3iyVTzZOl7YOl749m9bxwtbx4tmHa8vTtvMai9OU3Liu9RenKbkxLtAe3GakhPvAO3FaUpOvPoFcZoU5Gp05ngTxGlSkKvUmbNNEKdJQa5eZw42QZwm7YyuZmdONUGcJgW5mp050tqL0zZzBHGaFBTfIkGcJgXFi18Qp0lB8eIXxGlSULz4FXGalmTrduZkU8RpWpKt3pnDTRGnaUm2hmfON0Wcpu2Vto5njjhFnKYl2TqeOeUQpyFOQ5x2jxBxWjUQpyFOQ5yWGYjTEKc1eleI0zbmb/B6xGnrA3HaanTwe1o75hcABxxwwAEHHHDAAQcccMDpPc6OaQeggQYaaKCBBhpooIEGGmj6Q/NodAfggAMOOOCAAw444IADDjjt50OcthyI01bitJOeiNOO+yBOO96aOO3woLB405ScoSnnyJQzMuWMTTnHppwTU86pKWfjY/dSkKvRyVXp5Op0cpU6uVqdXLVOrl4nV7GTq9mFq9mFba92NbtwNbto1Oz6grSNqPZ+NCEmvEPt7WhCTLju27vRhJhwzbc3owkx4XoXvGhKjqnH8TEmSNGUHFOV4zNMMKIpOaY2xweYoENT9kFTn+PTS3ChKTmmPsdHV3sR2kaM4EFTcsLbI1jQlJxwuQsONCUnXO6CAU3JCZe74j+TglyNjk8wRX4mBblKHR9iivlMCnL1Oj7HFO2ZtDO6mh0fZYrzTApyNTs+zRCeITxDeHaPEOFZNRCeITxDeJYZCM8QnjV6VwjPNuZv8HqEZ+sD4dlqdPD7VTvmBQAHHHDAAQcccMABBxxwwOk9zo7pAqCBBhpooIEGGmiggQYaaPpD82g0BeCAAw444IADDjjggAMOOO3nQ3i2HAjPVsKz054Iz076IDw72ZrwLB0dHhyujXRk8Z8ZY4fdxB51EzvqJnbcTexxN7En3cSedhO78XF/Z25H6yx1tNBSRystdbTUUkdrLXW02FJHqy11tNxSR+ut6Gi9FV2dax2tt6Kj9VYo662+WC6X3N4z50ute3fbW+h8qXV3svaOOl9q3V2svcHOl1p3BxP8dsbYblZX7ccFQYZnjO1mgdV+VhDMecbYbtZY7QcFQbNnPBW6WWW1nxIEJ58xtptVVvsRob3AL5cq+PyMsXVvrWD7M8bW3cAEF6Axtu4GJpgCjbF1NzDFI+jM7Wid1X5SUKSDztyOllrthwXFUOjM7Wi11X5eUHSGznOio/VW+5FBcR86cztab7WfGhAlIkpElHiPEFFiNRAlIkpElJgZiBIRJTZ6V4gSN+Zv8HpEiesDUeJqdPB7mTvmEwEHHHDAAQcccMABBxxwwOk9zo5pRqCBBhpooIEGGmiggQYaaPpD82j0JuCAAw444IADDjjggAMOOO3n+weIEr8qf7gup5P5zbQc7H/2BG/ibnkTy+mP5y/Lwd8mVfP+fHV1Pai+YdXvOR8dftYTheJpHxSKp1tTKI5GB8PTtTEcWRSKxthhN7FH3cSOuokddxN73E3sSTexp93EbpgOnLkdrbPU0UJLHa201NFSSx2ttdTRYksdrbbU0XJLHa23oqP1VnR1rnW03oqO1luhrLf6CsVccnuFoi+17t1tr1D0pdbdydorFH2pdXex9gpFX2rdHUxQKBpju1ldtR8XBIWiMbabBVb7WUFQKBpju1ljtR8UBIWi8VToZpXVfkoQFIrG2G5WWe1HhPYKxVyqoFA0xta9tYJC0RhbdwMTFIrG2LobmKBQNMbW3cAUhaIzt6N1VvtJQVEoOnM7Wmq1HxYUhaIzt6PVVvt5QVEoOs+JjtZb7UcGRaHozO1ovdV+akChiEIRheI9QhSK1UChiEIRhWJmoFBEodjoXaFQ3Ji/wetRKK4PFIqr0cFvbO6YaQQccMABBxxwwAEHHHDAAaf3ODsmIIEGGmiggQYaaKCBBhpooOkPzaMRn4ADDjjggAMOOOCAAw444LSfD4Xir4/Hq1C8ub6+eDv4+Hy6UCf2wplYHB7uvjOxgtyWM3Hx723lTKacoSnnyJQzMuWMTTnHppwTU86pKWfDKSAFuRqdXJVOrk4nV6mTq9XJVevk6nVyFTu5ml24ml3Y9mpXswtXs4tGza7v8tuIai/vE2LCO9RezyfEhOu+vYBPiAnXfHvFnhATrndBoqfkmHocH2OCF0/JMVU5PsME1Z2SY2pzfIAJ9jplHzT1OT69BCGdkmPqc3x0tXfMbcQIUjklJ7w9gjZOyQmXuyCGU3LC5S6o35SccLkrcjcpyNXo+ARTfG1SkKvU8SGmKNikIFev43NMsapJO6Or2fFRpojSpCBXs+PT7F7Qf03Pr6bn87eDNHg22P/y5vJJZaEaP/uPyeWzw/Rs8e+flC+fDVN0zB1u/D96H398dHR6apii6H6KYfdTHHU/xaj7KcbdT3Hc/RQn3U9x2v0UGyd7V3NsYX1n/mLWN0f8N1u+OeK/9PLNEf9Nr2+OLSzytIVVnrawzDN/q+w7/+K/cPbNEf9dtG+OLazzYgsnedHuKC8Wc0zm0RyH9X6MOxwWxcnYMEX8WGWbIv5m2KaIvxe2KeLHKtsU8Y5rmyLecG1TxPutbYr4sco2ReaxyjdH/FjlmyPebn1zxI9VvjnixyrfHPFjlW+OLSzyzGOVb44tLPPMY5Xv/Isfq3xzbOMc38I6z/xigG+Odut8WM3x2fQ8mKM4rfe3VSkdHw+HhinixyrbFPFjlW2K+LHKNkX8WGWbIt5xbVPEG65tini/tU0Rb7e2KTK/EOibI95ufXPE261vjni79c0Rb7e+OeLHKt8c8a8s+uaIf5vRN0f8i46+ObawzjOPVb45trDOM49Vvjm2sM4zj1W5OY6qOb56cxPNcVLvsar6Ly6Nfm+YIn6ssk0RP1bZpogfq2xTxI9VtinixyrbFPFjlW2K+LHKNkW83dqmyDxW+eaIt1vfHPF265sj3m59c8TbrW+O+LHKN0f8WOWbI36s8s0RP1b55tjCOs88Vvnm2MI6zzxW+ebYwjrPPFbl5hhVc/ytPIvmOK73WPXJJ8+fHx8bpogfq2xTxI9VtinixyrbFPFjlW2K+LHKNkX8WGWbIn6ssk0Rb7e2KTKPVb454u3WN0e83frmiLdb3xzxduubI36s8s0RP1b55ogfq3xzxI9Vvjm2sM4zj1W+ObawzjOPVb45trDOM49VuTnGi0e3mzKaY1zvser58/HYMkX8WGWbIn6ssk0RP1bZpogfq2xTxI9VtinixyrbFPFjlW2KeLu1TZF5rPLNEW+3vjni7dY3R7zd+uaIt1vfHPFjlW+O+LHKN0f8WOWbI36s8s2xhXWeeazyzbGFdZ55rPLNsYV1nnmsys1xXM3xl6vo1+KLUb3HqpOTohiNDFPEj1W2KeLHKtsU8WOVbYr4sco2RfxYZZsifqyyTRE/VtmmyHmnTFNkZWuuOeLt1jdHTmTlmiPnuHLNkdNfuebIOd9cc+R0cK45cqY41xw5iZxrji2s86x6zjXHFtZ5VljnmmML6zyruXs3xzd1DK9LDfPgo8Fl+dOdQXYhjt2f/fj66cIA+6Aq9s7lPCvnv7+6uTyb7Y8Onw5SGj0dDKt/K0b1dLM/32KsPNRnZ88n8/L11fTtxz+fz96ZkFfvv4Yw+jbg8+lZOf3iphIT1/7CiuPtJsdfysnsZlq+w6jcysv73rGRm8tc5jKXucxlLnOZy1zmMpe5zGUuc5nLXOYyl7nMZS5zmctc5jKXucxlLnOZy1zmMpe5zGUuc5nLXOYyl7nMZS5zmctc5jKXucxlLnOZy/+nLr89uPqxnE7Pz8q/TKoP1qaDQ/HzqtVHY2ebH439spyel7Plx2v3nt59gPj64mp+cHF+WT74EdnZr31O9+FP1s4OFv/p+euri8n8/OryFmpvNi+vn70oX11Ny716n3z+c/m6vDzbfEPv/mx/fPh0MKw+uXxYfZC5+p+9i/LVvAJ7IPou9uDb1+X808t5dX9up3h1c/lyQbr/ZPD3ByLuCMvVV3/94Ge5q3H+arA/f3M+O5gtviv1JqrG2hcd3N6/Tycv3+z/L3DTtDv86qPjt+zL3G+vr2bnVeAnt39c593cjSrmV6imVz81Q7rDOr88K6v18Cw9bfjVd+O7tl/46ry8qPq2v7yn79bJ6+nVzXV5NvjNbwb/tPzznw++fTOZLT//Xi2wJ+tX3/7q1dsbcjB5/fqzao6Di/Ly9fzN4HeDYvDvg72PLy72Bh9uvmJ2cf6y3H+Wnnx9+M2TB9fbvXdyNR3sf3f7Vg7/dfDd7TTLqi7nrf7sX253nObfoGpUNV7mff3dNwffl28HH3300bub1y5xkbr8tn/X9K3ejRfTcvJ9my/+peHXNH19db+W7+6jqtZVGZZNWYgcDr6dzGbnry/Ls+eVImL29eJOftPuVt59o69vZm/2234vbr+lH777frZfSRcXH9Z5lwfVK9vOMptPr74v683z7rVtZ7q6nrw8n7+tN9Xyxa3f1WKKu6naptxtJJvbSpvl0Xjzqcbdct7ceAbPBqlpWpPlVp/1l6eLU7XW63956JmiGh98MPivv341+J/P//rF4MvPv/jqT//5h8GfP//Dn54P/vjpF5/WC/jsdtcuf55Uj2iD+dVgdjWdDy5vfrjtwcvBQmkyG0xmL28fXs4vX9dIvLv3Vc7ayTx5OnhRf3OZlvOb6eXgejKdlZ9dXE3m+5Nqy39y+61c+7MXiz+rdTMffkRbm3b5Fh4K/qVb08vq+XOx3BeLff+3Z+Wryc3FfHA9vbrdw8rfPh389p9PTp4///TT33YsngEHHHDAAQcccMABBxxwwPm/iTOY3fxw+/8CD87K6g8HZ5O3FdG0PIMGGmiggQYaaKCBBhpooIEmT/PT4lez3qN5cXFTggMOOOCAAw444IADDjjggNMGZ/XfDUzVfzfwy5vovxs4TIufsH388dHR6SmkkEIKKaSQQgoppJBCCimkkELaD9JiQTqZR6SHC9LhsChOxpBCCimkkEIKKaSQQgoppJBCCmk/SIcV6WfT84C0OF2QpnR8PBxCCimkkEIKKaSQQgoppJBCCimk/SA9qki/enMTkZ4sSE9vx+j3kEIKKaSQQgoppJBCCimkkEIKaT9IRxXp38qziPR4QfrJJ8+fHx9DCimkkEIKKaSQQgoppJBCCimk/SAdL/5m4qaMSMcL0ufPx2NIIYUUUkghhRRSSCGFFFJIIYW0L6THFelfriKzYDFakJ6cFMVoBCmkkEIKKaSQQgoppJBCCimkkG6N9A7lbDr5af/BsJ8P5ufzi/LLN5Pr8mBe/jzf/+0fr26ms4cx3t7/yk/OfygvZ+dXlxflbJHwQMQHHww+PjsbTAaLpMFP5/M3g9nVD+XgbPjAV85+fH0wub4uL8/296q595488AV342Ayn0/3937eezoYHzb8ore3X1TU/6LZ/O1F+Q7v2eTy5Zur6e3X712UrxrQLjNeXV3On/1Unr9+M68yXlxdnNXPePe9+e+P//vdDf6ifFNO5oPPX74cfPnyzW+f5L5Jv/tg9nJ6fj3/t/A1v/vg7PzHX78cfk0cdps1OD/7aO9l1eDnt296cn5ZTr8tDtPeYHErPto7O59dX0zefnh+eXF77dmLi6uX3//rXgx4m/ruPQzmb69vv766Gx98N/lx8u5Ps19ZjR8n06ptg48GZ+c/XF+UB5flT1/++Hp/759/BfLp4OjwcPE/Dy6fKvdsMp/cBn/9972LyYvyYu/DvbPy1eTmYj64nl69Or8o956+u/Ltz3sfpoPDp3s/Ti5uyr0Px6cHp2vj5PTp3stqz7lNuN1Gnj//9NO9X57WSi06SR12knrUSeqok9RxJ6nHnaSedJJ62klqOuwmtpvVlbpZXqmb9ZW6WWCpmxWWulliqZs1lrpZZKmbVVZ0s8qKjs6wblZZ0c0qK4RVNpjd/PDDxn/Gu8UTwrQ8axBa8942C615Z5uF1ryvzUJr7l3NQmvuXM1Ca+5bzUJr7lrNQmvuWc1C6z4YNEztZE3VfSxomNrJqqr7UNAwtZN1VfeRoGFqJyur7gNBw9RO1lbdx4GGqd2cV52srbrPAg1T266tn84v5+pjwIvqBfVTa97Whqk1b2vD1Jq3tWFqzS2rYWrNLathas0tq2FqzS2rYWrNLathat3ngaax3ayuuk8ETWO7WV91nwmaxnazwuo+FTSN7WaN1X0uaBrbzSqr+2TQNLajM6ybVVb34aBpbKNV9k2dHzgsfzY4+GhwWf509wONxc8x9mc/vn66+IHEgz+5uPsB46yc//7q5vJstj86fDpIafR0MKz+rRjV++nHz7cYq5+bnp09n8zL11fTtx//fD579wO61a2o8VPM24DPp2fl9Iub6udltb+w4ni7yfGXcjK7mZbvMKof+S2/BerPZRc/SNqc6styel7Olri3My2/IdcXV/OD6qdbD045+7X3/TDp7GDRu+uri8n8/OryFmpvNi+vn70oX11Ny716Tfpz+bq8PNt8Q+/+bH9824Jh1YTqh2Gp+p/ljz0f/InwXezBt6/L+aeX8+r+3E7x6uby5YJ0/8ng7zV+7lkRlquv/vrBtVGN81eD/fmb89ltr6uvqzdRNda+6OD2/n06eflm/3+Bm6bd4S9/NrjM/fb6anZeBX5y+8d13s3dqGJ+hWp69VMzpDus88uzslq4z9LThl99N75r+4WvzsuLqm/7y3v6bp28nl7dXJdng9/8ZvBPyz//+eDbN5PZcj+pFtiT9atvf/Xq7Q05mLx+/Vk1x8FFefl6/mbwu0Ex+PfB3scXF3uDDzdfMbs4f1nuP0tPvj785smD6+3eO7maDva/u30rh/86+O52mmVVl/NWf/YvHw1S829QNaoaL/O+/u6bg+/L2+3to4/e3bx2iYvU5bf9u6Zv9W68mJaT79t88S8Nv6bp66v7tXx3H1W1rsqwbMriYDz49t3v9JRni9/qmX29uJPftLuVd9/o65vZm/2234vbb+mH776f7VfSxcWHdd7lQfXKtrPM5tOr78t687x7bduZrq4nL8/nb+tNtXxx63e1mOJuqrYpdxvJ5rbSZnk03nyqcbecNzeewbNBaprWZLnVZ/3l6eJUrfX6Xx56pqjGBx8M/uuvXw3+5/O/fjH48vMvvvrTf/5h8OfP//Cn54M/fvrFp/UCPrvdtcufJ9Uj2mB+NZhd3T5IX978cNuDl4PFI+JsMJm9vH14Ob98XSPx7t5XOWsn8+Tp4EX9zWVazm+ml4PryXRWfnZxNZnvT6ot/8ntt3Ltz14s/qzWzXz4EW1t2uVbeCj4l3/A716+9wPY5S9YVj9Q/Yf8Kig44IADDjjggAMOOOCAA07vce7/gktFNC3PoIEGGmiggQYaaKCBBhpooMnT3PuVwIqm+hU/cMABBxxwwAEHHHDAAQcccP6BxsOvyh+uy+lkfjMtB/ufPcF5uFPOw79Nqsb9sVz84+MfXpyXl/NB9S2rzIfl2c3t/X82OD78rCcSxKIPEsRiaxLExUdP20qYTDlDU86RKWdkyhmbco5NOSemnFNTzoZdQApyNTq5Kp1cnU6uUidXq5Or1snV6+QqdnI1u3A1u7Dt1a5mF65mF42aXV/atxHVXtMnxIR3qL2KT4gJ13173Z4QE6759ko9ISZc74I2T8kx9Tg+xgQZnpJjqnJ8hgmKOyXH1Ob4ABPEdco+aOpzfHoJOjolx9Tn+OhqL5nbiBG0ckpOeHsEdZySEy53QQ+n5ITLXVDAKTnhclc0b1KQq9HxCabI26QgV6njQ0xRsklBrl7H55giWpN2Rlez46NM0adJQa5mx6cZUrReSNG4zGUuc5nLXOYyl7nMZS5zmctc5jKXubxLl98eXP1YTqfnZ+VfJtVfVKWDQ6T4a+8EKf5qIMVvNJDiI8VvMJDivz+Q4r8/kOI3HEjxkeL/6kCKDw444IADDjjggAMOOOCAA04flJLQQAMNNNBAAw000EADDTT9oXk0KktwwAEHHHDAAQcccMABB5z28/0DpPifnP9QXs7Ory4vytkMJf5uKfGvpt8PPn316vzleXn58u1KhL9dBf7y1e9dWf+/7/793T9X6ct/Wf3jxdXZ2+qfb+Y/XPzb//v/Cy5wsg=="
               },
               {
                  "name" : "annual_peak_electric_demand",
                  "units" : "kW",
                  "value" : 314.91296000000006
               },
               {
                  "name" : "first_year_capital_cost",
                  "units" : "$",
                  "value" : 0
               },
               {
                  "name" : "annual_utility_cost",
                  "units" : "$",
                  "value" : 26955.330000000002
               },
               {
                  "name" : "total_lifecycle_cost",
                  "units" : "$",
                  "value" : 451297.29999999999
               }
            ],
            "step_warnings" : [ "A table in Annual Overview section returned false and was skipped." ]
         }
      }
   ],
   "updated_at" : "20170710T190315Z",
   "weather_file" : "USA_CO_Denver.Intl.AP.725650_TMY3.epw"
}
