{
   "completed_at" : "20170710T191657Z",
   "completed_status" : "Success",
   "created_at" : "2017-07-10 19:13:51 +0000",
   "current_step" : 5,
   "description" : "",
   "eplusout_err" : "Program Version,EnergyPlus, Version 8.7.0-78a111df4a, YMD=2017.07.10 19:15,IDD_Version 8.7.0\n   ************* IDF Context for following error/warning message:\n   ************* Note -- lines truncated at 300 characters, if necessary...\n   *************      5 Building,\n   ************* indicated Name=NECB 2011-RetailStripmall-NECB HDD Method-CAN_NS_Greenwood.713970_CWEC.epw created: 2017-07-10 19:13:57 +0000\n   ************* Only last 1 lines before error line shown.....\n   *************      6   NECB 2011-RetailStripmall-NECB HDD Method-CAN_NS_Greenwood.713970_CWEC.epw created: 2017-07-10 19:13:57 +0000, !- Name\n   ** Warning ** IP: IDF line~6 Alpha Argument length exceeds maximum, will be truncated=  NECB 2011-RetailStripmall-NECB HDD Method-CAN_NS_Greenwood.713970_CWEC.epw created: 2017-07-10 19:13:57 +000\n   **   ~~~   ** Will be processed as Alpha=NECB 2011-RETAILSTRIPMALL-NECB HDD METHOD-CAN_NS_GREENWOOD.713970_CWEC.EPW CREATED: 2017-07-10 19:13:57 +0000\n   ************* Beginning Zone Sizing Calculations\n   ** Warning ** ProcessScheduleInput: Schedule:Day:Interval=\"ECONOMIZER MAX OA FRACTION 100 PCT DEFAULT\", Blank Schedule Type Limits Name input -- will not be validated.\n   ** Warning ** ProcessScheduleInput: Schedule:Day:Interval=\"SCHEDULE DAY 1\", Blank Schedule Type Limits Name input -- will not be validated.\n   ** Warning ** ProcessScheduleInput: Schedule:Day:Interval=\"SCHEDULE DAY 10\", Blank Schedule Type Limits Name input -- will not be validated.\n   ** Warning ** ProcessScheduleInput: Schedule:Day:Interval=\"SCHEDULE DAY 11\", Blank Schedule Type Limits Name input -- will not be validated.\n   ** Warning ** ProcessScheduleInput: Schedule:Day:Interval=\"SCHEDULE DAY 12\", Blank Schedule Type Limits Name input -- will not be validated.\n   ** Warning ** ProcessScheduleInput: Schedule:Day:Interval=\"SCHEDULE DAY 13\", Blank Schedule Type Limits Name input -- will not be validated.\n   ** Warning ** ProcessScheduleInput: Schedule:Day:Interval=\"SCHEDULE DAY 14\", Blank Schedule Type Limits Name input -- will not be validated.\n   ** Warning ** ProcessScheduleInput: Schedule:Day:Interval=\"SCHEDULE DAY 15\", Blank Schedule Type Limits Name input -- will not be validated.\n   ** Warning ** ProcessScheduleInput: Schedule:Day:Interval=\"SCHEDULE DAY 16\", Blank Schedule Type Limits Name input -- will not be validated.\n   ** Warning ** ProcessScheduleInput: Schedule:Day:Interval=\"SCHEDULE DAY 17\", Blank Schedule Type Limits Name input -- will not be validated.\n   ** Warning ** ProcessScheduleInput: Schedule:Day:Interval=\"SCHEDULE DAY 18\", Blank Schedule Type Limits Name input -- will not be validated.\n   ** Warning ** ProcessScheduleInput: Schedule:Day:Interval=\"SCHEDULE DAY 19\", Blank Schedule Type Limits Name input -- will not be validated.\n   ** Warning ** ProcessScheduleInput: Schedule:Day:Interval=\"SCHEDULE DAY 2\", Blank Schedule Type Limits Name input -- will not be validated.\n   ** Warning ** ProcessScheduleInput: Schedule:Day:Interval=\"SCHEDULE DAY 20\", Blank Schedule Type Limits Name input -- will not be validated.\n   ** Warning ** ProcessScheduleInput: Schedule:Day:Interval=\"SCHEDULE DAY 21\", Blank Schedule Type Limits Name input -- will not be validated.\n   ** Warning ** ProcessScheduleInput: Schedule:Day:Interval=\"SCHEDULE DAY 22\", Blank Schedule Type Limits Name input -- will not be validated.\n   ** Warning ** ProcessScheduleInput: Schedule:Day:Interval=\"SCHEDULE DAY 23\", Blank Schedule Type Limits Name input -- will not be validated.\n   ** Warning ** ProcessScheduleInput: Schedule:Day:Interval=\"SCHEDULE DAY 24\", Blank Schedule Type Limits Name input -- will not be validated.\n   ** Warning ** ProcessScheduleInput: Schedule:Day:Interval=\"SCHEDULE DAY 25\", Blank Schedule Type Limits Name input -- will not be validated.\n   ** Warning ** ProcessScheduleInput: Schedule:Day:Interval=\"SCHEDULE DAY 26\", Blank Schedule Type Limits Name input -- will not be validated.\n   ** Warning ** ProcessScheduleInput: Schedule:Day:Interval=\"SCHEDULE DAY 27\", Blank Schedule Type Limits Name input -- will not be validated.\n   ** Warning ** ProcessScheduleInput: Schedule:Day:Interval=\"SCHEDULE DAY 28\", Blank Schedule Type Limits Name input -- will not be validated.\n   ** Warning ** ProcessScheduleInput: Schedule:Day:Interval=\"SCHEDULE DAY 29\", Blank Schedule Type Limits Name input -- will not be validated.\n   ** Warning ** ProcessScheduleInput: Schedule:Day:Interval=\"SCHEDULE DAY 30\", Blank Schedule Type Limits Name input -- will not be validated.\n   ** Warning ** ProcessScheduleInput: Schedule:Day:Interval=\"SCHEDULE DAY 31\", Blank Schedule Type Limits Name input -- will not be validated.\n   ** Warning ** ProcessScheduleInput: Schedule:Day:Interval=\"SCHEDULE DAY 32\", Blank Schedule Type Limits Name input -- will not be validated.\n   ** Warning ** ProcessScheduleInput: Schedule:Day:Interval=\"SCHEDULE DAY 33\", Blank Schedule Type Limits Name input -- will not be validated.\n   ** Warning ** ProcessScheduleInput: Schedule:Day:Interval=\"SCHEDULE DAY 34\", Blank Schedule Type Limits Name input -- will not be validated.\n   ** Warning ** ProcessScheduleInput: Schedule:Day:Interval=\"SCHEDULE DAY 35\", Blank Schedule Type Limits Name input -- will not be validated.\n   ** Warning ** ProcessScheduleInput: Schedule:Day:Interval=\"SCHEDULE DAY 36\", Blank Schedule Type Limits Name input -- will not be validated.\n   ** Warning ** ProcessScheduleInput: Schedule:Day:Interval=\"SCHEDULE DAY 37\", Blank Schedule Type Limits Name input -- will not be validated.\n   ** Warning ** ProcessScheduleInput: Schedule:Day:Interval=\"SCHEDULE DAY 38\", Blank Schedule Type Limits Name input -- will not be validated.\n   ** Warning ** ProcessScheduleInput: Schedule:Day:Interval=\"SCHEDULE DAY 39\", Blank Schedule Type Limits Name input -- will not be validated.\n   ** Warning ** ProcessScheduleInput: Schedule:Day:Interval=\"SCHEDULE DAY 40\", Blank Schedule Type Limits Name input -- will not be validated.\n   ** Warning ** ProcessScheduleInput: Schedule:Day:Interval=\"SCHEDULE DAY 41\", Blank Schedule Type Limits Name input -- will not be validated.\n   ** Warning ** ProcessScheduleInput: Schedule:Day:Interval=\"SCHEDULE DAY 42\", Blank Schedule Type Limits Name input -- will not be validated.\n   ** Warning ** ProcessScheduleInput: Schedule:Day:Interval=\"SCHEDULE DAY 43\", Blank Schedule Type Limits Name input -- will not be validated.\n   ** Warning ** ProcessScheduleInput: Schedule:Day:Interval=\"SCHEDULE DAY 44\", Blank Schedule Type Limits Name input -- will not be validated.\n   ** Warning ** ProcessScheduleInput: Schedule:Day:Interval=\"SCHEDULE DAY 45\", Blank Schedule Type Limits Name input -- will not be validated.\n   ** Warning ** ProcessScheduleInput: Schedule:Day:Interval=\"SCHEDULE DAY 46\", Blank Schedule Type Limits Name input -- will not be validated.\n   ** Warning ** ProcessScheduleInput: Schedule:Day:Interval=\"SCHEDULE DAY 47\", Blank Schedule Type Limits Name input -- will not be validated.\n   ** Warning ** ProcessScheduleInput: Schedule:Day:Interval=\"SCHEDULE DAY 48\", Blank Schedule Type Limits Name input -- will not be validated.\n   ** Warning ** ProcessScheduleInput: Schedule:Day:Interval=\"SCHEDULE DAY 49\", Blank Schedule Type Limits Name input -- will not be validated.\n   ** Warning ** ProcessScheduleInput: Schedule:Day:Interval=\"SCHEDULE DAY 5\", Blank Schedule Type Limits Name input -- will not be validated.\n   ** Warning ** ProcessScheduleInput: Schedule:Day:Interval=\"SCHEDULE DAY 50\", Blank Schedule Type Limits Name input -- will not be validated.\n   ** Warning ** ProcessScheduleInput: Schedule:Day:Interval=\"SCHEDULE DAY 51\", Blank Schedule Type Limits Name input -- will not be validated.\n   ** Warning ** ProcessScheduleInput: Schedule:Day:Interval=\"SCHEDULE DAY 52\", Blank Schedule Type Limits Name input -- will not be validated.\n   ** Warning ** ProcessScheduleInput: Schedule:Day:Interval=\"SCHEDULE DAY 53\", Blank Schedule Type Limits Name input -- will not be validated.\n   ** Warning ** ProcessScheduleInput: Schedule:Day:Interval=\"SCHEDULE DAY 54\", Blank Schedule Type Limits Name input -- will not be validated.\n   ** Warning ** ProcessScheduleInput: Schedule:Day:Interval=\"SCHEDULE DAY 6\", Blank Schedule Type Limits Name input -- will not be validated.\n   ** Warning ** ProcessScheduleInput: Schedule:Day:Interval=\"SCHEDULE DAY 7\", Blank Schedule Type Limits Name input -- will not be validated.\n   ** Warning ** ProcessScheduleInput: Schedule:Day:Interval=\"SCHEDULE DAY 8\", Blank Schedule Type Limits Name input -- will not be validated.\n   ** Warning ** ProcessScheduleInput: Schedule:Day:Interval=\"SCHEDULE DAY 9\", Blank Schedule Type Limits Name input -- will not be validated.\n   ** Warning ** ProcessScheduleInput: Schedule:Year=\"ECONOMIZER MAX OA FRACTION 100 PCT\", Blank Schedule Type Limits Name input -- will not be validated.\n   ** Warning ** ProcessScheduleInput: Schedule:Year=\"SCHEDULE RULESET 10\", Blank Schedule Type Limits Name input -- will not be validated.\n   ** Warning ** ProcessScheduleInput: Schedule:Year=\"SCHEDULE RULESET 11\", Blank Schedule Type Limits Name input -- will not be validated.\n   ** Warning ** ProcessScheduleInput: Schedule:Year=\"SCHEDULE RULESET 12\", Blank Schedule Type Limits Name input -- will not be validated.\n   ** Warning ** ProcessScheduleInput: Schedule:Year=\"SCHEDULE RULESET 13\", Blank Schedule Type Limits Name input -- will not be validated.\n   ** Warning ** ProcessScheduleInput: Schedule:Year=\"SCHEDULE RULESET 14\", Blank Schedule Type Limits Name input -- will not be validated.\n   ** Warning ** ProcessScheduleInput: Schedule:Year=\"SCHEDULE RULESET 15\", Blank Schedule Type Limits Name input -- will not be validated.\n   ** Warning ** ProcessScheduleInput: Schedule:Year=\"SCHEDULE RULESET 16\", Blank Schedule Type Limits Name input -- will not be validated.\n   ** Warning ** ProcessScheduleInput: Schedule:Year=\"SCHEDULE RULESET 17\", Blank Schedule Type Limits Name input -- will not be validated.\n   ** Warning ** ProcessScheduleInput: Schedule:Year=\"SCHEDULE RULESET 18\", Blank Schedule Type Limits Name input -- will not be validated.\n   ** Warning ** ProcessScheduleInput: Schedule:Year=\"SCHEDULE RULESET 19\", Blank Schedule Type Limits Name input -- will not be validated.\n   ** Warning ** ProcessScheduleInput: Schedule:Year=\"SCHEDULE RULESET 20\", Blank Schedule Type Limits Name input -- will not be validated.\n   ** Warning ** ProcessScheduleInput: Schedule:Year=\"SCHEDULE RULESET 21\", Blank Schedule Type Limits Name input -- will not be validated.\n   ** Warning ** ProcessScheduleInput: Schedule:Year=\"SCHEDULE RULESET 22\", Blank Schedule Type Limits Name input -- will not be validated.\n   ** Warning ** ProcessScheduleInput: Schedule:Year=\"SCHEDULE RULESET 23\", Blank Schedule Type Limits Name input -- will not be validated.\n   ** Warning ** ProcessScheduleInput: Schedule:Year=\"SCHEDULE RULESET 24\", Blank Schedule Type Limits Name input -- will not be validated.\n   ** Warning ** ProcessScheduleInput: Schedule:Year=\"SCHEDULE RULESET 25\", Blank Schedule Type Limits Name input -- will not be validated.\n   ** Warning ** ProcessScheduleInput: Schedule:Year=\"SCHEDULE RULESET 26\", Blank Schedule Type Limits Name input -- will not be validated.\n   ** Warning ** ProcessScheduleInput: Schedule:Year=\"SCHEDULE RULESET 27\", Blank Schedule Type Limits Name input -- will not be validated.\n   ** Warning ** ProcessScheduleInput: Schedule:Year=\"SCHEDULE RULESET 28\", Blank Schedule Type Limits Name input -- will not be validated.\n   ** Warning ** ProcessScheduleInput: Schedule:Year=\"SCHEDULE RULESET 29\", Blank Schedule Type Limits Name input -- will not be validated.\n   ** Warning ** ProcessScheduleInput: Schedule:Year=\"SCHEDULE RULESET 3\", Blank Schedule Type Limits Name input -- will not be validated.\n   ** Warning ** ProcessScheduleInput: Schedule:Year=\"SCHEDULE RULESET 30\", Blank Schedule Type Limits Name input -- will not be validated.\n   ** Warning ** ProcessScheduleInput: Schedule:Year=\"SCHEDULE RULESET 31\", Blank Schedule Type Limits Name input -- will not be validated.\n   ** Warning ** ProcessScheduleInput: Schedule:Year=\"SCHEDULE RULESET 32\", Blank Schedule Type Limits Name input -- will not be validated.\n   ** Warning ** ProcessScheduleInput: Schedule:Year=\"SCHEDULE RULESET 4\", Blank Schedule Type Limits Name input -- will not be validated.\n   ** Warning ** ProcessScheduleInput: Schedule:Year=\"SCHEDULE RULESET 5\", Blank Schedule Type Limits Name input -- will not be validated.\n   ** Warning ** ProcessScheduleInput: Schedule:Year=\"SCHEDULE RULESET 6\", Blank Schedule Type Limits Name input -- will not be validated.\n   ** Warning ** ProcessScheduleInput: Schedule:Year=\"SCHEDULE RULESET 7\", Blank Schedule Type Limits Name input -- will not be validated.\n   ** Warning ** ProcessScheduleInput: Schedule:Year=\"SCHEDULE RULESET 8\", Blank Schedule Type Limits Name input -- will not be validated.\n   ** Warning ** ProcessScheduleInput: Schedule:Year=\"SCHEDULE RULESET 9\", Blank Schedule Type Limits Name input -- will not be validated.\n   ** Warning ** ProcessScheduleInput: Schedule:Constant=\"ALWAYS OFF DISCRETE\", Blank Schedule Type Limits Name input -- will not be validated.\n   ** Warning ** ProcessScheduleInput: Schedule:Constant=\"ALWAYS ON CONTINUOUS\", Blank Schedule Type Limits Name input -- will not be validated.\n   ** Warning ** CheckUsedConstructions: There are 24 nominally unused constructions in input.\n   **   ~~~   ** For explicit details on each unused construction, use Output:Diagnostics,DisplayExtraWarnings;\n   ************* Beginning System Sizing Calculations\n   ************* Beginning Plant Sizing Calculations\n   ** Warning ** GetDXCoils: Coil:Cooling:DX:SingleSpeed=\"COIL COOLING DX SINGLE SPEED 10 68KBTU/HR 9.7EER\", invalid\n   **   ~~~   ** ...Part Load Fraction Correlation Curve Name = DXCOOL-NECB2011-REF-COOLPLFFPLR 1 has out of range value.\n   **   ~~~   ** ...Curve maximum must be <= 1.0, curve max at PLR = 0.99 is 1.015\n   **   ~~~   ** ...Setting curve maximum to 1.0 and simulation continues.\n   ** Warning ** GetDXCoils: Coil:Cooling:DX:SingleSpeed=\"COIL COOLING DX SINGLE SPEED 1 67KBTU/HR 9.7EER\", invalid\n   **   ~~~   ** ...Part Load Fraction Correlation Curve Name = DXCOOL-NECB2011-REF-COOLPLFFPLR has out of range value.\n   **   ~~~   ** ...Curve maximum must be <= 1.0, curve max at PLR = 0.99 is 1.015\n   **   ~~~   ** ...Setting curve maximum to 1.0 and simulation continues.\n   ** Warning ** GetDXCoils: Coil:Cooling:DX:SingleSpeed=\"COIL COOLING DX SINGLE SPEED 3 35KBTU/HR 14.0SEER\", invalid\n   **   ~~~   ** ...Part Load Fraction Correlation Curve Name = DXCOOL-NECB2011-REF-COOLPLFFPLR 3 has out of range value.\n   **   ~~~   ** ...Curve maximum must be <= 1.0, curve max at PLR = 0.99 is 1.015\n   **   ~~~   ** ...Setting curve maximum to 1.0 and simulation continues.\n   ** Warning ** GetDXCoils: Coil:Cooling:DX:SingleSpeed=\"COIL COOLING DX SINGLE SPEED 2 34KBTU/HR 14.0SEER\", invalid\n   **   ~~~   ** ...Part Load Fraction Correlation Curve Name = DXCOOL-NECB2011-REF-COOLPLFFPLR 2 has out of range value.\n   **   ~~~   ** ...Curve maximum must be <= 1.0, curve max at PLR = 0.99 is 1.015\n   **   ~~~   ** ...Setting curve maximum to 1.0 and simulation continues.\n   ** Warning ** GetDXCoils: Coil:Cooling:DX:SingleSpeed=\"COIL COOLING DX SINGLE SPEED 6 34KBTU/HR 14.0SEER\", invalid\n   **   ~~~   ** ...Part Load Fraction Correlation Curve Name = DXCOOL-NECB2011-REF-COOLPLFFPLR 6 has out of range value.\n   **   ~~~   ** ...Curve maximum must be <= 1.0, curve max at PLR = 0.99 is 1.015\n   **   ~~~   ** ...Setting curve maximum to 1.0 and simulation continues.\n   ** Warning ** GetDXCoils: Coil:Cooling:DX:SingleSpeed=\"COIL COOLING DX SINGLE SPEED 8 35KBTU/HR 14.0SEER\", invalid\n   **   ~~~   ** ...Part Load Fraction Correlation Curve Name = DXCOOL-NECB2011-REF-COOLPLFFPLR 8 has out of range value.\n   **   ~~~   ** ...Curve maximum must be <= 1.0, curve max at PLR = 0.99 is 1.015\n   **   ~~~   ** ...Setting curve maximum to 1.0 and simulation continues.\n   ** Warning ** GetDXCoils: Coil:Cooling:DX:SingleSpeed=\"COIL COOLING DX SINGLE SPEED 7 35KBTU/HR 14.0SEER\", invalid\n   **   ~~~   ** ...Part Load Fraction Correlation Curve Name = DXCOOL-NECB2011-REF-COOLPLFFPLR 7 has out of range value.\n   **   ~~~   ** ...Curve maximum must be <= 1.0, curve max at PLR = 0.99 is 1.015\n   **   ~~~   ** ...Setting curve maximum to 1.0 and simulation continues.\n   ** Warning ** GetDXCoils: Coil:Cooling:DX:SingleSpeed=\"COIL COOLING DX SINGLE SPEED 5 34KBTU/HR 14.0SEER\", invalid\n   **   ~~~   ** ...Part Load Fraction Correlation Curve Name = DXCOOL-NECB2011-REF-COOLPLFFPLR 5 has out of range value.\n   **   ~~~   ** ...Curve maximum must be <= 1.0, curve max at PLR = 0.99 is 1.015\n   **   ~~~   ** ...Setting curve maximum to 1.0 and simulation continues.\n   ** Warning ** GetDXCoils: Coil:Cooling:DX:SingleSpeed=\"COIL COOLING DX SINGLE SPEED 4 34KBTU/HR 14.0SEER\", invalid\n   **   ~~~   ** ...Part Load Fraction Correlation Curve Name = DXCOOL-NECB2011-REF-COOLPLFFPLR 4 has out of range value.\n   **   ~~~   ** ...Curve maximum must be <= 1.0, curve max at PLR = 0.99 is 1.015\n   **   ~~~   ** ...Setting curve maximum to 1.0 and simulation continues.\n   ** Warning ** GetDXCoils: Coil:Cooling:DX:SingleSpeed=\"COIL COOLING DX SINGLE SPEED 9 36KBTU/HR 14.0SEER\", invalid\n   **   ~~~   ** ...Part Load Fraction Correlation Curve Name = DXCOOL-NECB2011-REF-COOLPLFFPLR 9 has out of range value.\n   **   ~~~   ** ...Curve maximum must be <= 1.0, curve max at PLR = 0.99 is 1.015\n   **   ~~~   ** ...Setting curve maximum to 1.0 and simulation continues.\n   ** Warning ** The Standard Ratings is calculated for Coil:Cooling:DX:SingleSpeed = COIL COOLING DX SINGLE SPEED 10 68KBTU/HR 9.7EER but not at the AHRI test condition due to curve out of bound.\n   **   ~~~   **  Review the Standard Ratings calculations in the Engineering Reference for this coil type. Also, use Output:Diagnostics, DisplayExtraWarnings for further guidance.\n   ** Warning ** The Standard Ratings is calculated for Coil:Cooling:DX:SingleSpeed = COIL COOLING DX SINGLE SPEED 1 67KBTU/HR 9.7EER but not at the AHRI test condition due to curve out of bound.\n   **   ~~~   **  Review the Standard Ratings calculations in the Engineering Reference for this coil type. Also, use Output:Diagnostics, DisplayExtraWarnings for further guidance.\n   ** Warning ** The Standard Ratings is calculated for Coil:Cooling:DX:SingleSpeed = COIL COOLING DX SINGLE SPEED 3 35KBTU/HR 14.0SEER but not at the AHRI test condition due to curve out of bound.\n   **   ~~~   **  Review the Standard Ratings calculations in the Engineering Reference for this coil type. Also, use Output:Diagnostics, DisplayExtraWarnings for further guidance.\n   ** Warning ** The Standard Ratings is calculated for Coil:Cooling:DX:SingleSpeed = COIL COOLING DX SINGLE SPEED 2 34KBTU/HR 14.0SEER but not at the AHRI test condition due to curve out of bound.\n   **   ~~~   **  Review the Standard Ratings calculations in the Engineering Reference for this coil type. Also, use Output:Diagnostics, DisplayExtraWarnings for further guidance.\n   ** Warning ** The Standard Ratings is calculated for Coil:Cooling:DX:SingleSpeed = COIL COOLING DX SINGLE SPEED 6 34KBTU/HR 14.0SEER but not at the AHRI test condition due to curve out of bound.\n   **   ~~~   **  Review the Standard Ratings calculations in the Engineering Reference for this coil type. Also, use Output:Diagnostics, DisplayExtraWarnings for further guidance.\n   ** Warning ** The Standard Ratings is calculated for Coil:Cooling:DX:SingleSpeed = COIL COOLING DX SINGLE SPEED 8 35KBTU/HR 14.0SEER but not at the AHRI test condition due to curve out of bound.\n   **   ~~~   **  Review the Standard Ratings calculations in the Engineering Reference for this coil type. Also, use Output:Diagnostics, DisplayExtraWarnings for further guidance.\n   ** Warning ** The Standard Ratings is calculated for Coil:Cooling:DX:SingleSpeed = COIL COOLING DX SINGLE SPEED 7 35KBTU/HR 14.0SEER but not at the AHRI test condition due to curve out of bound.\n   **   ~~~   **  Review the Standard Ratings calculations in the Engineering Reference for this coil type. Also, use Output:Diagnostics, DisplayExtraWarnings for further guidance.\n   ** Warning ** The Standard Ratings is calculated for Coil:Cooling:DX:SingleSpeed = COIL COOLING DX SINGLE SPEED 5 34KBTU/HR 14.0SEER but not at the AHRI test condition due to curve out of bound.\n   **   ~~~   **  Review the Standard Ratings calculations in the Engineering Reference for this coil type. Also, use Output:Diagnostics, DisplayExtraWarnings for further guidance.\n   ** Warning ** The Standard Ratings is calculated for Coil:Cooling:DX:SingleSpeed = COIL COOLING DX SINGLE SPEED 4 34KBTU/HR 14.0SEER but not at the AHRI test condition due to curve out of bound.\n   **   ~~~   **  Review the Standard Ratings calculations in the Engineering Reference for this coil type. Also, use Output:Diagnostics, DisplayExtraWarnings for further guidance.\n   ** Warning ** The Standard Ratings is calculated for Coil:Cooling:DX:SingleSpeed = COIL COOLING DX SINGLE SPEED 9 36KBTU/HR 14.0SEER but not at the AHRI test condition due to curve out of bound.\n   **   ~~~   **  Review the Standard Ratings calculations in the Engineering Reference for this coil type. Also, use Output:Diagnostics, DisplayExtraWarnings for further guidance.\n   ** Warning ** Check input. Pump nominal power or motor efficiency is set to 0, for pump=SERVICE WATER LOOP PUMP\n   ** Warning ** Output:Meter: invalid Name=\"DISTRICTCOOLING:FACILITY\" - not found.\n   ** Warning ** Output:Meter: invalid Name=\"DISTRICTHEATING:FACILITY\" - not found.\n   ** Warning ** Output:Meter:MeterFileOnly requested for \"Electricity:Facility\" (TimeStep), already on \"Output:Meter\". Will report to both eplusout.eso and eplusout.mtr\n   ************* Testing Individual Branch Integrity\n   ************* All Branches passed integrity testing\n   ************* Testing Individual Supply Air Path Integrity\n   ************* All Supply Air Paths passed integrity testing\n   ************* Testing Individual Return Air Path Integrity\n   ************* All Return Air Paths passed integrity testing\n   ************* No node connection errors were found.\n   ************* Beginning Simulation\n   ** Warning ** CalcDoe2DXCoil: Coil:Cooling:DX:SingleSpeed \"COIL COOLING DX SINGLE SPEED 1 67KBTU/HR 9.7EER\" - Air-cooled condenser inlet dry-bulb temperature below 0 C. Outdoor dry-bulb temperature = -24.03\n   **   ~~~   **  ... Occurrence info = RUN PERIOD 1, 01/01 09:02 - 09:05\n   **   ~~~   ** ... Operation at low ambient temperatures may require special performance curves.\n   ** Warning ** CalcDoe2DXCoil: Coil:Cooling:DX:SingleSpeed \"COIL COOLING DX SINGLE SPEED 3 35KBTU/HR 14.0SEER\" - Air-cooled condenser inlet dry-bulb temperature below 0 C. Outdoor dry-bulb temperature = -24.03\n   **   ~~~   **  ... Occurrence info = RUN PERIOD 1, 01/01 09:02 - 09:05\n   **   ~~~   ** ... Operation at low ambient temperatures may require special performance curves.\n   ** Warning ** CalcDoe2DXCoil: Coil:Cooling:DX:SingleSpeed \"COIL COOLING DX SINGLE SPEED 2 34KBTU/HR 14.0SEER\" - Air-cooled condenser inlet dry-bulb temperature below 0 C. Outdoor dry-bulb temperature = -24.03\n   **   ~~~   **  ... Occurrence info = RUN PERIOD 1, 01/01 09:02 - 09:05\n   **   ~~~   ** ... Operation at low ambient temperatures may require special performance curves.\n   ** Warning ** CalcDoe2DXCoil: Coil:Cooling:DX:SingleSpeed \"COIL COOLING DX SINGLE SPEED 6 34KBTU/HR 14.0SEER\" - Air-cooled condenser inlet dry-bulb temperature below 0 C. Outdoor dry-bulb temperature = -24.03\n   **   ~~~   **  ... Occurrence info = RUN PERIOD 1, 01/01 09:02 - 09:05\n   **   ~~~   ** ... Operation at low ambient temperatures may require special performance curves.\n   ** Warning ** CalcDoe2DXCoil: Coil:Cooling:DX:SingleSpeed \"COIL COOLING DX SINGLE SPEED 8 35KBTU/HR 14.0SEER\" - Air-cooled condenser inlet dry-bulb temperature below 0 C. Outdoor dry-bulb temperature = -24.03\n   **   ~~~   **  ... Occurrence info = RUN PERIOD 1, 01/01 09:02 - 09:05\n   **   ~~~   ** ... Operation at low ambient temperatures may require special performance curves.\n   ** Warning ** CalcDoe2DXCoil: Coil:Cooling:DX:SingleSpeed \"COIL COOLING DX SINGLE SPEED 7 35KBTU/HR 14.0SEER\" - Air-cooled condenser inlet dry-bulb temperature below 0 C. Outdoor dry-bulb temperature = -24.03\n   **   ~~~   **  ... Occurrence info = RUN PERIOD 1, 01/01 09:02 - 09:05\n   **   ~~~   ** ... Operation at low ambient temperatures may require special performance curves.\n   ** Warning ** CalcDoe2DXCoil: Coil:Cooling:DX:SingleSpeed \"COIL COOLING DX SINGLE SPEED 5 34KBTU/HR 14.0SEER\" - Air-cooled condenser inlet dry-bulb temperature below 0 C. Outdoor dry-bulb temperature = -24.03\n   **   ~~~   **  ... Occurrence info = RUN PERIOD 1, 01/01 09:02 - 09:05\n   **   ~~~   ** ... Operation at low ambient temperatures may require special performance curves.\n   ** Warning ** CalcDoe2DXCoil: Coil:Cooling:DX:SingleSpeed \"COIL COOLING DX SINGLE SPEED 4 34KBTU/HR 14.0SEER\" - Air-cooled condenser inlet dry-bulb temperature below 0 C. Outdoor dry-bulb temperature = -24.03\n   **   ~~~   **  ... Occurrence info = RUN PERIOD 1, 01/01 09:02 - 09:05\n   **   ~~~   ** ... Operation at low ambient temperatures may require special performance curves.\n   ** Warning ** CalcDoe2DXCoil: Coil:Cooling:DX:SingleSpeed \"COIL COOLING DX SINGLE SPEED 9 36KBTU/HR 14.0SEER\" - Air-cooled condenser inlet dry-bulb temperature below 0 C. Outdoor dry-bulb temperature = -24.03\n   **   ~~~   **  ... Occurrence info = RUN PERIOD 1, 01/01 09:02 - 09:05\n   **   ~~~   ** ... Operation at low ambient temperatures may require special performance curves.\n   ** Warning ** CalcDoe2DXCoil: Coil:Cooling:DX:SingleSpeed \"COIL COOLING DX SINGLE SPEED 1 67KBTU/HR 9.7EER\" - Full load outlet air dry-bulb temperature < 2C. This indicates the possibility of coil frost/freeze. Outlet temperature = 1.19 C.\n   **   ~~~   **  ...Occurrence info = RUN PERIOD 1, 01/12 11:53 - 12:00\n   **   ~~~   ** ... Possible reasons for low outlet air dry-bulb temperatures are: This DX coil\n   **   ~~~   **    1) may have a low inlet air dry-bulb temperature. Inlet air temperature = 14.975 C.\n   **   ~~~   **    2) may have a low air flow rate per watt of cooling capacity. Check inputs.\n   **   ~~~   **    3) is used as part of a HX assisted cooling coil which uses a high sensible effectiveness. Check inputs.\n   ** Warning ** CalcDoe2DXCoil: Coil:Cooling:DX:SingleSpeed \"COIL COOLING DX SINGLE SPEED 3 35KBTU/HR 14.0SEER\" - Full load outlet air dry-bulb temperature < 2C. This indicates the possibility of coil frost/freeze. Outlet temperature = 1.48 C.\n   **   ~~~   **  ...Occurrence info = RUN PERIOD 1, 01/12 11:53 - 12:00\n   **   ~~~   ** ... Possible reasons for low outlet air dry-bulb temperatures are: This DX coil\n   **   ~~~   **    1) may have a low inlet air dry-bulb temperature. Inlet air temperature = 15.306 C.\n   **   ~~~   **    2) may have a low air flow rate per watt of cooling capacity. Check inputs.\n   **   ~~~   **    3) is used as part of a HX assisted cooling coil which uses a high sensible effectiveness. Check inputs.\n   ** Warning ** CalcDoe2DXCoil: Coil:Cooling:DX:SingleSpeed \"COIL COOLING DX SINGLE SPEED 2 34KBTU/HR 14.0SEER\" - Full load outlet air dry-bulb temperature < 2C. This indicates the possibility of coil frost/freeze. Outlet temperature = 1.31 C.\n   **   ~~~   **  ...Occurrence info = RUN PERIOD 1, 01/12 11:53 - 12:00\n   **   ~~~   ** ... Possible reasons for low outlet air dry-bulb temperatures are: This DX coil\n   **   ~~~   **    1) may have a low inlet air dry-bulb temperature. Inlet air temperature = 15.111 C.\n   **   ~~~   **    2) may have a low air flow rate per watt of cooling capacity. Check inputs.\n   **   ~~~   **    3) is used as part of a HX assisted cooling coil which uses a high sensible effectiveness. Check inputs.\n   ** Warning ** CalcDoe2DXCoil: Coil:Cooling:DX:SingleSpeed \"COIL COOLING DX SINGLE SPEED 6 34KBTU/HR 14.0SEER\" - Full load outlet air dry-bulb temperature < 2C. This indicates the possibility of coil frost/freeze. Outlet temperature = 1.31 C.\n   **   ~~~   **  ...Occurrence info = RUN PERIOD 1, 01/12 11:53 - 12:00\n   **   ~~~   ** ... Possible reasons for low outlet air dry-bulb temperatures are: This DX coil\n   **   ~~~   **    1) may have a low inlet air dry-bulb temperature. Inlet air temperature = 15.109 C.\n   **   ~~~   **    2) may have a low air flow rate per watt of cooling capacity. Check inputs.\n   **   ~~~   **    3) is used as part of a HX assisted cooling coil which uses a high sensible effectiveness. Check inputs.\n   ** Warning ** CalcDoe2DXCoil: Coil:Cooling:DX:SingleSpeed \"COIL COOLING DX SINGLE SPEED 8 35KBTU/HR 14.0SEER\" - Full load outlet air dry-bulb temperature < 2C. This indicates the possibility of coil frost/freeze. Outlet temperature = 1.46 C.\n   **   ~~~   **  ...Occurrence info = RUN PERIOD 1, 01/12 11:53 - 12:00\n   **   ~~~   ** ... Possible reasons for low outlet air dry-bulb temperatures are: This DX coil\n   **   ~~~   **    1) may have a low inlet air dry-bulb temperature. Inlet air temperature = 15.286 C.\n   **   ~~~   **    2) may have a low air flow rate per watt of cooling capacity. Check inputs.\n   **   ~~~   **    3) is used as part of a HX assisted cooling coil which uses a high sensible effectiveness. Check inputs.\n   ** Warning ** CalcDoe2DXCoil: Coil:Cooling:DX:SingleSpeed \"COIL COOLING DX SINGLE SPEED 7 35KBTU/HR 14.0SEER\" - Full load outlet air dry-bulb temperature < 2C. This indicates the possibility of coil frost/freeze. Outlet temperature = 1.46 C.\n   **   ~~~   **  ...Occurrence info = RUN PERIOD 1, 01/12 11:53 - 12:00\n   **   ~~~   ** ... Possible reasons for low outlet air dry-bulb temperatures are: This DX coil\n   **   ~~~   **    1) may have a low inlet air dry-bulb temperature. Inlet air temperature = 15.286 C.\n   **   ~~~   **    2) may have a low air flow rate per watt of cooling capacity. Check inputs.\n   **   ~~~   **    3) is used as part of a HX assisted cooling coil which uses a high sensible effectiveness. Check inputs.\n   ** Warning ** CalcDoe2DXCoil: Coil:Cooling:DX:SingleSpeed \"COIL COOLING DX SINGLE SPEED 5 34KBTU/HR 14.0SEER\" - Full load outlet air dry-bulb temperature < 2C. This indicates the possibility of coil frost/freeze. Outlet temperature = 1.31 C.\n   **   ~~~   **  ...Occurrence info = RUN PERIOD 1, 01/12 11:53 - 12:00\n   **   ~~~   ** ... Possible reasons for low outlet air dry-bulb temperatures are: This DX coil\n   **   ~~~   **    1) may have a low inlet air dry-bulb temperature. Inlet air temperature = 15.108 C.\n   **   ~~~   **    2) may have a low air flow rate per watt of cooling capacity. Check inputs.\n   **   ~~~   **    3) is used as part of a HX assisted cooling coil which uses a high sensible effectiveness. Check inputs.\n   ** Warning ** CalcDoe2DXCoil: Coil:Cooling:DX:SingleSpeed \"COIL COOLING DX SINGLE SPEED 4 34KBTU/HR 14.0SEER\" - Full load outlet air dry-bulb temperature < 2C. This indicates the possibility of coil frost/freeze. Outlet temperature = 1.31 C.\n   **   ~~~   **  ...Occurrence info = RUN PERIOD 1, 01/12 11:53 - 12:00\n   **   ~~~   ** ... Possible reasons for low outlet air dry-bulb temperatures are: This DX coil\n   **   ~~~   **    1) may have a low inlet air dry-bulb temperature. Inlet air temperature = 15.103 C.\n   **   ~~~   **    2) may have a low air flow rate per watt of cooling capacity. Check inputs.\n   **   ~~~   **    3) is used as part of a HX assisted cooling coil which uses a high sensible effectiveness. Check inputs.\n   ** Warning ** CalcDoe2DXCoil: Coil:Cooling:DX:SingleSpeed \"COIL COOLING DX SINGLE SPEED 9 36KBTU/HR 14.0SEER\" - Full load outlet air dry-bulb temperature < 2C. This indicates the possibility of coil frost/freeze. Outlet temperature = 1.42 C.\n   **   ~~~   **  ...Occurrence info = RUN PERIOD 1, 01/12 11:53 - 12:00\n   **   ~~~   ** ... Possible reasons for low outlet air dry-bulb temperatures are: This DX coil\n   **   ~~~   **    1) may have a low inlet air dry-bulb temperature. Inlet air temperature = 15.273 C.\n   **   ~~~   **    2) may have a low air flow rate per watt of cooling capacity. Check inputs.\n   **   ~~~   **    3) is used as part of a HX assisted cooling coil which uses a high sensible effectiveness. Check inputs.\n   ** Warning ** CalcDoe2DXCoil: Coil:Cooling:DX:SingleSpeed \"COIL COOLING DX SINGLE SPEED 10 68KBTU/HR 9.7EER\" - Full load outlet air dry-bulb temperature < 2C. This indicates the possibility of coil frost/freeze. Outlet temperature = 1.32 C.\n   **   ~~~   **  ...Occurrence info = RUN PERIOD 1, 05/07 10:53 - 10:56\n   **   ~~~   ** ... Possible reasons for low outlet air dry-bulb temperatures are: This DX coil\n   **   ~~~   **    1) may have a low inlet air dry-bulb temperature. Inlet air temperature = 16.700 C.\n   **   ~~~   **    2) may have a low air flow rate per watt of cooling capacity. Check inputs.\n   **   ~~~   **    3) is used as part of a HX assisted cooling coil which uses a high sensible effectiveness. Check inputs.\n   ************* Simulation Error Summary *************\n   ************* There are 9 unused schedules in input.\n   ************* There are 9 unused week schedules in input.\n   ************* There are 32 unused day schedules in input.\n   ************* Use Output:Diagnostics,DisplayUnusedSchedules; to see them.\n   *************\n   ************* ===== Recurring Error Summary =====\n   ************* The following recurring error messages occurred.\n   *************\n   *************  ** Warning ** CalcDoe2DXCoil: Coil:Cooling:DX:SingleSpeed=\"COIL COOLING DX SINGLE SPEED 1 67KBTU/HR 9.7EER\" - Low condenser dry-bulb temperature error continues...\n   *************  **   ~~~   **   This error occurred 305 total times;\n   *************  **   ~~~   **   during Warmup 0 times;\n   *************  **   ~~~   **   during Sizing 0 times.\n   *************  **   ~~~   **   Max=-5.000000E-002 [C]  Min=-24.025 [C]\n   *************\n   *************  ** Warning ** CalcDoe2DXCoil: Coil:Cooling:DX:SingleSpeed=\"COIL COOLING DX SINGLE SPEED 3 35KBTU/HR 14.0SEER\" - Low condenser dry-bulb temperature error continues...\n   *************  **   ~~~   **   This error occurred 246 total times;\n   *************  **   ~~~   **   during Warmup 0 times;\n   *************  **   ~~~   **   during Sizing 0 times.\n   *************  **   ~~~   **   Max=-5.000000E-002 [C]  Min=-24.025 [C]\n   *************\n   *************  ** Warning ** CalcDoe2DXCoil: Coil:Cooling:DX:SingleSpeed=\"COIL COOLING DX SINGLE SPEED 2 34KBTU/HR 14.0SEER\" - Low condenser dry-bulb temperature error continues...\n   *************  **   ~~~   **   This error occurred 238 total times;\n   *************  **   ~~~   **   during Warmup 0 times;\n   *************  **   ~~~   **   during Sizing 0 times.\n   *************  **   ~~~   **   Max=-5.000000E-002 [C]  Min=-24.025 [C]\n   *************\n   *************  ** Warning ** CalcDoe2DXCoil: Coil:Cooling:DX:SingleSpeed=\"COIL COOLING DX SINGLE SPEED 6 34KBTU/HR 14.0SEER\" - Low condenser dry-bulb temperature error continues...\n   *************  **   ~~~   **   This error occurred 238 total times;\n   *************  **   ~~~   **   during Warmup 0 times;\n   *************  **   ~~~   **   during Sizing 0 times.\n   *************  **   ~~~   **   Max=-5.000000E-002 [C]  Min=-24.025 [C]\n   *************\n   *************  ** Warning ** CalcDoe2DXCoil: Coil:Cooling:DX:SingleSpeed=\"COIL COOLING DX SINGLE SPEED 8 35KBTU/HR 14.0SEER\" - Low condenser dry-bulb temperature error continues...\n   *************  **   ~~~   **   This error occurred 249 total times;\n   *************  **   ~~~   **   during Warmup 0 times;\n   *************  **   ~~~   **   during Sizing 0 times.\n   *************  **   ~~~   **   Max=-5.000000E-002 [C]  Min=-24.025 [C]\n   *************\n   *************  ** Warning ** CalcDoe2DXCoil: Coil:Cooling:DX:SingleSpeed=\"COIL COOLING DX SINGLE SPEED 7 35KBTU/HR 14.0SEER\" - Low condenser dry-bulb temperature error continues...\n   *************  **   ~~~   **   This error occurred 249 total times;\n   *************  **   ~~~   **   during Warmup 0 times;\n   *************  **   ~~~   **   during Sizing 0 times.\n   *************  **   ~~~   **   Max=-5.000000E-002 [C]  Min=-24.025 [C]\n   *************\n   *************  ** Warning ** CalcDoe2DXCoil: Coil:Cooling:DX:SingleSpeed=\"COIL COOLING DX SINGLE SPEED 5 34KBTU/HR 14.0SEER\" - Low condenser dry-bulb temperature error continues...\n   *************  **   ~~~   **   This error occurred 238 total times;\n   *************  **   ~~~   **   during Warmup 0 times;\n   *************  **   ~~~   **   during Sizing 0 times.\n   *************  **   ~~~   **   Max=-5.000000E-002 [C]  Min=-24.025 [C]\n   *************\n   *************  ** Warning ** CalcDoe2DXCoil: Coil:Cooling:DX:SingleSpeed=\"COIL COOLING DX SINGLE SPEED 4 34KBTU/HR 14.0SEER\" - Low condenser dry-bulb temperature error continues...\n   *************  **   ~~~   **   This error occurred 231 total times;\n   *************  **   ~~~   **   during Warmup 0 times;\n   *************  **   ~~~   **   during Sizing 0 times.\n   *************  **   ~~~   **   Max=-5.000000E-002 [C]  Min=-24.025 [C]\n   *************\n   *************  ** Warning ** CalcDoe2DXCoil: Coil:Cooling:DX:SingleSpeed=\"COIL COOLING DX SINGLE SPEED 9 36KBTU/HR 14.0SEER\" - Low condenser dry-bulb temperature error continues...\n   *************  **   ~~~   **   This error occurred 188 total times;\n   *************  **   ~~~   **   during Warmup 0 times;\n   *************  **   ~~~   **   during Sizing 0 times.\n   *************  **   ~~~   **   Max=-5.000000E-002 [C]  Min=-24.025 [C]\n   *************\n   *************  ** Warning ** CalcDoe2DXCoil: Coil:Cooling:DX:SingleSpeed=\"COIL COOLING DX SINGLE SPEED 1 67KBTU/HR 9.7EER\" - Full load outlet temperature indicates a possibility of frost/freeze error continues. Outlet air temperature statistics follow:\n   *************  **   ~~~   **   This error occurred 441 total times;\n   *************  **   ~~~   **   during Warmup 0 times;\n   *************  **   ~~~   **   during Sizing 0 times.\n   *************  **   ~~~   **   Max=1.990713  Min=-4.297684\n   *************\n   *************  ** Warning ** CalcDoe2DXCoil: Coil:Cooling:DX:SingleSpeed=\"COIL COOLING DX SINGLE SPEED 3 35KBTU/HR 14.0SEER\" - Full load outlet temperature indicates a possibility of frost/freeze error continues. Outlet air temperature statistics follow:\n   *************  **   ~~~   **   This error occurred 382 total times;\n   *************  **   ~~~   **   during Warmup 0 times;\n   *************  **   ~~~   **   during Sizing 0 times.\n   *************  **   ~~~   **   Max=1.994233  Min=-3.692364\n   *************\n   *************  ** Warning ** CalcDoe2DXCoil: Coil:Cooling:DX:SingleSpeed=\"COIL COOLING DX SINGLE SPEED 2 34KBTU/HR 14.0SEER\" - Full load outlet temperature indicates a possibility of frost/freeze error continues. Outlet air temperature statistics follow:\n   *************  **   ~~~   **   This error occurred 404 total times;\n   *************  **   ~~~   **   during Warmup 0 times;\n   *************  **   ~~~   **   during Sizing 0 times.\n   *************  **   ~~~   **   Max=1.999499  Min=-3.991935\n   *************\n   *************  ** Warning ** CalcDoe2DXCoil: Coil:Cooling:DX:SingleSpeed=\"COIL COOLING DX SINGLE SPEED 6 34KBTU/HR 14.0SEER\" - Full load outlet temperature indicates a possibility of frost/freeze error continues. Outlet air temperature statistics follow:\n   *************  **   ~~~   **   This error occurred 408 total times;\n   *************  **   ~~~   **   during Warmup 0 times;\n   *************  **   ~~~   **   during Sizing 0 times.\n   *************  **   ~~~   **   Max=1.99822  Min=-3.99566\n   *************\n   *************  ** Warning ** CalcDoe2DXCoil: Coil:Cooling:DX:SingleSpeed=\"COIL COOLING DX SINGLE SPEED 8 35KBTU/HR 14.0SEER\" - Full load outlet temperature indicates a possibility of frost/freeze error continues. Outlet air temperature statistics follow:\n   *************  **   ~~~   **   This error occurred 411 total times;\n   *************  **   ~~~   **   during Warmup 0 times;\n   *************  **   ~~~   **   during Sizing 0 times.\n   *************  **   ~~~   **   Max=1.998033  Min=-3.723924\n   *************\n   *************  ** Warning ** CalcDoe2DXCoil: Coil:Cooling:DX:SingleSpeed=\"COIL COOLING DX SINGLE SPEED 7 35KBTU/HR 14.0SEER\" - Full load outlet temperature indicates a possibility of frost/freeze error continues. Outlet air temperature statistics follow:\n   *************  **   ~~~   **   This error occurred 409 total times;\n   *************  **   ~~~   **   during Warmup 0 times;\n   *************  **   ~~~   **   during Sizing 0 times.\n   *************  **   ~~~   **   Max=1.998549  Min=-3.723626\n   *************\n   *************  ** Warning ** CalcDoe2DXCoil: Coil:Cooling:DX:SingleSpeed=\"COIL COOLING DX SINGLE SPEED 5 34KBTU/HR 14.0SEER\" - Full load outlet temperature indicates a possibility of frost/freeze error continues. Outlet air temperature statistics follow:\n   *************  **   ~~~   **   This error occurred 403 total times;\n   *************  **   ~~~   **   during Warmup 0 times;\n   *************  **   ~~~   **   during Sizing 0 times.\n   *************  **   ~~~   **   Max=1.998619  Min=-3.995065\n   *************\n   *************  ** Warning ** CalcDoe2DXCoil: Coil:Cooling:DX:SingleSpeed=\"COIL COOLING DX SINGLE SPEED 4 34KBTU/HR 14.0SEER\" - Full load outlet temperature indicates a possibility of frost/freeze error continues. Outlet air temperature statistics follow:\n   *************  **   ~~~   **   This error occurred 372 total times;\n   *************  **   ~~~   **   during Warmup 0 times;\n   *************  **   ~~~   **   during Sizing 0 times.\n   *************  **   ~~~   **   Max=1.995959  Min=-3.798999\n   *************\n   *************  ** Warning ** CalcDoe2DXCoil: Coil:Cooling:DX:SingleSpeed=\"COIL COOLING DX SINGLE SPEED 9 36KBTU/HR 14.0SEER\" - Full load outlet temperature indicates a possibility of frost/freeze error continues. Outlet air temperature statistics follow:\n   *************  **   ~~~   **   This error occurred 198 total times;\n   *************  **   ~~~   **   during Warmup 0 times;\n   *************  **   ~~~   **   during Sizing 0 times.\n   *************  **   ~~~   **   Max=1.996452  Min=-2.875557\n   *************\n   *************  ** Warning ** CalcDoe2DXCoil: Coil:Cooling:DX:SingleSpeed=\"COIL COOLING DX SINGLE SPEED 10 68KBTU/HR 9.7EER\" - Full load outlet temperature indicates a possibility of frost/freeze error continues. Outlet air temperature statistics follow:\n   *************  **   ~~~   **   This error occurred 108 total times;\n   *************  **   ~~~   **   during Warmup 0 times;\n   *************  **   ~~~   **   during Sizing 0 times.\n   *************  **   ~~~   **   Max=1.997101  Min=-1.687296\n   *************\n   *************\n   ************* ===== Final Error Summary =====\n   ************* The following error categories occurred.  Consider correcting or noting.\n   ************* Nominally Unused Constructions\n   ************* ..The nominally unused constructions warning is provided to alert you to potential conditions that can cause\n   ************* ..extra time during simulation. Each construction is calculated by the algorithm indicated in the HeatBalanceAlgorithm\n   ************* ..object. You may remove the constructions indicated (when you use the DisplayExtraWarnings option).\n   *************\n   ************* EnergyPlus Warmup Error Summary. During Warmup: 0 Warning; 0 Severe Errors.\n   ************* EnergyPlus Sizing Error Summary. During Sizing: 87 Warning; 0 Severe Errors.\n   ************* EnergyPlus Completed Successfully-- 5830 Warning; 0 Severe Errors; Elapsed Time=00hr 01min 12.60sec\n",
   "file_format_version" : "0.0.1",
   "file_paths" : [ "../weather", "../seeds", "../seed" ],
   "hash" : "84D0D884",
   "measure_paths" : [ "../measures" ],
   "name" : "LHS Autogenerated 790",
   "osa_id" : "4fef0e0f-5396-4c55-a6e1-2cd6803db3ab",
   "osd_id" : "97ec4d80-5e6f-450e-988b-2e11c7de29dd",
   "run_directory" : "./run",
   "seed_file" : "seed.osm",
   "started_at" : "20170710T191354Z",
   "steps" : [
      {
         "arguments" : {
            "__SKIP__" : false,
            "building_type" : "RetailStripmall",
            "climate_zone" : "NECB HDD Method",
            "epw_file" : "CAN_NS_Greenwood.713970_CWEC.epw",
            "template" : "NECB 2011"
         },
         "measure_dir_name" : "create_prototype_building",
         "name" : "create_prototype_building",
         "result" : {
            "completed_at" : "20170710T191505Z",
            "measure_class_name" : "CreatePrototypeBuilding",
            "measure_display_name" : "Create Prototype Building",
            "measure_name" : "create_prototype_building",
            "measure_taxonomy" : "Whole Building.Space Types",
            "measure_type" : "ModelMeasure",
            "measure_uid" : "ae90fsd7-a651-467a-bc8d-29d310b0f937",
            "measure_version_id" : "c6ec5c18-5595-459f-a082-09a19c8c869c",
            "measure_version_modified" : "20170519T182315Z",
            "measure_xml_checksum" : "057E8D9D",
            "started_at" : "20170710T191356Z",
            "stderr" : "",
            "stdout" : "[OpenStudio.Measure] <0> OSArgumentVector is deprecated, use OpenStudio::Measure::OSArgumentVector instead.\n[openstudio.EpwFile] <0> Successive data points (1972-Jan-31 to 1970-Feb-01, ending on line 753) are greater than 1 day apart in EPW file '/usr/local/bundle/bundler/gems/openstudio-standards-f448df66933d/openstudio-standards/data/weather/CAN_NS_Greenwood.713970_CWEC.epw'. Data will be treated as typical (TMY)\n[openstudio.setFileExtension] <0> Path p, '/usr/local/bundle/bundler/gems/openstudio-standards-f448df66933d/openstudio-standards/data/weather/CAN_NS_Greenwood.713970_CWEC.ddy', has an unexpected file extension. Was expecting 'idf'.\n[openstudio.model.YearDescription] <1> 'UseWeatherFile' is not yet a supported option for YearDescription\n[openstudio.model.YearDescription] <1> 'UseWeatherFile' is not yet a supported option for YearDescription\n[openstudio.setFileExtension] <0> Path p, '/usr/local/bundle/bundler/gems/openstudio-standards-f448df66933d/openstudio-standards/data/weather/CAN_NS_Greenwood.713970_CWEC.ddy', has an unexpected file extension. Was expecting 'idf'.\n[openstudio.model.YearDescription] <1> 'UseWeatherFile' is not yet a supported option for YearDescription\n[openstudio.model.YearDescription] <1> 'UseWeatherFile' is not yet a supported option for YearDescription\n[openstudio.EpwFile] <0> Successive data points (1972-Jan-31 to 1970-Feb-01, ending on line 753) are greater than 1 day apart in EPW file '/usr/local/bundle/bundler/gems/openstudio-standards-f448df66933d/openstudio-standards/data/weather/CAN_NS_Greenwood.713970_CWEC.epw'. Data will be treated as typical (TMY)\n[openstudio.weather.Model] <0> Could not find ground temperatures; will use generic temperatures, which will skew results.\n[openstudio.setFileExtension] <0> Path p, '/usr/local/bundle/bundler/gems/openstudio-standards-f448df66933d/openstudio-standards/data/weather/CAN_NS_Greenwood.713970_CWEC.ddy', has an unexpected file extension. Was expecting 'idf'.\n[openstudio.model.YearDescription] <1> 'UseWeatherFile' is not yet a supported option for YearDescription\n[openstudio.model.YearDescription] <1> 'UseWeatherFile' is not yet a supported option for YearDescription\n[openstudio.EpwFile] <0> Successive data points (1972-Jan-31 to 1970-Feb-01, ending on line 753) are greater than 1 day apart in EPW file '/usr/local/bundle/bundler/gems/openstudio-standards-f448df66933d/openstudio-standards/data/weather/CAN_NS_Greenwood.713970_CWEC.epw'. Data will be treated as typical (TMY)\n[openstudio.setFileExtension] <0> Path p, '/usr/local/bundle/bundler/gems/openstudio-standards-f448df66933d/openstudio-standards/data/weather/CAN_NS_Greenwood.713970_CWEC.ddy', has an unexpected file extension. Was expecting 'idf'.\n[openstudio.model.YearDescription] <1> 'UseWeatherFile' is not yet a supported option for YearDescription\n[openstudio.model.YearDescription] <1> 'UseWeatherFile' is not yet a supported option for YearDescription\n[openstudio.setFileExtension] <0> Path p, '/usr/local/bundle/bundler/gems/openstudio-standards-f448df66933d/openstudio-standards/data/weather/CAN_NS_Greenwood.713970_CWEC.ddy', has an unexpected file extension. Was expecting 'idf'.\n[openstudio.model.YearDescription] <1> 'UseWeatherFile' is not yet a supported option for YearDescription\n[openstudio.model.YearDescription] <1> 'UseWeatherFile' is not yet a supported option for YearDescription\n[openstudio.EpwFile] <0> Successive data points (1972-Jan-31 to 1970-Feb-01, ending on line 753) are greater than 1 day apart in EPW file '/usr/local/bundle/bundler/gems/openstudio-standards-f448df66933d/openstudio-standards/data/weather/CAN_NS_Greenwood.713970_CWEC.epw'. Data will be treated as typical (TMY)\n[openstudio.setFileExtension] <0> Path p, '/usr/local/bundle/bundler/gems/openstudio-standards-f448df66933d/openstudio-standards/data/weather/CAN_NS_Greenwood.713970_CWEC.ddy', has an unexpected file extension. Was expecting 'idf'.\n[openstudio.model.YearDescription] <1> 'UseWeatherFile' is not yet a supported option for YearDescription\n[openstudio.model.YearDescription] <1> 'UseWeatherFile' is not yet a supported option for YearDescription\n[openstudio.setFileExtension] <0> Path p, '/usr/local/bundle/bundler/gems/openstudio-standards-f448df66933d/openstudio-standards/data/weather/CAN_NS_Greenwood.713970_CWEC.ddy', has an unexpected file extension. Was expecting 'idf'.\n[openstudio.model.YearDescription] <1> 'UseWeatherFile' is not yet a supported option for YearDescription\n[openstudio.model.YearDescription] <1> 'UseWeatherFile' is not yet a supported option for YearDescription\n[utilities.idf.WorkspaceObject] <0> Object of type 'Schedule:Constant' and named 'Always Off Discrete', points to an object named OnOff 1 from field 1, but that object cannot be located.\n[utilities.idf.WorkspaceObject] <0> Object of type 'Schedule:Constant' and named 'Always On Continuous', points to an object named Fractional 1 from field 1, but that object cannot be located.\n[utilities.idf.WorkspaceObject] <0> Object of type 'Schedule:Constant' and named 'Always Off Discrete', points to an object named OnOff 1 from field 1, but that object cannot be located.\n[utilities.idf.WorkspaceObject] <0> Object of type 'Schedule:Constant' and named 'Always On Continuous', points to an object named Fractional 1 from field 1, but that object cannot be located.\n[openstudio.standards.Fan] <0> For Fan Constant Volume 1, there is no greater nominal HP.  Use the efficiency of the largest motor category.\n[openstudio.standards.Fan] <0> For Fan Constant Volume 10, there is no greater nominal HP.  Use the efficiency of the largest motor category.\n[openstudio.standards.Fan] <0> For Fan Constant Volume 2, there is no greater nominal HP.  Use the efficiency of the largest motor category.\n[openstudio.standards.Fan] <0> For Fan Constant Volume 3, there is no greater nominal HP.  Use the efficiency of the largest motor category.\n[openstudio.standards.Fan] <0> For Fan Constant Volume 4, there is no greater nominal HP.  Use the efficiency of the largest motor category.\n[openstudio.standards.Fan] <0> For Fan Constant Volume 5, there is no greater nominal HP.  Use the efficiency of the largest motor category.\n[openstudio.standards.Fan] <0> For Fan Constant Volume 6, there is no greater nominal HP.  Use the efficiency of the largest motor category.\n[openstudio.standards.Fan] <0> For Fan Constant Volume 7, there is no greater nominal HP.  Use the efficiency of the largest motor category.\n[openstudio.standards.Fan] <0> For Fan Constant Volume 8, there is no greater nominal HP.  Use the efficiency of the largest motor category.\n[openstudio.standards.Fan] <0> For Fan Constant Volume 9, there is no greater nominal HP.  Use the efficiency of the largest motor category.\n[openstudio.EpwFile] <0> Successive data points (1972-Jan-31 to 1970-Feb-01, ending on line 753) are greater than 1 day apart in EPW file '/usr/local/bundle/bundler/gems/openstudio-standards-f448df66933d/openstudio-standards/data/weather/CAN_NS_Greenwood.713970_CWEC.epw'. Data will be treated as typical (TMY)\n[openstudio.setFileExtension] <0> Path p, '/usr/local/bundle/bundler/gems/openstudio-standards-f448df66933d/openstudio-standards/data/weather/CAN_NS_Greenwood.713970_CWEC.ddy', has an unexpected file extension. Was expecting 'idf'.\n[openstudio.model.YearDescription] <1> 'UseWeatherFile' is not yet a supported option for YearDescription\n[openstudio.model.YearDescription] <1> 'UseWeatherFile' is not yet a supported option for YearDescription\n[openstudio.setFileExtension] <0> Path p, '/usr/local/bundle/bundler/gems/openstudio-standards-f448df66933d/openstudio-standards/data/weather/CAN_NS_Greenwood.713970_CWEC.ddy', has an unexpected file extension. Was expecting 'idf'.\n[openstudio.model.YearDescription] <1> 'UseWeatherFile' is not yet a supported option for YearDescription\n[openstudio.model.YearDescription] <1> 'UseWeatherFile' is not yet a supported option for YearDescription\n[openstudio.EpwFile] <0> Successive data points (1972-Jan-31 to 1970-Feb-01, ending on line 753) are greater than 1 day apart in EPW file '/usr/local/bundle/bundler/gems/openstudio-standards-f448df66933d/openstudio-standards/data/weather/CAN_NS_Greenwood.713970_CWEC.epw'. Data will be treated as typical (TMY)\n[openstudio.setFileExtension] <0> Path p, '/usr/local/bundle/bundler/gems/openstudio-standards-f448df66933d/openstudio-standards/data/weather/CAN_NS_Greenwood.713970_CWEC.ddy', has an unexpected file extension. Was expecting 'idf'.\n[openstudio.model.YearDescription] <1> 'UseWeatherFile' is not yet a supported option for YearDescription\n[openstudio.model.YearDescription] <1> 'UseWeatherFile' is not yet a supported option for YearDescription\n[openstudio.setFileExtension] <0> Path p, '/usr/local/bundle/bundler/gems/openstudio-standards-f448df66933d/openstudio-standards/data/weather/CAN_NS_Greenwood.713970_CWEC.ddy', has an unexpected file extension. Was expecting 'idf'.\n[openstudio.model.YearDescription] <1> 'UseWeatherFile' is not yet a supported option for YearDescription\n[openstudio.model.YearDescription] <1> 'UseWeatherFile' is not yet a supported option for YearDescription\n[openstudio.EpwFile] <0> Successive data points (1972-Jan-31 to 1970-Feb-01, ending on line 753) are greater than 1 day apart in EPW file '/usr/local/bundle/bundler/gems/openstudio-standards-f448df66933d/openstudio-standards/data/weather/CAN_NS_Greenwood.713970_CWEC.epw'. Data will be treated as typical (TMY)\n[openstudio.setFileExtension] <0> Path p, '/usr/local/bundle/bundler/gems/openstudio-standards-f448df66933d/openstudio-standards/data/weather/CAN_NS_Greenwood.713970_CWEC.ddy', has an unexpected file extension. Was expecting 'idf'.\n[openstudio.model.YearDescription] <1> 'UseWeatherFile' is not yet a supported option for YearDescription\n[openstudio.model.YearDescription] <1> 'UseWeatherFile' is not yet a supported option for YearDescription\n[openstudio.setFileExtension] <0> Path p, '/usr/local/bundle/bundler/gems/openstudio-standards-f448df66933d/openstudio-standards/data/weather/CAN_NS_Greenwood.713970_CWEC.ddy', has an unexpected file extension. Was expecting 'idf'.\n[openstudio.model.YearDescription] <1> 'UseWeatherFile' is not yet a supported option for YearDescription\n[openstudio.model.YearDescription] <1> 'UseWeatherFile' is not yet a supported option for YearDescription\n[openstudio.EpwFile] <0> Successive data points (1972-Jan-31 to 1970-Feb-01, ending on line 753) are greater than 1 day apart in EPW file '/usr/local/bundle/bundler/gems/openstudio-standards-f448df66933d/openstudio-standards/data/weather/CAN_NS_Greenwood.713970_CWEC.epw'. Data will be treated as typical (TMY)\n[openstudio.setFileExtension] <0> Path p, '/usr/local/bundle/bundler/gems/openstudio-standards-f448df66933d/openstudio-standards/data/weather/CAN_NS_Greenwood.713970_CWEC.ddy', has an unexpected file extension. Was expecting 'idf'.\n[openstudio.model.YearDescription] <1> 'UseWeatherFile' is not yet a supported option for YearDescription\n[openstudio.model.YearDescription] <1> 'UseWeatherFile' is not yet a supported option for YearDescription\n[openstudio.setFileExtension] <0> Path p, '/usr/local/bundle/bundler/gems/openstudio-standards-f448df66933d/openstudio-standards/data/weather/CAN_NS_Greenwood.713970_CWEC.ddy', has an unexpected file extension. Was expecting 'idf'.\n[openstudio.model.YearDescription] <1> 'UseWeatherFile' is not yet a supported option for YearDescription\n[openstudio.model.YearDescription] <1> 'UseWeatherFile' is not yet a supported option for YearDescription\n[openstudio.EpwFile] <0> Successive data points (1972-Jan-31 to 1970-Feb-01, ending on line 753) are greater than 1 day apart in EPW file '/usr/local/bundle/bundler/gems/openstudio-standards-f448df66933d/openstudio-standards/data/weather/CAN_NS_Greenwood.713970_CWEC.epw'. Data will be treated as typical (TMY)\n[openstudio.setFileExtension] <0> Path p, '/usr/local/bundle/bundler/gems/openstudio-standards-f448df66933d/openstudio-standards/data/weather/CAN_NS_Greenwood.713970_CWEC.ddy', has an unexpected file extension. Was expecting 'idf'.\n[openstudio.model.YearDescription] <1> 'UseWeatherFile' is not yet a supported option for YearDescription\n[openstudio.model.YearDescription] <1> 'UseWeatherFile' is not yet a supported option for YearDescription\n[openstudio.setFileExtension] <0> Path p, '/usr/local/bundle/bundler/gems/openstudio-standards-f448df66933d/openstudio-standards/data/weather/CAN_NS_Greenwood.713970_CWEC.ddy', has an unexpected file extension. Was expecting 'idf'.\n[openstudio.model.YearDescription] <1> 'UseWeatherFile' is not yet a supported option for YearDescription\n[openstudio.model.YearDescription] <1> 'UseWeatherFile' is not yet a supported option for YearDescription\n[openstudio.EpwFile] <0> Successive data points (1972-Jan-31 to 1970-Feb-01, ending on line 753) are greater than 1 day apart in EPW file '/usr/local/bundle/bundler/gems/openstudio-standards-f448df66933d/openstudio-standards/data/weather/CAN_NS_Greenwood.713970_CWEC.epw'. Data will be treated as typical (TMY)\n[openstudio.setFileExtension] <0> Path p, '/usr/local/bundle/bundler/gems/openstudio-standards-f448df66933d/openstudio-standards/data/weather/CAN_NS_Greenwood.713970_CWEC.ddy', has an unexpected file extension. Was expecting 'idf'.\n[openstudio.model.YearDescription] <1> 'UseWeatherFile' is not yet a supported option for YearDescription\n[openstudio.model.YearDescription] <1> 'UseWeatherFile' is not yet a supported option for YearDescription\n[openstudio.setFileExtension] <0> Path p, '/usr/local/bundle/bundler/gems/openstudio-standards-f448df66933d/openstudio-standards/data/weather/CAN_NS_Greenwood.713970_CWEC.ddy', has an unexpected file extension. Was expecting 'idf'.\n[openstudio.model.YearDescription] <1> 'UseWeatherFile' is not yet a supported option for YearDescription\n[openstudio.model.YearDescription] <1> 'UseWeatherFile' is not yet a supported option for YearDescription\n[openstudio.EpwFile] <0> Successive data points (1972-Jan-31 to 1970-Feb-01, ending on line 753) are greater than 1 day apart in EPW file '/usr/local/bundle/bundler/gems/openstudio-standards-f448df66933d/openstudio-standards/data/weather/CAN_NS_Greenwood.713970_CWEC.epw'. Data will be treated as typical (TMY)\n[openstudio.setFileExtension] <0> Path p, '/usr/local/bundle/bundler/gems/openstudio-standards-f448df66933d/openstudio-standards/data/weather/CAN_NS_Greenwood.713970_CWEC.ddy', has an unexpected file extension. Was expecting 'idf'.\n[openstudio.model.YearDescription] <1> 'UseWeatherFile' is not yet a supported option for YearDescription\n[openstudio.model.YearDescription] <1> 'UseWeatherFile' is not yet a supported option for YearDescription\n[openstudio.setFileExtension] <0> Path p, '/usr/local/bundle/bundler/gems/openstudio-standards-f448df66933d/openstudio-standards/data/weather/CAN_NS_Greenwood.713970_CWEC.ddy', has an unexpected file extension. Was expecting 'idf'.\n[openstudio.model.YearDescription] <1> 'UseWeatherFile' is not yet a supported option for YearDescription\n[openstudio.model.YearDescription] <1> 'UseWeatherFile' is not yet a supported option for YearDescription\n[openstudio.EpwFile] <0> Successive data points (1972-Jan-31 to 1970-Feb-01, ending on line 753) are greater than 1 day apart in EPW file '/usr/local/bundle/bundler/gems/openstudio-standards-f448df66933d/openstudio-standards/data/weather/CAN_NS_Greenwood.713970_CWEC.epw'. Data will be treated as typical (TMY)\n[openstudio.setFileExtension] <0> Path p, '/usr/local/bundle/bundler/gems/openstudio-standards-f448df66933d/openstudio-standards/data/weather/CAN_NS_Greenwood.713970_CWEC.ddy', has an unexpected file extension. Was expecting 'idf'.\n[openstudio.model.YearDescription] <1> 'UseWeatherFile' is not yet a supported option for YearDescription\n[openstudio.model.YearDescription] <1> 'UseWeatherFile' is not yet a supported option for YearDescription\n[openstudio.setFileExtension] <0> Path p, '/usr/local/bundle/bundler/gems/openstudio-standards-f448df66933d/openstudio-standards/data/weather/CAN_NS_Greenwood.713970_CWEC.ddy', has an unexpected file extension. Was expecting 'idf'.\n[openstudio.model.YearDescription] <1> 'UseWeatherFile' is not yet a supported option for YearDescription\n[openstudio.model.YearDescription] <1> 'UseWeatherFile' is not yet a supported option for YearDescription\n[openstudio.EpwFile] <0> Successive data points (1972-Jan-31 to 1970-Feb-01, ending on line 753) are greater than 1 day apart in EPW file '/usr/local/bundle/bundler/gems/openstudio-standards-f448df66933d/openstudio-standards/data/weather/CAN_NS_Greenwood.713970_CWEC.epw'. Data will be treated as typical (TMY)\n[openstudio.setFileExtension] <0> Path p, '/usr/local/bundle/bundler/gems/openstudio-standards-f448df66933d/openstudio-standards/data/weather/CAN_NS_Greenwood.713970_CWEC.ddy', has an unexpected file extension. Was expecting 'idf'.\n[openstudio.model.YearDescription] <1> 'UseWeatherFile' is not yet a supported option for YearDescription\n[openstudio.model.YearDescription] <1> 'UseWeatherFile' is not yet a supported option for YearDescription\n[openstudio.setFileExtension] <0> Path p, '/usr/local/bundle/bundler/gems/openstudio-standards-f448df66933d/openstudio-standards/data/weather/CAN_NS_Greenwood.713970_CWEC.ddy', has an unexpected file extension. Was expecting 'idf'.\n[openstudio.model.YearDescription] <1> 'UseWeatherFile' is not yet a supported option for YearDescription\n[openstudio.model.YearDescription] <1> 'UseWeatherFile' is not yet a supported option for YearDescription\n[openstudio.EpwFile] <0> Successive data points (1972-Jan-31 to 1970-Feb-01, ending on line 753) are greater than 1 day apart in EPW file '/usr/local/bundle/bundler/gems/openstudio-standards-f448df66933d/openstudio-standards/data/weather/CAN_NS_Greenwood.713970_CWEC.epw'. Data will be treated as typical (TMY)\n[openstudio.setFileExtension] <0> Path p, '/usr/local/bundle/bundler/gems/openstudio-standards-f448df66933d/openstudio-standards/data/weather/CAN_NS_Greenwood.713970_CWEC.ddy', has an unexpected file extension. Was expecting 'idf'.\n[openstudio.model.YearDescription] <1> 'UseWeatherFile' is not yet a supported option for YearDescription\n[openstudio.model.YearDescription] <1> 'UseWeatherFile' is not yet a supported option for YearDescription\n[openstudio.setFileExtension] <0> Path p, '/usr/local/bundle/bundler/gems/openstudio-standards-f448df66933d/openstudio-standards/data/weather/CAN_NS_Greenwood.713970_CWEC.ddy', has an unexpected file extension. Was expecting 'idf'.\n[openstudio.model.YearDescription] <1> 'UseWeatherFile' is not yet a supported option for YearDescription\n[openstudio.model.YearDescription] <1> 'UseWeatherFile' is not yet a supported option for YearDescription\n[openstudio.standards.Fan] <0> For Fan Constant Volume 1, there is no greater nominal HP.  Use the efficiency of the largest motor category.\n[openstudio.standards.Fan] <0> For Fan Constant Volume 10, there is no greater nominal HP.  Use the efficiency of the largest motor category.\n[openstudio.standards.Fan] <0> For Fan Constant Volume 2, there is no greater nominal HP.  Use the efficiency of the largest motor category.\n[openstudio.standards.Fan] <0> For Fan Constant Volume 3, there is no greater nominal HP.  Use the efficiency of the largest motor category.\n[openstudio.standards.Fan] <0> For Fan Constant Volume 4, there is no greater nominal HP.  Use the efficiency of the largest motor category.\n[openstudio.standards.Fan] <0> For Fan Constant Volume 5, there is no greater nominal HP.  Use the efficiency of the largest motor category.\n[openstudio.standards.Fan] <0> For Fan Constant Volume 6, there is no greater nominal HP.  Use the efficiency of the largest motor category.\n[openstudio.standards.Fan] <0> For Fan Constant Volume 7, there is no greater nominal HP.  Use the efficiency of the largest motor category.\n[openstudio.standards.Fan] <0> For Fan Constant Volume 8, there is no greater nominal HP.  Use the efficiency of the largest motor category.\n[openstudio.standards.Fan] <0> For Fan Constant Volume 9, there is no greater nominal HP.  Use the efficiency of the largest motor category.\n",
            "step_errors" : [],
            "step_files" : [],
            "step_info" : [
               "Started adding geometry",
               "Finished adding geometry",
               "Started adding weather file for climate zone: NECB HDD Method.",
               "Template =",
               "Setting LGstore1 to Space Function.Retail - sales",
               "Setting LGstore2 to Space Function.Retail - sales",
               "Setting SMstore1 to Space Function.Retail - sales",
               "Setting SMstore2 to Space Function.Retail - sales",
               "Setting SMstore3 to Space Function.Retail - sales",
               "Setting SMstore4 to Space Function.Retail - sales",
               "Setting SMstore5 to Space Function.Retail - sales",
               "Setting SMstore6 to Space Function.Retail - sales",
               "Setting SMstore7 to Space Function.Retail - sales",
               "Setting SMstore8 to Space Function.Retail - sales",
               "Started applying space types (loads)",
               "Space Function Retail - sales had no people, one has been created.",
               "Space Function Retail - sales set occupancy to 3.1 people/1000 ft^2.",
               "Space Function Retail - sales had no lights, one has been created.",
               "Space Function Retail - sales set LPD to 1.681531029 W/ft^2.",
               "Space Function Retail - sales had no electric equipment, one has been created.",
               "Space Function Retail - sales set electric EPD to 0.232255667 W/ft^2.",
               "Space Function Retail - sales had no ventilation specification, one has been created.",
               "Space Function Retail - sales set ventilation per area to 0.233 cfm/ft^2.",
               "Space Function Retail - sales had no infiltration objects, one has been created.",
               "Space Function Retail - sales set infiltration to 0.0 per ft^2 exterior surface area.",
               "Space Function Retail - sales set occupancy schedule to NECB-C-Occupancy.",
               "Space Function Retail - sales set occupant activity schedule to NECB-Activity.",
               "Space Function Retail - sales set lighting schedule to NECB-C-Lighting.",
               "Space Function Retail - sales set electric equipment schedule to NECB-C-Electric-Equipment.",
               "Space Function Retail - sales set infiltration schedule to Always On.",
               "Space Function Retail - sales set heating setpoint schedule to NECB-C-Thermostat Setpoint-Heating.",
               "Space Function Retail - sales set cooling setpoint schedule to NECB-C-Thermostat Setpoint-Cooling.",
               "Finished applying space types (loads)",
               "Started applying constructions",
               "Adding construction set: NECB 2011-NECB HDD Method-StripMall--is_residentialNo",
               "Adding construction Typical Insulated Exterior Mass Floor R-15.63.",
               "Adding construction Typical Insulated Exterior Mass Wall R-12.5.",
               "Adding construction Typical Insulated Metal Building Roof R-20.41.",
               "Adding construction Typical Interior Floor.",
               "Adding construction Typical Interior Wall.",
               "Adding construction Typical Interior Ceiling.",
               "Adding construction Typical Insulated Carpeted 6in Slab Floor.",
               "Adding construction U 0.55 SHGC 0.31 Dbl Ref-D Tint 6mm/6mm Air.",
               "Adding construction Typical Insulated Metal Door R-1.43.",
               "Adding construction U 0.35 SHGC 0.35 Dbl LoE (e2-.1) Tint 6mm/13mm Air.",
               "Adding construction Typical Overhead Door R-2.0.",
               "Adding construction U 0.48 SHGC 0.40 Dbl Ref-D Clr 6mm/13mm.",
               "Adding construction Typical Interior Window.",
               "Adding construction Typical Interior Door.",
               "Adding construction Typical Interior Partition.",
               "Finished applying constructions",
               "WWR NonRes = 0%; window = 0 ft2, wall = 0 ft2.",
               "WWR Res = 0%; window = 0 ft2, wall = 0 ft2.",
               "WWR Semiheated = 0%; window = 0 ft2, wall = 0 ft2.",
               "The skylight to roof ratios (SRRs) are: NonRes: 0%, Res: 0%.",
               "Started creating thermal zones",
               "Finished creating thermal zones",
               "Running simulation /mnt/openstudio/analysis_4fef0e0f-5396-4c55-a6e1-2cd6803db3ab/data_point_97ec4d80-5e6f-450e-988b-2e11c7de29dd/run/000_create_prototype_building/output/RetailStripmall-NECB 2011-NECB HDD Method-CAN_NS_Greenwood.713970_CWEC.epw/SR0.",
               "Finished run.",
               "Started Adding HVAC",
               "Finished adding HVAC",
               "Started Adding Service Water Heating",
               "Adding service water loop.",
               "Adding water heater.",
               "Template =",
               "Finished adding Service Water Heating",
               "Set sizing factors to 1.3 for heating and 1.3 for cooling.",
               "Running simulation /mnt/openstudio/analysis_4fef0e0f-5396-4c55-a6e1-2cd6803db3ab/data_point_97ec4d80-5e6f-450e-988b-2e11c7de29dd/run/000_create_prototype_building/output/RetailStripmall-NECB 2011-NECB HDD Method-CAN_NS_Greenwood.713970_CWEC.epw/SR1.",
               "Finished run.",
               "Started applying multizone vav OA sizing.",
               "Finished applying multizone vav OA sizing.",
               "Started applying prototype HVAC assumptions.",
               "For Fan Constant Volume 1: allowed_hp = 1.43HP; motor eff = 61.5%; total fan eff = 40% based on 2094 cfm.",
               "For Fan Constant Volume 10: allowed_hp = 1.46HP; motor eff = 61.5%; total fan eff = 40% based on 2139 cfm.",
               "For Fan Constant Volume 2: allowed_hp = 1.01HP; motor eff = 61.5%; total fan eff = 40% based on 1080 cfm.",
               "For Fan Constant Volume 3: allowed_hp = 1.01HP; motor eff = 61.5%; total fan eff = 40% based on 1101 cfm.",
               "For Fan Constant Volume 4: allowed_hp = 1.01HP; motor eff = 61.5%; total fan eff = 40% based on 1081 cfm.",
               "For Fan Constant Volume 5: allowed_hp = 1.01HP; motor eff = 61.5%; total fan eff = 40% based on 1080 cfm.",
               "For Fan Constant Volume 6: allowed_hp = 1.01HP; motor eff = 61.5%; total fan eff = 40% based on 1079 cfm.",
               "For Fan Constant Volume 7: allowed_hp = 1.01HP; motor eff = 61.5%; total fan eff = 40% based on 1098 cfm.",
               "For Fan Constant Volume 8: allowed_hp = 1.01HP; motor eff = 61.5%; total fan eff = 40% based on 1098 cfm.",
               "For Fan Constant Volume 9: allowed_hp = 1.01HP; motor eff = 61.5%; total fan eff = 40% based on 1124 cfm.",
               "Sp-LGstore1 Sys-3 Flr-1 Sch-C HPlcmt-west ZN NECB System 3 PSZ requires an economizer because the total cooling capacity of 68355 Btu/hr exceeds the minimum capacity of 68243 Btu/hr.",
               "Sp-SMstore3 Sys-3 Flr-1 Sch-C HPlcmt-north ZN NECB System 3 PSZ does not require an economizer because the total cooling capacity of 34372 Btu/hr is less than the minimum capacity of 68243 Btu/hr.",
               "Sp-SMstore8 Sys-3 Flr-1 Sch-C HPlcmt-east ZN NECB System 3 PSZ does not require an economizer because the total cooling capacity of 35712 Btu/hr is less than the minimum capacity of 68243 Btu/hr.",
               "Sp-SMstore2 Sys-3 Flr-1 Sch-C HPlcmt-north ZN NECB System 3 PSZ does not require an economizer because the total cooling capacity of 34380 Btu/hr is less than the minimum capacity of 68243 Btu/hr.",
               "Sp-SMstore1 Sys-3 Flr-1 Sch-C HPlcmt-north ZN NECB System 3 PSZ does not require an economizer because the total cooling capacity of 34895 Btu/hr is less than the minimum capacity of 68243 Btu/hr.",
               "Sp-SMstore7 Sys-3 Flr-1 Sch-C HPlcmt-north ZN NECB System 3 PSZ does not require an economizer because the total cooling capacity of 34420 Btu/hr is less than the minimum capacity of 68243 Btu/hr.",
               "Sp-SMstore5 Sys-3 Flr-1 Sch-C HPlcmt-north ZN NECB System 3 PSZ does not require an economizer because the total cooling capacity of 34821 Btu/hr is less than the minimum capacity of 68243 Btu/hr.",
               "Sp-SMstore4 Sys-3 Flr-1 Sch-C HPlcmt-north ZN NECB System 3 PSZ does not require an economizer because the total cooling capacity of 34819 Btu/hr is less than the minimum capacity of 68243 Btu/hr.",
               "Sp-LGstore2 Sys-3 Flr-1 Sch-C HPlcmt-north ZN NECB System 3 PSZ does not require an economizer because the total cooling capacity of 67020 Btu/hr is less than the minimum capacity of 68243 Btu/hr.",
               "Sp-SMstore6 Sys-3 Flr-1 Sch-C HPlcmt-north ZN NECB System 3 PSZ does not require an economizer because the total cooling capacity of 34377 Btu/hr is less than the minimum capacity of 68243 Btu/hr.",
               "Finished applying prototype HVAC assumptions.",
               "Started applying HVAC efficiency standards.",
               "For Sp-LGstore1 Sys-3 Flr-1 Sch-C HPlcmt-west ZN NECB System 3 PSZ, ERV not required based on 0% OA flow, design supply air flow of 2139cfm, and climate zone NECB HDD Method.",
               "For Sp-LGstore1 Sys-3 Flr-1 Sch-C HPlcmt-west ZN NECB System 3 PSZ, ERV not required based on exhaust heat content.",
               "For NECB 2011 NECB HDD Method:  Sp-LGstore1 Sys-3 Flr-1 Sch-C HPlcmt-west ZN NECB System 3 PSZ: DCV is not required for any system.",
               "For Sp-LGstore1 Sys-3 Flr-1 Sch-C HPlcmt-west ZN NECB System 3 PSZ: Annual occupied hours = 4168 hr/yr, assuming a 0.15 occupancy threshold.  This schedule will be used as the HVAC operation schedule.",
               "For Sp-LGstore1 Sys-3 Flr-1 Sch-C HPlcmt-west ZN NECB System 3 PSZ: Because the system has an economizer, it requires a motorized OA damper.",
               "For Sp-LGstore1 Sys-3 Flr-1 Sch-C HPlcmt-west ZN NECB System 3 PSZ: Setting motorized OA damper schedule to Sp-LGstore1 Sys-3 Flr-1 Sch-C HPlcmt-west ZN NECB System 3 PSZ Occ Sch.",
               "For Sp-LGstore2 Sys-3 Flr-1 Sch-C HPlcmt-north ZN NECB System 3 PSZ, ERV not required based on 0% OA flow, design supply air flow of 2094cfm, and climate zone NECB HDD Method.",
               "For Sp-LGstore2 Sys-3 Flr-1 Sch-C HPlcmt-north ZN NECB System 3 PSZ, ERV not required based on exhaust heat content.",
               "For NECB 2011 NECB HDD Method:  Sp-LGstore2 Sys-3 Flr-1 Sch-C HPlcmt-north ZN NECB System 3 PSZ: DCV is not required for any system.",
               "For Sp-LGstore2 Sys-3 Flr-1 Sch-C HPlcmt-north ZN NECB System 3 PSZ: Annual occupied hours = 4168 hr/yr, assuming a 0.15 occupancy threshold.  This schedule will be used as the HVAC operation schedule.",
               "For Sp-LGstore2 Sys-3 Flr-1 Sch-C HPlcmt-north ZN NECB System 3 PSZ: Setting motorized OA damper schedule to Sp-LGstore2 Sys-3 Flr-1 Sch-C HPlcmt-north ZN NECB System 3 PSZ Occ Sch.",
               "For Sp-SMstore1 Sys-3 Flr-1 Sch-C HPlcmt-north ZN NECB System 3 PSZ, ERV not required based on 0% OA flow, design supply air flow of 1101cfm, and climate zone NECB HDD Method.",
               "For Sp-SMstore1 Sys-3 Flr-1 Sch-C HPlcmt-north ZN NECB System 3 PSZ, ERV not required based on exhaust heat content.",
               "For NECB 2011 NECB HDD Method:  Sp-SMstore1 Sys-3 Flr-1 Sch-C HPlcmt-north ZN NECB System 3 PSZ: DCV is not required for any system.",
               "For Sp-SMstore1 Sys-3 Flr-1 Sch-C HPlcmt-north ZN NECB System 3 PSZ: Annual occupied hours = 4168 hr/yr, assuming a 0.15 occupancy threshold.  This schedule will be used as the HVAC operation schedule.",
               "For Sp-SMstore1 Sys-3 Flr-1 Sch-C HPlcmt-north ZN NECB System 3 PSZ: Setting motorized OA damper schedule to Sp-SMstore1 Sys-3 Flr-1 Sch-C HPlcmt-north ZN NECB System 3 PSZ Occ Sch.",
               "For Sp-SMstore2 Sys-3 Flr-1 Sch-C HPlcmt-north ZN NECB System 3 PSZ, ERV not required based on 0% OA flow, design supply air flow of 1080cfm, and climate zone NECB HDD Method.",
               "For Sp-SMstore2 Sys-3 Flr-1 Sch-C HPlcmt-north ZN NECB System 3 PSZ, ERV not required based on exhaust heat content.",
               "For NECB 2011 NECB HDD Method:  Sp-SMstore2 Sys-3 Flr-1 Sch-C HPlcmt-north ZN NECB System 3 PSZ: DCV is not required for any system.",
               "For Sp-SMstore2 Sys-3 Flr-1 Sch-C HPlcmt-north ZN NECB System 3 PSZ: Annual occupied hours = 4168 hr/yr, assuming a 0.15 occupancy threshold.  This schedule will be used as the HVAC operation schedule.",
               "For Sp-SMstore2 Sys-3 Flr-1 Sch-C HPlcmt-north ZN NECB System 3 PSZ: Setting motorized OA damper schedule to Sp-SMstore2 Sys-3 Flr-1 Sch-C HPlcmt-north ZN NECB System 3 PSZ Occ Sch.",
               "For Sp-SMstore3 Sys-3 Flr-1 Sch-C HPlcmt-north ZN NECB System 3 PSZ, ERV not required based on 0% OA flow, design supply air flow of 1079cfm, and climate zone NECB HDD Method.",
               "For Sp-SMstore3 Sys-3 Flr-1 Sch-C HPlcmt-north ZN NECB System 3 PSZ, ERV not required based on exhaust heat content.",
               "For NECB 2011 NECB HDD Method:  Sp-SMstore3 Sys-3 Flr-1 Sch-C HPlcmt-north ZN NECB System 3 PSZ: DCV is not required for any system.",
[...]
yWIXzkMcqnIc8VuH63xb2ecFYhfPYQiMvGKtwHvVa+dqvIik3Vs2/qwRgIV8NmIV8MWAW8rWAWchjFcxCHqtgFvJYBbOQxyqYhTxWwSwKxiqch3y7xXnIYxXOQx6rcB7yWIXzkMcqnIc8VuE85LEK5yGPVTgPeazC9b8t7POCsQrnsYVGXjBW4TzqtfK1ie/lxqp5JDzAQr4aMAv5YsAs5GsBs5DHKpiFPFbBLOSxCmYhj1UwC3msglkUjFU4D/l2i/OQxyqchzxW4TzksQrnIY9VOA95rMJ5yGMVzkMeq3Ae8liF639b2OcFYxXOYwuNvGCswnnUa+Vrg3XLjVXz5F2AhXw1YBbyxYBZyNcCZiGPVTALeayCWchjFcxCHqtgFvJYBbMoGKtwHvLtFuchj1U4D3mswnnIYxXOQx6rcB7yWIXzkMcqnIc8VuE85LEK1/+2sM8LxiqcxxYaecFYhfOo18rX5heWG6vmAYcAC/lqwCzkiwGzkK8FzEIeq2AW8lgFs5DHKpiFPFbBLOSxCmZRGLaG8pBvtziPoiArlEdRxhXKoyj+CuVRlPmG8iiKg0N5FCXFoTyKQuRQHkX5cqj+t4V9XphKh/LYQiMvGKtwHutb+fsyCa+L6GZ1qsb6dhkgm+fGNpObUStPgF0bFbvMf050+jSajv2k2eu0lOP0Wqpr/ub2ysXN3mUY97HWvj/wUj2K4tmTuyCZ5yffv/4SIdOZwKvY1/GbqYkzLv1EwzFb5XipvWQa6zmGSWRenPcNB3xzmctc5jKXucxlLnOZy1zmMpe5zGUuc5nLXOYyl7nMZS5zmctc5jKXucxlLnOZy1zmMpe5zGUuc5nLXOYyl7nMZS5zmctc5jKXucxlLnP5L7U8a0c3Oo4DX7/0zAdrnXbH8vOq5qOxyepHY891HOhk8fHaRmv5AeJJGKXtMBjrtR+RTb72Od31n6xN2vlXz0+i0EuDaJxBNZJUT/Yv9GUU60a5Tz7/okd67K++oPnPmv1OS3XNJ5c75oPM5o9GqC9TA7ZGeinb/jDS6dk4Necns7icjoc5aXNP/bFGYkmo75/9bu1nuc0RXKpmehUk7SS/KuWMzPHgSe3s/J15w6vm/4Crqi3xzUfHM/aF7odJlARG8Fn24zKvZnkYma9QxdFtNaQlVjD2tdkP+06r4rOXx8e6T7wMdGjqrbk4p/N9Moqj6UT76vvv1T8WP79rf7jyksXn380G23u4OvvqanZC2t5o9Nx4tEM9HqVX6kflqn+rxpMwbKjHq49IwmCom/vO3rvO+721++2LVxLFqvkxeymdH9THzGZRqgtf87N/Znec6hfIHKaMF3rvPr5vf9IzdXp6Oj959RRz1cVl/1j1pS6Pi1h7n+o8+XPF51R9vDlfi1d3asraFMOiUvIgh/YHL0mC0Vj7AxMRkbzLz+T7eqdyeaEn0+SqWfdaZJf08fx61t9JYfi4zKtsm0fWdUnSOPqky/nMH1vXKZp4wyCdlbNaPLj2q8otllZ1VZY3ktXbSp3tUfnmY47ldl698ah95VRVq7LdyrN+buVdtdTjP6+bKcxxcKBe//ZW/ffVb2/U+as3b3/+9Sf1y6uffh6oF2dvzsoJPM/u2vrOMyOaSiOVRHGqxtPrrA6GKo80SZSXDLPhJRiPSiguz73RedCZvZa6KH9ziXU6jcdq4sWJfh5GXtr0zC1/L7uUD352kf+s1MlcP6I9sF28hHXCnzeb9HI/f+bbPd/szUe+vvSmYaomcZTdw/Sjlnr03fHxYHB29mjDwTPEIQ5xiEMc4hCHOMQhDnGI89fEUcn0OvsnsPK1+aHyvZkhirVPGtKQhjSkIQ1pSEMa0pCGNKQpprnN/2vWn2guwqkmDnGIQxziEIc4xCEOcYhDHOLUwbn/3kDHfG/g+VT63sCuk/+G7cmTw8OTE5KSlKQkJSlJSUpSkpKUpCQlKUlJuhukbk7qpRJpJyftdl33uE9SkpKUpCQlKUlJSlKSkpSkJCUpSXeDtGtIn8eBQOqe5KSOc3TU7ZKUpCQlKUlJSlKSkpSkJCUpSUlK0t0gPTSkb6+mEulxTnqSHb2nJCUpSUlKUpKSlKQkJSlJSUpSkpJ0N0h7hvQ/2pdIj3LSZ88Gg6MjkpKUpCQlKUlJSlKSkpSkJCUpSUm6G6T9/J2JqZZI+znpYNDvk5SkJCUpSUlKUpKSlKQkJSlJSUrSXSE9MqQvIylZ0O3lpMfHrtvrkZSkJCUpSUlKUpKSlKQkJSlJSUrSrZEuUfzYu22uFbtrp0Ea6vMrb6Lbqb5Lm49eRNM4WY8x+/KZz4JrPU6CaBzqJFdYI3FwoJ74vvJUrqRug/RKJdG1Vn53zTOTm1Hbm0z02G82jHdjb80TlkfbS9O42bhrtFS/U/FJs+xJbvknJeks1HO8fW88vIri7PmNUF9WoF1oXEbjdP9WB6Or1GhcRKFfXmN+bc4n++cvkzSK9aE6nyX7XfU8jPcddT682h+oF6/D4XW6P47i7BL8/qv69Wzw1Dws1deqq16f/65eDYfmsY/2ii7qjwfJMA4m6b/Ex/x44Ac3X18WnyOLZVoq8E8bQ1Pxg+wkecFYxx96xw2Vn7nThh8kk9CbPQ7GYba0fxFGw08/NGS+THT+ElQ6m2TPNyfv4KN3481/WvhMc9x4sSlOdar84HoS6vZY357fjJqN775kbKnDTif/Y+1mM7K+l3qZ7rs/GqF3ocPG44avL71pmKpJHF0GoW605isf7hqPnXan1bjxwqle/H1o7knZc7LbzGBwdtb43Cql44J0uiCdQ5BOD6TTB+kcgXSOQTonIB2ngxJCVbSDKmkHVdMOqqgdVFU7qLJ2UHXtoArbQVW2i6psF3avRlW2i6pst1Jlq2R6fb3yJdWlOlqs/Qoy4jmqJiOeoWoy4vmpJiPu+2oy4q6vJiPu+Woy4o6vJiPu92oyciOrqAOqY7mNVdQBVbLcxCrqgGpZbmEVdUDVLDewijqgepbbV0Ud1H0ZVM9y76qoU76eb4NxWr1tXZgfldcRT09FHfH0VNQRT09FHXG7V9QRt3tFHXG7V9QRt3tFHXG7V9SR+1dVIVRFyx2sqhCqpuUeVlUIVdVyF6sqhKpruY9VFUJVttzJqgrB7tWoypabWVWh8pV9/1uLtd8qLLW5zso/9OZfOwywcDdv0d28xeHmLXqbt+hv3uJo8xbHm7c42bzFSmfflMcW9nfBG7M4D/mdLZyH/KYXzkN+pxfnIb8JjPOQ3x/GechvHeM85HeVcf1vC/vc3UYf30Ijd7fQyd16rXztlzeWG6vm3+4IsJCvBsxCvhgwC/lawCzksQpmIY9VMAt5rIJZyGMVzEIeq2AWBb+5xnnIv/rDechjFc5DHqtwHvJYhfOQxyqchzxW4TzksQrnIY9VOA95rML1vy3s84Jf8eM8ttDIC8YqnEe9Vr72O7LKjVXzL9ECWMhXA2YhXwyYhXwtYBbyWAWzkMcqmIU8VsEs5LEKZiGPVTCLgrEK5yHfbnEe8liF85DHKpyHPFbhPOSxCuchj1U4D3mswnnIYxXOQx6rcP1vC/u8YKzCeWyhkReMVTiPeq187VeRlBur5t9VArCQrwbMQr4YMAv5WsAs5LEKZiGPVTALeayCWchjFcxCHqtgFgVjFc5Dvt3iPOSxCuchj1U4D3mswnnIYxXOQx6rcB7yWIXzkMcqnIc8VuH63xb2ecFYhfPYQiMvGKtwHvVa+drE93Jj1TwSHmAhXw2YhXwxYBbytYBZyGMVzEIeq2AW8lgFs5DHKpiFPFbBLArGKpyHfLvFechjFc5DHqtwHvJYhfOQxyqchzxW4TzksQrnIY9VOA95rML1vy3s84KxCuexhUZeMFbhPOq18rXBuuXGqnnyLsBCvhowC/liwCzkawGzkMcqmIU8VsEs5LEKZiGPVTALeayCWRSMVTgP+XaL85DHKpyHPFbhPOSxCuchj1U4D3mswnnIYxXOQx6rcB7yWIXrf1vY5wVjFc5jC428YKzCedRr5WvzC8uNVfOAQ4CFfDVgFvLFgFnI1wJmIY9VMAt5rIJZyGMVzEIeq2AW8lgFsygMW0N5yLdbnEdRkBXKoyjjCuVRFH+F8ijKfEN5FMXBoTyKkuJQHkUhciiPonw5VP/bwj4vTKVDeWyhkReMVTiP9a38fZmE10V0szpVY327DJDNc2Obyc2olSfAro2KXeY/Jzp9Gk3HftLsdVrKcXot1TV/c3vl4mbvMoz7WGvfH3ipHkXx7MldkMzzk+9ff4mQ6UzgVezr+M3UxBmXfqLhmK1yvNReMo31HMMkMi/O+4YDvrnMZS5zmctc5jKXucxlLnOZy1zmMpe5zGUuc5nLXOYyl7nMZS5zmctc5jKXucxlLnOZy1zmMpe5zGUuc5nLXOYyl7nMZS5zmctc5jKXufyXWp61oxsdx4GvX3rmg7VOu2P5eVXz0dhk9aOx5zoOdLL4eG2jtfwA8SSM0nYYjPXaj8gmX/uc7vpP1ibt/KvnJ1HopUE0zqAaSaon+xf6Mop1o9wnn3/RIz32V1/Q/GfNfqeluuaTyx3zQWbzRyPUl6kBWyO9lG1/GOn0bJya85NZXE7Hw5y0uaf+WCOxJNT3z3639rPc5gguVTO9CpJ2kl+VckbmePCkdnb+zrzhVfN/wFXVlvjmo+MZ+0L3wyRKAiP4LPtxmVezPIzMV6ji6LYa0hIrGPva7Id9p1Xx2cvjY90nXgY6NPXWXJzT+T4ZxdF0on31/ffqH4uf37U/XHnJ4vPvZoPtPVydfXU1OyFtbzR6bjzaoR6P0iv1o3LVv1XjSRg21OPVRyRhMNTNfWfvXef93tr99sUriWLV/Ji9lM4P6mNmsyjVha/52T+zO071C2QOU8YLvXcf37c/6Zk6PT2dn7x6irnq4rJ/rPpSl8dFrL1PdZ78ueJzqj7enK/Fqzs1ZW2KYVEpeZBD+4OXJMForP2BiYhI3uVn8n29U7m80JNpctWsey2yS/p4fj3r76QwfFzmVbbNI+u6JGkcfdLlfOaPresUTbxhkM7KWS0eXPtV5RZLq7oqyxvJ6m2lzvaofPMxx3I7r9541L5yqqpV2W7lWT+38q5a6vGf180U5jg4UK9/e6v+++q3N+r81Zu3P//6k/rl1U8/D9SLszdn5QSeZ3dtfeeZEU2lkUqiOFXj6XVWB0OVR5okykuG2fASjEclFJfn3ug86MxeS12Uv7nEOp3GYzXx4kQ/DyMvbXrmlr+XXcoHP7vIf1bqZK4f0R7YLl7COuHPm016uZ8/8+2eb/bmI19fetMwVZM4yu5h+lFLPfru+HgwODt7tOHgGeIQhzjEIQ5xiEMc4hCHOMT5a+KoZHqd/RNY+dr8UPnezBDF2icNaUhDGtKQhjSkIQ1pSEMa0hTT3Ob/NetPNBfhVBOHOMQhDnGIQxziEIc4xCEOcerg3H9voGO+N/B8Kn1vYNfJf8P25Mnh4ckJSUlKUpKSlKQkJSlJSUpSkpKUpCTdDVI3J/VSibSTk3a7rnvcJylJSUpSkpKUpCQlKUlJSlKSkpSku0HaNaTP40AgdU9yUsc5Oup2SUpSkpKUpCQlKUlJSlKSkpSkJCXpbpAeGtK3V1OJ9DgnPcmO3lOSkpSkJCUpSUlKUpKSlKQkJSlJSbobpD1D+h/tS6RHOemzZ4PB0RFJSUpSkpKUpCQlKUlJSlKSkpSkJN0N0n7+zsRUS6T9nHQw6PdJSlKSkpSkJCUpSUlKUpKSlKQkJemukB4Z0peRlCzo9nLS42PX7fVISlKSkpSkJCUpSUlKUpKSlKQkJenWSJcofuzdNteK3bXTIA31+ZU30e1U36XNRy+iaZysx5h9+cxnwbUeJ0E0DnWSK6yRODhQT3xfeSpXUrdBeqWS6Forv7vmmcnNqO1NJnrsNxvGu7G35gnLo+2ladxs3DVaqt+p+KRZ9iS3/JOSdBbqOd6+Nx5eRXH2/EaoLyvQLjQuo3G6f6uD0VVqNC6i0C+vMb8255P985dJGsW6p85nyX5XPQ/jfUedD6/2B+rF63B4ne6Pozi7BL//qn49Gzw1D0v1teqq1+e/q1fDoXnso72ii/rjQTKMg0n6L/ExPx74wc3Xl8XnyGKZlgr808bQVPwgO0leMNbxh95JQ+Vn7rThB8kk9GaPg3GYLe1fhNHw0w8NmS8Tnb8Elc4m2fPNyTv46N14858WPtMcN15silOdKj+4noS6Pda35zejZuO7Lxlb6rDTyf9Yu9mMrO+lXqb77o9G6F3osPG44etLbxqmahJHl0GoG635yoe7xmOn3Wk1brxwqhd/H5p7Uvac7DYzGJydNT63Sum4IJ0uSOcQpNMD6fRBOkcgnWOQzglIx+mghFAV7aBK2kHVtIMqagdV1Q6qrB1UXTuownZQle2iKtuF3atRle2iKtutVNkqmV5fr3xJdamOFmu/gox4jqrJiGeomox4fqrJiPu+moy466vJiHu+moy446vJiPu9mozcyCrqgOpYbmMVdUCVLDexijqgWpZbWEUdUDXLDayiDqie5fZVUQd1XwbVs9y7KuqUr+fbYJxWb1sX5kfldcTTU1FHPD0VdcTTU1FH3O4VdcTtXlFH3O4VdcTtXlFH3O4VdeT+VVUIVdFyB6sqhKppuYdVFUJVtdzFqgqh6lruY1WFUJUtd7KqQrB7Naqy5WZWVah8Zd//1mLttwpLba6z8g+9+dcOAyzczVt0N29xuHmL3uYt+pu3ONq8xfHmLU42b7HS2TflsYX9XfDGLM5DfmcL5yG/6YXzkN/pxXnIbwLjPOT3h3Ee8lvHOA/5XWVc/9vCPne30ce30MjdLXRyt14rX/vljeXGqvm3OwIs5KsBs5AvBsxCvhYwC3msglnIYxXMQh6rYBbyWAWzkMcqmEXBb65xHvKv/nAe8liF85DHKpyHPFbhPOSxCuchj1U4D3mswnnIYxXOQx6rcP1vC/u84Ff8OI8tNPKCsQrnUa+Vr/2OrHJj1fxLtAAW8tWAWcgXA2YhXwuYhTxWwSzksQpmIY9VMAt5rIJZyGMVzKJgrMJ5yLdbnIc8VuE85LEK5yGPVTgPeazCechjFc5DHqtwHvJYhfOQxypc/9vCPi8Yq3AeW2jkBWMVzqNeK1/7VSTlxqr5d5UALOSrAbOQLwbMQr4WMAt5rIJZyGMVzEIeq2AW8lgFs5DHKphFwViF85BvtzgPeazCechjFc5DHqtwHvJYhfOQxyqchzxW4TzksQrnIY9VuP63hX1eMFbhPLbQyAvGKpxHvVa+NvG93Fg1j4QHWMhXA2YhXwyYhXwtYBbyWAWzkMcqmIU8VsEs5LEKZiGPVTCLgrEK5yHfbnEe8liF85DHKpyHPFbhPOSxCuchj1U4D3mswnnIYxXOQx6rcP1vC/u8YKzCeWyhkReMVTiPeq18bbBuubFqnrwLsJCvBsxCvhgwC/lawCzksQpmIY9VMAt5rIJZyGMVzEIeq2AWBWMVzkO+3eI85LEK5yGPVTgPeazCechjFc5DHqtwHvJYhfOQxyqchzxW4frfFvZ5wViF89hCIy8Yq3Ae9Vr52vzCcmPVPOAQYCFfDZiFfDFgFvK1gFnIYxXMQh6rYBbyWAWzkMcqmIU8VsEsCsPWUB7y7RbnURRkhfIoyrhCeRTFX6E8ijLfUB5FcXAoj6KkOJRHUYgcyqMoXw7V/7awzwtT6VAeW2jkBWMVzmN9K39fJuF1Ed2sTtVY3y4DZPPc2GZyM2rlCbBro2KX+c+JTp9G07GfNHudlnKcXkt1zd/cXrm42bsM4z7W2vcHXqpHUTx7chck8/zk+9dfImQ6E3gV+/+vvfP/Tdv6/v/vn7/izpMWooGDISFf1mxKKWkrtU2VtJq2qIoMvoATYyPbJEFT/ve3rzFZWHOwrzmwV/Z5+ocs49jP58P36ynEBxmeT1Q548IXKo7pIsdHaUeTUM4wVEXmrN3XXOAbYYQRRhhhhBFGGGGEEUYYYYQRRhhhhBFGGGGEEUYYYYQRRhhhhBFGGGGEEUYYYYQRRhhhhBFGGGGEEUYYYYQRRhhhhBFGGOH/VHhqBrcyDF1HfrTVg7WWWV/xeVX1aGy0+GjshQxdGWWP1xrV+QPEYy+ITc/1Ze4jstFzz+nmP1kbmelXz48Dz47dwE+gjCiW41pX9oNQGsWefP4gB9J3Fm9o9lqlVa+Kpnpyua4eZFY/DE/2YwWWIz2XNa8GMu74sWqfxKI/8XspaWVb/JUjMSeUj1df5j7LrQ63Lyrx0I3MKO2VYkbqeHKRmbRfx+4NK38D66rN8dWj4wl7pns1DiJXCb5JXi5yN/NDyTxDFQZ3ekhzLNd3pJoPNauqefX8uC57Yd+VnhpvlaxNZ/NkEAaTsXTETz+JH7LX782roR1lz7+rCbb9NDp9Npo0iGkPBqfKw/SkP4iH4pVoiN+EceJ5hjhaPCPy3J6s1Kzty/q37dz59t2dBKGoXCe3Uv9FXCc22VDNfNVrPycrjn4HqUMN40zv8vqbeSOn4vj4eNZ45RRT1azbr3VvdX50Q2nflLn4QfMa3fNVe2V3d6yGtRoM2UhJCzmYV3YUuQNfOm1VIiK6TFvyW7mmnHf0eBINK2X7IunSo1l/lp9JnndU5C5NdWZZlygOgxtZzGd2blmnYGz33HhazCo7ufRdpRZzq7Iq84VkcVkpMz20Fx91zKfz4sIjasLSVdOZbsVZH6rprlro/Ie8nEIdOzvi89cv4o+zr+fi4uz8y/tPb8WHs7fv2+Jd57xTTOA0WbXlva1SNBEHIgrCWPiTUTIOeiItaRIJO+olyYvrDwooztte6TzZme2q6BZfXEIZT0JfjO0wkqdeYMcVWy3520lXPnmtm75WqDHzU7Qnttkt5Ak/rLfSy2P+mU73dLJXthzZtydeLMZhkKxhcqsqtn48OGi3O52tNReeAQ5wgAMc4AAHOMABDnCAA5z/Jo6IJqPkn8DCkepF4dhTRRRKBzSgAQ1oQAMa0IAGNKABDWhAs5zmLv3TrH/QdL2JBA5wgAMc4AAHOMABDnCAAxzglMF5/N5AS31v4MWE+t7AppV+wnZysrt7eAhSkIIUpCAFKUhBClKQghSkIAUpSF8GaSMltWOKtJ6SNpuNxkELpCAFKUhBClKQghSkIAUpSEEKUpC+DNKmIj0NXYK0cZiSWtb+frMJUpCCFKQgBSlIQQpSkIIUpCAFKUhfBumuIv0ynFCkBynpYXLsvQYpSEEKUpCCFKQgBSlIQQpSkIIUpC+DdE+R/i4dinQ/JX3zpt3e3wcpSEEKUpCCFKQgBSlIQQpSkIIUpC+DtJW+MzGRFGkrJW23Wy2QghSkIAUpSEEKUpCCFKQgBSlIQfpSSPcV6ceAqizY2EtJDw4ajb09kIIUpCAFKUhBClKQghSkIAUpSEG6MdI5ihPad5VcsXszdmNPXgztsTRjeR9Xtt4FkzDKx5h+f+UbdyT9yA18T0apQo7Ezo44cRxhi1RJ3LnxUETBSAqnmXNldDsw7fFY+k7FUN7Gds4F88O04zisGPdGVbTqmhdNk4saxS+K4qknZ3g12+8NgzC53vBkX4M20+gHfly7k+5gGCuNbuA5xTVmfXMxrl18jOIglC1xMY1qTXHqhTVLXPSGtbZ499nrjeKaH4RJF/z5SXzqtF+r02I5Ek3x+eJPcdbrqXO3tpd16qudqBe64/hX8pxXO457+3yYvIYWS7SE6xwbPTXi20kj2a4vw6tW3RBpyx0bjhuNPXt65PpeEqp1vaB384tB8yWis1sQ8XScXK8ab+favrVnry69Uh23dqgGpzgWjjsae9L05d3F7aBi/Pg9Y1Xs1uvpj9zJpmQdO7YT3cu/DM/uSs84MhzZtydeLMZh0Hc9aVRnkat748gy61Xj1vYmMvu9p9ak5JpkmWm3Ox3joVpIp8Gk02TS2WXS2WPSaTHp7DPpHDDpHDLpWHUuIa4RbXENaYtrTFtcg9riGtUW17C2uMa1xTWwLa6R3eAa2Q22tZprZDe4RnZDa2SLaDIaLXxJdaEdLZSOhgzZRnoyZAvpyZDtoydDzns9GXLW68mQc15PhpzxejLkfNeToTcyTR2mcUxvY5o6TCOZ3sQ0dZjGMr2FaeowjWZ6A9PUYRrP9PalqcO1LjONZ3rv0tQpPp7vXD/W37a66qXiOmTzaOqQzaOpQzaPpg453TV1yOmuqUNOd00dcrpr6pDTXVOH3r90hbhGNL2D6QpxjWl6D9MV4hrV9C6mK8Q1rul9TFeIa2TTO5muENtazTWy6c1MV6j4yH781CL3W4Wpba6+8A+92dcOM1g01m/RXL/F7vot9tZv0Vq/xf76LQ7Wb3G4fouFnX1dHhuY30vemOXzoN/Z4vOg3/Ti86Df6eXzoN8E5vOg3x/m86DfOubzoN9V5tv/NjDPG5vYxzewkTc2sJM3ym3luV/eWCytmn27I4MF3RtsFnRnsFnQfcFmQadVbBZ0WsVmQadVbBZ0WsVmQadVbBZLPrnm86A/+uPzoNMqPg86reLzoNMqPg86reLzoNMqPg86reLzoNMqPg86reLb/zYwz5d8xM/nsYGNfElaxedRbivP/Y6sYmnV7Eu0GCzo3mCzoDuDzYLuCzYLOq1is6DTKjYLOq1is6DTKjYLOq1is1iSVvF50MstnwedVvF50GkVnwedVvF50GkVnwedVvF50GkVnwedVvF50GkV3/63gXm+JK3i89jARr4kreLzKLeV534VSbG0avZdJQwWdG+wWdCdwWZB9wWbBZ1WsVnQaRWbBZ1WsVnQaRWbBZ1WsVksSav4POjlls+DTqv4POi0is+DTqv4POi0is+DTqv4POi0is+DTqv4POi0im//28A8X5JW8XlsYCNfklbxeZTbynMrvhdLq2Yl4Rks6N5gs6A7g82C7gs2CzqtYrOg0yo2CzqtYrOg0yo2CzqtYrNYklbxedDLLZ8HnVbxedBpFZ8HnVbxedBpFZ8HnVbxedBpFZ8HnVbxedBpFd/+t4F5viSt4vPYwEa+JK3i8yi3lecW1i2WVs0q7zJY0L3BZkF3BpsF3RdsFnRaxWZBp1VsFnRaxWZBp1VsFnRaxWaxJK3i86CXWz4POq3i86DTKj4POq3i86DTKj4POq3i86DTKj4POq3i86DTKr79bwPzfElaxeexgY18SVrF51FuK8+tX1gsrZoVOGSwoHuDzYLuDDYLui/YLOi0is2CTqvYLOi0is2CTqvYLOi0is1iabE1Lg96ueXzWFbIistjWY0rLo9l5a+4PJbVfOPyWFYOjstjWaU4Lo9lReS4PJbVl+Pa/zYwz5dWpePy2MBGviSt4vPI38q/FanwmpVuFsfCl3fzArJp3dhKdDuophVgc0vFzus/RzJ+HUx8J6rs1avCsvaqoql+a+wVKzd7n2A8lrV2nLYdy0EQTk/u3WhWP/nx/gsUmU4EzkJHhucTVc648IWKY7rI8VHa0SSUMwxVkTlr9zUX+EYYYYQRRhhhhBFGGGGEEUYYYYQRRhhhhBFGGGGEEUYYYYQRRhhhhBFGGGGEEUYYYYQRRhhhhBFGGGGEEUYYYYQRRhhhhBFG+D8VnprBrQxD15EfbfVgrWXWV3xeVT0aGy0+GnshQ1dG2eO1RnX+APHYC2LTc32Z+4hs9NxzuvlP1kZm+tXz48CzYzfwEygjiuW41pX9IJRGsSefP8iB9J3FG5q9VmnVq6KpnlyuqweZ1Q/Dk/1YgeVIz2XNq4GMO36s2iex6E/8Xkpa2RZ/5UjMCeXj1Ze5z3Krw+2LSjx0IzNKe6WYkTqeXGQm7dexe8PK38C6anN89eh4wp7pXo2DyFWCb5KXi9zN/FAyz1CFwZ0e0hzL9R2p5kPNqmpePT+uy17Yd6Wnxlsla9PZPBmEwWQsHfHTT+KH7PV782poR9nz72qCbT+NTp+NJg1i2oPBqfIwPekP4qF4JRriN2GceJ4hjhbPiDy3Jys1a/uy/m07d759dydBKCrXya3UfxHXiU02VDNf9drPyYqj30HqUMM407u8/mbeyKk4Pj6eNV45xVQ16/Zr3VudH91Q2jdlLn7QvEb3fNVe2d0dq2GtBkM2UtJCDuaVHUXuwJdOW5WIiC7TlvxWrinnHT2eRMNK2b5IuvRo1p/lZ5LnHRW5S1OdWdYlisPgRhbzmZ1b1ikY2z03nhazyk4ufVepxdyqrMp8IVlcVspMD+3FRx3z6by48IiasHTVdKZbcdaHarqrFjr/IS+nUMfOjvj89Yv44+zrubg4O//y/tNb8eHs7fu2eNc57xQTOE1WbXlvqxRNxIGIgjAW/mSUjIOeSEuaRMKOekny4vqDAorztlc6T3Zmuyq6xReXUMaT0BdjO4zkqRfYccVWS/520pVPXuumrxVqzPwU7Yltdgt5wg/rrfTymH+m0z2d7JUtR/btiReLcRgka5jcqoqtHw8O2u1OZ2vNhWeAAxzgAAc4wAEOcIADHOAA57+JI6LJKPknsHCkelE49lQRhdIBDWhAAxrQgAY0oAENaEADGtAsp7lL/zTrHzRdbyKBAxzgAAc4wAEOcIADHOAABzhlcB6/N9BS3xt4MaG+N7BppZ+wnZzs7h4eghSkIAUpSEEKUpCCFKQgBSlIQQrSl0HaSEntmCKtp6TNZqNx0AIpSEEKUpCCFKQgBSlIQQpSkIIUpC+DtKlIT0OXIG0cpqSWtb/fbIIUpCAFKUhBClKQghSkIAUpSEEK0pdBuqtIvwwnFOlBSnqYHHuvQQpSkIIUpCAFKUhBClKQghSkIAXpyyDdU6S/S4ci3U9J37xpt/f3QQpSkIIUpCAFKUhBClKQghSkIAXpyyBtpe9MTCRF2kpJ2+1WC6QgBSlIQQpSkIIUpCAFKUhBClKQvhTSfUX6MaAqCzb2UtKDg0Zjbw+kIAUpSEEKUpCCFKQgBSlIQQpSkG6MdI7ihPZdJVfs3ozd2JMXQ3sszVjex5Wtd8EkjPIxpt9f+cYdST9yA9+TUaqQI7GzI04cR9giVRJ3bjwUUTCSwmnmXBndDkx7PJa+UzGUt7Gdc8H8MO04DivGvVEVrbrmRdPkokbxi6J46skZXs32e8MgTK43PNnXoM00+oEf1+6kOxjGSqMbeE5xjVnfXIxrFx+jOAjlvriYRrWmOPXCmiUuesNaW7z77PVGcc0PwqQL/vwkPnXar9VpsRyJpvh88ac46/XUuVvbyzr11U7UC91x/Ct5zqsdx719PkxeQ4slWsJ1jo2eGvHtpJFs15fhVcsyRNpyx4bjRmPPnh65vpeEal0v6N38YtB8iejsFkQ8HSfXq8bbubZv7dmrS69Ux60dqsEpjoXjjsaeNH15d3E7qBg/fs9YFbv1evojd7IpWceO7UT38i/Ds7vSM44MR/btiReLcRj0XU8a1Vnk6t44ssx61bi1vYnMfu+pNSm5Jllm2u1Ox3ioFtJpMOk0mXR2mXT2mHRaTDr7TDoHTDqHTDpWnUuIa0RbXEPa4hrTFtegtrhGtcU1rC2ucW1xDWyLa2Q3uEZ2g22t5hrZDa6R3dAa2SKajEYLX1JdaEcLpaMhQ7aRngzZQnoyZPvoyZDzXk+GnPV6MuSc15MhZ7yeDDnf9WTojUxTh2kc09uYpg7TSKY3MU0dprFMb2GaOkyjmd7ANHWYxjO9fWnqcK3LTOOZ3rs0dYqP5zvXj/W3ra56qbgO2TyaOmTzaOqQzaOpQ053TR1yumvqkNNdU4ec7po65HTX1KH3L10hrhFN72C6Qlxjmt7DdIW4RjW9i+kKcY1reh/TFeIa2fROpivEtlZzjWx6M9MVKj6yHz+1yP1WYWqbqy/8Q2/2tcMMFo31WzTXb7G7fou99Vu01m+xv36Lg/VbHK7fYmFnX5fHBub3kjdm+Tzod7b4POg3vfg86Hd6+TzoN4H5POj3h/k86LeO+Tzod5X59r8NzPPGJvbxDWzkjQ3s5I1yW3nulzcWS6tm3+7IYEH3BpsF3RlsFnRfsFnQaRWbBZ1WsVnQaRWbBZ1WsVnQaRWbxZJPrvk86I/++DzotIrPg06r+DzotIrPg06r+DzotIrPg06r+DzotIrPg06r+Pa/DczzJR/x83lsYCNfklbxeZTbynO/I6tYWjX7Ei0GC7o32CzozmCzoPuCzYJOq9gs6LSKzYJOq9gs6LSKzYJOq9gslqRVfB70csvnQadVfB50WsXnQadVfB50WsXnQadVfB50WsXnQadVfB50WsW3/21gni9Jq/g8NrCRL0mr+DzKbeW5X0VSLK2afVcJgwXdG2wWdGewWdB9wWZBp1VsFnRaxWZBp1VsFnRaxWZBp1VsFkvSKj4Pernl86DTKj4POq3i86DTKj4POq3i86DTKj4POq3i86DTKj4POq3i2/82MM+XpFV8HhvYyJekVXwe5bby3IrvxdKqWUl4Bgu6N9gs6M5gs6D7gs2CTqvYLOi0is2CTqvYLOi0is2CTqvYLJakVXwe9HLL50GnVXwedFrF50GnVXwedFrF50GnVXwedFrF50GnVXwedFrFt/9tYJ4vSav4PDawkS9Jq/g8ym3luYV1i6VVs8q7DBZ0b7BZ0J3BZkH3BZsFnVaxWdBpFZsFnVaxWdBpFZsFnVaxWSxJq/g86OWWz4NOq/g86LSKz4NOq/g86LSKz4NOq/g86LSKz4NOq/g86LSKb//bwDxfklbxeWxgI1+SVvF5lNvKc+sXFkurZgUOGSzo3mCzoDuDzYLuCzYLOq1is6DTKjYLOq1is6DTKjYLOq1is1habI3Lg15u+TyWFbLi8lhW44rLY1n5Ky6PZTXfuDyWlYPj8lhWKY7LY1kROS6PZfXluPa/DczzpVXpuDw2sJEvSav4PPK38m9FKrxmpZvFsfDl3byAbFo3thLdDqppBdjcUrHz+s+RjF8HE9+JKnv1qrCsvapoqt8ae8XKzd4nGI9lrR2nbcdyEITTk3s3mtVPfrz/AkWmE4Gz0JHh+USVMy58oeKYLnJ8lHY0CeUMQ1Vkztp9zQW+EUYYYYQRRhhhhBFGGGGEEUYYYYQRRhhhhBFGGGGEEUYYYYQRRhhhhBFGGGGEEUYYYYQRRhhhhBFGGGGEEUYYYYQRRhhhhBH+T4WnZnArw9B15EdbPVhrmfUVn1dVj8ZGi4/GXsjQlVH2eK1RnT9APPaC2PRcX+Y+Ihs995xu/pO1kZl+9fw48OzYDfwEyohiOa51ZT8IpVHsyecPciB9Z/GGZq9VWvWqaKonl+vqQWb1w/BkP1ZgOdJzWfNqIOOOH6v2SSz6E7+Xkla2xV85EnNC+Xj1Ze6z3Opw+6ISD93IjNJeKWakjicXmUn7dezesPI3sK7aHF89Op6wZ7pX4yByleCb5OUidzM/lMwzVGFwp4c0x3J9R6r5ULOqmlfPj+uyF/Zd6anxVsnadDZPBmEwGUtH/PST+CF7/d68GtpR9vy7mmDbT6PTZ6NJg5j2YHCqPExP+oN4KF6JhvhNGCeeZ4ijxTMiz+3JSs3avqx/286db9/dSRCKynVyK/VfxHVikw3VzFe99nOy4uh3kDrUMM70Lq+/mTdyKo6Pj2eNV04xVc26/Vr3VudHN5T2TZmLHzSv0T1ftVd2d8dqWKvBkI2UtJCDeWVHkTvwpdNWJSKiy7Qlv5VrynlHjyfRsFK2L5IuPZr1Z/mZ5HlHRe7SVGeWdYniMLiRxXxm55Z1CsZ2z42nxayyk0vfVWoxtyqrMl9IFpeVMtNDe/FRx3w6Ly48oiYsXTWd6Vac9aGa7qqFzn/IyynUsbMjPn/9Iv44+3ouLs7Ov7z/9FZ8OHv7vi3edc47xQROk1Vb3tsqRRNxIKIgjIU/GSXjoCfSkiaRsKNekry4/qCA4rztlc6Tndmuim7xxSWU8ST0xdgOI3nqBXZcsdWSv5105ZPXuulrhRozP0V7YpvdQp7ww3orvTzmn+l0Tyd7ZcuRfXvixWIcBskaJreqYuvHg4N2u9PZWnPhGeAABzjAAQ5wgAMc4AAHOMD5b+KIaDJK/gksHKleFI49VUShdEADGtCABjSgAQ1oQAMa0IAGNMtp7tI/zfoHTdebSOAABzjAAQ5wgAMc4AAHOMABThmcx+8NtNT3Bl5MqO8NbFrpJ2wnJ7u7h4cgBSlIQQpSkIIUpCAFKUhBClKQgvRlkDZSUjumSOspabPZaBy0QApSkIIUpCAFKUhBClKQghSkIAXpyyBtKtLT0CVIG4cpqWXt7zebIAUpSEEKUpCCFKQgBSlIQQpSkIL0ZZDuKtIvwwlFepCSHibH3muQghSkIAUpSEEKUpCCFKQgBSlIQfoySPcU6e/SoUj3U9I3b9rt/X2QghSkIAUpSEEKUpCCFKQgBSlIQfoySFvpOxMTSZG2UtJ2u9UCKUhBClKQghSkIAUpSEEKUpCCFKQvhXRfkX4MqMqCjb2U9OCg0djbAylIQQpSkIIUpCAFKUhBClKQghSkGyOdozihfVfJFbs3Yzf25MXQHkszlvdxZetdMAmjfIzp91e+cUfSj9zA92SUKuRI7OyIE8cRtkiVxJ0bD0UUjKRwmjlXRrcD0x6Ppe9UDOVtbOdcMD9MO47DinFvVEWrrnnRNLmoUfyiKJ56coZXs/3eMAiT6w1P9jVoM41+4Me1O+kOhrHS6AaeU1xj1jcX49rFxygOQnkgLqZRrSlOvbBmiYvesNYW7z57vVFck3YUiz8/iU+d9mt1VixHoik+X/wpzno9derW9rI+fbUT9UJ3HP9KnvNqx3Fvnw+T19BiiZZwnWOjpwZ8O2kj2/VleNVqGCJtuGPDcaOxZ0+PXN9LQrWuF/RufjFovkR0dgsino6T61Xb7Vzbt/bs1aVXquPWDtXYFMfCcUdjT5q+vLu4HVSMH79nrIrdej39kTvXlKxjx3aie/mX4dld6RlHhiP79sSLxTgM+q4njeoscnVvHFlmvWrc2t5EGketQ/PwyXFwWDV6aoFKFJI1p93udIyHaiHVxlpUm2tR3V2L6t5aVFtrUd1fi+rBWlQP16Jq1dcju57ZZa1nelnrmV/WeiaYtZ4ZZq1nilnrmWPWeiaZtZ5Z1ljPLGusaQ9bzyxrrGeWNVaYZSKajEYL3/ldIkMIpaMhWrBt9UQLtqyeaMF21RMtuHbpiRZcufREC65beqIFVy090YJrlp5o0cRAU3Utc6poWqCpupZZVTQp0FRdy7wqmhJoqq5lZhVNCDRV1zK3iqYDmqrr2a/WMreK5gKaqmXn1p3rx6umAV11QnHVgs2qqVqwWTVVCzarpmrBJUtTteCSpalacMnSVC24ZGmqFlyyNFWL5gO6suuZXUUzAl3Z9cyvojmBrux6ZljRrEBXdj1zrGheoCu7nllWNDPQlV3THraeWVY0OdCV1Zpl34p84JB9kCiOhS/v5p9npB9jVKLbQTX9QCL3k4v5p5GRjF8HE9+JKnv1qrCsvapoqt8ae8U+/bhPMB4/ZHWcth3LQRBOT+7daPZp3mNTFPjIMxE4Cx0Znk/Uh2uFL1Qc00WOj9KOJqGcYajPB7MuWPVD3PRzpEWrCxm6MspwE6esQ8ZeEJvqw61cy+i5+84njcx03I0Dz47dwE+gjCiW41pX9oNQGsVG0gc5kL6zeEOz1yqtZBQ01UhQH4ZZ6kf2GWnux8dzWfNqIOOOH6v2SSz6E7+Xkla2xV8FPiRVhPLx6svcuaEOty8q8dCNknGtritmpI4nF5lJ+3Xs3rDyN7Cu2hw/+2ww070aB5GrBN8kLxe5m/mhZJ6hCoM7PaQ5lus7Uk3cmlXVvHp+XJe9sO9KT423Stams3kyCIPJWDrip5/ED9nr9+bV0I6y9URNsO2n0emz0aRBTHswOFUepif9QTwUr0RD/CaME88zxNHiGZHn9mSlZm1f1r9t58637+4kCEXlOrmV+i/iOrHJhmrmq177+VhY+h2kDjWMM73L62/mjUyWt+PjWeOVU0xVs26/1r3V+dENpX1T5uIHzWt0z1ftld3dsRrWajBkIyXdGM2r2R8ASSf9E6DoMm3Jb+Wact7R40k0rJTti6RLj2b9WX4med5Rkbs01ZllXaI4DG5kMZ/ZuWWdgrHdc+NpMavs5NJ3lVrMrcqqzBeSxWWlzPTQXnzUMZ/OiwuPqAlLV01nuhVnfaimu2qh8x/ycgp17OyIz1+/iD/Ovp6Li7PzL+8/vRUfzt6+b4t3nfNOMYHTZNWW97ZK0UQciChIEml/MkrGQU+kKWIk7KiXJC+uPyigOG97pfNkZ7arolt8cQllPAl9MbbDSJ56gR1XbLXkbydd+eS1bvpaocbMT9Ge2Ga3kCf88C/8oeY/PoDN/hpTfaD6r/zdKHCAAxzgAAc4wAEOcIADHOC8eJzv/8BFEYXSAQ1oQAMa0IAGNKABDWhAAxrQLKf57k8CFY36Ez/gAAc4wAEOcIADHOAABzjAAc6/WB7xixyNZWjHk1CKyuk2CiT+TxVI/N1WI+6dTP9zMuq60o+F6jJV91A6k6T9a2K/fvoySiA2X0AJxObGSiCmD56WLcHEpNNk0tll0tlj0mkx6ewz6Rww6Rwy6SzUFlhJiGtEW1xD2uIa0xbXoLa4RrXFNawtrnFtcQ1si2tkN7hGdoNtreYa2Q2ukd3QGtnFS/YtSJUv0reCDNlC5QvxrSBDzvvyxfZWkCHnfPmCeivIkPN9haJ5q+gwjWN6G1uhFN4qOkxDmd7DVihwt4oO02imN7AVytatsg4yjWd691qhGN0qOkzjmd66ypeYW5BZoajcKjpk86xQOG4VHXK6r1AcbhUdcrqvUABuFR1yuq9S5G0lIa4RTe9gq5RuW0mIa1DTm9gqBdlWEuIa1/Q+tkqZtZVWRq6RTW9lqxRPW0mIa2TTuxlKor2IkmgII4wwwggjjDDCCCOMMMIII4wwwgj/L4WnZnArw9B15EdbvVFlmXWUxH9yJyiJ/3igJL7WgZL4KImvcaAk/j8PlMT/54GS+JoHSuKjJP6zB0riAwc4wAEOcIADHOAABzjAAQ5wXkJBSdCABjSgAQ1oQAMa0IAGNKB5OTT/3xSyBA5wgAMc4AAHOMABDnCAA5zyfv9CSfw37kj6kRv4nowiFMT/3yqIH4Q3otPvuz1X+r3pYxn8zRbAz87+R+Tp/89/n/33UT375fE/3cCZqv8O45H36//7PxYk+l4="
               },
               {
                  "name" : "annual_peak_electric_demand",
                  "units" : "kW",
                  "value" : 83.622119999999995
               },
               {
                  "name" : "first_year_capital_cost",
                  "units" : "$",
                  "value" : 0
               },
               {
                  "name" : "annual_utility_cost",
                  "units" : "$",
                  "value" : 0
               },
               {
                  "name" : "total_lifecycle_cost",
                  "units" : "$",
                  "value" : 0
               }
            ],
            "step_warnings" : []
         }
      }
   ],
   "updated_at" : "20170710T191657Z",
   "weather_file" : "USA_CO_Denver.Intl.AP.725650_TMY3.epw"
}
