{
   "completed_at" : "20170710T185133Z",
   "completed_status" : "Success",
   "created_at" : "2017-07-10 18:44:17 +0000",
   "current_step" : 5,
   "description" : "",
   "eplusout_err" : "Program Version,EnergyPlus, Version 8.7.0-78a111df4a, YMD=2017.07.10 18:46,IDD_Version 8.7.0\n   ************* IDF Context for following error/warning message:\n   ************* Note -- lines truncated at 300 characters, if necessary...\n   *************      5 Building,\n   ************* indicated Name=NECB 2011-LargeHotel-NECB HDD Method-CAN_YT_Whitehorse.719640_CWEC.epw created: 2017-07-10 18:44:23 +0000\n   ************* Only last 1 lines before error line shown.....\n   *************      6   NECB 2011-LargeHotel-NECB HDD Method-CAN_YT_Whitehorse.719640_CWEC.epw created: 2017-07-10 18:44:23 +0000, !- Name\n   ** Warning ** IP: IDF line~6 Alpha Argument length exceeds maximum, will be truncated=  NECB 2011-LargeHotel-NECB HDD Method-CAN_YT_Whitehorse.719640_CWEC.epw created: 2017-07-10 18:44:23 +000\n   **   ~~~   ** Will be processed as Alpha=NECB 2011-LARGEHOTEL-NECB HDD METHOD-CAN_YT_WHITEHORSE.719640_CWEC.EPW CREATED: 2017-07-10 18:44:23 +0000\n   ************* Beginning Zone Sizing Calculations\n   ** Warning ** ProcessScheduleInput: Schedule:Day:Interval=\"ECONOMIZER MAX OA FRACTION 100 PCT DEFAULT\", Blank Schedule Type Limits Name input -- will not be validated.\n   ** Warning ** ProcessScheduleInput: Schedule:Day:Interval=\"SCHEDULE DAY 1\", Blank Schedule Type Limits Name input -- will not be validated.\n   ** Warning ** ProcessScheduleInput: Schedule:Day:Interval=\"SCHEDULE DAY 10\", Blank Schedule Type Limits Name input -- will not be validated.\n   ** Warning ** ProcessScheduleInput: Schedule:Day:Interval=\"SCHEDULE DAY 11\", Blank Schedule Type Limits Name input -- will not be validated.\n   ** Warning ** ProcessScheduleInput: Schedule:Day:Interval=\"SCHEDULE DAY 12\", Blank Schedule Type Limits Name input -- will not be validated.\n   ** Warning ** ProcessScheduleInput: Schedule:Day:Interval=\"SCHEDULE DAY 13\", Blank Schedule Type Limits Name input -- will not be validated.\n   ** Warning ** ProcessScheduleInput: Schedule:Day:Interval=\"SCHEDULE DAY 14\", Blank Schedule Type Limits Name input -- will not be validated.\n   ** Warning ** ProcessScheduleInput: Schedule:Day:Interval=\"SCHEDULE DAY 15\", Blank Schedule Type Limits Name input -- will not be validated.\n   ** Warning ** ProcessScheduleInput: Schedule:Day:Interval=\"SCHEDULE DAY 16\", Blank Schedule Type Limits Name input -- will not be validated.\n   ** Warning ** ProcessScheduleInput: Schedule:Day:Interval=\"SCHEDULE DAY 17\", Blank Schedule Type Limits Name input -- will not be validated.\n   ** Warning ** ProcessScheduleInput: Schedule:Day:Interval=\"SCHEDULE DAY 18\", Blank Schedule Type Limits Name input -- will not be validated.\n   ** Warning ** ProcessScheduleInput: Schedule:Day:Interval=\"SCHEDULE DAY 19\", Blank Schedule Type Limits Name input -- will not be validated.\n   ** Warning ** ProcessScheduleInput: Schedule:Day:Interval=\"SCHEDULE DAY 2\", Blank Schedule Type Limits Name input -- will not be validated.\n   ** Warning ** ProcessScheduleInput: Schedule:Day:Interval=\"SCHEDULE DAY 20\", Blank Schedule Type Limits Name input -- will not be validated.\n   ** Warning ** ProcessScheduleInput: Schedule:Day:Interval=\"SCHEDULE DAY 21\", Blank Schedule Type Limits Name input -- will not be validated.\n   ** Warning ** ProcessScheduleInput: Schedule:Day:Interval=\"SCHEDULE DAY 22\", Blank Schedule Type Limits Name input -- will not be validated.\n   ** Warning ** ProcessScheduleInput: Schedule:Day:Interval=\"SCHEDULE DAY 23\", Blank Schedule Type Limits Name input -- will not be validated.\n   ** Warning ** ProcessScheduleInput: Schedule:Day:Interval=\"SCHEDULE DAY 24\", Blank Schedule Type Limits Name input -- will not be validated.\n   ** Warning ** ProcessScheduleInput: Schedule:Day:Interval=\"SCHEDULE DAY 25\", Blank Schedule Type Limits Name input -- will not be validated.\n   ** Warning ** ProcessScheduleInput: Schedule:Day:Interval=\"SCHEDULE DAY 26\", Blank Schedule Type Limits Name input -- will not be validated.\n   ** Warning ** ProcessScheduleInput: Schedule:Day:Interval=\"SCHEDULE DAY 27\", Blank Schedule Type Limits Name input -- will not be validated.\n   ** Warning ** ProcessScheduleInput: Schedule:Day:Interval=\"SCHEDULE DAY 28\", Blank Schedule Type Limits Name input -- will not be validated.\n   ** Warning ** ProcessScheduleInput: Schedule:Day:Interval=\"SCHEDULE DAY 29\", Blank Schedule Type Limits Name input -- will not be validated.\n   ** Warning ** ProcessScheduleInput: Schedule:Day:Interval=\"SCHEDULE DAY 30\", Blank Schedule Type Limits Name input -- will not be validated.\n   ** Warning ** ProcessScheduleInput: Schedule:Day:Interval=\"SCHEDULE DAY 31\", Blank Schedule Type Limits Name input -- will not be validated.\n   ** Warning ** ProcessScheduleInput: Schedule:Day:Interval=\"SCHEDULE DAY 32\", Blank Schedule Type Limits Name input -- will not be validated.\n   ** Warning ** ProcessScheduleInput: Schedule:Day:Interval=\"SCHEDULE DAY 33\", Blank Schedule Type Limits Name input -- will not be validated.\n   ** Warning ** ProcessScheduleInput: Schedule:Day:Interval=\"SCHEDULE DAY 34\", Blank Schedule Type Limits Name input -- will not be validated.\n   ** Warning ** ProcessScheduleInput: Schedule:Day:Interval=\"SCHEDULE DAY 35\", Blank Schedule Type Limits Name input -- will not be validated.\n   ** Warning ** ProcessScheduleInput: Schedule:Day:Interval=\"SCHEDULE DAY 36\", Blank Schedule Type Limits Name input -- will not be validated.\n   ** Warning ** ProcessScheduleInput: Schedule:Day:Interval=\"SCHEDULE DAY 37\", Blank Schedule Type Limits Name input -- will not be validated.\n   ** Warning ** ProcessScheduleInput: Schedule:Day:Interval=\"SCHEDULE DAY 38\", Blank Schedule Type Limits Name input -- will not be validated.\n   ** Warning ** ProcessScheduleInput: Schedule:Day:Interval=\"SCHEDULE DAY 39\", Blank Schedule Type Limits Name input -- will not be validated.\n   ** Warning ** ProcessScheduleInput: Schedule:Day:Interval=\"SCHEDULE DAY 40\", Blank Schedule Type Limits Name input -- will not be validated.\n   ** Warning ** ProcessScheduleInput: Schedule:Day:Interval=\"SCHEDULE DAY 41\", Blank Schedule Type Limits Name input -- will not be validated.\n   ** Warning ** ProcessScheduleInput: Schedule:Day:Interval=\"SCHEDULE DAY 42\", Blank Schedule Type Limits Name input -- will not be validated.\n   ** Warning ** ProcessScheduleInput: Schedule:Day:Interval=\"SCHEDULE DAY 43\", Blank Schedule Type Limits Name input -- will not be validated.\n   ** Warning ** ProcessScheduleInput: Schedule:Day:Interval=\"SCHEDULE DAY 44\", Blank Schedule Type Limits Name input -- will not be validated.\n   ** Warning ** ProcessScheduleInput: Schedule:Day:Interval=\"SCHEDULE DAY 45\", Blank Schedule Type Limits Name input -- will not be validated.\n   ** Warning ** ProcessScheduleInput: Schedule:Day:Interval=\"SCHEDULE DAY 46\", Blank Schedule Type Limits Name input -- will not be validated.\n   ** Warning ** ProcessScheduleInput: Schedule:Day:Interval=\"SCHEDULE DAY 47\", Blank Schedule Type Limits Name input -- will not be validated.\n   ** Warning ** ProcessScheduleInput: Schedule:Day:Interval=\"SCHEDULE DAY 48\", Blank Schedule Type Limits Name input -- will not be validated.\n   ** Warning ** ProcessScheduleInput: Schedule:Day:Interval=\"SCHEDULE DAY 49\", Blank Schedule Type Limits Name input -- will not be validated.\n   ** Warning ** ProcessScheduleInput: Schedule:Day:Interval=\"SCHEDULE DAY 50\", Blank Schedule Type Limits Name input -- will not be validated.\n   ** Warning ** ProcessScheduleInput: Schedule:Day:Interval=\"SCHEDULE DAY 51\", Blank Schedule Type Limits Name input -- will not be validated.\n   ** Warning ** ProcessScheduleInput: Schedule:Day:Interval=\"SCHEDULE DAY 52\", Blank Schedule Type Limits Name input -- will not be validated.\n   ** Warning ** ProcessScheduleInput: Schedule:Day:Interval=\"SCHEDULE DAY 53\", Blank Schedule Type Limits Name input -- will not be validated.\n   ** Warning ** ProcessScheduleInput: Schedule:Day:Interval=\"SCHEDULE DAY 54\", Blank Schedule Type Limits Name input -- will not be validated.\n   ** Warning ** ProcessScheduleInput: Schedule:Day:Interval=\"SCHEDULE DAY 55\", Blank Schedule Type Limits Name input -- will not be validated.\n   ** Warning ** ProcessScheduleInput: Schedule:Day:Interval=\"SCHEDULE DAY 56\", Blank Schedule Type Limits Name input -- will not be validated.\n   ** Warning ** ProcessScheduleInput: Schedule:Day:Interval=\"SCHEDULE DAY 57\", Blank Schedule Type Limits Name input -- will not be validated.\n   ** Warning ** ProcessScheduleInput: Schedule:Day:Interval=\"SCHEDULE DAY 58\", Blank Schedule Type Limits Name input -- will not be validated.\n   ** Warning ** ProcessScheduleInput: Schedule:Day:Interval=\"SCHEDULE DAY 59\", Blank Schedule Type Limits Name input -- will not be validated.\n   ** Warning ** ProcessScheduleInput: Schedule:Day:Interval=\"SCHEDULE DAY 60\", Blank Schedule Type Limits Name input -- will not be validated.\n   ** Warning ** ProcessScheduleInput: Schedule:Day:Interval=\"SCHEDULE DAY 61\", Blank Schedule Type Limits Name input -- will not be validated.\n   ** Warning ** ProcessScheduleInput: Schedule:Day:Interval=\"SCHEDULE DAY 62\", Blank Schedule Type Limits Name input -- will not be validated.\n   ** Warning ** ProcessScheduleInput: Schedule:Day:Interval=\"SCHEDULE DAY 63\", Blank Schedule Type Limits Name input -- will not be validated.\n   ** Warning ** ProcessScheduleInput: Schedule:Day:Interval=\"SCHEDULE DAY 64\", Blank Schedule Type Limits Name input -- will not be validated.\n   ** Warning ** ProcessScheduleInput: Schedule:Day:Interval=\"SCHEDULE DAY 65\", Blank Schedule Type Limits Name input -- will not be validated.\n   ** Warning ** ProcessScheduleInput: Schedule:Day:Interval=\"SCHEDULE DAY 66\", Blank Schedule Type Limits Name input -- will not be validated.\n   ** Warning ** ProcessScheduleInput: Schedule:Day:Interval=\"SCHEDULE DAY 67\", Blank Schedule Type Limits Name input -- will not be validated.\n   ** Warning ** ProcessScheduleInput: Schedule:Day:Interval=\"SCHEDULE DAY 68\", Blank Schedule Type Limits Name input -- will not be validated.\n   ** Warning ** ProcessScheduleInput: Schedule:Day:Interval=\"SCHEDULE DAY 69\", Blank Schedule Type Limits Name input -- will not be validated.\n   ** Warning ** ProcessScheduleInput: Schedule:Day:Interval=\"SCHEDULE DAY 70\", Blank Schedule Type Limits Name input -- will not be validated.\n   ** Warning ** ProcessScheduleInput: Schedule:Day:Interval=\"SCHEDULE DAY 71\", Blank Schedule Type Limits Name input -- will not be validated.\n   ** Warning ** ProcessScheduleInput: Schedule:Day:Interval=\"SCHEDULE DAY 72\", Blank Schedule Type Limits Name input -- will not be validated.\n   ** Warning ** ProcessScheduleInput: Schedule:Day:Interval=\"SCHEDULE DAY 73\", Blank Schedule Type Limits Name input -- will not be validated.\n   ** Warning ** ProcessScheduleInput: Schedule:Day:Interval=\"SCHEDULE DAY 74\", Blank Schedule Type Limits Name input -- will not be validated.\n   ** Warning ** ProcessScheduleInput: Schedule:Day:Interval=\"SCHEDULE DAY 75\", Blank Schedule Type Limits Name input -- will not be validated.\n   ** Warning ** ProcessScheduleInput: Schedule:Day:Interval=\"SCHEDULE DAY 76\", Blank Schedule Type Limits Name input -- will not be validated.\n   ** Warning ** ProcessScheduleInput: Schedule:Day:Interval=\"SCHEDULE DAY 77\", Blank Schedule Type Limits Name input -- will not be validated.\n   ** Warning ** ProcessScheduleInput: Schedule:Day:Interval=\"SCHEDULE DAY 78\", Blank Schedule Type Limits Name input -- will not be validated.\n   ** Warning ** ProcessScheduleInput: Schedule:Day:Interval=\"SCHEDULE DAY 8\", Blank Schedule Type Limits Name input -- will not be validated.\n   ** Warning ** ProcessScheduleInput: Schedule:Day:Interval=\"SCHEDULE DAY 9\", Blank Schedule Type Limits Name input -- will not be validated.\n   ** Warning ** ProcessScheduleInput: Schedule:Year=\"ECONOMIZER MAX OA FRACTION 100 PCT\", Blank Schedule Type Limits Name input -- will not be validated.\n   ** Warning ** ProcessScheduleInput: Schedule:Year=\"SCHEDULE RULESET 10\", Blank Schedule Type Limits Name input -- will not be validated.\n   ** Warning ** ProcessScheduleInput: Schedule:Year=\"SCHEDULE RULESET 11\", Blank Schedule Type Limits Name input -- will not be validated.\n   ** Warning ** ProcessScheduleInput: Schedule:Year=\"SCHEDULE RULESET 12\", Blank Schedule Type Limits Name input -- will not be validated.\n   ** Warning ** ProcessScheduleInput: Schedule:Year=\"SCHEDULE RULESET 13\", Blank Schedule Type Limits Name input -- will not be validated.\n   ** Warning ** ProcessScheduleInput: Schedule:Year=\"SCHEDULE RULESET 14\", Blank Schedule Type Limits Name input -- will not be validated.\n   ** Warning ** ProcessScheduleInput: Schedule:Year=\"SCHEDULE RULESET 15\", Blank Schedule Type Limits Name input -- will not be validated.\n   ** Warning ** ProcessScheduleInput: Schedule:Year=\"SCHEDULE RULESET 16\", Blank Schedule Type Limits Name input -- will not be validated.\n   ** Warning ** ProcessScheduleInput: Schedule:Year=\"SCHEDULE RULESET 17\", Blank Schedule Type Limits Name input -- will not be validated.\n   ** Warning ** ProcessScheduleInput: Schedule:Year=\"SCHEDULE RULESET 18\", Blank Schedule Type Limits Name input -- will not be validated.\n   ** Warning ** ProcessScheduleInput: Schedule:Year=\"SCHEDULE RULESET 19\", Blank Schedule Type Limits Name input -- will not be validated.\n   ** Warning ** ProcessScheduleInput: Schedule:Year=\"SCHEDULE RULESET 20\", Blank Schedule Type Limits Name input -- will not be validated.\n   ** Warning ** ProcessScheduleInput: Schedule:Year=\"SCHEDULE RULESET 21\", Blank Schedule Type Limits Name input -- will not be validated.\n   ** Warning ** ProcessScheduleInput: Schedule:Year=\"SCHEDULE RULESET 22\", Blank Schedule Type Limits Name input -- will not be validated.\n   ** Warning ** ProcessScheduleInput: Schedule:Year=\"SCHEDULE RULESET 23\", Blank Schedule Type Limits Name input -- will not be validated.\n   ** Warning ** ProcessScheduleInput: Schedule:Year=\"SCHEDULE RULESET 24\", Blank Schedule Type Limits Name input -- will not be validated.\n   ** Warning ** ProcessScheduleInput: Schedule:Year=\"SCHEDULE RULESET 25\", Blank Schedule Type Limits Name input -- will not be validated.\n   ** Warning ** ProcessScheduleInput: Schedule:Year=\"SCHEDULE RULESET 26\", Blank Schedule Type Limits Name input -- will not be validated.\n   ** Warning ** ProcessScheduleInput: Schedule:Year=\"SCHEDULE RULESET 27\", Blank Schedule Type Limits Name input -- will not be validated.\n   ** Warning ** ProcessScheduleInput: Schedule:Year=\"SCHEDULE RULESET 28\", Blank Schedule Type Limits Name input -- will not be validated.\n   ** Warning ** ProcessScheduleInput: Schedule:Year=\"SCHEDULE RULESET 29\", Blank Schedule Type Limits Name input -- will not be validated.\n   ** Warning ** ProcessScheduleInput: Schedule:Year=\"SCHEDULE RULESET 3\", Blank Schedule Type Limits Name input -- will not be validated.\n   ** Warning ** ProcessScheduleInput: Schedule:Year=\"SCHEDULE RULESET 30\", Blank Schedule Type Limits Name input -- will not be validated.\n   ** Warning ** ProcessScheduleInput: Schedule:Year=\"SCHEDULE RULESET 31\", Blank Schedule Type Limits Name input -- will not be validated.\n   ** Warning ** ProcessScheduleInput: Schedule:Year=\"SCHEDULE RULESET 32\", Blank Schedule Type Limits Name input -- will not be validated.\n   ** Warning ** ProcessScheduleInput: Schedule:Year=\"SCHEDULE RULESET 33\", Blank Schedule Type Limits Name input -- will not be validated.\n   ** Warning ** ProcessScheduleInput: Schedule:Year=\"SCHEDULE RULESET 34\", Blank Schedule Type Limits Name input -- will not be validated.\n   ** Warning ** ProcessScheduleInput: Schedule:Year=\"SCHEDULE RULESET 35\", Blank Schedule Type Limits Name input -- will not be validated.\n   ** Warning ** ProcessScheduleInput: Schedule:Year=\"SCHEDULE RULESET 36\", Blank Schedule Type Limits Name input -- will not be validated.\n   ** Warning ** ProcessScheduleInput: Schedule:Year=\"SCHEDULE RULESET 37\", Blank Schedule Type Limits Name input -- will not be validated.\n   ** Warning ** ProcessScheduleInput: Schedule:Year=\"SCHEDULE RULESET 38\", Blank Schedule Type Limits Name input -- will not be validated.\n   ** Warning ** ProcessScheduleInput: Schedule:Year=\"SCHEDULE RULESET 39\", Blank Schedule Type Limits Name input -- will not be validated.\n   ** Warning ** ProcessScheduleInput: Schedule:Year=\"SCHEDULE RULESET 4\", Blank Schedule Type Limits Name input -- will not be validated.\n   ** Warning ** ProcessScheduleInput: Schedule:Year=\"SCHEDULE RULESET 40\", Blank Schedule Type Limits Name input -- will not be validated.\n   ** Warning ** ProcessScheduleInput: Schedule:Year=\"SCHEDULE RULESET 41\", Blank Schedule Type Limits Name input -- will not be validated.\n   ** Warning ** ProcessScheduleInput: Schedule:Year=\"SCHEDULE RULESET 42\", Blank Schedule Type Limits Name input -- will not be validated.\n   ** Warning ** ProcessScheduleInput: Schedule:Year=\"SCHEDULE RULESET 43\", Blank Schedule Type Limits Name input -- will not be validated.\n   ** Warning ** ProcessScheduleInput: Schedule:Year=\"SCHEDULE RULESET 44\", Blank Schedule Type Limits Name input -- will not be validated.\n   ** Warning ** ProcessScheduleInput: Schedule:Year=\"SCHEDULE RULESET 45\", Blank Schedule Type Limits Name input -- will not be validated.\n   ** Warning ** ProcessScheduleInput: Schedule:Year=\"SCHEDULE RULESET 46\", Blank Schedule Type Limits Name input -- will not be validated.\n   ** Warning ** ProcessScheduleInput: Schedule:Year=\"SCHEDULE RULESET 47\", Blank Schedule Type Limits Name input -- will not be validated.\n   ** Warning ** ProcessScheduleInput: Schedule:Year=\"SCHEDULE RULESET 48\", Blank Schedule Type Limits Name input -- will not be validated.\n   ** Warning ** ProcessScheduleInput: Schedule:Year=\"SCHEDULE RULESET 49\", Blank Schedule Type Limits Name input -- will not be validated.\n   ** Warning ** ProcessScheduleInput: Schedule:Year=\"SCHEDULE RULESET 5\", Blank Schedule Type Limits Name input -- will not be validated.\n   ** Warning ** ProcessScheduleInput: Schedule:Year=\"SCHEDULE RULESET 50\", Blank Schedule Type Limits Name input -- will not be validated.\n   ** Warning ** ProcessScheduleInput: Schedule:Year=\"SCHEDULE RULESET 51\", Blank Schedule Type Limits Name input -- will not be validated.\n   ** Warning ** ProcessScheduleInput: Schedule:Year=\"SCHEDULE RULESET 52\", Blank Schedule Type Limits Name input -- will not be validated.\n   ** Warning ** ProcessScheduleInput: Schedule:Year=\"SCHEDULE RULESET 53\", Blank Schedule Type Limits Name input -- will not be validated.\n   ** Warning ** ProcessScheduleInput: Schedule:Year=\"SCHEDULE RULESET 54\", Blank Schedule Type Limits Name input -- will not be validated.\n   ** Warning ** ProcessScheduleInput: Schedule:Year=\"SCHEDULE RULESET 55\", Blank Schedule Type Limits Name input -- will not be validated.\n   ** Warning ** ProcessScheduleInput: Schedule:Year=\"SCHEDULE RULESET 56\", Blank Schedule Type Limits Name input -- will not be validated.\n   ** Warning ** ProcessScheduleInput: Schedule:Year=\"SCHEDULE RULESET 57\", Blank Schedule Type Limits Name input -- will not be validated.\n   ** Warning ** ProcessScheduleInput: Schedule:Year=\"SCHEDULE RULESET 58\", Blank Schedule Type Limits Name input -- will not be validated.\n   ** Warning ** ProcessScheduleInput: Schedule:Year=\"SCHEDULE RULESET 59\", Blank Schedule Type Limits Name input -- will not be validated.\n   ** Warning ** ProcessScheduleInput: Schedule:Year=\"SCHEDULE RULESET 6\", Blank Schedule Type Limits Name input -- will not be validated.\n   ** Warning ** ProcessScheduleInput: Schedule:Year=\"SCHEDULE RULESET 7\", Blank Schedule Type Limits Name input -- will not be validated.\n   ** Warning ** ProcessScheduleInput: Schedule:Year=\"SCHEDULE RULESET 8\", Blank Schedule Type Limits Name input -- will not be validated.\n   ** Warning ** ProcessScheduleInput: Schedule:Year=\"SCHEDULE RULESET 9\", Blank Schedule Type Limits Name input -- will not be validated.\n   ** Warning ** ProcessScheduleInput: Schedule:Constant=\"ALWAYS OFF DISCRETE\", Blank Schedule Type Limits Name input -- will not be validated.\n   ** Warning ** ProcessScheduleInput: Schedule:Constant=\"ALWAYS ON CONTINUOUS\", Blank Schedule Type Limits Name input -- will not be validated.\n   ** Warning ** CheckUsedConstructions: There are 23 nominally unused constructions in input.\n   **   ~~~   ** For explicit details on each unused construction, use Output:Diagnostics,DisplayExtraWarnings;\n   ** Warning ** GetInternalHeatGains: ElectricEquipment Combination of ZoneList and Object Name generate a name too long.\n   **   ~~~   ** Object Name=\"SPACE FUNCTION HOSPITAL - LAUNDRY/WASHING ELEC EQUIP\".\n   **   ~~~   ** ZoneList/Zone Name=\"SP-LAUNDRY_FLR_1 SYS-3 FLR-1 SCH-C HPLCMT-EAST ZN\".\n   **   ~~~   ** Item length=[101] > Maximum Length=[100]. You may need to shorten the names.\n   **   ~~~   ** Shortening the Object Name by [2] characters will assure uniqueness for this ZoneList.\n   **   ~~~   ** name that will be used (may be needed in reporting)=\"SP-LAUNDRY_FLR_1 SYS-3 FLR-1 SCH-C HPLCMT-EAST ZN SPACE FUNCTION HOSPITAL - LAUNDRY/WASHING ELEC EQUIP\".\n   ** Warning ** GetInternalHeatGains: ElectricEquipment Combination of ZoneList and Object Name generate a name too long.\n   **   ~~~   ** Object Name=\"SPACE FUNCTION HOTEL/MOTEL - ROOMS ELEC EQUIP\".\n   **   ~~~   ** ZoneList/Zone Name=\"SP-ROOM_3_MULT19_FLR_3 SYS-1 FLR-2 SCH-F HPLCMT-SOUTH ZN\".\n   **   ~~~   ** Item length=[101] > Maximum Length=[100]. You may need to shorten the names.\n   **   ~~~   ** Shortening the Object Name by [2] characters will assure uniqueness for this ZoneList.\n   **   ~~~   ** name that will be used (may be needed in reporting)=\"SP-ROOM_3_MULT19_FLR_3 SYS-1 FLR-2 SCH-F HPLCMT-SOUTH ZN SPACE FUNCTION HOTEL/MOTEL - ROOMS ELEC EQUIP\".\n   ** Warning ** GetInternalHeatGains: ElectricEquipment Combination of ZoneList and Object Name generate a name too long.\n   **   ~~~   ** Object Name=\"SPACE FUNCTION HOTEL/MOTEL - ROOMS ELEC EQUIP\".\n   **   ~~~   ** ZoneList/Zone Name=\"SP-ROOM_4_MULT19_FLR_3 SYS-1 FLR-2 SCH-F HPLCMT-NORTH ZN\".\n   **   ~~~   ** Item length=[101] > Maximum Length=[100]. You may need to shorten the names.\n   **   ~~~   ** Shortening the Object Name by [2] characters will assure uniqueness for this ZoneList.\n   **   ~~~   ** name that will be used (may be needed in reporting)=\"SP-ROOM_4_MULT19_FLR_3 SYS-1 FLR-2 SCH-F HPLCMT-NORTH ZN SPACE FUNCTION HOTEL/MOTEL - ROOMS ELEC EQUIP\".\n   ** Warning ** Calculated design heating load for zone=SP-BASEMENT SYS-4 FLR-3 SCH-E HPLCMT-NORTH ZN is zero.\n   **   ~~~   ** Check Sizing:Zone and ZoneControl:Thermostat inputs.\n   ** Warning ** Calculated design heating load for zone=SP-LOBBY_FLR_1 SYS-6 FLR-1 SCH-H HPLCMT-NORTH ZN is zero.\n   **   ~~~   ** Check Sizing:Zone and ZoneControl:Thermostat inputs.\n   ************* Beginning System Sizing Calculations\n   ** Warning ** Since Zone Minimum Air Flow Input Method = CONSTANT, input for Fixed Minimum Air Flow Rate will be ignored.\n   **   ~~~   ** Occurs in AirTerminal:SingleDuct:VAV:Reheat = AIR TERMINAL SINGLE DUCT VAV REHEAT 5\n   ** Warning ** Since Zone Minimum Air Flow Input Method = CONSTANT, input for Fixed Minimum Air Flow Rate will be ignored.\n   **   ~~~   ** Occurs in AirTerminal:SingleDuct:VAV:Reheat = AIR TERMINAL SINGLE DUCT VAV REHEAT 1\n   ** Warning ** Since Zone Minimum Air Flow Input Method = CONSTANT, input for Fixed Minimum Air Flow Rate will be ignored.\n   **   ~~~   ** Occurs in AirTerminal:SingleDuct:VAV:Reheat = AIR TERMINAL SINGLE DUCT VAV REHEAT 4\n   ** Warning ** Since Zone Minimum Air Flow Input Method = CONSTANT, input for Fixed Minimum Air Flow Rate will be ignored.\n   **   ~~~   ** Occurs in AirTerminal:SingleDuct:VAV:Reheat = AIR TERMINAL SINGLE DUCT VAV REHEAT 2\n   ** Warning ** Since Zone Minimum Air Flow Input Method = CONSTANT, input for Fixed Minimum Air Flow Rate will be ignored.\n   **   ~~~   ** Occurs in AirTerminal:SingleDuct:VAV:Reheat = AIR TERMINAL SINGLE DUCT VAV REHEAT 3\n   ** Warning ** GetDXCoils: Coil:Cooling:DX:SingleSpeed=\"COIL COOLING DX SINGLE SPEED 8 48KBTU/HR 9.3EER\", invalid\n   **   ~~~   ** ...Part Load Fraction Correlation Curve Name = DXCOOL-NECB2011-REF-COOLPLFFPLR 16 has out of range value.\n   **   ~~~   ** ...Curve maximum must be <= 1.0, curve max at PLR = 0.99 is 1.015\n   **   ~~~   ** ...Setting curve maximum to 1.0 and simulation continues.\n   ** Warning ** GetDXCoils: Coil:Cooling:DX:SingleSpeed=\"COIL COOLING DX SINGLE SPEED 5 17KBTU/HR 9.3EER\", invalid\n   **   ~~~   ** ...Part Load Fraction Correlation Curve Name = DXCOOL-NECB2011-REF-COOLPLFFPLR 13 has out of range value.\n   **   ~~~   ** ...Curve maximum must be <= 1.0, curve max at PLR = 0.99 is 1.015\n   **   ~~~   ** ...Setting curve maximum to 1.0 and simulation continues.\n   ** Warning ** GetDXCoils: Coil:Cooling:DX:SingleSpeed=\"COIL COOLING DX SINGLE SPEED 9 20KBTU/HR 9.3EER\", invalid\n   **   ~~~   ** ...Part Load Fraction Correlation Curve Name = DXCOOL-NECB2011-REF-COOLPLFFPLR 17 has out of range value.\n   **   ~~~   ** ...Curve maximum must be <= 1.0, curve max at PLR = 0.99 is 1.015\n   **   ~~~   ** ...Setting curve maximum to 1.0 and simulation continues.\n   ** Warning ** GetDXCoils: Coil:Cooling:DX:SingleSpeed=\"COIL COOLING DX SINGLE SPEED 6 17KBTU/HR 9.3EER\", invalid\n   **   ~~~   ** ...Part Load Fraction Correlation Curve Name = DXCOOL-NECB2011-REF-COOLPLFFPLR 14 has out of range value.\n   **   ~~~   ** ...Curve maximum must be <= 1.0, curve max at PLR = 0.99 is 1.015\n   **   ~~~   ** ...Setting curve maximum to 1.0 and simulation continues.\n   ** Warning ** GetDXCoils: Coil:Cooling:DX:SingleSpeed=\"COIL COOLING DX SINGLE SPEED 10 19KBTU/HR 9.3EER\", invalid\n   **   ~~~   ** ...Part Load Fraction Correlation Curve Name = DXCOOL-NECB2011-REF-COOLPLFFPLR 1 has out of range value.\n   **   ~~~   ** ...Curve maximum must be <= 1.0, curve max at PLR = 0.99 is 1.015\n   **   ~~~   ** ...Setting curve maximum to 1.0 and simulation continues.\n   ** Warning ** GetDXCoils: Coil:Cooling:DX:SingleSpeed=\"COIL COOLING DX SINGLE SPEED 7 7KBTU/HR 11.0EER\", invalid\n   **   ~~~   ** ...Part Load Fraction Correlation Curve Name = DXCOOL-NECB2011-REF-COOLPLFFPLR 15 has out of range value.\n   **   ~~~   ** ...Curve maximum must be <= 1.0, curve max at PLR = 0.99 is 1.015\n   **   ~~~   ** ...Setting curve maximum to 1.0 and simulation continues.\n   ** Warning ** GetDXCoils: Coil:Cooling:DX:SingleSpeed=\"COIL COOLING DX SINGLE SPEED 11 13KBTU/HR 9.8EER\", invalid\n   **   ~~~   ** ...Part Load Fraction Correlation Curve Name = DXCOOL-NECB2011-REF-COOLPLFFPLR 2 has out of range value.\n   **   ~~~   ** ...Curve maximum must be <= 1.0, curve max at PLR = 0.99 is 1.015\n   **   ~~~   ** ...Setting curve maximum to 1.0 and simulation continues.\n   ** Warning ** GetDXCoils: Coil:Cooling:DX:SingleSpeed=\"COIL COOLING DX SINGLE SPEED 2 3KBTU/HR 11.0EER\", invalid\n   **   ~~~   ** ...Part Load Fraction Correlation Curve Name = DXCOOL-NECB2011-REF-COOLPLFFPLR 10 has out of range value.\n   **   ~~~   ** ...Curve maximum must be <= 1.0, curve max at PLR = 0.99 is 1.015\n   **   ~~~   ** ...Setting curve maximum to 1.0 and simulation continues.\n   ** Warning ** GetDXCoils: Coil:Cooling:DX:SingleSpeed=\"COIL COOLING DX SINGLE SPEED 4 17KBTU/HR 9.3EER\", invalid\n   **   ~~~   ** ...Part Load Fraction Correlation Curve Name = DXCOOL-NECB2011-REF-COOLPLFFPLR 12 has out of range value.\n   **   ~~~   ** ...Curve maximum must be <= 1.0, curve max at PLR = 0.99 is 1.015\n   **   ~~~   ** ...Setting curve maximum to 1.0 and simulation continues.\n   ** Warning ** GetDXCoils: Coil:Cooling:DX:SingleSpeed=\"COIL COOLING DX SINGLE SPEED 3 16KBTU/HR 9.3EER\", invalid\n   **   ~~~   ** ...Part Load Fraction Correlation Curve Name = DXCOOL-NECB2011-REF-COOLPLFFPLR 11 has out of range value.\n   **   ~~~   ** ...Curve maximum must be <= 1.0, curve max at PLR = 0.99 is 1.015\n   **   ~~~   ** ...Setting curve maximum to 1.0 and simulation continues.\n   ** Warning ** GetDXCoils: Coil:Cooling:DX:SingleSpeed=\"COIL COOLING DX SINGLE SPEED 1 174KBTU/HR 9.7EER\", invalid\n   **   ~~~   ** ...Part Load Fraction Correlation Curve Name = DXCOOL-NECB2011-REF-COOLPLFFPLR has out of range value.\n   **   ~~~   ** ...Curve maximum must be <= 1.0, curve max at PLR = 0.99 is 1.015\n   **   ~~~   ** ...Setting curve maximum to 1.0 and simulation continues.\n   ** Warning ** GetDXCoils: Coil:Cooling:DX:SingleSpeed=\"COIL COOLING DX SINGLE SPEED 14 67KBTU/HR 9.7EER\", invalid\n   **   ~~~   ** ...Part Load Fraction Correlation Curve Name = DXCOOL-NECB2011-REF-COOLPLFFPLR 5 has out of range value.\n   **   ~~~   ** ...Curve maximum must be <= 1.0, curve max at PLR = 0.99 is 1.015\n   **   ~~~   ** ...Setting curve maximum to 1.0 and simulation continues.\n   ** Warning ** GetDXCoils: Coil:Cooling:DX:SingleSpeed=\"COIL COOLING DX SINGLE SPEED 18 83KBTU/HR 9.7EER\", invalid\n   **   ~~~   ** ...Part Load Fraction Correlation Curve Name = DXCOOL-NECB2011-REF-COOLPLFFPLR 9 has out of range value.\n   **   ~~~   ** ...Curve maximum must be <= 1.0, curve max at PLR = 0.99 is 1.015\n   **   ~~~   ** ...Setting curve maximum to 1.0 and simulation continues.\n   ** Warning ** GetDXCoils: Coil:Cooling:DX:SingleSpeed=\"COIL COOLING DX SINGLE SPEED 13 60KBTU/HR 14.0SEER\", invalid\n   **   ~~~   ** ...Part Load Fraction Correlation Curve Name = DXCOOL-NECB2011-REF-COOLPLFFPLR 4 has out of range value.\n   **   ~~~   ** ...Curve maximum must be <= 1.0, curve max at PLR = 0.99 is 1.015\n   **   ~~~   ** ...Setting curve maximum to 1.0 and simulation continues.\n   ** Warning ** GetDXCoils: Coil:Cooling:DX:SingleSpeed=\"COIL COOLING DX SINGLE SPEED 15 67KBTU/HR 9.7EER\", invalid\n   **   ~~~   ** ...Part Load Fraction Correlation Curve Name = DXCOOL-NECB2011-REF-COOLPLFFPLR 6 has out of range value.\n   **   ~~~   ** ...Curve maximum must be <= 1.0, curve max at PLR = 0.99 is 1.015\n   **   ~~~   ** ...Setting curve maximum to 1.0 and simulation continues.\n   ** Warning ** GetDXCoils: Coil:Cooling:DX:SingleSpeed=\"COIL COOLING DX SINGLE SPEED 16 42KBTU/HR 14.0SEER\", invalid\n   **   ~~~   ** ...Part Load Fraction Correlation Curve Name = DXCOOL-NECB2011-REF-COOLPLFFPLR 7 has out of range value.\n   **   ~~~   ** ...Curve maximum must be <= 1.0, curve max at PLR = 0.99 is 1.015\n   **   ~~~   ** ...Setting curve maximum to 1.0 and simulation continues.\n   ** Warning ** GetDXCoils: Coil:Cooling:DX:SingleSpeed=\"COIL COOLING DX SINGLE SPEED 12 14KBTU/HR 14.0SEER\", invalid\n   **   ~~~   ** ...Part Load Fraction Correlation Curve Name = DXCOOL-NECB2011-REF-COOLPLFFPLR 3 has out of range value.\n   **   ~~~   ** ...Curve maximum must be <= 1.0, curve max at PLR = 0.99 is 1.015\n   **   ~~~   ** ...Setting curve maximum to 1.0 and simulation continues.\n   ** Warning ** GetDXCoils: Coil:Cooling:DX:SingleSpeed=\"COIL COOLING DX SINGLE SPEED 17 6KBTU/HR 14.0SEER\", invalid\n   **   ~~~   ** ...Part Load Fraction Correlation Curve Name = DXCOOL-NECB2011-REF-COOLPLFFPLR 8 has out of range value.\n   **   ~~~   ** ...Curve maximum must be <= 1.0, curve max at PLR = 0.99 is 1.015\n   **   ~~~   ** ...Setting curve maximum to 1.0 and simulation continues.\n   ************* Beginning Plant Sizing Calculations\n   ** Warning ** The Standard Ratings is calculated for Coil:Cooling:DX:SingleSpeed = COIL COOLING DX SINGLE SPEED 8 48KBTU/HR 9.3EER but not at the AHRI test condition due to curve out of bound.\n   **   ~~~   **  Review the Standard Ratings calculations in the Engineering Reference for this coil type. Also, use Output:Diagnostics, DisplayExtraWarnings for further guidance.\n   ** Warning ** The Standard Ratings is calculated for Coil:Cooling:DX:SingleSpeed = COIL COOLING DX SINGLE SPEED 5 17KBTU/HR 9.3EER but not at the AHRI test condition due to curve out of bound.\n   **   ~~~   **  Review the Standard Ratings calculations in the Engineering Reference for this coil type. Also, use Output:Diagnostics, DisplayExtraWarnings for further guidance.\n   ** Warning ** The Standard Ratings is calculated for Coil:Cooling:DX:SingleSpeed = COIL COOLING DX SINGLE SPEED 9 20KBTU/HR 9.3EER but not at the AHRI test condition due to curve out of bound.\n   **   ~~~   **  Review the Standard Ratings calculations in the Engineering Reference for this coil type. Also, use Output:Diagnostics, DisplayExtraWarnings for further guidance.\n   ** Warning ** The Standard Ratings is calculated for Coil:Cooling:DX:SingleSpeed = COIL COOLING DX SINGLE SPEED 6 17KBTU/HR 9.3EER but not at the AHRI test condition due to curve out of bound.\n   **   ~~~   **  Review the Standard Ratings calculations in the Engineering Reference for this coil type. Also, use Output:Diagnostics, DisplayExtraWarnings for further guidance.\n   ** Warning ** The Standard Ratings is calculated for Coil:Cooling:DX:SingleSpeed = COIL COOLING DX SINGLE SPEED 10 19KBTU/HR 9.3EER but not at the AHRI test condition due to curve out of bound.\n   **   ~~~   **  Review the Standard Ratings calculations in the Engineering Reference for this coil type. Also, use Output:Diagnostics, DisplayExtraWarnings for further guidance.\n   ** Warning ** The Standard Ratings is calculated for Coil:Cooling:DX:SingleSpeed = COIL COOLING DX SINGLE SPEED 7 7KBTU/HR 11.0EER but not at the AHRI test condition due to curve out of bound.\n   **   ~~~   **  Review the Standard Ratings calculations in the Engineering Reference for this coil type. Also, use Output:Diagnostics, DisplayExtraWarnings for further guidance.\n   ** Warning ** The Standard Ratings is calculated for Coil:Cooling:DX:SingleSpeed = COIL COOLING DX SINGLE SPEED 11 13KBTU/HR 9.8EER but not at the AHRI test condition due to curve out of bound.\n   **   ~~~   **  Review the Standard Ratings calculations in the Engineering Reference for this coil type. Also, use Output:Diagnostics, DisplayExtraWarnings for further guidance.\n   ** Warning ** The Standard Ratings is calculated for Coil:Cooling:DX:SingleSpeed = COIL COOLING DX SINGLE SPEED 2 3KBTU/HR 11.0EER but not at the AHRI test condition due to curve out of bound.\n   **   ~~~   **  Review the Standard Ratings calculations in the Engineering Reference for this coil type. Also, use Output:Diagnostics, DisplayExtraWarnings for further guidance.\n   ** Warning ** The Standard Ratings is calculated for Coil:Cooling:DX:SingleSpeed = COIL COOLING DX SINGLE SPEED 4 17KBTU/HR 9.3EER but not at the AHRI test condition due to curve out of bound.\n   **   ~~~   **  Review the Standard Ratings calculations in the Engineering Reference for this coil type. Also, use Output:Diagnostics, DisplayExtraWarnings for further guidance.\n   ** Warning ** The Standard Ratings is calculated for Coil:Cooling:DX:SingleSpeed = COIL COOLING DX SINGLE SPEED 3 16KBTU/HR 9.3EER but not at the AHRI test condition due to curve out of bound.\n   **   ~~~   **  Review the Standard Ratings calculations in the Engineering Reference for this coil type. Also, use Output:Diagnostics, DisplayExtraWarnings for further guidance.\n   ** Warning ** The Standard Ratings is calculated for Coil:Cooling:DX:SingleSpeed = COIL COOLING DX SINGLE SPEED 1 174KBTU/HR 9.7EER but not at the AHRI test condition due to curve out of bound.\n   **   ~~~   **  Review the Standard Ratings calculations in the Engineering Reference for this coil type. Also, use Output:Diagnostics, DisplayExtraWarnings for further guidance.\n   ** Warning ** The Standard Ratings is calculated for Coil:Cooling:DX:SingleSpeed = COIL COOLING DX SINGLE SPEED 14 67KBTU/HR 9.7EER but not at the AHRI test condition due to curve out of bound.\n   **   ~~~   **  Review the Standard Ratings calculations in the Engineering Reference for this coil type. Also, use Output:Diagnostics, DisplayExtraWarnings for further guidance.\n   ** Warning ** The Standard Ratings is calculated for Coil:Cooling:DX:SingleSpeed = COIL COOLING DX SINGLE SPEED 18 83KBTU/HR 9.7EER but not at the AHRI test condition due to curve out of bound.\n   **   ~~~   **  Review the Standard Ratings calculations in the Engineering Reference for this coil type. Also, use Output:Diagnostics, DisplayExtraWarnings for further guidance.\n   ** Warning ** The Standard Ratings is calculated for Coil:Cooling:DX:SingleSpeed = COIL COOLING DX SINGLE SPEED 13 60KBTU/HR 14.0SEER but not at the AHRI test condition due to curve out of bound.\n   **   ~~~   **  Review the Standard Ratings calculations in the Engineering Reference for this coil type. Also, use Output:Diagnostics, DisplayExtraWarnings for further guidance.\n   ** Warning ** The Standard Ratings is calculated for Coil:Cooling:DX:SingleSpeed = COIL COOLING DX SINGLE SPEED 15 67KBTU/HR 9.7EER but not at the AHRI test condition due to curve out of bound.\n   **   ~~~   **  Review the Standard Ratings calculations in the Engineering Reference for this coil type. Also, use Output:Diagnostics, DisplayExtraWarnings for further guidance.\n   ** Warning ** The Standard Ratings is calculated for Coil:Cooling:DX:SingleSpeed = COIL COOLING DX SINGLE SPEED 16 42KBTU/HR 14.0SEER but not at the AHRI test condition due to curve out of bound.\n   **   ~~~   **  Review the Standard Ratings calculations in the Engineering Reference for this coil type. Also, use Output:Diagnostics, DisplayExtraWarnings for further guidance.\n   ** Warning ** The Standard Ratings is calculated for Coil:Cooling:DX:SingleSpeed = COIL COOLING DX SINGLE SPEED 12 14KBTU/HR 14.0SEER but not at the AHRI test condition due to curve out of bound.\n   **   ~~~   **  Review the Standard Ratings calculations in the Engineering Reference for this coil type. Also, use Output:Diagnostics, DisplayExtraWarnings for further guidance.\n   ** Warning ** The Standard Ratings is calculated for Coil:Cooling:DX:SingleSpeed = COIL COOLING DX SINGLE SPEED 17 6KBTU/HR 14.0SEER but not at the AHRI test condition due to curve out of bound.\n   **   ~~~   **  Review the Standard Ratings calculations in the Engineering Reference for this coil type. Also, use Output:Diagnostics, DisplayExtraWarnings for further guidance.\n   ** Warning ** SizeWaterCoil: Coil=\"COIL COOLING WATER 1\", Cooling Coil has leaving humidity ratio > entering humidity ratio.\n   **   ~~~   **     Wair,in =  7.921886E-003\n   **   ~~~   **     Wair,out = 9.132240E-003\n   **   ~~~   ** ....coil leaving humidity ratio will be reset to:\n   **   ~~~   **     Wair,out = 7.921886E-003\n   ** Warning ** Missing temperature setpoint for LeavingSetpointModulated mode chiller named PRIMARY CHILLER WATERCOOLED SCROLL 28TONS 0.8KW/TON\n   **   ~~~   **   A temperature setpoint is needed at the outlet node of a chiller in variable flow mode, use a SetpointManager\n   **   ~~~   **   The overall loop setpoint will be assumed for chiller. The simulation continues ... \n   ** Warning ** Missing temperature setpoint for LeavingSetpointModulated mode chiller named SECONDARY CHILLER WATERCOOLED SCROLL 0TONS 0.8KW/TON\n   **   ~~~   **   A temperature setpoint is needed at the outlet node of a chiller in variable flow mode, use a SetpointManager\n   **   ~~~   **   The overall loop setpoint will be assumed for chiller. The simulation continues ... \n   ** Warning ** Water heater = 600.0GAL ELECTRICITY WATER HEATER - 600KBTU/HR 1.0 THERM EFF:  Recovery Efficiency and Energy Factor could not be calculated during the test for standard ratings\n   **   ~~~   ** Setpoint was never recovered and/or heater never turned on\n   ** Warning ** Missing temperature setpoint for LeavingSetpointModulated mode Boiler named PRIMARY BOILER 2395KBTU/HR 0.834 THERMAL EFF\n   **   ~~~   **   A temperature setpoint is needed at the outlet node of a boiler in variable flow mode, use a SetpointManager\n   **   ~~~   **   The overall loop setpoint will be assumed for Boiler. The simulation continues ... \n   ** Warning ** Output:Meter: invalid Name=\"GAS:FACILITY\" - not found.\n   ** Warning ** Output:Meter: invalid Name=\"DISTRICTCOOLING:FACILITY\" - not found.\n   ** Warning ** Output:Meter: invalid Name=\"DISTRICTHEATING:FACILITY\" - not found.\n   ** Warning ** Output:Meter:MeterFileOnly: invalid Name=\"GAS:FACILITY\" - not found.\n   ** Warning ** Output:Meter:MeterFileOnly requested for \"Electricity:Facility\" (TimeStep), already on \"Output:Meter\". Will report to both eplusout.eso and eplusout.mtr\n   ************* Testing Individual Branch Integrity\n   ************* All Branches passed integrity testing\n   ************* Testing Individual Supply Air Path Integrity\n   ************* All Supply Air Paths passed integrity testing\n   ************* Testing Individual Return Air Path Integrity\n   ************* All Return Air Paths passed integrity testing\n   ************* No node connection errors were found.\n   ************* Beginning Simulation\n   ** Warning ** CalcDoe2DXCoil: Coil:Cooling:DX:SingleSpeed \"COIL COOLING DX SINGLE SPEED 16 42KBTU/HR 14.0SEER\" - Air-cooled condenser inlet dry-bulb temperature below 0 C. Outdoor dry-bulb temperature = -18.15\n   **   ~~~   **  ... Occurrence info = RUN PERIOD 1, 01/01 01:01 - 01:03\n   **   ~~~   ** ... Operation at low ambient temperatures may require special performance curves.\n   ** Warning ** CalcDoe2DXCoil: Coil:Cooling:DX:SingleSpeed \"COIL COOLING DX SINGLE SPEED 16 42KBTU/HR 14.0SEER\" - Full load outlet air dry-bulb temperature < 2C. This indicates the possibility of coil frost/freeze. Outlet temperature = 0.24 C.\n   **   ~~~   **  ...Occurrence info = RUN PERIOD 1, 01/01 01:01 - 01:03\n   **   ~~~   ** ... Possible reasons for low outlet air dry-bulb temperatures are: This DX coil\n   **   ~~~   **    1) may have a low inlet air dry-bulb temperature. Inlet air temperature = 13.930 C.\n   **   ~~~   **    2) may have a low air flow rate per watt of cooling capacity. Check inputs.\n   **   ~~~   **    3) is used as part of a HX assisted cooling coil which uses a high sensible effectiveness. Check inputs.\n   ** Warning ** CalcDoe2DXCoil: Coil:Cooling:DX:SingleSpeed \"COIL COOLING DX SINGLE SPEED 14 67KBTU/HR 9.7EER\" - Air-cooled condenser inlet dry-bulb temperature below 0 C. Outdoor dry-bulb temperature = -6.70\n   **   ~~~   **  ... Occurrence info = RUN PERIOD 1, 01/01 09:02 - 09:05\n   **   ~~~   ** ... Operation at low ambient temperatures may require special performance curves.\n   ** Warning ** CalcDoe2DXCoil: Coil:Cooling:DX:SingleSpeed \"COIL COOLING DX SINGLE SPEED 15 67KBTU/HR 9.7EER\" - Air-cooled condenser inlet dry-bulb temperature below 0 C. Outdoor dry-bulb temperature = -6.70\n   **   ~~~   **  ... Occurrence info = RUN PERIOD 1, 01/01 09:02 - 09:05\n   **   ~~~   ** ... Operation at low ambient temperatures may require special performance curves.\n   ** Warning ** CalcDoe2DXCoil: Coil:Cooling:DX:SingleSpeed \"COIL COOLING DX SINGLE SPEED 13 60KBTU/HR 14.0SEER\" - Air-cooled condenser inlet dry-bulb temperature below 0 C. Outdoor dry-bulb temperature = -12.10\n   **   ~~~   **  ... Occurrence info = RUN PERIOD 1, 01/02 07:02 - 07:04\n   **   ~~~   ** ... Operation at low ambient temperatures may require special performance curves.\n   ** Warning ** CalcDoe2DXCoil: Coil:Cooling:DX:SingleSpeed \"COIL COOLING DX SINGLE SPEED 7 7KBTU/HR 11.0EER\" - Air-cooled condenser inlet dry-bulb temperature below 0 C. Outdoor dry-bulb temperature = -27.65\n   **   ~~~   **  ... Occurrence info = RUN PERIOD 1, 01/03 14:30 - 14:45\n   **   ~~~   ** ... Operation at low ambient temperatures may require special performance curves.\n   ** Warning ** CalcDoe2DXCoil: Coil:Cooling:DX:SingleSpeed \"COIL COOLING DX SINGLE SPEED 11 13KBTU/HR 9.8EER\" - Air-cooled condenser inlet dry-bulb temperature below 0 C. Outdoor dry-bulb temperature = -41.55\n   **   ~~~   **  ... Occurrence info = RUN PERIOD 1, 01/08 13:08 - 13:15\n   **   ~~~   ** ... Operation at low ambient temperatures may require special performance curves.\n   ** Warning ** CalcDoe2DXCoil: Coil:Cooling:DX:SingleSpeed \"COIL COOLING DX SINGLE SPEED 17 6KBTU/HR 14.0SEER\" - Air-cooled condenser inlet dry-bulb temperature below 0 C. Outdoor dry-bulb temperature = -5.45\n   **   ~~~   **  ... Occurrence info = RUN PERIOD 1, 01/16 08:06 - 08:09\n   **   ~~~   ** ... Operation at low ambient temperatures may require special performance curves.\n   ** Warning ** CalcDoe2DXCoil: Coil:Cooling:DX:SingleSpeed \"COIL COOLING DX SINGLE SPEED 17 6KBTU/HR 14.0SEER\" - Full load outlet air dry-bulb temperature < 2C. This indicates the possibility of coil frost/freeze. Outlet temperature = -0.10 C.\n   **   ~~~   **  ...Occurrence info = RUN PERIOD 1, 01/16 08:06 - 08:09\n   **   ~~~   ** ... Possible reasons for low outlet air dry-bulb temperatures are: This DX coil\n   **   ~~~   **    1) may have a low inlet air dry-bulb temperature. Inlet air temperature = 13.605 C.\n   **   ~~~   **    2) may have a low air flow rate per watt of cooling capacity. Check inputs.\n   **   ~~~   **    3) is used as part of a HX assisted cooling coil which uses a high sensible effectiveness. Check inputs.\n   ** Warning ** CalcDoe2DXCoil: Coil:Cooling:DX:SingleSpeed \"COIL COOLING DX SINGLE SPEED 4 17KBTU/HR 9.3EER\" - Air-cooled condenser inlet dry-bulb temperature below 0 C. Outdoor dry-bulb temperature = -6.93\n   **   ~~~   **  ... Occurrence info = RUN PERIOD 1, 01/27 14:00 - 14:15\n   **   ~~~   ** ... Operation at low ambient temperatures may require special performance curves.\n   ** Warning ** CalcDoe2DXCoil: Coil:Cooling:DX:SingleSpeed \"COIL COOLING DX SINGLE SPEED 5 17KBTU/HR 9.3EER\" - Air-cooled condenser inlet dry-bulb temperature below 0 C. Outdoor dry-bulb temperature = -6.38\n   **   ~~~   **  ... Occurrence info = RUN PERIOD 1, 01/27 14:30 - 14:45\n   **   ~~~   ** ... Operation at low ambient temperatures may require special performance curves.\n   ** Warning ** CalcDoe2DXCoil: Coil:Cooling:DX:SingleSpeed \"COIL COOLING DX SINGLE SPEED 9 20KBTU/HR 9.3EER\" - Air-cooled condenser inlet dry-bulb temperature below 0 C. Outdoor dry-bulb temperature = -6.38\n   **   ~~~   **  ... Occurrence info = RUN PERIOD 1, 01/27 14:30 - 14:45\n   **   ~~~   ** ... Operation at low ambient temperatures may require special performance curves.\n   ** Warning ** CalcDoe2DXCoil: Coil:Cooling:DX:SingleSpeed \"COIL COOLING DX SINGLE SPEED 6 17KBTU/HR 9.3EER\" - Air-cooled condenser inlet dry-bulb temperature below 0 C. Outdoor dry-bulb temperature = -1.95\n   **   ~~~   **  ... Occurrence info = RUN PERIOD 1, 02/20 16:08 - 16:15\n   **   ~~~   ** ... Operation at low ambient temperatures may require special performance curves.\n   ** Warning ** CalcDoe2DXCoil: Coil:Cooling:DX:SingleSpeed \"COIL COOLING DX SINGLE SPEED 10 19KBTU/HR 9.3EER\" - Air-cooled condenser inlet dry-bulb temperature below 0 C. Outdoor dry-bulb temperature = -2.05\n   **   ~~~   **  ... Occurrence info = RUN PERIOD 1, 02/20 16:30 - 16:45\n   **   ~~~   ** ... Operation at low ambient temperatures may require special performance curves.\n   ** Warning ** CalcDoe2DXCoil: Coil:Cooling:DX:SingleSpeed \"COIL COOLING DX SINGLE SPEED 3 16KBTU/HR 9.3EER\" - Air-cooled condenser inlet dry-bulb temperature below 0 C. Outdoor dry-bulb temperature = -13.05\n   **   ~~~   **  ... Occurrence info = RUN PERIOD 1, 02/23 11:23 - 11:30\n   **   ~~~   ** ... Operation at low ambient temperatures may require special performance curves.\n   ** Warning ** SimHVAC: Maximum iterations (20) exceeded for all HVAC loops, at RUN PERIOD 1, 02/28 15:30 - 15:35\n   **   ~~~   ** The solution for one or more of the Air Loop HVAC systems did not appear to converge\n   **   ~~~   ** ...use Output:Diagnostics,DisplayExtraWarnings; to show more details on each max iteration exceeded.\n   ** Warning ** CalcDoe2DXCoil: Coil:Cooling:DX:SingleSpeed \"COIL COOLING DX SINGLE SPEED 8 48KBTU/HR 9.3EER\" - Air-cooled condenser inlet dry-bulb temperature below 0 C. Outdoor dry-bulb temperature = -0.23\n   **   ~~~   **  ... Occurrence info = RUN PERIOD 1, 03/09 18:00 - 18:08\n   **   ~~~   ** ... Operation at low ambient temperatures may require special performance curves.\n   ** Warning ** CalcDoe2DXCoil: Coil:Cooling:DX:SingleSpeed \"COIL COOLING DX SINGLE SPEED 2 3KBTU/HR 11.0EER\" - Air-cooled condenser inlet dry-bulb temperature below 0 C. Outdoor dry-bulb temperature = -3.50\n   **   ~~~   **  ... Occurrence info = RUN PERIOD 1, 03/21 22:30 - 22:45\n   **   ~~~   ** ... Operation at low ambient temperatures may require special performance curves.\n   ** Warning ** SimHVAC: Maximum iterations (20) exceeded for all HVAC loops, at RUN PERIOD 1, 04/01 14:00 - 14:15\n   **   ~~~   ** The solution for one or more of the Air Loop HVAC systems did not appear to converge\n   ** Warning ** CalcDoe2DXCoil: Coil:Cooling:DX:SingleSpeed \"COIL COOLING DX SINGLE SPEED 2 3KBTU/HR 11.0EER\" - Full load outlet air dry-bulb temperature < 2C. This indicates the possibility of coil frost/freeze. Outlet temperature = 1.80 C.\n   **   ~~~   **  ...Occurrence info = RUN PERIOD 1, 04/01 22:15 - 22:30\n   **   ~~~   ** ... Possible reasons for low outlet air dry-bulb temperatures are: This DX coil\n   **   ~~~   **    1) may have a low inlet air dry-bulb temperature. Inlet air temperature = 15.490 C.\n   **   ~~~   **    2) may have a low air flow rate per watt of cooling capacity. Check inputs.\n   **   ~~~   **    3) is used as part of a HX assisted cooling coil which uses a high sensible effectiveness. Check inputs.\n   ** Warning ** SimHVAC: Maximum iterations (20) exceeded for all HVAC loops, at RUN PERIOD 1, 04/15 12:15 - 12:30\n   **   ~~~   ** The solution for one or more of the Air Loop HVAC systems did not appear to converge\n   ** Warning ** SimHVAC: Maximum iterations (20) exceeded for all HVAC loops, at RUN PERIOD 1, 04/20 15:30 - 15:45\n   **   ~~~   ** The solution for one or more of the Air Loop HVAC systems did not appear to converge\n   ** Warning ** SimHVAC: Maximum iterations (20) exceeded for all HVAC loops, at RUN PERIOD 1, 05/01 13:45 - 14:00\n   **   ~~~   ** The solution for one or more of the Air Loop HVAC systems did not appear to converge\n   ** Warning ** SimHVAC: Maximum iterations (20) exceeded for all HVAC loops, at RUN PERIOD 1, 05/04 10:05 - 10:10\n   **   ~~~   ** The solution for one or more of the Air Loop HVAC systems did not appear to converge\n   ** Warning ** CalcDoe2DXCoil: Coil:Cooling:DX:SingleSpeed \"COIL COOLING DX SINGLE SPEED 12 14KBTU/HR 14.0SEER\" - Full load outlet air dry-bulb temperature < 2C. This indicates the possibility of coil frost/freeze. Outlet temperature = 1.91 C.\n   **   ~~~   **  ...Occurrence info = RUN PERIOD 1, 05/05 17:45 - 17:52\n   **   ~~~   ** ... Possible reasons for low outlet air dry-bulb temperatures are: This DX coil\n   **   ~~~   **    1) may have a low inlet air dry-bulb temperature. Inlet air temperature = 15.628 C.\n   **   ~~~   **    2) may have a low air flow rate per watt of cooling capacity. Check inputs.\n   **   ~~~   **    3) is used as part of a HX assisted cooling coil which uses a high sensible effectiveness. Check inputs.\n   ** Warning ** CalcDoe2DXCoil: Coil:Cooling:DX:SingleSpeed \"COIL COOLING DX SINGLE SPEED 18 83KBTU/HR 9.7EER\" - Full load outlet air dry-bulb temperature < 2C. This indicates the possibility of coil frost/freeze. Outlet temperature = -0.13 C.\n   **   ~~~   **  ...Occurrence info = RUN PERIOD 1, 05/06 16:10 - 16:15\n   **   ~~~   ** ... Possible reasons for low outlet air dry-bulb temperatures are: This DX coil\n   **   ~~~   **    1) may have a low inlet air dry-bulb temperature. Inlet air temperature = 13.550 C.\n   **   ~~~   **    2) may have a low air flow rate per watt of cooling capacity. Check inputs.\n   **   ~~~   **    3) is used as part of a HX assisted cooling coil which uses a high sensible effectiveness. Check inputs.\n   ** Warning ** SimHVAC: Maximum iterations (20) exceeded for all HVAC loops, at RUN PERIOD 1, 05/07 14:30 - 14:45\n   **   ~~~   ** The solution for one or more of the Air Loop HVAC systems did not appear to converge\n   ** Warning ** SimHVAC: Maximum iterations (20) exceeded for all HVAC loops, at RUN PERIOD 1, 05/21 13:45 - 14:00\n   **   ~~~   ** The solution for one or more of the Air Loop HVAC systems did not appear to converge\n   ** Warning ** SimHVAC: Maximum iterations (20) exceeded for all HVAC loops, at RUN PERIOD 1, 06/02 11:25 - 11:30\n   **   ~~~   ** The solution for one or more of the Air Loop HVAC systems did not appear to converge\n   ** Warning ** SimHVAC: Maximum iterations (20) exceeded for all HVAC loops, at RUN PERIOD 1, 06/06 10:25 - 10:30\n   **   ~~~   ** The solution for one or more of the Air Loop HVAC systems did not appear to converge\n   ** Warning ** SimHVAC: Maximum iterations (20) exceeded for all HVAC loops, at RUN PERIOD 1, 06/27 08:00 - 08:02\n   **   ~~~   ** The solution for one or more of the Air Loop HVAC systems did not appear to converge\n   ** Warning ** SimHVAC: Maximum iterations (20) exceeded for all HVAC loops, at RUN PERIOD 1, 10/11 11:00 - 11:08\n   **   ~~~   ** The solution for one or more of the Air Loop HVAC systems did not appear to converge\n   **   ~~~   ** The solution for zone HVAC equipment did not appear to converge\n   ** Warning ** SimHVAC: Maximum iterations (20) exceeded for all HVAC loops, at RUN PERIOD 1, 11/18 12:30 - 12:38\n   **   ~~~   ** The solution for one or more of the Air Loop HVAC systems did not appear to converge\n   ************* Simulation Error Summary *************\n   ************* There are 9 unused schedules in input.\n   ************* There are 9 unused week schedules in input.\n   ************* There are 35 unused day schedules in input.\n   ************* Use Output:Diagnostics,DisplayUnusedSchedules; to see them.\n   *************\n   ************* ===== Recurring Error Summary =====\n   ************* The following recurring error messages occurred.\n   *************\n   *************  ** Warning ** Plant loop falling below lower temperature limit, PlantLoop=\"MAIN SERVICE WATER LOOP\"\n   *************  **   ~~~   **   This error occurred 9 total times;\n   *************  **   ~~~   **   during Warmup 4 times;\n   *************  **   ~~~   **   during Sizing 0 times.\n   *************  **   ~~~   **   Min=0.\n   *************\n   *************  ** Warning ** CalcDoe2DXCoil: Coil:Cooling:DX:SingleSpeed=\"COIL COOLING DX SINGLE SPEED 16 42KBTU/HR 14.0SEER\" - Low condenser dry-bulb temperature error continues...\n   *************  **   ~~~   **   This error occurred 603 total times;\n   *************  **   ~~~   **   during Warmup 0 times;\n   *************  **   ~~~   **   during Sizing 0 times.\n   *************  **   ~~~   **   Max=-5.000000E-002 [C]  Min=-40.675 [C]\n   *************\n   *************  ** Warning ** CalcDoe2DXCoil: Coil:Cooling:DX:SingleSpeed=\"COIL COOLING DX SINGLE SPEED 16 42KBTU/HR 14.0SEER\" - Full load outlet temperature indicates a possibility of frost/freeze error continues. Outlet air temperature statistics follow:\n   *************  **   ~~~   **   This error occurred 16 total times;\n   *************  **   ~~~   **   during Warmup 0 times;\n   *************  **   ~~~   **   during Sizing 0 times.\n   *************  **   ~~~   **   Max=1.838046  Min=-1.634503\n   *************\n   *************  ** Warning ** CalcDoe2DXCoil: Coil:Cooling:DX:SingleSpeed=\"COIL COOLING DX SINGLE SPEED 14 67KBTU/HR 9.7EER\" - Low condenser dry-bulb temperature error continues...\n   *************  **   ~~~   **   This error occurred 305 total times;\n   *************  **   ~~~   **   during Warmup 0 times;\n   *************  **   ~~~   **   during Sizing 0 times.\n   *************  **   ~~~   **   Max=-0.125 [C]  Min=-48.3 [C]\n   *************\n   *************  ** Warning ** CalcDoe2DXCoil: Coil:Cooling:DX:SingleSpeed=\"COIL COOLING DX SINGLE SPEED 15 67KBTU/HR 9.7EER\" - Low condenser dry-bulb temperature error continues...\n   *************  **   ~~~   **   This error occurred 305 total times;\n   *************  **   ~~~   **   during Warmup 0 times;\n   *************  **   ~~~   **   during Sizing 0 times.\n   *************  **   ~~~   **   Max=-0.125 [C]  Min=-48.3 [C]\n   *************\n   *************  ** Warning ** CalcDoe2DXCoil: Coil:Cooling:DX:SingleSpeed=\"COIL COOLING DX SINGLE SPEED 13 60KBTU/HR 14.0SEER\" - Low condenser dry-bulb temperature error continues...\n   *************  **   ~~~   **   This error occurred 339 total times;\n   *************  **   ~~~   **   during Warmup 0 times;\n   *************  **   ~~~   **   during Sizing 0 times.\n   *************  **   ~~~   **   Max=-5.000000E-002 [C]  Min=-48.75 [C]\n   *************\n   *************  ** Warning ** CalcDoe2DXCoil: Coil:Cooling:DX:SingleSpeed=\"COIL COOLING DX SINGLE SPEED 7 7KBTU/HR 11.0EER\" - Low condenser dry-bulb temperature error continues...\n   *************  **   ~~~   **   This error occurred 6078 total times;\n   *************  **   ~~~   **   during Warmup 0 times;\n   *************  **   ~~~   **   during Sizing 0 times.\n   *************  **   ~~~   **   Max=-2.775558E-017 [C]  Min=-41.7 [C]\n   *************\n   *************  ** Warning ** CalcDoe2DXCoil: Coil:Cooling:DX:SingleSpeed=\"COIL COOLING DX SINGLE SPEED 11 13KBTU/HR 9.8EER\" - Low condenser dry-bulb temperature error continues...\n   *************  **   ~~~   **   This error occurred 2381 total times;\n   *************  **   ~~~   **   during Warmup 0 times;\n   *************  **   ~~~   **   during Sizing 0 times.\n   *************  **   ~~~   **   Max=-5.000000E-002 [C]  Min=-42.5 [C]\n   *************\n   *************  ** Warning ** CalcDoe2DXCoil: Coil:Cooling:DX:SingleSpeed=\"COIL COOLING DX SINGLE SPEED 17 6KBTU/HR 14.0SEER\" - Low condenser dry-bulb temperature error continues...\n   *************  **   ~~~   **   This error occurred 223 total times;\n   *************  **   ~~~   **   during Warmup 0 times;\n   *************  **   ~~~   **   during Sizing 0 times.\n   *************  **   ~~~   **   Max=-0.125 [C]  Min=-11.875 [C]\n   *************\n   *************  ** Warning ** CalcDoe2DXCoil: Coil:Cooling:DX:SingleSpeed=\"COIL COOLING DX SINGLE SPEED 17 6KBTU/HR 14.0SEER\" - Full load outlet temperature indicates a possibility of frost/freeze error continues. Outlet air temperature statistics follow:\n   *************  **   ~~~   **   This error occurred 245 total times;\n   *************  **   ~~~   **   during Warmup 0 times;\n   *************  **   ~~~   **   during Sizing 0 times.\n   *************  **   ~~~   **   Max=1.999876  Min=-2.021682\n   *************\n   *************  ** Warning ** CalcDoe2DXCoil: Coil:Cooling:DX:SingleSpeed=\"COIL COOLING DX SINGLE SPEED 4 17KBTU/HR 9.3EER\" - Low condenser dry-bulb temperature error continues...\n   *************  **   ~~~   **   This error occurred 1737 total times;\n   *************  **   ~~~   **   during Warmup 0 times;\n   *************  **   ~~~   **   during Sizing 0 times.\n   *************  **   ~~~   **   Max=-5.000000E-002 [C]  Min=-24. [C]\n   *************\n   *************  ** Warning ** CalcDoe2DXCoil: Coil:Cooling:DX:SingleSpeed=\"COIL COOLING DX SINGLE SPEED 5 17KBTU/HR 9.3EER\" - Low condenser dry-bulb temperature error continues...\n   *************  **   ~~~   **   This error occurred 1458 total times;\n   *************  **   ~~~   **   during Warmup 0 times;\n   *************  **   ~~~   **   during Sizing 0 times.\n   *************  **   ~~~   **   Max=-5.000000E-002 [C]  Min=-23.55 [C]\n   *************\n   *************  ** Warning ** CalcDoe2DXCoil: Coil:Cooling:DX:SingleSpeed=\"COIL COOLING DX SINGLE SPEED 9 20KBTU/HR 9.3EER\" - Low condenser dry-bulb temperature error continues...\n   *************  **   ~~~   **   This error occurred 917 total times;\n   *************  **   ~~~   **   during Warmup 0 times;\n   *************  **   ~~~   **   during Sizing 0 times.\n   *************  **   ~~~   **   Max=-5.000000E-002 [C]  Min=-23.4 [C]\n   *************\n   *************  ** Warning ** CalcDoe2DXCoil: Coil:Cooling:DX:SingleSpeed=\"COIL COOLING DX SINGLE SPEED 6 17KBTU/HR 9.3EER\" - Low condenser dry-bulb temperature error continues...\n   *************  **   ~~~   **   This error occurred 662 total times;\n   *************  **   ~~~   **   during Warmup 0 times;\n   *************  **   ~~~   **   during Sizing 0 times.\n   *************  **   ~~~   **   Max=-5.000000E-002 [C]  Min=-14.375 [C]\n   *************\n   *************  ** Warning ** CalcDoe2DXCoil: Coil:Cooling:DX:SingleSpeed=\"COIL COOLING DX SINGLE SPEED 10 19KBTU/HR 9.3EER\" - Low condenser dry-bulb temperature error continues...\n   *************  **   ~~~   **   This error occurred 423 total times;\n   *************  **   ~~~   **   during Warmup 0 times;\n   *************  **   ~~~   **   during Sizing 0 times.\n   *************  **   ~~~   **   Max=-5.000000E-002 [C]  Min=-13.9 [C]\n   *************\n   *************  ** Warning ** CalcDoe2DXCoil: Coil:Cooling:DX:SingleSpeed=\"COIL COOLING DX SINGLE SPEED 3 16KBTU/HR 9.3EER\" - Low condenser dry-bulb temperature error continues...\n   *************  **   ~~~   **   This error occurred 632 total times;\n   *************  **   ~~~   **   during Warmup 0 times;\n   *************  **   ~~~   **   during Sizing 0 times.\n   *************  **   ~~~   **   Max=-5.000000E-002 [C]  Min=-18.1 [C]\n   *************\n   *************  ** Warning ** CalcDoe2DXCoil: Coil:Cooling:DX:SingleSpeed=\"COIL COOLING DX SINGLE SPEED 8 48KBTU/HR 9.3EER\" - Low condenser dry-bulb temperature error continues...\n   *************  **   ~~~   **   This error occurred 21 total times;\n   *************  **   ~~~   **   during Warmup 0 times;\n   *************  **   ~~~   **   during Sizing 0 times.\n   *************  **   ~~~   **   Max=-0.125 [C]  Min=-2.2 [C]\n   *************\n   *************  ** Warning ** CalcDoe2DXCoil: Coil:Cooling:DX:SingleSpeed=\"COIL COOLING DX SINGLE SPEED 2 3KBTU/HR 11.0EER\" - Low condenser dry-bulb temperature error continues...\n   *************  **   ~~~   **   This error occurred 531 total times;\n   *************  **   ~~~   **   during Warmup 0 times;\n   *************  **   ~~~   **   during Sizing 0 times.\n   *************  **   ~~~   **   Max=-2.775558E-017 [C]  Min=-8.875 [C]\n   *************\n   *************  ** Warning ** CalcDoe2DXCoil: Coil:Cooling:DX:SingleSpeed=\"COIL COOLING DX SINGLE SPEED 2 3KBTU/HR 11.0EER\" - Full load outlet temperature indicates a possibility of frost/freeze error continues. Outlet air temperature statistics follow:\n   *************  **   ~~~   **   This error occurred 16 total times;\n   *************  **   ~~~   **   during Warmup 0 times;\n   *************  **   ~~~   **   during Sizing 0 times.\n   *************  **   ~~~   **   Max=1.903758  Min=1.240389\n   *************\n   *************  ** Warning ** CalcDoe2DXCoil: Coil:Cooling:DX:SingleSpeed=\"COIL COOLING DX SINGLE SPEED 12 14KBTU/HR 14.0SEER\" - Full load outlet temperature indicates a possibility of frost/freeze error continues. Outlet air temperature statistics follow:\n   *************  **   ~~~   **   This error occurred 98 total times;\n   *************  **   ~~~   **   during Warmup 0 times;\n   *************  **   ~~~   **   during Sizing 0 times.\n   *************  **   ~~~   **   Max=1.996077  Min=-0.971354\n   *************\n   *************  ** Warning ** CalcDoe2DXCoil: Coil:Cooling:DX:SingleSpeed=\"COIL COOLING DX SINGLE SPEED 18 83KBTU/HR 9.7EER\" - Full load outlet temperature indicates a possibility of frost/freeze error continues. Outlet air temperature statistics follow:\n   *************  **   ~~~   **   This error occurred 35 total times;\n   *************  **   ~~~   **   during Warmup 0 times;\n   *************  **   ~~~   **   during Sizing 0 times.\n   *************  **   ~~~   **   Max=1.961083  Min=-1.497233\n   *************\n   *************\n   ************* ===== Final Error Summary =====\n   ************* The following error categories occurred.  Consider correcting or noting.\n   ************* Nominally Unused Constructions\n   ************* ..The nominally unused constructions warning is provided to alert you to potential conditions that can cause\n   ************* ..extra time during simulation. Each construction is calculated by the algorithm indicated in the HeatBalanceAlgorithm\n   ************* ..object. You may remove the constructions indicated (when you use the DisplayExtraWarnings option).\n   *************\n   ************* EnergyPlus Warmup Error Summary. During Warmup: 0 Warning; 0 Severe Errors.\n   ************* EnergyPlus Sizing Error Summary. During Sizing: 163 Warning; 0 Severe Errors.\n   ************* EnergyPlus Completed Successfully-- 17239 Warning; 0 Severe Errors; Elapsed Time=00hr 04min 22.32sec\n",
   "file_format_version" : "0.0.1",
   "file_paths" : [ "../weather", "../seeds", "../seed" ],
   "hash" : "64E1376F",
   "measure_paths" : [ "../measures" ],
   "name" : "LHS Autogenerated 366",
   "osa_id" : "4fef0e0f-5396-4c55-a6e1-2cd6803db3ab",
   "osd_id" : "99195d1a-46d2-4aa8-baa3-5200b0ace654",
   "run_directory" : "./run",
   "seed_file" : "seed.osm",
   "started_at" : "20170710T184420Z",
   "steps" : [
      {
         "arguments" : {
            "__SKIP__" : false,
            "building_type" : "LargeHotel",
            "climate_zone" : "NECB HDD Method",
            "epw_file" : "CAN_YT_Whitehorse.719640_CWEC.epw",
            "template" : "NECB 2011"
         },
         "measure_dir_name" : "create_prototype_building",
         "name" : "create_prototype_building",
         "result" : {
            "completed_at" : "20170710T184615Z",
            "measure_class_name" : "CreatePrototypeBuilding",
            "measure_display_name" : "Create Prototype Building",
            "measure_name" : "create_prototype_building",
            "measure_taxonomy" : "Whole Building.Space Types",
            "measure_type" : "ModelMeasure",
            "measure_uid" : "ae90fsd7-a651-467a-bc8d-29d310b0f937",
            "measure_version_id" : "c6ec5c18-5595-459f-a082-09a19c8c869c",
            "measure_version_modified" : "20170519T182315Z",
            "measure_xml_checksum" : "057E8D9D",
            "started_at" : "20170710T184422Z",
            "stderr" : "",
[...]
4rciS+dkWoREZ2nV/JLuUu5vtGzeTRtlb0XyS09WN7P8pnkeQdFzrKr9izrEsVh8FUW81nuW9YpmNljN14Us1rtXPqsUou1VVmV9USyOa2USQ/tyUdt63TenHhER5i6ajrpVpz1oZ2uqoX2f8irKdS2vS0+/vpZ/Pv010/i7PTT558//CR+Of3p55F4d/zpuJjASTJry3tblWgiDkQUhLHw5zfJOBiLtKVJJOxonBQvrj8poLi+9krnycpst8Vl8ckllPE89MXMDiN54gV23LLVlL+V3Monr12mrxW6mPkl2hPb1SnkCT/U2+nlsf5M0z1N9tYrR17Zcy8WszBI5jD5qi1efbe3NxodH7+qufEMcIADHOAABzjAAQ5wgAMc4Pw9cUQ0v0n+CSwcqV4Ujr1QRKF0QAMa0IAGNKABDWhAAxrQgAY02TR36Vez/kRz6c0lcIADHOAABzjAAQ5wgAMc4ACnDM7j7waa6ncDz+bU7wb2zfQTtqOjnZ39fZCCFKQgBSlIQQpSkIIUpCAFKUhB+jJIrZTUjinSXkra71vW3hCkIAUpSEEKUpCCFKQgBSlIQQpSkL4M0r4iPQldgtTaT0lNc3e33wcpSEEKUpCCFKQgBSlIQQpSkIIUpC+DdEeRfp7OKdK9lHQ/2QZvQApSkIIUpCAFKUhBClKQghSkIAXpyyAdKNLfpEOR7qakb9+ORru7IAUpSEEKUpCCFKQgBSlIQQpSkIL0ZZAO03cm5pIiHaako9FwCFKQghSkIAUpSEEKUpCCFKQgBSlIXwrpriJ9H1CdBa1BSrq3Z1mDAUhBClKQghSkIAUpSEEKUpCCFKQgbYx0jeKE9l0rV+y+G7uxJ8+m9kx2Y3kft169C+ZhlI+x+PbIt+6N9CM38D0ZpQo5Etvb4shxhC1SJXHnxlMRBTdSOP2cI6PbSdeezaTvtAzlbWzlHLDeunYchy3j3miLYU/zoEVykFX8oCheeHKJ17H98TQIk+MNT15p0K40rgI/7txJdzKNlcZl4DnFNZb35mzWeWNHMrlBsThbRJ0dceKFnb44G087x+LdR298E3f8IExuwe8fxIfj0Ru1WyxvxI74ePa7OB2P1b6vtrJu6uvtaBy6s/if5D6vtx339vkweQwtlmgJ1zk0xmrEj5KLZLu+DC/M3q4h0kt3aDhuNPPsxYHre0msc+kF468/GjRgoro8BxEvZsnx6uptX9u39vLVzCPVdmuHanSKQ+G4NzNPdn15d3Y7aRnfPQPZFju9Xvqf3HRTuo4d24nw+R+GZ19KzzgwHHllz71YzMLgyvWk0V5GLu6NA7Pbaxu3tjeXq7/HalZKjkkmmtHo+Nh4aBfSsZh0+kw6O0w6AyadIZPOLpPOHpPOPpOO2eMS4hrRJteQNrnGtMk1qE2uUW1yDWuTa1ybXAPb5BrZFtfIttjmaq6RbXGNbEtrZItofnOz8TPVhVa0UDoaMuQ10pMhr5CeDHl99GTIvNeTIbNeT4bMeT0ZMuP1ZMh815OhFzJNHaZxTC9jmjpMI5lexDR1mMYyvYRp6jCNZnoB09RhGs/08qWpwzUvM41neu3S1Ck+nu9cP9Zfti7VS8V1yMujqUNeHk0d8vJo6pDprqlDprumDpnumjpkumvqkOmuqUOvX7pCXCOaXsF0hbjGNL2G6QpxjWp6FdMV4hrX9DqmK8Q1sumVTFeIba7mGtn0YqYrVHxkP35ukfu7wtQy19v4h97yh4cZLKz6Lfr1W+zUbzGo32JYv8Vu/RZ79Vvs12+xsbLX5dFAfpsNJLjZQIabDaS42UCOmw0kudlAlpsNpLnZQJ5bDeS51cQ63kCeWw3kuVUuz3N/vrFYWbX8fUcGC/pusFnQN4PNgr4XbBb0lMtmQc+4bBb0hMtmQc+3bBb0dMtmkfHJNZ8H/dEfnwf9qSCfB/2BIZ9HAymeUVbxeTSQ5BllFZ9HA2meUVbxrX90WcXn0cQ63sBCnlFW8XmUy/PcX8kqVlYtf0aLwYK+G2wW9M1gs6DvBZsFPeWyWdAzLpsFPeGyWdDzLZsF/d0oNouMsorPgy6r+DzosorPgy6r+Dzor2jxedDfS+TzoL+yyOdBf5uRz4P+oiOfRwN5nlFW8Xk0sY43sJBnlFV8HuWW8twfIylWVi1/rYTBgr4bbBb0zWCzoO8FmwVdVrFZ0GUVmwVdVrFZ0GUVmwU93bJZZJRVfB50WcXnQZdVfB50WcXnQZdVfB50WcXnQZdVfB50WcXnQZdVfB4N5HlGWcXn0cQ63sBCnlFW8XmUW8pze74XK6uWTeEZLOi7wWZB3ww2C/pesFnQZRWbBV1WsVnQZRWbBV1WsVnQ0y2bRUZZxedBl1V8HnRZxedBl1V8HnRZxedBl1V8HnRZxedBl1V8HnRZxefRQJ5nlFV8Hk2s4w0s5BllFZ9HuaU8t7VusbJq2XuXwYK+G2wW9M1gs6DvBZsFXVaxWdBlFZsFXVaxWdBlFZsFPd2yWWSUVXwedFnF50GXVXwedFnF50GXVXwedFnF50GXVXwedFnF50GXVXweDeR5RlnF59HEOt7AQp5RVvF5lFvKczsYFiurli0OGSzou8FmQd8MNgv6XrBZ0GUVmwVdVrFZ0GUVmwVdVrFZZPWdYrLIbLbG5ZHVrYrLI6uRFZdHVo8rLo+s9ldcHlk937g8strBcXlkdYrj8shqIsfl0UCeZ5RVfB5NrOMNLOQZZRWfR/5S/qVIh9dV82ZxKHx5t+4gmzaObUW3k3baATa3Vey6A3Qk4zfB3Hei1qDXFqY5aIu++ssaFGs3e59gPDa2dpyRHctJEC6O7t1o2UH58fwLtJlOBE5DR4af5qqhceEDFcdik+O9tKN5KJcYqifz6rrX3OIbYYQRRhhhhBFGGGGEEUYYYYQRRhhhhBFGGGGEEUYYYYQRRhhhhBFGGGGEEUYYYYQRRhhhhBFGGGGEEUYYYYQRRhhhhBFGGOG/VXjRDW5lGLqOfG+rB2vNbq/i86rq0dho89HYMxm6Mlo9Xmu01w8Qz7wg7nquL3MfkY2ee043/8naqJv+9Pws8OzYDfwEyohiOetcyqsglEaxJ59/kRPpO5sntHytNey1RV89udxTDzKr/xievIoVWI70WrZ7MZHxsR+r65NYXM39cUra2hJ/5EisCeXj0ee5z3Krzb0SrXjqRt0ovSvFjNT25KBucv2O7fG09R9gXbU1vnp0PGFf6V7MgshVgm+Tl4uczXpTMs9QhcGdHtIay/UdqfKhY7Y1j15v12UPvHKlp8Zba3VNl3kyCYP5TDri++/FP1av33cvpna0ev5dJdjW0+ji2WhyQbr2ZHKiPLqe9CfxVLwWlviXMI48zxAHm3tEnjuWrY65dd77spWbb9+cSRCK1nVyKr0fxXVisxqqK1/12g/JjKN/g9SmhvFK7/z6S/erXIjDw8PlxSunmKqubvu17qmut8tQ2l/LHPygeYzu/up6rc7uUA1rNRhWIyVt5NC9sKPInfjSGakWEdF5eiW/lLuU6xs9m0fTVtl7kdzSg+X9LJ9JnndQ5Cy7as+yLlEcBl9lMZ/lvmWdgpk9duNFMavVzqXPKrVYW5VVWU8km9NKmfTQnnzUtk7nzYlHdISpq6aTbsVZH9rpqlpo/4e8mkJt29vi46+fxb9Pf/0kzk4/ff75w0/il9Offh6Jd8efjosJnCSztry3VYkm4kBEQRgLf36TjIOxSFuaRMKOxknx4vqTAorra690nqzMdltcFp9cQhnPQ1/M7DCSJ15gxy1bTflbya188tpl+lqhi5lfoj2xXZ1CnvBDvZ1eHuvPNN3TZG+9cuSVPfdiMQuDZA6Tr9ri1Xd7e6PR8fGrmhvPAAc4wAEOcIADHOAABzjAAc7fE0dE85vkn8DCkepF4dgLRRRKBzSgAQ1oQAMa0IAGNKABDWhAk01zl3416080l95cAgc4wAEOcIADHOAABzjAAQ5wyuA8/m6gqX438GxO/W5g30w/YTs62tnZ3wcpSEEKUpCCFKQgBSlIQQpSkIIUpC+D1EpJ7Zgi7aWk/b5l7Q1BClKQghSkIAUpSEEKUpCCFKQgBenLIO0r0pPQJUit/ZTUNHd3+32QghSkIAUpSEEKUpCCFKQgBSlIQfoySHcU6efpnCLdS0n3k23wBqQgBSlIQQpSkIIUpCAFKUhBClKQvgzSgSL9TToU6W5K+vbtaLS7C1KQghSkIAUpSEEKUpCCFKQgBSlIXwbpMH1nYi4p0mFKOhoNhyAFKUhBClKQghSkIAUpSEEKUpCC9KWQ7irS9wHVWdAapKR7e5Y1GIAUpCAFKUhBClKQghSkIAUpSEEK0sZI1yhOaN+1csXuu7Ebe/Jsas9kN5b3cevVu2AeRvkYi2+PfOveSD9yA9+TUaqQI7G9LY4cR9giVRJ3bjwVUXAjhdPPOTK6nXTt2Uz6TstQ3sZWzgHrrWvHcdgy7o22GPY0D1okB1nFD4rihSeXeB3bH0+DMDne8OSVBu1K4yrw486ddCfTWGlcBp5TXGN5b85mnVEQhq4ThBcnXngxFGeLqNMXyd+dHXE2nnaOxbuP3vgm7kTBPLkRv38QH45Hb9RusbwRffHx7HdxOh6rfV9tZd3a19vROHRn8T/JfV5vO+7t82HyGFos0RKuc2iM1bgfJZfKdn0ZXpi9PUOkF/DQcNxo5tmLA9f3kljn0gvGX380aMBEdXkOIl7MkuPVNdy+tm/t5auZR6rt1g7VGBWHwnFvZp7s+vLu7HbSMr57BrItdnq99D+5Sad0HTu2E+HzPwzPvpSecWA48sqee7GYhcGV60mjvYxc3BsHZrfXNm5tby5Xf4/V3JQck0w3o9HxsfHQLqRjMen0mXR2mHQGTDpDJp1dJp09Jp19Jh2zxyXENaJNriFtco1pk2tQm1yj2uQa1ibXuDa5BrbJNbItrpFtsc3VXCPb4hrZltbIFtH85mbjx6oLrWihdDRkyGukJ0NeIT0Z8vroyZB5rydDZr2eDJnzejJkxuvJkPmuJ0MvZJo6TOOYXsY0dZhGMr2IaeowjWV6CdPUYRrN9AKmqcM0nunlS1OHa15mGs/02qWpU3w837l+rL9sXaqXiuuQl0dTh7w8mjrk5dHUIdNdU4dMd00dMt01dch019Qh011Th16/dIW4RjS9gukKcY1peg3TFeIa1fQqpivENa7pdUxXiGtk0yuZrhDbXM01sunFTFeo+Mh+/PQi99eFqWWut/EPveXPDzNY0P+6ZbPo138WO/VbDOq3GNZvsVu/xV79Fvv1W2ys7HV5NJDfGW/M8nnQ72zxedBvevF50O/08nnQbwLzedDvD/N50G8d83nQ7yrzrX/0G858HvR70XweDeR5xjvYfB7llvLcH3Es9jHu8lceGSzou8FmQZdVbBb0vWCzoMsqNgu6rGKzoMsqNgu6rGKzoMsqNouMsorPo4H8ziir+Dzo6ZbPgy6r+DzosorPgy6r+DzosorPgy6r+Dzosopv/aPLKj6PJtbxBvI8o6zi8yiX57m/lVWsrFr+mBaDhUWuHmwWdFnFZkGXVWwWdFnFZkGXVWwWdFnFZkGXVWwWdFnFZpFRVvF5NJDfGWUVnwc93fJ50NMtnwddVvF50GUVnwddVvF50GUVnwddVvGtf3RZxefRxDreQJ5nlFV8HuXyPPcnSYqVVcvfLGGwoMsqNgu6rGKzoMsqNgu6rGKzoMsqNgu6rGKzoMsqNgu6rGKzyCir+DwayO+MsorPg55u+Tzo6ZbPgy6r+DzosorPgy6r+DzosorPgy6r+NY/uqzi82hiHW8gzzPKKj6Pcnme2/m9WFm1bA3PYEGXVWwWdFnFZkGXVWwWdFnFZkGXVWwWdFnFZkGXVWwWdFnFZpFRVvF5NJDfGWUVnwc93fJ50NMtnwddVvF50GUVnwddVvF50GUVnwddVvGtf3RZxefRxDreQJ5nlFV8HuXyPLfBbrGyatmBl8GCLqvYLOiyis2CLqvYLOiyis2CLqvYLOiyis2CLqvYLOiyis0io6zi82ggvzPKKj4Perrl86CnWz4Puqzi86DLKj4Puqzi86DLKj4PuqziW//osorPo4l1vIE8zyir+DzK5XluH8NiZdWy0SGDBV1WsVnQZRWbBV1WsVnQZRWbBV1WsVnQZRWbBV1WsVnQZRWbRUZZxefRQH5ntmjj8sjqccXlkdX+issjq+cbl0dWOzguj6xOcVweWU3kuDyy+stxrX9Zree4PJpYxxvI88xedlwe+Xn+pUiH11ULZ3EofHm37iCbNo5tRbeTdtoBNrdV7LoPdCTjN8Hcd6LWoNcWpjloi776yxoUazd7n2A8trd2nJEdy0kQLo7u3WjZR/nx/As0m04ETkNHhp/mqq1x4QMVx2KT4720o3kolxiqM/Pqutfc6BthhBFGGGGEEUYYYYQRRhhhhBFGGGGEEUYYYYQRRhhhhBFGGGGEEUYYYYQRRhhhhBFGGGGEEUYYYYQRRhhhhBFGGGGEEUYY4b9VeNENbmUYuo58b6sHa81ur+LzqurR2Gjz0dgzGboyWj1ea7TXDxDPvCDueq4vcx+RjZ57Tjf/ydqom/70/Czw7NgN/ATKiGI561zKqyCURrEnn3+RE+k7mye0fK017LVFXz253FMPMqv/GJ68ihVYjvRatnsxkfGxH6vrk1hczf1xStraEn/kSKwJ5ePR57nPcqvNvRKteOpG3Si9K8WM1PbkoG5y/Y7t8bT1H2BdtTW+enQ8YV/pXsyCyFWCb5OXi5zNelMyz1CFwZ0e0hrL9R2p8qFjtjWPXm/XZQ+8cqWnxltrdU2XeTIJg/lMOuL778U/Vq/fdy+mdrR6/l0l2NbT6OLZaHJBuvZkcqI8up70J/FUvBaW+JcwjjzPEAebe0SeO5atjrl13vuylZtv35xJEIrWdXIqvR/FdWKzGqorX/XaD8mMo3+D1KaG8Urv/PpL96tciMPDw+XFK6eYqq5u+7Xuqa63y1DaX8sc/KB5jO7+6nqtzu5QDWs1GFYjJW3k0L2wo8id+NIZqRYR0Xl6Jb+Uu5TrGz2bR9NW2XuR3NKD5f0sn0med1DkLLtqz7IuURwGX2Uxn+W+ZZ2CmT1240Uxq9XOpc8qtVhblVVZTySb00qZ9NCefNS2TufNiUd0hKmrppNuxVkf2umqWmj/h7yaQm3b2+Ljr5/Fv09//STOTj99/vnDT+KX059+Hol3x5+OiwmcJLO2vLdViSbiQERBGAt/fpOMg7FIW5pEwo7GSfHi+pMCiutrr3SerMx2W1wWn1xCGc9DX8zsMJInXmDHLVtN+VvJrXzy2mX6WqGLmV+iPbFdnUKe8EO9nV4e68803dNkb71y5JU992IxC4NkDpOv2uLVd3t7o9Hx8auaG88ABzjAAQ5wgAMc4AAHOMABzt8TR0Tzm+SfwMKR6kXh2AtFFEoHNKABDWhAAxrQgAY0oAENaECTTXOXfjXrTzSX3lwCBzjAAQ5wgAMc4AAHOMABDnDK4Dz+bqCpfjfwbE79bmDfTD9hOzra2dnfBylIQQpSkIIUpCAFKUhBClKQghSkL4PUSkntmCLtpaT9vmXtDUEKUpCCFKQgBSlIQQpSkIIUpCAF6csg7SvSk9AlSK39lNQ0d3f7fZCCFKQgBSlIQQpSkIIUpCAFKUhB+jJIdxTp5+mcIt1LSfeTbfAGpCAFKUhBClKQghSkIAUpSEEKUpC+DNKBIv1NOhTpbkr69u1otLsLUpCCFKQgBSlIQQpSkIIUpCAFKUhfBukwfWdiLinSYUo6Gg2HIAUpSEEKUpCCFKQgBSlIQQpSkIL0pZDuKtL3AdVZ0BqkpHt7ljUYgBSkIAUpSEEKUpCCFKQgBSlIQQrSxkjXKE5o37Vyxe67sRt78mxqz2Q3lvdx69W7YB5G+RiLb498695IP3ID35NRqpAjsb0tjhxH2CJVEnduPBVRcCOF0885MrqddO3ZTPpOy1DexlbOAeuta8dx2DLujbYY9jQPWiQHWcUPiuKFJ5d4HdsfT4MwOd7w5JUG7UrjKvDjzp10J9NYaVwGnlNcY3lvzmadt67v+pOLEy+8GIqzRdTpi+Tvzo44G087b8S7j974Ju74QZjcht8/iA/Hozdqt1jeiL74ePa7OB2P1b6vtrJu7OvtaBy6s/if5D6vtx339vkweQwtlmgJ1zk0xmrUj5ILZbu+DC/M3r4h0st3aDhuNPPsxYHre0msc+kF468/GjRgoro8BxEvZsnx6gpuX9u39vLVzCPVdmuHaoSKQ+G4NzNPdn15d3Y7aRnfPQPZFju9Xvqf3JRTuo4d24nw+R+GZ19KzzgwHHllz71YzMLgyvWk0V5GLu6NA7Pbaxu3tjeXq7/HamZKjkkmm9Ho+Nh4aBfSsZh0+kw6O0w6AyadIZPOLpPOHpPOPpOO2eMS4hrRJteQNrnGtMk1qE2uUW1yDWuTa1ybXAPb5BrZFtfIttjmaq6RbXGNbEtrZItofnOz8VPVhVa0UDoaMuQ10pMhr5CeDHl99GTIvNeTIbNeT4bMeT0ZMuP1ZMh815OhFzJNHaZxTC9jmjpMI5lexDR1mMYyvYRp6jCNZnoB09RhGs/08qWpwzUvM41neu3S1Ck+nu9cP9Zfti7VS8V1yMujqUNeHk0d8vJo6pDprqlDprumDpnumjpkumvqkOmuqUOvX7pCXCOaXsF0hbjGNL2G6QpxjWp6FdMV4hrX9DqmK8Q1sumVTFeIba7mGtn0YqYrVHxkP352kfvbwtQy19v4h97yx4cZLOh/3bJZ9Os/i536LQb1Wwzrt9it32Kvfov9+i02Vva6PBrI74w3Zvk86He2+DzoN734POh3evk86DeB+Tzo94f5POi3jvk86HeV+dY/+g1nPg/6vWg+jwbyPOMdbD6Pckt57k84FvsYd/kbjwwW9N1gs6DLKjYL+l6wWdBlFZsFXVaxWdBlFZsFXVaxWdBlFZtFRlnF59FAfmeUVXwe9HTL50GXVXwedFnF50GXVXwedFnF50GXVXwedFnFt/7RZRWfRxPreAN5nlFW8XmUy/PcX8oqVlYtf0qLwcIiVw82C7qsYrOgyyo2C7qsYrOgyyo2C7qsYrOgyyo2C7qsYrPIKKv4PBrI74yyis+Dnm75POjpls+DLqv4POiyis+DLqv4POiyis+DLqv41j+6rOLzaGIdbyDPM8oqPo9yeZ77gyTFyqrlL5YwWNBlFZsFXVaxWdBlFZsFXVaxWdBlFZsFXVaxWdBlFZsFXVaxWWSUVXweDeR3RlnF50FPt3we9HTL50GXVXwedFnF50GXVXwedFnF50GXVXzrH11W8Xk0sY43kOcZZRWfR7k8z+37XqysWjaGZ7Cgyyo2C7qsYrOgyyo2C7qsYrOgyyo2C7qsYrOgyyo2C7qsYrPIKKv4PBrI74yyis+Dnm75POjpls+DLqv4POiyis+DLqv4POiyis+DLqv41j+6rOLzaGIdbyDPM8oqPo9yeZ7bXrdYWbXsv8tgQZdVbBZ0WcVmQZdVbBZ0WcVmQZdVbBZ0WcVmQZdVbBZ0WcVmkVFW8Xk0kN8ZZRWfBz3d8nnQ0y2fB11W8XnQZRWfB11W8XnQZRWfB11W8a1/dFnF59HEOt5AnmeUVXwe5fI8t4thsbJq2eaQwYIuq9gs6LKKzYIuq9gs6LKKzYIuq9gs6LKKzYIuq9gs6LKKzSKjrOLzaCC/M1u0cXlk9bji8shqf8XlkdXzjcsjqx0cl0dWpzguj6wmclweWf3luNa/rNZzXB5NrOMN5HlmLzsuj/w8/1Kkw+uqgbM4FL68W3eQTRvHtqLbSTvtAJvbKnbdBTqS8Ztg7jtRa9BrC9MctEVf/WUNirWbvU8wHptbO87IjuUkCBdH92607KL8eP4FWk0nAqehI8NPc9XUuPCBimOxyfFe2tE8lEsM1Zd5dd1rbvONMMIII4wwwggjjDDCCCOMMMIII4wwwggjjDDCCCOMMMIII4wwwggjjDDCCCOMMMIII4wwwggjjDDCCCOMMMIII4wwwggjjPDfKrzoBrcyDF1HvrfVg7Vmt1fxeVX1aGy0+WjsmQxdGa0erzXa6weIZ14Qdz3Xl7mPyEbPPaeb/2Rt1E1/en4WeHbsBn4CZUSxnHUu5VUQSqPYk8+/yIn0nc0TWr7WGvbaoq+eXO6pB5nVfwxPXsUKLEd6Ldu9mMj42I/V9Uksrub+OCVtbYk/ciTWhPLx6PPcZ7nV5l6JVjx1o26U3pViRmp7clA3uX7H9nja+g+wrtoaXz06nrCvdC9mQeQqwbfJy0XOZr0pmWeowuBOD2mN5fqOVPnQMduaR6+367IHXrnSU+OttbqmyzyZhMF8Jh3x/ffiH6vX77sXUztaPf+uEmzraXTxbDS5IF17MjlRHl1P+pN4Kl4LS/xLGEeeZ4iDzT0izx3LVsfcOu992crNt2/OJAhF6zo5ld6P4jqxWQ3Vla967YdkxtG/QWpTw3ild379pftVLsTh4eHy4pVTTFVXt/1a91TX22Uo7a9lDn7QPEZ3f3W9Vmd3qIa1GgyrkZI2cuhe2FHkTnzpjFSLiOg8vZJfyl3K9Y2ezaNpq+y9SG7pwfJ+ls8kzzsocpZdtWdZlygOg6+ymM9y37JOwcweu/GimNVq59JnlVqsrcqqrCeSzWmlTHpoTz5qW6fz5sQjOsLUVdNJt+KsD+10VS20/0NeTaG27W3x8dfP4t+nv34SZ6efPv/84Sfxy+lPP4/Eu+NPx8UETpJZW97bqkQTcSCiIIyFP79JxsFYpC1NImFH46R4cf1JAcX1tVc6T1Zmuy0ui08uoYznoS9mdhjJEy+w45atpvyt5FY+ee0yfa3Qxcwv0Z7Yrk4hT/ih3k4vj/Vnmu5psrdeOfLKnnuxmIVBMofJV23x6ru9vdHo+PhVzY1ngAMc4AAHOMABDnCAAxzgAOfviSOi+U3yT2DhSPWicOyFIgqlAxrQgAY0oAENaEADGtCABjSgyaa5S7+a9SeaS28ugQMc4AAHOMABDnCAAxzgAAc4ZXAefzfQVL8beDanfjewb6afsB0d7ezs74MUpCAFKUhBClKQghSkIAUpSEEK0pdBaqWkdkyR9lLSft+y9oYgBSlIQQpSkIIUpCAFKUhBClKQgvRlkPYV6UnoEqTWfkpqmru7/T5IQQpSkIIUpCAFKUhBClKQghSkIH0ZpDuK9PN0TpHupaT7yTZ4A1KQghSkIAUpSEEKUpCCFKQgBSlIXwbpQJH+Jh2KdDclfft2NNrdBSlIQQpSkIIUpCAFKUhBClKQghSkL4N0mL4zMZcU6TAlHY2GQ5CCFKQgBSlIQQpSkIIUpCAFKUhB+lJIdxXp+4DqLGgNUtK9PcsaDEAKUpCCFKQgBSlIQQpSkIIUpCAFaWOkaxQntO9auWL33diNPXk2tWeyG8v7uPXqXTAPo3yMxbdHvnVvpB+5ge/JKFXIkdjeFkeOI2yRKok7N56KKLiRwunnHBndTrr2bCZ9p2Uob2Mr54D11rXjOGwZ90ZbDHuaBy2Sg6ziB0XxwpNLvI7tj6dBmBxvePJKg3alcRX4cedOupNprDQuA88prrG8N2ezzv/nxuOp9C9OvPBiKM4WUacvkr87O+JsPO28Ee8+euObuCPtKBa/fxAfjkdv1F6xvBF98fHsd3E6HqtdX21l3djX29E4dGfxP8l9Xm877u3zYfIYWizREq5zaIzVqB8lF8p2fRlemGbPEOnlOzQcN5p59uLA9b0k1rn0gvHXHw0aMFFdnoOIF7PkeHUFt6/tW3v5auaRaru1QzVCxaFw3JuZJ7u+vDu7nbSM756BbIudXi/9T27KKV3Hju1E+PwPw7MvpWccGI68sudeLGZhcOV60mgvIxf3xoHZ7bWNW9ubS+NgMOj2959s/UHbGKuJKpFI5p7R6PjYeGgXkrXqke3XI7tTj+ygHtlhPbK79cju1SO7X4+s2atJt6Y8M2tKNLOmTDNrSjWzplwza0o2s6ZsM2tKN7OmfLNqyjerrnWtpnyzaso3q0q+iWh+c7Pxk+BlKodQOhqqRa+vnmrRq6unWvTa6qkWncn0VIvOY3qqRWcxPdWic5ieatEZTE+1cMGgKVtPdhUuFzRl68mvwsWCpmw9GVa4VNCUrSfHChcKmrL1ZFnhMkFTtqY1rJ4sK1wjaMqWzrI7148rlweXao/iskUvraZs0UurKVv00mrKFp3ANGWLTmCaskUnME3ZohOYpmzRCUxTtnCdoKtbU54VrhR0dWvKtMK1gq5uTblWuFrQ1a0p2wrXC7q6NeVb4YpBV7euda2mfCtcNOjq6uXblyIfXKw+lxSHwpd36w9G0s9DWtHtpJ1+sJH7Ccj6w81Ixm+Cue9ErUGvLUxz0BZ99Zc1KPYpyn2C8fiZreOM7FhOgnBxdO9Gyw8HH69FgU9QE4HT0JHhp7n6rK7wgYpjscnxXtrRPJRLDPVx4+oeVP1MOP1AatPqTIaujFa4idPqhsy8IO6qT8lyLaPnzjufNOqmA28WeHbsBn4CZUSxnHUu5VUQSqPYSPpFTqTvbJ7Q8rXWMBkFfTUS1IdqpvrP6iPX3E+j17Ldi4mMj/1YXZ/E4mruj1PS1pb4o8BnropQPh59npsbanOvRCueulEyrtVxxYzU9uSgbnL9ju3xtPUfYF21Nf7qM8aV7sUsiFwl+DZ5ucjZrDcl8wxVGNzpIa2xXN+RKnE7Zlvz6PV2XfbAK1d6ary1Vtd0mSeTMJjPpCO+/178Y/X6ffdiaker+UQl2NbT6OLZaHJBuvZkcqI8up70J/FUvBaW+JcwjjzPEAebe0SeO5atjrl13vuylZtv35xJEIrWdXIqvR/FdWKzGqorX/XaD4fC1L9BalPDeKV3fv2l+1Um09vh4fLilVNMVVe3/Vr3VNfbZSjtr2UOftA8Rnd/db1WZ3eohrUaDKuRki6M3Yvl94mkk36jKDpPr+SXcpdyfaNn82jaKnsvklt6sLyf5TPJ8w6KnGVX7VnWJYrD4Kss5rPct6xTMLPHbrwoZrXaufRZpRZrq7Iq64lkc1opkx7ak4/a1um8OfGIjjB11XTSrTjrQztdVQvt/5BXU6hte1t8/PWz+Pfpr5/E2emnzz9/+En8cvrTzyPx7vjTcTGBk2TWlve2KtFEHIgoSAppf36TjIOxSEvESNjROCleXH9SQHF97ZXOk5XZbovL4pNLKON56IuZHUbyxAvsuGWrKX8ruZVPXrtMXyt0MfNLtCe2q1PIE374L3zv80+f2K6+3Kk+gP2vfA0VOMABDnCAAxzgAAc4wAEOcF48zrfffFFEoXRAAxrQgAY0oAENaEADGtCABjTZNN98J1DRqK/4AQc4wAEOcIADHOAABzjAAQ5w/ovdFj/Lm5kM7XgeStE62UK/xb9Wv8X5bOYtxJEbCnWjXkjPRPMl9Ew0G+uZmP5dtjkTk06fSWeHSWfApDNk0tll0tlj0tln0tnoKVBJiGtEm1xD2uQa0ybXoDa5RrXJNaxNrnFtcg1sk2tkW1wj22Kbq7lGtsU1si2tkV28l9+GVPnmfRVkyCtUvj1fBRky78s34KsgQ+Z8+RZ7FWTIfK/QRK+KDtM4ppexCn3xqugwDWV6DavQ6q6KDtNophewCt3rqsyDTOOZXr0qNKSrosM0numlq3yPuQ2ZCk3lquiQl6dC27gqOmS6V2gMV0WHTPcKrd+q6JDpXqW5WyUhrhFNr2BV+rVVEuIa1PQiVqUFWyUhrnFNr2NVuqpVmhm5Rja9lFVplFZJiGtk06vZN0KPv/dkqt97OptTv/fUN4u933h0tLOzv89gQf/rls2C/ncvmwX9L2I2C/pdIDYL+v0hNgv6nSM2C/o9JTYL+t0mNouMt1j5PBrI74w3Zvk8GsjwjLdz+TwayPGMN4H5PBrI8oy3jvk8GsjzjDec+TyaWMcbyPOMd7D5PMrluZV62DHl0StWVvX7lrU3ZLCg7wabBX0z2Czoe8FmQU+5bBb0jMtmQU+4bBb0fMtmQU+3bBYZZRWfRwP5nVFW8Xk0kOEZZRWfRwM5nlFW8Xk0kOUZZRWfRwN5nlFW8Xk0sY43kOcZZRWfR7k87yuPk9Clfp18v1hZZZq7u/0+gwV9N9gs6JvBZkHfCzYLespls6BnXDYLesJls6DnWzYLerpls8goq/g8GsjvjLKKz6OBDM8oq/g8GsjxjLKKz6OBLM8oq/g8GsjzjLKKz6OJdbyBPM8oq/g8yuX5jvL4PJ1THnvFyir1i0uDNwwW9N1gs6BvBpsFfS/YLOgpl82CnnHZLOgJl82Cnm/ZLOjpls0io6zi82ggvzPKKj6PBjI8o6zi82ggxzPKKj6PBrI8o6zi82ggzzPKKj6PJtbxBvI8o6zi8yiX5wPl8Zt0KI/dYmXV27ej0e4ugwV9N9gs6JvBZkHfCzYLespls6BnXDYLesJls6DnWzYLerpls8goq/g8GsjvjLKKz6OBDM8oq/g8GsjxjLKKz6OBLM8oq/g8GsjzjLKKz6OJdbyBPM8oq/g8yuX5MC3d5pLyGBYrq0aj4ZDFgr4bbBb0zWCzoO8FmwU95bJZ0DMumwU94bJZ0PMtmwU93bJZZJRVfB4N5HdGWcXn0UCGZ5RVfB4N5HhGWcXn0UCWZ5RVfB4N5HlGWcXn0cQ63kCeZ5RVfB7l8nxXebwPqK/FW4NiZdXenmUNBgwWWX1umCyyOuAwWWT1xmGyyOoHxWSR1SmKySKrhxSTRVZ3KSaLrL5TTBaZzda4PBrI78wWbVweDWR4ZmM3Lo8GcjyzHRyXRwNZntlEjsujgTzPbD3H5dHEOt5Anmf2suPyyM/zL0U6vK7aMItD4cu7dQfZtHFsK7qdtNMOsLmtYte9nCMZvwnmvhO1Br22MM1BW/TVX9agWLvZ+wTjsQ+144zsWE6CcHF070bLTsiP51+gYXQicBo6Mvw0V42JCx+oOBabHO+lHc1DucRQvZVX173mjtwII4wwwggjjDDCCCOMMMIII4wwwggjjDDCCCOMMMIII4wwwggjjDDCCCOMMMIII4wwwggjjDDCCCOMMMIII4wwwggjjDDCCP+twotucCvD0HXke1s9WGt2exWfV1WPxkabj8aeydCV0erxWqO9foB45gVx13N9mfuIbPTcc7r5T9ZG3fSn52eBZ8du4CdQRhTLWedSXgWhNIo9+fyLnEjf2Tyh5WutYa8t+urJ5Z56kFn9x/DkVazAcqTXst2LiYyP/Vhdn8Tiau6PU9LWlvgjR2JNKB+PPs99lltt7pVoxVM36kbpXSlmpLYnB3WT63dsj6et/wDrqq3x1aPjCftK92IWRK4SfJu8XORs1puSeYYqDO70kNZYru9IlQ8ds6159Hq7LnvglSs9Nd5aq2u6zJNJGMxn0hHffy/+sXr9vnsxtaPV8+8qwbaeRhfPRpML0rUnkxPl0fWkP4mn4rWwxL+EceR5hjjY3CPy3LFsdcyt896Xrdx8++ZMglC0rpNT6f0orhOb1VBd+arXfkhmHP0bpDY1jFd659dful/lQhweHi4vXjnFVHV12691T3W9XYbS/lrm4AfNY3T3V9drdXaHalirwbAaKWkjh+6FHUXuxJfOSLWIiM7TK/ml3KVc3+jZPJq2yt6L5JYeLO9n+UzyvIMiZ9lVe5Z1ieIw+CqL+Sz3LesUzOyxGy+KWa12Ln1WqcXaqqzKeiLZnFbKpIf25KO2dTpvTjyiI0xdNZ10K8760E5X1UL7P+TVFGrb3hYff/0s/n366ydxdvrp888ffhK/nP7080i8O/50XEzgJJm15b2tSjQRByIKwlj485tkHIxF2tIkEnY0TooX158UUFxfe6XzZGW22+Ky+OQSynge+mJmh5E88QI7btlqyt9KbuWT1y7T1wpdzPwS7Ynt6hTyhB/q7fTyWH+m6Z4me+uVI6/suReLWRgkc5h81RavvtvbG42Oj1/V3HgGOMABDnCAAxzgAAc4wAEOcP6eOCKa3yT/BBaOVC8Kx14oolA6oAENaEADGtCABjSgAQ1oQAOabJq79KtZf6K59OYSOMABDnCAAxzgAAc4wAEOcIBTBufxdwNN9buBZ3PqdwP7ZvoJ29HRzs7+PkhBClKQghSkIAUpSEEKUpCCFKQgfRmkVkpqxxRpLyXt9y1rbwhSkIIUpCAFKUhBClKQghSkIAUpSF8GaV+RnoQuQWrtp6Smubvb74MUpCAFKUhBClKQghSkIAUpSEEK0pdBuqNIP0/nFOleSrqfbIM3IAUpSEEKUpCCFKQgBSlIQQpSkIL0ZZAOFOlv0qFId1PSt29Ho91dkIIUpCAFKUhBClKQghSkIAUpSEH6MkiH6TsTc0mRDlPS0Wg4BClIQQpSkIIUpCAFKUhBClKQghSkL4V0V5G+D6jOgtYgJd3bs6zBAKQgBSlIQQpSkIIUpCAFKUhBClKQNka6RnFC+66VK3bfjd3Yk2dTeya7sbyPW6/eBfMwysdYfHvkW/dG+pEb+J6MUoUcie1tceQ4whapkrhz46mIghspnH7OkdHtpGvPZtJ3WobyNrZyDlhvXTuOw5Zxb7TFsKd50CI5yCp+UBQvPLnE69j+eBqEyfGGJ680aFcaV4Efd+6kO5nGSuMy8JziGst783+O/s/yAn+SU2nH4nQ8Fmfj6autrJv0ejsah+4s/ie5z+ttx719PkweQ4slWsJ1Do2xGsGj5KRt15fhhWlahkgvxaHhuNHMsxcHru8lsc6lF4y//mjQgInq8hxEvJglx6ursX1t39rLVzOPVNutHarRJg6F497MPNn15d3Z7aRlfPcMZFvs9Hrpf3LTR+k6dmwnwud/GJ59KT3jwHDklT33YjELgyvXk0Z7Gbm4Nw7Mbq9t3NreXBoHw/3u/pNtb79tjNWckygk08hodHxsPLQLqVq1qPZrUd2pRXVQi+qwFtXdWlT3alHdr0XV7NUjW092mfWkl1lPfpn1JJhZT4aZ9aSYWU+OmfUkmVlPlln1ZJlV0xpWT5ZZ9WSZVSHLRDS/udn4Ge8SFUIoHQ3RgtdWT7TgldUTLXhd9UQLzl16ogVnLj3RgvOWnmjBWUtPtOCcpSdatDDQVK0lp4qWBZqqtWRV0aJAU7WWvCpaEmiq1pJZRQsCTdVacqtoOaCpWs96VUtuFa0FNFXL5tad68dVy4BLtUNx1YKXVVO14GXVVC14WTVVC05ZmqoFpyxN1YJTlqZqwSlLU7XglKWpWrQe0JWtJ7uKVgS6svXkV9GaQFe2ngwrWhXoytaTY0XrAl3ZerKsaGWgK1vTGlZPlhUtDnRltbLsS5EPHFafDYpD4cu79Qca6ecYreh20k4/kMj95GL9AWMk4zfB3Hei1qDXFqY5aIu++ssaFPv04z7BePzc1HFGdiwnQbg4unej5Qd0j5eiwKeYicBp6Mjw01x9Xlb4QMWx2OR4L+1oHsolhvrIb3ULqn4um36QtGl1JkNXRivcxGl1Q2ZeEHfVp1u5ltFz551PGnXTcTcLPDt2Az+BMqJYzjqX8ioIpVFsJP0iJ9J3Nk9o+VprmIyCvhoJ6sMwU/1n9bFn7ifCa9nuxUTGx36srk9icTX3xylpa0v8UeBzT0UoH48+z80NtblXohVP3SgZ1+q4YkZqe3JQN7l+x/Z42voPsK7aGn/12eBK92IWRK4SfJu8XORs1puSeYYqDO70kNZYru9Ilbgds6159Hq7LnvglSs9Nd5aq2u6zJNJGMxn0hHffy/+sXr9vnsxtaPVfKISbOtpdPFsNLkgXXsyOVEeXU/6k3gqXgtL/EsYR55niIPNPSLPHctWx9w6733Zys23b84kCEXrOjmV3o/iOrFZDdWVr3rth0Nh6t8gtalhvNI7v/7S/SqT6e3wcHnxyimmqqvbfq17quvtMpT21zIHP2geo7u/ul6rsztUw1oNhtVISRfG7sXyOz3SSb/VE52nV/JLuUu5vtGzeTRtlb0XyS09WN7P8pnkeQdFzrKr9izrEsVh8FUW81nuW9YpmNljN14Us1rtXPqsUou1VVmV9USyOa2USQ/tyUdt63TenHhER5i6ajrpVpz1oZ2uqoX2f8irKdS2vS0+/vpZ/Pv010/i7PTT558//CR+Of3p55F4d/zpuJjASTJry3tblWgiDkQUJIW0P79JxsFYpCViJOxonBQvrj8poLi+9krnycpst8Vl8ckllPE89MXMDiN54gV23LLVlL+V3Monr12mrxW6mPkl2hPb1SnkCT/8F757+acPYFdfsFQfqP5XvgoKHOAABzjAAQ5wgAMc4AAHOC8e59svuCiiUDqgAQ1oQAMa0IAGNKABDWhAA5psmm++Eqho1Ff8gAMc4AAHOMABDnCAAxzgAAc4/8WOh5/lzUyGdjwPpWidbKHn4V+q5+Fvthpx72T6P0c3l670Y6Fumep8KJ15cv07Yrd38kKaIPZfQhPEfmNNENNHT8s2YWLS6TPp7DDpDJh0hkw6u0w6e0w6+0w6G90FKglxjWiTa0ibXGPa5BrUJteoNrmGtck1rk2ugW1yjWyLa2RbbHM118i2uEa2pTWyizft25Aq36avggx5hcq34qsgQ+Z9+XZ7FWTInC/fUq+CDJnvFdrmVdFhGsf0MlahGV4VHaahTK9hFVrcVdFhGs30AlahcV2VeZBpPNOrV4V2dFV0mMYzvXSVbzK3IVOhrVwVHfLyVGgdV0WHTPcK7eGq6JDpXqEFXBUdMt2rtHmrJMQ1oukVrErztkpCXIOaXsSqtGSrJMQ1rul1rEqjtUozI9fIppeyKu3TKglxjWx6NUNTtBfRFA1hhBFGGGGEEUYYYYQRRhhhhBFGGOG/UnjRDW5lGLqOfG+rN6rMbg9N8Z+cCZriP25oiq+1oSk+muJrbGiK/+cNTfH/vKEpvuaGpvhoiv/shqb4wAEOcIADHOAABzjAAQ5wgAOcl9BSEjSgAQ1oQAMa0IAGNKABDWheDs3/TCtL4AAHOMABDnCAAxzgAAc4wCnv919oiv/WvZF+5Aa+J6MILfH/Wi3xg/CrOL66cseu9MeLx0b4zbbAX+39p8jT/7/+e/m/j+qrPx7/5zJwFup/p/GN98//5/8HONctFw=="
               },
               {
                  "name" : "annual_peak_electric_demand",
                  "units" : "kW",
                  "value" : 675.04479000000003
               },
               {
                  "name" : "first_year_capital_cost",
                  "units" : "$",
                  "value" : 0
               },
               {
                  "name" : "annual_utility_cost",
                  "units" : "$",
                  "value" : 0
               },
               {
                  "name" : "total_lifecycle_cost",
                  "units" : "$",
                  "value" : 0
               }
            ],
            "step_warnings" : [ "A table in Annual Overview section returned false and was skipped." ]
         }
      }
   ],
   "updated_at" : "20170710T185133Z",
   "weather_file" : "USA_CO_Denver.Intl.AP.725650_TMY3.epw"
}
