{
   "completed_at" : "20170710T185646Z",
   "completed_status" : "Success",
   "created_at" : "2017-07-10 18:49:56 +0000",
   "current_step" : 5,
   "description" : "",
   "eplusout_err" : "Program Version,EnergyPlus, Version 8.7.0-78a111df4a, YMD=2017.07.10 18:53,IDD_Version 8.7.0\n   ************* IDF Context for following error/warning message:\n   ************* Note -- lines truncated at 300 characters, if necessary...\n   *************      5 Building,\n   ************* indicated Name=NECB 2011-PrimarySchool-NECB HDD Method-CAN_PQ_La.Grande.Riviere.718270_CWEC.epw created: 2017-07-10 18:50:02 +0000\n   ************* Only last 1 lines before error line shown.....\n   *************      6   NECB 2011-PrimarySchool-NECB HDD Method-CAN_PQ_La.Grande.Riviere.718270_CWEC.epw created: 2017-07-10 18:50:02 +0000, !- Name\n   ** Warning ** IP: IDF line~6 Alpha Argument length exceeds maximum, will be truncated=  NECB 2011-PrimarySchool-NECB HDD Method-CAN_PQ_La.Grande.Riviere.718270_CWEC.epw created: 2017-07-10 18:50:02 +000\n   **   ~~~   ** Will be processed as Alpha=NECB 2011-PRIMARYSCHOOL-NECB HDD METHOD-CAN_PQ_LA.GRANDE.RIVIERE.718270_CWEC.EPW CREATED: 2017-07-10 18:50:02 +0000\n   ************* IDF Context for following error/warning message:\n   ************* Note -- lines truncated at 300 characters, if necessary...\n   *************   1050 Schedule:Week:Daily,\n   ************* indicated Name=Schedule:Week:Daily {84472967-2a55-47d8-b179-795d6512772f}\n   ************* Only last 10 lines before error line shown.....\n   *************   1051   Schedule:Week:Daily {84472967-2a55-47d8-b179-795d6512772f}, !- Name\n   *************   1052   Sp-Cafeteria_ZN_1_FLR_1 Sys-3 Flr-1 Sch-C HPlcmt-north ZN NECB System 3 PSZ Occ Sch Sunday, !- Sunday Schedule:Day Name\n   *************   1053   Sp-Cafeteria_ZN_1_FLR_1 Sys-3 Flr-1 Sch-C HPlcmt-north ZN NECB System 3 PSZ Occ Sch Monday, !- Monday Schedule:Day Name\n   *************   1054   Sp-Cafeteria_ZN_1_FLR_1 Sys-3 Flr-1 Sch-C HPlcmt-north ZN NECB System 3 PSZ Occ Sch Tuesday, !- Tuesday Schedule:Day Name\n   *************   1055   Sp-Cafeteria_ZN_1_FLR_1 Sys-3 Flr-1 Sch-C HPlcmt-north ZN NECB System 3 PSZ Occ Sch Wednesday, !- Wednesday Schedule:Day Name\n   *************   1056   Sp-Cafeteria_ZN_1_FLR_1 Sys-3 Flr-1 Sch-C HPlcmt-north ZN NECB System 3 PSZ Occ Sch Thursday, !- Thursday Schedule:Day Name\n   *************   1057   Sp-Cafeteria_ZN_1_FLR_1 Sys-3 Flr-1 Sch-C HPlcmt-north ZN NECB System 3 PSZ Occ Sch Friday, !- Friday Schedule:Day Name\n   *************   1058   Sp-Cafeteria_ZN_1_FLR_1 Sys-3 Flr-1 Sch-C HPlcmt-north ZN NECB System 3 PSZ Occ Sch Saturday, !- Saturday Schedule:Day Name\n   *************   1059   Sp-Cafeteria_ZN_1_FLR_1 Sys-3 Flr-1 Sch-C HPlcmt-north ZN NECB System 3 PSZ Occ Sch Default, !- Holiday Schedule:Day Name\n   *************   1060   Sp-Cafeteria_ZN_1_FLR_1 Sys-3 Flr-1 Sch-C HPlcmt-north ZN NECB System 3 PSZ Occ Sch Summer Design Day, !- SummerDesignDay Schedule:Day Name\n   ** Warning ** IP: IDF line~1060 Alpha Argument length exceeds maximum, will be truncated=  Sp-Cafeteria_ZN_1_FLR_1 Sys-3 Flr-1 Sch-C HPlcmt-north ZN NECB System 3 PSZ Occ Sch Summer Design Da\n   **   ~~~   ** Will be processed as Alpha=SP-CAFETERIA_ZN_1_FLR_1 SYS-3 FLR-1 SCH-C HPLCMT-NORTH ZN NECB SYSTEM 3 PSZ OCC SCH SUMMER DESIGN DAY\n   ************* IDF Context for following error/warning message:\n   ************* Note -- lines truncated at 300 characters, if necessary...\n   *************   1050 Schedule:Week:Daily,\n   ************* indicated Name=Schedule:Week:Daily {84472967-2a55-47d8-b179-795d6512772f}\n   ************* Only last 10 lines before error line shown.....\n   *************   1052   Sp-Cafeteria_ZN_1_FLR_1 Sys-3 Flr-1 Sch-C HPlcmt-north ZN NECB System 3 PSZ Occ Sch Sunday, !- Sunday Schedule:Day Name\n   *************   1053   Sp-Cafeteria_ZN_1_FLR_1 Sys-3 Flr-1 Sch-C HPlcmt-north ZN NECB System 3 PSZ Occ Sch Monday, !- Monday Schedule:Day Name\n   *************   1054   Sp-Cafeteria_ZN_1_FLR_1 Sys-3 Flr-1 Sch-C HPlcmt-north ZN NECB System 3 PSZ Occ Sch Tuesday, !- Tuesday Schedule:Day Name\n   *************   1055   Sp-Cafeteria_ZN_1_FLR_1 Sys-3 Flr-1 Sch-C HPlcmt-north ZN NECB System 3 PSZ Occ Sch Wednesday, !- Wednesday Schedule:Day Name\n   *************   1056   Sp-Cafeteria_ZN_1_FLR_1 Sys-3 Flr-1 Sch-C HPlcmt-north ZN NECB System 3 PSZ Occ Sch Thursday, !- Thursday Schedule:Day Name\n   *************   1057   Sp-Cafeteria_ZN_1_FLR_1 Sys-3 Flr-1 Sch-C HPlcmt-north ZN NECB System 3 PSZ Occ Sch Friday, !- Friday Schedule:Day Name\n   *************   1058   Sp-Cafeteria_ZN_1_FLR_1 Sys-3 Flr-1 Sch-C HPlcmt-north ZN NECB System 3 PSZ Occ Sch Saturday, !- Saturday Schedule:Day Name\n   *************   1059   Sp-Cafeteria_ZN_1_FLR_1 Sys-3 Flr-1 Sch-C HPlcmt-north ZN NECB System 3 PSZ Occ Sch Default, !- Holiday Schedule:Day Name\n   *************   1060   Sp-Cafeteria_ZN_1_FLR_1 Sys-3 Flr-1 Sch-C HPlcmt-north ZN NECB System 3 PSZ Occ Sch Summer Design Day, !- SummerDesignDay Schedule:Day Name\n   *************   1061   Sp-Cafeteria_ZN_1_FLR_1 Sys-3 Flr-1 Sch-C HPlcmt-north ZN NECB System 3 PSZ Occ Sch Winter Design Day, !- WinterDesignDay Schedule:Day Name\n   ** Warning ** IP: IDF line~1061 Alpha Argument length exceeds maximum, will be truncated=  Sp-Cafeteria_ZN_1_FLR_1 Sys-3 Flr-1 Sch-C HPlcmt-north ZN NECB System 3 PSZ Occ Sch Winter Design Da\n   **   ~~~   ** Will be processed as Alpha=SP-CAFETERIA_ZN_1_FLR_1 SYS-3 FLR-1 SCH-C HPLCMT-NORTH ZN NECB SYSTEM 3 PSZ OCC SCH WINTER DESIGN DAY\n   ************* IDF Context for following error/warning message:\n   ************* Note -- lines truncated at 300 characters, if necessary...\n   *************   1081 Schedule:Day:Interval,\n   ************* indicated Name=Sp-Cafeteria_ZN_1_FLR_1 Sys-3 Flr-1 Sch-C HPlcmt-north ZN NECB System 3 PSZ Occ Sch Summer Design Day\n   ************* Only last 1 lines before error line shown.....\n   *************   1082   Sp-Cafeteria_ZN_1_FLR_1 Sys-3 Flr-1 Sch-C HPlcmt-north ZN NECB System 3 PSZ Occ Sch Summer Design Day, !- Name\n   ** Warning ** IP: IDF line~1082 Alpha Argument length exceeds maximum, will be truncated=  Sp-Cafeteria_ZN_1_FLR_1 Sys-3 Flr-1 Sch-C HPlcmt-north ZN NECB System 3 PSZ Occ Sch Summer Design Da\n   **   ~~~   ** Will be processed as Alpha=SP-CAFETERIA_ZN_1_FLR_1 SYS-3 FLR-1 SCH-C HPLCMT-NORTH ZN NECB SYSTEM 3 PSZ OCC SCH SUMMER DESIGN DAY\n   ************* IDF Context for following error/warning message:\n   ************* Note -- lines truncated at 300 characters, if necessary...\n   *************   1088 Schedule:Day:Interval,\n   ************* indicated Name=Sp-Cafeteria_ZN_1_FLR_1 Sys-3 Flr-1 Sch-C HPlcmt-north ZN NECB System 3 PSZ Occ Sch Winter Design Day\n   ************* Only last 1 lines before error line shown.....\n   *************   1089   Sp-Cafeteria_ZN_1_FLR_1 Sys-3 Flr-1 Sch-C HPlcmt-north ZN NECB System 3 PSZ Occ Sch Winter Design Day, !- Name\n   ** Warning ** IP: IDF line~1089 Alpha Argument length exceeds maximum, will be truncated=  Sp-Cafeteria_ZN_1_FLR_1 Sys-3 Flr-1 Sch-C HPlcmt-north ZN NECB System 3 PSZ Occ Sch Winter Design Da\n   **   ~~~   ** Will be processed as Alpha=SP-CAFETERIA_ZN_1_FLR_1 SYS-3 FLR-1 SCH-C HPLCMT-NORTH ZN NECB SYSTEM 3 PSZ OCC SCH WINTER DESIGN DAY\n   ************* IDF Context for following error/warning message:\n   ************* Note -- lines truncated at 300 characters, if necessary...\n   *************   1438 Schedule:Week:Daily,\n   ************* indicated Name=Schedule:Week:Daily {e4a4d137-3c79-415b-9fc9-0d87b90dc276}\n   ************* Only last 10 lines before error line shown.....\n   *************   1439   Schedule:Week:Daily {e4a4d137-3c79-415b-9fc9-0d87b90dc276}, !- Name\n   *************   1440   Sp-Computer_Class_ZN_1_FLR_1 Sys-3 Flr-1 Sch-D HPlcmt-north ZN NECB System 3 PSZ Occ Sch Sunday, !- Sunday Schedule:Day Name\n   *************   1441   Sp-Computer_Class_ZN_1_FLR_1 Sys-3 Flr-1 Sch-D HPlcmt-north ZN NECB System 3 PSZ Occ Sch Monday, !- Monday Schedule:Day Name\n   *************   1442   Sp-Computer_Class_ZN_1_FLR_1 Sys-3 Flr-1 Sch-D HPlcmt-north ZN NECB System 3 PSZ Occ Sch Tuesday, !- Tuesday Schedule:Day Name\n   *************   1443   Sp-Computer_Class_ZN_1_FLR_1 Sys-3 Flr-1 Sch-D HPlcmt-north ZN NECB System 3 PSZ Occ Sch Wednesday, !- Wednesday Schedule:Day Name\n   *************   1444   Sp-Computer_Class_ZN_1_FLR_1 Sys-3 Flr-1 Sch-D HPlcmt-north ZN NECB System 3 PSZ Occ Sch Thursday, !- Thursday Schedule:Day Name\n   *************   1445   Sp-Computer_Class_ZN_1_FLR_1 Sys-3 Flr-1 Sch-D HPlcmt-north ZN NECB System 3 PSZ Occ Sch Friday, !- Friday Schedule:Day Name\n   *************   1446   Sp-Computer_Class_ZN_1_FLR_1 Sys-3 Flr-1 Sch-D HPlcmt-north ZN NECB System 3 PSZ Occ Sch Saturday, !- Saturday Schedule:Day Name\n   *************   1447   Sp-Computer_Class_ZN_1_FLR_1 Sys-3 Flr-1 Sch-D HPlcmt-north ZN NECB System 3 PSZ Occ Sch Default, !- Holiday Schedule:Day Name\n   *************   1448   Sp-Computer_Class_ZN_1_FLR_1 Sys-3 Flr-1 Sch-D HPlcmt-north ZN NECB System 3 PSZ Occ Sch Summer Design Day, !- SummerDesignDay Schedule:Day Name\n   ** Warning ** IP: IDF line~1448 Alpha Argument length exceeds maximum, will be truncated=  Sp-Computer_Class_ZN_1_FLR_1 Sys-3 Flr-1 Sch-D HPlcmt-north ZN NECB System 3 PSZ Occ Sch Summer Design Da\n   **   ~~~   ** Will be processed as Alpha=SP-COMPUTER_CLASS_ZN_1_FLR_1 SYS-3 FLR-1 SCH-D HPLCMT-NORTH ZN NECB SYSTEM 3 PSZ OCC SCH SUMMER DESIGN DAY\n   ************* IDF Context for following error/warning message:\n   ************* Note -- lines truncated at 300 characters, if necessary...\n   *************   1438 Schedule:Week:Daily,\n   ************* indicated Name=Schedule:Week:Daily {e4a4d137-3c79-415b-9fc9-0d87b90dc276}\n   ************* Only last 10 lines before error line shown.....\n   *************   1440   Sp-Computer_Class_ZN_1_FLR_1 Sys-3 Flr-1 Sch-D HPlcmt-north ZN NECB System 3 PSZ Occ Sch Sunday, !- Sunday Schedule:Day Name\n   *************   1441   Sp-Computer_Class_ZN_1_FLR_1 Sys-3 Flr-1 Sch-D HPlcmt-north ZN NECB System 3 PSZ Occ Sch Monday, !- Monday Schedule:Day Name\n   *************   1442   Sp-Computer_Class_ZN_1_FLR_1 Sys-3 Flr-1 Sch-D HPlcmt-north ZN NECB System 3 PSZ Occ Sch Tuesday, !- Tuesday Schedule:Day Name\n   *************   1443   Sp-Computer_Class_ZN_1_FLR_1 Sys-3 Flr-1 Sch-D HPlcmt-north ZN NECB System 3 PSZ Occ Sch Wednesday, !- Wednesday Schedule:Day Name\n   *************   1444   Sp-Computer_Class_ZN_1_FLR_1 Sys-3 Flr-1 Sch-D HPlcmt-north ZN NECB System 3 PSZ Occ Sch Thursday, !- Thursday Schedule:Day Name\n   *************   1445   Sp-Computer_Class_ZN_1_FLR_1 Sys-3 Flr-1 Sch-D HPlcmt-north ZN NECB System 3 PSZ Occ Sch Friday, !- Friday Schedule:Day Name\n   *************   1446   Sp-Computer_Class_ZN_1_FLR_1 Sys-3 Flr-1 Sch-D HPlcmt-north ZN NECB System 3 PSZ Occ Sch Saturday, !- Saturday Schedule:Day Name\n   *************   1447   Sp-Computer_Class_ZN_1_FLR_1 Sys-3 Flr-1 Sch-D HPlcmt-north ZN NECB System 3 PSZ Occ Sch Default, !- Holiday Schedule:Day Name\n   *************   1448   Sp-Computer_Class_ZN_1_FLR_1 Sys-3 Flr-1 Sch-D HPlcmt-north ZN NECB System 3 PSZ Occ Sch Summer Design Day, !- SummerDesignDay Schedule:Day Name\n   *************   1449   Sp-Computer_Class_ZN_1_FLR_1 Sys-3 Flr-1 Sch-D HPlcmt-north ZN NECB System 3 PSZ Occ Sch Winter Design Day, !- WinterDesignDay Schedule:Day Name\n   ** Warning ** IP: IDF line~1449 Alpha Argument length exceeds maximum, will be truncated=  Sp-Computer_Class_ZN_1_FLR_1 Sys-3 Flr-1 Sch-D HPlcmt-north ZN NECB System 3 PSZ Occ Sch Winter Design Da\n   **   ~~~   ** Will be processed as Alpha=SP-COMPUTER_CLASS_ZN_1_FLR_1 SYS-3 FLR-1 SCH-D HPLCMT-NORTH ZN NECB SYSTEM 3 PSZ OCC SCH WINTER DESIGN DAY\n   ************* IDF Context for following error/warning message:\n   ************* Note -- lines truncated at 300 characters, if necessary...\n   *************   1469 Schedule:Day:Interval,\n   ************* indicated Name=Sp-Computer_Class_ZN_1_FLR_1 Sys-3 Flr-1 Sch-D HPlcmt-north ZN NECB System 3 PSZ Occ Sch Summer Design Day\n   ************* Only last 1 lines before error line shown.....\n   *************   1470   Sp-Computer_Class_ZN_1_FLR_1 Sys-3 Flr-1 Sch-D HPlcmt-north ZN NECB System 3 PSZ Occ Sch Summer Design Day, !- Name\n   ** Warning ** IP: IDF line~1470 Alpha Argument length exceeds maximum, will be truncated=  Sp-Computer_Class_ZN_1_FLR_1 Sys-3 Flr-1 Sch-D HPlcmt-north ZN NECB System 3 PSZ Occ Sch Summer Design Da\n   **   ~~~   ** Will be processed as Alpha=SP-COMPUTER_CLASS_ZN_1_FLR_1 SYS-3 FLR-1 SCH-D HPLCMT-NORTH ZN NECB SYSTEM 3 PSZ OCC SCH SUMMER DESIGN DAY\n   ************* IDF Context for following error/warning message:\n   ************* Note -- lines truncated at 300 characters, if necessary...\n   *************   1476 Schedule:Day:Interval,\n   ************* indicated Name=Sp-Computer_Class_ZN_1_FLR_1 Sys-3 Flr-1 Sch-D HPlcmt-north ZN NECB System 3 PSZ Occ Sch Winter Design Day\n   ************* Only last 1 lines before error line shown.....\n   *************   1477   Sp-Computer_Class_ZN_1_FLR_1 Sys-3 Flr-1 Sch-D HPlcmt-north ZN NECB System 3 PSZ Occ Sch Winter Design Day, !- Name\n   ** Warning ** IP: IDF line~1477 Alpha Argument length exceeds maximum, will be truncated=  Sp-Computer_Class_ZN_1_FLR_1 Sys-3 Flr-1 Sch-D HPlcmt-north ZN NECB System 3 PSZ Occ Sch Winter Design Da\n   **   ~~~   ** Will be processed as Alpha=SP-COMPUTER_CLASS_ZN_1_FLR_1 SYS-3 FLR-1 SCH-D HPLCMT-NORTH ZN NECB SYSTEM 3 PSZ OCC SCH WINTER DESIGN DAY\n   ************* IDF Context for following error/warning message:\n   ************* Note -- lines truncated at 300 characters, if necessary...\n   *************   1753 Schedule:Day:Interval,\n   ************* indicated Name=Sp-Corner_Class_1_Pod_1_ZN_1_FLR_1 Sys-3 Flr-1 Sch-D HPlcmt-south ZN NECB System 3 PSZ Occ Sch Sunday\n   ************* Only last 1 lines before error line shown.....\n   *************   1754   Sp-Corner_Class_1_Pod_1_ZN_1_FLR_1 Sys-3 Flr-1 Sch-D HPlcmt-south ZN NECB System 3 PSZ Occ Sch Sunday, !- Name\n   ** Warning ** IP: IDF line~1754 Alpha Argument length exceeds maximum, will be truncated=  Sp-Corner_Class_1_Pod_1_ZN_1_FLR_1 Sys-3 Flr-1 Sch-D HPlcmt-south ZN NECB System 3 PSZ Occ Sch Sunda\n   **   ~~~   ** Will be processed as Alpha=SP-CORNER_CLASS_1_POD_1_ZN_1_FLR_1 SYS-3 FLR-1 SCH-D HPLCMT-SOUTH ZN NECB SYSTEM 3 PSZ OCC SCH SUNDAY\n   ************* IDF Context for following error/warning message:\n   ************* Note -- lines truncated at 300 characters, if necessary...\n   *************   1760 Schedule:Day:Interval,\n   ************* indicated Name=Sp-Corner_Class_1_Pod_1_ZN_1_FLR_1 Sys-3 Flr-1 Sch-D HPlcmt-south ZN NECB System 3 PSZ Occ Sch Monday\n   ************* Only last 1 lines before error line shown.....\n   *************   1761   Sp-Corner_Class_1_Pod_1_ZN_1_FLR_1 Sys-3 Flr-1 Sch-D HPlcmt-south ZN NECB System 3 PSZ Occ Sch Monday, !- Name\n   ** Warning ** IP: IDF line~1761 Alpha Argument length exceeds maximum, will be truncated=  Sp-Corner_Class_1_Pod_1_ZN_1_FLR_1 Sys-3 Flr-1 Sch-D HPlcmt-south ZN NECB System 3 PSZ Occ Sch Monda\n   **   ~~~   ** Will be processed as Alpha=SP-CORNER_CLASS_1_POD_1_ZN_1_FLR_1 SYS-3 FLR-1 SCH-D HPLCMT-SOUTH ZN NECB SYSTEM 3 PSZ OCC SCH MONDAY\n   ************* IDF Context for following error/warning message:\n   ************* Note -- lines truncated at 300 characters, if necessary...\n   *************   1775 Schedule:Day:Interval,\n   ************* indicated Name=Sp-Corner_Class_1_Pod_1_ZN_1_FLR_1 Sys-3 Flr-1 Sch-D HPlcmt-south ZN NECB System 3 PSZ Occ Sch Tuesday\n   ************* Only last 1 lines before error line shown.....\n   *************   1776   Sp-Corner_Class_1_Pod_1_ZN_1_FLR_1 Sys-3 Flr-1 Sch-D HPlcmt-south ZN NECB System 3 PSZ Occ Sch Tuesday, !- Name\n   ** Warning ** IP: IDF line~1776 Alpha Argument length exceeds maximum, will be truncated=  Sp-Corner_Class_1_Pod_1_ZN_1_FLR_1 Sys-3 Flr-1 Sch-D HPlcmt-south ZN NECB System 3 PSZ Occ Sch Tuesda\n   **   ~~~   ** Will be processed as Alpha=SP-CORNER_CLASS_1_POD_1_ZN_1_FLR_1 SYS-3 FLR-1 SCH-D HPLCMT-SOUTH ZN NECB SYSTEM 3 PSZ OCC SCH TUESDAY\n   ************* IDF Context for following error/warning message:\n   ************* Note -- lines truncated at 300 characters, if necessary...\n   *************   1790 Schedule:Day:Interval,\n   ************* indicated Name=Sp-Corner_Class_1_Pod_1_ZN_1_FLR_1 Sys-3 Flr-1 Sch-D HPlcmt-south ZN NECB System 3 PSZ Occ Sch Wednesday\n   ************* Only last 1 lines before error line shown.....\n   *************   1791   Sp-Corner_Class_1_Pod_1_ZN_1_FLR_1 Sys-3 Flr-1 Sch-D HPlcmt-south ZN NECB System 3 PSZ Occ Sch Wednesday, !- Name\n   ** Warning ** IP: IDF line~1791 Alpha Argument length exceeds maximum, will be truncated=  Sp-Corner_Class_1_Pod_1_ZN_1_FLR_1 Sys-3 Flr-1 Sch-D HPlcmt-south ZN NECB System 3 PSZ Occ Sch Wednesda\n   **   ~~~   ** Will be processed as Alpha=SP-CORNER_CLASS_1_POD_1_ZN_1_FLR_1 SYS-3 FLR-1 SCH-D HPLCMT-SOUTH ZN NECB SYSTEM 3 PSZ OCC SCH WEDNESDAY\n   ************* IDF Context for following error/warning message:\n   ************* Note -- lines truncated at 300 characters, if necessary...\n   *************   1805 Schedule:Day:Interval,\n   ************* indicated Name=Sp-Corner_Class_1_Pod_1_ZN_1_FLR_1 Sys-3 Flr-1 Sch-D HPlcmt-south ZN NECB System 3 PSZ Occ Sch Thursday\n   ************* Only last 1 lines before error line shown.....\n   *************   1806   Sp-Corner_Class_1_Pod_1_ZN_1_FLR_1 Sys-3 Flr-1 Sch-D HPlcmt-south ZN NECB System 3 PSZ Occ Sch Thursday, !- Name\n   ** Warning ** IP: IDF line~1806 Alpha Argument length exceeds maximum, will be truncated=  Sp-Corner_Class_1_Pod_1_ZN_1_FLR_1 Sys-3 Flr-1 Sch-D HPlcmt-south ZN NECB System 3 PSZ Occ Sch Thursda\n   **   ~~~   ** Will be processed as Alpha=SP-CORNER_CLASS_1_POD_1_ZN_1_FLR_1 SYS-3 FLR-1 SCH-D HPLCMT-SOUTH ZN NECB SYSTEM 3 PSZ OCC SCH THURSDAY\n   ************* IDF Context for following error/warning message:\n   ************* Note -- lines truncated at 300 characters, if necessary...\n   *************   1820 Schedule:Day:Interval,\n   ************* indicated Name=Sp-Corner_Class_1_Pod_1_ZN_1_FLR_1 Sys-3 Flr-1 Sch-D HPlcmt-south ZN NECB System 3 PSZ Occ Sch Friday\n   ************* Only last 1 lines before error line shown.....\n   *************   1821   Sp-Corner_Class_1_Pod_1_ZN_1_FLR_1 Sys-3 Flr-1 Sch-D HPlcmt-south ZN NECB System 3 PSZ Occ Sch Friday, !- Name\n   ** Warning ** IP: IDF line~1821 Alpha Argument length exceeds maximum, will be truncated=  Sp-Corner_Class_1_Pod_1_ZN_1_FLR_1 Sys-3 Flr-1 Sch-D HPlcmt-south ZN NECB System 3 PSZ Occ Sch Frida\n   **   ~~~   ** Will be processed as Alpha=SP-CORNER_CLASS_1_POD_1_ZN_1_FLR_1 SYS-3 FLR-1 SCH-D HPLCMT-SOUTH ZN NECB SYSTEM 3 PSZ OCC SCH FRIDAY\n   ************* IDF Context for following error/warning message:\n   ************* Note -- lines truncated at 300 characters, if necessary...\n   *************   1835 Schedule:Day:Interval,\n   ************* indicated Name=Sp-Corner_Class_1_Pod_1_ZN_1_FLR_1 Sys-3 Flr-1 Sch-D HPlcmt-south ZN NECB System 3 PSZ Occ Sch Saturday\n   ************* Only last 1 lines before error line shown.....\n   *************   1836   Sp-Corner_Class_1_Pod_1_ZN_1_FLR_1 Sys-3 Flr-1 Sch-D HPlcmt-south ZN NECB System 3 PSZ Occ Sch Saturday, !- Name\n   ** Warning ** IP: IDF line~1836 Alpha Argument length exceeds maximum, will be truncated=  Sp-Corner_Class_1_Pod_1_ZN_1_FLR_1 Sys-3 Flr-1 Sch-D HPlcmt-south ZN NECB System 3 PSZ Occ Sch Saturda\n   **   ~~~   ** Will be processed as Alpha=SP-CORNER_CLASS_1_POD_1_ZN_1_FLR_1 SYS-3 FLR-1 SCH-D HPLCMT-SOUTH ZN NECB SYSTEM 3 PSZ OCC SCH SATURDAY\n   ************* IDF Context for following error/warning message:\n   ************* Note -- lines truncated at 300 characters, if necessary...\n   *************   1842 Schedule:Week:Daily,\n   ************* indicated Name=Schedule:Week:Daily {bae69dc8-4d71-492c-8daf-1cd5523a5c50}\n   ************* Only last 2 lines before error line shown.....\n   *************   1843   Schedule:Week:Daily {bae69dc8-4d71-492c-8daf-1cd5523a5c50}, !- Name\n   *************   1844   Sp-Corner_Class_1_Pod_1_ZN_1_FLR_1 Sys-3 Flr-1 Sch-D HPlcmt-south ZN NECB System 3 PSZ Occ Sch Sunday, !- Sunday Schedule:Day Name\n   ** Warning ** IP: IDF line~1844 Alpha Argument length exceeds maximum, will be truncated=  Sp-Corner_Class_1_Pod_1_ZN_1_FLR_1 Sys-3 Flr-1 Sch-D HPlcmt-south ZN NECB System 3 PSZ Occ Sch Sunda\n   **   ~~~   ** Will be processed as Alpha=SP-CORNER_CLASS_1_POD_1_ZN_1_FLR_1 SYS-3 FLR-1 SCH-D HPLCMT-SOUTH ZN NECB SYSTEM 3 PSZ OCC SCH SUNDAY\n   ************* IDF Context for following error/warning message:\n   ************* Note -- lines truncated at 300 characters, if necessary...\n   *************   1842 Schedule:Week:Daily,\n   ************* indicated Name=Schedule:Week:Daily {bae69dc8-4d71-492c-8daf-1cd5523a5c50}\n   ************* Only last 3 lines before error line shown.....\n   *************   1843   Schedule:Week:Daily {bae69dc8-4d71-492c-8daf-1cd5523a5c50}, !- Name\n   *************   1844   Sp-Corner_Class_1_Pod_1_ZN_1_FLR_1 Sys-3 Flr-1 Sch-D HPlcmt-south ZN NECB System 3 PSZ Occ Sch Sunday, !- Sunday Schedule:Day Name\n   *************   1845   Sp-Corner_Class_1_Pod_1_ZN_1_FLR_1 Sys-3 Flr-1 Sch-D HPlcmt-south ZN NECB System 3 PSZ Occ Sch Monday, !- Monday Schedule:Day Name\n   ** Warning ** IP: IDF line~1845 Alpha Argument length exceeds maximum, will be truncated=  Sp-Corner_Class_1_Pod_1_ZN_1_FLR_1 Sys-3 Flr-1 Sch-D HPlcmt-south ZN NECB System 3 PSZ Occ Sch Monda\n   **   ~~~   ** Will be processed as Alpha=SP-CORNER_CLASS_1_POD_1_ZN_1_FLR_1 SYS-3 FLR-1 SCH-D HPLCMT-SOUTH ZN NECB SYSTEM 3 PSZ OCC SCH MONDAY\n   ************* IDF Context for following error/warning message:\n   ************* Note -- lines truncated at 300 characters, if necessary...\n   *************   1842 Schedule:Week:Daily,\n   ************* indicated Name=Schedule:Week:Daily {bae69dc8-4d71-492c-8daf-1cd5523a5c50}\n   ************* Only last 4 lines before error line shown.....\n   *************   1843   Schedule:Week:Daily {bae69dc8-4d71-492c-8daf-1cd5523a5c50}, !- Name\n   *************   1844   Sp-Corner_Class_1_Pod_1_ZN_1_FLR_1 Sys-3 Flr-1 Sch-D HPlcmt-south ZN NECB System 3 PSZ Occ Sch Sunday, !- Sunday Schedule:Day Name\n   *************   1845   Sp-Corner_Class_1_Pod_1_ZN_1_FLR_1 Sys-3 Flr-1 Sch-D HPlcmt-south ZN NECB System 3 PSZ Occ Sch Monday, !- Monday Schedule:Day Name\n   *************   1846   Sp-Corner_Class_1_Pod_1_ZN_1_FLR_1 Sys-3 Flr-1 Sch-D HPlcmt-south ZN NECB System 3 PSZ Occ Sch Tuesday, !- Tuesday Schedule:Day Name\n   ** Warning ** IP: IDF line~1846 Alpha Argument length exceeds maximum, will be truncated=  Sp-Corner_Class_1_Pod_1_ZN_1_FLR_1 Sys-3 Flr-1 Sch-D HPlcmt-south ZN NECB System 3 PSZ Occ Sch Tuesda\n   **   ~~~   ** Will be processed as Alpha=SP-CORNER_CLASS_1_POD_1_ZN_1_FLR_1 SYS-3 FLR-1 SCH-D HPLCMT-SOUTH ZN NECB SYSTEM 3 PSZ OCC SCH TUESDAY\n   ************* IDF Context for following error/warning message:\n   ************* Note -- lines truncated at 300 characters, if necessary...\n   *************   1842 Schedule:Week:Daily,\n   ************* indicated Name=Schedule:Week:Daily {bae69dc8-4d71-492c-8daf-1cd5523a5c50}\n   ************* Only last 5 lines before error line shown.....\n   *************   1843   Schedule:Week:Daily {bae69dc8-4d71-492c-8daf-1cd5523a5c50}, !- Name\n   *************   1844   Sp-Corner_Class_1_Pod_1_ZN_1_FLR_1 Sys-3 Flr-1 Sch-D HPlcmt-south ZN NECB System 3 PSZ Occ Sch Sunday, !- Sunday Schedule:Day Name\n   *************   1845   Sp-Corner_Class_1_Pod_1_ZN_1_FLR_1 Sys-3 Flr-1 Sch-D HPlcmt-south ZN NECB System 3 PSZ Occ Sch Monday, !- Monday Schedule:Day Name\n   *************   1846   Sp-Corner_Class_1_Pod_1_ZN_1_FLR_1 Sys-3 Flr-1 Sch-D HPlcmt-south ZN NECB System 3 PSZ Occ Sch Tuesday, !- Tuesday Schedule:Day Name\n   *************   1847   Sp-Corner_Class_1_Pod_1_ZN_1_FLR_1 Sys-3 Flr-1 Sch-D HPlcmt-south ZN NECB System 3 PSZ Occ Sch Wednesday, !- Wednesday Schedule:Day Name\n   ** Warning ** IP: IDF line~1847 Alpha Argument length exceeds maximum, will be truncated=  Sp-Corner_Class_1_Pod_1_ZN_1_FLR_1 Sys-3 Flr-1 Sch-D HPlcmt-south ZN NECB System 3 PSZ Occ Sch Wednesda\n   **   ~~~   ** Will be processed as Alpha=SP-CORNER_CLASS_1_POD_1_ZN_1_FLR_1 SYS-3 FLR-1 SCH-D HPLCMT-SOUTH ZN NECB SYSTEM 3 PSZ OCC SCH WEDNESDAY\n   ************* IDF Context for following error/warning message:\n   ************* Note -- lines truncated at 300 characters, if necessary...\n   *************   1842 Schedule:Week:Daily,\n   ************* indicated Name=Schedule:Week:Daily {bae69dc8-4d71-492c-8daf-1cd5523a5c50}\n   ************* Only last 6 lines before error line shown.....\n   *************   1843   Schedule:Week:Daily {bae69dc8-4d71-492c-8daf-1cd5523a5c50}, !- Name\n   *************   1844   Sp-Corner_Class_1_Pod_1_ZN_1_FLR_1 Sys-3 Flr-1 Sch-D HPlcmt-south ZN NECB System 3 PSZ Occ Sch Sunday, !- Sunday Schedule:Day Name\n   *************   1845   Sp-Corner_Class_1_Pod_1_ZN_1_FLR_1 Sys-3 Flr-1 Sch-D HPlcmt-south ZN NECB System 3 PSZ Occ Sch Monday, !- Monday Schedule:Day Name\n   *************   1846   Sp-Corner_Class_1_Pod_1_ZN_1_FLR_1 Sys-3 Flr-1 Sch-D HPlcmt-south ZN NECB System 3 PSZ Occ Sch Tuesday, !- Tuesday Schedule:Day Name\n   *************   1847   Sp-Corner_Class_1_Pod_1_ZN_1_FLR_1 Sys-3 Flr-1 Sch-D HPlcmt-south ZN NECB System 3 PSZ Occ Sch Wednesday, !- Wednesday Schedule:Day Name\n   *************   1848   Sp-Corner_Class_1_Pod_1_ZN_1_FLR_1 Sys-3 Flr-1 Sch-D HPlcmt-south ZN NECB System 3 PSZ Occ Sch Thursday, !- Thursday Schedule:Day Name\n   ** Warning ** IP: IDF line~1848 Alpha Argument length exceeds maximum, will be truncated=  Sp-Corner_Class_1_Pod_1_ZN_1_FLR_1 Sys-3 Flr-1 Sch-D HPlcmt-south ZN NECB System 3 PSZ Occ Sch Thursda\n   **   ~~~   ** Will be processed as Alpha=SP-CORNER_CLASS_1_POD_1_ZN_1_FLR_1 SYS-3 FLR-1 SCH-D HPLCMT-SOUTH ZN NECB SYSTEM 3 PSZ OCC SCH THURSDAY\n   ************* IDF Context for following error/warning message:\n   ************* Note -- lines truncated at 300 characters, if necessary...\n   *************   1842 Schedule:Week:Daily,\n   ************* indicated Name=Schedule:Week:Daily {bae69dc8-4d71-492c-8daf-1cd5523a5c50}\n   ************* Only last 7 lines before error line shown.....\n   *************   1843   Schedule:Week:Daily {bae69dc8-4d71-492c-8daf-1cd5523a5c50}, !- Name\n   *************   1844   Sp-Corner_Class_1_Pod_1_ZN_1_FLR_1 Sys-3 Flr-1 Sch-D HPlcmt-south ZN NECB System 3 PSZ Occ Sch Sunday, !- Sunday Schedule:Day Name\n   *************   1845   Sp-Corner_Class_1_Pod_1_ZN_1_FLR_1 Sys-3 Flr-1 Sch-D HPlcmt-south ZN NECB System 3 PSZ Occ Sch Monday, !- Monday Schedule:Day Name\n   *************   1846   Sp-Corner_Class_1_Pod_1_ZN_1_FLR_1 Sys-3 Flr-1 Sch-D HPlcmt-south ZN NECB System 3 PSZ Occ Sch Tuesday, !- Tuesday Schedule:Day Name\n   *************   1847   Sp-Corner_Class_1_Pod_1_ZN_1_FLR_1 Sys-3 Flr-1 Sch-D HPlcmt-south ZN NECB System 3 PSZ Occ Sch Wednesday, !- Wednesday Schedule:Day Name\n   *************   1848   Sp-Corner_Class_1_Pod_1_ZN_1_FLR_1 Sys-3 Flr-1 Sch-D HPlcmt-south ZN NECB System 3 PSZ Occ Sch Thursday, !- Thursday Schedule:Day Name\n   *************   1849   Sp-Corner_Class_1_Pod_1_ZN_1_FLR_1 Sys-3 Flr-1 Sch-D HPlcmt-south ZN NECB System 3 PSZ Occ Sch Friday, !- Friday Schedule:Day Name\n   ** Warning ** IP: IDF line~1849 Alpha Argument length exceeds maximum, will be truncated=  Sp-Corner_Class_1_Pod_1_ZN_1_FLR_1 Sys-3 Flr-1 Sch-D HPlcmt-south ZN NECB System 3 PSZ Occ Sch Frida\n   **   ~~~   ** Will be processed as Alpha=SP-CORNER_CLASS_1_POD_1_ZN_1_FLR_1 SYS-3 FLR-1 SCH-D HPLCMT-SOUTH ZN NECB SYSTEM 3 PSZ OCC SCH FRIDAY\n   ************* IDF Context for following error/warning message:\n   ************* Note -- lines truncated at 300 characters, if necessary...\n   *************   1842 Schedule:Week:Daily,\n   ************* indicated Name=Schedule:Week:Daily {bae69dc8-4d71-492c-8daf-1cd5523a5c50}\n   ************* Only last 8 lines before error line shown.....\n   *************   1843   Schedule:Week:Daily {bae69dc8-4d71-492c-8daf-1cd5523a5c50}, !- Name\n   *************   1844   Sp-Corner_Class_1_Pod_1_ZN_1_FLR_1 Sys-3 Flr-1 Sch-D HPlcmt-south ZN NECB System 3 PSZ Occ Sch Sunday, !- Sunday Schedule:Day Name\n   *************   1845   Sp-Corner_Class_1_Pod_1_ZN_1_FLR_1 Sys-3 Flr-1 Sch-D HPlcmt-south ZN NECB System 3 PSZ Occ Sch Monday, !- Monday Schedule:Day Name\n   *************   1846   Sp-Corner_Class_1_Pod_1_ZN_1_FLR_1 Sys-3 Flr-1 Sch-D HPlcmt-south ZN NECB System 3 PSZ Occ Sch Tuesday, !- Tuesday Schedule:Day Name\n   *************   1847   Sp-Corner_Class_1_Pod_1_ZN_1_FLR_1 Sys-3 Flr-1 Sch-D HPlcmt-south ZN NECB System 3 PSZ Occ Sch Wednesday, !- Wednesday Schedule:Day Name\n   *************   1848   Sp-Corner_Class_1_Pod_1_ZN_1_FLR_1 Sys-3 Flr-1 Sch-D HPlcmt-south ZN NECB System 3 PSZ Occ Sch Thursday, !- Thursday Schedule:Day Name\n   *************   1849   Sp-Corner_Class_1_Pod_1_ZN_1_FLR_1 Sys-3 Flr-1 Sch-D HPlcmt-south ZN NECB System 3 PSZ Occ Sch Friday, !- Friday Schedule:Day Name\n   *************   1850   Sp-Corner_Class_1_Pod_1_ZN_1_FLR_1 Sys-3 Flr-1 Sch-D HPlcmt-south ZN NECB System 3 PSZ Occ Sch Saturday, !- Saturday Schedule:Day Name\n   ** Warning ** IP: IDF line~1850 Alpha Argument length exceeds maximum, will be truncated=  Sp-Corner_Class_1_Pod_1_ZN_1_FLR_1 Sys-3 Flr-1 Sch-D HPlcmt-south ZN NECB System 3 PSZ Occ Sch Saturda\n   **   ~~~   ** Will be processed as Alpha=SP-CORNER_CLASS_1_POD_1_ZN_1_FLR_1 SYS-3 FLR-1 SCH-D HPLCMT-SOUTH ZN NECB SYSTEM 3 PSZ OCC SCH SATURDAY\n   ************* IDF Context for following error/warning message:\n   ************* Note -- lines truncated at 300 characters, if necessary...\n   *************   1842 Schedule:Week:Daily,\n   ************* indicated Name=Schedule:Week:Daily {bae69dc8-4d71-492c-8daf-1cd5523a5c50}\n   ************* Only last 9 lines before error line shown.....\n   *************   1843   Schedule:Week:Daily {bae69dc8-4d71-492c-8daf-1cd5523a5c50}, !- Name\n   *************   1844   Sp-Corner_Class_1_Pod_1_ZN_1_FLR_1 Sys-3 Flr-1 Sch-D HPlcmt-south ZN NECB System 3 PSZ Occ Sch Sunday, !- Sunday Schedule:Day Name\n   *************   1845   Sp-Corner_Class_1_Pod_1_ZN_1_FLR_1 Sys-3 Flr-1 Sch-D HPlcmt-south ZN NECB System 3 PSZ Occ Sch Monday, !- Monday Schedule:Day Name\n   *************   1846   Sp-Corner_Class_1_Pod_1_ZN_1_FLR_1 Sys-3 Flr-1 Sch-D HPlcmt-south ZN NECB System 3 PSZ Occ Sch Tuesday, !- Tuesday Schedule:Day Name\n   *************   1847   Sp-Corner_Class_1_Pod_1_ZN_1_FLR_1 Sys-3 Flr-1 Sch-D HPlcmt-south ZN NECB System 3 PSZ Occ Sch Wednesday, !- Wednesday Schedule:Day Name\n   *************   1848   Sp-Corner_Class_1_Pod_1_ZN_1_FLR_1 Sys-3 Flr-1 Sch-D HPlcmt-south ZN NECB System 3 PSZ Occ Sch Thursday, !- Thursday Schedule:Day Name\n   *************   1849   Sp-Corner_Class_1_Pod_1_ZN_1_FLR_1 Sys-3 Flr-1 Sch-D HPlcmt-south ZN NECB System 3 PSZ Occ Sch Friday, !- Friday Schedule:Day Name\n   *************   1850   Sp-Corner_Class_1_Pod_1_ZN_1_FLR_1 Sys-3 Flr-1 Sch-D HPlcmt-south ZN NECB System 3 PSZ Occ Sch Saturday, !- Saturday Schedule:Day Name\n   *************   1851   Sp-Corner_Class_1_Pod_1_ZN_1_FLR_1 Sys-3 Flr-1 Sch-D HPlcmt-south ZN NECB System 3 PSZ Occ Sch Default, !- Holiday Schedule:Day Name\n   ** Warning ** IP: IDF line~1851 Alpha Argument length exceeds maximum, will be truncated=  Sp-Corner_Class_1_Pod_1_ZN_1_FLR_1 Sys-3 Flr-1 Sch-D HPlcmt-south ZN NECB System 3 PSZ Occ Sch Defaul\n   **   ~~~   ** Will be processed as Alpha=SP-CORNER_CLASS_1_POD_1_ZN_1_FLR_1 SYS-3 FLR-1 SCH-D HPLCMT-SOUTH ZN NECB SYSTEM 3 PSZ OCC SCH DEFAULT\n   ************* IDF Context for following error/warning message:\n   ************* Note -- lines truncated at 300 characters, if necessary...\n   *************   1842 Schedule:Week:Daily,\n   ************* indicated Name=Schedule:Week:Daily {bae69dc8-4d71-492c-8daf-1cd5523a5c50}\n   ************* Only last 10 lines before error line shown.....\n   *************   1843   Schedule:Week:Daily {bae69dc8-4d71-492c-8daf-1cd5523a5c50}, !- Name\n   *************   1844   Sp-Corner_Class_1_Pod_1_ZN_1_FLR_1 Sys-3 Flr-1 Sch-D HPlcmt-south ZN NECB System 3 PSZ Occ Sch Sunday, !- Sunday Schedule:Day Name\n   *************   1845   Sp-Corner_Class_1_Pod_1_ZN_1_FLR_1 Sys-3 Flr-1 Sch-D HPlcmt-south ZN NECB System 3 PSZ Occ Sch Monday, !- Monday Schedule:Day Name\n   *************   1846   Sp-Corner_Class_1_Pod_1_ZN_1_FLR_1 Sys-3 Flr-1 Sch-D HPlcmt-south ZN NECB System 3 PSZ Occ Sch Tuesday, !- Tuesday Schedule:Day Name\n   *************   1847   Sp-Corner_Class_1_Pod_1_ZN_1_FLR_1 Sys-3 Flr-1 Sch-D HPlcmt-south ZN NECB System 3 PSZ Occ Sch Wednesday, !- Wednesday Schedule:Day Name\n   *************   1848   Sp-Corner_Class_1_Pod_1_ZN_1_FLR_1 Sys-3 Flr-1 Sch-D HPlcmt-south ZN NECB System 3 PSZ Occ Sch Thursday, !- Thursday Schedule:Day Name\n   *************   1849   Sp-Corner_Class_1_Pod_1_ZN_1_FLR_1 Sys-3 Flr-1 Sch-D HPlcmt-south ZN NECB System 3 PSZ Occ Sch Friday, !- Friday Schedule:Day Name\n   *************   1850   Sp-Corner_Class_1_Pod_1_ZN_1_FLR_1 Sys-3 Flr-1 Sch-D HPlcmt-south ZN NECB System 3 PSZ Occ Sch Saturday, !- Saturday Schedule:Day Name\n   *************   1851   Sp-Corner_Class_1_Pod_1_ZN_1_FLR_1 Sys-3 Flr-1 Sch-D HPlcmt-south ZN NECB System 3 PSZ Occ Sch Default, !- Holiday Schedule:Day Name\n   *************   1852   Sp-Corner_Class_1_Pod_1_ZN_1_FLR_1 Sys-3 Flr-1 Sch-D HPlcmt-south ZN NECB System 3 PSZ Occ Sch Summer Design Day, !- SummerDesignDay Schedule:Day Name\n   ** Warning ** IP: IDF line~1852 Alpha Argument length exceeds maximum, will be truncated=  Sp-Corner_Class_1_Pod_1_ZN_1_FLR_1 Sys-3 Flr-1 Sch-D HPlcmt-south ZN NECB System 3 PSZ Occ Sch Summer Design Da\n   **   ~~~   ** Will be processed as Alpha=SP-CORNER_CLASS_1_POD_1_ZN_1_FLR_1 SYS-3 FLR-1 SCH-D HPLCMT-SOUTH ZN NECB SYSTEM 3 PSZ OCC SCH SUMMER DESIGN DAY\n   ************* IDF Context for following error/warning message:\n   ************* Note -- lines truncated at 300 characters, if necessary...\n   *************   1842 Schedule:Week:Daily,\n   ************* indicated Name=Schedule:Week:Daily {bae69dc8-4d71-492c-8daf-1cd5523a5c50}\n   ************* Only last 10 lines before error line shown.....\n   *************   1844   Sp-Corner_Class_1_Pod_1_ZN_1_FLR_1 Sys-3 Flr-1 Sch-D HPlcmt-south ZN NECB System 3 PSZ Occ Sch Sunday, !- Sunday Schedule:Day Name\n   *************   1845   Sp-Corner_Class_1_Pod_1_ZN_1_FLR_1 Sys-3 Flr-1 Sch-D HPlcmt-south ZN NECB System 3 PSZ Occ Sch Monday, !- Monday Schedule:Day Name\n   *************   1846   Sp-Corner_Class_1_Pod_1_ZN_1_FLR_1 Sys-3 Flr-1 Sch-D HPlcmt-south ZN NECB System 3 PSZ Occ Sch Tuesday, !- Tuesday Schedule:Day Name\n   *************   1847   Sp-Corner_Class_1_Pod_1_ZN_1_FLR_1 Sys-3 Flr-1 Sch-D HPlcmt-south ZN NECB System 3 PSZ Occ Sch Wednesday, !- Wednesday Schedule:Day Name\n   *************   1848   Sp-Corner_Class_1_Pod_1_ZN_1_FLR_1 Sys-3 Flr-1 Sch-D HPlcmt-south ZN NECB System 3 PSZ Occ Sch Thursday, !- Thursday Schedule:Day Name\n   *************   1849   Sp-Corner_Class_1_Pod_1_ZN_1_FLR_1 Sys-3 Flr-1 Sch-D HPlcmt-south ZN NECB System 3 PSZ Occ Sch Friday, !- Friday Schedule:Day Name\n   *************   1850   Sp-Corner_Class_1_Pod_1_ZN_1_FLR_1 Sys-3 Flr-1 Sch-D HPlcmt-south ZN NECB System 3 PSZ Occ Sch Saturday, !- Saturday Schedule:Day Name\n   *************   1851   Sp-Corner_Class_1_Pod_1_ZN_1_FLR_1 Sys-3 Flr-1 Sch-D HPlcmt-south ZN NECB System 3 PSZ Occ Sch Default, !- Holiday Schedule:Day Name\n   *************   1852   Sp-Corner_Class_1_Pod_1_ZN_1_FLR_1 Sys-3 Flr-1 Sch-D HPlcmt-south ZN NECB System 3 PSZ Occ Sch Summer Design Day, !- SummerDesignDay Schedule:Day Name\n   *************   1853   Sp-Corner_Class_1_Pod_1_ZN_1_FLR_1 Sys-3 Flr-1 Sch-D HPlcmt-south ZN NECB System 3 PSZ Occ Sch Winter Design Day, !- WinterDesignDay Schedule:Day Name\n   ** Warning ** IP: IDF line~1853 Alpha Argument length exceeds maximum, will be truncated=  Sp-Corner_Class_1_Pod_1_ZN_1_FLR_1 Sys-3 Flr-1 Sch-D HPlcmt-south ZN NECB System 3 PSZ Occ Sch Winter Design Da\n   **   ~~~   ** Will be processed as Alpha=SP-CORNER_CLASS_1_POD_1_ZN_1_FLR_1 SYS-3 FLR-1 SCH-D HPLCMT-SOUTH ZN NECB SYSTEM 3 PSZ OCC SCH WINTER DESIGN DAY\n   ************* IDF Context for following error/warning message:\n   ************* Note -- lines truncated at 300 characters, if necessary...\n   *************   1842 Schedule:Week:Daily,\n   ************* indicated Name=Schedule:Week:Daily {bae69dc8-4d71-492c-8daf-1cd5523a5c50}\n   ************* Only last 10 lines before error line shown.....\n   *************   1845   Sp-Corner_Class_1_Pod_1_ZN_1_FLR_1 Sys-3 Flr-1 Sch-D HPlcmt-south ZN NECB System 3 PSZ Occ Sch Monday, !- Monday Schedule:Day Name\n   *************   1846   Sp-Corner_Class_1_Pod_1_ZN_1_FLR_1 Sys-3 Flr-1 Sch-D HPlcmt-south ZN NECB System 3 PSZ Occ Sch Tuesday, !- Tuesday Schedule:Day Name\n   *************   1847   Sp-Corner_Class_1_Pod_1_ZN_1_FLR_1 Sys-3 Flr-1 Sch-D HPlcmt-south ZN NECB System 3 PSZ Occ Sch Wednesday, !- Wednesday Schedule:Day Name\n   *************   1848   Sp-Corner_Class_1_Pod_1_ZN_1_FLR_1 Sys-3 Flr-1 Sch-D HPlcmt-south ZN NECB System 3 PSZ Occ Sch Thursday, !- Thursday Schedule:Day Name\n   *************   1849   Sp-Corner_Class_1_Pod_1_ZN_1_FLR_1 Sys-3 Flr-1 Sch-D HPlcmt-south ZN NECB System 3 PSZ Occ Sch Friday, !- Friday Schedule:Day Name\n   *************   1850   Sp-Corner_Class_1_Pod_1_ZN_1_FLR_1 Sys-3 Flr-1 Sch-D HPlcmt-south ZN NECB System 3 PSZ Occ Sch Saturday, !- Saturday Schedule:Day Name\n   *************   1851   Sp-Corner_Class_1_Pod_1_ZN_1_FLR_1 Sys-3 Flr-1 Sch-D HPlcmt-south ZN NECB System 3 PSZ Occ Sch Default, !- Holiday Schedule:Day Name\n   *************   1852   Sp-Corner_Class_1_Pod_1_ZN_1_FLR_1 Sys-3 Flr-1 Sch-D HPlcmt-south ZN NECB System 3 PSZ Occ Sch Summer Design Day, !- SummerDesignDay Schedule:Day Name\n   *************   1853   Sp-Corner_Class_1_Pod_1_ZN_1_FLR_1 Sys-3 Flr-1 Sch-D HPlcmt-south ZN NECB System 3 PSZ Occ Sch Winter Design Day, !- WinterDesignDay Schedule:Day Name\n   *************   1854   Sp-Corner_Class_1_Pod_1_ZN_1_FLR_1 Sys-3 Flr-1 Sch-D HPlcmt-south ZN NECB System 3 PSZ Occ Sch Default, !- CustomDay1 Schedule:Day Name\n   ** Warning ** IP: IDF line~1854 Alpha Argument length exceeds maximum, will be truncated=  Sp-Corner_Class_1_Pod_1_ZN_1_FLR_1 Sys-3 Flr-1 Sch-D HPlcmt-south ZN NECB System 3 PSZ Occ Sch Defaul\n   **   ~~~   ** Will be processed as Alpha=SP-CORNER_CLASS_1_POD_1_ZN_1_FLR_1 SYS-3 FLR-1 SCH-D HPLCMT-SOUTH ZN NECB SYSTEM 3 PSZ OCC SCH DEFAULT\n   ************* IDF Context for following error/warning message:\n   ************* Note -- lines truncated at 300 characters, if necessary...\n   *************   1842 Schedule:Week:Daily,\n   ************* indicated Name=Schedule:Week:Daily {bae69dc8-4d71-492c-8daf-1cd5523a5c50}\n   ************* Only last 10 lines before error line shown.....\n   *************   1846   Sp-Corner_Class_1_Pod_1_ZN_1_FLR_1 Sys-3 Flr-1 Sch-D HPlcmt-south ZN NECB System 3 PSZ Occ Sch Tuesday, !- Tuesday Schedule:Day Name\n   *************   1847   Sp-Corner_Class_1_Pod_1_ZN_1_FLR_1 Sys-3 Flr-1 Sch-D HPlcmt-south ZN NECB System 3 PSZ Occ Sch Wednesday, !- Wednesday Schedule:Day Name\n   *************   1848   Sp-Corner_Class_1_Pod_1_ZN_1_FLR_1 Sys-3 Flr-1 Sch-D HPlcmt-south ZN NECB System 3 PSZ Occ Sch Thursday, !- Thursday Schedule:Day Name\n   *************   1849   Sp-Corner_Class_1_Pod_1_ZN_1_FLR_1 Sys-3 Flr-1 Sch-D HPlcmt-south ZN NECB System 3 PSZ Occ Sch Friday, !- Friday Schedule:Day Name\n   *************   1850   Sp-Corner_Class_1_Pod_1_ZN_1_FLR_1 Sys-3 Flr-1 Sch-D HPlcmt-south ZN NECB System 3 PSZ Occ Sch Saturday, !- Saturday Schedule:Day Name\n   *************   1851   Sp-Corner_Class_1_Pod_1_ZN_1_FLR_1 Sys-3 Flr-1 Sch-D HPlcmt-south ZN NECB System 3 PSZ Occ Sch Default, !- Holiday Schedule:Day Name\n   *************   1852   Sp-Corner_Class_1_Pod_1_ZN_1_FLR_1 Sys-3 Flr-1 Sch-D HPlcmt-south ZN NECB System 3 PSZ Occ Sch Summer Design Day, !- SummerDesignDay Schedule:Day Name\n   *************   1853   Sp-Corner_Class_1_Pod_1_ZN_1_FLR_1 Sys-3 Flr-1 Sch-D HPlcmt-south ZN NECB System 3 PSZ Occ Sch Winter Design Day, !- WinterDesignDay Schedule:Day Name\n   *************   1854   Sp-Corner_Class_1_Pod_1_ZN_1_FLR_1 Sys-3 Flr-1 Sch-D HPlcmt-south ZN NECB System 3 PSZ Occ Sch Default, !- CustomDay1 Schedule:Day Name\n   *************   1855   Sp-Corner_Class_1_Pod_1_ZN_1_FLR_1 Sys-3 Flr-1 Sch-D HPlcmt-south ZN NECB System 3 PSZ Occ Sch Default; !- CustomDay2 Schedule:Day Name\n   ** Warning ** IP: IDF line~1855 Alpha Argument length exceeds maximum, will be truncated=  Sp-Corner_Class_1_Pod_1_ZN_1_FLR_1 Sys-3 Flr-1 Sch-D HPlcmt-south ZN NECB System 3 PSZ Occ Sch Defaul\n   **   ~~~   ** Will be processed as Alpha=SP-CORNER_CLASS_1_POD_1_ZN_1_FLR_1 SYS-3 FLR-1 SCH-D HPLCMT-SOUTH ZN NECB SYSTEM 3 PSZ OCC SCH DEFAULT\n   ************* IDF Context for following error/warning message:\n   ************* Note -- lines truncated at 300 characters, if necessary...\n   *************   1866 Schedule:Day:Interval,\n   ************* indicated Name=Sp-Corner_Class_1_Pod_1_ZN_1_FLR_1 Sys-3 Flr-1 Sch-D HPlcmt-south ZN NECB System 3 PSZ Occ Sch Default\n   ************* Only last 1 lines before error line shown.....\n   *************   1867   Sp-Corner_Class_1_Pod_1_ZN_1_FLR_1 Sys-3 Flr-1 Sch-D HPlcmt-south ZN NECB System 3 PSZ Occ Sch Default, !- Name\n   ** Warning ** IP: IDF line~1867 Alpha Argument length exceeds maximum, will be truncated=  Sp-Corner_Class_1_Pod_1_ZN_1_FLR_1 Sys-3 Flr-1 Sch-D HPlcmt-south ZN NECB System 3 PSZ Occ Sch Defaul\n   **   ~~~   ** Will be processed as Alpha=SP-CORNER_CLASS_1_POD_1_ZN_1_FLR_1 SYS-3 FLR-1 SCH-D HPLCMT-SOUTH ZN NECB SYSTEM 3 PSZ OCC SCH DEFAULT\n   ************* IDF Context for following error/warning message:\n   ************* Note -- lines truncated at 300 characters, if necessary...\n   *************   1873 Schedule:Day:Interval,\n   ************* indicated Name=Sp-Corner_Class_1_Pod_1_ZN_1_FLR_1 Sys-3 Flr-1 Sch-D HPlcmt-south ZN NECB System 3 PSZ Occ Sch Summer Design Day\n   ************* Only last 1 lines before error line shown.....\n   *************   1874   Sp-Corner_Class_1_Pod_1_ZN_1_FLR_1 Sys-3 Flr-1 Sch-D HPlcmt-south ZN NECB System 3 PSZ Occ Sch Summer Design Day, !- Name\n   ** Warning ** IP: IDF line~1874 Alpha Argument length exceeds maximum, will be truncated=  Sp-Corner_Class_1_Pod_1_ZN_1_FLR_1 Sys-3 Flr-1 Sch-D HPlcmt-south ZN NECB System 3 PSZ Occ Sch Summer Design Da\n   **   ~~~   ** Will be processed as Alpha=SP-CORNER_CLASS_1_POD_1_ZN_1_FLR_1 SYS-3 FLR-1 SCH-D HPLCMT-SOUTH ZN NECB SYSTEM 3 PSZ OCC SCH SUMMER DESIGN DAY\n   ************* IDF Context for following error/warning message:\n   ************* Note -- lines truncated at 300 characters, if necessary...\n   *************   1880 Schedule:Day:Interval,\n   ************* indicated Name=Sp-Corner_Class_1_Pod_1_ZN_1_FLR_1 Sys-3 Flr-1 Sch-D HPlcmt-south ZN NECB System 3 PSZ Occ Sch Winter Design Day\n   ************* Only last 1 lines before error line shown.....\n   *************   1881   Sp-Corner_Class_1_Pod_1_ZN_1_FLR_1 Sys-3 Flr-1 Sch-D HPlcmt-south ZN NECB System 3 PSZ Occ Sch Winter Design Day, !- Name\n   ** Warning ** IP: IDF line~1881 Alpha Argument length exceeds maximum, will be truncated=  Sp-Corner_Class_1_Pod_1_ZN_1_FLR_1 Sys-3 Flr-1 Sch-D HPlcmt-south ZN NECB System 3 PSZ Occ Sch Winter Design Da\n   **   ~~~   ** Will be processed as Alpha=SP-CORNER_CLASS_1_POD_1_ZN_1_FLR_1 SYS-3 FLR-1 SCH-D HPLCMT-SOUTH ZN NECB SYSTEM 3 PSZ OCC SCH WINTER DESIGN DAY\n   ************* IDF Context for following error/warning message:\n   ************* Note -- lines truncated at 300 characters, if necessary...\n   *************   2149 Schedule:Day:Interval,\n   ************* indicated Name=Sp-Corner_Class_1_Pod_2_ZN_1_FLR_1 Sys-3 Flr-1 Sch-D HPlcmt-south ZN NECB System 3 PSZ Occ Sch Sunday\n   ************* Only last 1 lines before error line shown.....\n   *************   2150   Sp-Corner_Class_1_Pod_2_ZN_1_FLR_1 Sys-3 Flr-1 Sch-D HPlcmt-south ZN NECB System 3 PSZ Occ Sch Sunday, !- Name\n   ** Warning ** IP: IDF line~2150 Alpha Argument length exceeds maximum, will be truncated=  Sp-Corner_Class_1_Pod_2_ZN_1_FLR_1 Sys-3 Flr-1 Sch-D HPlcmt-south ZN NECB System 3 PSZ Occ Sch Sunda\n   **   ~~~   ** Will be processed as Alpha=SP-CORNER_CLASS_1_POD_2_ZN_1_FLR_1 SYS-3 FLR-1 SCH-D HPLCMT-SOUTH ZN NECB SYSTEM 3 PSZ OCC SCH SUNDAY\n   ************* IDF Context for following error/warning message:\n   ************* Note -- lines truncated at 300 characters, if necessary...\n   *************   2156 Schedule:Day:Interval,\n   ************* indicated Name=Sp-Corner_Class_1_Pod_2_ZN_1_FLR_1 Sys-3 Flr-1 Sch-D HPlcmt-south ZN NECB System 3 PSZ Occ Sch Monday\n   ************* Only last 1 lines before error line shown.....\n   *************   2157   Sp-Corner_Class_1_Pod_2_ZN_1_FLR_1 Sys-3 Flr-1 Sch-D HPlcmt-south ZN NECB System 3 PSZ Occ Sch Monday, !- Name\n   ** Warning ** IP: IDF line~2157 Alpha Argument length exceeds maximum, will be truncated=  Sp-Corner_Class_1_Pod_2_ZN_1_FLR_1 Sys-3 Flr-1 Sch-D HPlcmt-south ZN NECB System 3 PSZ Occ Sch Monda\n   **   ~~~   ** Will be processed as Alpha=SP-CORNER_CLASS_1_POD_2_ZN_1_FLR_1 SYS-3 FLR-1 SCH-D HPLCMT-SOUTH ZN NECB SYSTEM 3 PSZ OCC SCH MONDAY\n   ************* IDF Context for following error/warning message:\n   ************* Note -- lines truncated at 300 characters, if necessary...\n   *************   2171 Schedule:Day:Interval,\n   ************* indicated Name=Sp-Corner_Class_1_Pod_2_ZN_1_FLR_1 Sys-3 Flr-1 Sch-D HPlcmt-south ZN NECB System 3 PSZ Occ Sch Tuesday\n   ************* Only last 1 lines before error line shown.....\n   *************   2172   Sp-Corner_Class_1_Pod_2_ZN_1_FLR_1 Sys-3 Flr-1 Sch-D HPlcmt-south ZN NECB System 3 PSZ Occ Sch Tuesday, !- Name\n   ** Warning ** IP: IDF line~2172 Alpha Argument length exceeds maximum, will be truncated=  Sp-Corner_Class_1_Pod_2_ZN_1_FLR_1 Sys-3 Flr-1 Sch-D HPlcmt-south ZN NECB System 3 PSZ Occ Sch Tuesda\n   **   ~~~   ** Will be processed as Alpha=SP-CORNER_CLASS_1_POD_2_ZN_1_FLR_1 SYS-3 FLR-1 SCH-D HPLCMT-SOUTH ZN NECB SYSTEM 3 PSZ OCC SCH TUESDAY\n   ************* IDF Context for following error/warning message:\n   ************* Note -- lines truncated at 300 characters, if necessary...\n   *************   2186 Schedule:Day:Interval,\n   ************* indicated Name=Sp-Corner_Class_1_Pod_2_ZN_1_FLR_1 Sys-3 Flr-1 Sch-D HPlcmt-south ZN NECB System 3 PSZ Occ Sch Wednesday\n   ************* Only last 1 lines before error line shown.....\n   *************   2187   Sp-Corner_Class_1_Pod_2_ZN_1_FLR_1 Sys-3 Flr-1 Sch-D HPlcmt-south ZN NECB System 3 PSZ Occ Sch Wednesday, !- Name\n   ** Warning ** IP: IDF line~2187 Alpha Argument length exceeds maximum, will be truncated=  Sp-Corner_Class_1_Pod_2_ZN_1_FLR_1 Sys-3 Flr-1 Sch-D HPlcmt-south ZN NECB System 3 PSZ Occ Sch Wednesda\n   **   ~~~   ** Will be processed as Alpha=SP-CORNER_CLASS_1_POD_2_ZN_1_FLR_1 SYS-3 FLR-1 SCH-D HPLCMT-SOUTH ZN NECB SYSTEM 3 PSZ OCC SCH WEDNESDAY\n   ************* IDF Context for following error/warning message:\n   ************* Note -- lines truncated at 300 characters, if necessary...\n   *************   2201 Schedule:Day:Interval,\n   ************* indicated Name=Sp-Corner_Class_1_Pod_2_ZN_1_FLR_1 Sys-3 Flr-1 Sch-D HPlcmt-south ZN NECB System 3 PSZ Occ Sch Thursday\n   ************* Only last 1 lines before error line shown.....\n   *************   2202   Sp-Corner_Class_1_Pod_2_ZN_1_FLR_1 Sys-3 Flr-1 Sch-D HPlcmt-south ZN NECB System 3 PSZ Occ Sch Thursday, !- Name\n   ** Warning ** IP: IDF line~2202 Alpha Argument length exceeds maximum, will be truncated=  Sp-Corner_Class_1_Pod_2_ZN_1_FLR_1 Sys-3 Flr-1 Sch-D HPlcmt-south ZN NECB System 3 PSZ Occ Sch Thursda\n   **   ~~~   ** Will be processed as Alpha=SP-CORNER_CLASS_1_POD_2_ZN_1_FLR_1 SYS-3 FLR-1 SCH-D HPLCMT-SOUTH ZN NECB SYSTEM 3 PSZ OCC SCH THURSDAY\n   ************* IDF Context for following error/warning message:\n   ************* Note -- lines truncated at 300 characters, if necessary...\n   *************   2216 Schedule:Day:Interval,\n   ************* indicated Name=Sp-Corner_Class_1_Pod_2_ZN_1_FLR_1 Sys-3 Flr-1 Sch-D HPlcmt-south ZN NECB System 3 PSZ Occ Sch Friday\n   ************* Only last 1 lines before error line shown.....\n   *************   2217   Sp-Corner_Class_1_Pod_2_ZN_1_FLR_1 Sys-3 Flr-1 Sch-D HPlcmt-south ZN NECB System 3 PSZ Occ Sch Friday, !- Name\n   ** Warning ** IP: IDF line~2217 Alpha Argument length exceeds maximum, will be truncated=  Sp-Corner_Class_1_Pod_2_ZN_1_FLR_1 Sys-3 Flr-1 Sch-D HPlcmt-south ZN NECB System 3 PSZ Occ Sch Frida\n   **   ~~~   ** Will be processed as Alpha=SP-CORNER_CLASS_1_POD_2_ZN_1_FLR_1 SYS-3 FLR-1 SCH-D HPLCMT-SOUTH ZN NECB SYSTEM 3 PSZ OCC SCH FRIDAY\n   ************* IDF Context for following error/warning message:\n   ************* Note -- lines truncated at 300 characters, if necessary...\n   *************   2231 Schedule:Day:Interval,\n   ************* indicated Name=Sp-Corner_Class_1_Pod_2_ZN_1_FLR_1 Sys-3 Flr-1 Sch-D HPlcmt-south ZN NECB System 3 PSZ Occ Sch Saturday\n   ************* Only last 1 lines before error line shown.....\n   *************   2232   Sp-Corner_Class_1_Pod_2_ZN_1_FLR_1 Sys-3 Flr-1 Sch-D HPlcmt-south ZN NECB System 3 PSZ Occ Sch Saturday, !- Name\n   ** Warning ** IP: IDF line~2232 Alpha Argument length exceeds maximum, will be truncated=  Sp-Corner_Class_1_Pod_2_ZN_1_FLR_1 Sys-3 Flr-1 Sch-D HPlcmt-south ZN NECB System 3 PSZ Occ Sch Saturda\n   **   ~~~   ** Will be processed as Alpha=SP-CORNER_CLASS_1_POD_2_ZN_1_FLR_1 SYS-3 FLR-1 SCH-D HPLCMT-SOUTH ZN NECB SYSTEM 3 PSZ OCC SCH SATURDAY\n   ************* IDF Context for following error/warning message:\n   ************* Note -- lines truncated at 300 characters, if necessary...\n   *************   2238 Schedule:Week:Daily,\n   ************* indicated Name=Schedule:Week:Daily {c270e5a5-ce17-41ba-a4fe-ff779c7f7d61}\n   ************* Only last 2 lines before error line shown.....\n   *************   2239   Schedule:Week:Daily {c270e5a5-ce17-41ba-a4fe-ff779c7f7d61}, !- Name\n   *************   2240   Sp-Corner_Class_1_Pod_2_ZN_1_FLR_1 Sys-3 Flr-1 Sch-D HPlcmt-south ZN NECB System 3 PSZ Occ Sch Sunday, !- Sunday Schedule:Day Name\n   ** Warning ** IP: IDF line~2240 Alpha Argument length exceeds maximum, will be truncated=  Sp-Corner_Class_1_Pod_2_ZN_1_FLR_1 Sys-3 Flr-1 Sch-D HPlcmt-south ZN NECB System 3 PSZ Occ Sch Sunda\n   **   ~~~   ** Will be processed as Alpha=SP-CORNER_CLASS_1_POD_2_ZN_1_FLR_1 SYS-3 FLR-1 SCH-D HPLCMT-SOUTH ZN NECB SYSTEM 3 PSZ OCC SCH SUNDAY\n   ************* IDF Context for following error/warning message:\n   ************* Note -- lines truncated at 300 characters, if necessary...\n   *************   2238 Schedule:Week:Daily,\n   ************* indicated Name=Schedule:Week:Daily {c270e5a5-ce17-41ba-a4fe-ff779c7f7d61}\n   ************* Only last 3 lines before error line shown.....\n   *************   2239   Schedule:Week:Daily {c270e5a5-ce17-41ba-a4fe-ff779c7f7d61}, !- Name\n   *************   2240   Sp-Corner_Class_1_Pod_2_ZN_1_FLR_1 Sys-3 Flr-1 Sch-D HPlcmt-south ZN NECB System 3 PSZ Occ Sch Sunday, !- Sunday Schedule:Day Name\n   *************   2241   Sp-Corner_Class_1_Pod_2_ZN_1_FLR_1 Sys-3 Flr-1 Sch-D HPlcmt-south ZN NECB System 3 PSZ Occ Sch Monday, !- Monday Schedule:Day Name\n   ** Warning ** IP: IDF line~2241 Alpha Argument length exceeds maximum, will be truncated=  Sp-Corner_Class_1_Pod_2_ZN_1_FLR_1 Sys-3 Flr-1 Sch-D HPlcmt-south ZN NECB System 3 PSZ Occ Sch Monda\n   **   ~~~   ** Will be processed as Alpha=SP-CORNER_CLASS_1_POD_2_ZN_1_FLR_1 SYS-3 FLR-1 SCH-D HPLCMT-SOUTH ZN NECB SYSTEM 3 PSZ OCC SCH MONDAY\n   ************* IDF Context for following error/warning message:\n   ************* Note -- lines truncated at 300 characters, if necessary...\n   *************   2238 Schedule:Week:Daily,\n   ************* indicated Name=Schedule:Week:Daily {c270e5a5-ce17-41ba-a4fe-ff779c7f7d61}\n   ************* Only last 4 lines before error line shown.....\n   *************   2239   Schedule:Week:Daily {c270e5a5-ce17-41ba-a4fe-ff779c7f7d61}, !- Name\n   *************   2240   Sp-Corner_Class_1_Pod_2_ZN_1_FLR_1 Sys-3 Flr-1 Sch-D HPlcmt-south ZN NECB System 3 PSZ Occ Sch Sunday, !- Sunday Schedule:Day Name\n   *************   2241   Sp-Corner_Class_1_Pod_2_ZN_1_FLR_1 Sys-3 Flr-1 Sch-D HPlcmt-south ZN NECB System 3 PSZ Occ Sch Monday, !- Monday Schedule:Day Name\n   *************   2242   Sp-Corner_Class_1_Pod_2_ZN_1_FLR_1 Sys-3 Flr-1 Sch-D HPlcmt-south ZN NECB System 3 PSZ Occ Sch Tuesday, !- Tuesday Schedule:Day Name\n   ** Warning ** IP: IDF line~2242 Alpha Argument length exceeds maximum, will be truncated=  Sp-Corner_Class_1_Pod_2_ZN_1_FLR_1 Sys-3 Flr-1 Sch-D HPlcmt-south ZN NECB System 3 PSZ Occ Sch Tuesda\n   **   ~~~   ** Will be processed as Alpha=SP-CORNER_CLASS_1_POD_2_ZN_1_FLR_1 SYS-3 FLR-1 SCH-D HPLCMT-SOUTH ZN NECB SYSTEM 3 PSZ OCC SCH TUESDAY\n   ************* IDF Context for following error/warning message:\n   ************* Note -- lines truncated at 300 characters, if necessary...\n   *************   2238 Schedule:Week:Daily,\n   ************* indicated Name=Schedule:Week:Daily {c270e5a5-ce17-41ba-a4fe-ff779c7f7d61}\n   ************* Only last 5 lines before error line shown.....\n   *************   2239   Schedule:Week:Daily {c270e5a5-ce17-41ba-a4fe-ff779c7f7d61}, !- Name\n   *************   2240   Sp-Corner_Class_1_Pod_2_ZN_1_FLR_1 Sys-3 Flr-1 Sch-D HPlcmt-south ZN NECB System 3 PSZ Occ Sch Sunday, !- Sunday Schedule:Day Name\n   *************   2241   Sp-Corner_Class_1_Pod_2_ZN_1_FLR_1 Sys-3 Flr-1 Sch-D HPlcmt-south ZN NECB System 3 PSZ Occ Sch Monday, !- Monday Schedule:Day Name\n   *************   2242   Sp-Corner_Class_1_Pod_2_ZN_1_FLR_1 Sys-3 Flr-1 Sch-D HPlcmt-south ZN NECB System 3 PSZ Occ Sch Tuesday, !- Tuesday Schedule:Day Name\n   *************   2243   Sp-Corner_Class_1_Pod_2_ZN_1_FLR_1 Sys-3 Flr-1 Sch-D HPlcmt-south ZN NECB System 3 PSZ Occ Sch Wednesday, !- Wednesday Schedule:Day Name\n   ** Warning ** IP: IDF line~2243 Alpha Argument length exceeds maximum, will be truncated=  Sp-Corner_Class_1_Pod_2_ZN_1_FLR_1 Sys-3 Flr-1 Sch-D HPlcmt-south ZN NECB System 3 PSZ Occ Sch Wednesda\n   **   ~~~   ** Will be processed as Alpha=SP-CORNER_CLASS_1_POD_2_ZN_1_FLR_1 SYS-3 FLR-1 SCH-D HPLCMT-SOUTH ZN NECB SYSTEM 3 PSZ OCC SCH WEDNESDAY\n   ************* IDF Context for following error/warning message:\n   ************* Note -- lines truncated at 300 characters, if necessary...\n   *************   2238 Schedule:Week:Daily,\n   ************* indicated Name=Schedule:Week:Daily {c270e5a5-ce17-41ba-a4fe-ff779c7f7d61}\n   ************* Only last 6 lines before error line shown.....\n   *************   2239   Schedule:Week:Daily {c270e5a5-ce17-41ba-a4fe-ff779c7f7d61}, !- Name\n   *************   2240   Sp-Corner_Class_1_Pod_2_ZN_1_FLR_1 Sys-3 Flr-1 Sch-D HPlcmt-south ZN NECB System 3 PSZ Occ Sch Sunday, !- Sunday Schedule:Day Name\n   *************   2241   Sp-Corner_Class_1_Pod_2_ZN_1_FLR_1 Sys-3 Flr-1 Sch-D HPlcmt-south ZN NECB System 3 PSZ Occ Sch Monday, !- Monday Schedule:Day Name\n   *************   2242   Sp-Corner_Class_1_Pod_2_ZN_1_FLR_1 Sys-3 Flr-1 Sch-D HPlcmt-south ZN NECB System 3 PSZ Occ Sch Tuesday, !- Tuesday Schedule:Day Name\n   *************   2243   Sp-Corner_Class_1_Pod_2_ZN_1_FLR_1 Sys-3 Flr-1 Sch-D HPlcmt-south ZN NECB System 3 PSZ Occ Sch Wednesday, !- Wednesday Schedule:Day Name\n   *************   2244   Sp-Corner_Class_1_Pod_2_ZN_1_FLR_1 Sys-3 Flr-1 Sch-D HPlcmt-south ZN NECB System 3 PSZ Occ Sch Thursday, !- Thursday Schedule:Day Name\n   ** Warning ** IP: IDF line~2244 Alpha Argument length exceeds maximum, will be truncated=  Sp-Corner_Class_1_Pod_2_ZN_1_FLR_1 Sys-3 Flr-1 Sch-D HPlcmt-south ZN NECB System 3 PSZ Occ Sch Thursda\n   **   ~~~   ** Will be processed as Alpha=SP-CORNER_CLASS_1_POD_2_ZN_1_FLR_1 SYS-3 FLR-1 SCH-D HPLCMT-SOUTH ZN NECB SYSTEM 3 PSZ OCC SCH THURSDAY\n   ************* IDF Context for following error/warning message:\n   ************* Note -- lines truncated at 300 characters, if necessary...\n   *************   2238 Schedule:Week:Daily,\n   ************* indicated Name=Schedule:Week:Daily {c270e5a5-ce17-41ba-a4fe-ff779c7f7d61}\n   ************* Only last 7 lines before error line shown.....\n   *************   2239   Schedule:Week:Daily {c270e5a5-ce17-41ba-a4fe-ff779c7f7d61}, !- Name\n   *************   2240   Sp-Corner_Class_1_Pod_2_ZN_1_FLR_1 Sys-3 Flr-1 Sch-D HPlcmt-south ZN NECB System 3 PSZ Occ Sch Sunday, !- Sunday Schedule:Day Name\n   *************   2241   Sp-Corner_Class_1_Pod_2_ZN_1_FLR_1 Sys-3 Flr-1 Sch-D HPlcmt-south ZN NECB System 3 PSZ Occ Sch Monday, !- Monday Schedule:Day Name\n   *************   2242   Sp-Corner_Class_1_Pod_2_ZN_1_FLR_1 Sys-3 Flr-1 Sch-D HPlcmt-south ZN NECB System 3 PSZ Occ Sch Tuesday, !- Tuesday Schedule:Day Name\n   *************   2243   Sp-Corner_Class_1_Pod_2_ZN_1_FLR_1 Sys-3 Flr-1 Sch-D HPlcmt-south ZN NECB System 3 PSZ Occ Sch Wednesday, !- Wednesday Schedule:Day Name\n   *************   2244   Sp-Corner_Class_1_Pod_2_ZN_1_FLR_1 Sys-3 Flr-1 Sch-D HPlcmt-south ZN NECB System 3 PSZ Occ Sch Thursday, !- Thursday Schedule:Day Name\n   *************   2245   Sp-Corner_Class_1_Pod_2_ZN_1_FLR_1 Sys-3 Flr-1 Sch-D HPlcmt-south ZN NECB System 3 PSZ Occ Sch Friday, !- Friday Schedule:Day Name\n   ** Warning ** IP: IDF line~2245 Alpha Argument length exceeds maximum, will be truncated=  Sp-Corner_Class_1_Pod_2_ZN_1_FLR_1 Sys-3 Flr-1 Sch-D HPlcmt-south ZN NECB System 3 PSZ Occ Sch Frida\n   **   ~~~   ** Will be processed as Alpha=SP-CORNER_CLASS_1_POD_2_ZN_1_FLR_1 SYS-3 FLR-1 SCH-D HPLCMT-SOUTH ZN NECB SYSTEM 3 PSZ OCC SCH FRIDAY\n   ************* IDF Context for following error/warning message:\n   ************* Note -- lines truncated at 300 characters, if necessary...\n   *************   2238 Schedule:Week:Daily,\n   ************* indicated Name=Schedule:Week:Daily {c270e5a5-ce17-41ba-a4fe-ff779c7f7d61}\n   ************* Only last 8 lines before error line shown.....\n   *************   2239   Schedule:Week:Daily {c270e5a5-ce17-41ba-a4fe-ff779c7f7d61}, !- Name\n   *************   2240   Sp-Corner_Class_1_Pod_2_ZN_1_FLR_1 Sys-3 Flr-1 Sch-D HPlcmt-south ZN NECB System 3 PSZ Occ Sch Sunday, !- Sunday Schedule:Day Name\n   *************   2241   Sp-Corner_Class_1_Pod_2_ZN_1_FLR_1 Sys-3 Flr-1 Sch-D HPlcmt-south ZN NECB System 3 PSZ Occ Sch Monday, !- Monday Schedule:Day Name\n   *************   2242   Sp-Corner_Class_1_Pod_2_ZN_1_FLR_1 Sys-3 Flr-1 Sch-D HPlcmt-south ZN NECB System 3 PSZ Occ Sch Tuesday, !- Tuesday Schedule:Day Name\n   *************   2243   Sp-Corner_Class_1_Pod_2_ZN_1_FLR_1 Sys-3 Flr-1 Sch-D HPlcmt-south ZN NECB System 3 PSZ Occ Sch Wednesday, !- Wednesday Schedule:Day Name\n   *************   2244   Sp-Corner_Class_1_Pod_2_ZN_1_FLR_1 Sys-3 Flr-1 Sch-D HPlcmt-south ZN NECB System 3 PSZ Occ Sch Thursday, !- Thursday Schedule:Day Name\n   *************   2245   Sp-Corner_Class_1_Pod_2_ZN_1_FLR_1 Sys-3 Flr-1 Sch-D HPlcmt-south ZN NECB System 3 PSZ Occ Sch Friday, !- Friday Schedule:Day Name\n   *************   2246   Sp-Corner_Class_1_Pod_2_ZN_1_FLR_1 Sys-3 Flr-1 Sch-D HPlcmt-south ZN NECB System 3 PSZ Occ Sch Saturday, !- Saturday Schedule:Day Name\n   ** Warning ** IP: IDF line~2246 Alpha Argument length exceeds maximum, will be truncated=  Sp-Corner_Class_1_Pod_2_ZN_1_FLR_1 Sys-3 Flr-1 Sch-D HPlcmt-south ZN NECB System 3 PSZ Occ Sch Saturda\n   **   ~~~   ** Will be processed as Alpha=SP-CORNER_CLASS_1_POD_2_ZN_1_FLR_1 SYS-3 FLR-1 SCH-D HPLCMT-SOUTH ZN NECB SYSTEM 3 PSZ OCC SCH SATURDAY\n   ************* IDF Context for following error/warning message:\n   ************* Note -- lines truncated at 300 characters, if necessary...\n   *************   2238 Schedule:Week:Daily,\n   ************* indicated Name=Schedule:Week:Daily {c270e5a5-ce17-41ba-a4fe-ff779c7f7d61}\n   ************* Only last 9 lines before error line shown.....\n   *************   2239   Schedule:Week:Daily {c270e5a5-ce17-41ba-a4fe-ff779c7f7d61}, !- Name\n   *************   2240   Sp-Corner_Class_1_Pod_2_ZN_1_FLR_1 Sys-3 Flr-1 Sch-D HPlcmt-south ZN NECB System 3 PSZ Occ Sch Sunday, !- Sunday Schedule:Day Name\n   *************   2241   Sp-Corner_Class_1_Pod_2_ZN_1_FLR_1 Sys-3 Flr-1 Sch-D HPlcmt-south ZN NECB System 3 PSZ Occ Sch Monday, !- Monday Schedule:Day Name\n   *************   2242   Sp-Corner_Class_1_Pod_2_ZN_1_FLR_1 Sys-3 Flr-1 Sch-D HPlcmt-south ZN NECB System 3 PSZ Occ Sch Tuesday, !- Tuesday Schedule:Day Name\n   *************   2243   Sp-Corner_Class_1_Pod_2_ZN_1_FLR_1 Sys-3 Flr-1 Sch-D HPlcmt-south ZN NECB System 3 PSZ Occ Sch Wednesday, !- Wednesday Schedule:Day Name\n   *************   2244   Sp-Corner_Class_1_Pod_2_ZN_1_FLR_1 Sys-3 Flr-1 Sch-D HPlcmt-south ZN NECB System 3 PSZ Occ Sch Thursday, !- Thursday Schedule:Day Name\n   *************   2245   Sp-Corner_Class_1_Pod_2_ZN_1_FLR_1 Sys-3 Flr-1 Sch-D HPlcmt-south ZN NECB System 3 PSZ Occ Sch Friday, !- Friday Schedule:Day Name\n   *************   2246   Sp-Corner_Class_1_Pod_2_ZN_1_FLR_1 Sys-3 Flr-1 Sch-D HPlcmt-south ZN NECB System 3 PSZ Occ Sch Saturday, !- Saturday Schedule:Day Name\n   *************   2247   Sp-Corner_Class_1_Pod_2_ZN_1_FLR_1 Sys-3 Flr-1 Sch-D HPlcmt-south ZN NECB System 3 PSZ Occ Sch Default, !- Holiday Schedule:Day Name\n   ** Warning ** IP: IDF line~2247 Alpha Argument length exceeds maximum, will be truncated=  Sp-Corner_Class_1_Pod_2_ZN_1_FLR_1 Sys-3 Flr-1 Sch-D HPlcmt-south ZN NECB System 3 PSZ Occ Sch Defaul\n   **   ~~~   ** Will be processed as Alpha=SP-CORNER_CLASS_1_POD_2_ZN_1_FLR_1 SYS-3 FLR-1 SCH-D HPLCMT-SOUTH ZN NECB SYSTEM 3 PSZ OCC SCH DEFAULT\n   ************* IDF Context for following error/warning message:\n   ************* Note -- lines truncated at 300 characters, if necessary...\n   *************   2238 Schedule:Week:Daily,\n   ************* indicated Name=Schedule:Week:Daily {c270e5a5-ce17-41ba-a4fe-ff779c7f7d61}\n   ************* Only last 10 lines before error line shown.....\n   *************   2239   Schedule:Week:Daily {c270e5a5-ce17-41ba-a4fe-ff779c7f7d61}, !- Name\n   *************   2240   Sp-Corner_Class_1_Pod_2_ZN_1_FLR_1 Sys-3 Flr-1 Sch-D HPlcmt-south ZN NECB System 3 PSZ Occ Sch Sunday, !- Sunday Schedule:Day Name\n   *************   2241   Sp-Corner_Class_1_Pod_2_ZN_1_FLR_1 Sys-3 Flr-1 Sch-D HPlcmt-south ZN NECB System 3 PSZ Occ Sch Monday, !- Monday Schedule:Day Name\n   *************   2242   Sp-Corner_Class_1_Pod_2_ZN_1_FLR_1 Sys-3 Flr-1 Sch-D HPlcmt-south ZN NECB System 3 PSZ Occ Sch Tuesday, !- Tuesday Schedule:Day Name\n   *************   2243   Sp-Corner_Class_1_Pod_2_ZN_1_FLR_1 Sys-3 Flr-1 Sch-D HPlcmt-south ZN NECB System 3 PSZ Occ Sch Wednesday, !- Wednesday Schedule:Day Name\n   *************   2244   Sp-Corner_Class_1_Pod_2_ZN_1_FLR_1 Sys-3 Flr-1 Sch-D HPlcmt-south ZN NECB System 3 PSZ Occ Sch Thursday, !- Thursday Schedule:Day Name\n   *************   2245   Sp-Corner_Class_1_Pod_2_ZN_1_FLR_1 Sys-3 Flr-1 Sch-D HPlcmt-south ZN NECB System 3 PSZ Occ Sch Friday, !- Friday Schedule:Day Name\n   *************   2246   Sp-Corner_Class_1_Pod_2_ZN_1_FLR_1 Sys-3 Flr-1 Sch-D HPlcmt-south ZN NECB System 3 PSZ Occ Sch Saturday, !- Saturday Schedule:Day Name\n   *************   2247   Sp-Corner_Class_1_Pod_2_ZN_1_FLR_1 Sys-3 Flr-1 Sch-D HPlcmt-south ZN NECB System 3 PSZ Occ Sch Default, !- Holiday Schedule:Day Name\n   *************   2248   Sp-Corner_Class_1_Pod_2_ZN_1_FLR_1 Sys-3 Flr-1 Sch-D HPlcmt-south ZN NECB System 3 PSZ Occ Sch Summer Design Day, !- SummerDesignDay Schedule:Day Name\n   ** Warning ** IP: IDF line~2248 Alpha Argument length exceeds maximum, will be truncated=  Sp-Corner_Class_1_Pod_2_ZN_1_FLR_1 Sys-3 Flr-1 Sch-D HPlcmt-south ZN NECB System 3 PSZ Occ Sch Summer Design Da\n   **   ~~~   ** Will be processed as Alpha=SP-CORNER_CLASS_1_POD_2_ZN_1_FLR_1 SYS-3 FLR-1 SCH-D HPLCMT-SOUTH ZN NECB SYSTEM 3 PSZ OCC SCH SUMMER DESIGN DAY\n   ************* IDF Context for following error/warning message:\n   ************* Note -- lines truncated at 300 characters, if necessary...\n   *************   2238 Schedule:Week:Daily,\n   ************* indicated Name=Schedule:Week:Daily {c270e5a5-ce17-41ba-a4fe-ff779c7f7d61}\n   ************* Only last 10 lines before error line shown.....\n   *************   2240   Sp-Corner_Class_1_Pod_2_ZN_1_FLR_1 Sys-3 Flr-1 Sch-D HPlcmt-south ZN NECB System 3 PSZ Occ Sch Sunday, !- Sunday Schedule:Day Name\n   *************   2241   Sp-Corner_Class_1_Pod_2_ZN_1_FLR_1 Sys-3 Flr-1 Sch-D HPlcmt-south ZN NECB System 3 PSZ Occ Sch Monday, !- Monday Schedule:Day Name\n   *************   2242   Sp-Corner_Class_1_Pod_2_ZN_1_FLR_1 Sys-3 Flr-1 Sch-D HPlcmt-south ZN NECB System 3 PSZ Occ Sch Tuesday, !- Tuesday Schedule:Day Name\n   *************   2243   Sp-Corner_Class_1_Pod_2_ZN_1_FLR_1 Sys-3 Flr-1 Sch-D HPlcmt-south ZN NECB System 3 PSZ Occ Sch Wednesday, !- Wednesday Schedule:Day Name\n   *************   2244   Sp-Corner_Class_1_Pod_2_ZN_1_FLR_1 Sys-3 Flr-1 Sch-D HPlcmt-south ZN NECB System 3 PSZ Occ Sch Thursday, !- Thursday Schedule:Day Name\n   *************   2245   Sp-Corner_Class_1_Pod_2_ZN_1_FLR_1 Sys-3 Flr-1 Sch-D HPlcmt-south ZN NECB System 3 PSZ Occ Sch Friday, !- Friday Schedule:Day Name\n   *************   2246   Sp-Corner_Class_1_Pod_2_ZN_1_FLR_1 Sys-3 Flr-1 Sch-D HPlcmt-south ZN NECB System 3 PSZ Occ Sch Saturday, !- Saturday Schedule:Day Name\n   *************   2247   Sp-Corner_Class_1_Pod_2_ZN_1_FLR_1 Sys-3 Flr-1 Sch-D HPlcmt-south ZN NECB System 3 PSZ Occ Sch Default, !- Holiday Schedule:Day Name\n   *************   2248   Sp-Corner_Class_1_Pod_2_ZN_1_FLR_1 Sys-3 Flr-1 Sch-D HPlcmt-south ZN NECB System 3 PSZ Occ Sch Summer Design Day, !- SummerDesignDay Schedule:Day Name\n   *************   2249   Sp-Corner_Class_1_Pod_2_ZN_1_FLR_1 Sys-3 Flr-1 Sch-D HPlcmt-south ZN NECB System 3 PSZ Occ Sch Winter Design Day, !- WinterDesignDay Schedule:Day Name\n   ** Warning ** IP: IDF line~2249 Alpha Argument length exceeds maximum, will be truncated=  Sp-Corner_Class_1_Pod_2_ZN_1_FLR_1 Sys-3 Flr-1 Sch-D HPlcmt-south ZN NECB System 3 PSZ Occ Sch Winter Design Da\n   **   ~~~   ** Will be processed as Alpha=SP-CORNER_CLASS_1_POD_2_ZN_1_FLR_1 SYS-3 FLR-1 SCH-D HPLCMT-SOUTH ZN NECB SYSTEM 3 PSZ OCC SCH WINTER DESIGN DAY\n   ************* IDF Context for following error/warning message:\n   ************* Note -- lines truncated at 300 characters, if necessary...\n   *************   2238 Schedule:Week:Daily,\n   ************* indicated Name=Schedule:Week:Daily {c270e5a5-ce17-41ba-a4fe-ff779c7f7d61}\n   ************* Only last 10 lines before error line shown.....\n   *************   2241   Sp-Corner_Class_1_Pod_2_ZN_1_FLR_1 Sys-3 Flr-1 Sch-D HPlcmt-south ZN NECB System 3 PSZ Occ Sch Monday, !- Monday Schedule:Day Name\n   *************   2242   Sp-Corner_Class_1_Pod_2_ZN_1_FLR_1 Sys-3 Flr-1 Sch-D HPlcmt-south ZN NECB System 3 PSZ Occ Sch Tuesday, !- Tuesday Schedule:Day Name\n   *************   2243   Sp-Corner_Class_1_Pod_2_ZN_1_FLR_1 Sys-3 Flr-1 Sch-D HPlcmt-south ZN NECB System 3 PSZ Occ Sch Wednesday, !- Wednesday Schedule:Day Name\n   *************   2244   Sp-Corner_Class_1_Pod_2_ZN_1_FLR_1 Sys-3 Flr-1 Sch-D HPlcmt-south ZN NECB System 3 PSZ Occ Sch Thursday, !- Thursday Schedule:Day Name\n   *************   2245   Sp-Corner_Class_1_Pod_2_ZN_1_FLR_1 Sys-3 Flr-1 Sch-D HPlcmt-south ZN NECB System 3 PSZ Occ Sch Friday, !- Friday Schedule:Day Name\n   *************   2246   Sp-Corner_Class_1_Pod_2_ZN_1_FLR_1 Sys-3 Flr-1 Sch-D HPlcmt-south ZN NECB System 3 PSZ Occ Sch Saturday, !- Saturday Schedule:Day Name\n   *************   2247   Sp-Corner_Class_1_Pod_2_ZN_1_FLR_1 Sys-3 Flr-1 Sch-D HPlcmt-south ZN NECB System 3 PSZ Occ Sch Default, !- Holiday Schedule:Day Name\n   *************   2248   Sp-Corner_Class_1_Pod_2_ZN_1_FLR_1 Sys-3 Flr-1 Sch-D HPlcmt-south ZN NECB System 3 PSZ Occ Sch Summer Design Day, !- SummerDesignDay Schedule:Day Name\n   *************   2249   Sp-Corner_Class_1_Pod_2_ZN_1_FLR_1 Sys-3 Flr-1 Sch-D HPlcmt-south ZN NECB System 3 PSZ Occ Sch Winter Design Day, !- WinterDesignDay Schedule:Day Name\n   *************   2250   Sp-Corner_Class_1_Pod_2_ZN_1_FLR_1 Sys-3 Flr-1 Sch-D HPlcmt-south ZN NECB System 3 PSZ Occ Sch Default, !- CustomDay1 Schedule:Day Name\n   ** Warning ** IP: IDF line~2250 Alpha Argument length exceeds maximum, will be truncated=  Sp-Corner_Class_1_Pod_2_ZN_1_FLR_1 Sys-3 Flr-1 Sch-D HPlcmt-south ZN NECB System 3 PSZ Occ Sch Defaul\n   **   ~~~   ** Will be processed as Alpha=SP-CORNER_CLASS_1_POD_2_ZN_1_FLR_1 SYS-3 FLR-1 SCH-D HPLCMT-SOUTH ZN NECB SYSTEM 3 PSZ OCC SCH DEFAULT\n   ************* IDF Context for following error/warning message:\n   ************* Note -- lines truncated at 300 characters, if necessary...\n   *************   2238 Schedule:Week:Daily,\n   ************* indicated Name=Schedule:Week:Daily {c270e5a5-ce17-41ba-a4fe-ff779c7f7d61}\n   ************* Only last 10 lines before error line shown.....\n   *************   2242   Sp-Corner_Class_1_Pod_2_ZN_1_FLR_1 Sys-3 Flr-1 Sch-D HPlcmt-south ZN NECB System 3 PSZ Occ Sch Tuesday, !- Tuesday Schedule:Day Name\n   *************   2243   Sp-Corner_Class_1_Pod_2_ZN_1_FLR_1 Sys-3 Flr-1 Sch-D HPlcmt-south ZN NECB System 3 PSZ Occ Sch Wednesday, !- Wednesday Schedule:Day Name\n   *************   2244   Sp-Corner_Class_1_Pod_2_ZN_1_FLR_1 Sys-3 Flr-1 Sch-D HPlcmt-south ZN NECB System 3 PSZ Occ Sch Thursday, !- Thursday Schedule:Day Name\n   *************   2245   Sp-Corner_Class_1_Pod_2_ZN_1_FLR_1 Sys-3 Flr-1 Sch-D HPlcmt-south ZN NECB System 3 PSZ Occ Sch Friday, !- Friday Schedule:Day Name\n   *************   2246   Sp-Corner_Class_1_Pod_2_ZN_1_FLR_1 Sys-3 Flr-1 Sch-D HPlcmt-south ZN NECB System 3 PSZ Occ Sch Saturday, !- Saturday Schedule:Day Name\n   *************   2247   Sp-Corner_Class_1_Pod_2_ZN_1_FLR_1 Sys-3 Flr-1 Sch-D HPlcmt-south ZN NECB System 3 PSZ Occ Sch Default, !- Holiday Schedule:Day Name\n   *************   2248   Sp-Corner_Class_1_Pod_2_ZN_1_FLR_1 Sys-3 Flr-1 Sch-D HPlcmt-south ZN NECB System 3 PSZ Occ Sch Summer Design Day, !- SummerDesignDay Schedule:Day Name\n   *************   2249   Sp-Corner_Class_1_Pod_2_ZN_1_FLR_1 Sys-3 Flr-1 Sch-D HPlcmt-south ZN NECB System 3 PSZ Occ Sch Winter Design Day, !- WinterDesignDay Schedule:Day Name\n   *************   2250   Sp-Corner_Class_1_Pod_2_ZN_1_FLR_1 Sys-3 Flr-1 Sch-D HPlcmt-south ZN NECB System 3 PSZ Occ Sch Default, !- CustomDay1 Schedule:Day Name\n   *************   2251   Sp-Corner_Class_1_Pod_2_ZN_1_FLR_1 Sys-3 Flr-1 Sch-D HPlcmt-south ZN NECB System 3 PSZ Occ Sch Default; !- CustomDay2 Schedule:Day Name\n   ** Warning ** IP: IDF line~2251 Alpha Argument length exceeds maximum, will be truncated=  Sp-Corner_Class_1_Pod_2_ZN_1_FLR_1 Sys-3 Flr-1 Sch-D HPlcmt-south ZN NECB System 3 PSZ Occ Sch Defaul\n   **   ~~~   ** Will be processed as Alpha=SP-CORNER_CLASS_1_POD_2_ZN_1_FLR_1 SYS-3 FLR-1 SCH-D HPLCMT-SOUTH ZN NECB SYSTEM 3 PSZ OCC SCH DEFAULT\n   ************* IDF Context for following error/warning message:\n   ************* Note -- lines truncated at 300 characters, if necessary...\n   *************   2262 Schedule:Day:Interval,\n   ************* indicated Name=Sp-Corner_Class_1_Pod_2_ZN_1_FLR_1 Sys-3 Flr-1 Sch-D HPlcmt-south ZN NECB System 3 PSZ Occ Sch Default\n   ************* Only last 1 lines before error line shown.....\n   *************   2263   Sp-Corner_Class_1_Pod_2_ZN_1_FLR_1 Sys-3 Flr-1 Sch-D HPlcmt-south ZN NECB System 3 PSZ Occ Sch Default, !- Name\n   ** Warning ** IP: IDF line~2263 Alpha Argument length exceeds maximum, will be truncated=  Sp-Corner_Class_1_Pod_2_ZN_1_FLR_1 Sys-3 Flr-1 Sch-D HPlcmt-south ZN NECB System 3 PSZ Occ Sch Defaul\n   **   ~~~   ** Will be processed as Alpha=SP-CORNER_CLASS_1_POD_2_ZN_1_FLR_1 SYS-3 FLR-1 SCH-D HPLCMT-SOUTH ZN NECB SYSTEM 3 PSZ OCC SCH DEFAULT\n   ************* IDF Context for following error/warning message:\n   ************* Note -- lines truncated at 300 characters, if necessary...\n   *************   2269 Schedule:Day:Interval,\n   ************* indicated Name=Sp-Corner_Class_1_Pod_2_ZN_1_FLR_1 Sys-3 Flr-1 Sch-D HPlcmt-south ZN NECB System 3 PSZ Occ Sch Summer Design Day\n   ************* Only last 1 lines before error line shown.....\n   *************   2270   Sp-Corner_Class_1_Pod_2_ZN_1_FLR_1 Sys-3 Flr-1 Sch-D HPlcmt-south ZN NECB System 3 PSZ Occ Sch Summer Design Day, !- Name\n   ** Warning ** IP: IDF line~2270 Alpha Argument length exceeds maximum, will be truncated=  Sp-Corner_Class_1_Pod_2_ZN_1_FLR_1 Sys-3 Flr-1 Sch-D HPlcmt-south ZN NECB System 3 PSZ Occ Sch Summer Design Da\n   **   ~~~   ** Will be processed as Alpha=SP-CORNER_CLASS_1_POD_2_ZN_1_FLR_1 SYS-3 FLR-1 SCH-D HPLCMT-SOUTH ZN NECB SYSTEM 3 PSZ OCC SCH SUMMER DESIGN DAY\n   ************* IDF Context for following error/warning message:\n   ************* Note -- lines truncated at 300 characters, if necessary...\n   *************   2276 Schedule:Day:Interval,\n   ************* indicated Name=Sp-Corner_Class_1_Pod_2_ZN_1_FLR_1 Sys-3 Flr-1 Sch-D HPlcmt-south ZN NECB System 3 PSZ Occ Sch Winter Design Day\n   ************* Only last 1 lines before error line shown.....\n   *************   2277   Sp-Corner_Class_1_Pod_2_ZN_1_FLR_1 Sys-3 Flr-1 Sch-D HPlcmt-south ZN NECB System 3 PSZ Occ Sch Winter Design Day, !- Name\n   ** Warning ** IP: IDF line~2277 Alpha Argument length exceeds maximum, will be truncated=  Sp-Corner_Class_1_Pod_2_ZN_1_FLR_1 Sys-3 Flr-1 Sch-D HPlcmt-south ZN NECB System 3 PSZ Occ Sch Winter Design Da\n   **   ~~~   ** Will be processed as Alpha=SP-CORNER_CLASS_1_POD_2_ZN_1_FLR_1 SYS-3 FLR-1 SCH-D HPLCMT-SOUTH ZN NECB SYSTEM 3 PSZ OCC SCH WINTER DESIGN DAY\n   ************* IDF Context for following error/warning message:\n   ************* Note -- lines truncated at 300 characters, if necessary...\n   *************   2545 Schedule:Day:Interval,\n   ************* indicated Name=Sp-Corner_Class_1_Pod_3_ZN_1_FLR_1 Sys-3 Flr-1 Sch-D HPlcmt-south ZN NECB System 3 PSZ Occ Sch Sunday\n   ************* Only last 1 lines before error line shown.....\n   *************   2546   Sp-Corner_Class_1_Pod_3_ZN_1_FLR_1 Sys-3 Flr-1 Sch-D HPlcmt-south ZN NECB System 3 PSZ Occ Sch Sunday, !- Name\n   ** Warning ** IP: IDF line~2546 Alpha Argument length exceeds maximum, will be truncated=  Sp-Corner_Class_1_Pod_3_ZN_1_FLR_1 Sys-3 Flr-1 Sch-D HPlcmt-south ZN NECB System 3 PSZ Occ Sch Sunda\n   **   ~~~   ** Will be processed as Alpha=SP-CORNER_CLASS_1_POD_3_ZN_1_FLR_1 SYS-3 FLR-1 SCH-D HPLCMT-SOUTH ZN NECB SYSTEM 3 PSZ OCC SCH SUNDAY\n   ************* IDF Context for following error/warning message:\n   ************* Note -- lines truncated at 300 characters, if necessary...\n   *************   2552 Schedule:Day:Interval,\n   ************* indicated Name=Sp-Corner_Class_1_Pod_3_ZN_1_FLR_1 Sys-3 Flr-1 Sch-D HPlcmt-south ZN NECB System 3 PSZ Occ Sch Monday\n   ************* Only last 1 lines before error line shown.....\n   *************   2553   Sp-Corner_Class_1_Pod_3_ZN_1_FLR_1 Sys-3 Flr-1 Sch-D HPlcmt-south ZN NECB System 3 PSZ Occ Sch Monday, !- Name\n   ** Warning ** IP: IDF line~2553 Alpha Argument length exceeds maximum, will be truncated=  Sp-Corner_Class_1_Pod_3_ZN_1_FLR_1 Sys-3 Flr-1 Sch-D HPlcmt-south ZN NECB System 3 PSZ Occ Sch Monda\n   **   ~~~   ** Will be processed as Alpha=SP-CORNER_CLASS_1_POD_3_ZN_1_FLR_1 SYS-3 FLR-1 SCH-D HPLCMT-SOUTH ZN NECB SYSTEM 3 PSZ OCC SCH MONDAY\n   ************* IDF Context for following error/warning message:\n   ************* Note -- lines truncated at 300 characters, if necessary...\n   *************   2567 Schedule:Day:Interval,\n   ************* indicated Name=Sp-Corner_Class_1_Pod_3_ZN_1_FLR_1 Sys-3 Flr-1 Sch-D HPlcmt-south ZN NECB System 3 PSZ Occ Sch Tuesday\n   ************* Only last 1 lines before error line shown.....\n   *************   2568   Sp-Corner_Class_1_Pod_3_ZN_1_FLR_1 Sys-3 Flr-1 Sch-D HPlcmt-south ZN NECB System 3 PSZ Occ Sch Tuesday, !- Name\n   ** Warning ** IP: IDF line~2568 Alpha Argument length exceeds maximum, will be truncated=  Sp-Corner_Class_1_Pod_3_ZN_1_FLR_1 Sys-3 Flr-1 Sch-D HPlcmt-south ZN NECB System 3 PSZ Occ Sch Tuesda\n   **   ~~~   ** Will be processed as Alpha=SP-CORNER_CLASS_1_POD_3_ZN_1_FLR_1 SYS-3 FLR-1 SCH-D HPLCMT-SOUTH ZN NECB SYSTEM 3 PSZ OCC SCH TUESDAY\n   ************* IDF Context for following error/warning message:\n   ************* Note -- lines truncated at 300 characters, if necessary...\n   *************   2582 Schedule:Day:Interval,\n   ************* indicated Name=Sp-Corner_Class_1_Pod_3_ZN_1_FLR_1 Sys-3 Flr-1 Sch-D HPlcmt-south ZN NECB System 3 PSZ Occ Sch Wednesday\n   ************* Only last 1 lines before error line shown.....\n   *************   2583   Sp-Corner_Class_1_Pod_3_ZN_1_FLR_1 Sys-3 Flr-1 Sch-D HPlcmt-south ZN NECB System 3 PSZ Occ Sch Wednesday, !- Name\n   ** Warning ** IP: IDF line~2583 Alpha Argument length exceeds maximum, will be truncated=  Sp-Corner_Class_1_Pod_3_ZN_1_FLR_1 Sys-3 Flr-1 Sch-D HPlcmt-south ZN NECB System 3 PSZ Occ Sch Wednesda\n   **   ~~~   ** Will be processed as Alpha=SP-CORNER_CLASS_1_POD_3_ZN_1_FLR_1 SYS-3 FLR-1 SCH-D HPLCMT-SOUTH ZN NECB SYSTEM 3 PSZ OCC SCH WEDNESDAY\n   ************* IDF Context for following error/warning message:\n   ************* Note -- lines truncated at 300 characters, if necessary...\n   *************   2597 Schedule:Day:Interval,\n   ************* indicated Name=Sp-Corner_Class_1_Pod_3_ZN_1_FLR_1 Sys-3 Flr-1 Sch-D HPlcmt-south ZN NECB System 3 PSZ Occ Sch Thursday\n   ************* Only last 1 lines before error line shown.....\n   *************   2598   Sp-Corner_Class_1_Pod_3_ZN_1_FLR_1 Sys-3 Flr-1 Sch-D HPlcmt-south ZN NECB System 3 PSZ Occ Sch Thursday, !- Name\n   ** Warning ** IP: IDF line~2598 Alpha Argument length exceeds maximum, will be truncated=  Sp-Corner_Class_1_Pod_3_ZN_1_FLR_1 Sys-3 Flr-1 Sch-D HPlcmt-south ZN NECB System 3 PSZ Occ Sch Thursda\n   **   ~~~   ** Will be processed as Alpha=SP-CORNER_CLASS_1_POD_3_ZN_1_FLR_1 SYS-3 FLR-1 SCH-D HPLCMT-SOUTH ZN NECB SYSTEM 3 PSZ OCC SCH THURSDAY\n   ************* IDF Context for following error/warning message:\n   ************* Note -- lines truncated at 300 characters, if necessary...\n   *************   2612 Schedule:Day:Interval,\n   ************* indicated Name=Sp-Corner_Class_1_Pod_3_ZN_1_FLR_1 Sys-3 Flr-1 Sch-D HPlcmt-south ZN NECB System 3 PSZ Occ Sch Friday\n   ************* Only last 1 lines before error line shown.....\n   *************   2613   Sp-Corner_Class_1_Pod_3_ZN_1_FLR_1 Sys-3 Flr-1 Sch-D HPlcmt-south ZN NECB System 3 PSZ Occ Sch Friday, !- Name\n   ** Warning ** IP: IDF line~2613 Alpha Argument length exceeds maximum, will be truncated=  Sp-Corner_Class_1_Pod_3_ZN_1_FLR_1 Sys-3 Flr-1 Sch-D HPlcmt-south ZN NECB System 3 PSZ Occ Sch Frida\n   **   ~~~   ** Will be processed as Alpha=SP-CORNER_CLASS_1_POD_3_ZN_1_FLR_1 SYS-3 FLR-1 SCH-D HPLCMT-SOUTH ZN NECB SYSTEM 3 PSZ OCC SCH FRIDAY\n   ************* IDF Context for following error/warning message:\n   ************* Note -- lines truncated at 300 characters, if necessary...\n   *************   2627 Schedule:Day:Interval,\n   ************* indicated Name=Sp-Corner_Class_1_Pod_3_ZN_1_FLR_1 Sys-3 Flr-1 Sch-D HPlcmt-south ZN NECB System 3 PSZ Occ Sch Saturday\n   ************* Only last 1 lines before error line shown.....\n   *************   2628   Sp-Corner_Class_1_Pod_3_ZN_1_FLR_1 Sys-3 Flr-1 Sch-D HPlcmt-south ZN NECB System 3 PSZ Occ Sch Saturday, !- Name\n   ** Warning ** IP: IDF line~2628 Alpha Argument length exceeds maximum, will be truncated=  Sp-Corner_Class_1_Pod_3_ZN_1_FLR_1 Sys-3 Flr-1 Sch-D HPlcmt-south ZN NECB System 3 PSZ Occ Sch Saturda\n   **   ~~~   ** Will
[...]
B70fVh8HvQtWnwe9H2JfB70LYt8HvTdjHwe9I2OfB415Lnm9kg+jxryXHNTJZ9HDSu5pqzSeZS+oaRaWVW8woTBgi6r2CzozmCzoPuCzYIuq9gs6LKKzYIuq9gs6LKKzYKebtksNGUVnwc93fJ50NMtnwddVvF50GUVnwddVvF50GUVnwddVvF50GUVn0cNea4pq/g8ashzTVnF51HDSq4pq3QepRvBVyurip3iGSzosorNgu4MNgu6L9gs6LKKzYIuq9gs6LKKzYIuq9gs6OmWzUJTVvF50NMtnwc93fJ50GUVnwddVvF50GUVnwddVvF50GUVnwddVvF51JDnmrKKz6OGPNeUVXweNazkmrJK51G63261sqrYkJfBgi6r2CzozmCzoPuCzYIuq9gs6LKKzYIuq9gs6LKKzYKebtksNGUVnwc93fJ50NMtnwddVvF50GUVnwddVvF50GUVnwddVvF50GUVn0cNea4pq/g8ashzTVnF51HDSq4pq3QepdsaViurin0PGSzosorNgu4MNgu6L9gs6LKKzYIuq9gs6LKKzYIuq9gs6OmWzUK72RqXh263Ki4P3UZWXB66Pa64PHTbX3F56PZ84/LQbQfH5aHbKY7LQ7eJHJdHDXmu3XqOy6OGPNduWMflUcNKrimrVh7fq+zwutzRWRyLUN6vdpDNN45tJHfjZr4DbOlWsattoROZvo/moZc0ep2msO1eU3TVb06v2nazDxnG027Xntd3UzmO4sXJg58U2yo/XX+FvaczgYvYk/HlXO1yXPlExbF4yfFJusk8lgWG2qh52e4b3vcbYYQRRhhhhBFGGGGEEUYYYYQRRhhhhBFGGGGEEUYYYYQRRhhhhBFGGGGEEUYYYYQRRhhhhBFGGGGEEUYYYYQRRhhhhBFGGOG/VXjRju5kHPue/OSqB2vtducvPq+qHo1NXj4aeyVjXybLx2ut5uoB4lkQpe3AD2XpI7LJa8/plj9Zm7TzV8/PosBN/SjMoKwklbPWjRxFsbSqPfn8UY5l6L28oOKzxl6nKbrqyeWOepBZ/bACOUoVWIn0SrY9GMv0LExV+2QWo3k4zEkb2+KPEokVoXw6+7r0WW51+CPRSCd+0k7yXqlmpI5nJ7Wz9jtzh5PGf4FN1Vb46tHxjH2pO5hFia8ET7OPq1zN6lAyr1DF0b0Z0grLDz2p8qFlNw3PXh2365448mWgxltj2aZFnozjaD6Tnvj5Z/GP5ecP7cHETZbPv6sE234eXbwazRqk7Y7H58qjHchwnE7EO+GI/xPWSRBY4ujlN5LAH8pGy96+7nzfLs23P11JFIvGbXYpnV/EbWazHKpLX/XZP7MZx7yD1KGG8VLv+vZ7+4dciOPj46Lx1lPMVZfdfmt6qavjJpbuj3VOfjQ8x/T7qr2WV3eshrUaDMuRkm/k0B64SeKPQ+n11RYRyXXekt/Xa8pVR8/myaSxbl9kXXpU9Of6mRQER1Wusq2+ua5LksbRD1nNp/juuk7RzB366aKa1fLLa19VbrGyWldlNZG8nFbWSQ/jyUcdq3R+OfGIlrBN1UzSrTrrYzNfVSt9/7GsplDHzo748vtX8Z+L3y/F1cXl198+/yo+Xvz6W198OLs8qyZwns3a8sFVJZpII5FEcSrC+TQbB0ORb2mSCDcZZsWLH44rKK7aXuk8W5ndpripPrnEMp3HoZi5cSLPg8hNG66a8rezrnz22U3+WaXGLC/RntkuL6FM+HGzO7081Z95uufJ3tjy5MidB6mYxVE2h8mtptj66eCg3z8729rwxjPAAQ5wgAMc4AAHOMABDnCA8/fEEcl8mv0TWHhSfSg8d6GIYumBBjSgAQ1oQAMa0IAGNKABDWj0NPf5rVn/Q3MTzCVwgAMc4AAHOMABDnCAAxzgAGcdnKf3BtrqvYFXc+q9gV07/wvbycnu7uEhSEEKUpCCFKQgBSlIQQpSkIIUpCB9G6ROTuqmFGknJ+12HedgD6QgBSlIQQpSkIIUpCAFKUhBClKQvg3SriI9j32C1DnMSW17f7/bBSlIQQpSkIIUpCAFKUhBClKQghSkb4N0V5F+ncwp0oOc9DA7eu9BClKQghSkIAUpSEEKUpCCFKQgBenbIO0p0n9LjyLdz0lPT/v9/X2QghSkIAUpSEEKUpCCFKQgBSlIQfo2SPfy/5mYS4p0Lyft9/f2QApSkIIUpCAFKUhBClKQghSkIAXpWyHdV6SfImpnQaeXkx4cOE6vB1KQghSkIAUpSEEKUpCCFKQgBSlIayNdoXixe98oFXtop34ayKuJO5PtVD6kja0P0TxOyjEWfz7z1J/KMPGjMJBJrlAisbMjTjxPuCJXEvd+OhFJNJXC65acmdyN2+5sJkOvYSlva7vkhNXRdtM0blgPVlPsdQxPWmQnOdVPStJFIAu8lhsOJ1GcnW8FcmRAu9QYRWHaupf+eJIqjZso8KprFH1zNWt9mgfpoB9kY3RgD75E3qA7+PY5+/X84+XAFleLpNUV50Hcyn4fTlqn4sOXYDhNW0k0z/rl22fx+az/Xn0tlVPRFV+uvomL4VB9d2tb19PvdpJh7M/Sf5Hfebfj+Xevh8lzaLFMS/jesTVUadDPWs71QxkPbNuxRN6ex5bnJ7PAXRz5YZDFWjdBNPzxi0UDZqrFNYh0McvOV026c+veucWn2jPVcefGasiKY+H501kg26G8v7obN6yfXoFsit1OJ/9RmoNK13NTNxO+/sMK3BsZWEeWJ0du1tViFkcjP5BWs4gMHqwju91pWnduMJfL34dqqsrOyWaffv/szHpsVtJxmHS6TDq7TDo9Jp09Jp19Jp0DJp1DJh27wyXENaJtriFtc41pm2tQ21yj2uYa1jbXuLa5BrbNNbIdrpHtsM3VXCPb4RrZjtHIFsl8On3x7upKK1osPQMZso3MZMgWMpMh28dMhsx7Mxky681kyJw3kyEz3kyGzHczGXohM9RhGsf0MmaowzSS6UXMUIdpLNNLmKEO02imFzBDHabxTC9fhjpc8zLTeKbXLkOd6uP53g9T82XrRn1UXYdsHkMdsnkMdcjmMdQh091Qh0x3Qx0y3Q11yHQ31CHT3VCHXr9MhbhGNL2CmQpxjWl6DTMV4hrV9CpmKsQ1rul1zFSIa2TTK5mpENtczTWy6cXMVKj6yH76Y0bpy4apZa7z4h96xduIGSyczVt0N2+xu3mL3uYt9jZvsb95i4PNWxxu3uLFyr4pjxry264hwe0aMtyuIcXtGnLcriHJ7Rqy3K4hze0a8typIc+dOtbxGvLcqSHPnfXyvPSdjtXKquKljwwWdG+wWdCdwWZB9wWbBT3lslnQMy6bBT3hslnQ8y2bBT3dslloyio+jxryW1NW8XnUkOGasorPo4Yc15RVfB41ZLmmrOLzqCHPNWUVn0cd63gNea4pq/g81svz0ldnVSurindrMVjQvcFmQXcGmwXdF2wW9JTLZkHPuGwW9ITLZkHPt2wW9HTLZqG5IZDPg76jis+DvtmKz4O+D4vPg75Fi8+Dvi+Rz4O+ZZHPg76bkc+DvtGRz6OGPNfcHsnnUUOea26q5POoYSXXlFU6j9I3lFQrq4pXmDBY0GUVmwXdGWwWdF+wWdBlFZsFXVaxWdBlFZsFXVaxWdDTLZuFpqzi86CnWz4Perrl86DLKj4Puqzi86DLKj4Puqzi86DLKj4Puqzi86ghzzVlFZ9HDXmuKav4PGpYyTVllc6jdCP4amVVsVM8gwVdVrFZ0J3BZkH3BZsFXVaxWdBlFZsFXVaxWdBlFZsFPd2yWWjKKj4Perrl86CnWz4Puqzi86DLKj4Puqzi86DLKj4Puqzi86DLKj6PGvJcU1bxedSQ55qyis+jhpVcU1bpPEr3261WVhUb8jJY0GUVmwXdGWwWdF+wWdBlFZsFXVaxWdBlFZsFXVaxWdDTLZuFpqzi86CnWz4Perrl86DLKj4Puqzi86DLKj4Puqzi86DLKj4Puqzi86ghzzVlFZ9HDXmuKav4PGpYyTVllc6jdFvDamVVse8hgwVdVrFZ0J3BZkH3BZsFXVaxWdBlFZsFXVaxWdBlFZsFPd2yWWg3W+Py0O1WxeWh28iKy0O3xxWXh277Ky4P3Z5vXB667eC4PHQ7xXF56DaR4/KoIc+1W89xedSQ59oN67g8aljJNWXVyuN7lR1elzs6i2MRyvvVDrL5xrGN5G7czHeALd0qdrUtdCLT99E89JJGr9MUtt1riq76zelV2272IcN42u3a8/puKsdRvDh58JNiW+Wn66+w93QmcBF7Mr6cq12OK5+oOBYvOT5JN5nHssBQGzUv233D+34jjDDCCCOMMMIII4wwwggjjDDCCCOMMMIII4wwwggjjDDCCCOMMMIII4wwwggjjDDCCCOMMMIII4wwwggjjDDCCCOMMMIII/y3Ci/a0Z2MY9+Tn1z1YK3d7vzF51XVo7HJy0djr2Tsy2T5eK3VXD1APAuitB34oSx9RDZ57Tnd8idrk3b+6vlZFLipH4UZlJWkcta6kaMolla1J58/yrEMvZcXVHzW2Os0RVc9udxRDzKrH1YgR6kCK5FeybYHY5mehalqn8xiNA+HOWljW/xRIrEilE9nX5c+y60OfyQa6cRP2kneK9WM1PHspHbWfmfucNL4L7Cp2gpfPTqesS91B7Mo8ZXgafZxlatZHUrmFao4ujdDWmH5oSdVPrTspuHZq+N23RNHvgzUeGss27TIk3EczWfSEz//LP6x/PyhPZi4yfL5d5Vg28+ji1ejWYO03fH4XHm0AxmO04l4Jxzxf8I6CQJLHL38RhL4Q9lo2dvXne/bpfn2pyuJYtG4zS6l84u4zWyWQ3Xpqz77ZzbjmHeQOtQwXupd335v/5ALcXx8XDTeeoq56rLbb00vdXXcxNL9sc7Jj4bnmH5ftdfy6o7VsFaDYTlS8o0c2gM3SfxxKL2+2iIiuc5b8vt6Tbnq6Nk8mTTW7YusS4+K/lw/k4LgqMpVttU313VJ0jj6Iav5FN9d1ymauUM/XVSzWn557avKLVZW66qsJpKX08o66WE8+ahjlc4vJx7RErapmkm6VWd9bOaraqXvP5bVFOrY2RFffv8q/nPx+6W4urj8+tvnX8XHi19/64sPZ5dn1QTOs1lbPriqRBNpJJIoTkU4n2bjYCjyLU0S4SbDrHjxw3EFxVXbK51nK7PbFDfVJ5dYpvM4FDM3TuR5ELlpw1VT/nbWlc8+u8k/q9SY5SXaM9vlJZQJP252p5en+jNP9zzZG1ueHLnzIBWzOMrmMLnVFFs/HRz0+2dnWxveeAY4wAEOcIADHOAABzjAAQ5w/p44IplPs38CC0+qD4XnLhRRLD3QgAY0oAENaEADGtCABjSgAY2e5j6/Net/aG6CuQQOcIADHOAABzjAAQ5wgAMc4KyD8/TeQFu9N/BqTr03sGvnf2E7OdndPTwEKUhBClKQghSkIAUpSEEKUpCCFKRvg9TJSd2UIu3kpN2u4xzsgRSkIAUpSEEKUpCCFKQgBSlIQQrSt0HaVaTnsU+QOoc5qW3v73e7IAUpSEEKUpCCFKQgBSlIQQpSkIL0bZDuKtKvkzlFepCTHmZH7z1IQQpSkIIUpCAFKUhBClKQghSkIH0bpD1F+m/pUaT7Oenpab+/vw9SkIIUpCAFKUhBClKQghSkIAUpSN8G6V7+PxNzSZHu5aT9/t4eSEEKUpCCFKQgBSlIQQpSkIIUpCB9K6T7ivRTRO0s6PRy0oMDx+n1QApSkIIUpCAFKUhBClKQghSkIAVpbaQrFC927xulYg/t1E8DeTVxZ7Kdyoe0sfUhmsdJOcbiz2ee+lMZJn4UBjLJFUokdnbEiecJV+RK4t5PJyKJplJ43ZIzk7tx253NZOg1LOVtbZecsDrabprGDevBaoq9juFJi+wkp/pJSboIZIHXcsPhJIqz861AjgxolxqjKExb99IfT1KlcRMFXnWNom+uZq1P8yAd9INsjA6cwZfIG9iDb5+zH+cfLwe2uFokra44D+JW9vtw0joVH74Ew2naCqM465dvn8Xns/579bVUTkVXfLn6Ji6GQ/XdrW1dT7/bSYaxP0v/RX7n3Y7n370eJs+hxTIt4XvH1lClQT9rOdcPZTyw7a4l8vY8tjw/mQXu4sgPgyzWugmi4Y9fLBowUy2uQaSLWXa+atKdW/fOLT7VnqmOOzdWQ1YcC8+fzgLZDuX91d24Yf30CmRT7HY6+Y/SHFS6npu6mfD1H1bg3sjAOrI8OXKzrhazOBr5gbSaRWTwYB3Z7U7TunODuVz+PlRTVXZONvv0+2dn1mOzko7DpNNl0tll0ukx6ewx6ewz6Rww6Rwy6dgdLiGuEW1zDWmba0zbXIPa5hrVNtewtrnGtc01sG2uke1wjWyHba7mGtkO18h2jEa2SObT6Yt3V1da0WLpGciQbWQmQ7aQmQzZPmYyZN6byZBZbyZD5ryZDJnxZjJkvpvJ0AuZoQ7TOKaXMUMdppFML2KGOkxjmV7CDHWYRjO9gBnqMI1nevky1OGal5nGM712GepUH8/3fpiaL1s36qPqOmTzGOqQzWOoQzaPoQ6Z7oY6ZLob6pDpbqhDpruhDpnuhjr0+mUqxDWi6RXMVIhrTNNrmKkQ16imVzFTIa5xTa9jpkJcI5teyUyF2OZqrpFNL2amQtVH9tMfM0pfNkwtc50X/9Ar3kbMYOFs3qK7eYvdzVv0Nm+xt3mL/c1bHGze4nDzFi9W9k151JDfdg0JbteQ4XYNKW7XkON2DUlu15Dldg1pbteQ504Nee7UsY7XkOdODXnurJfnpe90rFZWFS99ZLCge4PNgu4MNgu6L9gs6CmXzYKecdks6AmXzYKeb9ks6OmWzUJTVvF51JDfmrKKz6OGDNeUVXweNeS4pqzi86ghyzVlFZ9HDXmuKav4POpYx2vIc01ZxeexXp6XvjqrWllVvFuLwYLuDTYLujPYLOi+YLOgp1w2C3rGZbOgJ1w2C3q+ZbOgp1s2C80NgXwe9B1VfB70zVZ8HvR9WHwe9C1afB70fYl8HvQti3we9N2MfB70jY58HjXkueb2SD6PGvJcc1Mln0cNK7mmrNJ5lL6hpFpZVbzChMGCLqvYLOjOYLOg+4LNgi6r2CzosorNgi6r2CzosorNgp5u2Sw0ZRWfBz3d8nnQ0y2fB11W8XnQZRWfB11W8XnQZRWfB11W8XnQZRWfRw15rimr+DxqyHNNWcXnUcNKrimrdB6lG8FXK6uKneIZLOiyis2C7gw2C7ov2CzosorNgi6r2CzosorNgi6r2Czo6ZbNQlNW8XnQ0y2fBz3d8nnQZRWfB11W8XnQZRWfB11W8XnQZRWfB11W8XnUkOeasorPo4Y815RVfB41rOSaskrnUbrfbrWyqtiQl8GCLqvYLOjOYLOg+4LNgi6r2CzosorNgi6r2CzosorNgp5u2Sw0ZRWfBz3d8nnQ0y2fB11W8XnQZRWfB11W8XnQZRWfB11W8XnQZRWfRw15rimr+DxqyHNNWcXnUcNKrimrdB6l2xpWK6uKfQ8ZLOiyis2C7gw2C7ov2CzosorNgi6r2CzosorNgi6r2Czo6ZbNQrvZGpeHbrcqLg/dRlZcHro9rrg8dNtfcXno9nzj8tBtB8flodspjstDt4kcl0cNea7deo7Lo4Y8125Yx+VRw0quKatWHt+r7PC63NFZHItQ3q92kM03jm0kd+NmvgNs6Vaxq22hE5m+j+ahlzR6naaw7V5TdNVvTq/adrMPGcbTbtee13dTOY7ixcmDnxTbKj9df4W9pzOBi9iT8eVc7XJc+UTFsXjJ8Um6yTyWBYbaqHnZ7hve9xthhBFGGGGEEUYYYYQRRhhhhBFGGGGEEUYYYYQRRhhhhBFGGGGEEUYYYYQRRhhhhBFGGGGEEUYYYYQRRhhhhBFGGGGEEUYY4b9VeNGO7mQc+5785KoHa+125y8+r6oejU1ePhp7JWNfJsvHa63m6gHiWRCl7cAPZekjsslrz+mWP1mbtPNXz8+iwE39KMygrCSVs9aNHEWxtKo9+fxRjmXovbyg4rPGXqcpuurJ5Y56kFn9sAI5ShVYifRKtj0Yy/QsTFX7ZBajeTjMSRvb4o8SiRWhfDr7uvRZbnX4I9FIJ37STvJeqWakjmcntbP2O3OHk8Z/gU3VVvjq0fGMfak7mEWJrwRPs4+rXM3qUDKvUMXRvRnSCssPPanyoWU3Dc9eHbfrnjjyZaDGW2PZpkWejONoPpOe+Pln8Y/l5w/twcRNls+/qwTbfh5dvBrNGqTtjsfnyqMdyHCcTsQ74Yj/E9ZJEFji6OU3ksAfykbL3r7ufN8uzbc/XUkUi8ZtdimdX8RtZrMcqktf9dk/sxnHvIPUoYbxUu/69nv7h1yI4+PjovHWU8xVl91+a3qpq+Mmlu6PdU5+NDzH9PuqvZZXd6yGtRoMy5GSb+TQHrhJ4o9D6fXVFhHJdd6S39drylVHz+bJpLFuX2RdelT05/qZFARHVa6yrb65rkuSxtEPWc2n+O66TtHMHfrpoprV8strX1VusbJaV2U1kbycVtZJD+PJRx2rdH458YiWsE3VTNKtOutjM19VK33/saymUMfOjvjy+1fxn4vfL8XVxeXX3z7/Kj5e/PpbX3w4uzyrJnCezdrywVUlmkgjkURxKsL5NBsHQ5FvaZIINxlmxYsfjisortpe6Txbmd2muKk+ucQyncehmLlxIs+DyE0brpryt7OufPbZTf5ZpcYsL9Ge2S4voUz4cbM7vTzVn3m658ne2PLkyJ0HqZjFUTaHya2m2Prp4KDfPzvb2vDGM8ABDnCAAxzgAAc4wAEOcIDz98QRyXya/RNYeFJ9KDx3oYhi6YEGNKABDWhAAxrQgAY0oAENaPQ09/mtWf9DcxPMJXCAAxzgAAc4wAEOcIADHOAAZx2cp/cG2uq9gVdz6r2BXTv/C9vJye7u4SFIQQpSkIIUpCAFKUhBClKQghSkIH0bpE5O6qYUaScn7XYd52APpCAFKUhBClKQghSkIAUpSEEKUpC+DdKuIj2PfYLUOcxJbXt/v9sFKUhBClKQghSkIAUpSEEKUpCCFKRvg3RXkX6dzCnSg5z0MDt670EKUpCCFKQgBSlIQQpSkIIUpCAF6dsg7SnSf0uPIt3PSU9P+/39fZCCFKQgBSlIQQpSkIIUpCAFKUhB+jZI9/L/mZhLinQvJ+339/ZAClKQghSkIAUpSEEKUpCCFKQgBelbId1XpJ8iamdBp5eTHhw4Tq8HUpCCFKQgBSlIQQpSkIIUpCAFKUhrI12heLF73ygVe2infhrIq4k7k+1UPqSNrQ/RPE7KMRZ/PvPUn8ow8aMwkEmuUCKxsyNOPE+4IlcS9346EUk0lcLrlpyZ3I3b7mwmQ69hKW9ru+SE1dF20zRuWA9WU+x1DE9aZCc51U9K0kUgC7yWGw4nUZydbwVyZEC71BhFYdq6l/54kiqNmyjwqmsUfXM1a32aB+mgH2RjdOAMvkRe9vPb54E9OP94ObDF1SJpdcV5ELey34eT1qn48CUYTtNWGMVZv3z7LD6f9d+rr6VyKrriy9U3cTEcqu9ubet6+t1OMoz9Wfov8jvvdjz/7vUweQ4tlmkJ3zu2hioN+lnLuX4o44Ft71oib89jy/OTWeAujvwwyGKtmyAa/vjFogEz1eIaRLqYZeerJt25de/c4lPtmeq4c2M1ZMWx8PzpLJDtUN5f3Y0b1k+vQDbFbqeT/yjNQaXruambCV//YQXujQysI8uTIzfrajGLo5EfSKtZRAYP1pHd7jStOzeYy+XvQzVVZedks0+/f3ZmPTYr6ThMOl0mnV0mnR6Tzh6Tzj6TzgGTziGTjt3hEuIa0TbXkLa5xrTNNahtrlFtcw1rm2tc21wD2+Ya2Q7XyHbY5mquke1wjWzHaGSLZD6dvnh3daUVLZaegQzZRmYyZAuZyZDtYyZD5r2ZDJn1ZjJkzpvJkBlvJkPmu5kMvZAZ6jCNY3oZM9RhGsn0ImaowzSW6SXMUIdpNNMLmKEO03imly9DHa55mWk802uXoU718Xzvh6n5snWjPqquQzaPoQ7ZPIY6ZPMY6pDpbqhDpruhDpnuhjpkuhvqkOluqEOvX6ZCXCOaXsFMhbjGNL2GmQpxjWp6FTMV4hrX9DpmKsQ1sumVzFSIba7mGtn0YmYqVH1kP/0xo/Rlw9Qy13nxD73ibcQMFs7mLbqbt9jdvEVv8xZ7m7fY37zFweYtDjdv8WJl35RHDflt15Dgdg0ZbteQ4nYNOW7XkOR2DVlu15Dmdg157tSQ504d63gNee7UkOfOenle+k7HamVV8dJHBgu6N9gs6M5gs6D7gs2CnnLZLOgZl82CnnDZLOj5ls2Cnm7ZLDRlFZ9HDfmtKav4PGrIcE1ZxedRQ45ryio+jxqyXFNW8XnUkOeasorPo451vIY815RVfB7r5Xnpq7OqlVXFu7UYLOjeYLOgO4PNgu4LNgt6ymWzoGdcNgt6wmWzoOdbNgt6umWz0NwQyOdB31HF50HfbMXnQd+HxedB36LF50Hfl8jnQd+yyOdB383I50Hf6MjnUUOea26P5POoIc81N1XyedSwkmvKKp1H6RtKqpVVxStMGCzosorNgu4MNgu6L9gs6LKKzYIuq9gs6LKKzYIuq9gs6OmWzUJTVvF50NMtnwc93fJ50GUVnwddVvF50GUVnwddVvF50GUVnwddVvF51JDnmrKKz6OGPNeUVXweNazkmrJK51G6EXy1sqrYKZ7Bgi6r2CzozmCzoPuCzYIuq9gs6LKKzYIuq9gs6LKKzYKebtksNGUVnwc93fJ50NMtnwddVvF50GUVnwddVvF50GUVnwddVvF50GUVn0cNea4pq/g8ashzTVnF51HDSq4pq3QepfvtViurig15GSzosorNgu4MNgu6L9gs6LKKzYIuq9gs6LKKzYIuq9gs6OmWzUJTVvF50NMtnwc93fJ50GUVnwddVvF50GUVnwddVvF50GUVnwddVvF51JDnmrKKz6OGPNeUVXweNazkmrJK51G6rWG1sqrY95DBgi6r2CzozmCzoPuCzYIuq9gs6LKKzYIuq9gs6LKKzYKebtkstJutcXnodqvi8tBtZMXlodvjistDt/0Vl4duzzcuD912cFweup3iuDx0m8hxedSQ59qt57g8ashz7YZ1XB41rOSasmrl8b3KDq/LHZ3FsQjl/WoH2Xzj2EZyN27mO8CWbhW72hY6ken7aB56SaPXaQrb7jVFV/3m9KptN/uQYTztdu15fTeV4yhenDz4SbGt8tP1V9h7OhO4iD0ZX87VLseVT1Qci5ccn6SbzGNZYKiNmpftvuF9vxFGGGGEEUYYYYQRRhhhhBFGGGGEEUYYYYQRRhhhhBFGGGGEEUYYYYQRRhhhhBFGGGGEEUYYYYQRRhhhhBFGGGGEEUYYYYQR/luFF+3oTsax78lPrnqw1m53/uLzqurR2OTlo7FXMvZlsny81mquHiCeBVHaDvxQlj4im7z2nG75k7VJO3/1/CwK3NSPwgzKSlI5a93IURRLq9qTzx/lWIbeywsqPmvsdZqiq55c7qgHmdUPK5CjVIGVSK9k24OxTM/CVLVPZjGah8OctLEt/iiRWBHKp7OvS5/lVoc/Eo104iftJO+VakbqeHZSO2u/M3c4afwX2FRtha8eHc/Yl7qDWZT4SvA0+7jK1awOJfMKVRzdmyGtsPzQkyofWnbT8OzVcbvuiSNfBmq8NZZtWuTJOI7mM+mJn38W/1h+/tAeTNxk+fy7SrDt59HFq9GsQdrueHyuPNqBDMfpRLwTjvg/YZ0EgSWOXn4jCfyhbLTs7evO9+3SfPvTlUSxaNxml9L5RdxmNsuhuvRVn/0zm3HMO0gdahgv9a5vv7d/yIU4Pj4uGm89xVx12e23ppe6Om5i6f5Y5+RHw3NMv6/aa3l1x2pYq8GwHCn5Rg7tgZsk/jiUXl9tEZFc5y35fb2mXHX0bJ5MGuv2RdalR0V/rp9JQXBU5Srb6pvruiRpHP2Q1XyK767rFM3coZ8uqlktv7z2VeUWK6t1VVYTyctpZZ30MJ581LFK55cTj2gJ21TNJN2qsz4281W10vcfy2oKdezsiC+/fxX/ufj9UlxdXH797fOv4uPFr7/1xYezy7NqAufZrC0fXFWiiTQSSRSnIpxPs3EwFPmWJolwk2FWvPjhuILiqu2VzrOV2W2Km+qTSyzTeRyKmRsn8jyI3LThqil/O+vKZ5/d5J9VaszyEu2Z7fISyoQfN7vTy1P9mad7nuyNLU+O3HmQilkcZXOY3GqKrZ8ODvr9s7OtDW88AxzgAAc4wAEOcIADHOAABzh/TxyRzKfZP4GFJ9WHwnMXiiiWHmhAAxrQgAY0oAENaEADGtCARk9zn9+a9T80N8FcAgc4wAEOcIADHOAABzjAAQ5w1sF5em+grd4beDWn3hvYtfO/sJ2c7O4eHoIUpCAFKUhBClKQghSkIAUpSEEK0rdB6uSkbkqRdnLSbtdxDvZAClKQghSkIAUpSEEKUpCCFKQgBenbIO0q0vPYJ0idw5zUtvf3u12QghSkIAUpSEEKUpCCFKQgBSlIQfo2SHcV6dfJnCI9yEkPs6P3HqQgBSlIQQpSkIIUpCAFKUhBClKQvg3SniL9t/Qo0v2c9PS039/fBylIQQpSkIIUpCAFKUhBClKQghSkb4N0L/+fibmkSPdy0n5/bw+kIAUpSEEKUpCCFKQgBSlIQQpSkL4V0n1F+imidhZ0ejnpwYHj9HogBSlIQQpSkIIUpCAFKUhBClKQgrQ20hWKF7v3jVKxh3bqp4G8mrgz2U7lQ9rY+hDN46QcY/HnM0/9qQwTPwoDmeQKJRI7O+LE84QrciVx76cTkURTKbxuyZnJ3bjtzmYy9BqW8ra2S05YHW03TeOG9WA1xV7H8KRFdpJT/aQkXQSywGu54XASxdn5ViBHBrRLjVEUpq176Y8nqdK4iQKvukbRN1ez1qd5kA76QTZGB87gS+QNuoNvnwf24Pzj5cAWV4uk1RXnQdzKfh9OWqfiw5dgOE1bYRRn/fLts/h81n+vvpbKqeiKL1ffxMVwqL67ta3r6Xc7yTD2Z+m/yO+82/H8u9fD5Dm0WKYlfO/YGqo06Gct5/qhjAe23bNE3p7Hlucns8BdHPlhkMVaN0E0/PGLRQNmqsU1iHQxy85XTbpz6965xafaM9Vx58ZqyIpj4fnTWSDboby/uhs3rJ9egWyK3U4n/1Gag0rXc1M3E77+wwrcGxlYR5YnR27W1WIWRyM/kFaziAwerCO73Wlad24wl8vfh2qqys7JZp9+/+zMemxW0nGYdLpMOrtMOj0mnT0mnX0mnQMmnUMmHbvDJcQ1om2uIW1zjWmba1DbXKPa5hrWNte4trkGts01sh2uke2wzdVcI9vhGtmO0cgWyXw6ffHu6korWiw9AxmyjcxkyBYykyHbx0yGzHszGTLrzWTInDeTITPeTIbMdzMZeiEz1GEax/QyZqjDNJLpRcxQh2ks00uYoQ7TaKYXMEMdpvFML1+GOlzzMtN4ptcuQ53q4/neD1PzZetGfVRdh2weQx2yeQx1yOYx1CHT3VCHTHdDHTLdDXXIdDfUIdPdUIdev0yFuEY0vYKZCnGNaXoNMxXiGtX0KmYqxDWu6XXMVIhrZNMrmakQ21zNNbLpxcxUqPrIfvpjRunLhqllrvPiH3rF24gZLJzNW3Q3b7G7eYve5i32Nm+xv3mLg81bHG7e4sXKvimPGvLbriHB7Roy3K4hxe0actyuIcntGrLcriHN7Rry3Kkhz5061vEa8typIc+d9fK89J2O1cqq4qWPDBZ0b7BZ0J3BZkH3BZsFPeWyWdAzLpsFPeGyWdDzLZsFPd2yWWjKKj6PGvJbU1bxedSQ4Zqyis+jhhzXlFV8HjVkuaas4vOoIc81ZRWfRx3reA15rimr+DzWy/PSV2dVK6uKd2sxWNC9wWZBdwabBd0XbBb0lMtmQc+4bBb0hMtmQc+3bBb0vVFsFpobAvk86Duq+Dzom634POj7sPg86Fu0+Dzo+xL5POhbFvk86LsZ+TzoGx35PGrIc01ZxedRxzpew0KuKav4PNZbykvfUFKtrCpeYcJgQfcGmwXdGWwWdF+wWdBlFZsFXVaxWdBlFZsFXVaxWdDTLZuFpqzi86DLKj4Puqzi86DLKj4Puqzi86DLKj4Puqzi86DLKj4Puqzi86ghzzVlFZ9HHet4DQu5pqzi81hvKS/dCL5aWVXsFM9gQfcGmwXdGWwWdF+wWdBlFZsFXVaxWdBlFZsFXVaxWdDTLZuFpqzi86DLKj4Puqzi86DLKj4Puqzi86DLKj4Puqzi86DLKj4Puqzi86ghzzVlFZ9HHet4DQu5pqzi81hvKS/db7daWVVsyMtgQfcGmwXdGWwWdF+wWdBlFZsFXVaxWdBlFZsFXVaxWdDTLZuFpqzi86DLKj4Puqzi86DLKj4Puqzi86DLKj4Puqzi86DLKj4Puqzi86ghzzVlFZ9HHet4DQu5pqzi81hvKS/d1rBaWVXse8hgQfcGmwXdGWwWdF+wWdBlFZsFXVaxWdBlFZsFXVaxWej2nWKy0G62xuWh262Ky0O3kRWXh26PKy4P3fZXXB66Pd+4PHTbwXF56HaK4/LQbSLH5VFDnmvKKj6POtbxGhZyTVnF51G+lH+vssPrckdncSxCeb/aQTbfOLaR3I2b+Q6wpVvFrraFTmT6PpqHXtLodZrCtntN0VW/Ob1q280+ZBhPu117Xt9N5TiKFycPflJsq/x0/RX2ns4ELmJPxpdztctx5RMVx+IlxyfpJvNYFhhqo+Zlu29432+EEUYYYYQRRhhhhBFGGGGEEUYYYYQRRhhhhBFGGGGEEUYYYYQRRhhhhBFGGGGEEUYYYYQRRhhhhBFGGGGEEUYYYYQRRhhhhP9W4UU7upNx7Hvyk6serLXbnb/4vKp6NDZ5+WjslYx9mSwfr7WaqweIZ0GUtgM/lKWPyCavPadb/mRt0s5fPT+LAjf1ozCDspJUzlo3chTF0qr25PNHOZah9/KCis8ae52m6KonlzvqQWb1wwrkKFVgJdIr2fZgLNOzMFXtk1mM5uEwJ21siz9KJFaE8uns69JnudXhj0QjnfhJO8l7pZqROp6d1M7a78wdThr/BTZVW+GrR8cz9qXuYBYlvhI8zT6ucjWrQ8m8QhVH92ZIKyw/9KTKh5bdNDx7ddyue+LIl4Eab41lmxZ5Mo6j+Ux64uefxT+Wnz+0BxM3WT7/rhJs+3l08Wo0a5C2Ox6fK492IMNxOhHvhCP+T1gnQWCJo5ffSAJ/KBste/u68327NN/+dCVRLBq32aV0fhG3mc1yqC591Wf/zGYc8w5ShxrGS73r2+/tH3Ihjo+Pi8ZbTzFXXXb7remlro6bWLo/1jn50fAc0++r9lpe3bEa1mowLEdKvpFDe+AmiT8OpddXW0Qk13lLfl+vKVcdPZsnk8a6fZF16VHRn+tnUhAcVbnKtvrmui5JGkc/ZDWf4rvrOkUzd+ini2pWyy+vfVW5xcpqXZXVRPJyWlknPYwnH3Ws0vnlxCNawjZVM0m36qyPzXxVrfT9x7KaQh07O+LL71/Ffy5+vxRXF5dff/v8q/h48etvffHh7PKsmsB5NmvLB1eVaCKNRBLFqQjn02wcDEW+pUki3GSYFS9+OK6guGp7pfNsZXab4qb65BLLdB6HYubGiTwPIjdtuGrK38668tlnN/lnlRqzvER7Zru8hDLhx83u9PJUf+bpnid7Y8uTI3cepGIWR9kcJreaYuung4N+/+xsa8MbzwAHOMABDnCAAxzgAAc4wAHO3xNHJPNp9k9g4Un1ofDchSKKpQca0IAGNKABDWhAAxrQgAY0oNHT3Oe3Zv0PzU0wl8ABDnCAAxzgAAc4wAEOcIADnHVwnt4baKv3Bl7NqfcGdu38L2wnJ7u7h4cgBSlIQQpSkIIUpCAFKUhBClKQgvRtkDo5qZtSpJ2ctNt1nIM9kIIUpCAFKUhBClKQghSkIAUpSEH6Nki7ivQ89glS5zAnte39/W4XpCAFKUhBClKQghSkIAUpSEEKUpC+DdJdRfp1MqdID3LSw+zovQcpSEEKUpCCFKQgBSlIQQpSkIIUpG+DtKdI/y09inQ/Jz097ff390EKUpCCFKQgBSlIQQpSkIIUpCAF6dsg3cv/Z2IuKdK9nLTf39sDKUhBClKQghSkIAUpSEEKUpCCFKRvhXRfkX6KqJ0FnV5OenDgOL0eSEEKUpCCFKQgBSlIQQpSkIIUpCCtjXSF4sXufaNU7KGd+mkgrybuTLZT+ZA2tj5E8zgpx1j8+cxTfyrDxI/CQCa5QonEzo448TzhilxJ3PvpRCTRVAqvW3Jmcjduu7OZDL2Gpbyt7ZITVkfbTdO4YT1YTbHXMTxpkZ3kVD8pSReBLPBabjicRHF2vhXIkQHtUmMUhWnrXvrjSao0bqLAq65R9M3VrHUxGvlDmQy+fR7Yg/OPlwNbXC2SVlecB3Er+304aZ2ID1+C4TRtSTdJxbfP4vNZ/736Viqnoiu+XH0TF8Oh+urWtq533+0kw9ifpf8iv/Nux/PvXg+T59BimZbwvWNrqIZ+P2st1w9lPLDtPUvkbXhseX4yC9zFkR8GWax1E0TDH79YNGCmWlyDSBez7HzVjDu37p1bfKo9Ux13bqyGqTgWnj+dBbIdyvuru3HD+ukVyKbY7XTyH6V5p3Q9N3Uz4es/rMC9kYF1ZHly5M6DVMziaOQH0moWkcGDdWS3O03rzg3m0jraO2wfPjsODpvWUE1WmUI2//T7Z2fWY7OSqrMR1e5GVHc3otrbiOreRlT3N6J6sBHVw42o2p3NyG4mu+zNpJe9mfyyN5Ng9mYyzN5MitmbyTF7M0lmbybLnM1kmbOhNWwzWeZsJsucv5BlIplPpy/e/71GhRBLz0C0YtuaiVZsWTPRiu1qJlpx7jITrThzmYlWnLfMRCvOWmaiFecsM9GqhYGh6kZyqmpZYKi6kayqWhQYqm4kr6qWBIaqG8msqgWBoepGcqtqOWCoupn1aiO5VbUWMFRdN7fu/TD9q2XAjfpCddWKzWqoWrFZDVUrNquhasUpy1C14pRlqFpxyjJUrThlGapWnLIMVavWA6aym8muqhWBqexm8qtqTWAqu5kMq1oVmMpuJseq1gWmspvJsqqVganshtawzWRZ1eLAVNYoy75X+YPD8o+K4liE8n71B4387xiN5G7czP8gUfqXi9VfJhOZvo/moZc0ep2msO1eU3TVb06v2l8/HjKMpz+4el7fTeU4ihcnD35S/GXvqSkq/PkzE7iIPRn/fztn1Nu2DUXh9/0KLg+FjMVq5G7Nli0bitVuC7RNkaYoiiAIZJu25ciSIEptjSL/fbwy5VlJOEsi0cTY4UPs6EqHH6lLUgiVc5rTRlvtC4ljWeV4w32Rp3yFQXuF6haYbugWG0nVqt7zNOBC4cqa1A1JwjhzaXdra5XirnZvJxVukXdJHPpZEEcSak9kPOkO+SRO+V69THrNpzwaVxu0OuY8lVnwhDKBNsM8+qH2S7duJZey7uWUZ/0oo/6RVUzyaFSQOh32rcaGKRHy9dXnW8cGlWDCnGwWCJnXdF29iqhsXOTK/uv7o5nzL3BTtRJf7Q0q3cskFgEJPpeH67SmLCRzB1Uaf2mGVGIF0ZjTwO16+w2vLsu87YWTgIeUb47q09U4maZxnvAxe/SI/aiOf3UvZ75Q8wkNsM5mdHlnVHaI60+nA6rDDXk0zWbsD9Zjf7G9Z2G4x46qZ4gwGHGn63XODy46W8fbrZbEKXPmsikHv7O5rEalqqqXjv10zLzmN4gKpbHSO59fuFdcTm/Hx6vOa6dYqKrbPm/a1LIMU+5ftbn4uuE1Tc+n/lKtO6a0pmRQmVIsjO7l6mUgPi5eBxLnRU9etOvK8kYnuZg5be+FvKVHq/vZfiSF4VGdVrp0ZttaRJbGV7xePatz29YUJ/4oyJb1qlInt25VUUVZVVuVciKpTitthkfjyYdKOZyrEw/rMq+pWpPhVp/1er9YVWudf73tmYLK48fs3Ycz9unkwyl7f3J69urtC/b65MWrv9nL/mm/nsBAztr8q0+PaCyLmYjlg3SUL2QejFjxiCiYL0by4SWIpjUUy74nnY2V2d9nw/qTS8qzPI1Y4qeCD8LYzxyfpvyOvJUbx4bFsVqduf0RbaNa1YRtwtf38NLmjQ1Y9WYmbajeyzukwAEOcIADHOAABzjAAQ5wgLPzOLdfcCGilI9BAxrQgAY0oAENaEADGtCABjT/TXPrlUCioVf8gAMc4AAHOMABDnCAAxzgAAc492iVeMYXCU/9LE85cwYdmCU+KLPEjz5l3EtefDxbDAMeZYxuGTkf8nEu+7/LDg8GO2KCeLgLJoiH380EsfjX07YmTJZ0nljS+dmSzi+WdJ5a0jm0pPOrJZ3fLOlU3AWMhGxltGcrpT1bOe3ZSmrPVlZ7ttLas5XXnq3E9mxlds9WZveszdW2MrtnK7N7jTK7vmlfRaq9TZ+BjLaH2lvxGchox317uz0DGe2Yb2+pZyCjHe8GtnkmOpbyWL+MGZjhmehYSmX9GmZgcWeiYymb9QuYgXGdyTxoKZ/1q5eBHZ2JjqV81i9d7U3mKjIGtnImOtruMbCOM9HRDncDezgTHe1wN7CAM9HRDncTmzcjIVsZrV/BTMzbjIRsJbV+ETOxZDMSspXX+nXMxGjNaGa0ldn6pczEPs1IyFZm61czmKLthCkawggjjDDCCCOMMMIII4wwwggjjDDCDym8dOPPPE2DMX/j0x+qPPcApvgbLYEp/rrAFL9RgSk+TPEbFJji3ywwxb9ZYIrfsMAUH6b4dxaY4gMHOMABDnCAAxzgAAc4wAEOcHbBUhI0oAENaEADGtCABjSgAQ1odofmf2NlCRzgAAc4wAEOcIADHOAABzjt67sHU/znwYJHIoijkAsBS/yHZYkfp1esP5kEo4BHo+XaCP/7WuCrs29ENn8vv68+1+rqy/pjGI+X9DnLFuGfP/wDasGfqA=="
               },
               {
                  "name" : "annual_peak_electric_demand",
                  "units" : "kW",
                  "value" : 983.25185999999997
               },
               {
                  "name" : "first_year_capital_cost",
                  "units" : "$",
                  "value" : 0
               },
               {
                  "name" : "annual_utility_cost",
                  "units" : "$",
                  "value" : 0
               },
               {
                  "name" : "total_lifecycle_cost",
                  "units" : "$",
                  "value" : 0
               }
            ],
            "step_warnings" : [ "A table in Annual Overview section returned false and was skipped." ]
         }
      }
   ],
   "updated_at" : "20170710T185646Z",
   "weather_file" : "USA_CO_Denver.Intl.AP.725650_TMY3.epw"
}
