{
   "completed_at" : "20170710T184505Z",
   "completed_status" : "Success",
   "created_at" : "2017-07-10 18:27:42 +0000",
   "current_step" : 5,
   "description" : "",
   "eplusout_err" : "Program Version,EnergyPlus, Version 8.7.0-78a111df4a, YMD=2017.07.10 18:32,IDD_Version 8.7.0\n   ************* IDF Context for following error/warning message:\n   ************* Note -- lines truncated at 300 characters, if necessary...\n   *************      5 Building,\n   ************* indicated Name=NECB 2011-HighriseApartment-NECB HDD Method-CAN_MB_The.Pas.718670_CWEC.epw created: 2017-07-10 18:27:51 +0000\n   ************* Only last 1 lines before error line shown.....\n   *************      6   NECB 2011-HighriseApartment-NECB HDD Method-CAN_MB_The.Pas.718670_CWEC.epw created: 2017-07-10 18:27:51 +0000, !- Name\n   ** Warning ** IP: IDF line~6 Alpha Argument length exceeds maximum, will be truncated=  NECB 2011-HighriseApartment-NECB HDD Method-CAN_MB_The.Pas.718670_CWEC.epw created: 2017-07-10 18:27:51 +000\n   **   ~~~   ** Will be processed as Alpha=NECB 2011-HIGHRISEAPARTMENT-NECB HDD METHOD-CAN_MB_THE.PAS.718670_CWEC.EPW CREATED: 2017-07-10 18:27:51 +0000\n   ************* Beginning Zone Sizing Calculations\n   ** Warning ** ProcessScheduleInput: Schedule:Day:Interval=\"ECONOMIZER MAX OA FRACTION 100 PCT DEFAULT\", Blank Schedule Type Limits Name input -- will not be validated.\n   ** Warning ** ProcessScheduleInput: Schedule:Day:Interval=\"SCHEDULE DAY 1\", Blank Schedule Type Limits Name input -- will not be validated.\n   ** Warning ** ProcessScheduleInput: Schedule:Day:Interval=\"SCHEDULE DAY 10\", Blank Schedule Type Limits Name input -- will not be validated.\n   ** Warning ** ProcessScheduleInput: Schedule:Day:Interval=\"SCHEDULE DAY 100\", Blank Schedule Type Limits Name input -- will not be validated.\n   ** Warning ** ProcessScheduleInput: Schedule:Day:Interval=\"SCHEDULE DAY 101\", Blank Schedule Type Limits Name input -- will not be validated.\n   ** Warning ** ProcessScheduleInput: Schedule:Day:Interval=\"SCHEDULE DAY 102\", Blank Schedule Type Limits Name input -- will not be validated.\n   ** Warning ** ProcessScheduleInput: Schedule:Day:Interval=\"SCHEDULE DAY 103\", Blank Schedule Type Limits Name input -- will not be validated.\n   ** Warning ** ProcessScheduleInput: Schedule:Day:Interval=\"SCHEDULE DAY 104\", Blank Schedule Type Limits Name input -- will not be validated.\n   ** Warning ** ProcessScheduleInput: Schedule:Day:Interval=\"SCHEDULE DAY 105\", Blank Schedule Type Limits Name input -- will not be validated.\n   ** Warning ** ProcessScheduleInput: Schedule:Day:Interval=\"SCHEDULE DAY 106\", Blank Schedule Type Limits Name input -- will not be validated.\n   ** Warning ** ProcessScheduleInput: Schedule:Day:Interval=\"SCHEDULE DAY 107\", Blank Schedule Type Limits Name input -- will not be validated.\n   ** Warning ** ProcessScheduleInput: Schedule:Day:Interval=\"SCHEDULE DAY 108\", Blank Schedule Type Limits Name input -- will not be validated.\n   ** Warning ** ProcessScheduleInput: Schedule:Day:Interval=\"SCHEDULE DAY 109\", Blank Schedule Type Limits Name input -- will not be validated.\n   ** Warning ** ProcessScheduleInput: Schedule:Day:Interval=\"SCHEDULE DAY 11\", Blank Schedule Type Limits Name input -- will not be validated.\n   ** Warning ** ProcessScheduleInput: Schedule:Day:Interval=\"SCHEDULE DAY 110\", Blank Schedule Type Limits Name input -- will not be validated.\n   ** Warning ** ProcessScheduleInput: Schedule:Day:Interval=\"SCHEDULE DAY 111\", Blank Schedule Type Limits Name input -- will not be validated.\n   ** Warning ** ProcessScheduleInput: Schedule:Day:Interval=\"SCHEDULE DAY 112\", Blank Schedule Type Limits Name input -- will not be validated.\n   ** Warning ** ProcessScheduleInput: Schedule:Day:Interval=\"SCHEDULE DAY 113\", Blank Schedule Type Limits Name input -- will not be validated.\n   ** Warning ** ProcessScheduleInput: Schedule:Day:Interval=\"SCHEDULE DAY 114\", Blank Schedule Type Limits Name input -- will not be validated.\n   ** Warning ** ProcessScheduleInput: Schedule:Day:Interval=\"SCHEDULE DAY 115\", Blank Schedule Type Limits Name input -- will not be validated.\n   ** Warning ** ProcessScheduleInput: Schedule:Day:Interval=\"SCHEDULE DAY 116\", Blank Schedule Type Limits Name input -- will not be validated.\n   ** Warning ** ProcessScheduleInput: Schedule:Day:Interval=\"SCHEDULE DAY 117\", Blank Schedule Type Limits Name input -- will not be validated.\n   ** Warning ** ProcessScheduleInput: Schedule:Day:Interval=\"SCHEDULE DAY 118\", Blank Schedule Type Limits Name input -- will not be validated.\n   ** Warning ** ProcessScheduleInput: Schedule:Day:Interval=\"SCHEDULE DAY 119\", Blank Schedule Type Limits Name input -- will not be validated.\n   ** Warning ** ProcessScheduleInput: Schedule:Day:Interval=\"SCHEDULE DAY 12\", Blank Schedule Type Limits Name input -- will not be validated.\n   ** Warning ** ProcessScheduleInput: Schedule:Day:Interval=\"SCHEDULE DAY 120\", Blank Schedule Type Limits Name input -- will not be validated.\n   ** Warning ** ProcessScheduleInput: Schedule:Day:Interval=\"SCHEDULE DAY 121\", Blank Schedule Type Limits Name input -- will not be validated.\n   ** Warning ** ProcessScheduleInput: Schedule:Day:Interval=\"SCHEDULE DAY 122\", Blank Schedule Type Limits Name input -- will not be validated.\n   ** Warning ** ProcessScheduleInput: Schedule:Day:Interval=\"SCHEDULE DAY 123\", Blank Schedule Type Limits Name input -- will not be validated.\n   ** Warning ** ProcessScheduleInput: Schedule:Day:Interval=\"SCHEDULE DAY 124\", Blank Schedule Type Limits Name input -- will not be validated.\n   ** Warning ** ProcessScheduleInput: Schedule:Day:Interval=\"SCHEDULE DAY 125\", Blank Schedule Type Limits Name input -- will not be validated.\n   ** Warning ** ProcessScheduleInput: Schedule:Day:Interval=\"SCHEDULE DAY 126\", Blank Schedule Type Limits Name input -- will not be validated.\n   ** Warning ** ProcessScheduleInput: Schedule:Day:Interval=\"SCHEDULE DAY 127\", Blank Schedule Type Limits Name input -- will not be validated.\n   ** Warning ** ProcessScheduleInput: Schedule:Day:Interval=\"SCHEDULE DAY 128\", Blank Schedule Type Limits Name input -- will not be validated.\n   ** Warning ** ProcessScheduleInput: Schedule:Day:Interval=\"SCHEDULE DAY 129\", Blank Schedule Type Limits Name input -- will not be validated.\n   ** Warning ** ProcessScheduleInput: Schedule:Day:Interval=\"SCHEDULE DAY 13\", Blank Schedule Type Limits Name input -- will not be validated.\n   ** Warning ** ProcessScheduleInput: Schedule:Day:Interval=\"SCHEDULE DAY 130\", Blank Schedule Type Limits Name input -- will not be validated.\n   ** Warning ** ProcessScheduleInput: Schedule:Day:Interval=\"SCHEDULE DAY 131\", Blank Schedule Type Limits Name input -- will not be validated.\n   ** Warning ** ProcessScheduleInput: Schedule:Day:Interval=\"SCHEDULE DAY 132\", Blank Schedule Type Limits Name input -- will not be validated.\n   ** Warning ** ProcessScheduleInput: Schedule:Day:Interval=\"SCHEDULE DAY 133\", Blank Schedule Type Limits Name input -- will not be validated.\n   ** Warning ** ProcessScheduleInput: Schedule:Day:Interval=\"SCHEDULE DAY 134\", Blank Schedule Type Limits Name input -- will not be validated.\n   ** Warning ** ProcessScheduleInput: Schedule:Day:Interval=\"SCHEDULE DAY 135\", Blank Schedule Type Limits Name input -- will not be validated.\n   ** Warning ** ProcessScheduleInput: Schedule:Day:Interval=\"SCHEDULE DAY 136\", Blank Schedule Type Limits Name input -- will not be validated.\n   ** Warning ** ProcessScheduleInput: Schedule:Day:Interval=\"SCHEDULE DAY 137\", Blank Schedule Type Limits Name input -- will not be validated.\n   ** Warning ** ProcessScheduleInput: Schedule:Day:Interval=\"SCHEDULE DAY 138\", Blank Schedule Type Limits Name input -- will not be validated.\n   ** Warning ** ProcessScheduleInput: Schedule:Day:Interval=\"SCHEDULE DAY 139\", Blank Schedule Type Limits Name input -- will not be validated.\n   ** Warning ** ProcessScheduleInput: Schedule:Day:Interval=\"SCHEDULE DAY 14\", Blank Schedule Type Limits Name input -- will not be validated.\n   ** Warning ** ProcessScheduleInput: Schedule:Day:Interval=\"SCHEDULE DAY 140\", Blank Schedule Type Limits Name input -- will not be validated.\n   ** Warning ** ProcessScheduleInput: Schedule:Day:Interval=\"SCHEDULE DAY 141\", Blank Schedule Type Limits Name input -- will not be validated.\n   ** Warning ** ProcessScheduleInput: Schedule:Day:Interval=\"SCHEDULE DAY 142\", Blank Schedule Type Limits Name input -- will not be validated.\n   ** Warning ** ProcessScheduleInput: Schedule:Day:Interval=\"SCHEDULE DAY 143\", Blank Schedule Type Limits Name input -- will not be validated.\n   ** Warning ** ProcessScheduleInput: Schedule:Day:Interval=\"SCHEDULE DAY 144\", Blank Schedule Type Limits Name input -- will not be validated.\n   ** Warning ** ProcessScheduleInput: Schedule:Day:Interval=\"SCHEDULE DAY 145\", Blank Schedule Type Limits Name input -- will not be validated.\n   ** Warning ** ProcessScheduleInput: Schedule:Day:Interval=\"SCHEDULE DAY 146\", Blank Schedule Type Limits Name input -- will not be validated.\n   ** Warning ** ProcessScheduleInput: Schedule:Day:Interval=\"SCHEDULE DAY 147\", Blank Schedule Type Limits Name input -- will not be validated.\n   ** Warning ** ProcessScheduleInput: Schedule:Day:Interval=\"SCHEDULE DAY 148\", Blank Schedule Type Limits Name input -- will not be validated.\n   ** Warning ** ProcessScheduleInput: Schedule:Day:Interval=\"SCHEDULE DAY 149\", Blank Schedule Type Limits Name input -- will not be validated.\n   ** Warning ** ProcessScheduleInput: Schedule:Day:Interval=\"SCHEDULE DAY 15\", Blank Schedule Type Limits Name input -- will not be validated.\n   ** Warning ** ProcessScheduleInput: Schedule:Day:Interval=\"SCHEDULE DAY 150\", Blank Schedule Type Limits Name input -- will not be validated.\n   ** Warning ** ProcessScheduleInput: Schedule:Day:Interval=\"SCHEDULE DAY 151\", Blank Schedule Type Limits Name input -- will not be validated.\n   ** Warning ** ProcessScheduleInput: Schedule:Day:Interval=\"SCHEDULE DAY 152\", Blank Schedule Type Limits Name input -- will not be validated.\n   ** Warning ** ProcessScheduleInput: Schedule:Day:Interval=\"SCHEDULE DAY 153\", Blank Schedule Type Limits Name input -- will not be validated.\n   ** Warning ** ProcessScheduleInput: Schedule:Day:Interval=\"SCHEDULE DAY 154\", Blank Schedule Type Limits Name input -- will not be validated.\n   ** Warning ** ProcessScheduleInput: Schedule:Day:Interval=\"SCHEDULE DAY 155\", Blank Schedule Type Limits Name input -- will not be validated.\n   ** Warning ** ProcessScheduleInput: Schedule:Day:Interval=\"SCHEDULE DAY 156\", Blank Schedule Type Limits Name input -- will not be validated.\n   ** Warning ** ProcessScheduleInput: Schedule:Day:Interval=\"SCHEDULE DAY 157\", Blank Schedule Type Limits Name input -- will not be validated.\n   ** Warning ** ProcessScheduleInput: Schedule:Day:Interval=\"SCHEDULE DAY 158\", Blank Schedule Type Limits Name input -- will not be validated.\n   ** Warning ** ProcessScheduleInput: Schedule:Day:Interval=\"SCHEDULE DAY 159\", Blank Schedule Type Limits Name input -- will not be validated.\n   ** Warning ** ProcessScheduleInput: Schedule:Day:Interval=\"SCHEDULE DAY 16\", Blank Schedule Type Limits Name input -- will not be validated.\n   ** Warning ** ProcessScheduleInput: Schedule:Day:Interval=\"SCHEDULE DAY 160\", Blank Schedule Type Limits Name input -- will not be validated.\n   ** Warning ** ProcessScheduleInput: Schedule:Day:Interval=\"SCHEDULE DAY 161\", Blank Schedule Type Limits Name input -- will not be validated.\n   ** Warning ** ProcessScheduleInput: Schedule:Day:Interval=\"SCHEDULE DAY 162\", Blank Schedule Type Limits Name input -- will not be validated.\n   ** Warning ** ProcessScheduleInput: Schedule:Day:Interval=\"SCHEDULE DAY 163\", Blank Schedule Type Limits Name input -- will not be validated.\n   ** Warning ** ProcessScheduleInput: Schedule:Day:Interval=\"SCHEDULE DAY 164\", Blank Schedule Type Limits Name input -- will not be validated.\n   ** Warning ** ProcessScheduleInput: Schedule:Day:Interval=\"SCHEDULE DAY 165\", Blank Schedule Type Limits Name input -- will not be validated.\n   ** Warning ** ProcessScheduleInput: Schedule:Day:Interval=\"SCHEDULE DAY 166\", Blank Schedule Type Limits Name input -- will not be validated.\n   ** Warning ** ProcessScheduleInput: Schedule:Day:Interval=\"SCHEDULE DAY 167\", Blank Schedule Type Limits Name input -- will not be validated.\n   ** Warning ** ProcessScheduleInput: Schedule:Day:Interval=\"SCHEDULE DAY 168\", Blank Schedule Type Limits Name input -- will not be validated.\n   ** Warning ** ProcessScheduleInput: Schedule:Day:Interval=\"SCHEDULE DAY 169\", Blank Schedule Type Limits Name input -- will not be validated.\n   ** Warning ** ProcessScheduleInput: Schedule:Day:Interval=\"SCHEDULE DAY 17\", Blank Schedule Type Limits Name input -- will not be validated.\n   ** Warning ** ProcessScheduleInput: Schedule:Day:Interval=\"SCHEDULE DAY 170\", Blank Schedule Type Limits Name input -- will not be validated.\n   ** Warning ** ProcessScheduleInput: Schedule:Day:Interval=\"SCHEDULE DAY 171\", Blank Schedule Type Limits Name input -- will not be validated.\n   ** Warning ** ProcessScheduleInput: Schedule:Day:Interval=\"SCHEDULE DAY 172\", Blank Schedule Type Limits Name input -- will not be validated.\n   ** Warning ** ProcessScheduleInput: Schedule:Day:Interval=\"SCHEDULE DAY 173\", Blank Schedule Type Limits Name input -- will not be validated.\n   ** Warning ** ProcessScheduleInput: Schedule:Day:Interval=\"SCHEDULE DAY 174\", Blank Schedule Type Limits Name input -- will not be validated.\n   ** Warning ** ProcessScheduleInput: Schedule:Day:Interval=\"SCHEDULE DAY 175\", Blank Schedule Type Limits Name input -- will not be validated.\n   ** Warning ** ProcessScheduleInput: Schedule:Day:Interval=\"SCHEDULE DAY 176\", Blank Schedule Type Limits Name input -- will not be validated.\n   ** Warning ** ProcessScheduleInput: Schedule:Day:Interval=\"SCHEDULE DAY 177\", Blank Schedule Type Limits Name input -- will not be validated.\n   ** Warning ** ProcessScheduleInput: Schedule:Day:Interval=\"SCHEDULE DAY 178\", Blank Schedule Type Limits Name input -- will not be validated.\n   ** Warning ** ProcessScheduleInput: Schedule:Day:Interval=\"SCHEDULE DAY 179\", Blank Schedule Type Limits Name input -- will not be validated.\n   ** Warning ** ProcessScheduleInput: Schedule:Day:Interval=\"SCHEDULE DAY 18\", Blank Schedule Type Limits Name input -- will not be validated.\n   ** Warning ** ProcessScheduleInput: Schedule:Day:Interval=\"SCHEDULE DAY 180\", Blank Schedule Type Limits Name input -- will not be validated.\n   ** Warning ** ProcessScheduleInput: Schedule:Day:Interval=\"SCHEDULE DAY 181\", Blank Schedule Type Limits Name input -- will not be validated.\n   ** Warning ** ProcessScheduleInput: Schedule:Day:Interval=\"SCHEDULE DAY 182\", Blank Schedule Type Limits Name input -- will not be validated.\n   ** Warning ** ProcessScheduleInput: Schedule:Day:Interval=\"SCHEDULE DAY 183\", Blank Schedule Type Limits Name input -- will not be validated.\n   ** Warning ** ProcessScheduleInput: Schedule:Day:Interval=\"SCHEDULE DAY 184\", Blank Schedule Type Limits Name input -- will not be validated.\n   ** Warning ** ProcessScheduleInput: Schedule:Day:Interval=\"SCHEDULE DAY 185\", Blank Schedule Type Limits Name input -- will not be validated.\n   ** Warning ** ProcessScheduleInput: Schedule:Day:Interval=\"SCHEDULE DAY 186\", Blank Schedule Type Limits Name input -- will not be validated.\n   ** Warning ** ProcessScheduleInput: Schedule:Day:Interval=\"SCHEDULE DAY 187\", Blank Schedule Type Limits Name input -- will not be validated.\n   ** Warning ** ProcessScheduleInput: Schedule:Day:Interval=\"SCHEDULE DAY 188\", Blank Schedule Type Limits Name input -- will not be validated.\n   ** Warning ** ProcessScheduleInput: Schedule:Day:Interval=\"SCHEDULE DAY 189\", Blank Schedule Type Limits Name input -- will not be validated.\n   ** Warning ** ProcessScheduleInput: Schedule:Day:Interval=\"SCHEDULE DAY 19\", Blank Schedule Type Limits Name input -- will not be validated.\n   ** Warning ** ProcessScheduleInput: Schedule:Day:Interval=\"SCHEDULE DAY 190\", Blank Schedule Type Limits Name input -- will not be validated.\n   ** Warning ** ProcessScheduleInput: Schedule:Day:Interval=\"SCHEDULE DAY 191\", Blank Schedule Type Limits Name input -- will not be validated.\n   ** Warning ** ProcessScheduleInput: Schedule:Day:Interval=\"SCHEDULE DAY 192\", Blank Schedule Type Limits Name input -- will not be validated.\n   ** Warning ** ProcessScheduleInput: Schedule:Day:Interval=\"SCHEDULE DAY 193\", Blank Schedule Type Limits Name input -- will not be validated.\n   ** Warning ** ProcessScheduleInput: Schedule:Day:Interval=\"SCHEDULE DAY 194\", Blank Schedule Type Limits Name input -- will not be validated.\n   ** Warning ** ProcessScheduleInput: Schedule:Day:Interval=\"SCHEDULE DAY 195\", Blank Schedule Type Limits Name input -- will not be validated.\n   ** Warning ** ProcessScheduleInput: Schedule:Day:Interval=\"SCHEDULE DAY 196\", Blank Schedule Type Limits Name input -- will not be validated.\n   ** Warning ** ProcessScheduleInput: Schedule:Day:Interval=\"SCHEDULE DAY 197\", Blank Schedule Type Limits Name input -- will not be validated.\n   ** Warning ** ProcessScheduleInput: Schedule:Day:Interval=\"SCHEDULE DAY 198\", Blank Schedule Type Limits Name input -- will not be validated.\n   ** Warning ** ProcessScheduleInput: Schedule:Day:Interval=\"SCHEDULE DAY 199\", Blank Schedule Type Limits Name input -- will not be validated.\n   ** Warning ** ProcessScheduleInput: Schedule:Day:Interval=\"SCHEDULE DAY 2\", Blank Schedule Type Limits Name input -- will not be validated.\n   ** Warning ** ProcessScheduleInput: Schedule:Day:Interval=\"SCHEDULE DAY 20\", Blank Schedule Type Limits Name input -- will not be validated.\n   ** Warning ** ProcessScheduleInput: Schedule:Day:Interval=\"SCHEDULE DAY 200\", Blank Schedule Type Limits Name input -- will not be validated.\n   ** Warning ** ProcessScheduleInput: Schedule:Day:Interval=\"SCHEDULE DAY 201\", Blank Schedule Type Limits Name input -- will not be validated.\n   ** Warning ** ProcessScheduleInput: Schedule:Day:Interval=\"SCHEDULE DAY 202\", Blank Schedule Type Limits Name input -- will not be validated.\n   ** Warning ** ProcessScheduleInput: Schedule:Day:Interval=\"SCHEDULE DAY 203\", Blank Schedule Type Limits Name input -- will not be validated.\n   ** Warning ** ProcessScheduleInput: Schedule:Day:Interval=\"SCHEDULE DAY 204\", Blank Schedule Type Limits Name input -- will not be validated.\n   ** Warning ** ProcessScheduleInput: Schedule:Day:Interval=\"SCHEDULE DAY 205\", Blank Schedule Type Limits Name input -- will not be validated.\n   ** Warning ** ProcessScheduleInput: Schedule:Day:Interval=\"SCHEDULE DAY 206\", Blank Schedule Type Limits Name input -- will not be validated.\n   ** Warning ** ProcessScheduleInput: Schedule:Day:Interval=\"SCHEDULE DAY 207\", Blank Schedule Type Limits Name input -- will not be validated.\n   ** Warning ** ProcessScheduleInput: Schedule:Day:Interval=\"SCHEDULE DAY 208\", Blank Schedule Type Limits Name input -- will not be validated.\n   ** Warning ** ProcessScheduleInput: Schedule:Day:Interval=\"SCHEDULE DAY 209\", Blank Schedule Type Limits Name input -- will not be validated.\n   ** Warning ** ProcessScheduleInput: Schedule:Day:Interval=\"SCHEDULE DAY 21\", Blank Schedule Type Limits Name input -- will not be validated.\n   ** Warning ** ProcessScheduleInput: Schedule:Day:Interval=\"SCHEDULE DAY 210\", Blank Schedule Type Limits Name input -- will not be validated.\n   ** Warning ** ProcessScheduleInput: Schedule:Day:Interval=\"SCHEDULE DAY 211\", Blank Schedule Type Limits Name input -- will not be validated.\n   ** Warning ** ProcessScheduleInput: Schedule:Day:Interval=\"SCHEDULE DAY 212\", Blank Schedule Type Limits Name input -- will not be validated.\n   ** Warning ** ProcessScheduleInput: Schedule:Day:Interval=\"SCHEDULE DAY 213\", Blank Schedule Type Limits Name input -- will not be validated.\n   ** Warning ** ProcessScheduleInput: Schedule:Day:Interval=\"SCHEDULE DAY 214\", Blank Schedule Type Limits Name input -- will not be validated.\n   ** Warning ** ProcessScheduleInput: Schedule:Day:Interval=\"SCHEDULE DAY 215\", Blank Schedule Type Limits Name input -- will not be validated.\n   ** Warning ** ProcessScheduleInput: Schedule:Day:Interval=\"SCHEDULE DAY 216\", Blank Schedule Type Limits Name input -- will not be validated.\n   ** Warning ** ProcessScheduleInput: Schedule:Day:Interval=\"SCHEDULE DAY 217\", Blank Schedule Type Limits Name input -- will not be validated.\n   ** Warning ** ProcessScheduleInput: Schedule:Day:Interval=\"SCHEDULE DAY 218\", Blank Schedule Type Limits Name input -- will not be validated.\n   ** Warning ** ProcessScheduleInput: Schedule:Day:Interval=\"SCHEDULE DAY 219\", Blank Schedule Type Limits Name input -- will not be validated.\n   ** Warning ** ProcessScheduleInput: Schedule:Day:Interval=\"SCHEDULE DAY 22\", Blank Schedule Type Limits Name input -- will not be validated.\n   ** Warning ** ProcessScheduleInput: Schedule:Day:Interval=\"SCHEDULE DAY 220\", Blank Schedule Type Limits Name input -- will not be validated.\n   ** Warning ** ProcessScheduleInput: Schedule:Day:Interval=\"SCHEDULE DAY 221\", Blank Schedule Type Limits Name input -- will not be validated.\n   ** Warning ** ProcessScheduleInput: Schedule:Day:Interval=\"SCHEDULE DAY 222\", Blank Schedule Type Limits Name input -- will not be validated.\n   ** Warning ** ProcessScheduleInput: Schedule:Day:Interval=\"SCHEDULE DAY 223\", Blank Schedule Type Limits Name input -- will not be validated.\n   ** Warning ** ProcessScheduleInput: Schedule:Day:Interval=\"SCHEDULE DAY 224\", Blank Schedule Type Limits Name input -- will not be validated.\n   ** Warning ** ProcessScheduleInput: Schedule:Day:Interval=\"SCHEDULE DAY 225\", Blank Schedule Type Limits Name input -- will not be validated.\n   ** Warning ** ProcessScheduleInput: Schedule:Day:Interval=\"SCHEDULE DAY 226\", Blank Schedule Type Limits Name input -- will not be validated.\n   ** Warning ** ProcessScheduleInput: Schedule:Day:Interval=\"SCHEDULE DAY 227\", Blank Schedule Type Limits Name input -- will not be validated.\n   ** Warning ** ProcessScheduleInput: Schedule:Day:Interval=\"SCHEDULE DAY 228\", Blank Schedule Type Limits Name input -- will not be validated.\n   ** Warning ** ProcessScheduleInput: Schedule:Day:Interval=\"SCHEDULE DAY 229\", Blank Schedule Type Limits Name input -- will not be validated.\n   ** Warning ** ProcessScheduleInput: Schedule:Day:Interval=\"SCHEDULE DAY 23\", Blank Schedule Type Limits Name input -- will not be validated.\n   ** Warning ** ProcessScheduleInput: Schedule:Day:Interval=\"SCHEDULE DAY 230\", Blank Schedule Type Limits Name input -- will not be validated.\n   ** Warning ** ProcessScheduleInput: Schedule:Day:Interval=\"SCHEDULE DAY 231\", Blank Schedule Type Limits Name input -- will not be validated.\n   ** Warning ** ProcessScheduleInput: Schedule:Day:Interval=\"SCHEDULE DAY 232\", Blank Schedule Type Limits Name input -- will not be validated.\n   ** Warning ** ProcessScheduleInput: Schedule:Day:Interval=\"SCHEDULE DAY 233\", Blank Schedule Type Limits Name input -- will not be validated.\n   ** Warning ** ProcessScheduleInput: Schedule:Day:Interval=\"SCHEDULE DAY 234\", Blank Schedule Type Limits Name input -- will not be validated.\n   ** Warning ** ProcessScheduleInput: Schedule:Day:Interval=\"SCHEDULE DAY 235\", Blank Schedule Type Limits Name input -- will not be validated.\n   ** Warning ** ProcessScheduleInput: Schedule:Day:Interval=\"SCHEDULE DAY 236\", Blank Schedule Type Limits Name input -- will not be validated.\n   ** Warning ** ProcessScheduleInput: Schedule:Day:Interval=\"SCHEDULE DAY 237\", Blank Schedule Type Limits Name input -- will not be validated.\n   ** Warning ** ProcessScheduleInput: Schedule:Day:Interval=\"SCHEDULE DAY 238\", Blank Schedule Type Limits Name input -- will not be validated.\n   ** Warning ** ProcessScheduleInput: Schedule:Day:Interval=\"SCHEDULE DAY 239\", Blank Schedule Type Limits Name input -- will not be validated.\n   ** Warning ** ProcessScheduleInput: Schedule:Day:Interval=\"SCHEDULE DAY 24\", Blank Schedule Type Limits Name input -- will not be validated.\n   ** Warning ** ProcessScheduleInput: Schedule:Day:Interval=\"SCHEDULE DAY 240\", Blank Schedule Type Limits Name input -- will not be validated.\n   ** Warning ** ProcessScheduleInput: Schedule:Day:Interval=\"SCHEDULE DAY 241\", Blank Schedule Type Limits Name input -- will not be validated.\n   ** Warning ** ProcessScheduleInput: Schedule:Day:Interval=\"SCHEDULE DAY 242\", Blank Schedule Type Limits Name input -- will not be validated.\n   ** Warning ** ProcessScheduleInput: Schedule:Day:Interval=\"SCHEDULE DAY 243\", Blank Schedule Type Limits Name input -- will not be validated.\n   ** Warning ** ProcessScheduleInput: Schedule:Day:Interval=\"SCHEDULE DAY 244\", Blank Schedule Type Limits Name input -- will not be validated.\n   ** Warning ** ProcessScheduleInput: Schedule:Day:Interval=\"SCHEDULE DAY 245\", Blank Schedule Type Limits Name input -- will not be validated.\n   ** Warning ** ProcessScheduleInput: Schedule:Day:Interval=\"SCHEDULE DAY 246\", Blank Schedule Type Limits Name input -- will not be validated.\n   ** Warning ** ProcessScheduleInput: Schedule:Day:Interval=\"SCHEDULE DAY 247\", Blank Schedule Type Limits Name input -- will not be validated.\n   ** Warning ** ProcessScheduleInput: Schedule:Day:Interval=\"SCHEDULE DAY 248\", Blank Schedule Type Limits Name input -- will not be validated.\n   ** Warning ** ProcessScheduleInput: Schedule:Day:Interval=\"SCHEDULE DAY 249\", Blank Schedule Type Limits Name input -- will not be validated.\n   ** Warning ** ProcessScheduleInput: Schedule:Day:Interval=\"SCHEDULE DAY 25\", Blank Schedule Type Limits Name input -- will not be validated.\n   ** Warning ** ProcessScheduleInput: Schedule:Day:Interval=\"SCHEDULE DAY 250\", Blank Schedule Type Limits Name input -- will not be validated.\n   ** Warning ** ProcessScheduleInput: Schedule:Day:Interval=\"SCHEDULE DAY 251\", Blank Schedule Type Limits Name input -- will not be validated.\n   ** Warning ** ProcessScheduleInput: Schedule:Day:Interval=\"SCHEDULE DAY 26\", Blank Schedule Type Limits Name input -- will not be validated.\n   ** Warning ** ProcessScheduleInput: Schedule:Day:Interval=\"SCHEDULE DAY 27\", Blank Schedule Type Limits Name input -- will not be validated.\n   ** Warning ** ProcessScheduleInput: Schedule:Day:Interval=\"SCHEDULE DAY 28\", Blank Schedule Type Limits Name input -- will not be validated.\n   ** Warning ** ProcessScheduleInput: Schedule:Day:Interval=\"SCHEDULE DAY 29\", Blank Schedule Type Limits Name input -- will not be validated.\n   ** Warning ** ProcessScheduleInput: Schedule:Day:Interval=\"SCHEDULE DAY 30\", Blank Schedule Type Limits Name input -- will not be validated.\n   ** Warning ** ProcessScheduleInput: Schedule:Day:Interval=\"SCHEDULE DAY 31\", Blank Schedule Type Limits Name input -- will not be validated.\n   ** Warning ** ProcessScheduleInput: Schedule:Day:Interval=\"SCHEDULE DAY 32\", Blank Schedule Type Limits Name input -- will not be validated.\n   ** Warning ** ProcessScheduleInput: Schedule:Day:Interval=\"SCHEDULE DAY 33\", Blank Schedule Type Limits Name input -- will not be validated.\n   ** Warning ** ProcessScheduleInput: Schedule:Day:Interval=\"SCHEDULE DAY 34\", Blank Schedule Type Limits Name input -- will not be validated.\n   ** Warning ** ProcessScheduleInput: Schedule:Day:Interval=\"SCHEDULE DAY 35\", Blank Schedule Type Limits Name input -- will not be validated.\n   ** Warning ** ProcessScheduleInput: Schedule:Day:Interval=\"SCHEDULE DAY 36\", Blank Schedule Type Limits Name input -- will not be validated.\n   ** Warning ** ProcessScheduleInput: Schedule:Day:Interval=\"SCHEDULE DAY 37\", Blank Schedule Type Limits Name input -- will not be validated.\n   ** Warning ** ProcessScheduleInput: Schedule:Day:Interval=\"SCHEDULE DAY 38\", Blank Schedule Type Limits Name input -- will not be validated.\n   ** Warning ** ProcessScheduleInput: Schedule:Day:Interval=\"SCHEDULE DAY 39\", Blank Schedule Type Limits Name input -- will not be validated.\n   ** Warning ** ProcessScheduleInput: Schedule:Day:Interval=\"SCHEDULE DAY 40\", Blank Schedule Type Limits Name input -- will not be validated.\n   ** Warning ** ProcessScheduleInput: Schedule:Day:Interval=\"SCHEDULE DAY 41\", Blank Schedule Type Limits Name input -- will not be validated.\n   ** Warning ** ProcessScheduleInput: Schedule:Day:Interval=\"SCHEDULE DAY 42\", Blank Schedule Type Limits Name input -- will not be validated.\n   ** Warning ** ProcessScheduleInput: Schedule:Day:Interval=\"SCHEDULE DAY 43\", Blank Schedule Type Limits Name input -- will not be validated.\n   ** Warning ** ProcessScheduleInput: Schedule:Day:Interval=\"SCHEDULE DAY 44\", Blank Schedule Type Limits Name input -- will not be validated.\n   ** Warning ** ProcessScheduleInput: Schedule:Day:Interval=\"SCHEDULE DAY 45\", Blank Schedule Type Limits Name input -- will not be validated.\n   ** Warning ** ProcessScheduleInput: Schedule:Day:Interval=\"SCHEDULE DAY 46\", Blank Schedule Type Limits Name input -- will not be validated.\n   ** Warning ** ProcessScheduleInput: Schedule:Day:Interval=\"SCHEDULE DAY 47\", Blank Schedule Type Limits Name input -- will not be validated.\n   ** Warning ** ProcessScheduleInput: Schedule:Day:Interval=\"SCHEDULE DAY 48\", Blank Schedule Type Limits Name input -- will not be validated.\n   ** Warning ** ProcessScheduleInput: Schedule:Day:Interval=\"SCHEDULE DAY 49\", Blank Schedule Type Limits Name input -- will not be validated.\n   ** Warning ** ProcessScheduleInput: Schedule:Day:Interval=\"SCHEDULE DAY 50\", Blank Schedule Type Limits Name input -- will not be validated.\n   ** Warning ** ProcessScheduleInput: Schedule:Day:Interval=\"SCHEDULE DAY 51\", Blank Schedule Type Limits Name input -- will not be validated.\n   ** Warning ** ProcessScheduleInput: Schedule:Day:Interval=\"SCHEDULE DAY 52\", Blank Schedule Type Limits Name input -- will not be validated.\n   ** Warning ** ProcessScheduleInput: Schedule:Day:Interval=\"SCHEDULE DAY 53\", Blank Schedule Type Limits Name input -- will not be validated.\n   ** Warning ** ProcessScheduleInput: Schedule:Day:Interval=\"SCHEDULE DAY 54\", Blank Schedule Type Limits Name input -- will not be validated.\n   ** Warning ** ProcessScheduleInput: Schedule:Day:Interval=\"SCHEDULE DAY 55\", Blank Schedule Type Limits Name input -- will not be validated.\n   ** Warning ** ProcessScheduleInput: Schedule:Day:Interval=\"SCHEDULE DAY 56\", Blank Schedule Type Limits Name input -- will not be validated.\n   ** Warning ** ProcessScheduleInput: Schedule:Day:Interval=\"SCHEDULE DAY 57\", Blank Schedule Type Limits Name input -- will not be validated.\n   ** Warning ** ProcessScheduleInput: Schedule:Day:Interval=\"SCHEDULE DAY 58\", Blank Schedule Type Limits Name input -- will not be validated.\n   ** Warning ** ProcessScheduleInput: Schedule:Day:Interval=\"SCHEDULE DAY 59\", Blank Schedule Type Limits Name input -- will not be validated.\n   ** Warning ** ProcessScheduleInput: Schedule:Day:Interval=\"SCHEDULE DAY 60\", Blank Schedule Type Limits Name input -- will not be validated.\n   ** Warning ** ProcessScheduleInput: Schedule:Day:Interval=\"SCHEDULE DAY 61\", Blank Schedule Type Limits Name input -- will not be validated.\n   ** Warning ** ProcessScheduleInput: Schedule:Day:Interval=\"SCHEDULE DAY 62\", Blank Schedule Type Limits Name input -- will not be validated.\n   ** Warning ** ProcessScheduleInput: Schedule:Day:Interval=\"SCHEDULE DAY 63\", Blank Schedule Type Limits Name input -- will not be validated.\n   ** Warning ** ProcessScheduleInput: Schedule:Day:Interval=\"SCHEDULE DAY 64\", Blank Schedule Type Limits Name input -- will not be validated.\n   ** Warning ** ProcessScheduleInput: Schedule:Day:Interval=\"SCHEDULE DAY 65\", Blank Schedule Type Limits Name input -- will not be validated.\n   ** Warning ** ProcessScheduleInput: Schedule:Day:Interval=\"SCHEDULE DAY 66\", Blank Schedule Type Limits Name input -- will not be validated.\n   ** Warning ** ProcessScheduleInput: Schedule:Day:Interval=\"SCHEDULE DAY 67\", Blank Schedule Type Limits Name input -- will not be validated.\n   ** Warning ** ProcessScheduleInput: Schedule:Day:Interval=\"SCHEDULE DAY 68\", Blank Schedule Type Limits Name input -- will not be validated.\n   ** Warning ** ProcessScheduleInput: Schedule:Day:Interval=\"SCHEDULE DAY 69\", Blank Schedule Type Limits Name input -- will not be validated.\n   ** Warning ** ProcessScheduleInput: Schedule:Day:Interval=\"SCHEDULE DAY 70\", Blank Schedule Type Limits Name input -- will not be validated.\n   ** Warning ** ProcessScheduleInput: Schedule:Day:Interval=\"SCHEDULE DAY 71\", Blank Schedule Type Limits Name input -- will not be validated.\n   ** Warning ** ProcessScheduleInput: Schedule:Day:Interval=\"SCHEDULE DAY 72\", Blank Schedule Type Limits Name input -- will not be validated.\n   ** Warning ** ProcessScheduleInput: Schedule:Day:Interval=\"SCHEDULE DAY 73\", Blank Schedule Type Limits Name input -- will not be validated.\n   ** Warning ** ProcessScheduleInput: Schedule:Day:Interval=\"SCHEDULE DAY 74\", Blank Schedule Type Limits Name input -- will not be validated.\n   ** Warning ** ProcessScheduleInput: Schedule:Day:Interval=\"SCHEDULE DAY 75\", Blank Schedule Type Limits Name input -- will not be validated.\n   ** Warning ** ProcessScheduleInput: Schedule:Day:Interval=\"SCHEDULE DAY 76\", Blank Schedule Type Limits Name input -- will not be validated.\n   ** Warning ** ProcessScheduleInput: Schedule:Day:Interval=\"SCHEDULE DAY 77\", Blank Schedule Type Limits Name input -- will not be validated.\n   ** Warning ** ProcessScheduleInput: Schedule:Day:Interval=\"SCHEDULE DAY 78\", Blank Schedule Type Limits Name input -- will not be validated.\n   ** Warning ** ProcessScheduleInput: Schedule:Day:Interval=\"SCHEDULE DAY 79\", Blank Schedule Type Limits Name input -- will not be validated.\n   ** Warning ** ProcessScheduleInput: Schedule:Day:Interval=\"SCHEDULE DAY 8\", Blank Schedule Type Limits Name input -- will not be validated.\n   ** Warning ** ProcessScheduleInput: Schedule:Day:Interval=\"SCHEDULE DAY 80\", Blank Schedule Type Limits Name input -- will not be validated.\n   ** Warning ** ProcessScheduleInput: Schedule:Day:Interval=\"SCHEDULE DAY 81\", Blank Schedule Type Limits Name input -- will not be validated.\n   ** Warning ** ProcessScheduleInput: Schedule:Day:Interval=\"SCHEDULE DAY 82\", Blank Schedule Type Limits Name input -- will not be validated.\n   ** Warning ** ProcessScheduleInput: Schedule:Day:Interval=\"SCHEDULE DAY 83\", Blank Schedule Type Limits Name input -- will not be validated.\n   ** Warning ** ProcessScheduleInput: Schedule:Day:Interval=\"SCHEDULE DAY 84\", Blank Schedule Type Limits Name input -- will not be validated.\n   ** Warning ** ProcessScheduleInput: Schedule:Day:Interval=\"SCHEDULE DAY 85\", Blank Schedule Type Limits Name input -- will not be validated.\n   ** Warning ** ProcessScheduleInput: Schedule:Day:Interval=\"SCHEDULE DAY 86\", Blank Schedule Type Limits Name input -- will not be validated.\n   ** Warning ** ProcessScheduleInput: Schedule:Day:Interval=\"SCHEDULE DAY 87\", Blank Schedule Type Limits Name input -- will not be validated.\n   ** Warning ** ProcessScheduleInput: Schedule:Day:Interval=\"SCHEDULE DAY 88\", Blank Schedule Type Limits Name input -- will not be validated.\n   ** Warning ** ProcessScheduleInput: Schedule:Day:Interval=\"SCHEDULE DAY 89\", Blank Schedule Type Limits Name input -- will not be validated.\n   ** Warning ** ProcessScheduleInput: Schedule:Day:Interval=\"SCHEDULE DAY 9\", Blank Schedule Type Limits Name input -- will not be validated.\n   ** Warning ** ProcessScheduleInput: Schedule:Day:Interval=\"SCHEDULE DAY 90\", Blank Schedule Type Limits Name input -- will not be validated.\n   ** Warning ** ProcessScheduleInput: Schedule:Day:Interval=\"SCHEDULE DAY 91\", Blank Schedule Type Limits Name input -- will not be validated.\n   ** Warning ** ProcessScheduleInput: Schedule:Day:Interval=\"SCHEDULE DAY 92\", Blank Schedule Type Limits Name input -- will not be validated.\n   ** Warning ** ProcessScheduleInput: Schedule:Day:Interval=\"SCHEDULE DAY 93\", Blank Schedule Type Limits Name input -- will not be validated.\n   ** Warning ** ProcessScheduleInput: Schedule:Day:Interval=\"SCHEDULE DAY 94\", Blank Schedule Type Limits Name input -- will not be validated.\n   ** Warning ** ProcessScheduleInput: Schedule:Day:Interval=\"SCHEDULE DAY 95\", Blank Schedule Type Limits Name input -- will not be validated.\n   ** Warning ** ProcessScheduleInput: Schedule:Day:Interval=\"SCHEDULE DAY 96\", Blank Schedule Type Limits Name input -- will not be validated.\n   ** Warning ** ProcessScheduleInput: Schedule:Day:Interval=\"SCHEDULE DAY 97\", Blank Schedule Type Limits Name input -- will not be validated.\n   ** Warning ** ProcessScheduleInput: Schedule:Day:Interval=\"SCHEDULE DAY 98\", Blank Schedule Type Limits Name input -- will not be validated.\n   ** Warning ** ProcessScheduleInput: Schedule:Day:Interval=\"SCHEDULE DAY 99\", Blank Schedule Type Limits Name input -- will not be validated.\n   ** Warning ** ProcessScheduleInput: Schedule:Year=\"ECONOMIZER MAX OA FRACTION 100 PCT\", Blank Schedule Type Limits Name input -- will not be validated.\n   ** Warning ** ProcessScheduleInput: Schedule:Year=\"SCHEDULE RULESET 10\", Blank Schedule Type Limits Name input -- will not be validated.\n   ** Warning ** ProcessScheduleInput: Schedule:Year=\"SCHEDULE RULESET 100\", Blank Schedule Type Limits Name input -- will not be validated.\n   ** Warning ** ProcessScheduleInput: Schedule:Year=\"SCHEDULE RULESET 101\", Blank Schedule Type Limits Name input -- will not be validated.\n   ** Warning ** ProcessScheduleInput: Schedule:Year=\"SCHEDULE RULESET 102\", Blank Schedule Type Limits Name input -- will not be validated.\n   ** Warning ** ProcessScheduleInput: Schedule:Year=\"SCHEDULE RULESET 103\", Blank Schedule Type Limits Name input -- will not be validated.\n   ** Warning ** ProcessScheduleInput: Schedule:Year=\"SCHEDULE RULESET 104\", Blank Schedule Type Limits Name input -- will not be validated.\n   ** Warning ** ProcessScheduleInput: Schedule:Year=\"SCHEDULE RULESET 105\", Blank Schedule Type Limits Name input -- will not be validated.\n   ** Warning ** ProcessScheduleInput: Schedule:Year=\"SCHEDULE RULESET 106\", Blank Schedule Type Limits Name input -- will not be validated.\n   ** Warning ** ProcessScheduleInput: Schedule:Year=\"SCHEDULE RULESET 107\", Blank Schedule Type Limits Name input -- will not be validated.\n   ** Warning ** ProcessScheduleInput: Schedule:Year=\"SCHEDULE RULESET 108\", Blank Schedule Type Limits Name input -- will not be validated.\n   ** Warning ** ProcessScheduleInput: Schedule:Year=\"SCHEDULE RULESET 109\", Blank Schedule Type Limits Name input -- will not be validated.\n   ** Warning ** ProcessScheduleInput: Schedule:Year=\"SCHEDULE RULESET 11\", Blank Schedule Type Limits Name input -- will not be validated.\n   ** Warning ** ProcessScheduleInput: Schedule:Year=\"SCHEDULE RULESET 110\", Blank Schedule Type Limits Name input -- will not be validated.\n   ** Warning ** ProcessScheduleInput: Schedule:Year=\"SCHEDULE RULESET 111\", Blank Schedule Type Limits Name input -- will not be validated.\n   ** Warning ** ProcessScheduleInput: Schedule:Year=\"SCHEDULE RULESET 112\", Blank Schedule Type Limits Name input -- will not be validated.\n   ** Warning ** ProcessScheduleInput: Schedule:Year=\"SCHEDULE RULESET 113\", Blank Schedule Type Limits Name input -- will not be validated.\n   ** Warning ** ProcessScheduleInput: Schedule:Year=\"SCHEDULE RULESET 114\", Blank Schedule Type Limits Name input -- will not be validated.\n   ** Warning ** ProcessScheduleInput: Schedule:Year=\"SCHEDULE RULESET 115\", Blank Schedule Type Limits Name input -- will not be validated.\n   ** Warning ** ProcessScheduleInput: Schedule:Year=\"SCHEDULE RULESET 116\", Blank Schedule Type Limits Name input -- will not be validated.\n   ** Warning ** ProcessScheduleInput: Schedule:Year=\"SCHEDULE RULESET 117\", Blank Schedule Type Limits Name input -- will not be validated.\n   ** Warning ** ProcessScheduleInput: Schedule:Year=\"SCHEDULE RULESET 118\", Blank Schedule Type Limits Name input -- will not be validated.\n   ** Warning ** ProcessScheduleInput: Schedule:Year=\"SCHEDULE RULESET 119\", Blank Schedule Type Limits Name input -- will not be validated.\n   ** Warning ** ProcessScheduleInput: Schedule:Year=\"SCHEDULE RULESET 12\", Blank Schedule Type Limits Name input -- will not be validated.\n   ** Warning ** ProcessScheduleInput: Schedule:Year=\"SCHEDULE RULESET 120\", Blank Schedule Type Limits Name input -- will not be validated.\n   ** Warning ** ProcessScheduleInput: Schedule:Year=\"SCHEDULE RULESET 121\", Blank Schedule Type Limits Name input -- will not be validated.\n   ** Warning ** ProcessScheduleInput: Schedule:Year=\"SCHEDULE RULESET 122\", Blank Schedule Type Limits Name input -- will not be validated.\n   ** Warning ** ProcessScheduleInput: Schedule:Year=\"SCHEDULE RULESET 123\", Blank Schedule Type Limits Name input -- will not be validated.\n   ** Warning ** ProcessScheduleInput: Schedule:Year=\"SCHEDULE RULESET 124\", Blank Schedule Type Limits Name input -- will not be validated.\n   ** Warning ** ProcessScheduleInput: Schedule:Year=\"SCHEDULE RULESET 125\", Blank Schedule Type Limits Name input -- will not be validated.\n   ** Warning ** ProcessScheduleInput: Schedule:Year=\"SCHEDULE RULESET 126\", Blank Schedule Type Limits Name input -- will not be validated.\n   ** Warning ** ProcessScheduleInput: Schedule:Year=\"SCHEDULE RULESET 127\", Blank Schedule Type Limits Name input -- will not be validated.\n   ** Warning ** ProcessScheduleInput: Schedule:Year=\"SCHEDULE RULESET 128\", Blank Schedule Type Limits Name input -- will not be validated.\n   ** Warning ** ProcessScheduleInput: Schedule:Year=\"SCHEDULE RULESET 129\", Blank Schedule Type Limits Name input -- will not be validated.\n   ** Warning ** ProcessScheduleInput: Schedule:Year=\"SCHEDULE RULESET 13\", Blank Schedule Type Limits Name input -- will not be validated.\n   ** Warning ** ProcessScheduleInput: Schedule:Year=\"SCHEDULE RULESET 130\", Blank Schedule Type Limits Name input -- will not be validated.\n   ** Warning ** ProcessScheduleInput: Schedule:Year=\"SCHEDULE RULESET 131\", Blank Schedule Type Limits Name input -- will not be validated.\n   ** Warning ** ProcessScheduleInput: Schedule:Year=\"SCHEDULE RULESET 132\", Blank Schedule Type Limits Name input -- will not be validated.\n   ** Warning ** ProcessScheduleInput: Schedule:Year=\"SCHEDULE RULESET 133\", Blank Schedule Type Limits Name input -- will not be validated.\n   ** Warning ** ProcessScheduleInput: Schedule:Year=\"SCHEDULE RULESET 134\", Blank Schedule Type Limits Name input -- will not be validated.\n   ** Warning ** ProcessScheduleInput: Schedule:Year=\"SCHEDULE RULESET 135\", Blank Schedule Type Limits Name input -- will not be validated.\n   ** Warning ** ProcessScheduleInput: Schedule:Year=\"SCHEDULE RULESET 136\", Blank Schedule Type Limits Name input -- will not be validated.\n   ** Warning ** ProcessScheduleInput: Schedule:Year=\"SCHEDULE RULESET 137\", Blank Schedule Type Limits Name input -- will not be validated.\n   ** Warning ** ProcessScheduleInput: Schedule:Year=\"SCHEDULE RULESET 138\", Blank Schedule Type Limits Name input -- will not be validated.\n   ** Warning ** ProcessScheduleInput: Schedule:Year=\"SCHEDULE RULESET 139\", Blank Schedule Type Limits Name input -- will not be validated.\n   ** Warning ** ProcessScheduleInput: Schedule:Year=\"SCHEDULE RULESET 14\", Blank Schedule Type Limits Name input -- will not be validated.\n   ** Warning ** ProcessScheduleInput: Schedule:Year=\"SCHEDULE RULESET 140\", Blank Schedule Type Limits Name input -- will not be validated.\n   ** Warning ** ProcessScheduleInput: Schedule:Year=\"SCHEDULE RULESET 141\", Blank Schedule Type Limits Name input -- will not be validated.\n   ** Warning ** ProcessScheduleInput: Schedule:Year=\"SCHEDULE RULESET 142\", Blank Schedule Type Limits Name input -- will not be validated.\n   ** Warning ** ProcessScheduleInput: Schedule:Year=\"SCHEDULE RULESET 143\", Blank Schedule Type Limits Name input -- will not be validated.\n   ** Warning ** ProcessScheduleInput: Schedule:Year=\"SCHEDULE RULESET 144\", Blank Schedule Type Limits Name input -- will not be validated.\n   ** Warning ** ProcessScheduleInput: Schedule:Year=\"SCHEDULE RULESET 145\", Blank Schedule Type Limits Name input -- will not be validated.\n   ** Warning ** ProcessScheduleInput: Schedule:Year=\"SCHEDULE RULESET 146\", Blank Schedule Type Limits Name input -- will not be validated.\n   ** Warning ** ProcessScheduleInput: Schedule:Year=\"SCHEDULE RULESET 147\", Blank Schedule Type Limits Name input -- will not be validated.\n   ** Warning ** ProcessScheduleInput: Schedule:Year=\"SCHEDULE RULESET 148\", Blank Schedule Type Limits Name input -- will not be validated.\n   ** Warning ** ProcessScheduleInput: Schedule:Year=\"SCHEDULE RULESET 149\", Blank Schedule Type Limits Name input -- will not be validated.\n   ** Warning ** ProcessScheduleInput: Schedule:Year=\"SCHEDULE RULESET 15\", Blank Schedule Type Limits Name input -- will not be validated.\n   ** Warning ** ProcessScheduleInput: Schedule:Year=\"SCHEDULE RULESET 150\", Blank Schedule Type Limits Name input -- will not be validated.\n   ** Warning ** ProcessScheduleInput: Schedule:Year=\"SCHEDULE RULESET 151\", Blank Schedule Type Limits Name input -- will not be validated.\n   ** Warning ** ProcessScheduleInput: Schedule:Year=\"SCHEDULE RULESET 152\", Blank Schedule Type Limits Name input -- will not be validated.\n   ** Warning ** ProcessScheduleInput: Schedule:Year=\"SCHEDULE RULESET 153\", Blank Schedule Type Limits Name input -- will not be validated.\n   ** Warning ** ProcessScheduleInput: Schedule:Year=\"SCHEDULE RULESET 154\", Blank Schedule Type Limits Name input -- will not be validated.\n   ** Warning ** ProcessScheduleInput: Schedule:Year=\"SCHEDULE RULESET 155\", Blank Schedule Type Limits Name input -- will not be validated.\n   ** Warning ** ProcessScheduleInput: Schedule:Year=\"SCHEDULE RULESET 156\", Blank Schedule Type Limits Name input -- will not be validated.\n   ** Warning ** ProcessScheduleInput: Schedule:Year=\"SCHEDULE RULESET 157\", Blank Schedule Type Limits Name input -- will not be validated.\n   ** Warning ** ProcessScheduleInput: Schedule:Year=\"SCHEDULE RULESET 158\", Blank Schedule Type Limits Name input -- will not be validated.\n   ** Warning ** ProcessScheduleInput: Schedule:Year=\"SCHEDULE RULESET 159\", Blank Schedule Type Limits Name input -- will not be validated.\n   ** Warning ** ProcessScheduleInput: Schedule:Year=\"SCHEDULE RULESET 16\", Blank Schedule Type Limits Name input -- will not be validated.\n   ** Warning ** ProcessScheduleInput: Schedule:Year=\"SCHEDULE RULESET 160\", Blank Schedule Type Limits Name input -- will not be validated.\n   ** Warning ** ProcessScheduleInput: Schedule:Year=\"SCHEDULE RULESET 161\", Blank Schedule Type Limits Name input -- will not be validated.\n   ** Warning ** ProcessScheduleInput: Schedule:Year=\"SCHEDULE RULESET 162\", Blank Schedule Type Limits Name input -- will not be validated.\n   ** Warning ** ProcessScheduleInput: Schedule:Year=\"SCHEDULE RULESET 163\", Blank Schedule Type Limits Name input -- will not be validated.\n   ** Warning ** ProcessScheduleInput: Schedule:Year=\"SCHEDULE RULESET 164\", Blank Schedule Type Limits Name input -- will not be validated.\n   ** Warning ** ProcessScheduleInput: Schedule:Year=\"SCHEDULE RULESET 165\", Blank Schedule Type Limits Name input -- will not be validated.\n   ** Warning ** ProcessScheduleInput: Schedule:Year=\"SCHEDULE RULESET 166\", Blank Schedule Type Limits Name input -- will not be validated.\n   ** Warning ** ProcessScheduleInput: Schedule:Year=\"SCHEDULE RULESET 167\", Blank Schedule Type Limits Name input -- will not be validated.\n   ** Warning ** ProcessScheduleInput: Schedule:Year=\"SCHEDULE RULESET 168\", Blank Schedule Type Limits Name input -- will not be validated.\n   ** Warning ** ProcessScheduleInput: Schedule:Year=\"SCHEDULE RULESET 169\", Blank Schedule Type Limits Name input -- will not be validated.\n   ** Warning ** ProcessScheduleInput: Schedule:Year=\"SCHEDULE RULESET 17\", Blank Schedule Type Limits Name input -- will not be validated.\n   ** Warning ** ProcessScheduleInput: Schedule:Year=\"SCHEDULE RULESET 170\", Blank Schedule Type Limits Name input -- will not be validated.\n   ** Warning ** ProcessScheduleInput: Schedule:Year=\"SCHEDULE RULESET 171\", Blank Schedule Type Limits Name input -- will not be validated.\n   ** Warning ** ProcessScheduleInput: Schedule:Year=\"SCHEDULE RULESET 172\", Blank Schedule Type Limits Name input -- will not be validated.\n   ** Warning ** ProcessScheduleInput: Schedule:Year=\"SCHEDULE RULESET 173\", Blank Schedule Type Limits Name input -- will not be validated.\n   ** Warning ** ProcessScheduleInput: Schedule:Year=\"SCHEDULE RULESET 174\", Blank Schedule Type Limits Name input -- will not be validated.\n   ** Warning ** ProcessScheduleInput: Schedule:Year=\"SCHEDULE RULESET 175\", Blank Schedule Type Limits Name input -- will not be validated.\n   ** Warning ** ProcessScheduleInput: Schedule:Year=\"SCHEDULE RULESET 176\", Blank Schedule Type Limits Name input -- will not be validated.\n   ** Warning ** ProcessScheduleInput: Schedule:Year=\"SCHEDULE RULESET 177\", Blank Schedule Type Limits Name input -- will not be validated.\n   ** Warning ** ProcessScheduleInput: Schedule:Year=\"SCHEDULE RULESET 178\", Blank Schedule Type Limits Name input -- will not be validated.\n   ** Warning ** ProcessScheduleInput: Schedule:Year=\"SCHEDULE RULESET 179\", Blank Schedule Type Limits Name input -- will not be validated.\n   ** Warning ** ProcessScheduleInput: Schedule:Year=\"SCHEDULE RULESET 18\", Blank Schedule Type Limits Name input -- will not be validated.\n   ** Warning ** ProcessScheduleInput: Schedule:Year=\"SCHEDULE RULESET 180\", Blank Schedule Type Limits Name input -- will not be validated.\n   ** Warning ** ProcessScheduleInput: Schedule:Year=\"SCHEDULE RULESET 181\", Blank Schedule Type Limits Name input -- will not be validated.\n   ** Warning ** ProcessScheduleInput: Schedule:Year=\"SCHEDULE RULESET 182\", Blank Schedule Type Limits Name input -- will not be validated.\n   ** Warning ** ProcessScheduleInput: Schedule:Year=\"SCHEDULE RULESET 183\", Blank Schedule Type Limits Name input -- will not be validated.\n   ** Warning ** ProcessScheduleInput: Schedule:Year=\"SCHEDULE RULESET 184\", Blank Schedule Type Limits Name input -- will not be validated.\n   ** Warning ** ProcessScheduleInput: Schedule:Year=\"SCHEDULE RULESET 185\", Blank Schedule Type Limits Name input -- will not be validated.\n   ** Warning ** ProcessScheduleInput: Schedule:Year=\"SCHEDULE RULESET 186\", Blank Schedule Type Limits Name input -- will not be validated.\n   ** Warning ** ProcessScheduleInput: Schedule:Year=\"SCHEDULE RULESET 187\", Blank Schedule Type Limits Name input -- will not be validated.\n   ** Warning ** ProcessScheduleInput: Schedule:Year=\"SCHEDULE RULESET 188\", Blank Schedule Type Limits Name input -- will not be validated.\n   ** Warning ** ProcessScheduleInput: Schedule:Year=\"SCHEDULE RULESET 189\", Blank Schedule Type Limits Name input -- will not be validated.\n   ** Warning ** ProcessScheduleInput: Schedule:Year=\"SCHEDULE RULESET 19\", Blank Schedule Type Limits Name input -- will not be validated.\n   ** Warning ** ProcessScheduleInput: Schedule:Year=\"SCHEDULE RULESET 190\", Blank Schedule Type Limits Name input -- will not be validated.\n   ** Warning ** ProcessScheduleInput: Schedule:Year=\"SCHEDULE RULESET 191\", Blank Schedule Type Limits Name input -- will not be validated.\n   ** Warning ** ProcessScheduleInput: Schedule:Year=\"SCHEDULE RULESET 192\", Blank Schedule Type Limits Name input -- will not be validated.\n   ** Warning ** ProcessScheduleInput: Schedule:Year=\"SCHEDULE RULESET 193\", Blank Schedule Type Limits Name input -- will not be validated.\n   ** Warning ** ProcessScheduleInput: Schedule:Year=\"SCHEDULE RULESET 194\", Blank Schedule Type Limits Name input -- will not be validated.\n   ** Warning ** ProcessScheduleInput: Schedule:Year=\"SCHEDULE RULESET 195\", Blank Schedule Type Limits Name input -- will not be validated.\n   ** Warning ** ProcessScheduleInput: Schedule:Year=\"SCHEDULE RULESET 196\", Blank Schedule Type Limits Name input -- will not be validated.\n   ** Warning ** ProcessScheduleInput: Schedule:Year=\"SCHEDULE RULESET 197\", Blank Schedule Type Limits Name input -- will not be validated.\n   ** Warning ** ProcessScheduleInput: Schedule:Year=\"SCHEDULE RULESET 198\", Blank Schedule Type Limits Name input -- will not be validated.\n   ** Warning ** ProcessScheduleInput: Schedule:Year=\"SCHEDULE RULESET 199\", Blank Schedule Type Limits Name input -- will not be validated.\n   ** Warning ** ProcessScheduleInput: Schedule:Year=\"SCHEDULE RULESET 20\", Blank Schedule Type Limits Name input -- will not be validated.\n   ** Warning ** ProcessScheduleInput: Schedule:Year=\"SCHEDULE RULESET 200\", Blank Schedule Type Limits Name input -- will not be validated.\n   ** Warning ** ProcessScheduleInput: Schedule:Year=\"SCHEDULE RULESET 201\", Blank Schedule Type Limits Name input -- will not be validated.\n   ** Warning ** ProcessScheduleInput: Schedule:Year=\"SCHEDULE RULESET 202\", Blank Schedule Type Limits Name input -- will not be validated.\n   ** Warning ** ProcessScheduleInput: Schedule:Year=\"SCHEDULE RULESET 203\", Blank Schedule Type Limits Name input -- will not be validated.\n   ** Warning ** ProcessScheduleInput: Schedule:Year=\"SCHEDULE RULESET 204\", Blank Schedule Type Limits Name input -- will not be validated.\n   ** Warning ** ProcessScheduleInput: Schedule:Year=\"SCHEDULE RULESET 205\", Blank Schedule Type Limits Name input -- will not be validated.\n   ** Warning ** ProcessScheduleInput: Schedule:Year=\"SCHEDULE RULESET 206\", Blank Schedule Type Limits Name input -- will not be validated.\n   ** Warning ** ProcessScheduleInput: Schedule:Year=\"SCHEDULE RULESET 207\", Blank Schedule Type Limits Name input -- will not be validated.\n   ** Warning ** ProcessScheduleInput: Schedule:Year=\"SCHEDULE RULESET 208\", Blank Schedule Type Limits Name input -- will not be validated.\n   ** Warning ** ProcessScheduleInput: Schedule:Year=\"SCHEDULE RULESET 209\", Blank Schedule Type Limits Name input -- will not be validated.\n   ** Warning ** ProcessScheduleInput: Schedule:Year=\"SCHEDULE RULESET 21\", Blank Schedule Type Limits Name input -- will not be validated.\n   ** Warning ** ProcessScheduleInput: Schedule:Year=\"SCHEDULE RULESET 210\", Blank Schedule Type Limits Name input -- will not be validated.\n   ** Warning ** ProcessScheduleInput: Schedule:Year=\"SCHEDULE RULESET 211\", Blank Schedule Type Limits Name input -- will not be validated.\n   ** Warning ** ProcessScheduleInput: Schedule:Year=\"SCHEDULE RULESET 212\", Blank Schedule Type Limits Name input -- will not be validated.\n   ** Warning ** ProcessScheduleInput: Schedule:Year=\"SCHEDULE RULESET 213\", Blank Schedule Type Limits Name input -- will not be validated.\n   ** Warning ** ProcessScheduleInput: Schedule:Year=\"SCHEDULE RULESET 214\", Blank Schedule Type Limits Name input -- will not be validated.\n   ** Warning ** ProcessScheduleInput: Schedule:Year=\"SCHEDULE RULESET 215\", Blank Schedule Type Limits Name input -- will not be validated.\n   ** Warning ** ProcessScheduleInput: Schedule:Year=\"SCHEDULE RULESET 216\", Blank Schedule Type Limits Name input -- will not be validated.\n   ** Warning ** ProcessScheduleInput: Schedule:Year=\"SCHEDULE RULESET 217\", Blank Schedule Type Limits Name input -- will not be validated.\n   ** Warning ** ProcessScheduleInput: Schedule:Year=\"SCHEDULE RULESET 218\", Blank Schedule Type Limits Name input -- will not be validated.\n   ** Warning ** ProcessScheduleInput: Schedule:Year=\"SCHEDULE RULESET 219\", Blank Schedule Type Limits Name input -- will not be validated.\n   ** Warning ** ProcessScheduleInput: Schedule:Year=\"SCHEDULE RULESET 22\", Blank Schedule Type Limits Name input -- will not be validated.\n   ** Warning ** ProcessScheduleInput: Schedule:Year=\"SCHEDULE RULESET 220\", Blank Schedule Type Limits Name input -- will not be validated.\n   ** Warning ** ProcessScheduleInput: Schedule:Year=\"SCHEDULE RULESET 221\", Blank Schedule Type Limits Name input -- will not be validated.\n   ** Warning ** ProcessScheduleInput: Schedule:Year=\"SCHEDULE RULESET 222\", Blank Schedule Type Limits Name input -- will not be validated.\n   ** Warning ** ProcessScheduleInput: Schedule:Year=\"SCHEDULE RULESET 223\", Blank Schedule Type Limits Name input -- will not be validated.\n   ** Warning ** ProcessScheduleInput: Schedule:Year=\"SCHEDULE RULESET 224\", Blank Schedule Type Limits Name input -- will not be validated.\n   ** Warning ** ProcessScheduleInput: Schedule:Year=\"SCHEDULE RULESET 225\", Blank Schedule Type Limits Name input -- will not be validated.\n   ** Warning ** ProcessScheduleInput: Schedule:Year=\"SCHEDULE RULESET 226\", Blank Schedule Type Limits Name input -- will not be validated.\n   ** Warning ** ProcessScheduleInput: Schedule:Year=\"SCHEDULE RULESET 227\", Blank Schedule Type Limits Name input -- will not be validated.\n   ** Warning ** ProcessScheduleInput: Schedule:Year=\"SCHEDULE RULESET 228\", Blank Schedule Type Limits Name input -- will not be validated.\n   ** Warning ** ProcessScheduleInput: Schedule:Year=\"SCHEDULE RULESET 229\", Blank Schedule Type Limits Name input -- will not be validated.\n   ** Warning ** ProcessScheduleInput: Schedule:Year=\"SCHEDULE RULESET 23\", Blank Schedule Type Limits Name input -- will not be validated.\n   ** Warning ** ProcessScheduleInput: Schedule:Year=\"SCHEDULE RULESET 230\", Blank Schedule Type Limits Name input -- will not be validated.\n   ** Warning ** ProcessScheduleInput: Schedule:Year=\"SCHEDULE RULESET 231\", Blank Schedule Type Limits Name input -- will not be validated.\n   ** Warning ** ProcessScheduleInput: Schedule:Year=\"SCHEDULE RULESET 232\", Blank Schedule Type Limits Name input -- will not be validated.\n   ** Warning ** ProcessScheduleInput: Schedule:Year=\"SCHEDULE RULESET 233\", Blank Schedule Type Limits Name input -- will not be validated.\n   ** Warning ** ProcessScheduleInput: Schedule:Year=\"SCHEDULE RULESET 234\", Blank Schedule Type Limits Name input -- will not be validated.\n   ** Warning ** ProcessScheduleInput: Schedule:Year=\"SCHEDULE RULESET 235\", Blank Schedule Type Limits Name input -- will not be validated.\n   ** Warning ** ProcessScheduleInput: Schedule:Year=\"SCHEDULE RULESET 236\", Blank Schedule Type Limits Name input -- will not be validated.\n   ** Warning ** ProcessScheduleInput: Schedule:Year=\"SCHEDULE RULESET 237\", Blank Schedule Type Limits Name input -- will not be validated.\n   ** Warning ** ProcessScheduleInput: Schedule:Year=\"SCHEDULE RULESET 238\", Blank Schedule Type Limits Name input -- will not be validated.\n   ** Warning ** ProcessScheduleInput: Schedule:Year=\"SCHEDULE RULESET 239\", Blank Schedule Type Limits Name input -- will not be validated.\n   ** Warning ** ProcessScheduleInput: Schedule:Year=\"SCHEDULE RULESET 24\", Blank Schedule Type Limits Name input -- will not be validated.\n   ** Warning ** ProcessScheduleInput: Schedule:Year=\"SCHEDULE RULESET 240\", Blank Schedule Type Limits Name input -- will not be validated.\n   ** Warning ** ProcessScheduleInput: Schedule:Year=\"SCHEDULE RULESET 241\", Blank Schedule Type Limits Name input -- will not be validated.\n   ** Warning ** ProcessScheduleInput: Schedule:Year=\"SCHEDULE RULESET 242\", Blank Schedule Type Limits Name input -- will not be validated.\n   ** Warning ** ProcessScheduleInput: Schedule:Year=\"SCHEDULE RULESET 25\", Blank Schedule Type Limits Name input -- will not be validated.\n   ** Warning ** ProcessScheduleInput: Schedule:Year=\"SCHEDULE RULESET 26\", Blank Schedule Type Limits Name input -- will not be validated.\n   ** Warning ** ProcessScheduleInput: Schedule:Year=\"SCHEDULE RULESET 27\", Blank Schedule Type Limits Name input -- will not be validated.\n   ** Warning ** ProcessScheduleInput: Schedule:Year=\"SCHEDULE RULESET 28\", Blank Schedule Type Limits Name input -- will not be validated.\n   ** Warning ** ProcessScheduleInput: Schedule:Year=\"SCHEDULE RULESET 29\", Blank Schedule Type Limits Name input -- will not be validated.\n   ** Warning ** ProcessScheduleInput: Schedule:Year=\"SCHEDULE RULESET 3\", Blank Schedule Type Limits Name input -- will not be validated.\n   ** Warning ** ProcessScheduleInput: Schedule:Year=\"SCHEDULE RULESET 30\", Blank Schedule Type Limits Name input -- will not be validated.\n   ** Warning ** ProcessScheduleInput: Schedule:Year=\"SCHEDULE RULESET 31\", Blank Schedule Type Limits Name input -- will not be validated.\n   ** Warning ** ProcessScheduleInput: Schedule:Year=\"SCHEDULE RULESET 32\", Blank Schedule Type Limits Name input -- will not be validated.\n   ** Warning ** ProcessScheduleInput: Schedule:Year=\"SCHEDULE RULESET 33\", Blank Schedule Type Limits Name input -- will not be validated.\n   ** Warning ** ProcessScheduleInput: Schedule:Year=\"SCHEDULE RULESET 34\", Blank Schedule Type Limits Name input -- will not be validated.\n   ** Warning ** ProcessScheduleInput: Schedule:Year=\"SCHEDULE RULESET 35\", Blank Schedule Type Limits Name input -- will not be validated.\n   ** Warning ** ProcessScheduleInput: Schedule:Year=\"SCHEDULE RULESET 36\", Blank Schedule Type Limits Name input -- will not be validated.\n   ** Warning ** ProcessScheduleInput: Schedule:Year=\"SCHEDULE RULESET 37\", Blank Schedule Type Limits Name input -- will not be validated.\n   ** Warning ** ProcessScheduleInput: Schedule:Year=\"SCHEDULE RULESET 38\", Blank Schedule Type Limits Name input -- will not be validated.\n   ** Warning ** ProcessScheduleInput: Schedule:Year=\"SCHEDULE RULESET 39\", Blank Schedule Type Limits Name input -- will not be validated.\n   ** Warning ** ProcessScheduleInput: Schedule:Year=\"SCHEDULE RULESET 4\", Blank Schedule Type Limits Name input -- will not be validated.\n   ** Warning ** ProcessScheduleInput: Schedule:Year=\"SCHEDULE RULESET 40\", Blank Schedule Type Limits Name input -- will not be validated.\n   ** Warning ** ProcessScheduleInput: Schedule:Year=\"SCHEDULE RULESET 41\", Blank Schedule Type Limits Name input -- will not be validated.\n   ** Warning ** ProcessScheduleInput: Schedule:Year=\"SCHEDULE RULESET 42\", Blank Schedule Type Limits Name input -- will not be validated.\n   ** Warning ** ProcessScheduleInput: Schedule:Year=\"SCHEDULE RULESET 43\", Blank Schedule Type Limits Name input -- will not be validated.\n   ** Warning ** ProcessScheduleInput: Schedule:Year=\"SCHEDULE RULESET 44\", Blank Schedule Type Limits Name input -- will not be validated.\n   ** Warning ** ProcessScheduleInput: Schedule:Year=\"SCHEDULE RULESET 45\", Blank Schedule Type Limits Name input -- will not be validated.\n   ** Warning ** ProcessScheduleInput: Schedule:Year=\"SCHEDULE RULESET 46\", Blank Schedule Type Limits Name input -- will not be validated.\n   ** Warning ** ProcessScheduleInput: Schedule:Year=\"SCHEDULE RULESET 47\", Blank Schedule Type Limits Name input -- will not be validated.\n   ** Warning ** ProcessScheduleInput: Schedule:Year=\"SCHEDULE RULESET 48\", Blank Schedule Type Limits Name input -- will not be validated.\n   ** Warning ** ProcessScheduleInput: Schedule:Year=\"SCHEDULE RULESET 49\", Blank Schedule Type Limits Name input -- will not be validated.\n   ** Warning ** ProcessScheduleInput: Schedule:Year=\"SCHEDULE RULESET 5\", Blank Schedule Type Limits Name input -- will not be validated.\n   ** Warning ** ProcessScheduleInput: Schedule:Year=\"SCHEDULE RULESET 50\", Blank Schedule Type Limits Name input -- will not be validated.\n   ** Warning ** ProcessScheduleInput: Schedule:Year=\"SCHEDULE RULESET 51\", Blank Schedule Type Limits Name input -- will not be validated.\n   ** Warning ** ProcessScheduleInput: Schedule:Year=\"SCHEDULE RULESET 52\", Blank Schedule Type Limits Name input -- will not be validated.\n   ** Warning ** ProcessScheduleInput: Schedule:Year=\"SCHEDULE RULESET 53\", Blank Schedule Type Limits Name input -- will not be validated.\n   ** Warning ** ProcessScheduleInput: Schedule:Year=\"SCHEDULE RULESET 54\", Blank Schedule Type Limits Name input -- will not be validated.\n   ** Warning ** ProcessScheduleInput: Schedule:Year=\"SCHEDULE RULESET 55\", Blank Schedule Type Limits Name input -- will not be validated.\n   ** Warning ** ProcessScheduleInput: Schedule:Year=\"SCHEDULE RULESET 56\", Blank Schedule Type Limits Name input -- will not be validated.\n   ** Warning ** ProcessScheduleInput: Schedule:Year=\"SCHEDULE RULESET 57\", Blank Schedule Type Limits Name input -- will not be validated.\n   ** Warning ** ProcessScheduleInput: Schedule:Year=\"SCHEDULE RULESET 58\", Blank Schedule Type Limits Name input -- will not be validated.\n   ** Warning ** ProcessScheduleInput: Schedule:Year=\"SCHEDULE RULESET 59\", Blank Schedule Type Limits Name input -- will not be validated.\n   ** Warning ** ProcessScheduleInput: Schedule:Year=\"SCHEDULE RULESET 6\", Blank Schedule Type Limits Name input -- will not be validated.\n   ** Warning ** ProcessScheduleInput: Schedule:Year=\"SCHEDULE RULESET 60\", Blank Schedule Type Limits Name input -- will not be validated.\n   ** Warning ** ProcessScheduleInput: Schedule:Year=\"SCHEDULE RULESET 61\", Blank Schedule Type Limits Name input -- will not be validated.\n   ** Warning ** ProcessScheduleInput: Schedule:Year=\"SCHEDULE RULESET 62\", Blank Schedule Type Limits Name input -- will not be validated.\n   ** Warning ** ProcessScheduleInput: Schedule:Year=\"SCHEDULE RULESET 63\", Blank Schedule Type Limits Name input -- will not be validated.\n   ** Warning ** ProcessScheduleInput: Schedule:Year=\"SCHEDULE RULESET 64\", Blank Schedule Type Limits Name input -- will not be validated.\n   ** Warning ** ProcessScheduleInput: Schedule:Year=\"SCHEDULE RULESET 65\", Blank Schedule Type Limits Name input -- will not be validated.\n   ** Warning ** ProcessScheduleInput: Schedule:Year=\"SCHEDULE RULESET 66\", Blank Schedule Type Limits Name input -- will not be validated.\n   ** Warning ** ProcessScheduleInput: Schedule:Year=\"SCHEDULE RULESET 67\", Blank Schedule Type Limits Name input -- will not be validated.\n   ** Warning ** ProcessScheduleInput: Schedule:Year=\"SCHEDULE RULESET 68\", Blank Schedule Type Limits Name input -- will not be validated.\n   ** Warning ** ProcessScheduleInput: Schedule:Year=\"SCHEDULE RULESET 69\", Blank Schedule Type Limits Name input -- will not be validated.\n   ** Warning ** ProcessScheduleInput: Schedule:Year=\"SCHEDULE RULESET 7\", Blank Schedule Type Limits Name input -- will not be validated.\n   ** Warning ** ProcessScheduleInput: Schedule:Year=\"SCHEDULE RULESET 70\", Blank Schedule Type Limits Name input -- will not be validated.\n   ** Warning ** ProcessScheduleInput: Schedule:Year=\"SCHEDULE RULESET 71\", Blank Schedule Type Limits Name input -- will not be validated.\n   ** Warning ** ProcessScheduleInput: Schedule:Year=\"SCHEDULE RULESET 72\", Blank Schedule Type Limits Name input -- will not be validated.\n   ** Warning ** ProcessScheduleInput: Schedule:Year=\"SCHEDULE RULESET 73\", Blank Schedule Type Limits Name input -- will not be validated.\n   ** Warning ** ProcessScheduleInput: Schedule:Year=\"SCHEDULE RULESET 74\", Blank Schedule Type Limits Name input -- will not be validated.\n   ** Warning ** ProcessScheduleInput: Schedule:Year=\"SCHEDULE RULESET 75\", Blank Schedule Type Limits Name input -- will not be validated.\n   ** Warning ** ProcessScheduleInput: Schedule:Year=\"SCHEDULE RULESET 76\", Blank Schedule Type Limits Name input -- will not be validated.\n   ** Warning ** ProcessScheduleInput: Schedule:Year=\"SCHEDULE RULESET 77\", Blank Schedule Type Limits Name input -- will not be validated.\n   ** Warning ** ProcessScheduleInput: Schedule:Year=\"SCHEDULE RULESET 78\", Blank Schedule Type Limits Name input -- will not be validated.\n   ** Warning ** ProcessScheduleInput: Schedule:Year=\"SCHEDULE RULESET 79\", Blank Schedule Type Limits Name input -- will not be validated.\n   ** Warning ** ProcessScheduleInput: Schedule:Year=\"SCHEDULE RULESET 8\", Blank Schedule Type Limits Name input -- will not be validated.\n   ** Warning ** ProcessScheduleInput: Schedule:Year=\"SCHEDULE RULESET 80\", Blank Schedule Type Limits Name input -- will not be validated.\n   ** Warning ** ProcessScheduleInput: Schedule:Year=\"SCHEDULE RULESET 81\", Blank Schedule Type Limits Name input -- will not be validated.\n   ** Warning ** ProcessScheduleInput: Schedule:Year=\"SCHEDULE RULESET 82\", Blank Schedule Type Limits Name input -- will not be validated.\n   ** Warning ** ProcessScheduleInput: Schedule:Year=\"SCHEDULE RULESET 83\", Blank Schedule Type Limits Name input -- will not be validated.\n   ** Warning ** ProcessScheduleInput: Schedule:Year=\"SCHEDULE RULESET 84\", Blank Schedule Type Limits Name input -- will not be validated.\n   ** Warning ** ProcessScheduleInput: Schedule:Year=\"SCHEDULE RULESET 85\", Blank Schedule Type Limits Name input -- will not be validated.\n   ** Warning ** ProcessScheduleInput: Schedule:Year=\"SCHEDULE RULESET 86\", Blank Schedule Type Limits Name input -- will not be validated.\n   ** Warning ** ProcessScheduleInput: Schedule:Year=\"SCHEDULE RULESET 87\", Blank Schedule Type Limits Name input -- will not be validated.\n   ** Warning ** ProcessScheduleInput: Schedule:Year=\"SCHEDULE RULESET 88\", Blank Schedule Type Limits Name input -- will not be validated.\n   ** Warning ** ProcessScheduleInput: Schedule:Year=\"SCHEDULE RULESET 89\", Blank Schedule Type Limits Name input -- will not be validated.\n   ** Warning ** ProcessScheduleInput: Schedule:Year=\"SCHEDULE RULESET 9\", Blank Schedule Type Limits Name input -- will not be validated.\n   ** Warning ** ProcessScheduleInput: Schedule:Year=\"SCHEDULE RULESET 90\", Blank Schedule Type Limits Name input -- will not be validated.\n   ** Warning ** ProcessScheduleInput: Schedule:Year=\"SCHEDULE RULESET 91\", Blank Schedule Type Limits Name input -- will not be validated.\n   ** Warning ** ProcessScheduleInput: Schedule:Year=\"SCHEDULE RULESET 92\", Blank Schedule Type Limits Name input -- will not be validated.\n   ** Warning ** ProcessScheduleInput: Schedule:Year=\"SCHEDULE RULESET 93\", Blank Schedule Type Limits Name input -- will not be validated.\n   ** Warning ** ProcessScheduleInput: Schedule:Year=\"SCHEDULE RULESET 94\", Blank Schedule Type Limits Name input -- will not be validated.\n   ** Warning ** ProcessScheduleInput: Schedule:Year=\"SCHEDULE RULESET 95\", Blank Schedule Type Limits Name input -- will not be validated.\n   ** Warning ** ProcessScheduleInput: Schedule:Year=\"SCHEDULE RULESET 96\", Blank Schedule Type Limits Name input -- will not be validated.\n   ** Warning ** ProcessScheduleInput: Schedule:Year=\"SCHEDULE RULESET 97\", Blank Schedule Type Limits Name input -- will not be validated.\n   ** Warning ** ProcessScheduleInput: Schedule:Year=\"SCHEDULE RULESET 98\", Blank Schedule Type Limits Name input -- will not be validated.\n   ** Warning ** ProcessScheduleInput: Schedule:Year=\"SCHEDULE RULESET 99\", Blank Schedule Type Limits Name input -- will not be validated.\n   ** Warning ** ProcessScheduleInput: Schedule:Constant=\"ALWAYS OFF DISCRETE\", Blank Schedule Type Limits Name input -- will not be validated.\n   ** Warning ** ProcessScheduleInput: Schedule:Constant=\"ALWAYS ON CONTINUOUS\", Blank Schedule Type Limits Name input -- will not be validated.\n   ** Warning ** CheckUsedConstructions: There are 24 nominally unused constructions in input.\n   **   ~~~   ** For explicit details on each unused construction, use Output:Diagnostics,DisplayExtraWarnings;\n   ************* Beginning System Sizing Calculations\n   ** Warning ** GetDXCoils: Coil:Cooling:DX:SingleSpeed=\"COIL COOLING DX SINGLE SPEED 59 6KBTU/HR 11.0EER\", invalid\n   **   ~~~   ** ...Part Load Fraction Correlation Curve Name = DXCOOL-NECB2011-REF-COOLPLFFPLR 54 has out of range value.\n   **   ~~~   ** ...Curve maximum must be <= 1.0, curve max at PLR = 0.99 is 1.015\n   **   ~~~   ** ...Setting curve maximum to 1.0 and simulation continues.\n   ** Warning ** GetDXCoils: Coil:Cooling:DX:SingleSpeed=\"COIL COOLING DX SINGLE SPEED 56 5KBTU/HR 11.0EER\", invalid\n   **   ~~~   ** ...Part Load Fraction Correlation Curve Name = DXCOOL-NECB2011-REF-COOLPLFFPLR 51 has out of range value.\n   **   ~~~   ** ...Curve maximum must be <= 1.0, curve max at PLR = 0.99 is 1.015\n   **   ~~~   ** ...Setting curve maximum to 1.0 and simulation continues.\n   ** Warning ** GetDXCoils: Coil:Cooling:DX:SingleSpeed=\"COIL COOLING DX SINGLE SPEED 57 5KBTU/HR 11.0EER\", invalid\n   **   ~~~   ** ...Part Load Fraction Correlation Curve Name = DXCOOL-NECB2011-REF-COOLPLFFPLR 52 has out of range value.\n   **   ~~~   ** ...Curve maximum must be <= 1.0, curve max at PLR = 0.99 is 1.015\n   **   ~~~   ** ...Setting curve maximum to 1.0 and simulation continues.\n   ** Warning ** GetDXCoils: Coil:Cooling:DX:SingleSpeed=\"COIL COOLING DX SINGLE SPEED 58 8KBTU/HR 10.9EER\", invalid\n   **   ~~~   ** ...Part Load Fraction Correlation Curve Name = DXCOOL-NECB2011-REF-COOLPLFFPLR 53 has out of range value.\n   **   ~~~   ** ...Curve maximum must be <= 1.0, curve max at PLR = 0.99 is 1.015\n   **   ~~~   ** ...Setting curve maximum to 1.0 and simulation continues.\n   ** Warning ** GetDXCoils: Coil:Cooling:DX:SingleSpeed=\"COIL COOLING DX SINGLE SPEED 55 9KBTU/HR 10.6EER\", invalid\n   **   ~~~   ** ...Part Load Fraction Correlation Curve Name = DXCOOL-NECB2011-REF-COOLPLFFPLR 50 has out of range value.\n   **   ~~~   ** ...Curve maximum must be <= 1.0, curve max at PLR = 0.99 is 1.015\n   **   ~~~   ** ...Setting curve maximum to 1.0 and simulation continues.\n   ** Warning ** GetDXCoils: Coil:Cooling:DX:SingleSpeed=\"COIL COOLING DX SINGLE SPEED 63 7KBTU/HR 10.9EER\", invalid\n   **   ~~~   ** ...Part Load Fraction Correlation Curve Name = DXCOOL-NECB2011-REF-COOLPLFFPLR 59 has out of range value.\n   **   ~~~   ** ...Curve maximum must be <= 1.0, curve max at PLR = 0.99 is 1.015\n   **   ~~~   ** ...Setting curve maximum to 1.0 and simulation continues.\n   ** Warning ** GetDXCoils: Coil:Cooling:DX:SingleSpeed=\"COIL COOLING DX SINGLE SPEED 62 7KBTU/HR 10.9EER\", invalid\n   **   ~~~   ** ...Part Load Fraction Correlation Curve Name = DXCOOL-NECB2011-REF-COOLPLFFPLR 58 has out of range value.\n   **   ~~~   ** ...Curve maximum must be <= 1.0, curve max at PLR = 0.99 is 1.015\n   **   ~~~   ** ...Setting curve maximum to 1.0 and simulation continues.\n   ** Warning ** GetDXCoils: Coil:Cooling:DX:SingleSpeed=\"COIL COOLING DX SINGLE SPEED 60 10KBTU/HR 10.3EER\", invalid\n   **   ~~~   ** ...Part Load Fraction Correlation Curve Name = DXCOOL-NECB2011-REF-COOLPLFFPLR 56 has out of range value.\n   **   ~~~   ** ...Curve maximum must be <= 1.0, curve max at PLR = 0.99 is 1.015\n   **   ~~~   ** ...Setting curve maximum to 1.0 and simulation continues.\n   ** Warning ** GetDXCoils: Coil:Cooling:DX:SingleSpeed=\"COIL COOLING DX SINGLE SPEED 61 10KBTU/HR 10.3EER\", invalid\n   **   ~~~   ** ...Part Load Fraction Correlation Curve Name = DXCOOL-NECB2011-REF-COOLPLFFPLR 57 has out of range value.\n   **   ~~~   ** ...Curve maximum must be <= 1.0, curve max at PLR = 0.99 is 1.015\n   **   ~~~   ** ...Setting curve maximum to 1.0 and simulation continues.\n   ** Warning ** GetDXCoils: Coil:Cooling:DX:SingleSpeed=\"COIL COOLING DX SINGLE SPEED 77 6KBTU/HR 11.0EER\", invalid\n   **   ~~~   ** ...Part Load Fraction Correlation Curve Name = DXCOOL-NECB2011-REF-COOLPLFFPLR 74 has out of range value.\n   **   ~~~   ** ...Curve maximum must be <= 1.0, curve max at PLR = 0.99 is 1.015\n   **   ~~~   ** ...Setting curve maximum to 1.0 and simulation continues.\n   ** Warning ** GetDXCoils: Coil:Cooling:DX:SingleSpeed=\"COIL COOLING DX SINGLE SPEED 73 5KBTU/HR 11.0EER\", invalid\n   **   ~~~   ** ...Part Load Fraction Correlation Curve Name = DXCOOL-NECB2011-REF-COOLPLFFPLR 70 has out of range value.\n   **   ~~~   ** ...Curve maximum must be <= 1.0, curve max at PLR = 0.99 is 1.015\n   **   ~~~   ** ...Setting curve maximum to 1.0 and simulation continues.\n   ** Warning ** GetDXCoils: Coil:Cooling:DX:SingleSpeed=\"COIL COOLING DX SINGLE SPEED 75 5KBTU/HR 11.0EER\", invalid\n   **   ~~~   ** ...Part Load Fraction Correlation Curve Name = DXCOOL-NECB2011-REF-COOLPLFFPLR 72 has out of range value.\n   **   ~~~   ** ...Curve maximum must be <= 1.0, curve max at PLR = 0.99 is 1.015\n   **   ~~~   ** ...Setting curve maximum to 1.0 and simulation continues.\n   ** Warning ** GetDXCoils: Coil:Cooling:DX:SingleSpeed=\"COIL COOLING DX SINGLE SPEED 76 8KBTU/HR 10.9EER\", invalid\n   **   ~~~   ** ...Part Load Fraction Correlation Curve Name = DXCOOL-NECB2011-REF-COOLPLFFPLR 73 has out of range value.\n   **   ~~~   ** ...Curve maximum must be <= 1.0, curve max at PLR = 0.99 is 1.015\n   **   ~~~   ** ...Setting curve maximum to 1.0 and simulation continues.\n   ** Warning ** GetDXCoils: Coil:Cooling:DX:SingleSpeed=\"COIL COOLING DX SINGLE SPEED 74 9KBTU/HR 10.6EER\", invalid\n   **   ~~~   ** ...Part Load Fraction Correlation Curve Name = DXCOOL-NECB2011-REF-COOLPLFFPLR 71 has out of range value.\n   **   ~~~   ** ...Curve maximum must be <= 1.0, curve max at PLR = 0.99 is 1.015\n   **   ~~~   ** ...Setting curve maximum to 1.0 and simulation continues.\n   ** Warning ** GetDXCoils: Coil:Cooling:DX:SingleSpeed=\"COIL COOLING DX SINGLE SPEED 81 7KBTU/HR 10.9EER\", invalid\n   **   ~~~   ** ...Part Load Fraction Correlation Curve Name = DXCOOL-NECB2011-REF-COOLPLFFPLR 79 has out of range value.\n   **   ~~~   ** ...Curve maximum must be <= 1.0, curve max at PLR = 0.99 is 1.015\n   **   ~~~   ** ...Setting curve maximum to 1.0 and simulation continues.\n   ** Warning ** GetDXCoils: Coil:Cooling:DX:SingleSpeed=\"COIL COOLING DX SINGLE SPEED 80 8KBTU/HR 10.9EER\", invalid\n   **   ~~~   ** ...Part Load Fraction Correlation Curve Name = DXCOOL-NECB2011-REF-COOLPLFFPLR 78 has out of range value.\n   **   ~~~   ** ...Curve maximum must be <= 1.0, curve max at PLR = 0.99 is 1.015\n   **   ~~~   ** ...Setting curve maximum to 1.0 and simulation continues.\n   ** Warning ** GetDXCoils: Coil:Cooling:DX:SingleSpeed=\"COIL COOLING DX SINGLE SPEED 78 10KBTU/HR 10.4EER\", invalid\n   **   ~~~   ** ...Part Load Fraction Correlation Curve Name = DXCOOL-NECB2011-REF-COOLPLFFPLR 75 has out of range value.\n   **   ~~~   ** ...Curve maximum must be <= 1.0, curve max at PLR = 0.99 is 1.015\n   **   ~~~   ** ...Setting curve maximum to 1.0 and simulation continues.\n   ** Warning ** GetDXCoils: Coil:Cooling:DX:SingleSpeed=\"COIL COOLING DX SINGLE SPEED 79 10KBTU/HR 10.3EER\", invalid\n   **   ~~~   ** ...Part Load Fraction Correlation Curve Name = DXCOOL-NECB2011-REF-COOLPLFFPLR 76 has out of range value.\n
[...]
LJgS5ep0ZbJIaTbgZXc3OTDXJjiYEuZqdGWmKIG07RzKkCUHxSyQ50oSg+PBLljQhKD78kidNCIoPv2ZKU5Js3c5MNk2WpiTZ6p0ZbpovTUmyNTwz3zRlmnJX2jqeGXGaNU1JsnU8M+UQpyFOQ5x2jxBxWr0QpyFOQ5yWWYjTEKd1elaI0xr7d/h5xGnbC3HaZvXwOa098wuAAw444IADDjjggAMOOOAMHmfPtAPQQAMNNNBAAw000EADDTTDoXk0ugNwwAEHHHDAAQcccMABB5zy/RCnrRfitI04bTYQcdpsCOK02c7EabPbr4WWSm5cQWNX0MQVNHUFzVxBc1fQwhW0dAU1vn+vJdm6nWzlTrZ2J1u9k63fyVbwZGt4slU82Tpe2Tpe+e5vW8crW8erbh1vL05rZpWL05Sc+FUqF6cpOfEtUC5OU3LiG6BcnKbkxKdfEKdJQa5GZ8abIE6Tglylzsw2QZwmBbl6nRlsgjhNuhldzc5MNUGcJgW5mp0ZaeXitGaOIE6TguKXSBCnSUHx4RfEaVJQfPgFcZoUFB9+RZymJdm6nZlsijhNS7LVOzPcFHGalmRreGa+KeI07a60dTwz4hRxmpZk63hmyiFOQ5yGOO0eIeK0eiFOQ5yGOC2zEKchTuv0rBCnNfbv8POI07YX4rTN6uFzWnvmFwAHHHDAAQcccMABBxxwwBk8zp5pB6CBBhpooIEGGmiggQYaaIZD82h0B+CAAw444IADDjjggAMOOOX7IU5bL8RpG3HafCDitPkQxGnznYnTDg8qizdNyRmbciamnKkpZ2bKmZtyFqacpSmn8bV7KcjV6OSqdHJ1OrlKnVytTq5aJ1evk6vYydXsytXsynZXu5pduZpddWp2e0FaI6rcjybEhK9QuR1NiAnPfbkbTYgJz3y5GU2ICc+74EVTckw9jseYIEVTckxVjmeYYERTckxtjgeYoENT7kFTn+PpJbjQlBxTn+PRVS5Ca8QIHjQlJ3x5BAuakhMed8GBpuSEx10woCk54XFX/GdSkKvR8QRT5GdSkKvU8RBTzGdSkKvX8RxTtGfSzehqdjzKFOeZFORqdjzNEJ4hPEN4do8Q4Vm9EJ4hPEN4llkIzxCedXpWCM8a+3f4eYRn2wvh2Wb18PmqPfMCgAMOOOCAAw444IADDjjgDB5nz3QB0EADDTTQQAMNNNBAAw00w6F5NJoCcMABBxxwwAEHHHDAAQec8v0Qnq0XwrON8GwxEOHZYgjCs8UOhWeHU5PxTAgau4ImrqCpK2jmCpq7ghauoKUr6L0v3CtJtm4nW7mTrd3JVu9k63eyFTzZGp5sFU+2jle2jle++9vW8crW8apbx7uI0LazFBNaeU78KikutPKc+BZQbGjlOfENoPjQynPi0y8Z0YQgV6Mz402SoglBrlJnZpvkRROCXL3ODDZJjSbcjK5mZ6aaZEcTglzNzow0RZC2nSMZ0oSg+CWSHGlCUHz4JUuaEBQffsmTJgTFh18zpSlJtm5nJpsmS1OSbPXODDfNl6Yk2RqemW+aMk25K20dz4w4zZqmJNk6nplyiNMQpyFOu0eIOK1eiNMQpyFOyyzEaYjTOj0rxGmN/Tv8POK07YU4bbN6+JzWnvkFwAEHHHDAAQcccMABBxxwBo+zZ9oBaKCBBhpooIEGGmiggQaa4dA8Gt0BOOCAAw444IADDjjggANO+X6I09YLcdpGnLYciDhtOQRx2nJn4rTZ7ddCSyU3rqCxK2jiCpq6gmauoLkraOEKWrqCGt+/15Js3U62cidbu5Ot3snW72QreLI1PNkqnmwdr2wdr3z3t63jla3jVbeOtxenNbPKxWlKTvwqlYvTlJz4FigXpyk58Q1QLk5TcuLTL4jTpCBXozPjTRCnSUGuUmdmmyBOk4Jcvc4MNkGcJt2MrmZnppogTpOCXM3OjLRycVozRxCnSUHxSySI06Sg+PAL4jQpKD78gjhNCooPvyJO05Js3c5MNkWcpiXZ6p0Zboo4TUuyNTwz3xRxmnZX2jqeGXGKOE1LsnU8M+UQpyFOQ5x2jxBxWr0QpyFOQ5yWWYjTEKd1elaI0xr7d/h5xGnbC3HaZvXwOa098wuAAw444IADDjjggAMOOOAMHmfPtAPQQAMNNNBAAw000EADDTTDoXk0ugNwwAEHHHDAAQcccMABB5zy/RCnrRfitDtx2mIY3rTp4QC8aTeQeNOKgvCmPRyEN61VEt40vGl40/Cm4U3Dm4Y3DW8a3rRfvRnxpj0chDftwSC8aXjT8KbhTbMl4U1rl4Q3LYbBm4Y37f2FN+0OH2/a+wtvWpuFN63bz+NNw5vW6VnhTWvs3+Hn8aZtL7xpm9XDx7T2TC8ADjjggAMOOOCAAw444IAzeJw9sw5AAw000EADDTTQQAMNNNAMh+bR2A7AAQcccMABBxxwwAEHHHDK98Obtl540zbetMOBiNPSEMRpaWfitMODyuJNU3LGppyJKWdqypmZcuamnIUpZ2nKaXztXgpyNTq5Kp1cnU6uUidXq5Or1snV6+QqdnI1u3I1u7Ld1a5mV65mV52a3V6Q1ogq96MJMeErVG5HE2LCc1/uRhNiwjNfbkYTYsLzLnjRlBxTj+MxJkjRlBxTleMZJhjRlBxTm+MBJujQlHvQ1Od4egkuNCXH1Od4dJWL0BoxggdNyQlfHsGCpuSEx11woCk54XEXDGhKTnjcFf+ZFORqdDzBFPmZFOQqdTzEFPOZFOTqdTzHFO2ZdDO6mh2PMsV5JgW5mh1PM4RnCM8Qnt0jRHhWL4RnCM8QnmUWwjOEZ52eFcKzxv4dfh7h2fZCeLZZPXy+as+8AOCAAw444IADDjjggAMOOIPH2TNdADTQQAMNNNBAAw000EADzXBoHo2mABxwwAEHHHDAAQcccMABp3w/hGfrhfBsIzxLAxGeVUMQnlU7FJ4dTk3GMyFo7AqauIKmrqCZK2juClq4gpauoPe+cK8k2bqdbOVOtnYnW72Trd/JVvBka3iyVTzZOl7ZOl757m9bxytbx6tuHe8iQtvOUkxo5Tnxq6S40Mpz4ltAsaGV58Q3gOJDK8+JT79kRBOCXI3OjDdJiiYEuUqdmW2SF00IcvU6M9gkNZpwM7qanZlqkh1NCHI1OzPSFEHado5kSBOC4pdIcqQJQfHhlyxpQlB8+CVPmhAUH37NlKYk2bqdmWyaLE1JstU7M9w0X5qSZGt4Zr5pyjTlrrR1PDPiNGuakmTreGbKIU5DnIY47R4h4rR6IU5DnIY4LbMQpyFO6/SsEKc19u/w84jTthfitM3q4XNae+YXAAcccMABBxxwwAEHHHDAGTzOnmkHoIEGGmiggQYaaKCBBhpohkPzaHQH4IADDjjggAMOOOCAAw445fshTlsvxGkbcVo1EHHaeAjitPHOxGmz26+FlkpuXEFjV9DEFTR1Bc1cQXNX0MIVtHQFNb5/ryXZup1s5U62didbvZOt38lW8GRreLJVPNk6Xtk6Xvnub1vHK1vHq24dby9Oa2aVi9OUnPhVKhenKTnxLVAuTlNy4hugXJym5MSnXxCnSUGuRmfGmyBOk4Jcpc7MNkGcJgW5ep0ZbII4TboZXc3OTDVBnCYFuZqdGWnl4rRmjiBOk4Lil0gQp0lB8eEXxGlSUHz4BXGaFBQffkWcpiXZup2ZbIo4TUuy1Tsz3BRxmpZka3hmviniNO2utHU8M+IUcZqWZOt4ZsohTkOchjjtHiHitHohTkOchjgtsxCnIU7r9KwQpzX27/DziNO2F+K0zerhc1p75hcABxxwwAEHHHDAAQcccMAZPM6eaQeggQYaaKCBBhpooIEGGmiGQ/NodAfggAMOOOCAAw444IADDjjl+yFOWy/EaRtx2ngg4rTJEMRpk52J0w4PKos3TckZm3ImppypKWdmypmbchamnKUpp/G1eynI1ejkqnRydTq5Sp1crU6uWidXr5Or2MnV7MrV7Mp2V7uaXbmaXXVqdntBWiOq3I8mxISvULkdTYgJz325G02ICc98uRlNiAnPu+BFU3JMPY7HmCBFU3JMVY5nmGBEU3JMbY4HmKBDU+5BU5/j6SW40JQcU5/j0VUuQmvECB40JSd8eQQLmpITHnfBgabkhMddMKApOeFxV/xnUpCr0fEEU+RnUpCr1PEQU8xnUpCr1/EcU7Rn0s3oanY8yhTnmRTkanY8zRCeITxDeHaPEOFZvRCeITxDeJZZCM8QnnV6VgjPGvt3+HmEZ9sL4dlm9fD5qj3zAoADDjjggAMOOOCAAw444AweZ890AdBAAw000EADDTTQQAMNNMOheTSaAnDAAQcccMABBxxwwAEHnPL9EJ6tF8KzjfBsMhDh2XQIwrPpDoVnh1OT8UwIGruCJq6gqSto5gqau4IWrqClK+i9L9wrSbZuJ1u5k63dyVbvZOt3shU82RqebBVPto5Xto5Xvvvb1vHK1vGqW8e7iNC2sxQTWnlO/CopLrTynPgWUGxo5TnxDaD40Mpz4tMvGdGEIFejM+NNkqIJQa5SZ2ab5EUTgly9zgw2SY0m3IyuZmemmmRHE4Jczc6MNEWQtp0jGdKEoPglkhxpQlB8+CVLmhAUH37JkyYExYdfM6UpSbZuZyabJktTkmz1zgw3zZemJNkanplvmjJNuSttHc+MOM2apiTZOp6ZcojTEKchTrtHiDitXojTEKchTsssxGmI0zo9K8Rpjf07/DzitO2FOG2zevic1p75BcABBxxwwAEHHHDAAQcccAaPs2faAWiggQYaaKCBBhpooIEGmuHQPBrdATjggAMOOOCAAw444IADTvl+iNPWC3HaRpw2HYg4bTYEcdpsZ+K02e3XQkslN66gsSto4gqauoJmrqC5K2jhClq6ghrfv9eSbN1OtnInW7uTrd7J1u9kK3iyNTzZKp5sHa9sHa9897et45Wt41W3jrcXpzWzysVpSk78KpWL05Sc+BYoF6cpOfENUC5OU3Li0y+I06QgV6Mz400Qp0lBrlJnZpsgTpOCXL3ODDZBnCbdjK5mZ6aaIE6TglzNzoy0cnFaM0cQp0lB8UskiNOkoPjwC+I0KSg+/II4TQqKD78iTtOSbN3OTDZFnKYl2eqdGW6KOE1LsjU8M98UcZp2V9o6nhlxijhNS7J1PDPlEKchTkOcdo8QcVq9EKchTkOcllmI0xCndXpWiNMa+3f4ecRp2wtx2mb18DmtPfMLgAMOOOCAAw444IADDjjgDB5nz7QD0EADDTTQQAMNNNBAAw00w6F5NLoDcMABBxxwwAEHHHDAAQec8v0Qp60X4rSNOG02EHHafAjitPnOxGmHB5XFm6bkjE05E1PO1JQzM+XMTTkLU87SlNP42r0U5Gp0clU6uTqdXKVOrlYnV62Tq9fJVezkanblanZlu6tdza5cza46Nbu9IK0RVe5HE2LCV6jcjibEhOe+3I0mxIRnvtyMJsSE513woik5ph7HY0yQoik5pirHM0wwoik5pjbHA0zQoSn3oKnP8fQSXGhKjqnP8egqF6E1YgQPmpITvjyCBU3JCY+74EBTcsLjLhjQlJzwuCv+MynI1eh4ginyMynIVep4iCnmMynI1et4jinaM+lmdDU7HmWK80wKcjU7nmYIzxCeITy7R4jwrF4IzxCeITzLLIRnCM86PSuEZ439O/w8wrPthfBss3r4fNWeeQHAAQcccMABBxxwwAEHHHAGj7NnugBooIEGGmiggQYaaKCBBprh0DwaTQE44IADDjjggAMOOOCAA075fgjP1gvh2UZ4Nh+I8GwxBOHZYofCs8OpyXgmBI1dQRNX0NQVNHMFzV1BC1fQ0hX03hfulSRbt5Ot3MnW7mSrd7L1O9kKnmwNT7aKJ1vHK1vHK9/9bet4Zet41a3jXURo21mKCa08J36VFBdaeU58Cyg2tPKc+AZQfGjlOfHpl4xoQpCr0ZnxJknRhCBXqTOzTfKiCUGuXmcGm6RGE25GV7MzU02yowlBrmZnRpoiSNvOkQxpQlD8EkmONCEoPvySJU0Iig+/5EkTguLDr5nSlCRbtzOTTZOlKUm2emeGm+ZLU5JsDc/MN02ZptyVto5nRpxmTVOSbB3PTDnEaYjTEKfdI0ScVi/EaYjTEKdlFuI0xGmdnhXitMb+HX4ecdr2Qpy2WT18TmvP/ALggAMOOOCAAw444IADDjiDx9kz7QA00EADDTTQQAMNNNBAA81waB6N7gAccMABBxxwwAEHHHDAAad8P8Rp64U4bSNOWwxEnLYcgjhtuTNx2uz2a6GlkhtX0NgVNHEFTV1BM1fQ3BW0cAUtXUGN799rSbZuJ1u5k63dyVbvZOt3shU82RqebBVPto5Xto5Xvvvb1vHK1vGqW8fbi9OaWeXiNCUnfpXKxWlKTnwLlIvTlJz4BigXpyk58ekXxGlSkKvRmfEmiNOkIFepM7NNEKdJQa5eZwabIE6TbkZXszNTTRCnSUGuZmdGWrk4rZkjiNOkoPglEsRpUlB8+AVxmhQUH35BnCYFxYdfEadpSbZuZyabIk7Tkmz1zgw3RZymJdkanplvijhNuyttHc+MOEWcpiXZOp6ZcojTEKchTrtHiDitXojTEKchTsssxGmI0zo9K8Rpjf07/DzitO2FOG2zevic1p75BcABBxxwwAEHHHDAAQcccAaPs2faAWiggQYaaKCBBhpooIEGmuHQPBrdATjggAMOOOCAAw444IADTvl+iNPWC3HaRpy2HIY4bXY4AHHaDeSuxGmHB5XFm6bkjE05E1PO1JQzM+XMTTkLU87SlNP42r0U5Gp0clU6uTqdXKVOrlYnV62Tq9fJVezkanblanZlu6tdza5cza46Nbu9IK0RVe5HE2LCV6jcjibEhOe+3I0mxIRnvtyMJsSE513woik5ph7HY0yQoik5pirHM0wwoik5pjbHA0zQoSn3oKnP8fQSXGhKjqnP8egqF6E1YgQPmpITvjyCBU3JCY+74EBTcsLjLhjQlJzwuCv+MynI1eh4ginyMynIVep4iCnmMynI1et4jinaM+lmdDU7HmWK80wKcjU7nmYIzxCeITy7R4jwrF4IzxCeITzLLIRnCM86PSuEZ439O/w8wrPthfBss3r4fNWeeQHAAQcccMABBxxwwAEHHHAGj7NnugBooIEGGmiggQYaaKCBBprh0DwaTQE44IADDjjggAMOOOCAA075fgjP1gvh2Z3wbCi+szQE31nCd4bv7OGv2eM7w3eG7wzfWZsgfGf4zvCd4TvDd4bvDN8ZvrNOgwvfGb6zVkH4zh4Ownf2cBC+s4eD8J1FMPjO8J29v/Cd3eHjO3t/4Ttrs/Cddft5fGf4zjo9K3xnjf07/Dy+s+2F72yzevh41Z5pAcABBxxwwAEHHHDAAQcccAaPs2e2AGiggQYaaKCBBhpooIEGmuHQPBpLATjggAMOOOCAAw444IADTvl++M7WC9/Zxnd2OBDhWTUE4Vm1Q+HZ4dRkPBOCxq6giSto6gqauYLmrqCFK2jpCnrvC/dKkq3byVbuZGt3stU72fqdbAVPtoYnW8WTreOVreOV7/62dbyydbzq1vEuIrTtLMWEVp4Tv0qKC608J74FFBtaeU58Ayg+tPKc+PRLRjQhyNXozHiTpGhCkKvUmdkmedGEIFevM4NNUqMJN6Or2ZmpJtnRhCBXszMjTRGkbedIhjQhKH6JJEeaEBQffsmSJgTFh1/ypAlB8eHXTGlKkq3bmcmmydKUJFu9M8NN86UpSbaGZ+abpkxT7kpbxzMjTrOmKUm2jmemHOI0xGmI0+4RIk6rF+I0xGmI0zILcRritE7PCnFaY/8OP484bXshTtusHj6ntWd+AXDAAQcccMABBxxwwAEHnMHj7Jl2ABpooIEGGmiggQYaaKCBZjg0j0Z3AA444IADDjjggAMOOOCAU74f4rT1Qpy2EaelgYjTxkMQp413Jk6b3X4ttFRy4woau4ImrqCpK2jmCpq7ghauoKUrqPH9ey3J1u1kK3eytTvZ6p1s/U62gidbw5Ot4snW8crW8cp3f9s6Xtk6XnXreHtxWjOrXJym5MSvUrk4TcmJb4FycZqSE98A5eI0JSc+/YI4TQpyNToz3gRxmhTkKnVmtgniNCnI1evMYBPEadLN6Gp2ZqoJ4jQpyNXszEgrF6c1cwRxmhQUv0SCOE0Kig+/IE6TguLDL4jTpKD48CviNC3J1u3MZFPEaVqSrd6Z4aaI07QkW8Mz800Rp2l3pa3jmRGniNO0JFvHM1MOcRriNMRp9wgRp9ULcRriNMRpmYU4DXFap2eFOK2xf4efR5y2vRCnbVYPn9PaM78AOOCAAw444IADDjjggAPO4HH2TDsADTTQQAMNNNBAAw000EAzHJpHozsABxxwwAEHHHDAAQcccMAp3w9x2nohTtuI06qBiNMmQxCnTXYmTjs8qCzeNCVnbMqZmHKmppyZKWduylmYcpamnMbX7qUgV6OTq9LJ1enkKnVytTq5ap1cvU6uYidXsytXsyvbXe1qduVqdtWp2e0FaY2ocj+aEBO+QuV2NCEmPPflbjQhJjzz5WY0ISY874IXTckx9TgeY4IUTckxVTmeYYIRTckxtTkeYIIOTbkHTX2Op5fgQlNyTH2OR1e5CK0RI3jQlJzw5REsaEpOeNwFB5qSEx53wYCm5ITHXfGfSUGuRscTTJGfSUGuUsdDTDGfSUGuXsdzTNGeSTejq9nxKFOcZ1KQq9nxNEN4hvAM4dk9QoRn9UJ4hvAM4VlmITxDeNbpWSE8a+zf4ecRnm0vhGeb1cPnq/bMCwAOOOCAAw444IADDjjggDN4nD3TBUADDTTQQAMNNNBAAw000AyH5tFoCsABBxxwwAEHHHDAAQcccMr3Q3i2XgjPNsKz8UCEZ9MhCM+mOxSeHU5NxjMhaOwKmriCpq6gmSto7gpauIKWrqD3vnCvJNm6nWzlTrZ2J1u9k63fyVbwZGt4slU82Tpe2Tpe+e5vW8crW8erbh3vIkLbzlJMaOU58aukuNDKc+JbQLGhlefEN4DiQyvPiU+/ZEQTglyNzow3SYomBLlKnZltkhdNCHL1OjPYJDWacDO6mp2ZapIdTQhyNTsz0hRB2naOZEgTguKXSHKkCUHx4ZcsaUJQfPglT5oQFB9+zZSmJNm6nZlsmixNSbLVOzPcNF+akmRreGa+aco05a60dTwz4jRrmpJk63hmyiFOQ5yGOO0eIeK0eiFOQ5yGOC2zEKchTuv0rBCnNfbv8POI07YX4rTN6uFzWnvmFwAHHHDAAQcccMABBxxwwBk8zp5pB6CBBhpooIEGGmiggQYaaIZD82h0B+CAAw444IADDjjggAMOOOX7IU5bL8RpG3HaZCDitNkQxGmznYnTZrdfCy2V3LiCxq6giSto6gqauYLmrqCFK2jpCmp8/15LsnU72cqdbO1OtnonW7+TreDJ1vBkq3iydbyydbzy3d+2jle2jlfdOt5enNbMKhenKTnxq1QuTlNy4lugXJym5MQ3QLk4TcmJT78gTpOCXI3OjDdBnCYFuUqdmW2COE0KcvU6M9gEcZp0M7qanZlqgjhNCnI1OzPSysVpzRxBnCYFxS+RIE6TguLDL4jTpKD48AviNCkoPvyKOE1LsnU7M9kUcZqWZKt3Zrgp4jQtydbwzHxTxGnaXWnreGbEKeI0LcnW8cyUQ5yGOA1x2j1CxGn1QpyGOA1xWmYhTkOc1ulZIU5r7N/h5xGnbS/EaZvVw+e09swvAA444IADDjjggAMOOOCAM3icPdMOQAMNNNBAAw000EADDTTQDIfm0egOwAEHHHDAAQcccMABBxxwyvdDnLZeiNM24rTpQMRp8yGI0+Y7E6cdHlQWb5qSMzblTEw5U1POzJQzN+UsTDlLU07ja/dSkKvRyVXp5Op0cpU6uVqdXLVOrl4nV7GTq9mVq9mV7a52NbtyNbvq1Oz2grRGVLkfTYgJX6FyO5oQE577cjeaEBOe+XIzmhATnnfBi6bkmHocjzFBiqbkmKoczzDBiKbkmNocDzBBh6bcg6Y+x9NLcKEpOaY+x6OrXITWiBE8aEpO+PIIFjQlJzzuggNNyQmPu2BAU3LC4674z6QgV6PjCabIz6QgV6njIaaYz6QgV6/jOaZoz6Sb0dXseJQpzjMpyNXseJohPEN4hvDsHiHCs3ohPEN4hvAssxCeITzr9KwQnjX27/DzCM+2F8Kzzerh81V75gUABxxwwAEHHHDAAQcccMAZPM6e6QKggQYaaKCBBhpooIEGGmiGQ/NoNAXggAMOOOCAAw444IADDjjl+yE8Wy+EZxvh2WwgwrPFEIRnix0Kzw6nJuOZEDR2BU1cQVNX0MwVNHcFLVxBS1fQe1+4V5Js3U62cidbu5Ot3snW72QreLI1PNkqnmwdr2wdr3z3t63jla3jVbeOdxGhbWcpJrTynPhVUlxo5TnxLaDY0Mpz4htA8aGV58SnXzKiCUGuRmfGmyRFE4Jcpc7MNsmLJgS5ep0ZbJIaTbgZXc3OTDXJjiYEuZqdGWmKIG07RzKkCUHxSyQ50oSg+PBLljQhKD78kidNCIoPv2ZKU5Js3c5MNk2WpiTZ6p0ZbpovTUmyNTwz3zRlmnJX2jqeGXGaNU1JsnU8M+UQpyFOQ5x2jxBxWr0QpyFOQ5yWWYjTEKd1elaI0xr7d/h5xGnbC3HaZvXwOa098wuAAw444IADDjjggAMOOOAMHmfPtAPQQAMNNNBAAw000EADDTTDoXk0ugNwwAEHHHDAAQcccMABB5zy/RCnrRfitI04bT4QcdpyCOK05c7EabPbr4WWSm5cQWNX0MQVNHUFzVxBc1fQwhW0dAU1vn+vJdm6nWzlTrZ2J1u9k63fyVbwZGt4slU82Tpe2Tpe+e5vW8crW8erbh1vL05rZpWL05Sc+FUqF6cpOfEtUC5OU3LiG6BcnKbkxKdfEKdJQa5GZ8abIE6Tglylzsw2QZwmBbl6nRlsgjhNuhldzc5MNUGcJgW5mp0ZaeXitGaOIE6TguKXSBCnSUHx4RfEaVJQfPgFcZoUFB9+RZymJdm6nZlsijhNS7LVOzPcFHGalmRreGa+KeI07a60dTwz4hRxmpZk63hmyiFOQ5yGOO0eIeK0eiFOQ5yGOC2zEKchTuv0rBCnNfbv8POI07YX4rTN6uFzWnvmFwAHHHDAAQcccMABBxxwwBk8zp5pB6CBBhpooIEGGmiggQYaaIZD82h0B+CAAw444IADDjjggAMOOOX7IU5bL8RpG3HaYhjitPnhAMRpN5C7EqcdHlQWb5qSMzblTEw5U1POzJQzN+UsTDlLU07ja/dSkKvRyVXp5Op0cpU6uVqdXLVOrl4nV7GTq9mVq9mV7a52NbtyNbvq1Oz2grRGVLkfTYgJX6FyO5oQE577cjeaEBOe+XIzmhATnnfBi6bkmHocjzFBiqbkmKoczzDBiKbkmNocDzBBh6bcg6Y+x9NLcKEpOaY+x6OrXITWiBE8aEpO+PIIFjQlJzzuggNNyQmPu2BAU3LC4674z6QgV6PjCabIz6QgV6njIaaYz6QgV6/jOaZoz6Sb0dXseJQpzjMpyNXseJohPEN4hvDsHiHCs3ohPEN4hvAssxCeITzr9KwQnjX27/DzCM+2F8Kzzerh81V75gUABxxwwAEHHHDAAQcccMAZPM6e6QKggQYaaKCBBhpooIEGGmiGQ/NoNAXggAMOOOCAAw444IADDjjl+yE8Wy+EZxvh2XIgwrM0BOFZ2pnwLE0ODw63VppY/GfG2HE/sZN+Yqf9xM76iZ33E7voJ3bZT2zj6/7O3J7OWerpoKWeTlrq6ailns5a6umwpZ5OW+rpuKWezlvV03mr+pprPZ23qqfzVinnrb1YLpdc7pnzpbZ9dcstdL7UtjdZuaPOl9r2Fis32PlS295ggt/OGNvP6Wr9dkGQ4Rlj+zlgrd8rCOY8Y2w/Z6z1GwVBs2ecCv2cstbvEgQnnzG2n1PW+i1CucAvlyr4/IyxbV9awfZnjG17gQkuQGNs2wtMMAUaY9teYIpH0Jnb0zlr/U5BkQ46c3s6aq3fLCiGQmduT6et9fsFRWfonBM9nbfWbxkU96Ezt6fz1vpdA6JERImIEu8RIkqsF6JERImIEjMLUSKixE7PClFiY/8OP48ocXshStysHj6XuWc+EXDAAQcccMABBxxwwAEHnMHj7JlmBBpooIEGGmiggQYaaKCBZjg0j0ZvAg444IADDjjggAMOOOCAU77f30CU+OfVD29WF0dX1xer0dPPP8CbuF/exNXFjycvV6P/PKqb98fz8zej+hdWf855cvj5QBSK1RAUitXOFIrT6cF4ubXGU4tC0Rg77id20k/stJ/YWT+x835iF/3ELvuJbZgOnLk9nbPU00FLPZ201NNRSz2dtdTTYUs9nbbU03FLPZ23qqfzVvU113o6b1VP561Szlt7hWIuuVyh6Ett++qWKxR9qW1vsnKFoi+17S1WrlD0pba9wQSFojG2n9PV+u2CoFA0xvZzwFq/VxAUisbYfs5Y6zcKgkLROBX6OWWt3yUICkVjbD+nrPVbhHKFYi5VUCgaY9u+tIJC0Rjb9gITFIrG2LYXmKBQNMa2vcAUhaIzt6dz1vqdgqJQdOb2dNRav1lQFIrO3J5OW+v3C4pC0Tknejpvrd8yKApFZ25P5631uwYUiigUUSjeI0ShWC8UiigUUShmFgpFFIqdnhUKxcb+HX4eheL2QqG4WT18YnPPTCPggAMOOOCAAw444IADDjiDx9kzAQk00EADDTTQQAMNNNBAA81waB6N+AQccMABBxxwwAEHHHDAAad8PxSKv74er0Lx+s2b07ejT04ubtWJA3EmjofgTBzvzJl4+59L5UymnLEpZ2LKmZpyZqacuSlnYcpZmnIaTgEpyNXo5Kp0cnU6uUqdXK1OrlonV6+Tq9jJ1ezK1ezKdle7ml25ml11anZ7l18jqlzeJ8SEr1C5nk+ICc99uYBPiAnPfLliT4gJz7sg0VNyTD2Ox5jgxVNyTFWOZ5igulNyTG2OB5hgr1PuQVOf4+klCOmUHFOf49FV7phrxAhSOSUnfHkEbZySEx53QQyn5ITHXVC/KTnhcVfkblKQq9HxBFN8bVKQq9TxEFMUbFKQq9fxHFOsatLN6Gp2PMoUUZoU5Gp2PM3uBf3bxcn5xcnV21EaPR89/er67IPaQjV7/v+Ozp4fpue3//nT1cvn4xSNucPG/0fvk08mk+XSsEXV/xbj/reY9L/FtP8tZv1vMe9/i0X/Wyz736Ix2fvaYwfnO+3ggKcdnPC0gyOednDG0w4OedrBKU87OOZpB+e82sE5r3Yxx3dwzqsdnPOq7JxXt3scXUV7HLZ7WzUeV9ViZtgi/m3Ytoh/GbYt4t+FbYv4yrVtEd+4ti3iC9e2RXzf2raIr1vbFpm3Vb49dnC+M2+rfHvs4IRn3lb59tjBGc+8rfLtsYNTnnlb5dtjB+c887bKt8cu5vgOznnmbZVvj7JzPq73+PziJNijWrZ7W5XSfD4eG7aIfxu2LeJfhm2L+Hdh2yK+cm1bxDeubYv4wrVtEd+3ti3iz0bZtsh8INC3R/yJKt8e8YetfHvEn8Py7RF/RMu3R/y5RN8e8UcWfXvEn2b07RF/0NG3xw7OeeZtlW+PXczxHQzyzNsq3x5lo3xS7/Hn19fRHot2b6vq/8al6e8NW8S/DdsW8S/DtkX8u7BtEb+tsm0Rv62ybRG/rbJtEb+tsm0RX7e2LTJvq3x7xG+rfHvEb6t8e8Rvq3x7xG+rfHvEb6t8e8Rvq3x7xG+rfHvEb6t8e+zgnGfeVvn22MUc38Egz7yt8u1RNsqn9R7/uTqO9pi3e1v16acvXsznhi3i34Zti/iXYdsi/l3YtojfVtm2iN9W2baI31bZtojfVtm2iK9b2xaZt1W+PeK3Vb494rdVvj3it1W+PeK3Vb494rdVvj3it1W+PeK3Vb494rdVvj12cM4zb6t8e+xiju9gkGfeVvn2KBvls9u3bteraI9Zu7dVL17MZpYt4t+GbYv4l2HbIv5d2LaI31bZtojfVtm2iN9W2baI31bZtoivW9sWmbdVvj3it1W+PeK3Vb494rdVvj3it1W+PeK3Vb494rdVvj3it1W+PeK3Vb49dnDOM2+rfHvsYo7vYJBn3lb59igb5fN6jz+dRx+Lr6bt3lYtFlU1nRq2iH8bti3iX4Zti/h3Ydsifltl2yJ+W2XbIn5bZdsifltl2yLnnTJtkZWtufbI2apce+REVq49co4r1x45/ZVrj5zzzbVHTgfn2iNninPtkZPIufbYwTnPvK3y7bGLOb6DQZ55W+Xb4+FR/pc2hte1hnn08ehs9dOdQfZWHPv08sdXz24NsA+qYu9czperq9+fX58dXz6dHj4bpTR9NhrX/6mattPN/nyDsfFQHx+/OLpavTq/ePvJzyeX70zIm+ffQhh9E/DFxfHq4svrWkzc+i/WHG+bHH9aHV1eX6zeYdRu5fXr3rORm4d5mId5mId5mId5mId5mId5mId5mId5mId5mId5mId5mId5mId5mId5mId5mId5mId5mId5mId5mId5mId5mId5mId5mId5mId5mId5mId5mId5mIf/Vz389uD8x9XFxcnx6k9H9Rdr08Gh+H3V+quxl82vxn61ujhZXa6/Xvvk2d0XiN+cnl8dnJ6crR78iuzlr31P9+Fv1l4e3P5Xz785Pz26Ojk/u4F6cnm1evP829V35xerJ+2++fzH1avV2XHzCb37s6ezw2ejcf3N5cP6i8z1/3hyuvruqgZ7IPou9uCbV6urz86u6tfnZovvrs9e3pI+/WD03w9E3BGuNn/76we/y12vk+9GT69en1weXN7+VtptVK+tv3Rw8/p9dvTy9dP/Ae6adodff3X8hn2d+82b88uTOvDTmz9u82zuVh3zK1QX5z91Q7rDOjk7XtXn4Xl61vFv363vS//idyer07pvT9ev6btz8uri/PrN6nj0m9+M/u/6z38++Ob10eX6++/1Aftg+9G3v/rozQtycPTq1ef1Hgenq7NXV69HvxtVo38aPfnk9PTJ6KPmT1yenrxcPX2ePvj68C8fPHje7j2T84vR0+9vnsrhP4y+v9lmXdX1vvWf/f3NjdP9F1SvusbrvK+//8vBX1dvRx9//PG7F68s8TZ1/Wv/vutTvVvfXqyO/lryl3/p+He6/nz9eq2f3cd1resyrJtyK3I4+Obo8vLk1dnq+EWtiLj8+vaV/EvZS3n3i35zffn6aenv4uZX+tG732f5STo9/ajNszyof7J0l8uri/O/rtrt8+5nS3c6f3P08uTqbbut1j9c/Kxut7jbqjTl7iJpXislx6Pz5VOvu+PcvHhGz0epa1qX49ae9Zdnt1O11c//8tB7inp9+OHo3/79z6P/+uLfvxx99cWXf/6Xf/3D6I9f/OFfXoz++bMvP2sX8PnNrb36+ah+iza6Oh9dnl9cjc6uf7jpwcvRrdLkcnR0+fLmzcvJ2asWiXevfZ2zNZmPno2+bX+5XKyuri/ORm+OLi5Xn5+eH109Paqv/A9ufpVbf/bt7Z+1ejEffou2te36KTwU/Eu/ppfN+8/b43572J/+9nj13dH16dXozcX5zR22+u2z0W//brF48eKzz37bs3gGHHDAAQcccMABBxxwwAHnfyfO6PL6h5v/L/DoeFX/4ej46G1NdLE6hgYaaKCBBhpooIEGGmiggSZP89PtR7Peo/n29HoFDjjggAMOOOCAAw444IADTgnO5r83MNX/vYFfXUf/vYHjdPsvbJ98Mpksl5BCCimkkEIKKaSQQgoppJBCCukwSKtb0qOriPTwlnQ8rqrFDFJIIYUUUkghhRRSSCGFFFJIIR0G6bgm/fziJCCtlrekKc3n4zGkkEIKKaSQQgoppJBCCimkkEI6DNJJTfrn19cR6eKWdHmzpr+HFFJIIYUUUkghhRRSSCGFFFJIh0E6rUn/c3Uckc5vST/99MWL+RxSSCGFFFJIIYUUUkghhRRSSCEdBuns9v8ycb2KSGe3pC9ezGaQQgoppJBCCimkkEIKKaSQQgrpUEjnNemfziOzYDW9JV0sqmo6hRRSSCGFFFJIIYUUUkghhRRSSHdGeodyfHH009MHw34+uDq5Ol199frozergavXz1dPf/vP59cXlwxhv7//NT09+WJ1dnpyfna4ubxMeiPjww9Enx8ejo9Ft0uink6vXo8vzH1aj4/EDf/Pyx1cHR2/erM6Onz6p937ywQN/4W4dHF1dXTx98vOTZ6PZYce/9PbmL1Xt/9Ll1dvT1Tu850dnL1+fX9z8/Senq+860K4zvjs/u3r+0+rk1eurOuPb89Pj9hnvfjf/8cl/vHuBv1y9Xh1djb54+XL01cvXv/0g90v63YeXLy9O3lz9Y/gzv/vw+OTHX384/Dtx2E3W6OT44ycv6wa/uHnSRydnq4tvqvnkyej2pfj4yfHJ5ZvTo7cfnZyd3jz2/NvT85d//YcnMeBN6rvnMLp6++bm79evxoffH/149O5Ps3+zXj8eXdRtG308Oj754c3p6uBs9dNXP756+uTvfgXy2WhyeHj7Px48PnXu8dHV0U3w1//95PTo29Xpk4+eHK++O7o+vRq9uTj/7uR09eTZu0e++fnJR+ng8NmTH49Or1dPPpotD5Zba7F89uRlfefcJNxcIy9efPbZk1+etUqtekkd95I66SV12kvqrJfUeS+pi15Sl72kpsN+Yvs5Xamf45X6OV+pnwOW+jlhqZ8jlvo5Y6mfQ5b6OWVVP6es6mmG9XPKqn5OWSWcstHl9Q8/NP5rvAveIVysjjuEtnxtu4W2fGW7hbZ8XbuFtry7uoW2vLm6hba8t7qFtry1uoW2vLO6hbZ9Y9AxtZcz1fZtQcfUXk5V2zcFHVN7OVdt3xJ0TO3lZLV9Q9AxtZez1fbtQMfUfuZVL2er7XuBjqmlZ+unk7Mr9W3At/UPtE9t+bJ2TG35snZMbfmydkxteWV1TG15ZXVMbXlldUxteWV1TG15ZXVMbft+oGtsP6er7TuCrrH9nK+27wm6xvZzwtq+K+ga288Za/u+oGtsP6es7TuDrrE9zbB+TlnbNwddYzudsr+0+QeH9b8Njj4ena1+uvsHjdt/x3h6+eOrZ7f/IPHgv1zc/QPj5erq9+fXZ8eXT6eHz0YpTZ+NxvV/qqbt/vXj5xuMzb+bHh+/OLpavTq/ePvJzyeX7/6BbvNStPhXzJuALy6OVxdfXtf/Xtb6L9Ycb5scf1odXV5frN5h1P/kt/4VqP8ue/sPSc2tvlpdnKwu17g3O61/IW9Oz68O6n/denDLy1973g+TXh7c9u7N+enR1cn52Q3Uk8ur1Zvn366+O79YPWnXpD+uXq3OjptP6N2fPZ3dtGBcN6H+x7BU/4/1P3s++C/Cd7EH37xaXX12dlW/PjdbfHd99vKW9OkHo/9u8e+eNeFq87e/fvBs1Ovku9HTq9cnlze9rv9eu43qtfWXDm5ev8+OXr5++j/AXdPu8Nf/NrjO/ebN+eVJHfjpzR+3eTZ3q475FaqL85+6Id1hnZwdr+qD+zw96/i379b3pX/xu5PVad23p+vX9N05eXVxfv1mdTz6zW9G/3f95z8ffPP66HJ9n9QH7IPtR9/+6qM3L8jB0atXn9d7HJyuzl5dvR79blSN/mn05JPT0yejj5o/cXl68nL19Hn64OvDv3zw4Hm790zOL0ZPv795Kof/MPr+Zpt1Vdf71n/29x+PUvdfUL3qGq/zvv7+Lwd/Xd1cbx9//O7FK0u8TV3/2r/v+lTv1rcXq6O/lvzlXzr+na4/X79e62f3cV3rugzrptwOxoNv3n2mZ3V8+6mey69vX8m/lL2Ud7/oN9eXr5+W/i5ufqUfvft9lp+k09OP2jzLg/onS3e5vLo4/+uq3T7vfrZ0p/M3Ry9Prt6222r9w8XP6naLu61KU+4ukua1UnI8Ol8+9bo7zs2LZ/R8lLqmdTlu7Vl/eXY7VVv9/C8Pvaeo14cfjv7t3/88+q8v/v3L0VdffPnnf/nXP4z++MUf/uXF6J8/+/KzdgGf39zaq5+P6rdoo6vz0eX5zRvps+sfbnrwcnT7FvFydHT58ubNy8nZqxaJd699nbM1mY+ejb5tf7lcrK6uL85Gb44uLlefn54fXT09qq/8D25+lVt/9u3tn7V6MR9+i7a17fopPBT8y9/gs5fv/QPs+gOW9T+o/k0+CgoOOOCAAw444IADDjjggDN4nPsfcKmJLlbH0EADDTTQQAMNNNBAAw000ORp7n0ksKapP+IHDjjggAMOOOCAAw444IADzt/QePjn1Q9vVhdHV9cXq9HTzz/AebhXzsP/PKob98+r2//1yQ/fnqzOrkb1r6w2H66Or29e/+ej+eHnA5EgTocgQZzuTIJ4+9XTUgmTKWdsypmYcqamnJkpZ27KWZhylqachl1ACnI1OrkqnVydTq5SJ1erk6vWydXr5Cp2cjW7cjW7st3VrmZXrmZXnZrdXtrXiCrX9Akx4StUruITYsJzX67bE2LCM1+u1BNiwvMuaPOUHFOP4zEmyPCUHFOV4xkmKO6UHFOb4wEmiOuUe9DU53h6CTo6JcfU53h0lUvmGjGCVk7JCV8eQR2n5ITHXdDDKTnhcRcUcEpOeNwVzZsU5Gp0PMEUeZsU5Cp1PMQUJZsU5Op1PMcU0Zp0M7qaHY8yRZ8mBbmaHU8zpGiDkKLxMA/zMA/zMA/zMA/zMA/zMA/zMA/zMA/z8D49/Pbg/MfVxcXJ8epPR/X/oSodHCLF33omSPE3Cyl+p4UUHyl+h4UU//2FFP/9hRS/40KKjxT/VxdSfHDAAQcccMABBxxwwAEHHHCGoJSEBhpooIEGGmiggQYaaKAZDs2jUVmCAw444IADDjjggAMOOOCU7/c3kOJ/evLD6uzy5PzsdHV5iRJ/v5T45xd/HX323XcnL09WZy/fbkT4u1Xgr3/6vUe2/993//nd/96kr//D5n99e378tv7fr69+OP3H//P/AaSAMnQ="
               },
               {
                  "name" : "annual_peak_electric_demand",
                  "units" : "kW",
                  "value" : 537.10143000000005
               },
               {
                  "name" : "first_year_capital_cost",
                  "units" : "$",
                  "value" : 0
               },
               {
                  "name" : "annual_utility_cost",
                  "units" : "$",
                  "value" : 75790.539999999994
               },
               {
                  "name" : "total_lifecycle_cost",
                  "units" : "$",
                  "value" : 1268916.51
               }
            ],
            "step_warnings" : [ "A table in Annual Overview section returned false and was skipped." ]
         }
      }
   ],
   "updated_at" : "20170710T184505Z",
   "weather_file" : "USA_CO_Denver.Intl.AP.725650_TMY3.epw"
}
