{
   "completed_at" : "20170710T193602Z",
   "completed_status" : "Success",
   "created_at" : "2017-07-10 19:02:43 +0000",
   "current_step" : 5,
   "description" : "",
   "eplusout_err" : "Program Version,EnergyPlus, Version 8.7.0-78a111df4a, YMD=2017.07.10 19:14,IDD_Version 8.7.0\n   ************* IDF Context for following error/warning message:\n   ************* Note -- lines truncated at 300 characters, if necessary...\n   *************      5 Building,\n   ************* indicated Name=NECB 2011-Outpatient-NECB HDD Method-CAN_MB_Winnipeg.718520_CWEC.epw created: 2017-07-10 19:03:01 +0000\n   ************* Only last 1 lines before error line shown.....\n   *************      6   NECB 2011-Outpatient-NECB HDD Method-CAN_MB_Winnipeg.718520_CWEC.epw created: 2017-07-10 19:03:01 +0000, !- Name\n   ** Warning ** IP: IDF line~6 Alpha Argument length exceeds maximum, will be truncated=  NECB 2011-Outpatient-NECB HDD Method-CAN_MB_Winnipeg.718520_CWEC.epw created: 2017-07-10 19:03:01 +000\n   **   ~~~   ** Will be processed as Alpha=NECB 2011-OUTPATIENT-NECB HDD METHOD-CAN_MB_WINNIPEG.718520_CWEC.EPW CREATED: 2017-07-10 19:03:01 +0000\n   ************* IDF Context for following error/warning message:\n   ************* Note -- lines truncated at 300 characters, if necessary...\n   *************  33172 Schedule:Week:Daily,\n   ************* indicated Name=Schedule:Week:Daily {5ffd40b4-7091-4511-8751-06ca843d0aa2}\n   ************* Only last 10 lines before error line shown.....\n   *************  33173   Schedule:Week:Daily {5ffd40b4-7091-4511-8751-06ca843d0aa2}, !- Name\n   *************  33174   Sp-Floor 3 Physical Therapy 1 Sys-3 Flr-2 Sch-C HPlcmt-south ZN NECB System 3 PSZ Occ Sch Sunday, !- Sunday Schedule:Day Name\n   *************  33175   Sp-Floor 3 Physical Therapy 1 Sys-3 Flr-2 Sch-C HPlcmt-south ZN NECB System 3 PSZ Occ Sch Monday, !- Monday Schedule:Day Name\n   *************  33176   Sp-Floor 3 Physical Therapy 1 Sys-3 Flr-2 Sch-C HPlcmt-south ZN NECB System 3 PSZ Occ Sch Tuesday, !- Tuesday Schedule:Day Name\n   *************  33177   Sp-Floor 3 Physical Therapy 1 Sys-3 Flr-2 Sch-C HPlcmt-south ZN NECB System 3 PSZ Occ Sch Wednesday, !- Wednesday Schedule:Day Name\n   *************  33178   Sp-Floor 3 Physical Therapy 1 Sys-3 Flr-2 Sch-C HPlcmt-south ZN NECB System 3 PSZ Occ Sch Thursday, !- Thursday Schedule:Day Name\n   *************  33179   Sp-Floor 3 Physical Therapy 1 Sys-3 Flr-2 Sch-C HPlcmt-south ZN NECB System 3 PSZ Occ Sch Friday, !- Friday Schedule:Day Name\n   *************  33180   Sp-Floor 3 Physical Therapy 1 Sys-3 Flr-2 Sch-C HPlcmt-south ZN NECB System 3 PSZ Occ Sch Saturday, !- Saturday Schedule:Day Name\n   *************  33181   Sp-Floor 3 Physical Therapy 1 Sys-3 Flr-2 Sch-C HPlcmt-south ZN NECB System 3 PSZ Occ Sch Default, !- Holiday Schedule:Day Name\n   *************  33182   Sp-Floor 3 Physical Therapy 1 Sys-3 Flr-2 Sch-C HPlcmt-south ZN NECB System 3 PSZ Occ Sch Summer Design Day, !- SummerDesignDay Schedule:Day Name\n   ** Warning ** IP: IDF line~33182 Alpha Argument length exceeds maximum, will be truncated=  Sp-Floor 3 Physical Therapy 1 Sys-3 Flr-2 Sch-C HPlcmt-south ZN NECB System 3 PSZ Occ Sch Summer Design Da\n   **   ~~~   ** Will be processed as Alpha=SP-FLOOR 3 PHYSICAL THERAPY 1 SYS-3 FLR-2 SCH-C HPLCMT-SOUTH ZN NECB SYSTEM 3 PSZ OCC SCH SUMMER DESIGN DAY\n   ************* IDF Context for following error/warning message:\n   ************* Note -- lines truncated at 300 characters, if necessary...\n   *************  33172 Schedule:Week:Daily,\n   ************* indicated Name=Schedule:Week:Daily {5ffd40b4-7091-4511-8751-06ca843d0aa2}\n   ************* Only last 10 lines before error line shown.....\n   *************  33174   Sp-Floor 3 Physical Therapy 1 Sys-3 Flr-2 Sch-C HPlcmt-south ZN NECB System 3 PSZ Occ Sch Sunday, !- Sunday Schedule:Day Name\n   *************  33175   Sp-Floor 3 Physical Therapy 1 Sys-3 Flr-2 Sch-C HPlcmt-south ZN NECB System 3 PSZ Occ Sch Monday, !- Monday Schedule:Day Name\n   *************  33176   Sp-Floor 3 Physical Therapy 1 Sys-3 Flr-2 Sch-C HPlcmt-south ZN NECB System 3 PSZ Occ Sch Tuesday, !- Tuesday Schedule:Day Name\n   *************  33177   Sp-Floor 3 Physical Therapy 1 Sys-3 Flr-2 Sch-C HPlcmt-south ZN NECB System 3 PSZ Occ Sch Wednesday, !- Wednesday Schedule:Day Name\n   *************  33178   Sp-Floor 3 Physical Therapy 1 Sys-3 Flr-2 Sch-C HPlcmt-south ZN NECB System 3 PSZ Occ Sch Thursday, !- Thursday Schedule:Day Name\n   *************  33179   Sp-Floor 3 Physical Therapy 1 Sys-3 Flr-2 Sch-C HPlcmt-south ZN NECB System 3 PSZ Occ Sch Friday, !- Friday Schedule:Day Name\n   *************  33180   Sp-Floor 3 Physical Therapy 1 Sys-3 Flr-2 Sch-C HPlcmt-south ZN NECB System 3 PSZ Occ Sch Saturday, !- Saturday Schedule:Day Name\n   *************  33181   Sp-Floor 3 Physical Therapy 1 Sys-3 Flr-2 Sch-C HPlcmt-south ZN NECB System 3 PSZ Occ Sch Default, !- Holiday Schedule:Day Name\n   *************  33182   Sp-Floor 3 Physical Therapy 1 Sys-3 Flr-2 Sch-C HPlcmt-south ZN NECB System 3 PSZ Occ Sch Summer Design Day, !- SummerDesignDay Schedule:Day Name\n   *************  33183   Sp-Floor 3 Physical Therapy 1 Sys-3 Flr-2 Sch-C HPlcmt-south ZN NECB System 3 PSZ Occ Sch Winter Design Day, !- WinterDesignDay Schedule:Day Name\n   ** Warning ** IP: IDF line~33183 Alpha Argument length exceeds maximum, will be truncated=  Sp-Floor 3 Physical Therapy 1 Sys-3 Flr-2 Sch-C HPlcmt-south ZN NECB System 3 PSZ Occ Sch Winter Design Da\n   **   ~~~   ** Will be processed as Alpha=SP-FLOOR 3 PHYSICAL THERAPY 1 SYS-3 FLR-2 SCH-C HPLCMT-SOUTH ZN NECB SYSTEM 3 PSZ OCC SCH WINTER DESIGN DAY\n   ************* IDF Context for following error/warning message:\n   ************* Note -- lines truncated at 300 characters, if necessary...\n   *************  33203 Schedule:Day:Interval,\n   ************* indicated Name=Sp-Floor 3 Physical Therapy 1 Sys-3 Flr-2 Sch-C HPlcmt-south ZN NECB System 3 PSZ Occ Sch Summer Design Day\n   ************* Only last 1 lines before error line shown.....\n   *************  33204   Sp-Floor 3 Physical Therapy 1 Sys-3 Flr-2 Sch-C HPlcmt-south ZN NECB System 3 PSZ Occ Sch Summer Design Day, !- Name\n   ** Warning ** IP: IDF line~33204 Alpha Argument length exceeds maximum, will be truncated=  Sp-Floor 3 Physical Therapy 1 Sys-3 Flr-2 Sch-C HPlcmt-south ZN NECB System 3 PSZ Occ Sch Summer Design Da\n   **   ~~~   ** Will be processed as Alpha=SP-FLOOR 3 PHYSICAL THERAPY 1 SYS-3 FLR-2 SCH-C HPLCMT-SOUTH ZN NECB SYSTEM 3 PSZ OCC SCH SUMMER DESIGN DAY\n   ************* IDF Context for following error/warning message:\n   ************* Note -- lines truncated at 300 characters, if necessary...\n   *************  33210 Schedule:Day:Interval,\n   ************* indicated Name=Sp-Floor 3 Physical Therapy 1 Sys-3 Flr-2 Sch-C HPlcmt-south ZN NECB System 3 PSZ Occ Sch Winter Design Day\n   ************* Only last 1 lines before error line shown.....\n   *************  33211   Sp-Floor 3 Physical Therapy 1 Sys-3 Flr-2 Sch-C HPlcmt-south ZN NECB System 3 PSZ Occ Sch Winter Design Day, !- Name\n   ** Warning ** IP: IDF line~33211 Alpha Argument length exceeds maximum, will be truncated=  Sp-Floor 3 Physical Therapy 1 Sys-3 Flr-2 Sch-C HPlcmt-south ZN NECB System 3 PSZ Occ Sch Winter Design Da\n   **   ~~~   ** Will be processed as Alpha=SP-FLOOR 3 PHYSICAL THERAPY 1 SYS-3 FLR-2 SCH-C HPLCMT-SOUTH ZN NECB SYSTEM 3 PSZ OCC SCH WINTER DESIGN DAY\n   ************* IDF Context for following error/warning message:\n   ************* Note -- lines truncated at 300 characters, if necessary...\n   *************  35078 Schedule:Week:Daily,\n   ************* indicated Name=Schedule:Week:Daily {b25e26ca-bbf5-44f4-837a-15bcadd3f029}\n   ************* Only last 10 lines before error line shown.....\n   *************  35079   Schedule:Week:Daily {b25e26ca-bbf5-44f4-837a-15bcadd3f029}, !- Name\n   *************  35080   Sp-Floor 3 Undeveloped 1 Sys-4 Flr-2 Sch-E HPlcmt-south ZN NECB System 4 PSZ Occ Sch Sunday, !- Sunday Schedule:Day Name\n   *************  35081   Sp-Floor 3 Undeveloped 1 Sys-4 Flr-2 Sch-E HPlcmt-south ZN NECB System 4 PSZ Occ Sch Monday, !- Monday Schedule:Day Name\n   *************  35082   Sp-Floor 3 Undeveloped 1 Sys-4 Flr-2 Sch-E HPlcmt-south ZN NECB System 4 PSZ Occ Sch Tuesday, !- Tuesday Schedule:Day Name\n   *************  35083   Sp-Floor 3 Undeveloped 1 Sys-4 Flr-2 Sch-E HPlcmt-south ZN NECB System 4 PSZ Occ Sch Wednesday, !- Wednesday Schedule:Day Name\n   *************  35084   Sp-Floor 3 Undeveloped 1 Sys-4 Flr-2 Sch-E HPlcmt-south ZN NECB System 4 PSZ Occ Sch Thursday, !- Thursday Schedule:Day Name\n   *************  35085   Sp-Floor 3 Undeveloped 1 Sys-4 Flr-2 Sch-E HPlcmt-south ZN NECB System 4 PSZ Occ Sch Friday, !- Friday Schedule:Day Name\n   *************  35086   Sp-Floor 3 Undeveloped 1 Sys-4 Flr-2 Sch-E HPlcmt-south ZN NECB System 4 PSZ Occ Sch Saturday, !- Saturday Schedule:Day Name\n   *************  35087   Sp-Floor 3 Undeveloped 1 Sys-4 Flr-2 Sch-E HPlcmt-south ZN NECB System 4 PSZ Occ Sch Default, !- Holiday Schedule:Day Name\n   *************  35088   Sp-Floor 3 Undeveloped 1 Sys-4 Flr-2 Sch-E HPlcmt-south ZN NECB System 4 PSZ Occ Sch Summer Design Day, !- SummerDesignDay Schedule:Day Name\n   ** Warning ** IP: IDF line~35088 Alpha Argument length exceeds maximum, will be truncated=  Sp-Floor 3 Undeveloped 1 Sys-4 Flr-2 Sch-E HPlcmt-south ZN NECB System 4 PSZ Occ Sch Summer Design Da\n   **   ~~~   ** Will be processed as Alpha=SP-FLOOR 3 UNDEVELOPED 1 SYS-4 FLR-2 SCH-E HPLCMT-SOUTH ZN NECB SYSTEM 4 PSZ OCC SCH SUMMER DESIGN DAY\n   ************* IDF Context for following error/warning message:\n   ************* Note -- lines truncated at 300 characters, if necessary...\n   *************  35078 Schedule:Week:Daily,\n   ************* indicated Name=Schedule:Week:Daily {b25e26ca-bbf5-44f4-837a-15bcadd3f029}\n   ************* Only last 10 lines before error line shown.....\n   *************  35080   Sp-Floor 3 Undeveloped 1 Sys-4 Flr-2 Sch-E HPlcmt-south ZN NECB System 4 PSZ Occ Sch Sunday, !- Sunday Schedule:Day Name\n   *************  35081   Sp-Floor 3 Undeveloped 1 Sys-4 Flr-2 Sch-E HPlcmt-south ZN NECB System 4 PSZ Occ Sch Monday, !- Monday Schedule:Day Name\n   *************  35082   Sp-Floor 3 Undeveloped 1 Sys-4 Flr-2 Sch-E HPlcmt-south ZN NECB System 4 PSZ Occ Sch Tuesday, !- Tuesday Schedule:Day Name\n   *************  35083   Sp-Floor 3 Undeveloped 1 Sys-4 Flr-2 Sch-E HPlcmt-south ZN NECB System 4 PSZ Occ Sch Wednesday, !- Wednesday Schedule:Day Name\n   *************  35084   Sp-Floor 3 Undeveloped 1 Sys-4 Flr-2 Sch-E HPlcmt-south ZN NECB System 4 PSZ Occ Sch Thursday, !- Thursday Schedule:Day Name\n   *************  35085   Sp-Floor 3 Undeveloped 1 Sys-4 Flr-2 Sch-E HPlcmt-south ZN NECB System 4 PSZ Occ Sch Friday, !- Friday Schedule:Day Name\n   *************  35086   Sp-Floor 3 Undeveloped 1 Sys-4 Flr-2 Sch-E HPlcmt-south ZN NECB System 4 PSZ Occ Sch Saturday, !- Saturday Schedule:Day Name\n   *************  35087   Sp-Floor 3 Undeveloped 1 Sys-4 Flr-2 Sch-E HPlcmt-south ZN NECB System 4 PSZ Occ Sch Default, !- Holiday Schedule:Day Name\n   *************  35088   Sp-Floor 3 Undeveloped 1 Sys-4 Flr-2 Sch-E HPlcmt-south ZN NECB System 4 PSZ Occ Sch Summer Design Day, !- SummerDesignDay Schedule:Day Name\n   *************  35089   Sp-Floor 3 Undeveloped 1 Sys-4 Flr-2 Sch-E HPlcmt-south ZN NECB System 4 PSZ Occ Sch Winter Design Day, !- WinterDesignDay Schedule:Day Name\n   ** Warning ** IP: IDF line~35089 Alpha Argument length exceeds maximum, will be truncated=  Sp-Floor 3 Undeveloped 1 Sys-4 Flr-2 Sch-E HPlcmt-south ZN NECB System 4 PSZ Occ Sch Winter Design Da\n   **   ~~~   ** Will be processed as Alpha=SP-FLOOR 3 UNDEVELOPED 1 SYS-4 FLR-2 SCH-E HPLCMT-SOUTH ZN NECB SYSTEM 4 PSZ OCC SCH WINTER DESIGN DAY\n   ************* IDF Context for following error/warning message:\n   ************* Note -- lines truncated at 300 characters, if necessary...\n   *************  35109 Schedule:Day:Interval,\n   ************* indicated Name=Sp-Floor 3 Undeveloped 1 Sys-4 Flr-2 Sch-E HPlcmt-south ZN NECB System 4 PSZ Occ Sch Summer Design Day\n   ************* Only last 1 lines before error line shown.....\n   *************  35110   Sp-Floor 3 Undeveloped 1 Sys-4 Flr-2 Sch-E HPlcmt-south ZN NECB System 4 PSZ Occ Sch Summer Design Day, !- Name\n   ** Warning ** IP: IDF line~35110 Alpha Argument length exceeds maximum, will be truncated=  Sp-Floor 3 Undeveloped 1 Sys-4 Flr-2 Sch-E HPlcmt-south ZN NECB System 4 PSZ Occ Sch Summer Design Da\n   **   ~~~   ** Will be processed as Alpha=SP-FLOOR 3 UNDEVELOPED 1 SYS-4 FLR-2 SCH-E HPLCMT-SOUTH ZN NECB SYSTEM 4 PSZ OCC SCH SUMMER DESIGN DAY\n   ************* IDF Context for following error/warning message:\n   ************* Note -- lines truncated at 300 characters, if necessary...\n   *************  35116 Schedule:Day:Interval,\n   ************* indicated Name=Sp-Floor 3 Undeveloped 1 Sys-4 Flr-2 Sch-E HPlcmt-south ZN NECB System 4 PSZ Occ Sch Winter Design Day\n   ************* Only last 1 lines before error line shown.....\n   *************  35117   Sp-Floor 3 Undeveloped 1 Sys-4 Flr-2 Sch-E HPlcmt-south ZN NECB System 4 PSZ Occ Sch Winter Design Day, !- Name\n   ** Warning ** IP: IDF line~35117 Alpha Argument length exceeds maximum, will be truncated=  Sp-Floor 3 Undeveloped 1 Sys-4 Flr-2 Sch-E HPlcmt-south ZN NECB System 4 PSZ Occ Sch Winter Design Da\n   **   ~~~   ** Will be processed as Alpha=SP-FLOOR 3 UNDEVELOPED 1 SYS-4 FLR-2 SCH-E HPLCMT-SOUTH ZN NECB SYSTEM 4 PSZ OCC SCH WINTER DESIGN DAY\n   ************* IDF Context for following error/warning message:\n   ************* Note -- lines truncated at 300 characters, if necessary...\n   *************  49768 AirLoopHVAC,\n   ************* indicated Name=Sp-Floor 1 Electrical Room Sys-3 Flr-3 Sch-H HPlcmt-east ZN NECB System 3 PSZ\n   ************* Only last 3 lines before error line shown.....\n   *************  49769   Sp-Floor 1 Electrical Room Sys-3 Flr-3 Sch-H HPlcmt-east ZN NECB System 3 PSZ, !- Name\n   *************  49770   ,                                       !- Controller List Name\n   *************  49771   Sp-Floor 1 Electrical Room Sys-3 Flr-3 Sch-H HPlcmt-east ZN NECB System 3 PSZAvailability Manager List, !- Availability Manager List Name\n   ** Warning ** IP: IDF line~49771 Alpha Argument length exceeds maximum, will be truncated=  Sp-Floor 1 Electrical Room Sys-3 Flr-3 Sch-H HPlcmt-east ZN NECB System 3 PSZAvailability Manager Lis\n   **   ~~~   ** Will be processed as Alpha=SP-FLOOR 1 ELECTRICAL ROOM SYS-3 FLR-3 SCH-H HPLCMT-EAST ZN NECB SYSTEM 3 PSZAVAILABILITY MANAGER LIST\n   ************* IDF Context for following error/warning message:\n   ************* Note -- lines truncated at 300 characters, if necessary...\n   *************  49827 AvailabilityManagerAssignmentList,\n   ************* indicated Name=Sp-Floor 1 Electrical Room Sys-3 Flr-3 Sch-H HPlcmt-east ZN NECB System 3 PSZAvailability Manager List\n   ************* Only last 1 lines before error line shown.....\n   *************  49828   Sp-Floor 1 Electrical Room Sys-3 Flr-3 Sch-H HPlcmt-east ZN NECB System 3 PSZAvailability Manager List, !- Name\n   ** Warning ** IP: IDF line~49828 Alpha Argument length exceeds maximum, will be truncated=  Sp-Floor 1 Electrical Room Sys-3 Flr-3 Sch-H HPlcmt-east ZN NECB System 3 PSZAvailability Manager Lis\n   **   ~~~   ** Will be processed as Alpha=SP-FLOOR 1 ELECTRICAL ROOM SYS-3 FLR-3 SCH-H HPLCMT-EAST ZN NECB SYSTEM 3 PSZAVAILABILITY MANAGER LIST\n   ************* IDF Context for following error/warning message:\n   ************* Note -- lines truncated at 300 characters, if necessary...\n   *************  50090 AirLoopHVAC,\n   ************* indicated Name=Sp-Floor 1 Elevator Pump Room Sys-3 Flr-3 Sch-H HPlcmt-north ZN NECB System 3 PSZ\n   ************* Only last 3 lines before error line shown.....\n   *************  50091   Sp-Floor 1 Elevator Pump Room Sys-3 Flr-3 Sch-H HPlcmt-north ZN NECB System 3 PSZ, !- Name\n   *************  50092   ,                                       !- Controller List Name\n   *************  50093   Sp-Floor 1 Elevator Pump Room Sys-3 Flr-3 Sch-H HPlcmt-north ZN NECB System 3 PSZAvailability Manager List, !- Availability Manager List Name\n   ** Warning ** IP: IDF line~50093 Alpha Argument length exceeds maximum, will be truncated=  Sp-Floor 1 Elevator Pump Room Sys-3 Flr-3 Sch-H HPlcmt-north ZN NECB System 3 PSZAvailability Manager Lis\n   **   ~~~   ** Will be processed as Alpha=SP-FLOOR 1 ELEVATOR PUMP ROOM SYS-3 FLR-3 SCH-H HPLCMT-NORTH ZN NECB SYSTEM 3 PSZAVAILABILITY MANAGER LIST\n   ************* IDF Context for following error/warning message:\n   ************* Note -- lines truncated at 300 characters, if necessary...\n   *************  50090 AirLoopHVAC,\n   ************* indicated Name=Sp-Floor 1 Elevator Pump Room Sys-3 Flr-3 Sch-H HPlcmt-north ZN NECB System 3 PSZ\n   ************* Only last 10 lines before error line shown.....\n   *************  50091   Sp-Floor 1 Elevator Pump Room Sys-3 Flr-3 Sch-H HPlcmt-north ZN NECB System 3 PSZ, !- Name\n   *************  50092   ,                                       !- Controller List Name\n   *************  50093   Sp-Floor 1 Elevator Pump Room Sys-3 Flr-3 Sch-H HPlcmt-north ZN NECB System 3 PSZAvailability Manager List, !- Availability Manager List Name\n   *************  50094   AutoSize,                               !- Design Supply Air Flow Rate {m3/s}\n   *************  50095   Sp-Floor 1 Elevator Pump Room Sys-3 Flr-3 Sch-H HPlcmt-north ZN NECB System 3 PSZ Supply Branches, !- Branch List Name\n   *************  50096   ,                                       !- Connector List Name\n   *************  50097   Node 592,                               !- Supply Side Inlet Node Name\n   *************  50098   Node 595,                               !- Demand Side Outlet Node Name\n   *************  50099   Sp-Floor 1 Elevator Pump Room Sys-3 Flr-3 Sch-H HPlcmt-north ZN NECB System 3 PSZ Demand Inlet Nodes, !- Demand Side Inlet Node Names\n   *************  50100   Sp-Floor 1 Elevator Pump Room Sys-3 Flr-3 Sch-H HPlcmt-north ZN NECB System 3 PSZ Supply Outlet Nodes; !- Supply Side Outlet Node Names\n   ** Warning ** IP: IDF line~50100 Alpha Argument length exceeds maximum, will be truncated=  Sp-Floor 1 Elevator Pump Room Sys-3 Flr-3 Sch-H HPlcmt-north ZN NECB System 3 PSZ Supply Outlet Node\n   **   ~~~   ** Will be processed as Alpha=SP-FLOOR 1 ELEVATOR PUMP ROOM SYS-3 FLR-3 SCH-H HPLCMT-NORTH ZN NECB SYSTEM 3 PSZ SUPPLY OUTLET NODES\n   ************* IDF Context for following error/warning message:\n   ************* Note -- lines truncated at 300 characters, if necessary...\n   *************  50102 NodeList,\n   ************* indicated Name=Sp-Floor 1 Elevator Pump Room Sys-3 Flr-3 Sch-H HPlcmt-north ZN NECB System 3 PSZ Supply Outlet Nodes\n   ************* Only last 1 lines before error line shown.....\n   *************  50103   Sp-Floor 1 Elevator Pump Room Sys-3 Flr-3 Sch-H HPlcmt-north ZN NECB System 3 PSZ Supply Outlet Nodes, !- Name\n   ** Warning ** IP: IDF line~50103 Alpha Argument length exceeds maximum, will be truncated=  Sp-Floor 1 Elevator Pump Room Sys-3 Flr-3 Sch-H HPlcmt-north ZN NECB System 3 PSZ Supply Outlet Node\n   **   ~~~   ** Will be processed as Alpha=SP-FLOOR 1 ELEVATOR PUMP ROOM SYS-3 FLR-3 SCH-H HPLCMT-NORTH ZN NECB SYSTEM 3 PSZ SUPPLY OUTLET NODES\n   ************* IDF Context for following error/warning message:\n   ************* Note -- lines truncated at 300 characters, if necessary...\n   *************  50149 AvailabilityManagerAssignmentList,\n   ************* indicated Name=Sp-Floor 1 Elevator Pump Room Sys-3 Flr-3 Sch-H HPlcmt-north ZN NECB System 3 PSZAvailability Manager List\n   ************* Only last 1 lines before error line shown.....\n   *************  50150   Sp-Floor 1 Elevator Pump Room Sys-3 Flr-3 Sch-H HPlcmt-north ZN NECB System 3 PSZAvailability Manager List, !- Name\n   ** Warning ** IP: IDF line~50150 Alpha Argument length exceeds maximum, will be truncated=  Sp-Floor 1 Elevator Pump Room Sys-3 Flr-3 Sch-H HPlcmt-north ZN NECB System 3 PSZAvailability Manager Lis\n   **   ~~~   ** Will be processed as Alpha=SP-FLOOR 1 ELEVATOR PUMP ROOM SYS-3 FLR-3 SCH-H HPLCMT-NORTH ZN NECB SYSTEM 3 PSZAVAILABILITY MANAGER LIST\n   ************* IDF Context for following error/warning message:\n   ************* Note -- lines truncated at 300 characters, if necessary...\n   *************  50149 AvailabilityManagerAssignmentList,\n   ************* indicated Name=Sp-Floor 1 Elevator Pump Room Sys-3 Flr-3 Sch-H HPlcmt-north ZN NECB System 3 PSZAvailability Manager List\n   ************* Only last 3 lines before error line shown.....\n   *************  50150   Sp-Floor 1 Elevator Pump Room Sys-3 Flr-3 Sch-H HPlcmt-north ZN NECB System 3 PSZAvailability Manager List, !- Name\n   *************  50151   AvailabilityManager:Scheduled,          !- Availability Manager Object Type 1\n   *************  50152   Sp-Floor 1 Elevator Pump Room Sys-3 Flr-3 Sch-H HPlcmt-north ZN NECB System 3 PSZ Availability Manager; !- Availability Manager Name 1\n   ** Warning ** IP: IDF line~50152 Alpha Argument length exceeds maximum, will be truncated=  Sp-Floor 1 Elevator Pump Room Sys-3 Flr-3 Sch-H HPlcmt-north ZN NECB System 3 PSZ Availability Manage\n   **   ~~~   ** Will be processed as Alpha=SP-FLOOR 1 ELEVATOR PUMP ROOM SYS-3 FLR-3 SCH-H HPLCMT-NORTH ZN NECB SYSTEM 3 PSZ AVAILABILITY MANAGER\n   ************* IDF Context for following error/warning message:\n   ************* Note -- lines truncated at 300 characters, if necessary...\n   *************  50154 AvailabilityManager:Scheduled,\n   ************* indicated Name=Sp-Floor 1 Elevator Pump Room Sys-3 Flr-3 Sch-H HPlcmt-north ZN NECB System 3 PSZ Availability Manager\n   ************* Only last 1 lines before error line shown.....\n   *************  50155   Sp-Floor 1 Elevator Pump Room Sys-3 Flr-3 Sch-H HPlcmt-north ZN NECB System 3 PSZ Availability Manager, !- Name\n   ** Warning ** IP: IDF line~50155 Alpha Argument length exceeds maximum, will be truncated=  Sp-Floor 1 Elevator Pump Room Sys-3 Flr-3 Sch-H HPlcmt-north ZN NECB System 3 PSZ Availability Manage\n   **   ~~~   ** Will be processed as Alpha=SP-FLOOR 1 ELEVATOR PUMP ROOM SYS-3 FLR-3 SCH-H HPLCMT-NORTH ZN NECB SYSTEM 3 PSZ AVAILABILITY MANAGER\n   ************* IDF Context for following error/warning message:\n   ************* Note -- lines truncated at 300 characters, if necessary...\n   *************  50390 AirLoopHVAC:SupplyPath,\n   ************* indicated Name=Sp-Floor 1 Elevator Pump Room Sys-3 Flr-3 Sch-H HPlcmt-north ZN NECB System 3 PSZ Node 594 Supply Path\n   ************* Only last 1 lines before error line shown.....\n   *************  50391   Sp-Floor 1 Elevator Pump Room Sys-3 Flr-3 Sch-H HPlcmt-north ZN NECB System 3 PSZ Node 594 Supply Path, !- Name\n   ** Warning ** IP: IDF line~50391 Alpha Argument length exceeds maximum, will be truncated=  Sp-Floor 1 Elevator Pump Room Sys-3 Flr-3 Sch-H HPlcmt-north ZN NECB System 3 PSZ Node 594 Supply Pat\n   **   ~~~   ** Will be processed as Alpha=SP-FLOOR 1 ELEVATOR PUMP ROOM SYS-3 FLR-3 SCH-H HPLCMT-NORTH ZN NECB SYSTEM 3 PSZ NODE 594 SUPPLY PATH\n   ************* IDF Context for following error/warning message:\n   ************* Note -- lines truncated at 300 characters, if necessary...\n   *************  51700 AirLoopHVAC,\n   ************* indicated Name=Sp-Floor 1 Locker Room Hall Sys-4 Flr-3 Sch-H HPlcmt-core ZN NECB System 4 PSZ\n   ************* Only last 3 lines before error line shown.....\n   *************  51701   Sp-Floor 1 Locker Room Hall Sys-4 Flr-3 Sch-H HPlcmt-core ZN NECB System 4 PSZ, !- Name\n   *************  51702   ,                                       !- Controller List Name\n   *************  51703   Sp-Floor 1 Locker Room Hall Sys-4 Flr-3 Sch-H HPlcmt-core ZN NECB System 4 PSZAvailability Manager List, !- Availability Manager List Name\n   ** Warning ** IP: IDF line~51703 Alpha Argument length exceeds maximum, will be truncated=  Sp-Floor 1 Locker Room Hall Sys-4 Flr-3 Sch-H HPlcmt-core ZN NECB System 4 PSZAvailability Manager Lis\n   **   ~~~   ** Will be processed as Alpha=SP-FLOOR 1 LOCKER ROOM HALL SYS-4 FLR-3 SCH-H HPLCMT-CORE ZN NECB SYSTEM 4 PSZAVAILABILITY MANAGER LIST\n   ************* IDF Context for following error/warning message:\n   ************* Note -- lines truncated at 300 characters, if necessary...\n   *************  51759 AvailabilityManagerAssignmentList,\n   ************* indicated Name=Sp-Floor 1 Locker Room Hall Sys-4 Flr-3 Sch-H HPlcmt-core ZN NECB System 4 PSZAvailability Manager List\n   ************* Only last 1 lines before error line shown.....\n   *************  51760   Sp-Floor 1 Locker Room Hall Sys-4 Flr-3 Sch-H HPlcmt-core ZN NECB System 4 PSZAvailability Manager List, !- Name\n   ** Warning ** IP: IDF line~51760 Alpha Argument length exceeds maximum, will be truncated=  Sp-Floor 1 Locker Room Hall Sys-4 Flr-3 Sch-H HPlcmt-core ZN NECB System 4 PSZAvailability Manager Lis\n   **   ~~~   ** Will be processed as Alpha=SP-FLOOR 1 LOCKER ROOM HALL SYS-4 FLR-3 SCH-H HPLCMT-CORE ZN NECB SYSTEM 4 PSZAVAILABILITY MANAGER LIST\n   ************* IDF Context for following error/warning message:\n   ************* Note -- lines truncated at 300 characters, if necessary...\n   *************  52666 AirLoopHVAC,\n   ************* indicated Name=Sp-Floor 1 MRI Control Room Sys-3 Flr-3 Sch-H HPlcmt-north ZN NECB System 3 PSZ\n   ************* Only last 3 lines before error line shown.....\n   *************  52667   Sp-Floor 1 MRI Control Room Sys-3 Flr-3 Sch-H HPlcmt-north ZN NECB System 3 PSZ, !- Name\n   *************  52668   ,                                       !- Controller List Name\n   *************  52669   Sp-Floor 1 MRI Control Room Sys-3 Flr-3 Sch-H HPlcmt-north ZN NECB System 3 PSZAvailability Manager List, !- Availability Manager List Name\n   ** Warning ** IP: IDF line~52669 Alpha Argument length exceeds maximum, will be truncated=  Sp-Floor 1 MRI Control Room Sys-3 Flr-3 Sch-H HPlcmt-north ZN NECB System 3 PSZAvailability Manager Lis\n   **   ~~~   ** Will be processed as Alpha=SP-FLOOR 1 MRI CONTROL ROOM SYS-3 FLR-3 SCH-H HPLCMT-NORTH ZN NECB SYSTEM 3 PSZAVAILABILITY MANAGER LIST\n   ************* IDF Context for following error/warning message:\n   ************* Note -- lines truncated at 300 characters, if necessary...\n   *************  52725 AvailabilityManagerAssignmentList,\n   ************* indicated Name=Sp-Floor 1 MRI Control Room Sys-3 Flr-3 Sch-H HPlcmt-north ZN NECB System 3 PSZAvailability Manager List\n   ************* Only last 1 lines before error line shown.....\n   *************  52726   Sp-Floor 1 MRI Control Room Sys-3 Flr-3 Sch-H HPlcmt-north ZN NECB System 3 PSZAvailability Manager List, !- Name\n   ** Warning ** IP: IDF line~52726 Alpha Argument length exceeds maximum, will be truncated=  Sp-Floor 1 MRI Control Room Sys-3 Flr-3 Sch-H HPlcmt-north ZN NECB System 3 PSZAvailability Manager Lis\n   **   ~~~   ** Will be processed as Alpha=SP-FLOOR 1 MRI CONTROL ROOM SYS-3 FLR-3 SCH-H HPLCMT-NORTH ZN NECB SYSTEM 3 PSZAVAILABILITY MANAGER LIST\n   ************* IDF Context for following error/warning message:\n   ************* Note -- lines truncated at 300 characters, if necessary...\n   *************  55242 AirLoopHVAC,\n   ************* indicated Name=Sp-Floor 1 Operating Room 1 Sys-3 Flr-3 Sch-H HPlcmt-east ZN NECB System 3 PSZ\n   ************* Only last 3 lines before error line shown.....\n   *************  55243   Sp-Floor 1 Operating Room 1 Sys-3 Flr-3 Sch-H HPlcmt-east ZN NECB System 3 PSZ, !- Name\n   *************  55244   ,                                       !- Controller List Name\n   *************  55245   Sp-Floor 1 Operating Room 1 Sys-3 Flr-3 Sch-H HPlcmt-east ZN NECB System 3 PSZAvailability Manager List, !- Availability Manager List Name\n   ** Warning ** IP: IDF line~55245 Alpha Argument length exceeds maximum, will be truncated=  Sp-Floor 1 Operating Room 1 Sys-3 Flr-3 Sch-H HPlcmt-east ZN NECB System 3 PSZAvailability Manager Lis\n   **   ~~~   ** Will be processed as Alpha=SP-FLOOR 1 OPERATING ROOM 1 SYS-3 FLR-3 SCH-H HPLCMT-EAST ZN NECB SYSTEM 3 PSZAVAILABILITY MANAGER LIST\n   ************* IDF Context for following error/warning message:\n   ************* Note -- lines truncated at 300 characters, if necessary...\n   *************  55301 AvailabilityManagerAssignmentList,\n   ************* indicated Name=Sp-Floor 1 Operating Room 1 Sys-3 Flr-3 Sch-H HPlcmt-east ZN NECB System 3 PSZAvailability Manager List\n   ************* Only last 1 lines before error line shown.....\n   *************  55302   Sp-Floor 1 Operating Room 1 Sys-3 Flr-3 Sch-H HPlcmt-east ZN NECB System 3 PSZAvailability Manager List, !- Name\n   ** Warning ** IP: IDF line~55302 Alpha Argument length exceeds maximum, will be truncated=  Sp-Floor 1 Operating Room 1 Sys-3 Flr-3 Sch-H HPlcmt-east ZN NECB System 3 PSZAvailability Manager Lis\n   **   ~~~   ** Will be processed as Alpha=SP-FLOOR 1 OPERATING ROOM 1 SYS-3 FLR-3 SCH-H HPLCMT-EAST ZN NECB SYSTEM 3 PSZAVAILABILITY MANAGER LIST\n   ************* IDF Context for following error/warning message:\n   ************* Note -- lines truncated at 300 characters, if necessary...\n   *************  55564 AirLoopHVAC,\n   ************* indicated Name=Sp-Floor 1 Operating Room 2 Sys-3 Flr-3 Sch-H HPlcmt-east ZN NECB System 3 PSZ\n   ************* Only last 3 lines before error line shown.....\n   *************  55565   Sp-Floor 1 Operating Room 2 Sys-3 Flr-3 Sch-H HPlcmt-east ZN NECB System 3 PSZ, !- Name\n   *************  55566   ,                                       !- Controller List Name\n   *************  55567   Sp-Floor 1 Operating Room 2 Sys-3 Flr-3 Sch-H HPlcmt-east ZN NECB System 3 PSZAvailability Manager List, !- Availability Manager List Name\n   ** Warning ** IP: IDF line~55567 Alpha Argument length exceeds maximum, will be truncated=  Sp-Floor 1 Operating Room 2 Sys-3 Flr-3 Sch-H HPlcmt-east ZN NECB System 3 PSZAvailability Manager Lis\n   **   ~~~   ** Will be processed as Alpha=SP-FLOOR 1 OPERATING ROOM 2 SYS-3 FLR-3 SCH-H HPLCMT-EAST ZN NECB SYSTEM 3 PSZAVAILABILITY MANAGER LIST\n   ************* IDF Context for following error/warning message:\n   ************* Note -- lines truncated at 300 characters, if necessary...\n   *************  55623 AvailabilityManagerAssignmentList,\n   ************* indicated Name=Sp-Floor 1 Operating Room 2 Sys-3 Flr-3 Sch-H HPlcmt-east ZN NECB System 3 PSZAvailability Manager List\n   ************* Only last 1 lines before error line shown.....\n   *************  55624   Sp-Floor 1 Operating Room 2 Sys-3 Flr-3 Sch-H HPlcmt-east ZN NECB System 3 PSZAvailability Manager List, !- Name\n   ** Warning ** IP: IDF line~55624 Alpha Argument length exceeds maximum, will be truncated=  Sp-Floor 1 Operating Room 2 Sys-3 Flr-3 Sch-H HPlcmt-east ZN NECB System 3 PSZAvailability Manager Lis\n   **   ~~~   ** Will be processed as Alpha=SP-FLOOR 1 OPERATING ROOM 2 SYS-3 FLR-3 SCH-H HPLCMT-EAST ZN NECB SYSTEM 3 PSZAVAILABILITY MANAGER LIST\n   ************* IDF Context for following error/warning message:\n   ************* Note -- lines truncated at 300 characters, if necessary...\n   *************  55886 AirLoopHVAC,\n   ************* indicated Name=Sp-Floor 1 Operating Room 3 Sys-3 Flr-3 Sch-H HPlcmt-core ZN NECB System 3 PSZ\n   ************* Only last 3 lines before error line shown.....\n   *************  55887   Sp-Floor 1 Operating Room 3 Sys-3 Flr-3 Sch-H HPlcmt-core ZN NECB System 3 PSZ, !- Name\n   *************  55888   ,                                       !- Controller List Name\n   *************  55889   Sp-Floor 1 Operating Room 3 Sys-3 Flr-3 Sch-H HPlcmt-core ZN NECB System 3 PSZAvailability Manager List, !- Availability Manager List Name\n   ** Warning ** IP: IDF line~55889 Alpha Argument length exceeds maximum, will be truncated=  Sp-Floor 1 Operating Room 3 Sys-3 Flr-3 Sch-H HPlcmt-core ZN NECB System 3 PSZAvailability Manager Lis\n   **   ~~~   ** Will be processed as Alpha=SP-FLOOR 1 OPERATING ROOM 3 SYS-3 FLR-3 SCH-H HPLCMT-CORE ZN NECB SYSTEM 3 PSZAVAILABILITY MANAGER LIST\n   ************* IDF Context for following error/warning message:\n   ************* Note -- lines truncated at 300 characters, if necessary...\n   *************  55945 AvailabilityManagerAssignmentList,\n   ************* indicated Name=Sp-Floor 1 Operating Room 3 Sys-3 Flr-3 Sch-H HPlcmt-core ZN NECB System 3 PSZAvailability Manager List\n   ************* Only last 1 lines before error line shown.....\n   *************  55946   Sp-Floor 1 Operating Room 3 Sys-3 Flr-3 Sch-H HPlcmt-core ZN NECB System 3 PSZAvailability Manager List, !- Name\n   ** Warning ** IP: IDF line~55946 Alpha Argument length exceeds maximum, will be truncated=  Sp-Floor 1 Operating Room 3 Sys-3 Flr-3 Sch-H HPlcmt-core ZN NECB System 3 PSZAvailability Manager Lis\n   **   ~~~   ** Will be processed as Alpha=SP-FLOOR 1 OPERATING ROOM 3 SYS-3 FLR-3 SCH-H HPLCMT-CORE ZN NECB SYSTEM 3 PSZAVAILABILITY MANAGER LIST\n   ************* IDF Context for following error/warning message:\n   ************* Note -- lines truncated at 300 characters, if necessary...\n   *************  57496 AirLoopHVAC,\n   ************* indicated Name=Sp-Floor 1 Procedure Room Sys-3 Flr-3 Sch-H HPlcmt-north ZN NECB System 3 PSZ\n   ************* Only last 3 lines before error line shown.....\n   *************  57497   Sp-Floor 1 Procedure Room Sys-3 Flr-3 Sch-H HPlcmt-north ZN NECB System 3 PSZ, !- Name\n   *************  57498   ,                                       !- Controller List Name\n   *************  57499   Sp-Floor 1 Procedure Room Sys-3 Flr-3 Sch-H HPlcmt-north ZN NECB System 3 PSZAvailability Manager List, !- Availability Manager List Name\n   ** Warning ** IP: IDF line~57499 Alpha Argument length exceeds maximum, will be truncated=  Sp-Floor 1 Procedure Room Sys-3 Flr-3 Sch-H HPlcmt-north ZN NECB System 3 PSZAvailability Manager Lis\n   **   ~~~   ** Will be processed as Alpha=SP-FLOOR 1 PROCEDURE ROOM SYS-3 FLR-3 SCH-H HPLCMT-NORTH ZN NECB SYSTEM 3 PSZAVAILABILITY MANAGER LIST\n   ************* IDF Context for following error/warning message:\n   ************* Note -- lines truncated at 300 characters, if necessary...\n   *************  57555 AvailabilityManagerAssignmentList,\n   ************* indicated Name=Sp-Floor 1 Procedure Room Sys-3 Flr-3 Sch-H HPlcmt-north ZN NECB System 3 PSZAvailability Manager List\n   ************* Only last 1 lines before error line shown.....\n   *************  57556   Sp-Floor 1 Procedure Room Sys-3 Flr-3 Sch-H HPlcmt-north ZN NECB System 3 PSZAvailability Manager List, !- Name\n   ** Warning ** IP: IDF line~57556 Alpha Argument length exceeds maximum, will be truncated=  Sp-Floor 1 Procedure Room Sys-3 Flr-3 Sch-H HPlcmt-north ZN NECB System 3 PSZAvailability Manager Lis\n   **   ~~~   ** Will be processed as Alpha=SP-FLOOR 1 PROCEDURE ROOM SYS-3 FLR-3 SCH-H HPLCMT-NORTH ZN NECB SYSTEM 3 PSZAVAILABILITY MANAGER LIST\n   ************* IDF Context for following error/warning message:\n   ************* Note -- lines truncated at 300 characters, if necessary...\n   *************  58140 AirLoopHVAC,\n   ************* indicated Name=Sp-Floor 1 Recovery Room Sys-3 Flr-3 Sch-H HPlcmt-south ZN NECB System 3 PSZ\n   ************* Only last 3 lines before error line shown.....\n   *************  58141   Sp-Floor 1 Recovery Room Sys-3 Flr-3 Sch-H HPlcmt-south ZN NECB System 3 PSZ, !- Name\n   *************  58142   ,                                       !- Controller List Name\n   *************  58143   Sp-Floor 1 Recovery Room Sys-3 Flr-3 Sch-H HPlcmt-south ZN NECB System 3 PSZAvailability Manager List, !- Availability Manager List Name\n   ** Warning ** IP: IDF line~58143 Alpha Argument length exceeds maximum, will be truncated=  Sp-Floor 1 Recovery Room Sys-3 Flr-3 Sch-H HPlcmt-south ZN NECB System 3 PSZAvailability Manager Lis\n   **   ~~~   ** Will be processed as Alpha=SP-FLOOR 1 RECOVERY ROOM SYS-3 FLR-3 SCH-H HPLCMT-SOUTH ZN NECB SYSTEM 3 PSZAVAILABILITY MANAGER LIST\n   ************* IDF Context for following error/warning message:\n   ************* Note -- lines truncated at 300 characters, if necessary...\n   *************  58199 AvailabilityManagerAssignmentList,\n   ************* indicated Name=Sp-Floor 1 Recovery Room Sys-3 Flr-3 Sch-H HPlcmt-south ZN NECB System 3 PSZAvailability Manager List\n   ************* Only last 1 lines before error line shown.....\n   *************  58200   Sp-Floor 1 Recovery Room Sys-3 Flr-3 Sch-H HPlcmt-south ZN NECB System 3 PSZAvailability Manager List, !- Name\n   ** Warning ** IP: IDF line~58200 Alpha Argument length exceeds maximum, will be truncated=  Sp-Floor 1 Recovery Room Sys-3 Flr-3 Sch-H HPlcmt-south ZN NECB System 3 PSZAvailability Manager Lis\n   **   ~~~   ** Will be processed as Alpha=SP-FLOOR 1 RECOVERY ROOM SYS-3 FLR-3 SCH-H HPLCMT-SOUTH ZN NECB SYSTEM 3 PSZAVAILABILITY MANAGER LIST\n   ************* IDF Context for following error/warning message:\n   ************* Note -- lines truncated at 300 characters, if necessary...\n   *************  60394 AirLoopHVAC,\n   ************* indicated Name=Sp-Floor 1 Sterile Storage Sys-4 Flr-3 Sch-E HPlcmt-core ZN NECB System 4 PSZ\n   ************* Only last 3 lines before error line shown.....\n   *************  60395   Sp-Floor 1 Sterile Storage Sys-4 Flr-3 Sch-E HPlcmt-core ZN NECB System 4 PSZ, !- Name\n   *************  60396   ,                                       !- Controller List Name\n   *************  60397   Sp-Floor 1 Sterile Storage Sys-4 Flr-3 Sch-E HPlcmt-core ZN NECB System 4 PSZAvailability Manager List, !- Availability Manager List Name\n   ** Warning ** IP: IDF line~60397 Alpha Argument length exceeds maximum, will be truncated=  Sp-Floor 1 Sterile Storage Sys-4 Flr-3 Sch-E HPlcmt-core ZN NECB System 4 PSZAvailability Manager Lis\n   **   ~~~   ** Will be processed as Alpha=SP-FLOOR 1 STERILE STORAGE SYS-4 FLR-3 SCH-E HPLCMT-CORE ZN NECB SYSTEM 4 PSZAVAILABILITY MANAGER LIST\n   ************* IDF Context for following error/warning message:\n   ************* Note -- lines truncated at 300 characters, if necessary...\n   *************  60453 AvailabilityManagerAssignmentList,\n   ************* indicated Name=Sp-Floor 1 Sterile Storage Sys-4 Flr-3 Sch-E HPlcmt-core ZN NECB System 4 PSZAvailability Manager List\n   ************* Only last 1 lines before error line shown.....\n   *************  60454   Sp-Floor 1 Sterile Storage Sys-4 Flr-3 Sch-E HPlcmt-core ZN NECB System 4 PSZAvailability Manager List, !- Name\n   ** Warning ** IP: IDF line~60454 Alpha Argument length exceeds maximum, will be truncated=  Sp-Floor 1 Sterile Storage Sys-4 Flr-3 Sch-E HPlcmt-core ZN NECB System 4 PSZAvailability Manager Lis\n   **   ~~~   ** Will be processed as Alpha=SP-FLOOR 1 STERILE STORAGE SYS-4 FLR-3 SCH-E HPLCMT-CORE ZN NECB SYSTEM 4 PSZAVAILABILITY MANAGER LIST\n   ************* IDF Context for following error/warning message:\n   ************* Note -- lines truncated at 300 characters, if necessary...\n   *************  61682 AirLoopHVAC,\n   ************* indicated Name=Sp-Floor 1 Utility Janitor Sys-4 Flr-3 Sch-E HPlcmt-core ZN NECB System 4 PSZ\n   ************* Only last 3 lines before error line shown.....\n   *************  61683   Sp-Floor 1 Utility Janitor Sys-4 Flr-3 Sch-E HPlcmt-core ZN NECB System 4 PSZ, !- Name\n   *************  61684   ,                                       !- Controller List Name\n   *************  61685   Sp-Floor 1 Utility Janitor Sys-4 Flr-3 Sch-E HPlcmt-core ZN NECB System 4 PSZAvailability Manager List, !- Availability Manager List Name\n   ** Warning ** IP: IDF line~61685 Alpha Argument length exceeds maximum, will be truncated=  Sp-Floor 1 Utility Janitor Sys-4 Flr-3 Sch-E HPlcmt-core ZN NECB System 4 PSZAvailability Manager Lis\n   **   ~~~   ** Will be processed as Alpha=SP-FLOOR 1 UTILITY JANITOR SYS-4 FLR-3 SCH-E HPLCMT-CORE ZN NECB SYSTEM 4 PSZAVAILABILITY MANAGER LIST\n   ************* IDF Context for following error/warning message:\n   ************* Note -- lines truncated at 300 characters, if necessary...\n   *************  61741 AvailabilityManagerAssignmentList,\n   ************* indicated Name=Sp-Floor 1 Utility Janitor Sys-4 Flr-3 Sch-E HPlcmt-core ZN NECB System 4 PSZAvailability Manager List\n   ************* Only last 1 lines before error line shown.....\n   *************  61742   Sp-Floor 1 Utility Janitor Sys-4 Flr-3 Sch-E HPlcmt-core ZN NECB System 4 PSZAvailability Manager List, !- Name\n   ** Warning ** IP: IDF line~61742 Alpha Argument length exceeds maximum, will be truncated=  Sp-Floor 1 Utility Janitor Sys-4 Flr-3 Sch-E HPlcmt-core ZN NECB System 4 PSZAvailability Manager Lis\n   **   ~~~   ** Will be processed as Alpha=SP-FLOOR 1 UTILITY JANITOR SYS-4 FLR-3 SCH-E HPLCMT-CORE ZN NECB SYSTEM 4 PSZAVAILABILITY MANAGER LIST\n   ************* IDF Context for following error/warning message:\n   ************* Note -- lines truncated at 300 characters, if necessary...\n   *************  62970 AirLoopHVAC,\n   ************* indicated Name=Sp-Floor 2 Conference Toilet Sys-3 Flr-1 Sch-H HPlcmt-core ZN NECB System 3 PSZ\n   ************* Only last 3 lines before error line shown.....\n   *************  62971   Sp-Floor 2 Conference Toilet Sys-3 Flr-1 Sch-H HPlcmt-core ZN NECB System 3 PSZ, !- Name\n   *************  62972   ,                                       !- Controller List Name\n   *************  62973   Sp-Floor 2 Conference Toilet Sys-3 Flr-1 Sch-H HPlcmt-core ZN NECB System 3 PSZAvailability Manager List, !- Availability Manager List Name\n   ** Warning ** IP: IDF line~62973 Alpha Argument length exceeds maximum, will be truncated=  Sp-Floor 2 Conference Toilet Sys-3 Flr-1 Sch-H HPlcmt-core ZN NECB System 3 PSZAvailability Manager Lis\n   **   ~~~   ** Will be processed as Alpha=SP-FLOOR 2 CONFERENCE TOILET SYS-3 FLR-1 SCH-H HPLCMT-CORE ZN NECB SYSTEM 3 PSZAVAILABILITY MANAGER LIST\n   ************* IDF Context for following error/warning message:\n   ************* Note -- lines truncated at 300 characters, if necessary...\n   *************  63029 AvailabilityManagerAssignmentList,\n   ************* indicated Name=Sp-Floor 2 Conference Toilet Sys-3 Flr-1 Sch-H HPlcmt-core ZN NECB System 3 PSZAvailability Manager List\n   ************* Only last 1 lines before error line shown.....\n   *************  63030   Sp-Floor 2 Conference Toilet Sys-3 Flr-1 Sch-H HPlcmt-core ZN NECB System 3 PSZAvailability Manager List, !- Name\n   ** Warning ** IP: IDF line~63030 Alpha Argument length exceeds maximum, will be truncated=  Sp-Floor 2 Conference Toilet Sys-3 Flr-1 Sch-H HPlcmt-core ZN NECB System 3 PSZAvailability Manager Lis\n   **   ~~~   ** Will be processed as Alpha=SP-FLOOR 2 CONFERENCE TOILET SYS-3 FLR-1 SCH-H HPLCMT-CORE ZN NECB SYSTEM 3 PSZAVAILABILITY MANAGER LIST\n   ************* IDF Context for following error/warning message:\n   ************* Note -- lines truncated at 300 characters, if necessary...\n   *************  68766 AirLoopHVAC,\n   ************* indicated Name=Sp-Floor 2 Nurse Station 1 Sys-3 Flr-1 Sch-H HPlcmt-core ZN NECB System 3 PSZ\n   ************* Only last 3 lines before error line shown.....\n   *************  68767   Sp-Floor 2 Nurse Station 1 Sys-3 Flr-1 Sch-H HPlcmt-core ZN NECB System 3 PSZ, !- Name\n   *************  68768   ,                                       !- Controller List Name\n   *************  68769   Sp-Floor 2 Nurse Station 1 Sys-3 Flr-1 Sch-H HPlcmt-core ZN NECB System 3 PSZAvailability Manager List, !- Availability Manager List Name\n   ** Warning ** IP: IDF line~68769 Alpha Argument length exceeds maximum, will be truncated=  Sp-Floor 2 Nurse Station 1 Sys-3 Flr-1 Sch-H HPlcmt-core ZN NECB System 3 PSZAvailability Manager Lis\n   **   ~~~   ** Will be processed as Alpha=SP-FLOOR 2 NURSE STATION 1 SYS-3 FLR-1 SCH-H HPLCMT-CORE ZN NECB SYSTEM 3 PSZAVAILABILITY MANAGER LIST\n   ************* IDF Context for following error/warning message:\n   ************* Note -- lines truncated at 300 characters, if necessary...\n   *************  68825 AvailabilityManagerAssignmentList,\n   ************* indicated Name=Sp-Floor 2 Nurse Station 1 Sys-3 Flr-1 Sch-H HPlcmt-core ZN NECB System 3 PSZAvailability Manager List\n   ************* Only last 1 lines before error line shown.....\n   *************  68826   Sp-Floor 2 Nurse Station 1 Sys-3 Flr-1 Sch-H HPlcmt-core ZN NECB System 3 PSZAvailability Manager List, !- Name\n   ** Warning ** IP: IDF line~68826 Alpha Argument length exceeds maximum, will be truncated=  Sp-Floor 2 Nurse Station 1 Sys-3 Flr-1 Sch-H HPlcmt-core ZN NECB System 3 PSZAvailability Manager Lis\n   **   ~~~   ** Will be processed as Alpha=SP-FLOOR 2 NURSE STATION 1 SYS-3 FLR-1 SCH-H HPLCMT-CORE ZN NECB SYSTEM 3 PSZAVAILABILITY MANAGER LIST\n   ************* IDF Context for following error/warning message:\n   ************* Note -- lines truncated at 300 characters, if necessary...\n   *************  69088 AirLoopHVAC,\n   ************* indicated Name=Sp-Floor 2 Nurse Station 2 Sys-3 Flr-1 Sch-H HPlcmt-core ZN NECB System 3 PSZ\n   ************* Only last 3 lines before error line shown.....\n   *************  69089   Sp-Floor 2 Nurse Station 2 Sys-3 Flr-1 Sch-H HPlcmt-core ZN NECB System 3 PSZ, !- Name\n   *************  69090   ,                                       !- Controller List Name\n   *************  69091   Sp-Floor 2 Nurse Station 2 Sys-3 Flr-1 Sch-H HPlcmt-core ZN NECB System 3 PSZAvailability Manager List, !- Availability Manager List Name\n   ** Warning ** IP: IDF line~69091 Alpha Argument length exceeds maximum, will be truncated=  Sp-Floor 2 Nurse Station 2 Sys-3 Flr-1 Sch-H HPlcmt-core ZN NECB System 3 PSZAvailability Manager Lis\n   **   ~~~   ** Will be processed as Alpha=SP-FLOOR 2 NURSE STATION 2 SYS-3 FLR-1 SCH-H HPLCMT-CORE ZN NECB SYSTEM 3 PSZAVAILABILITY MANAGER LIST\n   ************* IDF Context for following error/warning message:\n   ************* Note -- lines truncated at 300 characters, if necessary...\n   *************  69147 AvailabilityManagerAssignmentList,\n   ************* indicated Name=Sp-Floor 2 Nurse Station 2 Sys-3 Flr-1 Sch-H HPlcmt-core ZN NECB System 3 PSZAvailability Manager List\n   ************* Only last 1 lines before error line shown.....\n   *************  69148   Sp-Floor 2 Nurse Station 2 Sys-3 Flr-1 Sch-H HPlcmt-core ZN NECB System 3 PSZAvailability Manager List, !- Name\n   ** Warning ** IP: IDF line~69148 Alpha Argument length exceeds maximum, will be truncated=  Sp-Floor 2 Nurse Station 2 Sys-3 Flr-1 Sch-H HPlcmt-core ZN NECB System 3 PSZAvailability Manager Lis\n   **   ~~~   ** Will be processed as Alpha=SP-FLOOR 2 NURSE STATION 2 SYS-3 FLR-1 SCH-H HPLCMT-CORE ZN NECB SYSTEM 3 PSZAVAILABILITY MANAGER LIST\n   ************* IDF Context for following error/warning message:\n   ************* Note -- lines truncated at 300 characters, if necessary...\n   *************  69410 AirLoopHVAC,\n   ************* indicated Name=Sp-Floor 2 Reception Hall Sys-3 Flr-1 Sch-H HPlcmt-south ZN NECB System 3 PSZ\n   ************* Only last 3 lines before error line shown.....\n   *************  69411   Sp-Floor 2 Reception Hall Sys-3 Flr-1 Sch-H HPlcmt-south ZN NECB System 3 PSZ, !- Name\n   *************  69412   ,                                       !- Controller List Name\n   *************  69413   Sp-Floor 2 Reception Hall Sys-3 Flr-1 Sch-H HPlcmt-south ZN NECB System 3 PSZAvailability Manager List, !- Availability Manager List Name\n   ** Warning ** IP: IDF line~69413 Alpha Argument length exceeds maximum, will be truncated=  Sp-Floor 2 Reception Hall Sys-3 Flr-1 Sch-H HPlcmt-south ZN NECB System 3 PSZAvailability Manager Lis\n   **   ~~~   ** Will be processed as Alpha=SP-FLOOR 2 RECEPTION HALL SYS-3 FLR-1 SCH-H HPLCMT-SOUTH ZN NECB SYSTEM 3 PSZAVAILABILITY MANAGER LIST\n   ************* IDF Context for following error/warning message:\n   ************* Note -- lines truncated at 300 characters, if necessary...\n   *************  69469 AvailabilityManagerAssignmentList,\n   ************* indicated Name=Sp-Floor 2 Reception Hall Sys-3 Flr-1 Sch-H HPlcmt-south ZN NECB System 3 PSZAvailability Manager List\n   ************* Only last 1 lines before error line shown.....\n   *************  69470   Sp-Floor 2 Reception Hall Sys-3 Flr-1 Sch-H HPlcmt-south ZN NECB System 3 PSZAvailability Manager List, !- Name\n   ** Warning ** IP: IDF line~69470 Alpha Argument length exceeds maximum, will be truncated=  Sp-Floor 2 Reception Hall Sys-3 Flr-1 Sch-H HPlcmt-south ZN NECB System 3 PSZAvailability Manager Lis\n   **   ~~~   ** Will be processed as Alpha=SP-FLOOR 2 RECEPTION HALL SYS-3 FLR-1 SCH-H HPLCMT-SOUTH ZN NECB SYSTEM 3 PSZAVAILABILITY MANAGER LIST\n   ************* IDF Context for following error/warning message:\n   ************* Note -- lines truncated at 300 characters, if necessary...\n   *************  70054 AirLoopHVAC,\n   ************* indicated Name=Sp-Floor 2 Reception Toilet Sys-3 Flr-1 Sch-H HPlcmt-core ZN NECB System 3 PSZ\n   ************* Only last 3 lines before error line shown.....\n   *************  70055   Sp-Floor 2 Reception Toilet Sys-3 Flr-1 Sch-H HPlcmt-core ZN NECB System 3 PSZ, !- Name\n   *************  70056   ,                                       !- Controller List Name\n   *************  70057   Sp-Floor 2 Reception Toilet Sys-3 Flr-1 Sch-H HPlcmt-core ZN NECB System 3 PSZAvailability Manager List, !- Availability Manager List Name\n   ** Warning ** IP: IDF line~70057 Alpha Argument length exceeds maximum, will be truncated=  Sp-Floor 2 Reception Toilet Sys-3 Flr-1 Sch-H HPlcmt-core ZN NECB System 3 PSZAvailability Manager Lis\n   **   ~~~   ** Will be processed as Alpha=SP-FLOOR 2 RECEPTION TOILET SYS-3 FLR-1 SCH-H HPLCMT-CORE ZN NECB SYSTEM 3 PSZAVAILABILITY MANAGER LIST\n   ************* IDF Context for following error/warning message:\n   ************* Note -- lines truncated at 300 characters, if necessary...\n   *************  70113 AvailabilityManagerAssignmentList,\n   ************* indicated Name=Sp-Floor 2 Reception Toilet Sys-3 Flr-1 Sch-H HPlcmt-core ZN NECB System 3 PSZAvailability Manager List\n   ************* Only last 1 lines before error line shown.....\n   *************  70114   Sp-Floor 2 Reception Toilet Sys-3 Flr-1 Sch-H HPlcmt-core ZN NECB System 3 PSZAvailability Manager List, !- Name\n   ** Warning ** IP: IDF line~70114 Alpha Argument length exceeds maximum, will be truncated=  Sp-Floor 2 Reception Toilet Sys-3 Flr-1 Sch-H HPlcmt-core ZN NECB System 3 PSZAvailability Manager Lis\n   **   ~~~   ** Will be processed as Alpha=SP-FLOOR 2 RECEPTION TOILET SYS-3 FLR-1 SCH-H HPLCMT-CORE ZN NECB SYSTEM 3 PSZAVAILABILITY MANAGER LIST\n   ************* IDF Context for following error/warning message:\n   ************* Note -- lines truncated at 300 characters, if necessary...\n   *************  72952 AirLoopHVAC,\n   ************* indicated Name=Sp-Floor 3 Lounge Toilet Sys-3 Flr-2 Sch-H HPlcmt-north ZN NECB System 3 PSZ\n   ************* Only last 3 lines before error line shown.....\n   *************  72953   Sp-Floor 3 Lounge Toilet Sys-3 Flr-2 Sch-H HPlcmt-north ZN NECB System 3 PSZ, !- Name\n   *************  72954   ,                                       !- Controller List Name\n   *************  72955   Sp-Floor 3 Lounge Toilet Sys-3 Flr-2 Sch-H HPlcmt-north ZN NECB System 3 PSZAvailability Manager List, !- Availability Manager List Name\n   ** Warning ** IP: IDF line~72955 Alpha Argument length exceeds maximum, will be truncated=  Sp-Floor 3 Lounge Toilet Sys-3 Flr-2 Sch-H HPlcmt-north ZN NECB System 3 PSZAvailability Manager Lis\n   **   ~~~   ** Will be processed as Alpha=SP-FLOOR 3 LOUNGE TOILET SYS-3 FLR-2 SCH-H HPLCMT-NORTH ZN NECB SYSTEM 3 PSZAVAILABILITY MANAGER LIST\n   ************* IDF Context for following error/warning message:\n   ************* Note -- lines truncated at 300 characters, if necessary...\n   *************  73011 AvailabilityManagerAssignmentList,\n   ************* indicated Name=Sp-Floor 3 Lounge Toilet Sys-3 Flr-2 Sch-H HPlcmt-north ZN NECB System 3 PSZAvailability Manager List\n   ************* Only last 1 lines before error line shown.....\n   *************  73012   Sp-Floor 3 Lounge Toilet Sys-3 Flr-2 Sch-H HPlcmt-north ZN NECB System 3 PSZAvailability Manager List, !- Name\n   ** Warning ** IP: IDF line~73012 Alpha Argument length exceeds maximum, will be truncated=  Sp-Floor 3 Lounge Toilet Sys-3 Flr-2 Sch-H HPlcmt-north ZN NECB System 3 PSZAvailability Manager Lis\n   **   ~~~   ** Will be processed as Alpha=SP-FLOOR 3 LOUNGE TOILET SYS-3 FLR-2 SCH-H HPLCMT-NORTH ZN NECB SYSTEM 3 PSZAVAILABILITY MANAGER LIST\n   ************* IDF Context for following error/warning message:\n   ************* Note -- lines truncated at 300 characters, if necessary...\n   *************  73274 AirLoopHVAC,\n   ************* indicated Name=Sp-Floor 3 Mechanical Hall Sys-3 Flr-2 Sch-H HPlcmt-core ZN NECB System 3 PSZ\n   ************* Only last 3 lines before error line shown.....\n   *************  73275   Sp-Floor 3 Mechanical Hall Sys-3 Flr-2 Sch-H HPlcmt-core ZN NECB System 3 PSZ, !- Name\n   *************  73276   ,                                       !- Controller List Name\n   *************  73277   Sp-Floor 3 Mechanical Hall Sys-3 Flr-2 Sch-H HPlcmt-core ZN NECB System 3 PSZAvailability Manager List, !- Availability Manager List Name\n   ** Warning ** IP: IDF line~73277 Alpha Argument length exceeds maximum, will be truncated=  Sp-Floor 3 Mechanical Hall Sys-3 Flr-2 Sch-H HPlcmt-core ZN NECB System 3 PSZAvailability Manager Lis\n   **   ~~~   ** Will be processed as Alpha=SP-FLOOR 3 MECHANICAL HALL SYS-3 FLR-2 SCH-H HPLCMT-CORE ZN NECB SYSTEM 3 PSZAVAILABILITY MANAGER LIST\n   ************* IDF Context for following error/warning message:\n   ************* Note -- lines truncated at 300 characters, if necessary...\n   *************  73333 AvailabilityManagerAssignmentList,\n   ************* indicated Name=Sp-Floor 3 Mechanical Hall Sys-3 Flr-2 Sch-H HPlcmt-core ZN NECB System 3 PSZAvailability Manager List\n   ************* Only last 1 lines before error line shown.....\n   *************  73334   Sp-Floor 3 Mechanical Hall Sys-3 Flr-2 Sch-H HPlcmt-core ZN NECB System 3 PSZAvailability Manager List, !- Name\n   ** Warning ** IP: IDF line~73334 Alpha Argument length exceeds maximum, will be truncated=  Sp-Floor 3 Mechanical Hall Sys-3 Flr-2 Sch-H HPlcmt-core ZN NECB System 3 PSZAvailability Manager Lis\n   **   ~~~   ** Will be processed as Alpha=SP-FLOOR 3 MECHANICAL HALL SYS-3 FLR-2 SCH-H HPLCMT-CORE ZN NECB SYSTEM 3 PSZAVAILABILITY MANAGER LIST\n   ************* IDF Context for following error/warning message:\n   ************* Note -- lines truncated at 300 characters, if necessary...\n   *************  74240 AirLoopHVAC,\n   ************* indicated Name=Sp-Floor 3 Physical Therapy 1 Sys-3 Flr-2 Sch-C HPlcmt-south ZN NECB System 3 PSZ\n   ************* Only last 3 lines before error line shown.....\n   *************  74241   Sp-Floor 3 Physical Therapy 1 Sys-3 Flr-2 Sch-C HPlcmt-south ZN NECB System 3 PSZ, !- Name\n   *************  74242   ,                                       !- Controller List Name\n   *************  74243   Sp-Floor 3 Physical Therapy 1 Sys-3 Flr-2 Sch-C HPlcmt-south ZN NECB System 3 PSZAvailability Manager List, !- Availability Manager List Name\n   ** Warning ** IP: IDF line~74243 Alpha Argument length exceeds maximum, will be truncated=  Sp-Floor 3 Physical Therapy 1 Sys-3 Flr-2 Sch-C HPlcmt-south ZN NECB System 3 PSZAvailability Manager Lis\n   **   ~~~   ** Will be processed as Alpha=SP-FLOOR 3 PHYSICAL THERAPY 1 SYS-3 FLR-2 SCH-C HPLCMT-SOUTH ZN NECB SYSTEM 3 PSZAVAILABILITY MANAGER LIST\n   ************* IDF Context for following error/warning message:\n   ************* Note -- lines truncated at 300 characters, if necessary...\n   *************  74240 AirLoopHVAC,\n   ************* indicated Name=Sp-Floor 3 Physical Therapy 1 Sys-3 Flr-2 Sch-C HPlcmt-south ZN NECB System 3 PSZ\n   ************* Only last 10 lines before error line shown.....\n   *************  74241   Sp-Floor 3 Physical Therapy 1 Sys-3 Flr-2 Sch-C HPlcmt-south ZN NECB System 3 PSZ, !- Name\n   *************  74242   ,                                       !- Controller List Name\n   *************  74243   Sp-Floor 3 Physical Therapy 1 Sys-3 Flr-2 Sch-C HPlcmt-south ZN NECB System 3 PSZAvailability Manager List, !- Availability Manager List Name\n   *************  74244   AutoSize,                               !- Design Supply Air Flow Rate {m3/s}\n   *************  74245   Sp-Floor 3 Physical Therapy 1 Sys-3 Flr-2 Sch-C HPlcmt-south ZN NECB System 3 PSZ Supply Branches, !- Branch List Name\n   *************  74246   ,                                       !- Connector List Name\n   *************  74247   Node 383,                               !- Supply Side Inlet Node Name\n   *************  74248   Node 386,                               !- Demand Side Outlet Node Name\n   *************  74249   Sp-Floor 3 Physical Therapy 1 Sys-3 Flr-2 Sch-C HPlcmt-south ZN NECB System 3 PSZ Demand Inlet Nodes, !- Demand Side Inlet Node Names\n   *************  74250   Sp-Floor 3 Physical Therapy 1 Sys-3 Flr-2 Sch-C HPlcmt-south ZN NECB System 3 PSZ Supply Outlet Nodes; !- Supply Side Outlet Node Names\n   ** Warning ** IP: IDF line~74250 Alpha Argument length exceeds maximum, will be truncated=  Sp-Floor 3 Physical Therapy 1 Sys-3 Flr-2 Sch-C HPlcmt-south ZN NECB System 3 PSZ Supply Outlet Node\n   **   ~~~   ** Will be processed as Alpha=SP-FLOOR 3 PHYSICAL THERAPY 1 SYS-3 FLR-2 SCH-C HPLCMT-SOUTH ZN NECB SYSTEM 3 PSZ SUPPLY OUTLET NODES\n   ************* IDF Context for following error/warning message:\n   ************* Note -- lines truncated at 300 characters, if necessary...\n   *************  74252 NodeList,\n   ************* indicated Name=Sp-Floor 3 Physical Therapy 1 Sys-3 Flr-2 Sch-C HPlcmt-south ZN NECB System 3 PSZ Supply Outlet Nodes\n   ************* Only last 1 lines before error line shown.....\n   *************  74253   Sp-Floor 3 Physical Therapy 1 Sys-3 Flr-2 Sch-C HPlcmt-south ZN NECB System 3 PSZ Supply Outlet Nodes, !- Name\n   ** Warning ** IP: IDF line~74253 Alpha Argument length exceeds maximum, will be truncated=  Sp-Floor 3 Physical Therapy 1 Sys-3 Flr-2 Sch-C HPlcmt-south ZN NECB System 3 PSZ Supply Outlet Node\n   **   ~~~   ** Will be processed as Alpha=SP-FLOOR 3 PHYSICAL THERAPY 1 SYS-3 FLR-2 SCH-C HPLCMT-SOUTH ZN NECB SYSTEM 3 PSZ SUPPLY OUTLET NODES\n   ************* IDF Context for following error/warning message:\n   ************* Note -- lines truncated at 300 characters, if necessary...\n   *************  74299 AvailabilityManagerAssignmentList,\n   ************* indicated Name=Sp-Floor 3 Physical Therapy 1 Sys-3 Flr-2 Sch-C HPlcmt-south ZN NECB System 3 PSZAvailability Manager List\n   ************* Only last 1 lines before error line shown.....\n   *************  74300   Sp-Floor 3 Physical Therapy 1 Sys-3 Flr-2 Sch-C HPlcmt-south ZN NECB System 3 PSZAvailability Manager List, !- Name\n   ** Warning ** IP: IDF line~74300 Alpha Argument length exceeds maximum, will be truncated=  Sp-Floor 3 Physical Therapy 1 Sys-3 Flr-2 Sch-C HPlcmt-south ZN NECB System 3 PSZAvailability Manager Lis\n   **   ~~~   ** Will be processed as Alpha=SP-FLOOR 3 PHYSICAL THERAPY 1 SYS-3 FLR-2 SCH-C HPLCMT-SOUTH ZN NECB SYSTEM 3 PSZAVAILABILITY MANAGER LIST\n   ************* IDF Context for following error/warning message:\n   ************* Note -- lines truncated at 300 characters, if necessary...\n   *************  74544 AirLoopHVAC:SupplyPath,\n   ************* indicated Name=Sp-Floor 3 Physical Therapy 1 Sys-3 Flr-2 Sch-C HPlcmt-south ZN NECB System 3 PSZ Node 385 Supply Path\n   ************* Only last 1 lines before error line shown.....\n   *************  74545   Sp-Floor 3 Physical Therapy 1 Sys-3 Flr-2 Sch-C HPlcmt-south ZN NECB System 3 PSZ Node 385 Supply Path, !- Name\n   ** Warning ** IP: IDF line~74545 Alpha Argument length exceeds maximum, will be truncated=  Sp-Floor 3 Physical Therapy 1 Sys-3 Flr-2 Sch-C HPlcmt-south ZN NECB System 3 PSZ Node 385 Supply Pat\n   **   ~~~   ** Will be processed as Alpha=SP-FLOOR 3 PHYSICAL THERAPY 1 SYS-3 FLR-2 SCH-C HPLCMT-SOUTH ZN NECB SYSTEM 3 PSZ NODE 385 SUPPLY PATH\n   ************* IDF Context for following error/warning message:\n   ************* Note -- lines truncated at 300 characters, if necessary...\n   *************  74566 AirLoopHVAC,\n   ************* indicated Name=Sp-Floor 3 Physical Therapy 2 Sys-3 Flr-2 Sch-C HPlcmt-core ZN NECB System 3 PSZ\n   ************* Only last 3 lines before error line shown.....\n   *************  74567   Sp-Floor 3 Physical Therapy 2 Sys-3 Flr-2 Sch-C HPlcmt-core ZN NECB System 3 PSZ, !- Name\n   *************  74568   ,                                       !- Controller List Name\n   *************  74569   Sp-Floor 3 Physical Therapy 2 Sys-3 Flr-2 Sch-C HPlcmt-core ZN NECB System 3 PSZAvailability Manager List, !- Availability Manager List Name\n   ** Warning ** IP: IDF line~74569 Alpha Argument length exceeds maximum, will be truncated=  Sp-Floor 3 Physical Therapy 2 Sys-3 Flr-2 Sch-C HPlcmt-core ZN NECB System 3 PSZAvailability Manager Lis\n   **   ~~~   ** Will be processed as Alpha=SP-FLOOR 3 PHYSICAL THERAPY 2 SYS-3 FLR-2 SCH-C HPLCMT-CORE ZN NECB SYSTEM 3 PSZAVAILABILITY MANAGER LIST\n   ************* IDF Context for following error/warning message:\n   ************* Note -- lines truncated at 300 characters, if necessary...\n   *************  74625 AvailabilityManagerAssignmentList,\n   ************* indicated Name=Sp-Floor 3 Physical Therapy 2 Sys-3 Flr-2 Sch-C HPlcmt-core ZN NECB System 3 PSZAvailability Manager List\n   ************* Only last 1 lines before error line shown.....\n   *************  74626   Sp-Floor 3 Physical Therapy 2 Sys-3 Flr-2 Sch-C HPlcmt-core ZN NECB System 3 PSZAvailability Manager List, !- Name\n   ** Warning ** IP: IDF line~74626 Alpha Argument length exceeds maximum, will be truncated=  Sp-Floor 3 Physical Therapy 2 Sys-3 Flr-2 Sch-C HPlcmt-core ZN NECB System 3 PSZAvailability Manager Lis\n   **   ~~~   ** Will be processed as Alpha=SP-FLOOR 3 PHYSICAL THERAPY 2 SYS-3 FLR-2 SCH-C HPLCMT-CORE ZN NECB SYSTEM 3 PSZAVAILABILITY MANAGER LIST\n   ************* IDF Context for following error/warning message:\n   ************* Note -- lines truncated at 300 characters, if necessary...\n   *************  74625 AvailabilityManagerAssignmentList,\n   ************* indicated Name=Sp-Floor 3 Physical Therapy 2 Sys-3 Flr-2 Sch-C HPlcmt-core ZN NECB System 3 PSZAvailability Manager List\n   ************* Only last 3 lines before error line shown.....\n   *************  74626   Sp-Floor 3 Physical Therapy 2 Sys-3 Flr-2 Sch-C HPlcmt-core ZN NECB System 3 PSZAvailability Manager List, !- Name\n   *************  74627   AvailabilityManager:Scheduled,          !- Availability Manager Object Type 1\n   *************  74628   Sp-Floor 3 Physical Therapy 2 Sys-3 Flr-2 Sch-C HPlcmt-core ZN NECB System 3 PSZ Availability Manager; !- Availability Manager Name 1\n   ** Warning ** IP: IDF line~74628 Alpha Argument length exceeds maximum, will be truncated=  Sp-Floor 3 Physical Therapy 2 Sys-3 Flr-2 Sch-C HPlcmt-core ZN NECB System 3 PSZ Availability Manage\n   **   ~~~   ** Will be processed as Alpha=SP-FLOOR 3 PHYSICAL THERAPY 2 SYS-3 FLR-2 SCH-C HPLCMT-CORE ZN NECB SYSTEM 3 PSZ AVAILABILITY MANAGER\n   ************* IDF Context for following error/warning message:\n   ************* Note -- lines truncated at 300 characters, if necessary...\n   *************  74630 AvailabilityManager:Scheduled,\n   ************* indicated Name=Sp-Floor 3 Physical Therapy 2 Sys-3 Flr-2 Sch-C HPlcmt-core ZN NECB System 3 PSZ Availability Manager\n   ************* Only last 1 lines before error line shown.....\n   *************  74631   Sp-Floor 3 Physical Therapy 2 Sys-3 Flr-2 Sch-C HPlcmt-core ZN NECB System 3 PSZ Availability Manager, !- Name\n   ** Warning ** IP: IDF line~74631 Alpha Argument length exceeds maximum, will be truncated=  Sp-Floor 3 Physical Therapy 2 Sys-3 Flr-2 Sch-C HPlcmt-core ZN NECB System 3 PSZ Availability Manage\n   **   ~~~   ** Will be processed as Alpha=SP-FLOOR 3 PHYSICAL THERAPY 2 SYS-3 FLR-2 SCH-C HPLCMT-CORE ZN NECB SYSTEM 3 PSZ AVAILABILITY MANAGER\n   ************* IDF Context for following error/warning message:\n   ************* Note -- lines truncated at 300 characters, if necessary...\n   *************  74866 AirLoopHVAC:SupplyPath,\n   ************* indicated Name=Sp-Floor 3 Physical Therapy 2 Sys-3 Flr-2 Sch-C HPlcmt-core ZN NECB System 3 PSZ Node 396 Supply Path\n   ************* Only last 1 lines before error line shown.....\n   *************  74867   Sp-Floor 3 Physical Therapy 2 Sys-3 Flr-2 Sch-C HPlcmt-core ZN NECB System 3 PSZ Node 396 Supply Path, !- Name\n   ** Warning ** IP: IDF line~74867 Alpha Argument length exceeds maximum, will be truncated=  Sp-Floor 3 Physical Therapy 2 Sys-3 Flr-2 Sch-C HPlcmt-core ZN NECB System 3 PSZ Node 396 Supply Pat\n   **   ~~~   ** Will be processed as Alpha=SP-FLOOR 3 PHYSICAL THERAPY 2 SYS-3 FLR-2 SCH-C HPLCMT-CORE ZN NECB SYSTEM 3 PSZ NODE 396 SUPPLY PATH\n   ************* IDF Context for following error/warning message:\n   ************* Note -- lines truncated at 300 characters, if necessary...\n   *************  74888 AirLoopHVAC,\n   ************* indicated Name=Sp-Floor 3 Physical Therapy Toilet Sys-4 Flr-2 Sch-H HPlcmt-core ZN NECB System 4 PSZ\n   ************* Only last 3 lines before error line shown.....\n   *************  74889   Sp-Floor 3 Physical Therapy Toilet Sys-4 Flr-2 Sch-H HPlcmt-core ZN NECB System 4 PSZ, !- Name\n   *************  74890   ,                                       !- Controller List Name\n   *************  74891   Sp-Floor 3 Physical Therapy Toilet Sys-4 Flr-2 Sch-H HPlcmt-core ZN NECB System 4 PSZAvailability Manager List, !- Availability Manager List Name\n   ** Warning ** IP: IDF line~74891 Alpha Argument length exceeds maximum, will be truncated=  Sp-Floor 3 Physical Therapy Toilet Sys-4 Flr-2 Sch-H HPlcmt-core ZN NECB System 4 PSZAvailability Manager Lis\n   **   ~~~   ** Will be processed as Alpha=SP-FLOOR 3 PHYSICAL THERAPY TOILET SYS-4 FLR-2 SCH-H HPLCMT-CORE ZN NECB SYSTEM 4 PSZAVAILABILITY MANAGER LIST\n   ************* IDF Context for following error/warning message:\n   ************* Note -- lines truncated at 300 characters, if necessary...\n   *************  74888 AirLoopHVAC,\n   ************* indicated Name=Sp-Floor 3 Physical Therapy Toilet Sys-4 Flr-2 Sch-H HPlcmt-core ZN NECB System 4 PSZ\n   ************* Only last 5 lines before error line shown.....\n   *************  74889   Sp-Floor 3 Physical Therapy Toilet Sys-4 Flr-2 Sch-H HPlcmt-core ZN NECB System 4 PSZ, !- Name\n   *************  74890   ,                                       !- Controller List Name\n   *************  74891   Sp-Floor 3 Physical Therapy Toilet Sys-4 Flr-2 Sch-H HPlcmt-core ZN NECB System 4 PSZAvailability Manager List, !- Availability Manager List Name\n   *************  74892   AutoSize,                               !- Design Supply Air Flow Rate {m3/s}\n   *************  74893   Sp-Floor 3 Physical Therapy Toilet Sys-4 Flr-2 Sch-H HPlcmt-core ZN NECB System 4 PSZ Supply Branches, !- Branch List Name\n   ** Warning ** IP: IDF line~74893 Alpha Argument length exceeds maximum, will be truncated=  Sp-Floor 3 Physical Therapy Toilet Sys-4 Flr-2 Sch-H HPlcmt-core ZN NECB System 4 PSZ Supply Branche\n   **   ~~~   ** Will be processed as Alpha=SP-FLOOR 3 PHYSICAL THERAPY TOILET SYS-4 FLR-2 SCH-H HPLCMT-CORE ZN NECB SYSTEM 4 PSZ SUPPLY BRANCHES\n   ************* IDF Context for following error/warning message:\n   ************* Note -- lines truncated at 300 characters, if necessary...\n   *************  74888 AirLoopHVAC,\n   ************* indicated Name=Sp-Floor 3 Physical Therapy Toilet Sys-4 Flr-2 Sch-H HPlcmt-core ZN NECB System 4 PSZ\n   ************* Only last 9 lines before error line shown.....\n   *************  74889   Sp-Floor 3 Physical Therapy Toilet Sys-4 Flr-2 Sch-H HPlcmt-core ZN NECB System 4 PSZ, !- Name\n   *************  74890   ,                                       !- Controller List Name\n   *************  74891   Sp-Floor 3 Physical Therapy Toilet Sys-4 Flr-2 Sch-H HPlcmt-core ZN NECB System 4 PSZAvailability Manager List, !- Availability Manager List Name\n   *************  74892   AutoSize,                               !- Design Supply Air Flow Rate {m3/s}\n   *************  74893   Sp-Floor 3 Physical Therapy Toilet Sys-4 Flr-2 Sch-H HPlcmt-core ZN NECB System 4 PSZ Supply Branches, !- Branch List Name\n   *************  74894   ,                                       !- Connector List Name\n   *************  74895   Node 944,                               !- Supply Side Inlet Node Name\n   *************  74896   Node 947,                               !- Demand Side Outlet Node Name\n   *************  74897   Sp-Floor 3 Physical Therapy Toilet Sys-4 Flr-2 Sch-H HPlcmt-core ZN NECB System 4 PSZ Demand Inlet Nodes, !- Demand Side Inlet Node Names\n   ** Warning ** IP: IDF line~74897 Alpha Argument length exceeds maximum, will be truncated=  Sp-Floor 3 Physical Therapy Toilet Sys-4 Flr-2 Sch-H HPlcmt-core ZN NECB System 4 PSZ Demand Inlet Node\n   **   ~~~   ** Will be processed as Alpha=SP-FLOOR 3 PHYSICAL THERAPY TOILET SYS-4 FLR-2 SCH-H HPLCMT-CORE ZN NECB SYSTEM 4 PSZ DEMAND INLET NODES\n   ************* IDF Context for following error/warning message:\n   ************* Note -- lines truncated at 300 characters, if necessary...\n   *************  74888 AirLoopHVAC,\n   ************* indicated Name=Sp-Floor 3 Physical Therapy Toilet Sys-4 Flr-2 Sch-H HPlcmt-core ZN NECB System 4 PSZ\n   ************* Only last 10 lines before error line shown.....\n   *************  74889   Sp-Floor 3 Physical Therapy Toilet Sys-4 Flr-2 Sch-H HPlcmt-core ZN NECB System 4 PSZ, !- Name\n   *************  74890   ,                                       !- Controller List Name\n   *************  74891   Sp-Floor 3 Physical Therapy Toilet Sys-4 Flr-2 Sch-H HPlcmt-core ZN NECB System 4 PSZAvailability Manager List, !- Availability Manager List Name\n   *************  74892   AutoSize,                               !- Design Supply Air Flow Rate {m3/s}\n   *************  74893   Sp-Floor 3 Physical Therapy Toilet Sys-4 Flr-2 Sch-H HPlcmt-core ZN NECB System 4 PSZ Supply Branches, !- Branch List Name\n   *************  74894   ,                                       !- Connector List Name\n   *************  74895   Node 944,                               !- Supply Side Inlet Node Name\n   *************  74896   Node 947,                               !- Demand Side Outlet Node Name\n   *************  74897   Sp-Floor 3 Physical Therapy Toilet Sys-4 Flr-2 Sch-H HPlcmt-core ZN NECB System 4 PSZ Demand Inlet Nodes, !- Demand Side Inlet Node Names\n   *************  74898   Sp-Floor 3 Physical Therapy Toilet Sys-4 Flr-2 Sch-H HPlcmt-core ZN NECB System 4 PSZ Supply Outlet Nodes; !- Supply Side Outlet Node Names\n   ** Warning ** IP: IDF line~74898 Alpha Argument length exceeds maximum, will be truncated=  Sp-Floor 3 Physical Therapy Toilet Sys-4 Flr-2 Sch-H HPlcmt-core ZN NECB System 4 PSZ Supply Outlet Node\n   **   ~~~   ** Will be processed as Alpha=SP-FLOOR 3 PHYSICAL THERAPY TOILET SYS-4 FLR-2 SCH-H HPLCMT-CORE ZN NECB SYSTEM 4 PSZ SUPPLY OUTLET NODES\n   ************* IDF Context for following error/warning message:\n   ************* Note -- lines truncated at 300 characters, if necessary...\n   *************  74900 NodeList,\n   ************* indicated Name=Sp-Floor 3 Physical Therapy Toilet Sys-4 Flr-2 Sch-H HPlcmt-core ZN NECB System 4 PSZ Supply Outlet Nodes\n   ************* Only last 1 lines before error line shown.....\n   *************  74901   Sp-Floor 3 Physical Therapy Toilet Sys-4 Flr-2 Sch-H HPlcmt-core ZN NECB System 4 PSZ Supply Outlet Nodes, !- Name\n   ** Warning ** IP: IDF line~74901 Alpha Argument length exceeds maximum, will be truncated=  Sp-Floor 3 Physical Therapy Toilet Sys-4 Flr-2 Sch-H HPlcmt-core ZN NECB System 4 PSZ Supply Outlet Node\n   **   ~~~   ** Will be processed as Alpha=SP-FLOOR 3 PHYSICAL THERAPY TOILET SYS-4 FLR-2 SCH-H HPLCMT-CORE ZN NECB SYSTEM 4 PSZ SUPPLY OUTLET NODES\n   ************* IDF Context for following error/warning message:\n   ************* Note -- lines truncated at 300 characters, if necessary...\n   *************  74904 NodeList,\n   ************* indicated Name=Sp-Floor 3 Physical Therapy Toilet Sys-4 Flr-2 Sch-H HPlcmt-core ZN NECB System 4 PSZ Demand Inlet Nodes\n   ************* Only last 1 lines before error line shown.....\n   *************  74905   Sp-Floor 3 Physical Therapy Toilet Sys-4 Flr-2 Sch-H HPlcmt-core ZN NECB System 4 PSZ Demand Inlet Nodes, !- Name\n   ** Warning ** IP: IDF line~74905 Alpha Argument length exceeds maximum, will be truncated=  Sp-Floor 3 Physical Therapy Toilet Sys-4 Flr-2 Sch-H HPlcmt-core ZN NECB System 4 PSZ Demand Inlet Node\n   **   ~~~   ** Will be processed as Alpha=SP-FLOOR 3 PHYSICAL THERAPY TOILET SYS-4 FLR-2 SCH-H HPLCMT-CORE ZN NECB SYSTEM 4 PSZ DEMAND INLET NODES\n   ************* IDF Context for following error/warning message:\n   ************* Note -- lines truncated at 300 characters, if necessary...\n   *************  74947 AvailabilityManagerAssignmentList,\n   ************* indicated Name=Sp-Floor 3 Physical Therapy Toilet Sys-4 Flr-2 Sch-H HPlcmt-core ZN NECB System 4 PSZAvailability Manager List\n   ************* Only last 1 lines before error line shown.....\n   *************  74948   Sp-Floor 3 Physical Therapy Toilet Sys-4 Flr-2 Sch-H HPlcmt-core ZN NECB System 4 PSZAvailability Manager List, !- Name\n   ** Warning ** IP: IDF line~74948 Alpha Argument length exceeds maximum, will be truncated=  Sp-Floor 3 Physical Therapy Toilet Sys-4 Flr-2 Sch-H HPlcmt-core ZN NECB System 4 PSZAvailability Manager Lis\n   **   ~~~   ** Will be processed as Alpha=SP-FLOOR 3 PHYSICAL THERAPY TOILET SYS-4 FLR-2 SCH-H HPLCMT-CORE ZN NECB SYSTEM 4 PSZAVAILABILITY MANAGER LIST\n   ************* IDF Context for following error/warning message:\n   ************* Note -- lines truncated at 300 characters, if necessary...\n   *************  74947 AvailabilityManagerAssignmentList,\n   ************* indicated Name=Sp-Floor 3 Physical Therapy Toilet Sys-4 Flr-2 Sch-H HPlcmt-core ZN NECB System 4 PSZAvailability Manager List\n   ************* Only last 3 lines before error line shown.....\n   *************  74948   Sp-Floor 3 Physical Therapy Toilet Sys-4 Flr-2 Sch-H HPlcmt-core ZN NECB System 4 PSZAvailability Manager List, !- Name\n   *************  74949   AvailabilityManager:Scheduled,          !- Availability Manager Object Type 1\n   *************  74950   Sp-Floor 3 Physical Therapy Toilet Sys-4 Flr-2 Sch-H HPlcmt-core ZN NECB System 4 PSZ Availability Manager; !- Availability Manager Name 1\n   ** Warning ** IP: IDF line~74950 Alpha Argument length exceeds maximum, will be truncated=  Sp-Floor 3 Physical Therapy Toilet Sys-4 Flr-2 Sch-H HPlcmt-core ZN NECB System 4 PSZ Availability Manage\n   **   ~~~   ** Will be processed as Alpha=SP-FLOOR 3 PHYSICAL THERAPY TOILET SYS-4 FLR-2 SCH-H HPLCMT-CORE ZN NECB SYSTEM 4 PSZ AVAILABILITY MANAGER\n   ************* IDF Context for following error/warning message:\n   ************* Note -- lines truncated at 300 characters, if necessary...\n   *************  74952 AvailabilityManager:Scheduled,\n   ************* indicated Name=Sp-Floor 3 Physical Therapy Toilet Sys-4 Flr-2 Sch-H HPlcmt-core ZN NECB System 4 PSZ Availability Manager\n   ************* Only last 1 lines before error line shown.....\n   *************  74953   Sp-Floor 3 Physical Therapy Toilet Sys-4 Flr-2 Sch-H HPlcmt-core ZN NECB System 4 PSZ Availability Manager, !- Name\n   ** Warning ** IP: IDF line~74953 Alpha Argument length exceeds maximum, will be truncated=  Sp-Floor 3 Physical Therapy Toilet Sys-4 Flr-2 Sch-H HPlcmt-core ZN NECB System 4 PSZ Availability Manage\n   **   ~~~   ** Will be processed as Alpha=SP-FLOOR 3 PHYSICAL THERAPY TOILET SYS-4 FLR-2 SCH-H HPLCMT-CORE ZN NECB SYSTEM 4 PSZ AVAILABILITY MANAGER\n   ************* IDF Context for following error/warning message:\n   ************* Note -- lines truncated at 300 characters, if necessary...\n   *************  74956 BranchList,\n   ************* indicated Name=Sp-Floor 3 Physical Therapy Toilet Sys-4 Flr-2 Sch-H HPlcmt-core ZN NECB System 4 PSZ Supply Branches\n   ************* Only last 1 lines before error line shown.....\n   *************  74957   Sp-Floor 3 Physical Therapy Toilet Sys-4 Flr-2 Sch-H HPlcmt-core ZN NECB System 4 PSZ Supply Branches, !- Name\n   ** Warning ** IP: IDF line~74957 Alpha Argument length exceeds maximum, will be truncated=  Sp-Floor 3 Physical Therapy Toilet Sys-4 Flr-2 Sch-H HPlcmt-core ZN NECB System 4 PSZ Supply Branche\n   **   ~~~   ** Will be processed as Alpha=SP-FLOOR 3 PHYSICAL THERAPY TOILET SYS-4 FLR-2 SCH-H HPLCMT-CORE ZN NECB SYSTEM 4 PSZ SUPPLY BRANCHES\n   ************* IDF Context for following error/warning message:\n   ************* Note -- lines truncated at 300 characters, if necessary...\n   *************  75188 AirLoopHVAC:SupplyPath,\n   ************* indicated Name=Sp-Floor 3 Physical Therapy Toilet Sys-4 Flr-2 Sch-H HPlcmt-core ZN NECB System 4 PSZ Node 946 Supply Path\n   ************* Only last 1 lines before error line shown.....\n   *************  75189   Sp-Floor 3 Physical Therapy Toilet Sys-4 Flr-2 Sch-H HPlcmt-core ZN NECB System 4 PSZ Node 946 Supply Path, !- Name\n   ** Warning ** IP: IDF line~75189 Alpha Argument length exceeds maximum, will be truncated=  Sp-Floor 3 Physical Therapy Toilet Sys-4 Flr-2 Sch-H HPlcmt-core ZN NECB System 4 PSZ Node 946 Supply Pat\n   **   ~~~   ** Will be processed as Alpha=SP-FLOOR 3 PHYSICAL THERAPY TOILET SYS-4 FLR-2 SCH-H HPLCMT-CORE ZN NECB SYSTEM 4 PSZ NODE 946 SUPPLY PATH\n   ************* IDF Context for following error/warning message:\n   ************* Note -- lines truncated at 300 characters, if necessary...\n   *************  76176 AirLoopHVAC,\n   ************* indicated Name=Sp-Floor 3 Undeveloped 1 Sys-4 Flr-2 Sch-E HPlcmt-south ZN NECB System 4 PSZ\n   ************* Only last 3 lines before error line shown.....\n   *************  76177   Sp-Floor 3 Undeveloped 1 Sys-4 Flr-2 Sch-E HPlcmt-south ZN NECB System 4 PSZ, !- Name\n   *************  76178   ,                                       !- Controller List Name\n   *************  76179   Sp-Floor 3 Undeveloped 1 Sys-4 Flr-2 Sch-E HPlcmt-south ZN NECB System 4 PSZAvailability Manager List, !- Availability Manager List Name\n   ** Warning ** IP: IDF line~76179 Alpha Argument length exceeds maximum, will be truncated=  Sp-Floor 3 Undeveloped 1 Sys-4 Flr-2 Sch-E HPlcmt-south ZN NECB System 4 PSZAvailability Manager Lis\n   **   ~~~   ** Will be processed as Alpha=SP-FLOOR 3 UNDEVELOPED 1 SYS-4 FLR-2 SCH-E HPLCMT-SOUTH ZN NECB SYSTEM 4 PSZAVAILABILITY MANAGER LIST\n   ************* IDF Context for following error/warning message:\n   ************* Note -- lines truncated at 300 characters, if necessary...\n   *************  76235 AvailabilityManagerAssignmentList,\n   ************* indicated Name=Sp-Floor 3 Undeveloped 1 Sys-4 Flr-2 Sch-E HPlcmt-south ZN NECB System 4 PSZAvailability Manager List\n   ************* Only last 1 lines before error line shown.....\n   *************  76236   Sp-Floor 3 Undeveloped 1 Sys-4 Flr-2 Sch-E HPlcmt-south ZN NECB System 4 PSZAvailability Manager List, !- Name\n   ** Warning ** IP: IDF line~76236 Alpha Argument length exceeds maximum, will be truncated=  Sp-Floor 3 Undeveloped 1 Sys-4 Flr-2 Sch-E HPlcmt-south ZN NECB System 4 PSZAvailability Manager Lis\n   **   ~~~   ** Will be processed as A
[...]
DoBd5Cyfs0Sm68ePoh9IadPUfGH69bwWwWTobNRha7cbDngPVoBUkSNRu3jUOv13Y86C49yM9/UJzcjcMl3lEwubyZRunxjXF45UC70riaTpKjT+Ho+ibJNC6m42F+jeW9eTU7ej6eTiOv4/16cxePLoOx99tNGAWz7PcjXt3FRx3v+Tg68r1XlzdHZ96Pv44vPyRH8XSe3pT//Yf3j/Oz77O3JeGHTOLV/3ovLi+z9z46sN3m7x7Hl9FolvyP+J7vHg9HH788LR4ji6Va3mh42rjMauAsvWzBaBJGb/1+u+EtLuZpYziKZ+Pg7sloMk7nji7G08v33zZkwFR1eQ5ecjdLj8+u5+N3wcdg+ar1yGx8DKIsX71Tbzj6MBuHrUn46dXH62bjr1+APPSO2+3Ff/YWYKY7DJIgFX79R2McXITjxpPGMLwK5uPEm0XTq9E4bBwuZ97eNp6YVvuw8TEYz8PVvy+zdSo9Jl16zs7OzxufD3Pp+CCdDkjnGKTTBen0QDp9kM4ApHMC0jFtlBAqow0qpQ0qpw0qqQ0qqw0qrQ0qrw0qsQ0qs31UZvuwtRqV2T4qs32nzPbi+YcPOz9cnaujReHQQUa8Rm4y4hVykxGvj5uMWPduMmLVu8mINe8mI1a8m4xY724yciNz1AHlsdzGHHVAmSw3MUcdUC7LLcxRB5TNcgNz1AHls9y+HHVQ6zIon+Xe5aiTP58/jSaJe9u6yF7KryNeHkcd8fI46oiXx1FHLHdHHbHcHXXEcnfUEcvdUUcsd0cduX+5CqEyWu5grkKonJZ7mKsQKqvlLuYqhMpruY+5CqEyW+5krkKwtRqV2XIzcxXKn9mbTzL2/tKw1ObaO/+jt/wpYkAIv/wQnfJDHJcfolt+iF75IfrlhxiUH+Kk/BA7nb2sGBXUt6mgwE0FFW4qKHFTQY2bCorcVFDlpoIyNxXUuV9BnftV9PEK6tyvoM79YnW+9wcd822rlr/4CAgh3w1YCPlmwELI9wIWQl5yYSHkFRcWQl5wYSHk9RYWQl5uYSEsn1zjYsgf/eFiyJ8K4mLIHxjiYlRQ4pZtFS5GBUVu2VbhYlRQ5pZtFa7/ydsqXIwq+ngFjdyyrcLFKFbne383K9+2avnDWoAQ8t2AhZBvBiyEfC9gIeQlFxZCXnFhIeQFFxZCXm9hIeTvRsFCWLZVuBjytgoXQ95W4WLI2ypcDPkrWrgY8vcScTHkryziYsjfZsTFkL/oiItRQZ1btlW4GFX08QoauWVbhYtRrJXv/XmSfNuq5e+XAELIdwMWQr4ZsBDyvYCFkLdVsBDytgoWQt5WwULI2ypYCHm5hYWwbKtwMeRtFS6GvK3CxZC3VbgY8rYKF0PeVuFiyNsqXAx5W4WLIW+rcDEqqHPLtgoXo4o+XkEjt2yrcDGKtfK9LvD5tlVLm3hACPluwELINwMWQr4XsBDytgoWQt5WwULI2ypYCHlbBQshL7ewEJZtFS6GvK3CxZC3VbgY8rYKF0PeVuFiyNsqXAx5W4WLIW+rcDHkbRUuRgV1btlW4WJU0ccraOSWbRUuRrFWvtdsN9+2aunGCwgh3w1YCPlmwELI9wIWQt5WwULI2ypYCHlbBQshb6tgIeTlFhbCsq3CxZC3VbgY8rYKF0PeVuFiyNsqXAx5W4WLIW+rcDHkbRUuhrytwsWooM4t2ypcjCr6eAWN3LKtwsUo1sr3ehrm21YtTQ8BIeS7AQsh3wxYCPlewELI2ypYCHlbBQshb6tgIeRtFSyEzXcKFMJqtoaKYXOrQsWwGVmhYtg8rlAxbPZXqBg2zzdUDJsdHCqGzSkOFcNmIoeKUUGdW7ZVuBhV9PEKGrllW4WLsb+Vv8nj8Lqyc/ZOvUn4ae0guzCObcYfrw8XDrB7rWLXntBxmHw/nU+GcbPbPvSM6R56nexffjef3extirGxuh4Oz4IkvJ5Gd09vR/HSU3lz/jmMp1OBF9EwjF7OM4vj3AdmHHe7HL+EQTyPwiVG5tK8uu4lm35zmtOc5jSnOc1pTnOa05zmNKc5zWlOc5rTnOY0pznNaU5zmtOc5jSnOc1pTnOa05zmNKc5zWlOc5rTnOY0pznNaU5zmtOc5jSnOc1pTnP6v2r6rjX9GEbRaBj+EmQP1ppWW/m8avZobLz7aOyrMBqF8erx2sbh+gHi2XiatMajSbj3Edn4S8/p7n+yNm4tfnp+Nh0HyWg6SaEacRLOji7Cq2kUNvI9+fxzeB1OhrsntHyt2Wsfep3syeV29iBz9p/GOLxKMrA90mvZ1tvrMDmfJNn1SUNczSeXC9LmgffHHok1Ybg5+vXeZ7mzMbrymsnNKG7Fi7uSL1A2tg5qpdfvPLi8af4H2FVtjZ89Op6yr3TfzqbxKBN8lr6c52zWI5P5AlU0/eSGtMYaTYZhVg9H5tDx6PV4V/TAq1E4zvKtubqmyzq5jqbzWTj0vvnG+8vq9dvW25sgXj3/nhXYwfbs3Rdn0wvSCq6vn2cxWuNwcp3ceN95vvd3r/F0PG54T3bfEY9Hl2HzyBy8br852Ftv985kGnnNd+mptL/13qVhVqm6ipu99rd0xXG/QdnI0nil9/rdm9b78M47PT1dXrxiigvV1W1/53qq63ERhcH7Igd/djzG9f3Z9Vqd3WmW1lkyrDJlYeTQehvE8eh6Eg7PMouI+PXiSr4pdinXN3o2j2+aRe9FekufLO9n8Uoaj5/kOctW9s6iUeIkmr4P88VZvrdopOksuBwld/lCrd5c+KwWIdahiqqsF5LdZaVIeTgvPtlYl/PuwuMdecZVzaXc8rN+Plx01Vzv/7xvT5GNx4+9X3//zfv3i99feq9evPztp3/84P384oefzrwfz1+e5xN4nq7a4W2QbdG8ZOrF0yjxJvMPaR5cegtLk9gL4st08zKaXOdQXF/7TGerMweH3kX+xSUKk3k08WZBFIfPx9MgaQbZkn+Q3sqt1y4Wr+W6mPu3aFthV6ewT/hzuU4vm/3notwXxd58NAyvgvk48WbRNF3DwkeH3qO/DgZnZ+fnj0o2niEOcYhDHOIQhzjEIQ5xiEOc/04cL55/SP8X2BuG2YveMLjLiKJwSBrSkIY0pCENaUhDGtKQhjSksdN8Wnw16080F+N5SBziEIc4xCEOcYhDHOIQhzjEKYKz+d1Ak/1u4Ku59LuBHbP4hO3p0+PjkxOSkpSkJCUpSUlKUpKSlKQkJSlJSVoPUn9BGiQSaXtB2un4/qBHUpKSlKQkJSlJSUpSkpKUpCQlKUnrQdrJSJ9HI4HUP1mQGtPvdzokJSlJSUpSkpKUpCQlKUlJSlKSkrQepMcZ6W83c4l0sCA9SUf3e5KSlKQkJSlJSUpSkpKUpCQlKUlJWg/Sbkb6r3AokfYXpM+enZ31+yQlKUlJSlKSkpSkJCUpSUlKUpKStB6kvcVfJuahRNpbkJ6d9XokJSlJSUpSkpKUpCQlKUlJSlKSkrQupP2M9Jep5Czodxekg4Hvd7skJSlJSUpSkpKUpCQlKUlJSlKSkrQy0jXKMAo+NfeK3baSUTIOX90Es7CVhLdJ89GP03kU78e4u3/ks9GHcBKPppNxGC8U9kg8fuw9HQ69wFsoeZ9GyY0XTz+E3rCz58j443UrmM3CybDZyGI3DvYcsB6tIEmiZuO2cej12o4H3aUH+fkPipO7cbjEOwomlzfTKD2+MQ6vHGhXGlfTSXL0KRxd3ySZxsV0PMyvsbw3r2ZHz8fTaeR1vN8nw/BjOJ7OwqFnvFd38dGx93wcHfneq8ubo3Pvx1/Hlx+So3g6T+/H//7D+8f52ffZ25Lwg3fs/frqf70Xl5fZex8d2O7wd4/jy2g0S/5HfM93j4ejj1+eFo+RxVItbzQ8bVxm6X+WXrFgNAmjt37fNLzFdTxtDEfxbBzcPRlNxunc0cV4evn+24YMmKouz8FL7mbp8dmlfPwu+BgsX7UemY2PQZSlqnfqDUcfZuOwNQk/vfp43Wz89QuQh95xu734z97ay3SHQRKkwq//aIyDi3DceNIYhlfBfJx4s2h6NRqHjcPlzNvbxhPTah82Pgbjedh40u22Oidbo9M9bFxmK1YqkS5CZ2fn543Ph7lk/XJkO+XIHpcj2y1HtleObL8c2UE5siflyJp2Sbol1ZkpqdBMSZVmSio1U1KtmZKKzZRUbaakcjMl1ZtfUr35ZfW1kurNL6nefE29efH8w4ed3wYvsnOIwqGDat7r66aa9+q6qea9tm6qeVcyN9W865ibat5VzE017xrmppp3BXNTzb1hcJQtp7pybxccZcupr9ybBUfZcios91bBUbacGsu9UXCULafKcm8THGVL6mHlVFnuPYKjbOEq+zSaJOrtwUX2jvyyeS+to2zeS+som/fSOsrmXcAcZfMuYI6yeRcwR9m8C5ijbN4FzFE29z7BVbekOsu9U3DVLanScu8VXHVLqrXcuwVX3ZKqLfd+wVW3pHrLvWNw1S2rr5VUb7k3Da66bvX2Js8HF6sPKL1TbxJ+Wn8wsvg8pBl/vD5cfLCx9xOQ9aeccZh8P51PhnGz2z70jOkeep3sX34336cotynG5sPb4fAsSMLraXT39HYULz8l3FyLHB+lpgIvomEYvZxnH9rlPjDjuNvl+CUM4nkULjGyzx1X90D74fDiA6ndUK/CaBTGK9w00uqGzMbTpJV9SrY3ZPyl895PGrcWiTebjoNkNJ2kUI04CWdHF+HVNAob+TLp5/A6nAx3T2j5WrOXZkEny4TsQzWT/Wf12evej6XXsq2312FyPkmy65OGuJpPLhekzQPvjxwfvmaE4ebo13trIxujK6+Z3IziNK+z4/IFysbWQa30+p0HlzfN/wC7qq3xV58xrnTfzqbxKBN8lr6c52zWI5P5AlU0/eSGtMYaTYZhVrhH5tDx6PV4V/TAq1E4zvKtubqmyzq5jqbz7NP0b77x/rJ6/bb19iaIV+tJVmAH27N3X5xNL0gruL5+nsVojcPJdXLjfef53t+9xtPxuOE92X1HPB5dhs0jc/C6/eZgb73dO5Np5DXfpafS/tZ7l4ZZpeoqbvba3049436DspGl8Urv9bs3rfdhurydni4vXjHFherqtr9zPdX1uIjC4H2Rgz87HuP6/ux6rc7uNEvrLBlWmbJojK23yy8WhcPFV4vi14sr+abYpVzf6Nk8vmkWvRfpLX2yvJ/FK2k8fpLnLFvZO4tGiZNo+j7MF2f53qKRprPgcpTc5Qu1enPhs1qEWIcqqrJeSHaXlSLl4bz4ZGNdzrsLj3fkGVc1l3LLz/r5cNFVc73/8749RTYeP/Z+/f03798vfn/pvXrx8ref/vGD9/OLH3468348f3meT+B5umqHt0G2RfOSqRdP0430ZP4hzYNLb7FFjL0gvkw3L6PJdQ7F9bXPdLY6c3DoXeRfXKIwmUcTbxZEcfh8PA2SZpAt+Qfprdx67WLxWq6LuX+LthV2dQr7hD//H3wB9E+f2K6+5Zl9APt/8n1U4hCHOMQhDnGIQxziEIc4xKk9zv1vvmREUTgkDWlIQxrSkIY0pCENaUhDGtLYae59JzCjyb7iRxziEIc4xCEOcYhDHOIQhzjE+T+0Xfwt/DALoyCZR6HXfH5A48WHZbw4n83Gd97TUeRlN6omnol+HTwTfXomOlsb0DPRXZaeifRMdLc2oGdiMV16JtIzkZ6J9EykZyI9E78kS89EeibSM9F5m0DPRHdZeibSM5Geia7bBHomFtOlZyI9E+mZSM/EL3xwQc/EL3DQM5GeiR49E/Nh0TORnolFBj0Ts0HPRHomLgY9E+3vpGfifoFs0DOxHtYixCEOcYhDHOIQhzjEIQ5xiFN7nAfmOEIa0pCGNKQhDWlIQxrSkIY09aH5apxOiEMc4hCHOMQhDnGIQxziEKd4PHomfnnQM3HpmeiZmrgmdurgmtiha6KzuQFdE91l6ZpI10R3cwO6JhbTpWsiXRPpmkjXRLom0jXxS7J0TaRrIl0TnbcJdE10l6VrIl0T6Zrouk2ga2IxXbom0jWRrol0TfzCBxd0TfwCB10T6Zro0TUxHxZdE+maWGTQNTEbdE2ka+Ji0DXR/k66Ju4XyAZdE+thLkIc4hCHOMQhDnGIQxziEIc4tcd5YJ4jpCENaUhDGtKQhjSkIQ1pSFMfmq/G64Q4xCEOcYhDHOIQhzjEIQ5xiseja+KXB10TV66Jfk1cE4/r4Jp4XJlr4uLfRe2ZQDodkM4xSKcL0umBdPognQFI5wSks+MqoBJCZbRBpbRB5bRBJbVBZbVBpbVB5bVBJbZBZbaPymwftlajMttHZbbvlNn53fx2pIrb9ylkxCtU3KBPISPWfXELPoWMWPPFTfYUMmK9K2z0NDqgPJbbmMIZT6MDSmW5hynM7jQ6oGyWG5jCv06zDoLyWe5eCks6jQ4on+XWVdxlbkdGYSun0REvj8I4TqMjlrvCGk6jI5a7wvxNoyOWu8beTSWEymi5g2kc21RCqKSWm5jGhE0lhMpruY9pfNVUKyMqs+VWprFKUwmhMlvuZveEfo1G02iU3HnGO/Kar+aTg8yHqnf0/4LJUdscLf79LLw86hipzbV3/kfv6dPj45MTQAi//BCd8kMclx+iW36IXvkh+uWHGJQf4qT8EDudvawYFdS3qaDATQUVbioocVNBjZsKitxUUOWmgjI3FdS5X0Gd+1X08Qrq3K+gzv1ide4vYgSJFKOdb1vV6fj+oAcIId8NWAj5ZsBCyPcCFkJecmEh5BUXFkJecGEh5PUWFkJebmEhLNsqXIwK6tuyrcLFqKDCLdsqXIwKatyyrcLFqKDKLdsqXIwK6tyyrcLFqKKPV1Dnlm0VLkaxOu9kMZ5HIyGGf5JvW2VMv9/pAELIdwMWQr4ZsBDyvYCFkJdcWAh5xYWFkBdcWAj5G1CwEPJ3o2AhLF8IxMWQv1GFiyF/2QoXQ/4eFi6G/BUtXAz5e4m4GPJXFnEx5G8z4mJUUOaW70Di+l8FdW755iQuRgV1bvm+JS5GsVZ+nMX47WYuxRjk21Zlv7nU/R4QQt5WwULI2ypYCPlewELI2ypYCHlbBQshb6tgIeT1FhZCXm5hISzbKlwMebnFxZCXW1wMebnFxZC3VbgY8rYKF0PeVuFiyNsqXIwKytyyrcL1vwrq3LKtwsWooM4t2ypcjGKtvJvF+Fc4lGL0822rnj07O+v3ASHkbRUshLytgoWQ7wUshLytgoWQt1WwEPK2ChZCXm9hIeTlFhbCsq3CxZCXW1wMebnFxZCXW1wMeVuFiyFvq3Ax5G0VLoa8rcLFqKDMLdsqXP+roM4t2ypcjArq3LKtwsUo1sp7i63bPJRi9PJtq87Oej1ICHlbBQshb6tgIeR7AQshb6tgIeRtFSyEvK2ChZDXW1gIebmFhbBsq3Ax5OUWF0NebnEx5OUWF0PeVuFiyNsqXAx5W4WLIW+rcDEqKHPLtgrX/yqoc8u2Chejgjq3bKtwMYq18n4W45ep9LV4v5tvWzUY+H63Cwghb6tgIeRtFSyEfC9gIeRtFSyEvK2ChZC3VbAQNncpUAib7xQohNVsDRVDXm5xMWxGVqgYNo8rVAyb/RUqhs3zDRXDZgeHimFzikPFqKDMrf5yqP5XQZ1bXelQMSqoc6uXHSrG/lb+Jo/D68qI2Tv1JuGntYPswji2GX+8Plw4wO61il27Ocdh8v10PhnGzW770DOme+h1sn/53Xx2s7cpxsaJejg8C5LwehrdPb0dxUsv5M3557CMTgVeRMMwejnPrIlzH5hx3O1y/BIG8TwKlxiZu/Lqupfsyc1pTnOa05zmNKc5zWlOc5rTnOY0pznNaU5zmtOc5jSnOc1pTnOa05zmNKc5zWlOc5rTnOY0pznNaU5zmtOc5jSnOc1pTnOa05zmNKc5zen/qum71vRjGEWjYfhLkD1Ya1pt5fOq2aOx8e6jsa/CaBTGq8drG4frB4hn42nSGo8m4d5HZOMvPae7/8nauLX46fnZdBwko+kkhWrESTg7ugivplHYyPfk88/hdTgZ7p7Q8rVmr33odbInl9vZg8zZfxrj8CrJwPZIr2Vbb6/D5HySZNcnDXE1n1wuSJsH3h97JNaE4ebo13uf5c7G6MprJjejuBUv7kq+QNnYOqiVXr/z4PKm+R9gV7U1fvboeMq+0n07m8ajTPBZ+nKes1mPTOYLVNH0kxvSGms0GYZZPRyZQ8ej1+Nd0QOvRuE4y7fm6pou6+Q6ms5n4dD75hvvL6vXb1tvb4J49fx7VmAH27N3X5xNL0gruL5+nsVojcPJdXLjfef53t+9xtPxuOE92X1HPB5dhs0jc/C6/eZgb73dO5Np5DXfpafS/tZ7l4ZZpeoqbvba39IVx/0GZSNL45Xe63dvWu/DO+/09HR58YopLlRXt/2d66mux0UUBu+LHPzZ8RjX92fXa3V2p1laZ8mwypSFkUPrbRDHo+tJODzLLCLi14sr+abYpVzf6Nk8vmkWvRfpLX2yvJ/FK2k8fpLnLFvZO4tGiZNo+j7MF2f53qKRprPgcpTc5Qu1enPhs1qEWIcqqrJeSHaXlSLl4bz4ZGNdzrsLj3fkGVc1l3LLz/r5cNFVc73/8749RTYeP/Z+/f03798vfn/pvXrx8ref/vGD9/OLH3468348f3meT+B5umqHt0G2RfOSqRdPo8SbzD+keXDpLSxNYi+IL9PNy2hynUNxfe0zna3OHBx6F/kXlyhM5tHEmwVRHD4fT4OkGWRL/kF6K7deu1i8luti7t+ibYVdncI+4c/lOr1s9p+Lcl8Ue/PRMLwK5uPEm0XTdA0LHx16j/46GJydnZ8/Ktl4hjjEIQ5xiEMc4hCHOMQhDnH+O3G8eP4h/V9gbxhmL3rD4C4jisIhaUhDGtKQhjSkIQ1pSEMa0pDGTvNp8dWsP9FcjOchcYhDHOIQhzjEIQ5xiEMc4hCnCM7mdwNN9ruBr+bS7wZ2zOITtqdPj49PTkhKUpKSlKQkJSlJSUpSkpKUpCQlaT1I/QVpkEik7QVpp+P7gx5JSUpSkpKUpCQlKUlJSlKSkpSkJK0HaScjfR6NBFL/ZEFqTL/f6ZCUpCQlKUlJSlKSkpSkJCUpSUlK0nqQHmekv93MJdLBgvQkHd3vSUpSkpKUpCQlKUlJSlKSkpSkJCVpPUi7Gem/wqFE2l+QPnt2dtbvk5SkJCUpSUlKUpKSlKQkJSlJSUrSepD2Fn+ZmIcSaW9BenbW65GUpCQlKUlJSlKSkpSkJCUpSUlK0rqQ9jPSX6aSs6DfXZAOBr7f7ZKUpCQlKUlJSlKSkpSkJCUpSUlK0spI1yjDKPjU3Ct220pGyTh8dRPMwlYS3ibNRz9O51G8H+Pu/pHPRh/CSTyaTsZhvFDYI/H4sfd0OPQCb6HkfRolN148/RB6w86eI+OP161gNgsnw2Yji9042HPAerSCJImajdvGoddrOx50lx7k5z8oTu7G4RLvKJhc3kyj9PjGOLxyoF1pXE0nydGncHR9k2QaF9PxML/G8t788+k/lxf4ZXgTBolnvBeXl96ry5tHB7bb9N3j+DIazZL/Ed/z3ePh6OOXp8VjZLFUyxsNTxuXWQ6fpacdjCZh9Nbvdxve4mKcNoajeDYO7p6MJuN07uhiPL18/21DBkxVl+fgJXez9Pjsejx+F3wMlq9aj8zGxyDK8s079YajD7Nx2JqEn159vG42/voFyEPvuN1e/GdvAWW6wyAJUuHXfzTGwUU4bjxpDMOrYD5OvFk0vRqNw8bhcubtbeOJabUPGx+D8Txc/fsyW2fSY9Kl4+zs/Lzx+TCXjg/S6YB0jkE6XZBOD6TTB+kMQDonIB3TRgmhMtqgUtqgctqgktqgstqg0tqg8tqgEtugMttHZbYPW6tRme2jMtt3ymwvnn/4sPPD07k6WhQOHWTEa+QmI14hNxnx+rjJiHXvJiNWvZuMWPNuMmLFu8mI9e4mIzcyRx1QHsttzFEHlMlyE3PUAeWy3MIcdUDZLDcwRx1QPsvty1EHtS6D8lnuXY46+fP502iSuLeti+yl/Dri5XHUES+Po454eRx1xHJ31BHL3VFHLHdHHbHcHXXEcnfUkfuXqxAqo+UO5iqEymm5h7kKobJa7mKuQqi8lvuYqxAqs+VO5ioEW6tRmS03M1eh/Jm9+SRi7y8FS22uvfM/esufEgaE8MsP0Sk/xHH5Ibrlh+iVH6JffohB+SFOyg+x09nLilFBfZsKCtxUUOGmghI3FdS4qaDITQVVbiooc1NBnfsV1LlfRR+voM79CurcL1bne3+QMd+2avmLjYAQ8t2AhZBvBiyEfC9gIeQlFxZCXnFhIeQFFxZCXm9hIeTlFhbCsq3Cxaigvi3bKlyMCircsq3Cxaigxi3bKlyMCqrcsq3Cxaigzi3bKlyMKvp4BXVu2VbhYhSr872/e5VvW7X8YSxACPluwELINwMWQr4XsBDykgsLIa+4sBDyggsLIX8DChZC/m4ULITlC4G4GPI3qnAx5C9b4WLI38PCxZC/ooWLIX8vERdD/soiLob8bUZcjArK3PIdSFz/q6DOLd+cxMWooM4t37fExSjWyvf+vEi+bdXy90cAIeRtFSyEvK2ChZDvBSyEvK2ChZC3VbAQ8rYKFkJeb2Eh5OUWFsKyrcLFkJdbXAx5ucXFkJdbXAx5W4WLIW+rcDHkbRUuhrytwsWooMwt2ypc/6ugzi3bKlyMCurcsq3CxSjWyve6uOfbVi1t3gEh5G0VLIS8rYKFkO8FLIS8rYKFkLdVsBDytgoWQl5vYSHk5RYWwrKtwsWQl1tcDHm5xcWQl1tcDHlbhYshb6twMeRtFS6GvK3CxaigzC3bKlz/q6DOLdsqXIwK6tyyrcLFKNbK95rl5ttWLd10ASHkbRUshLytgoWQ7wUshLytgoWQt1WwEPK2ChZCXm9hIeTlFhbCsq3CxZCXW1wMebnFxZCXW1wMeVuFiyFvq3Ax5G0VLoa8rcLFqKDMLdsqXP+roM4t2ypcjArq3LKtwsUo1sr3ehLm21YtTQsBIeRtFSyEvK2ChZDvBSyEvK2ChZC3VbAQ8rYKFsLmLgUKYfOdAoWwmq2hYsjLLS6GzcgKFcPmcYWKYbO/QsWweb6hYtjs4FAxbE5xqBgVlLnVXw7V/yqoc6srHSpGBXVu9bJDxdjfyt/kcXhd2TF7p94k/LR2kF0Yxzbjj9eHCwfYvVaxa0/nOEy+n84nw7jZbR96xnQPvU72L7+bz272NsXYWFUPh2dBEl5Po7unt6N46Ym8Of8cxtGpwItoGEYv55lFce4DM467XY5fwiCeR+ESI3NZXl33kk27Oc1pTnOa05zmNKc5zWlOc5rTnOY0pznNaU5zmtOc5jSnOc1pTnOa05zmNKc5zWlOc5rTnOY0pznNaU5zmtOc5jSnOc1pTnOa05zmNKc5/V81fdeafgyjaDQMfwmyB2tNq618XjV7NDbefTT2VRiNwnj1eG3jcP0A8Ww8TVrj0STc+4hs/KXndPc/WRu3Fj89P5uOg2Q0naRQjTgJZ0cX4dU0Chv5nnz+ObwOJ8PdE1q+1uy1D71O9uRyO3uQOftPYxxeJRnYHum1bOvtdZicT5Ls+qQhruaTywVp88D7Y4/EmjDcHP1677Pc2Rhdec3kZhS34sVdyRcoG1sHtdLrdx5c3jT/A+yqtsbPHh1P2Ve6b2fTeJQJPktfznM265HJfIEqmn5yQ1pjjSbDMKuHI3PoePR6vCt64NUoHGf51lxd02WdXEfT+Swcet984/1l9fpt6+1NEK+ef88K7GB79u6Ls+kFaQXX18+zGK1xOLlObrzvPN/7u9d4Oh43vCe774jHo8uweWQOXrffHOytt3tnMo285rv0VNrfeu/SMKtUXcXNXvtbuuK436BsZGm80nv97k3rfXjnnZ6eLi9eMcWF6uq2v3M91fW4iMLgfZGDPzse4/r+7Hqtzu40S+ssGVaZsjByaL0N4nh0PQmHZ5lFRPx6cSXfFLuU6xs9m8c3zaL3Ir2lT5b3s3gljcdP8pxlK3tn0ShxEk3fh/niLN9bNNJ0FlyOkrt8oVZvLnxWixDrUEVV1gvJ7rJSpDycF59srMt5d+HxjjzjquZSbvlZPx8uumqu93/et6fIxuPH3q+//+b9+8XvL71XL17+9tM/fvB+fvHDT2fej+cvz/MJPE9X7fA2yLZoXjL14mmUeJP5hzQPLr2FpUnsBfFlunkZTa5zKK6vfaaz1ZmDQ+8i/+IShck8mnizIIrD5+NpkDSDbMk/SG/l1msXi9dyXcz9W7StsKtT2Cf8uVynl83+c1Hui2JvPhqGV8F8nHizaJquYeGjQ+/RXweDs7Pz80clG88QhzjEIQ5xiEMc4hCHOMQhzn8njhfPP6T/C+wNw+xFbxjcZURROCQNaUhDGtKQhjSkIQ1pSEMa0thpPi2+mvUnmovxPCQOcYhDHOIQhzjEIQ5xiEMc4hTB2fxuoMl+N/DVXPrdwI5ZfML29Onx8ckJSUlKUpKSlKQkJSlJSUpSkpKUpCStB6m/IA0SibS9IO10fH/QIylJSUpSkpKUpCQlKUlJSlKSkpSk9SDtZKTPo5FA6p8sSI3p9zsdkpKUpCQlKUlJSlKSkpSkJCUpSUlaD9LjjPS3m7lEOliQnqSj+z1JSUpSkpKUpCQlKUlJSlKSkpSkJK0HaTcj/Vc4lEj7C9Jnz87O+n2SkpSkJCUpSUlKUpKSlKQkJSlJSVoP0t7iLxPzUCLtLUjPzno9kpKUpCQlKUlJSlKSkpSkJCUpSUlaF9J+RvrLVHIW9LsL0sHA97tdkpKUpCQlKUlJSlKSkpSkJCUpSUlaGekaZRgFn5p7xW5bySgZh69uglnYSsLbpPnox+k8ivdj3N0/8tnoQziJR9PJOIwXCnskHj/2ng6HXuAtlLxPo+TGi6cfQm/Y2XNk/PG6Fcxm4WTYbGSxGwd7DliPVpAkUbNx2zj0em3Hg+7Sg/z8B8XJ3Thc4h0Fk8ubaZQe3xiHVw60K42r6SQ5+hSOrm+STONiOh7m11jem38+/efyAr8Mb8Ig8XzvxeWl9+ry5tGB7TZ99zi+jEaz5H/E93z3eDj6+OVp8RhZLNXyRsPTxmWWw2fpaQejSRi99fu9hre4GKeN4SiejYO7J6PJOJ07uhhPL99/25ABU9XlOXjJ3Sw9Prsej98FH4Plq9Yjs/ExiLJ880694ejDbBy2JuGnVx+vm42/fgHy0Dtutxf/2VtAme4wSIJU+PUfjXFwEY4bTxrD8CqYjxNvFk2vRuOwcbiceXvbeGJa7cPGx2A8D1f/vszWmfSYdOk4Ozs/b3w+zKXjg3Q6IJ1jkE4XpNMD6fRBOgOQzglIx7RRQqiMNqiUNqicNqikNqisNqi0Nqi8NqjENqjM9lGZ7cPWalRm+6jM9p0y24vnHz7s/PB0ro4WhUMHGfEaucmIV8hNRrw+bjJi3bvJiFXvJiPWvJuMWPFuMmK9u8nIjcxRB5THchtz1AFlstzEHHVAuSy3MEcdUDbLDcxRB5TPcvty1EGty6B8lnuXo07+fP40miTubesieym/jnh5HHXEy+OoI14eRx2x3B11xHJ31BHL3VFHLHdHHbHcHXXk/uUqhMpouYO5CqFyWu5hrkKorJa7mKsQKq/lPuYqhMpsuZO5CsHWalRmy83MVSh/Zm8+idj7S8H5/t64/ClhQAj5/25hIeT/74WFkP+PGBZC/isQLIT89yFYCPkvR7AQ8t+UYCHkvzbBQlj+xIqLUUF9W/4wi4tRQYVb/pyLi1FBjVv+CIyLUUGVW/50jItRQZ1b/uCMi1FFH6+gzi1/wcbFKFbne3+QMd+2avmLjYAQ8t2AhZBvBiyEfC9gIeQlFxZCXnFhIeQFFxZCXm9hIeTlFhbCsq3Cxaigvi3bKlyMCircsq3Cxaigxi3bKlyMCqrcsq3Cxaigzi3bKlyMKvp4BXVu2VbhYhSr872/e5VvW7X8YSxACPluwELINwMWQr4XsBDykgsLIa+4sBDyggsLIa+3sBDycgsLYdlW4WJUUN+WbRUuRgUVbtlW4WJUUOOWbRUuRgVVbtlW4WJUUOeWbRUuRhV9vII6t2yrcDGK1fnenxfJt61a/v4IIIR8N2Ah5JsBCyHfC1gIecmFhZBXXFgIecGFhZDXW1gIebmFhbBsq3AxKqhvy7YKF6OCCrdsq3AxKqhxy7YKF6OCKrdsq3AxKqhzy7YKF6OKPl5BnVu2VbgYxep8r4t7vm3V0uYdEEK+G7AQ8s2AhZDvBSyEvOTCQsgrLiyEvODCQsjrLSyEvNzCQli2VbgYFdS3ZVuFi1FBhVu2VbgYFdS4ZVuFi1FBlVu2VbgYFdS5ZVuFi1FFH6+gzi3bKlyMYnW+1yw337Zq6aYLCCHfDVgI+WbAQsj3AhZCXnJhIeQVFxZCXnBhIeT1FhZCXm5hISzbKlyMCurbsq3Cxaigwi3bKlyMCmrcsq3Cxaigyi3bKlyMCurcsq3Cxaiij1dQ55ZtFS5GsTrf60mYb1u1NC0EhLD53IBC2BxwQCFs3jigEDY/KFAIm1MUKITNQwoUwuYuBQph850ChbCaraFiVFDfVos2VIwKKtxq7IaKUUGNW+3gUDEqqHKriRwqRgV1brWeQ8Wooo9XUOdWLztUjP11/iaPw+vKjtk79Sbhp7WD7MI4thl/vD5cOMDutYpdezrHYfL9dD4Zxs1u+9AzpnvodbJ/+d18drO3KcbGqno4PAuS8Hoa3T29HcVLT+TN+ecwjk4FXkTDMHo5zyyKcx+YcdztcvwSBvE8CpcYmcvy6rqXbNrNaU5zmtOc5jSnOc1pTnOa05zmNKc5zWlOc5rTnOY0pznNaU5zmtOc5jSnOc1pTnOa05zmNKc5zWlOc5rTnOY0pznNaU5zmtOc5jSnOc3p/6rpu9b0YxhFo2H4S5A9WGtabeXzqtmjsfHuo7GvwmgUxqvHaxuH6weIZ+Np0hqPJuHeR2TjLz2nu//J2ri1+On52XQcJKPpJIVqxEk4O7oIr6ZR2Mj35PPP4XU4Ge6e0PK1Zq996HWyJ5fb2YPM2X8a4/AqycD2SK9lW2+vw+R8kmTXJw1xNZ9cLkibB94feyTWhOHm6Nd7n+XOxujKayY3o7gVL+5KvkDZ2DqolV6/8+DypvkfYFe1NX726HjKvtJ9O5vGo0zwWfpynrNZj0zmC1TR9JMb0hprNBmGWT0cmUPHo9fjXdEDr0bhOMu35uqaLuvkOprOZ+HQ++Yb7y+r129bb2+CePX8e1ZgB9uzd1+cTS9IK7i+fp7FaI3DyXVy433n+d7fvcbT8bjhPdl9RzweXYbNI3Pwuv3mYG+93TuTaeQ136Wn0v7We5eGWaXqKm722t/SFcf9BmUjS+OV3ut3b1rvwzvv9PR0efGKKS5UV7f9neuprsdFFAbvixz82fEY1/dn12t1dqdZWmfJsMqUhZFD620Qx6PrSTg8yywi4teLK/mm2KVc3+jZPL5pFr0X6S19sryfxStpPH6S5yxb2TuLRomTaPo+zBdn+d6ikaaz4HKU3OULtXpz4bNahFiHKqqyXkh2l5Ui5eG8+GRjXc67C4935BlXNZdyy8/6+XDRVXO9//O+PUU2Hj/2fv39N+/fL35/6b168fK3n/7xg/fzix9+OvN+PH95nk/gebpqh7dBtkXzkqkXT6PEm8w/pHlw6S0sTWIviC/Tzctocp1DcX3tM52tzhwcehf5F5coTObRxJsFURw+H0+DpBlkS/5Beiu3XrtYvJbrYu7fom2FXZ3CPuHP5Tq9bPafi3JfFHvz0TC8CubjxJtF03QNCx8deo/+OhicnZ2fPyrZeIY4xCEOcYhDHOIQhzjEIQ5x/jtxvHj+If1fYG8YZi96w+AuI4rCIWlIQxrSkIY0pCENaUhDGtKQxk7zafHVrD/RXIznIXGIQxziEIc4xCEOcYhDHOIQpwjO5ncDTfa7ga/m0u8GdsziE7anT4+PT05ISlKSkpSkJCUpSUlKUpKSlKQkJWk9SP0FaZBIpO0Faafj+4MeSUlKUpKSlKQkJSlJSUpSkpKUpCStB2knI30ejQRS/2RBaky/3+mQlKQkJSlJSUpSkpKUpCQlKUlJStJ6kB5npL/dzCXSwYL0JB3d70lKUpKSlKQkJSlJSUpSkpKUpCQlaT1Iuxnpv8KhRNpfkD57dnbW75OUpCQlKUlJSlKSkpSkJCUpSUlK0nqQ9hZ/mZiHEmlvQXp21uuRlKQkJSlJSUpSkpKUpCQlKUlJStK6kPYz0l+mkrOg312QDga+3+2SlKQkJSlJSUpSkpKUpCQlKUlJStLKSNcowyj41NwrdttKRsk4fHUTzMJWEt4mzUc/TudRvB/j7v6Rz0Yfwkk8mk7GYbxQ2CPx+LH3dDj0Am+h5H0aJTdePP0QesPOniPjj9etYDYLJ8NmI4vdONhzwHq0giSJmo3bxqHXazsedJce5Oc/KE7uxuES7yiYXN5Mo/T4xji8cqBdaVxNJ8nRp3B0fZNkGhfT8TC/xvLe/PPpP5cX+GV4EwaJ9+Ly0nt1efPowHaTvnscX0ajWfI/4nu+ezwcffzytHiMLJZqeaPhaeMyy+Cz9KSD0SSM3vr9fsNbXIrTxnAUz8bB3ZPRZJzOHV2Mp5fvv23IgKnq8hy85G6WHp9djcfvgo/B8lXrkdn4GERZtnmn3nD0YTYOW5Pw06uP183GX78Aeegdt9uL/+wtn0x3GCRBKvz6j8Y4uAjHjSeNYXgVzMeJN4umV6Nx2Dhczry9bTwxrfZh42MwnoeNJ72T1snWGJwcNi6zNSdVSJeRs7Pz88bnw1yqfimqnVJUj0tR7Zai2itFtV+K6qAU1ZNSVE27HNlyqsuUU16mnPoy5RSYKafCTDklZsqpMVNOkZlyqswvp8r8knpYOVXml1NlvqLKvHj+4cPOz3gX2CFE4dBBNOe1dRPNeWXdRHNeVzfRnGuXm2jOlctNNOe65Saac9VyE825ZrmJ5t0YOKqWUlN5twWOqqVUVd5NgaNqKXWVd0vgqFpKZeXdEDiqllJbebcDjqrl9KtSaivvXsBRtWhtfRpNEu024CJ7Q37VnJfVUTXnZXVUzXlZHVVzLlmOqjmXLEfVnEuWo2rOJctRNeeS5aiadz/gKltOdeXdEbjKllNfefcErrLlVFjeXYGrbDk1lndf4CpbTpXl3Rm4ypbUw8qpsrybA1dZpyp7k+cDh9Vng96pNwk/rT/QWHyO0Yw/Xh8uPpDY+8nF+gPGOEy+n84nw7jZbR96xnQPvU72L7+b79OP2xRj87npcHgWJOH1NLp7ejuKlx/QbS5Fjk8xU4EX0TCMXs6zz8tyH5hx3O1y/BIG8TwKlxjZR36rW6D9XHbxQdJuqFdhNArjFW4aaXVDZuNp0so+3dobMv7See8njVuLvJtNx0Eymk5SqEachLOji/BqGoWNfJn0c3gdToa7J7R8rdlLs6CTZUL2YZjJ/rP62HPvJ8Jr2dbb6zA5nyTZ9UlDXM0nlwvS5oH3R47PPTPCcHP06721kY3RlddMbkZxmtfZcfkCZWProFZ6/c6Dy5vmf4Bd1db4q88GV7pvZ9N4lAk+S1/Oczbrkcl8gSqafnJDWmONJsMwK9wjc+h49Hq8K3rg1SgcZ/nWXF3TZZ1cR9P5LBx633zj/WX1+m3r7U0Qr9aTrMAOtmfvvjibXpBWcH39PIvRGoeT6+TG+87zvb97/7+ds+tNG4bC8P1+hdUr0Aol7KMdE5OqrbSVtjF1VNOEqimAuwZCgpIwjQv+++KQID7mkfgclaK9vglwwuvH9rEdFfc9OnfdI9FYvyN0nb4sVaxyt3ZX3jnftlriB6I0jJtSeyuGcTVpqqb1qs+eN4VVfIBUUWmc6nWHd9WRjJe3ZnPReWaKiWo67MOiTc1KL5D2yOTL84LfKXq/6q+0dU2V1ioZ0kxJNsbqj8WZHjlITvWE3aQn78y6MhvoyTR8KJmORTykjcV4ms8k123kaWVV3WlaSxgF/kjmq2dxr2lN/sTuO9EsX1XpzcatSqrIqjJVyRaS9WXFZHoUXnxUyabz+sIjKsIqqlZkuuVnnR8nu2qu++e7nilUOTkRX2474nv79kZ8bd90rj9fio/ty+v34uri5iKfQCteteVvWz2iicgXoR8/SHvTcZwHfZE8IobCDvvxw4vj/cyhmPW90lnZme1j0cu/uAQymgaemNhBKFuub0clWy355XgoVz7rJZ/l6szdj2gr1aZN2CU838PZy40fYNMDluoH1b0cBQUOcIADHOAABzjAAQ5wgAOcg8fZPuCiiAI5AA1oQAMa0IAGNKABDWhAAxrQ/Jtm60igolFH/IADHOAABzjAAQ5wgAMc4AAHOHt0POzI8UQGdjQNpCi1yvA8fFKeh99slXFXMrmcj3uO9CKhhkw5H8rBNO7/ijittQ7EBPHsEEwQzx7NBDH511NTEyYmnRdMOi+ZdF4x6bxm0jll0jlj0nnDpLPmLkAS4spoiyulLa6ctriS2uLKaosrrS2uvLa4Etviyuw6V2bX2dZqrsyuc2V2vVBm5zftW5Myt+kjyGh7yNyKjyCjnffmdnsEGe2cN7fUI8ho5zvBNo+iw5TH+m2MYIZH0WFKZf0eRrC4o+gwZbN+AyMY11HWQaZ81u9eBDs6ig5TPuu3LnOTuTUZgq0cRUfbPQTrOIqOdroT7OEoOtrpTrCAo+hopzvF5o0kxJXR+h2MYt5GEuJKav0mRrFkIwlx5bV+H6MYrZFWRq7M1m9lFPs0khBXZut3M5iiHYQpGsIII4wwwggjjDDCCCOMMMIII4wwwk8pPKv6v2QQOAP5yVZ/qLKqNZjir7QEpvjLAlP8QgWm+DDFL1Bgir9ZYIq/WWCKX7DAFB+m+H8tMMUHDnCAAxzgAAc4wAEOcIADHOAcgqUkaEADGtCABjSgAQ1oQAMa0BwOzX9jZQkc4AAHOMABDnCAAxzgAAc45vXtwRT/gzOWXuj4nivDEJb4T8sS3w9G4uL+3uk70uvPlkb4j2uBn969EVl9n71eXJfq6YvlpecPZur6EI3dd8/+AHzvBAI="
               },
               {
                  "name" : "annual_peak_electric_demand",
                  "units" : "kW",
                  "value" : 445.40823
               },
               {
                  "name" : "first_year_capital_cost",
                  "units" : "$",
                  "value" : 0
               },
               {
                  "name" : "annual_utility_cost",
                  "units" : "$",
                  "value" : 70356.740000000005
               },
               {
                  "name" : "total_lifecycle_cost",
                  "units" : "$",
                  "value" : 1177941.55
               }
            ],
            "step_warnings" : [ "A table in Annual Overview section returned false and was skipped." ]
         }
      }
   ],
   "updated_at" : "20170710T193602Z",
   "weather_file" : "USA_CO_Denver.Intl.AP.725650_TMY3.epw"
}
