{
   "completed_at" : "20170710T184604Z",
   "completed_status" : "Success",
   "created_at" : "2017-07-10 18:44:22 +0000",
   "current_step" : 5,
   "description" : "",
   "eplusout_err" : "Program Version,EnergyPlus, Version 8.7.0-78a111df4a, YMD=2017.07.10 18:45,IDD_Version 8.7.0\n   ************* IDF Context for following error/warning message:\n   ************* Note -- lines truncated at 300 characters, if necessary...\n   *************      5 Building,\n   ************* indicated Name=NECB 2011-QuickServiceRestaurant-NECB HDD Method-CAN_BC_Prince.George.718960_CWEC.epw created: 2017-07-10 18:44:28 +0000\n   ************* Only last 1 lines before error line shown.....\n   *************      6   NECB 2011-QuickServiceRestaurant-NECB HDD Method-CAN_BC_Prince.George.718960_CWEC.epw created: 2017-07-10 18:44:28 +0000, !- Name\n   ** Warning ** IP: IDF line~6 Alpha Argument length exceeds maximum, will be truncated=  NECB 2011-QuickServiceRestaurant-NECB HDD Method-CAN_BC_Prince.George.718960_CWEC.epw created: 2017-07-10 18:44:28 +000\n   **   ~~~   ** Will be processed as Alpha=NECB 2011-QUICKSERVICERESTAURANT-NECB HDD METHOD-CAN_BC_PRINCE.GEORGE.718960_CWEC.EPW CREATED: 2017-07-10 18:44:28 +0000\n   ************* Beginning Zone Sizing Calculations\n   ** Warning ** ProcessScheduleInput: Schedule:Day:Interval=\"ECONOMIZER MAX OA FRACTION 100 PCT DEFAULT\", Blank Schedule Type Limits Name input -- will not be validated.\n   ** Warning ** ProcessScheduleInput: Schedule:Day:Interval=\"SCHEDULE DAY 1\", Blank Schedule Type Limits Name input -- will not be validated.\n   ** Warning ** ProcessScheduleInput: Schedule:Day:Interval=\"SCHEDULE DAY 10\", Blank Schedule Type Limits Name input -- will not be validated.\n   ** Warning ** ProcessScheduleInput: Schedule:Day:Interval=\"SCHEDULE DAY 11\", Blank Schedule Type Limits Name input -- will not be validated.\n   ** Warning ** ProcessScheduleInput: Schedule:Day:Interval=\"SCHEDULE DAY 12\", Blank Schedule Type Limits Name input -- will not be validated.\n   ** Warning ** ProcessScheduleInput: Schedule:Day:Interval=\"SCHEDULE DAY 2\", Blank Schedule Type Limits Name input -- will not be validated.\n   ** Warning ** ProcessScheduleInput: Schedule:Day:Interval=\"SCHEDULE DAY 5\", Blank Schedule Type Limits Name input -- will not be validated.\n   ** Warning ** ProcessScheduleInput: Schedule:Day:Interval=\"SCHEDULE DAY 6\", Blank Schedule Type Limits Name input -- will not be validated.\n   ** Warning ** ProcessScheduleInput: Schedule:Day:Interval=\"SCHEDULE DAY 7\", Blank Schedule Type Limits Name input -- will not be validated.\n   ** Warning ** ProcessScheduleInput: Schedule:Day:Interval=\"SCHEDULE DAY 8\", Blank Schedule Type Limits Name input -- will not be validated.\n   ** Warning ** ProcessScheduleInput: Schedule:Day:Interval=\"SCHEDULE DAY 9\", Blank Schedule Type Limits Name input -- will not be validated.\n   ** Warning ** ProcessScheduleInput: Schedule:Year=\"ECONOMIZER MAX OA FRACTION 100 PCT\", Blank Schedule Type Limits Name input -- will not be validated.\n   ** Warning ** ProcessScheduleInput: Schedule:Year=\"SCHEDULE RULESET 3\", Blank Schedule Type Limits Name input -- will not be validated.\n   ** Warning ** ProcessScheduleInput: Schedule:Year=\"SCHEDULE RULESET 4\", Blank Schedule Type Limits Name input -- will not be validated.\n   ** Warning ** ProcessScheduleInput: Schedule:Year=\"SCHEDULE RULESET 5\", Blank Schedule Type Limits Name input -- will not be validated.\n   ** Warning ** ProcessScheduleInput: Schedule:Year=\"SCHEDULE RULESET 6\", Blank Schedule Type Limits Name input -- will not be validated.\n   ** Warning ** ProcessScheduleInput: Schedule:Year=\"SCHEDULE RULESET 7\", Blank Schedule Type Limits Name input -- will not be validated.\n   ** Warning ** ProcessScheduleInput: Schedule:Year=\"SCHEDULE RULESET 8\", Blank Schedule Type Limits Name input -- will not be validated.\n   ** Warning ** ProcessScheduleInput: Schedule:Constant=\"ALWAYS OFF DISCRETE\", Blank Schedule Type Limits Name input -- will not be validated.\n   ** Warning ** ProcessScheduleInput: Schedule:Constant=\"ALWAYS ON CONTINUOUS\", Blank Schedule Type Limits Name input -- will not be validated.\n   ** Warning ** CheckUsedConstructions: There are 24 nominally unused constructions in input.\n   **   ~~~   ** For explicit details on each unused construction, use Output:Diagnostics,DisplayExtraWarnings;\n   ************* Beginning System Sizing Calculations\n   ************* Beginning Plant Sizing Calculations\n   ** Warning ** GetDXCoils: Coil:Cooling:DX:SingleSpeed=\"COIL COOLING DX SINGLE SPEED 2 25KBTU/HR 14.0SEER\", invalid\n   **   ~~~   ** ...Part Load Fraction Correlation Curve Name = DXCOOL-NECB2011-REF-COOLPLFFPLR 1 has out of range value.\n   **   ~~~   ** ...Curve maximum must be <= 1.0, curve max at PLR = 0.99 is 1.015\n   **   ~~~   ** ...Setting curve maximum to 1.0 and simulation continues.\n   ** Warning ** GetDXCoils: Coil:Cooling:DX:SingleSpeed=\"COIL COOLING DX SINGLE SPEED 1 14KBTU/HR 14.0SEER\", invalid\n   **   ~~~   ** ...Part Load Fraction Correlation Curve Name = DXCOOL-NECB2011-REF-COOLPLFFPLR has out of range value.\n   **   ~~~   ** ...Curve maximum must be <= 1.0, curve max at PLR = 0.99 is 1.015\n   **   ~~~   ** ...Setting curve maximum to 1.0 and simulation continues.\n   ** Warning ** The Standard Ratings is calculated for Coil:Cooling:DX:SingleSpeed = COIL COOLING DX SINGLE SPEED 2 25KBTU/HR 14.0SEER but not at the AHRI test condition due to curve out of bound.\n   **   ~~~   **  Review the Standard Ratings calculations in the Engineering Reference for this coil type. Also, use Output:Diagnostics, DisplayExtraWarnings for further guidance.\n   ** Warning ** The Standard Ratings is calculated for Coil:Cooling:DX:SingleSpeed = COIL COOLING DX SINGLE SPEED 1 14KBTU/HR 14.0SEER but not at the AHRI test condition due to curve out of bound.\n   **   ~~~   **  Review the Standard Ratings calculations in the Engineering Reference for this coil type. Also, use Output:Diagnostics, DisplayExtraWarnings for further guidance.\n   ** Warning ** Check input. Pump nominal power or motor efficiency is set to 0, for pump=SERVICE WATER LOOP PUMP\n   ** Warning ** Output:Meter: invalid Name=\"DISTRICTCOOLING:FACILITY\" - not found.\n   ** Warning ** Output:Meter: invalid Name=\"DISTRICTHEATING:FACILITY\" - not found.\n   ** Warning ** Output:Meter:MeterFileOnly requested for \"Electricity:Facility\" (TimeStep), already on \"Output:Meter\". Will report to both eplusout.eso and eplusout.mtr\n   ************* Testing Individual Branch Integrity\n   ************* All Branches passed integrity testing\n   ************* Testing Individual Supply Air Path Integrity\n   ************* All Supply Air Paths passed integrity testing\n   ************* Testing Individual Return Air Path Integrity\n   ************* All Return Air Paths passed integrity testing\n   ************* No node connection errors were found.\n   ************* Beginning Simulation\n   ** Warning ** CalcDoe2DXCoil: Coil:Cooling:DX:SingleSpeed \"COIL COOLING DX SINGLE SPEED 2 25KBTU/HR 14.0SEER\" - Air-cooled condenser inlet dry-bulb temperature below 0 C. Outdoor dry-bulb temperature = -24.00\n   **   ~~~   **  ... Occurrence info = RUN PERIOD 1, 01/01 09:02 - 09:05\n   **   ~~~   ** ... Operation at low ambient temperatures may require special performance curves.\n   ** Warning ** CalcDoe2DXCoil: Coil:Cooling:DX:SingleSpeed \"COIL COOLING DX SINGLE SPEED 1 14KBTU/HR 14.0SEER\" - Full load outlet air dry-bulb temperature < 2C. This indicates the possibility of coil frost/freeze. Outlet temperature = -1.14 C.\n   **   ~~~   **  ...Occurrence info = RUN PERIOD 1, 03/05 10:02 - 10:05\n   **   ~~~   ** ... Possible reasons for low outlet air dry-bulb temperatures are: This DX coil\n   **   ~~~   **    1) may have a low inlet air dry-bulb temperature. Inlet air temperature = 11.804 C.\n   **   ~~~   **    2) may have a low air flow rate per watt of cooling capacity. Check inputs.\n   **   ~~~   **    3) is used as part of a HX assisted cooling coil which uses a high sensible effectiveness. Check inputs.\n   ** Warning ** CalcDoe2DXCoil: Coil:Cooling:DX:SingleSpeed \"COIL COOLING DX SINGLE SPEED 2 25KBTU/HR 14.0SEER\" - Full load outlet air dry-bulb temperature < 2C. This indicates the possibility of coil frost/freeze. Outlet temperature = 1.76 C.\n   **   ~~~   **  ...Occurrence info = RUN PERIOD 1, 04/25 12:08 - 12:15\n   **   ~~~   ** ... Possible reasons for low outlet air dry-bulb temperatures are: This DX coil\n   **   ~~~   **    1) may have a low inlet air dry-bulb temperature. Inlet air temperature = 15.935 C.\n   **   ~~~   **    2) may have a low air flow rate per watt of cooling capacity. Check inputs.\n   **   ~~~   **    3) is used as part of a HX assisted cooling coil which uses a high sensible effectiveness. Check inputs.\n   ************* Simulation Error Summary *************\n   ************* There are 9 unused schedules in input.\n   ************* There are 9 unused week schedules in input.\n   ************* There are 14 unused day schedules in input.\n   ************* Use Output:Diagnostics,DisplayUnusedSchedules; to see them.\n   *************\n   ************* ===== Recurring Error Summary =====\n   ************* The following recurring error messages occurred.\n   *************\n   *************  ** Warning ** Plant loop falling below lower temperature limit, PlantLoop=\"MAIN SERVICE WATER LOOP\"\n   *************  **   ~~~   **   This error occurred 2 total times;\n   *************  **   ~~~   **   during Warmup 2 times;\n   *************  **   ~~~   **   during Sizing 0 times.\n   *************  **   ~~~   **   Min=3.704943\n   *************\n   *************  ** Warning ** CalcDoe2DXCoil: Coil:Cooling:DX:SingleSpeed=\"COIL COOLING DX SINGLE SPEED 2 25KBTU/HR 14.0SEER\" - Low condenser dry-bulb temperature error continues...\n   *************  **   ~~~   **   This error occurred 297 total times;\n   *************  **   ~~~   **   during Warmup 0 times;\n   *************  **   ~~~   **   during Sizing 0 times.\n   *************  **   ~~~   **   Max=-5.000000E-002 [C]  Min=-36.6 [C]\n   *************\n   *************  ** Warning ** CalcDoe2DXCoil: Coil:Cooling:DX:SingleSpeed=\"COIL COOLING DX SINGLE SPEED 1 14KBTU/HR 14.0SEER\" - Full load outlet temperature indicates a possibility of frost/freeze error continues. Outlet air temperature statistics follow:\n   *************  **   ~~~   **   This error occurred 106 total times;\n   *************  **   ~~~   **   during Warmup 0 times;\n   *************  **   ~~~   **   during Sizing 0 times.\n   *************  **   ~~~   **   Max=1.987528  Min=-1.945486\n   *************\n   *************  ** Warning ** CalcDoe2DXCoil: Coil:Cooling:DX:SingleSpeed=\"COIL COOLING DX SINGLE SPEED 2 25KBTU/HR 14.0SEER\" - Full load outlet temperature indicates a possibility of frost/freeze error continues. Outlet air temperature statistics follow:\n   *************  **   ~~~   **   This error occurred 5 total times;\n   *************  **   ~~~   **   during Warmup 0 times;\n   *************  **   ~~~   **   during Sizing 0 times.\n   *************  **   ~~~   **   Max=1.863169  Min=1.700343\n   *************\n   *************\n   ************* ===== Final Error Summary =====\n   ************* The following error categories occurred.  Consider correcting or noting.\n   ************* Nominally Unused Constructions\n   ************* ..The nominally unused constructions warning is provided to alert you to potential conditions that can cause\n   ************* ..extra time during simulation. Each construction is calculated by the algorithm indicated in the HeatBalanceAlgorithm\n   ************* ..object. You may remove the constructions indicated (when you use the DisplayExtraWarnings option).\n   *************\n   ************* EnergyPlus Warmup Error Summary. During Warmup: 0 Warning; 0 Severe Errors.\n   ************* EnergyPlus Sizing Error Summary. During Sizing: 21 Warning; 0 Severe Errors.\n   ************* EnergyPlus Completed Successfully-- 440 Warning; 0 Severe Errors; Elapsed Time=00hr 00min 24.31sec\n",
   "file_format_version" : "0.0.1",
   "file_paths" : [ "../weather", "../seeds", "../seed" ],
   "hash" : "A2D0E4B5",
   "measure_paths" : [ "../measures" ],
   "name" : "LHS Autogenerated 368",
   "osa_id" : "4fef0e0f-5396-4c55-a6e1-2cd6803db3ab",
   "osd_id" : "a0eed643-2cfa-4b1e-bf28-5c9f6515faa1",
   "run_directory" : "./run",
   "seed_file" : "seed.osm",
   "started_at" : "20170710T184425Z",
   "steps" : [
      {
         "arguments" : {
            "__SKIP__" : false,
            "building_type" : "QuickServiceRestaurant",
            "climate_zone" : "NECB HDD Method",
            "epw_file" : "CAN_BC_Prince.George.718960_CWEC.epw",
            "template" : "NECB 2011"
         },
         "measure_dir_name" : "create_prototype_building",
         "name" : "create_prototype_building",
         "result" : {
            "completed_at" : "20170710T184512Z",
            "measure_class_name" : "CreatePrototypeBuilding",
            "measure_display_name" : "Create Prototype Building",
            "measure_name" : "create_prototype_building",
            "measure_taxonomy" : "Whole Building.Space Types",
            "measure_type" : "ModelMeasure",
            "measure_uid" : "ae90fsd7-a651-467a-bc8d-29d310b0f937",
            "measure_version_id" : "c6ec5c18-5595-459f-a082-09a19c8c869c",
            "measure_version_modified" : "20170519T182315Z",
            "measure_xml_checksum" : "057E8D9D",
            "started_at" : "20170710T184427Z",
            "stderr" : "",
            "stdout" : "[OpenStudio.Measure] <0> OSArgumentVector is deprecated, use OpenStudio::Measure::OSArgumentVector instead.\n[openstudio.EpwFile] <0> Successive data points (1988-Jan-31 to 1976-Feb-01, ending on line 753) are greater than 1 day apart in EPW file '/usr/local/bundle/bundler/gems/openstudio-standards-f448df66933d/openstudio-standards/data/weather/CAN_BC_Prince.George.718960_CWEC.epw'. Data will be treated as typical (TMY)\n[openstudio.setFileExtension] <0> Path p, '/usr/local/bundle/bundler/gems/openstudio-standards-f448df66933d/openstudio-standards/data/weather/CAN_BC_Prince.George.718960_CWEC.ddy', has an unexpected file extension. Was expecting 'idf'.\n[openstudio.model.YearDescription] <1> 'UseWeatherFile' is not yet a supported option for YearDescription\n[openstudio.model.YearDescription] <1> 'UseWeatherFile' is not yet a supported option for YearDescription\n[openstudio.setFileExtension] <0> Path p, '/usr/local/bundle/bundler/gems/openstudio-standards-f448df66933d/openstudio-standards/data/weather/CAN_BC_Prince.George.718960_CWEC.ddy', has an unexpected file extension. Was expecting 'idf'.\n[openstudio.model.YearDescription] <1> 'UseWeatherFile' is not yet a supported option for YearDescription\n[openstudio.model.YearDescription] <1> 'UseWeatherFile' is not yet a supported option for YearDescription\n[openstudio.EpwFile] <0> Successive data points (1988-Jan-31 to 1976-Feb-01, ending on line 753) are greater than 1 day apart in EPW file '/usr/local/bundle/bundler/gems/openstudio-standards-f448df66933d/openstudio-standards/data/weather/CAN_BC_Prince.George.718960_CWEC.epw'. Data will be treated as typical (TMY)\n[openstudio.weather.Model] <0> Could not find ground temperatures; will use generic temperatures, which will skew results.\n[openstudio.setFileExtension] <0> Path p, '/usr/local/bundle/bundler/gems/openstudio-standards-f448df66933d/openstudio-standards/data/weather/CAN_BC_Prince.George.718960_CWEC.ddy', has an unexpected file extension. Was expecting 'idf'.\n[openstudio.model.YearDescription] <1> 'UseWeatherFile' is not yet a supported option for YearDescription\n[openstudio.model.YearDescription] <1> 'UseWeatherFile' is not yet a supported option for YearDescription\n[openstudio.EpwFile] <0> Successive data points (1988-Jan-31 to 1976-Feb-01, ending on line 753) are greater than 1 day apart in EPW file '/usr/local/bundle/bundler/gems/openstudio-standards-f448df66933d/openstudio-standards/data/weather/CAN_BC_Prince.George.718960_CWEC.epw'. Data will be treated as typical (TMY)\n[openstudio.setFileExtension] <0> Path p, '/usr/local/bundle/bundler/gems/openstudio-standards-f448df66933d/openstudio-standards/data/weather/CAN_BC_Prince.George.718960_CWEC.ddy', has an unexpected file extension. Was expecting 'idf'.\n[openstudio.model.YearDescription] <1> 'UseWeatherFile' is not yet a supported option for YearDescription\n[openstudio.model.YearDescription] <1> 'UseWeatherFile' is not yet a supported option for YearDescription\n[openstudio.setFileExtension] <0> Path p, '/usr/local/bundle/bundler/gems/openstudio-standards-f448df66933d/openstudio-standards/data/weather/CAN_BC_Prince.George.718960_CWEC.ddy', has an unexpected file extension. Was expecting 'idf'.\n[openstudio.model.YearDescription] <1> 'UseWeatherFile' is not yet a supported option for YearDescription\n[openstudio.model.YearDescription] <1> 'UseWeatherFile' is not yet a supported option for YearDescription\n[openstudio.EpwFile] <0> Successive data points (1988-Jan-31 to 1976-Feb-01, ending on line 753) are greater than 1 day apart in EPW file '/usr/local/bundle/bundler/gems/openstudio-standards-f448df66933d/openstudio-standards/data/weather/CAN_BC_Prince.George.718960_CWEC.epw'. Data will be treated as typical (TMY)\n[openstudio.setFileExtension] <0> Path p, '/usr/local/bundle/bundler/gems/openstudio-standards-f448df66933d/openstudio-standards/data/weather/CAN_BC_Prince.George.718960_CWEC.ddy', has an unexpected file extension. Was expecting 'idf'.\n[openstudio.model.YearDescription] <1> 'UseWeatherFile' is not yet a supported option for YearDescription\n[openstudio.model.YearDescription] <1> 'UseWeatherFile' is not yet a supported option for YearDescription\n[openstudio.setFileExtension] <0> Path p, '/usr/local/bundle/bundler/gems/openstudio-standards-f448df66933d/openstudio-standards/data/weather/CAN_BC_Prince.George.718960_CWEC.ddy', has an unexpected file extension. Was expecting 'idf'.\n[openstudio.model.YearDescription] <1> 'UseWeatherFile' is not yet a supported option for YearDescription\n[openstudio.model.YearDescription] <1> 'UseWeatherFile' is not yet a supported option for YearDescription\n[utilities.idf.WorkspaceObject] <0> Object of type 'Schedule:Constant' and named 'Always Off Discrete', points to an object named OnOff 1 from field 1, but that object cannot be located.\n[utilities.idf.WorkspaceObject] <0> Object of type 'Schedule:Constant' and named 'Always On Continuous', points to an object named Fractional 1 from field 1, but that object cannot be located.\n[utilities.idf.WorkspaceObject] <0> Object of type 'Schedule:Constant' and named 'Always Off Discrete', points to an object named OnOff 1 from field 1, but that object cannot be located.\n[utilities.idf.WorkspaceObject] <0> Object of type 'Schedule:Constant' and named 'Always On Continuous', points to an object named Fractional 1 from field 1, but that object cannot be located.\n[openstudio.standards.Fan] <0> For Fan Constant Volume 1, there is no greater nominal HP.  Use the efficiency of the largest motor category.\n[openstudio.standards.Fan] <0> For Fan Constant Volume 2, there is no greater nominal HP.  Use the efficiency of the largest motor category.\n[openstudio.EpwFile] <0> Successive data points (1988-Jan-31 to 1976-Feb-01, ending on line 753) are greater than 1 day apart in EPW file '/usr/local/bundle/bundler/gems/openstudio-standards-f448df66933d/openstudio-standards/data/weather/CAN_BC_Prince.George.718960_CWEC.epw'. Data will be treated as typical (TMY)\n[openstudio.setFileExtension] <0> Path p, '/usr/local/bundle/bundler/gems/openstudio-standards-f448df66933d/openstudio-standards/data/weather/CAN_BC_Prince.George.718960_CWEC.ddy', has an unexpected file extension. Was expecting 'idf'.\n[openstudio.model.YearDescription] <1> 'UseWeatherFile' is not yet a supported option for YearDescription\n[openstudio.model.YearDescription] <1> 'UseWeatherFile' is not yet a supported option for YearDescription\n[openstudio.setFileExtension] <0> Path p, '/usr/local/bundle/bundler/gems/openstudio-standards-f448df66933d/openstudio-standards/data/weather/CAN_BC_Prince.George.718960_CWEC.ddy', has an unexpected file extension. Was expecting 'idf'.\n[openstudio.model.YearDescription] <1> 'UseWeatherFile' is not yet a supported option for YearDescription\n[openstudio.model.YearDescription] <1> 'UseWeatherFile' is not yet a supported option for YearDescription\n[openstudio.EpwFile] <0> Successive data points (1988-Jan-31 to 1976-Feb-01, ending on line 753) are greater than 1 day apart in EPW file '/usr/local/bundle/bundler/gems/openstudio-standards-f448df66933d/openstudio-standards/data/weather/CAN_BC_Prince.George.718960_CWEC.epw'. Data will be treated as typical (TMY)\n[openstudio.setFileExtension] <0> Path p, '/usr/local/bundle/bundler/gems/openstudio-standards-f448df66933d/openstudio-standards/data/weather/CAN_BC_Prince.George.718960_CWEC.ddy', has an unexpected file extension. Was expecting 'idf'.\n[openstudio.model.YearDescription] <1> 'UseWeatherFile' is not yet a supported option for YearDescription\n[openstudio.model.YearDescription] <1> 'UseWeatherFile' is not yet a supported option for YearDescription\n[openstudio.setFileExtension] <0> Path p, '/usr/local/bundle/bundler/gems/openstudio-standards-f448df66933d/openstudio-standards/data/weather/CAN_BC_Prince.George.718960_CWEC.ddy', has an unexpected file extension. Was expecting 'idf'.\n[openstudio.model.YearDescription] <1> 'UseWeatherFile' is not yet a supported option for YearDescription\n[openstudio.model.YearDescription] <1> 'UseWeatherFile' is not yet a supported option for YearDescription\n[openstudio.standards.Fan] <0> For Fan Constant Volume 1, there is no greater nominal HP.  Use the efficiency of the largest motor category.\n[openstudio.standards.Fan] <0> For Fan Constant Volume 2, there is no greater nominal HP.  Use the efficiency of the largest motor category.\n",
            "step_errors" : [],
            "step_files" : [],
            "step_info" : [
               "Started adding geometry",
               "Finished adding geometry",
               "Started adding weather file for climate zone: NECB HDD Method.",
               "Template =",
               "Setting attic to Space Function.- undefined -",
               "Setting Dining to Space Function.Dining - bar lounge/leisure",
               "Setting Kitchen to Space Function.Food preparation",
               "Started applying space types (loads)",
               "Space Function - undefined - had no ventilation specification, one has been created.",
               "Space Function - undefined - had no infiltration objects, one has been created.",
               "Space Function - undefined - set infiltration to 0.0 per ft^2 exterior surface area.",
               "Space Function - undefined - set infiltration schedule to Always On.",
               "Space Function Dining - bar lounge/leisure had no people, one has been created.",
               "Space Function Dining - bar lounge/leisure set occupancy to 9.29 people/1000 ft^2.",
               "Space Function Dining - bar lounge/leisure had no lights, one has been created.",
               "Space Function Dining - bar lounge/leisure set LPD to 1.309921962 W/ft^2.",
               "Space Function Dining - bar lounge/leisure had no electric equipment, one has been created.",
               "Space Function Dining - bar lounge/leisure set electric EPD to 0.092902267 W/ft^2.",
               "Space Function Dining - bar lounge/leisure had no ventilation specification, one has been created.",
               "Space Function Dining - bar lounge/leisure set ventilation per area to 0.705 cfm/ft^2.",
               "Space Function Dining - bar lounge/leisure had no infiltration objects, one has been created.",
               "Space Function Dining - bar lounge/leisure set infiltration to 0.0 per ft^2 exterior surface area.",
               "Space Function Dining - bar lounge/leisure set occupancy schedule to NECB-B-Occupancy.",
               "Space Function Dining - bar lounge/leisure set occupant activity schedule to NECB-Activity.",
               "Space Function Dining - bar lounge/leisure set lighting schedule to NECB-B-Lighting.",
               "Space Function Dining - bar lounge/leisure set electric equipment schedule to NECB-B-Electric-Equipment.",
               "Space Function Dining - bar lounge/leisure set infiltration schedule to Always On.",
               "Space Function Dining - bar lounge/leisure set heating setpoint schedule to NECB-B-Thermostat Setpoint-Heating.",
               "Space Function Dining - bar lounge/leisure set cooling setpoint schedule to NECB-B-Thermostat Setpoint-Cooling.",
               "Space Function Food preparation had no people, one has been created.",
               "Space Function Food preparation set occupancy to 4.65 people/1000 ft^2.",
               "Space Function Food preparation had no lights, one has been created.",
               "Space Function Food preparation set LPD to 0.994054255 W/ft^2.",
               "Space Function Food preparation had no electric equipment, one has been created.",
               "Space Function Food preparation set electric EPD to 0.929022668 W/ft^2.",
               "Space Function Food preparation had no ventilation specification, one has been created.",
               "Space Function Food preparation set ventilation per area to 0.27 cfm/ft^2.",
               "Space Function Food preparation had no infiltration objects, one has been created.",
               "Space Function Food preparation set infiltration to 0.0 per ft^2 exterior surface area.",
               "Space Function Food preparation set occupancy schedule to NECB-B-Occupancy.",
               "Space Function Food preparation set occupant activity schedule to NECB-Activity.",
               "Space Function Food preparation set lighting schedule to NECB-B-Lighting.",
               "Space Function Food preparation set electric equipment schedule to NECB-B-Electric-Equipment.",
               "Space Function Food preparation set infiltration schedule to Always On.",
               "Space Function Food preparation set heating setpoint schedule to NECB-B-Thermostat Setpoint-Heating.",
               "Space Function Food preparation set cooling setpoint schedule to NECB-B-Thermostat Setpoint-Cooling.",
               "Finished applying space types (loads)",
               "Started applying constructions",
               "Adding construction set: NECB 2011-NECB HDD Method-QuickServiceRestaurant--is_residentialNo",
               "Adding construction Typical Insulated Exterior Mass Floor R-15.63.",
               "Adding construction Typical Insulated Exterior Mass Wall R-12.5.",
               "Adding construction Typical Insulated Metal Building Roof R-20.41.",
               "Adding construction Typical Interior Floor.",
               "Adding construction Typical Interior Wall.",
               "Adding construction Typical Interior Ceiling.",
               "Adding construction Typical Insulated Carpeted 6in Slab Floor.",
               "Adding construction U 0.55 SHGC 0.31 Dbl Ref-D Tint 6mm/6mm Air.",
               "Adding construction Typical Insulated Metal Door R-1.43.",
               "Adding construction U 0.35 SHGC 0.35 Dbl LoE (e2-.1) Tint 6mm/13mm Air.",
               "Adding construction Typical Overhead Door R-2.0.",
               "Adding construction U 0.48 SHGC 0.40 Dbl Ref-D Clr 6mm/13mm.",
               "Adding construction Typical Interior Window.",
               "Adding construction Typical Interior Door.",
               "Adding construction Typical Interior Partition.",
               "Finished applying constructions",
               "WWR NonRes = 0%; window = 0 ft2, wall = 0 ft2.",
               "WWR Res = 0%; window = 0 ft2, wall = 0 ft2.",
               "WWR Semiheated = 0%; window = 0 ft2, wall = 0 ft2.",
               "The skylight to roof ratios (SRRs) are: NonRes: 0%, Res: 0%.",
               "Started creating thermal zones",
               "Finished creating thermal zones",
               "Running simulation /mnt/openstudio/analysis_4fef0e0f-5396-4c55-a6e1-2cd6803db3ab/data_point_a0eed643-2cfa-4b1e-bf28-5c9f6515faa1/run/000_create_prototype_building/output/QuickServiceRestaurant-NECB 2011-NECB HDD Method-CAN_BC_Prince.George.718960_CWEC.epw/SR0.",
               "Finished run.",
               "Started Adding HVAC",
               "Finished adding HVAC",
               "Started Adding Service Water Heating",
               "Adding service water loop.",
               "Adding water heater.",
               "Template =",
               "Finished adding Service Water Heating",
               "Set sizing factors to 1.3 for heating and 1.3 for cooling.",
               "Running simulation /mnt/openstudio/analysis_4fef0e0f-5396-4c55-a6e1-2cd6803db3ab/data_point_a0eed643-2cfa-4b1e-bf28-5c9f6515faa1/run/000_create_prototype_building/output/QuickServiceRestaurant-NECB 2011-NECB HDD Method-CAN_BC_Prince.George.718960_CWEC.epw/SR1.",
               "Finished run.",
               "Started applying multizone vav OA sizing.",
               "Finished applying multizone vav OA sizing.",
               "Started applying prototype HVAC assumptions.",
               "For Fan Constant Volume 1: allowed_hp = 1.01HP; motor eff = 61.5%; total fan eff = 40% based on 523 cfm.",
               "For Fan Constant Volume 2: allowed_hp = 1.01HP; motor eff = 61.5%; total fan eff = 40% based on 925 cfm.",
               "Sp-Dining Sys-3 Flr-1 Sch-B HPlcmt-south ZN NECB System 3 PSZ does not require an economizer because the total cooling capacity of 24653 Btu/hr is less than the minimum capacity of 68243 Btu/hr.",
               "Sp-Kitchen Sys-3 Flr-1 Sch-B HPlcmt-north ZN NECB System 3 PSZ does not require an economizer because the total cooling capacity of 13935 Btu/hr is less than the minimum capacity of 68243 Btu/hr.",
               "Finished applying prototype HVAC assumptions.",
               "Started applying HVAC efficiency standards.",
               "For Sp-Dining Sys-3 Flr-1 Sch-B HPlcmt-south ZN NECB System 3 PSZ, ERV not required based on 0% OA flow, design supply air flow of 925cfm, and climate zone NECB HDD Method.",
               "For Sp-Dining Sys-3 Flr-1 Sch-B HPlcmt-south ZN NECB System 3 PSZ, ERV not required based on exhaust heat content.",
               "For NECB 2011 NECB HDD Method:  Sp-Dining Sys-3 Flr-1 Sch-B HPlcmt-south ZN NECB System 3 PSZ: DCV is not required for any system.",
               "For Sp-Dining Sys-3 Flr-1 Sch-B HPlcmt-south ZN NECB System 3 PSZ: Annual occupied hours = 5421 hr/yr, assuming a 0.15 occupancy threshold.  This schedule will be used as the HVAC operation schedule.",
               "For Sp-Dining Sys-3 Flr-1 Sch-B HPlcmt-south ZN NECB System 3 PSZ: Setting motorized OA damper schedule to Sp-Dining Sys-3 Flr-1 Sch-B HPlcmt-south ZN NECB System 3 PSZ Occ Sch.",
               "For Sp-Kitchen Sys-3 Flr-1 Sch-B HPlcmt-north ZN NECB System 3 PSZ, ERV not required based on 0% OA flow, design supply air flow of 523cfm, and climate zone NECB HDD Method.",
               "For Sp-Kitchen Sys-3 Flr-1 Sch-B HPlcmt-north ZN NECB System 3 PSZ, ERV not required based on exhaust heat content.",
               "For NECB 2011 NECB HDD Method:  Sp-Kitchen Sys-3 Flr-1 Sch-B HPlcmt-north ZN NECB System 3 PSZ: DCV is not required for any system.",
               "For Sp-Kitchen Sys-3 Flr-1 Sch-B HPlcmt-north ZN NECB System 3 PSZ: Unoccupied fan shutoff not required because system fan HP of 0.53 HP is less than the minimum threshold of 0.75 HP.",
               "For Sp-Kitchen Sys-3 Flr-1 Sch-B HPlcmt-north ZN NECB System 3 PSZ: Setting motorized OA damper schedule to Always On Discrete.",
               "For Fan Constant Volume 1: motor nameplate = 0.32562129116874006HP, motor eff = 61.5%.",
               "For Fan Constant Volume 2: motor nameplate = 0.5760729011798729HP, motor eff = 61.5%.",
               "For Service Water Loop Pump: brake hp = 0.0HP, motor nameplate = 0.1HP, motor eff = 70.0%.",
               "For Pump Variable Speed 1: brake hp = 0.04HP, motor nameplate = 0.1HP, motor eff = 70.0%.",
               "For NECB 2011: Coil Cooling DX Single Speed 1: AirCooled All Other Single Package Capacity = 14kBtu/hr; SEER = 14.0",
               "For NECB 2011: Coil Cooling DX Single Speed 2: AirCooled All Other Single Package Capacity = 25kBtu/hr; SEER = 14.0",
               "For NECB 2011: Primary Boiler: Gas Hot Water Capacity = 30kBtu/hr; AFUE = 0.85",
               "For NECB 2011: Secondary Boiler: Gas Hot Water Capacity = 0kBtu/hr; AFUE = 0.85",
               "For NECB 2011: 100.0gal NaturalGas Water Heater - 100kBtu/hr 0.81 Therm Eff; thermal efficiency = 0.81, skin-loss UA = 14Btu/hr",
               "Finished applying HVAC efficiency standards.",
               "Started adding daylighting controls.",
               "For attic, daylighting control not applicable because no exterior fenestration is present.",
               "For Kitchen, daylighting control not applicable because no exterior fenestration is present.",
               "Finished adding daylighting controls.",
               "Total Time = 44sec."
            ],
            "step_result" : "Success",
            "step_values" : [
               {
                  "name" : "building_type",
                  "value" : "QuickServiceRestaurant"
               },
               {
                  "name" : "template",
                  "value" : "NECB 2011"
               },
               {
                  "name" : "climate_zone",
                  "value" : "NECB HDD Method"
               },
               {
                  "name" : "epw_file",
                  "value" : "CAN_BC_Prince.George.718960_CWEC.epw"
               }
            ],
            "step_warnings" : [
               "[openstudio.EpwFile] Successive data points (1988-Jan-31 to 1976-Feb-01, ending on line 753) are greater than 1 day apart in EPW file '/usr/local/bundle/bundler/gems/openstudio-standards-f448df66933d/openstudio-standards/data/weather/CAN_BC_Prince.George.718960_CWEC.epw'. Data will be treated as typical (TMY)",
               "[openstudio.EpwFile] Successive data points (1988-Jan-31 to 1976-Feb-01, ending on line 753) are greater than 1 day apart in EPW file '/usr/local/bundle/bundler/gems/openstudio-standards-f448df66933d/openstudio-standards/data/weather/CAN_BC_Prince.George.718960_CWEC.epw'. Data will be treated as typical (TMY)",
               "[openstudio.weather.Model] Could not find ground temperatures; will use generic temperatures, which will skew results.",
               "[openstudio.EpwFile] Successive data points (1988-Jan-31 to 1976-Feb-01, ending on line 753) are greater than 1 day apart in EPW file '/usr/local/bundle/bundler/gems/openstudio-standards-f448df66933d/openstudio-standards/data/weather/CAN_BC_Prince.George.718960_CWEC.epw'. Data will be treated as typical (TMY)",
               "[openstudio.EpwFile] Successive data points (1988-Jan-31 to 1976-Feb-01, ending on line 753) are greater than 1 day apart in EPW file '/usr/local/bundle/bundler/gems/openstudio-standards-f448df66933d/openstudio-standards/data/weather/CAN_BC_Prince.George.718960_CWEC.epw'. Data will be treated as typical (TMY)",
               "[openstudio.standards.Fan] For Fan Constant Volume 1, there is no greater nominal HP.  Use the efficiency of the largest motor category.",
               "[openstudio.standards.Fan] For Fan Constant Volume 2, there is no greater nominal HP.  Use the efficiency of the largest motor category.",
               "[openstudio.EpwFile] Successive data points (1988-Jan-31 to 1976-Feb-01, ending on line 753) are greater than 1 day apart in EPW file '/usr/local/bundle/bundler/gems/openstudio-standards-f448df66933d/openstudio-standards/data/weather/CAN_BC_Prince.George.718960_CWEC.epw'. Data will be treated as typical (TMY)",
               "[openstudio.EpwFile] Successive data points (1988-Jan-31 to 1976-Feb-01, ending on line 753) are greater than 1 day apart in EPW file '/usr/local/bundle/bundler/gems/openstudio-standards-f448df66933d/openstudio-standards/data/weather/CAN_BC_Prince.George.718960_CWEC.epw'. Data will be treated as typical (TMY)",
               "[openstudio.standards.Fan] For Fan Constant Volume 1, there is no greater nominal HP.  Use the efficiency of the largest motor category.",
               "[openstudio.standards.Fan] For Fan Constant Volume 2, there is no greater nominal HP.  Use the efficiency of the largest motor category."
            ]
         }
      },
      {
         "arguments" : {
            "__SKIP__" : false
         },
         "measure_dir_name" : "view_model",
         "name" : "view_model",
         "result" : {
            "completed_at" : "20170710T184513Z",
            "measure_class_name" : "ViewModel",
            "measure_display_name" : "ViewModel",
            "measure_name" : "view_model",
            "measure_taxonomy" : "Reporting.QAQC",
            "measure_type" : "ModelMeasure",
            "measure_uid" : "f4669f10-fda5-489d-8e1c-7ca3c2d40378",
            "measure_version_id" : "f4975c5f-7c25-42a2-927b-02d99b4427ef",
            "measure_version_modified" : "20170526T150340Z",
            "measure_xml_checksum" : "1E1F8B97",
            "started_at" : "20170710T184513Z",
            "stderr" : "",
            "stdout" : "[OpenStudio.Measure] <0> OSArgumentVector is deprecated, use OpenStudio::Measure::OSArgumentVector instead.\n",
            "step_errors" : [],
            "step_files" : [
               "/mnt/openstudio/analysis_4fef0e0f-5396-4c55-a6e1-2cd6803db3ab/data_point_a0eed643-2cfa-4b1e-bf28-5c9f6515faa1/run/001_view_model/report.html",
               "/mnt/openstudio/analysis_4fef0e0f-5396-4c55-a6e1-2cd6803db3ab/data_point_a0eed643-2cfa-4b1e-bf28-5c9f6515faa1/run/001_view_model/report.json"
            ],
            "step_final_condition" : "Report written to <a href='file:////mnt/openstudio/analysis_4fef0e0f-5396-4c55-a6e1-2cd6803db3ab/data_point_a0eed643-2cfa-4b1e-bf28-5c9f6515faa1/run/001_view_model/report.html'>report.html</a>.",
            "step_info" : [ "No changes made to the model." ],
            "step_result" : "NA",
            "step_values" : [
               {
                  "name" : "view_model_html_zip",
                  "value" : "eJztfWtz3Day6Pet2v/A1am7GtnCCADfcpyq2E6yqZNXxUk2dsrlAkFQ4mY0nJ2hbMk5/u+3G3yBrxFH9sR24tSuxQEaQHej0egGGsAn/3j03cMfn3z/uXWeXyw+/fvfPqn/KhHj3zzNF+rTn1P10vomi9Xik5MiBbIuVC4seS7WG5XfP/jpxy9IcGCd1DlLcaHuH7yAkqtsnR9YMlvmagmQL9M4P78fqxepVET/OLbSZZqnYkE2UizUfXZsXW7UWv8SESQss7LmjVynq9zarOX9g/M8X21OT05kvPzPZi4X2WWcLMRazWV2cSL+I65OFmm0OcnP10rN/7M5Wfus/HGRLiHh4NNPTor6ttQ8X4uXZ2mu67xYx1kWtStUV+JitVCbE/iNFK6zxebku3WU5g/LX1Nb2kZDLHJydpme0LmL33P43oWIbVWfbcTqhM2ZN2cnP75Uavl1mg9z6KSSiSiLr3Vr+fVCWfn1Cvo5V1f5idxAkb//7X8QcEMuV9bvf/+bZUVC/na2zi6XMZHZIluf/k8cx/d0TraOoZvXIk4vN6fB6kqnxulmtRDXp8tsqXTCSsRxujw7pZa7urIYLeGylZBpfn1K54FbwGUbkKJseSqiTba4zIvSC5Xkp25VCPEkYpGeLU8xQ6e9IukyVlenjMLP14C/RpNEYl0SoNE8ZdA41JvG1v/4vr+lxSjL8+zilFdtagzqX6sshYGwJuoFjIbNqVgsuq0SFCSRLlXZfp8h7SqM9CF08rVYlunnKj07zy0Qo42lxEYdF5lJtr5oJWYr8yfi3/wusJ0DB7O1Ik3lBa67Nmb9I71A/SCWeVlxw4Y8lb+NiVDVA0Ujp8wtuav1ySmved1nSKcNkAcDc0TudJ3lIlczm9JYnR3da2WSbJ2epctTZFEtQFUHpcsF9BqJFpn8bUuHdEgwWDbEoRLlAqkC1YpoEEiDfdbJHeuL9MqC4la8FmeA5pn18lwtraJsbN05GSQ0rOg02pnGIu4bRUFXoEJo9BB8/f1vL2AUZZvnoLWEdd/6/QDnBvxxcPr7wQu13gDZB6fO3D4+QEVycHrwXfQfJfOD44MzBSNA5NkaE1dq+Ti/jNMMMqLLdIEK4THkXX8L08zm4PTXgwdlqqWTLQaAnSR+8AwKoxRB2oPsClEARffLAagQeoyfTw5OiTv3qc/9gAecUjdwFGG+znxawYkrKMLcOXd4oH8+af8EQHfuBiHQtMiy3z7LsYXq+4nx/dT4/gHqADVsOz6llFObhbZnv36NbMiAZ+tUU/n7weVlGgNDqFS2zXybOHEYEsdzQyJsmZDEUTxxXOqHIT+oefplUcc1pBi8h/GlK9W428dIHPHnHmfHZYo9p07YSWPzMOCYZnt+k0bhRztN14b/tGHonLtOp/4WlK5dQ0FngYq5EAvEEX5cvig/ElHgTY+h3DE/xr/8GJo8duD/xV/72IW/HnwVf91jX0Mx+Ma/3rEPNWlzAxh/DHbKJo3wO19fquMDKTb543MRZy+rlLWSKn2hqsQE0ILUOLuEUo/TWMUFIPRY3Ucxc+zYtz3CHVcQhyc+CWjgkDAJeexIL3ISZ8c+GuZ+w7Nt3DZ7aVfe7p1XLHE9J/QS4stQEieyQxLETkQiSZUMw0iIUE7lFcpTX5hHUirg6sd7xxlu88BNkpBw6YEUycglIQ19EtqUByz0YqHYZCnioNz4sdZOw2PdYE07hc9BksyCOzAKhyT/AxgVKtsNYxIGEvSiiG1klCKgDONQxpLxJN5FhPraaTSl4KRRaFcO/UGi5NlektiMSNf1iBO6kkSMA4diL1FxHMHQS3ZUSFsZcHzTSHz/OBS6FHSzR5SfUJAh8FADmnASJYF0Ew4iFqpbyFClgYeGmskU49v4/d5xyQ4TT3FFiau8AC2QhAiXRaCSQFXz0PMj5zYj7Ubb4wYd9d7xyXEDL7YjRZTkDFS3nZAojgLClS8l0KVCKvYjTR+WXvJdFYFJFJEgZD5xbOaQQHkUBmEAGkvZcejvNPlv19wDcyBObuy2s5s2PffPIwGTGwe1bYM9RJzABaXkxpxQ6kcu9bgdRzuNOVPfDKigvtHU1uXvnQzBZEajJA6JJ0F80IsiUciAXbHgUSyBa/Zk/vTFYcAgagvaVH7snw9g/Cjb4ST2A5CTmCqwgpgNwgL+rBJuoAJ6a908zIXBqev9lBLhRSLmNCCRj25zKMBtlqFDPCoS4Bu3nWCyprnZmO4roN0mqv2zQ0kRJr5DIgHOqRP4IQmV9IgXgeaNwHcF93EfE/mHo1ak4J5KJCU8YQoEJoDhFCoOP6WrbLClw3h3tVt9GGKiRcV05IsEw4vv2NJGfrEaMDhYzfWCPayn4GpK8df/A6QVBNWJbccl3I4SMM6pQ0QowRN2bQdsc9/3PXeXvhjgt7G6Mshgs0feO1mNo8hjaGkqGxcGZeiRKKCSgEluKy9yVOhPXhO8hVnel+r3jkPKY74NfUykbXPgUIyGZuCSOJRe7MiIhvbkyXGy+b19/ek9dV2U4MqTCqYCxsHFYy4jkecx4tsBc6XjKEG926wvj9jkzty33WZAGinleGsv0sGHS4NubksOi/yqvg9e9zmx79PQDYhiQhKHiwgMFzB0XRjlMgk4i9X0/uhxu8uuPn97/fGeSOwz3HHJ1TotEDEsGzdJaBwQ6QaUOBTXk5ntEMpBsj0/8mWAuhCDFAD6p2WsknSpjKn8G7U5fyA2qfymrB6y9J4YEODBVMOZCxQBKgen3OinyOeJiBh6aNiuB0ZDFNKIqFA5NFCJYK5q2v1Wc9BowWj8+/NsebatcXERpWqZm0nqIt1sgG96X2mzUvJyIdoIn6dLoHMDvHIBpNxC132iN/dWYq2rLBn+Ml2rZK1xLVP6FLtxbCeMJYTFMczK0gfHK/AkaAquwjCImC35GMXPP7/Kb8Vyam4dUPD8AolrK8IlDrh+RDAnInYgqespHrLAG0Xgq2U+le2MeQFts71MGmd7CfCW2M5MhcAcIYSMCbUTmMqE4ER40iU2FSJ2koDFfthQ/cUiAyqmEBo4wGbqGHTWKSNk1vl7EK5QBIEjbRg/Mdh9TgRUhg7+I3kSxgGLwtDuUNmXqfeWUlOKYRChN+GROKIeag+XCDvxSBgJxbxQRaEnupROFl7uep7j2abw1kljwlsD7EF4vVgwj9GQ0CSJwauiPgGp5QTE1vGTxHUlixpi/y0WE3WjDYYKZWaXNkljdNYAexDfyHalHSYhDE0GswEDtRgoF2ZtFssgprbLErtN52TpfS9oNQU4Am0UMbBQnACMEydMwDtj0iGJDIEFtqJ27HdonSy/ruPiIpZJa500RmsNsAf5DWlMPS+QJOK4jIT7jYFUPolsFgifO9DvhvL9IcuShypdpMuzaeRS6niu05pr6qQxcmuAfUzxoeMLcIGJFzKB5LokYowTpRKecM+2HdsZJHe6NL8PJJvSrHzlSA+XB13fh5ELnRuKCH/GAVe4Jx95wyRPFmqb+57rtQy5Oml0AFcA+1DK0leMhYwAaTaYrhLkOZAhYWEkbd9nMvGoMYDTJZrmUyj1fJs6jqmp6pQROuv8MTLp3OsQWvgNk5QylQImWTBYmQ+uVAjECptHBDwoGiQqZI4KunROFuT3gFZTjMH6dBUPHCITAX1q22BQMNy4tWnAWOBTL7J7tE43KzwHBmHbrKiSRs2KCuBtkdsSYSaFE8BYTXyGAQ4OJWEATgELXMYl52ESGHbFo6k2MSDsMRh7be1UJo1rpxJgDwoZXKFEUMcmLPFhwgX9SyIXvEzwdiLuCxGEXtymcxdN/O5pbWliGtpByG0wmsCQchyMovMCEGbXj5NIhEni2R1ad1DBAcwgYVsFl0njKrgE2IdTJ1Sk/BisiYSBXeyDcSxCyWD0OokUAbjUIWtofZzmeoVkql0B48GnoTlc65QRYuv8fdjGjDKK4hsxATKsQrCNfdsG105G0pc2BdkepHWyKL97ek05Bu+OKl9gsK7AlaFEENBKgshAelw58P84HKZ3uj4GrR66XksfV0mj+rgC2IM4U+FKqiKfxBLmHMeFryCEOTfhzA8TX0nPNKKqaO1dRNp3uMt836C4ThkhuM7fg0jbUoZRFINR4YSKOEnMQLhtn9h+5LpRxJWizii9k8X63dNsirVje8wPuENg0ALNfoTxlwHF+Yh7oLsYqK5xmieLtsOpH/otU6NOGhPtGmAvxrKIk9BFS4q5xOEcLA0bxrVERylR0mHm8ttjaHEnVe1SGlLfNCPrlBFq6/w9yDUPXR4qkObQVR5OvAq610vA8FDCk0omYeQOEztZqN89wS2zOfRDGoDFLBjGRbjYuw6VxEXabWiX0ZHe3UFZg/3mtzyFJmlUWVcAe5Bo21ORjMOYqAB3mMDUAJojQVTo8cSlvvJ9w876Cg+gpdn6e7HO9dmlx5dr3PmZaGM6FGSqZXfVSaM2ZgWwBwEHt9cJ/DgkMY/B7mIJbppzRkDIPcmiMHCdCbTvYGO/B/S31u54ANpMBoRyB5Q4zllhrIAdoM99L1Scud4E+qdrc8p8brOWNq+SRrV5BbCP9TzhJ3ZgcyK4j9sMQH+kQkrsBEaA67uJHxp7WA/wCJlYXz/fRebtkHmBQXD5e4TaMncPop54CfUCUOOUomqjMGeJhAUkDOPEZTIIZeINkPpZnIpI5Kmc1sGejytGTnu3rEwa3y0rAfZAtSdiRv2EEREHHJ1IhwTMhxksocp2FJN+Eg518GqySnsf9gdNigPX9cJEOHgaRuDOGdjewhY4e9sicFylzCWCmuLvLvMYXOjNRD3m244fthyOOmlUj1UA+1io5oqLKAS5xkhpJ4pBrimXxI58qgKWJImtthANA3o5iXAOshq0hnOdMkJ2nb+P1aDEE8pjksgY/nGkFxLhS0bw4JjPg4CBDttGNS77TVvctKkXmiJeJYwtbZbZe1Fjkko8BieDCDS2pC7Y30FMWCwjDm48kE5v6OnJZDtgG9CW71GnjK0jVPn7cDIdlTieBKEWePjGx30212ckiXAFQXp+YA/19pf6+PzkrUXP7m0tFklbthYLgH0IOE3CEGoHb9rX+0+4M+HaRIYJLubbTKlxkhMJc3SerS9Ufp5NZAAe/OZ+ZzeqTBpfAy0B9qHXAk+CA+KBtKMKFx4nkQ4tYlQIcDdtZg9Je8GAzUJEq7VarTMJSGVr8UKtxdnkac2jru+1p7UyaXxaKwH2wAmJx4EwFDvy8JywCjwS2DHGdQU8gh6IHF9M5oTM1pPZ4IJ5yNtsKJPG2VAC7IMNIhRejEtpviNQCSQkCGOQj8h1Y84l98Ihe2aYDSugFkaHmrgZAnTBFB52eFEkbeFFAbAP7eC6iaI0AoUY2WDbxZJESSiI9KTNglj6XjzOi0hs1AW0ODBAXk4PO7ED7tCWuqiTRvVlBbAPdQGGjheEHvFcPE+XgC0QKeERP6GgMWOWOGZ4zXSOJJOjyIC8kDLeYUmZNM6SEmAPLHFC2/Wi2CYwX4CHa8fg6/m4rBPBdxDazA+HzOFxllyuYNjsIiJhAOZKhx9F0hZ+FAD7cA9CQbnyFZjG4PY7UuJOachJCFMp6NfQc8WQGzjOj0X2cid+4CJD6HZMjCJpi4lRAOxjiZMrmEZVCBpUR/QELgmAD4THzBa2C35x4A/Zk/k53mETK5mpJEklkjLNd3KY47SXgOqUMaOyyt9HnCXMFxFMVgR638N13YSEwrEJZz5PQjdxaTg0rRrkL2O9FLS5wFviplpZYC8FTtvKKpPGrawSYC/eowfeuCfBZ3RwmRu0RRRT8CmYC95EJB0ljO2bh0Bsvr6USPXzH69XqRQLq1oas3YJj3FDFgbmYlidMuZXVfmjTMB7im6tKiMFsiAdEvshzKcwc5MwcSiepA1t8CcV2KIjbPjJonMnsB7/68uH+EWtR9HC+gGE6ZH1cLG2vIuLE2ZfXEwTDzAaQORbpmedNCYeNcBeOKOYoD6ukKooTIhDJe6IsJD4kW+LBEaOE4sRzjy83OTZRfpKxXhv3X8vFd6HWGdbv7tM2YlUeGIX9w8jBqqYxXr13WVRpHw7Zq+tPMNiMRQSS6msLAEu88CZard5nt+ekuukLaZ8AbAXfvoBh7GFu6RRAgOO+TGJbLBnqaK27wvhumZ00k785KGizLHBR6RBBF3FFREK9LnyqXQkuJOJ9If5yTw+UX251PPbU3qdNKq+KoC98BP0Fhex8ogbSY4hFQ7M505M4sQFi5gFUcDG5FMHlFv1Km+Lm5PYETC8lcgcrXXKWDR9lb8XXtg2zORgxRCPeg5ekGbDgALdDqYN871EYAD2jcp8A5jixXnfqBx+19fJYbin9QPhoOLYJOb4gW37rrmCVKeMbdlX+XthTgxy4rg2HqJ1QOVQ3O+CwUgSNwHvMeCxH3s7MgcDr4AnbK53yiapI8fhfselLpPG1VEJsB+RkSJmIUx83GcYxh5xEjClSAw2B+6DMSdgU+f/em9s4oaYA5R5Ld1cJ41uiFUA+5nr/Ii53JbEtvFUlZuEJEgEI77jCcbjOHbZbXXz7ec6sEWmCpfvhV5nriuTthySKwD2I1xBFIPewaV5BT555EsQrjAmIrF56PCEBd7NxmU15B6K9Urhh5curccLEVnTD3iF1HU5NcddnTLCmTp/L4yhSsQBygAL0AiQjguTFuW4wgu+F27fqJsVdWV1T/U/TckYF4l9yYKUvpS2cGCeVjAABI9A/YLbSSO89TPxOBfJZFn4/Kok/hux2RRygHrYnXtTFbHjuF57sbtOGh0rFcB+7EKhPA+MQCIDF0N+hY4KBVuO8QTUErjiPBrhD3ogtlt5IPCFHsjX2efWTHEyZ0fWj+kyrx0R67N04nqW67k+s1tMqpNGTyBVAPtx05QEwREwc+NiFjhtgggJFrSkPLa5IwJ/VIiQSW7DJGa4aTV7vF2447jc8eyWKVwnjU5fFcBeuMOEdKWIJEGlC0MsCUggeQyzGfhv4MkmIqAj3EEl8iaWMMYxtPcK6pTxIyD+9p2CNzL2hON5CbhVfoiCEjOPBLHvktiOQybsUATJzdqm1DHTpxnueq0V8fL32PZ4kbsX+pM44m7kKwIaC+9LthkRLjjxLoa1CVsxqe98mkT/Tsf4OMWbV1obJXXSeIRfCbAXVrght3GbmEgXjwMlYOtGTkJJ7MpEKFAm0owU2M6K6adnMPTBb5/tq5O2BAMVAPuZgIPAt90ATM6IYrS2Akc59iLCo1B5boRXM/o3G7dfKMALUCiubkdj9T6dc06t/EW6gc8gDKx8ky3w055ouIJN77phS2bqpFFNWgHshVeeYg6lnIEjnYAmjTyPCBVH8DNULEDBicYWFW4yVrSmBVuFz91pmtV1bbe1Tqp/j66S6tz9TL5gmUTgAZEkwIBRvPkCjHjwF50ABpGMQKGPOdAPys2T0lTbeXpxQubaLUukThk91VLm70e9wmCyHYr7rbhcHODlnQ6evnMj8GpoJIW8aXr57oVa45sh1SICn9NpowX8A7yirrVEXCWNLhFXAPvRsJz5ThL7REYxKy4YDMMATHuYhALmhQ51xrixg2bRn4Vm4fbE5UrX90AMWsvpddKoBVsB7GcQ+SIKHKGICHDTCe+kjpIIr+xxcPlX2eAl33KJwY9pFAYSJnkHox8Vmn8O6LAwkpEXoEqznZHl9Gkreo6Ph95Ni7dOGRuFVf6eltKpw6gT4GEF+CfBmxxjXK4Rke1IjpP+2MxeKyStjnfWR+/h2pWHp1VUEJMkDoAZ4EqSiIN2DoVvK186OPvfdu0qTgT3wXiKuIOzoU1JxLyY+LHkSngRGHDiDfcV4L+QspYzVSeNKrUKYD/8BBXGqe8QGjr6iidZrGLZygZuOng/gLolP4NIJZEEv8SN8BQoh66CCTQmylUiYkpGkDnETz6fxk3OPRtGvumIVCljrkiVv6c1ZlBMLthQkYrAGbOpXxyqAvlkrgPmQzy68r7L/BA61fxgT50f3r/1eBnwIKE4gqmkBO+0IqF0XQI6HL0VykUwtmR6k9jZfhIlscNw28OFbkgUCWHmJor5CQxiaruhehOxw8Vk1w6CzgJ0kbRlAboA2I/kgffvUx6SRKEd77oR+H62JDHFgMEk8kU8xs3K5/vicr1MEbmzaTEu788aAKVCUO7ahEvc8HLCGIl3wP/DuN1YeR5/C8POcVhtlunjn1O0vcvD0GtHOVRJo9q+AtiXw+eGLsc3HfA2Jw/Pygj0cjzwInyaUOUbC/I/niu8UO9ptlTPH6+IyHHN7PH1hlBwcNaEW4/lOSHWZXXDokWsf32/kBc5wehb6+m30zYtsIMCcwO1ThnbtKjy9+P0MK7cIEwIqGu82AssrSC2Q2JHIQMd4nu+ec1jh0f/m+YSn2VDLtmaS0xz6UHFmWW2zs+nsoaBygAnoHU0uk4aDaWrAPbCHeHH4PYJSuIQjAYw9GI8oqBI7LgU/AmfS9M77nDnESJ0Ns6cTXa5A3NQpwZB97bMImmbHtYA+xEdyh0YQoywgEsQHXCaRQweYhDQRIkEt0YN41SfQAM/WRVn0awvLpfFFNYaUpN5sYebQ9+EF0EEVp/PwXwGNYz39eCxPLxBIIyAD0LYgbnRM8qLL7IstjAYVRS6+UNlh2IemDyhR1iMs1Sc2Kh5KbF9RwZRAvxhyQR2lCOIWPiC6SK7XJ6pk4VKN5fTTzu8b5xxAzD8wgA8EKY9OryOzfNswsAXcaMgSEJqHuwzH4h8PvAw5LRd0YCz7q5okbRlV7QA2E90lwy5g4FdtuMqkI4InFA8yOv6CV5L4PPIiybyYJoRi+uGrLPOOB6UWua+RdKfQfHiMdDT5qS68h2RRAImXrx3w4/RcLfxjRMHb7x18dbyhrjHEiy2A31F9Dq9wquv9XXUxdXUA1/QojwHTgGC5mXSjHN8isgjgtnQqJKShI6fYLA8T4QrHG4eHiiG3/PiNk+x6RyJP6hf9Lw+mPyMZ3XF9cHkq1N3oBif2n5U3hJ+LpYx3ss9FbFxkjfF2fgfC8rLwAzTCfu2tLX3u5K3QdX4rYkldkdjcXxb6dJd7I5NpXm/NTTxVP3be73WGKyGioLWcBxUofYPqwB7gDbOaI9BFY/olrXfCPevsteXl4sFdlK6lAC8zP+d5uffFSXLV3nrIXq5/PxqlWmSgP7ylw7UeZkuYyPv39VPnWlIRaVvSiRLCYlKDDu52w7wmvLSKfaHrhk3QtXB4vYGbi1onRpvOfW3RK/L4e1zZutNnASD7F1BqJfoiQisNldEJPH8xPN8JQIzTrKrG54PHY1oa8WJD+eaWnHa3aVvqhUnInYj5W3l+EV6peI6b7uO3Hln6KMC/FAUYCUAf4wK3H2L8S+j3zgN7TgGvzwSeqVUUSKUxPfRBGNuGINLpnqjfCAyqq3UJr5wbSi1iU88vKlSm4jYMLkdTVam3sLOe9Og8D+jnqvv7Hg/tNy3WXE/TkfBfZuVWmhct1VycZNqqwl+WzbdGx81+MsoPTDp7CQOXRLio9eOpwTYUooTKamnvJjSJDYCZvUKNVlnWbJN5U18ut5QeRMfVnhTlTcRsSFi2wqv/bTDLdTem55TNNWe3nsZ03q32pi5Qf9116AnaDz+F7Ts2kLyDj3cNz4UO1UbvpmwTdWLW8VvF03I25qQKR5LG+cMvAbA4SERNIiJcGAqkWAacWmEpZX20GBgeFcbhgrUF96PDGrNEbGNSkcRl/pxKGM83BK/I204CbExgnfUiFti6v+MNlxzR+gkhaZHDtEX7RBopOTBNB039QHYrVqweGzjbRl+u6m+hldTNd62Axp/GdPN9QX0rIu3wzkSzy0zUOu+ILFnU6YYxsHT3vjVq1Lfasvm++8/u8yzh2sFGOgbXbZqMc/28KU6IjFe1wld0E4MJhI39hIVxxH4kMk72bGYiNhOXJi6iTF2ENVUaGXUx5hG2yUo5AaVNrAd/ofrsR5/p2uxiY/S/4FabOLexFtQX9UB5qm661ZSM1V53SRHt9dYtsOiGG8TCMIYDFEH7KwgwYcyHIcpClaP8oyxWhLZFqZxBRW6lKPlpvyEgjUD3mxAE06iJJBuwsHYCdW7UVDTENtG9Hu4qfqBq7U/pcP519lL/UD1n+OKiEoWE+pFeKExKIXQjz3gVhSEbmj7jnmmslIFE3xMO0w8xfGBP4WXQ8chRvGyiIS2DMEL8PzIeTc+5kTERinej5P5gSuvN/Atf6spn2iVOW7gxXakiEIH05E2vrceBYQrX0o8MB1S8dG3/JPopwAUdhz5EUlCGeH6OCWhsB0CnqbERUQa+oZHOSxXozpqoiT98RuhExHbSvXk/dDRqzX+ZCv6O+qovuafqJ8mTjB/oH6auun5FjRTHXzwl1ig90Ie4TNFJPLxObqQuSRkIiS2KxjFtweUMqKw9PLdjVuVvquikIMzGoR4ZbqNtxgojxKM+7XxzYHQ70Rn/EGG00TEhoj9uFX5cavy41bln1kTstgR1JaSKEc6GIkrSKg4JbGvwJMUNEoi40hINbfeGKqGd2+4+IKWrSSqNpeTyI05odSPXOpxO446XuQfZKFNRGyE3vcyVu0Dd0E/hqh9MCFqH6gvipebsTCUxE4i0HEhnrtK0OyCRNv3VdzaK3ipNvmNxl7oSlCNcUg8CeaU41NKopB5+MIBj2IJysV+N6tkExEboPWjrffR1vto6/2ZbT0Xr1xP/Ai0Hz6CCEoRXEIOxlYS+jBVSF+ZT761tg//rbafQsW4L2U7HOzGAOchiudpmQ22VcCpEm6gAnrwLrZMJyK2heaPO6Yfd0w/7ph++FagoxzOmUgIjQK8uRhfQA3wpFJoxzLmdhAmxtq8EhOsQOFFoLJoQCK8e19f1Slk6BCPigTUDred4N0s+U1EbIDWj1bgRyvwoxX4p7YCncANbNANPppFThRJIrjgxPZkIAORxAkduYrkxsC5iXGXf7wVOBGxLTS/zTjev+jBhGkB0xM3ayfGan8M8f0zHE/wAteTkkvC3AivRLcDIkLXAUuO+0LGERNjgfk3+a1ScE8lkhKOL8I7YQDuYag4/JSuskG+wjh+JxprImLjJL+HbuufRe/9Ka24v47/+sGrQ1tE1A7AZPO8BDxZRRPw7lxBItf2HM+ngZdE47phwu1JYCk5se24hNsRPn1FHdC3Eu8Zt52Ec9/3PffgXdyeNBGxGyn/eHvSRwX48fak91W/KVAa0mUukWDvEcf1fRIkjBKwe8DOjxwvEiNRtM155/Gb4aadcP7jI1MmIraV6o+xw2/FRd05dHji/QcfQ4f/BMtn3A2TOLCJEtwHS8ejJAhiSiJbMd/BB0P52IbiTVf5Ko/5dhhwIm0bFI2MMVA3cAmIkBfjEYrQfjebqBMR20Lze+iNftxEfQ9tsL+ME/qBbqL6XgxunZOQmGMonQBXTHh2QJJEKhWCUrAHLrbUiuAxWp1btZ/Am9eVRzyG788xl5HI8xjx7YC50nGUoN670X7TENtC83uo/T66oh/V4HugBj98X9XmXHhgGtFQv9YKhmFE8dK3RNGEOYxTOrKzqJXDhMU4J/Z9GroBUUxI4nAREYGxvS54iDIJOItVVy/+MYtxExG7mfSPq3EfVeDH1bj3S8M9e/363t//9gLqXStwo9dqfWxt8C2cY2uRnp3n5a/nxfM6m+qnis8U/ChSq1+NBDXgkZC/Vb/KhlZqjW8B5ekL9RCwXAuoB2zg7GwtVueprNJMsGyZr7PFpgNYplbVrjNs5diqNCSAQ3oqooUqQWJQbV9kixiJhG/1Y3pR1V1C6PeMHoj1cf2F+SJdKiPpX6rgTPX732mcn5cVXGSgQx9lL5e/HDffT6r21+Lsl8e5WENh/H6ivyGz7AFxLcGNVmuzrvIbHz3f/LQqf6W4JrMBalUMPaIW+ut5RfhA0nPsh7qhM5U/hjlhefbFOrv4OpNigQIhzpR130oqoZv9pq4BTZWIy0X+s1hcqiPr97//zbJguio+LOAvJEOhhVHHHGr/KlcXWP7oXgGXJtashL1vobo5KiuwQOzyy/Wy1U5Z6LUCndOFe2EC4J/XlhTgYs0q7MZrBPDXBgceZNniw6O/qeYQFxIPj94KL75YZCL/8JgBfu9GadyLCt8CMzYq386DF8PEt4jeNERXBe4NodRpOIcRuYEWdV6hjh9cn1qH5dqthVPD4TFmbs6zl1qHQ+5ni4XW56naNJl6rXZzOibns8MG6PDYQkk6qsui6XZTUQ3TK2lEiN5UgQnax0AbBTfiUED1Sj+aQPqjQcofnwucHm8oW0L1Sn8PulxbVzc13gAOUF4+cXcj7SVcq4arn1P18rSW2BmIGYgVCEgxp362PFuozYweW/A/dnTvtS50PakQCTvFXk1tKzRLrRUA3dyYDWVss5w57+/AGm22lrx5rGRh9dGC7M7vV53flenwre6Mw2Jo6RkfzDpVdtDwLDo7NOAAi8MYbJj1GcpMgUssrh8vwFBaV42dZ5frKoUVLV3LhfoXJJ8WRDSJj1dKxaejWhsar6GgbTanRZvrLAdb4GFpsmzhYRuwzcTKaEKGgO4yDQpdoKUur8ACSpdoj8HXSixAwRWKD2vCSeCqOwGUCnqpXlo//uuHzz+f60pn3HWPreqfo0plW5buVmgSbN7zOTQ1Kz7EVdn0kW67KFAanmC85lBidkUw/2QG+fqrhkESGFjaJWydHo2kn/XS9VB+icu+1sykGgkE805Zhxv130uABbPs8LSe0cp66NwOuXXHmjHrrqXWyWxWYY15gRceWSe4+gKMqGY7q0BiTnlRgeN6oxW43C8qsH3PqCCqW3dCe7Qw9/nRCRSloVl0rcRv90zyGmlvUYcelQ/18DnDJqqK71rcm2uSde+tspdVm9DdRwDvuXN3MNc+gsKePZLrYFnO57Y3mO22uVcDzIBHPoeKGfDKMfAkkBIwNoInMnVWcJCHrEUenTPXd8bK4T+dbsCaAIkQanPmtM0rxrfyymbz4ZY0r5xgPsyMglf2OK+2dfcavKMoe9nubGCjA2zUIuf5LRKApuEeq7l41wrmPm/zPpwzf4xuYIszH+4ZuzNKoDNoENpcdyfnnu22RdGf82Csr6BMGEDHDOOhOcxAHO1xFjPoHzscpt7VPUTnnj3cvjcoJqEPpWAItCXVC0YGhWYWd4ZRtLUUhMPkOZo8Pob7kIC8Lib8QZUO3vTZsRVhMZxF6kkjSfOvloVhNyu1ZuGWl044UB5n8vICmkXX4vOFws8H11/F5aRLIrEmNfhho9g3+fUCzfk6b65T7lWT0T8qA3zengCPGvcGvXD0/HUt5lIAsobxew3cS1wRMMD0CgH2rwmUZysA0T7MV8t8ptGZQ+KRAbNQSd4HwlTTm9JQn1i0xtWyGkCU+sovstCL0kVeah7P0yVwosDuk7KeuwX2R2OVDRQlZREoe7i6OjS9sAJBJHUIv4IFN6BX8viTopq7ZSf08SsqGypKqjIDCJaNmp0sFglW1O881E9mD/bEYbCfu8IwIjOj4oDoA0rTpAL50wBPEQ6i6W0zZr9yUhJ0W3GZjO/bE5ySq4Pyo334WoFdrmJDeTzW63Do6JjLBroLQQVNU2abqg6CZQyNlqurfNcqsExZRbMM84/7YM639JxhKRcgpPaH5jrhG7CZcQbqpIqrQciSX4j/vC0jnAJL26Onnsg63EbUO6XZjqWLrv3xm68ri0/f0FSSeMdilCJR8OdeXzMYyMfpZrUQ11DJ4TKDLukjOAgxKCkPxGKRgXwUS+SGgGxWYrmtd6OiIKm4TXD/zehaLH+ka2mRXbQzrzb65qabe69yqnZu+zd1/Ybt/6+6fjMUkJm3bx5+vEHbefompKNDXfmNu7asRff2TVdroHoVspbMtbrIXqhGd5VSWWiRYkdwpt123Wy5M7FN8mt6oiy+LgHl5XqjFwwOxWWedeCma8NJzU7XjOPVmUMXe+Hlo3W2mqkXJXPUi/lqrV5AE4+K5eXZUacQbvg08M1WEDQCha/uValPjNTrXh03t/mmFnOxzlUZyXIhNpuv000+FzGUSM+W2RoEfi2WG72EOdHC3m7g3LVmSCzMHQ0Dmnq3WztY8qos+YtR0pzai+m/ng1ak0hpyzSZKscBmV3mM3OVcogjxTgZZsprvXiJFbZcmqqJgeVCmMJ+zFaHx0McuqHc10BDv6Dm0FE1utNlWsiHWKa4K6i/DdHShavd483sP5tsacxG9Z4qbk+8bromE7EWsca/q6r4WmeVFCcw0me6RIr2/rG1gD/YBCC5PMvP70H6J9YC/9y9a7VMEdyzLYF/hexnhhlcIaX3nLC1uSZiVpSprI4Kao6RPDgaUAHidzcfJ7Aqf1nNRU3+5tcmy3oGgFVGz9mtS/Q0q9Sr3F9n2W+f5ZVa7XnIP4NGytb2LNs81w1eqFzoDx0iAS7qg+xqvtB1/HJsTYB6emyRCWBPjkbw/UHE6eWmgy+uOEyo9IdenQPr/fk5VADye54eW/lLpZY4AsvmjDCAH6ssHNLVt+a+uT0wDqUnyMrLN4tU688jbZXmoLEDOdYebWQBGmrROBD1MBjhYPJiCJ9aFbRqHwqgGIqVaNc/SEYtBScnBbCVbordAz31QRfn1ncrtXycX8ZpZj21UtxSPVsrDAGBmrrgL5R1pu1sC6ZUcHoa8LZQtOiRJQ1yEO+ujKAyEOkFzj2tAVZaVcXkBDNDIciV8b/57zqf1YtZRUn4LFS4nlOgzvlVuWo2CnhdAl7fBPiqBHyllzprHaqWcY1Xe7yZIL+gQVBDlotwMivHTpXw/VfovwR0Do6MAYO9MgBxtyDwngU9/Qv2i9GtMsvWMJJBk20MLJ4MYbFJl9tbuNYtPJ3UwlNckRhs4o0JfaXReLINDQORn1a/1AO6TkL6WTvpaQ2F6gURuH/fCmmlUjo1Wd16rKYWAriySoHURpNYg9VWBQVYGOUEY2ezqXYOrUKyT5s1jatTqyfLx1XmdT/zus581c98VWeuT80xVCfrXjktWC6wC/pSf2IWPKpLAquqcrlY8v64Ou7T0ZS+XP1SY3u5Mii8XD0xM66NjKdmRkNZOZWe1spmXjDdqLScIPsg1x2Qp32QpqEiYWtDRcLWhoqErQ29yrKLmlb8Ua5XHdcS15YX1C+miOBIN6UCx6UpCPX4HBcDPZRPGsjxfteNaRQ6vVsMnXbHFqOn3afFAOp3Z6G9e11Y6OpetxWauddV7Urq7mlXUndJu5KiG5i5WFjOSHqy/TrN0bqfFaWNWe24P9hZ1XVio06t77OXam3P8cdXy+8u8zIzW/6k15ROjU14Xamx4lntcev0SnL0+JyvQU+2kqvmcUO4lQEcB2gyWEmzE6TVl1bag80VWbs0WZQYbFZntZvWqngIFjN2aRbhBxuFjHaT2OHDbeqcXRrVBQZbxZx2sxgDse5Nld2JsV3menuZck7vkGeWqW2PNsylnuwG0MaMXRiA8IP0Q0a3ySdjTT7ZscknY00+6Tb5dKzJpzs2+XSsyaftJku1NtxslblL01WZwebLzCEURphdZe6OwgjTDae0i8II86vM3VEY6YQys6PSiqlhRKmVmTuptbLMsGIrModQGOmIKnN3FEY6oswcQmGkI6rM3VEY6Ygys3Lo8L+ubQgeJIZ9gdX4qsHUMIEAU/zTzQJLEEuCUjlGRYL/PO2VL+Rg1l+iqVdhSmGtPp4e9eootnu+Lw4pFAdW1unVrEVS26BrLatVLZbycFzJQPVRI/26Ywx8L9biAiyIXw9+36hF8vrgWQ3wMLtYLVTbXjBMhSEOa0vRqk22PqtKVrMRPpc2XWXHlbbbGMPBnHo7fISKWnu2/ZWuYnm0ik7UK+ibjbl2jtscc7ECxzF+eJ4u4lmdI/W9luXC+uxQL74elgIAlbQ2Yg5xB8T63UoAxVOPUovxVW5dZMtMHwq6Z10IDJ07pfes7IVaJ4vs5el5Gsdqec96fVjSCF7sv3DTxfpphT/LDRgTWb3PMgXZOH1RoVrv46j8sxx4Gl3muLaNQaSHOo9crg6PGhSKgM8HYl1sGLRiG+5bTuHvtjdn71vc9VrpJtId1KRYvhCbcn+hgh/Ert7G2A5cbOUfds/xbC2j4xUOO0d9KibUmFcfJe6dOrIlbtvoOOBi+wZ3p0tUd6hCnKFEYDXm9lNdV71goHc8tkQHt/YaaG+b5eaS5W4DbTPu4dCG023ksFfh9j7vBXvdVB45eYabn1iNcYbmpnJFH+j5qOhLvZ1n9OVABXofpo4Smg1FALXiFMaqqEKIBmOSJpQf3AYbAx7ZGGutnndj5Pp1dTYOiwKjnDJlpMo1pTraqiq09OiaAa7bciMpeSp/M+AKaqMsz/WU1e8dzlrMbcqUHNLBK1vYaRIViXXdMhQt8MSDyFmsZl2czPq7Pf6W29s6tAZDjxo0BzfdBzh7yGmfh/WoOHS9nUiqFV0n/Kk7Da9EtTmtA3PGpaIJiSoieLay5CJt1XqjDNm0JUP9ICa2gxBh6aZxHNEFZe1+nUKFuOpTYSJ0S6l7awgORqxNaxshq7PMLRP63yr68usfypxZaeaKxepcNOtrQh/LSAUYzPqetiJVLhS2Cq2fWvQq0f+VdqRlNodEPU5fqX7o47HVjy4siGrKngsA+EasPl/i7IRb1YjCCNDjTHdWDTE+5dZl4+yiHB0Vm/RZ7haPHmNKbUwLvfsIAP1QzpMBgnpbscWWXquB73rZM8u5UzR0Z8p+MrRMLH68cyFdZA+wGhl2bLkUrPlycxaZqNVMnxlHehMK4yH08Xq8WiXJ0J4b5l3lN+mLOo5GGFy5S+3Nz6oTexvPrf74vps7c9zjif1d090lu9fkVqp70ANE92G20qzdk8IJ7LGsTO9IZZTmVc7gZvrIKBquGw+jPYKpRt+Wgxp1C6S4akHSLbCqqxi6nLmZtIEohFHKBmoeJmwQcJiuIdBBsqAH0SVHZfxKlb4/aOe4du61xG05OkoNWfgahU6XWJRGR8Ofzy6iFEjWIDN6Fen/ugK9qPR1WeFnVxjsAGphlQPiCbhKkJRu/qUWQOD8P/WGtoBEnBCGtvYrmCss+U0TytSg9jXMcQ/EJpVV7uz3Yg4sZiGKGud148Dpir4sLxRqVVQllvNvC3AOTiUYxmozX11uzmcDS076eqCj44GcijwN0OVZh5BZu9njDt1HlsmT69vxhFLkismT66k8uX5bPMEcUjHmZqZct5lyvYUpr27LFGSLyZRXU5ny6u0xpRGVm3nyqs2TVyM8gXGoK9F6pVgPbGs+HalsP5r1pqcC2OTtQCBjUbwVxljGIraCDUszoVSZRc26lSrVRLW6CQdjpMTSEus1uE9ZUoVOqs259fIclLGlhDy3LvA3QoKOBsqNoJWimpqqutr7NQYSbT9Q7b/SZ/V3g0yuLlZFzRdihQgYdRf3fuEUXZiHTVuF13WxamJAW63PYX7/HPBu4mZbhxosXfbXbih60dyzOkj9Xr1AW+Lav1XI2uR4XfBaJcAqmGA2VqT0pgFo5P8IfXClgszPRQ5sVji1LK6Nuo6Bu0LfqqRBcnBH11Yl4bqELFfHoRjkWhvQ3yVGL/FCT+i+opHDjVFtmYa8fZFuUpjXrJcKjHNrmeXWS/AuNF/Ps5e6TryUx+DvAKW35DSu1XQZveV+r+YClj4KdYddpvEz7dENdOKUe8aqyN3X3Q42r4gqOb9KoRNALNvSrXtKgTIANi+hWzYZMldCT2hlV3aiZipis2n4pi+oAuR/fVauQhgt1iw2L7O6LeOrwo0a+RxTCsNgVjZxXGrl2mEwlZOuoUrGH1BbkVsP6fbPMoSasGdmXQUZharGz6pGk8hu12JivY1i8Kg5QKI9+VlVlwEyr6T9fnFdxABEGV7dS7prHVoPIPGwxwoDdKDJnflitnzWzH6dlHEae/wy8npaS49x9FEskNkVjKq8yNCxqGdtn3uFKr+eetGpsjn+v5SOstBFO8we5ob2lI9nFFq24et2+V7xGSByjPVWYMaUvGkS2xuAbX8Lo2M7Kde9lFf1qkx1v1kLlR+q1JLn+tazgb1PXlvNvdvNeqR9f54tzxpjqOjKZXGTy+Oy9GG1uGOu69AqqlIUbkEvHb2Xy4XoF1AX6WYDbk2/xDne3qejuNw6DdTTaYnvo+wSBs5jSKllqDiGZp656JzOqNcmqpTuwpfhzGGHfv5CuzjAZXDeZ4eaxeDMLw+PQZM+KpeOvqmuq6uufLk3vUa5wLX1Xm0PMdmorncSoOqMuq9a+vTkBK94zHBtMjubHZQn0mDOPgCtYeiQivoy6aXY/Fyro7Z+MhT9fAFSZ5jTZWrrVEdPudXrbR1oVEZdqRyCmy+Vwl1W3MNuqhs6fjeJIz8gKDKkxkP7ou+MPY3u7/MHTwwO0Kptua+Ntm4gGOGRYkSvIRusqu1Ev+hS3HBhBN8BNtT7YB3oyn6a1NmlBTTM5UEmtQ5etrhTXRKnxa/amivTCmQ3jwqfZdaA3rcOMfGw0TRIknGlJB4Iz2rDsCANprSyrxqm4wGhyzVUnKMxVop/Y4AaNTYGZmUgtewQA7KYXO9V4FhPYRHVNZR1NFzWChwnpx++fFD6oPdGgXEjq9pNZeNgIz1X26+t6wr+UXL5n/80L+Y0ImmGpNyErI2ulgFu9sj9Ict8O9uGazKwGsZrpJhJfvWp7Z82li1zaTt+3dI3YtYrMNAltbCCOGgXC+0CE8USt7LzWrjXllxTiXihOooGlyCxbqw3K9Ye3qm047VoU+Xd+aPkfWhifz/kvTWzvi+i3kJqipTXMndDPxSxcrUvY9xXYswuAwZgGddSVNTcaIwu4gu91b5A2/iXe63sJ53sJ/faZ9eHTMNWQzDgvkO3Xkj07/XoLXwBbVwiwSmuoRQrZzK/hNEoC/sSF1eEPgGOhkCGOx66eOGIVDOcSUiHEmShSUiHkpqlGmaO8fazdvmTQTu5vBXpjqXvG7tn1oFTNmlV8mSkkurqIqzlrq6lEYCtp1kNhwv1BQZ0lVt8GoWhW7drSWnftru9moHdvr4+bny/WlQ38FmZZfXKXmYl6QLBknS9yYvi+jQHdLQoDLjOiowGbxZkro5+L08oX9VW7esKI6Pt+wZZdXJhY21mVWt1OVPBb8qVhTpatFB5ho3WgOLya7OCUQG3r8ww4y6ovritv/16txa9O1tgjPtuuo0UEWBkpJH6uqNKOIdaqWNatjRjhARFi6xZ1HlLd3u8SZ1jF3ykS2yN1FVXlevVbh3EcljeAQukt/R8tfpZLWN9Eq0/bZCr7gDtGeYt7a/vUDwwb3g+OG1yLY3B3fvtO6C3oGI8tNDHqCfJrZLVixmm7dHCQL9JcAMr6lpajb42f5g3SDYc+DbDxxTeOu0fAunVqnmb+FFsx9bax5AvV/qtqoBVl9hCzFgjw0L1erjXllb1IMjWXqufFBmuvKoPr1CZUqH5EMm9m7lvvhQysQe6b9WMcd6s+ibp6da5qxCVr5FY+BzJRDI6z+GMUWHWvIWATm274l8Msb7+2z5oq8d4tg/cm/SGWdPOg7f1pMpE3HtvAY3ir99puUF0erXtSkPx4pMJp6NvrP+IF2Ij1+kqt2ZUrxsd4r/Fau4kQlv3jFn/uN+6aLBL7M8l8Kn1ib4HLY3vHwzecnfw6SgvzOvstDo5wao+7WuVptn/VddbW6zutpvQanmJ3cSGH+mj2ltaRudtQqtYz8Qmi7vbtzSJN9lNaFJfdzOtSd31W9vUd9hNaLQQoqbV8RFRlfhpmepXh0ZGw9hdnTdjcbRlYnndt/PNE2DAl779Ongvnt41VOvOJafGomLnlr6tXn516xd28CYXF6t6Bfm/l5Dwmc4GwC/w5YRZCb0lwrG1tDAU1dcCuNFXrR3f4mNWPkE15qGa/ulI0RGvtMcYvOX+qlmB0POwWOZNCB+DvtA37jsBD92wuLJX53BLX9rCA8cJPd/2mhwby7C5w5nDbN9prowRjvbC5o5rM5dT7jc5blGGesyhrsPDOmdlFRjY3HdDVi0AAK6PcXlSx6akZ0sMl7iqiuiEaoG7eGrBvE+3zCb1bTPGOwoi2syuzFDHfz7GwN2Ly4Ww/Dmbc69qRDutc3oyg39gJK7uGE8tXBd54FHO8D/h3kHHUThHd/SlfcI+KhJ4+ZfB3zu6fXW1mpGrO1fNjqZ25hHlO9f3jAdz2qPXut96VKTCQ+ZXVnPz8ly/U7FET3B2yGPj7sIKotwtgWLleZKvLsQZaljRPno1fIjQrOmH7GUTcKLvv6uvvytuu2u/Hmald++2r+BNr9SiOI9XXJme6vdX2gczCAYL1APLeHWkUgYGNr+md5xnFsqSrnqONzlw1x0GvMue1YBnWwF5AxhtBbQRsMp+fRNXtM7Ve9z1DYEGg3pQv6bPjH7WTVr/r3Nc7o5z9KxpHLt4dZn3+xd/aFbXEcQTlhn0saDx+4U7FyL37xqe0gSe2ZnYhLjqNtG6Zb9+XKYaKi39XOc2+qLKat6pMXccjdT/Z3GnXKVsZth6ajLu1qwbOdbB4daJ1W5fv1/TVtn6uZXLtNklra6HLJ70a6dfVnsZzdF28wrut7Bx2l6A/0eDyFEzinWfPEfr0Yg+s+p7EyuIobiyAuT5C+MFgm6VRXSXAVlvfGs7oPqoCuE+VLfhX+mze50+bpnQ95vbvMsrMQvoFtuhUzAkpPg90zyyinNW+smje90iOsSoau/YOjRbPDzuEHmkG57V3gGMgWz58Fwsz9Ss6OQq5+aG2s8y/X745Vpcb6SASsG9Oqt/HGOQUPNET+vBHsh71LxvYz52Azk/VE+hNK+ivK7wL47Ll40bNNQ9bopn2SHbHpV60bZD27PhrJvReR/vZlbVT1Qdal3YSMHlxSPgE2F4v21JGiT0e+XmJhq1YXS6Viab79X6K7R9X+BjltzBVVu1mo3CVIigPgFMFjosabYNJfPpT+v+Vj4UsIcNsaBWypSqoRtJ7bypVdX1g05ublKYJBf1vf3tdeSdDmAP+RPb66juOu5XU3307zkelOLe82K7SmY9c9RsfIgpVpnUZ2Bd4OcBTo5mWuYs2aV2Kpr1K2w4y7XRLbJupwjMqm9kX7YyRXSnq8Bv2IAZ6vFBPWS8z2HEDhgzZkUsziSFpE2eTJppv+rSLYaMZfUzOyHLr98Oo1rPPlS+QWoiW1ovOMceHtYpeXGRsJFyiYsYTVLb7KhUYmVzpJVZmODbno3GTEtNiVoT1PUdA6bmSK3y0UMbLInsGizaqPKjI2OrOzdMDr3w8GtdLf78Cnr16hmY7o2hYsVlLC+q2Rktzo3+CC4uRUd3rfBgBXq8+mXVl+epPMceLdI0M/NMf6tVJs/LnsRd659+fPhY4XPfm1kdS95MBmjmHVJcTprF2OEA/Q107vns6C47gs5dpFLNSHHVxokGA+i7FahG1QSrqC+6sqy5gkYebmbdWk97tYKbcJmrTbfijrFWTU/FHFYE0xO9MJan9UJwZ74rl2YeFcJq3JxUzCxlB2mxM3e6S3OiksbZoSklRTK0ftR9HAf/TD9DUZJn7OT1H68wcmvUxwJ1B7RC/XauNujN13Ot//s/axisi8KWBXyQ12VGslXJhVYgxdazEq9NbP/RwqN4qBfHe4szgL7OOTya2EKjhVvV68d8h2rHjDet3Hzod6gNI/+N6SgeBO60AhoM1Mx3yeywyD88sj61CNtzW1+i5fRId06nORCQc9yPBTUFNb9M83OYbKB7m/y9IPT4t2t9ivmPIf/HywhPScBU8xYbfTQwCpomB5l9q3bKB56xpdkwL8sXoMvW3rC55jnobot6gGgnJ83WNVgZDnE4ud1KsXTezDDMJjPneawPpDzH/f94C5g+Z9fKriJeBgJdtoe5GEg1r21sUftVsCRq3ibS0holoXVoofivEzE6dMKrvSnbOolaHfNc4XvWeJi0OI+IZ77SpY62QFTN4m9CIs6rz0EMDk1aXw+QXXbJ22mgvas1FqUzRNe8APumz/UPrIM6hCCLduyB7TUMsXgoGmiS8ERlwbHBMdTYWPDLpAbNkJVdGh0LVZnUqBFmskubw+El0wbl6gatM9iLo2Eh0/rStC93abcbyoEau3jesKWpq6zfyoCF2rtsssojC/VK8YAhbixfbwnCLc793h9eYG5Cc/G/5mhV027pgsBMS9vjfQDJ5qTFwAL3aBPFnol2RnWIivkifdNYwcN2marjhqoy/Nriv9c3oVF1xhgOTWeNlBxrrvlss/pFHZWjm2vH5Yx1donCcG9OqeBR4XCjCzoJvnrKKZ1Y///WbBpiy1ipn+sOXlxOK/FT6QlfdoJM2i7fn4yVTZldmHp4+GYcbSJqWvpz22n434ePWLfUTf9M1azebddycNwZ79+ky16SuBrZgT8aUdWvzdWn7smx7tmd6nnYwQNBbx6/1MKlfwS2Y5Z1AMaMuFa6sS7bdF1fw008OdtxZsrrMUbvtBhaFC6817VKMNAJV3zavlP77N7Qye/uCO/ADXpe7WsrRu+UMPA1776omzJvsBjoJm191tLRYnlhmA7NLMOXeAwcCx9HYevpwY42vPnOkPZBN/NODW1QZEli3puzKS9M6pn+xVUyZRNYwa1v0OlJRs8tGT6uONCzI27NSH9MEJWt4jLaXp+k4r9BF6q5yui4WLjq3FrU/Delb4dkYlvTeLSvbl77bzs231oINrmyTZt1GVOcBi6WN/LMKkCtQvHVA7G5jqg4dGTl5+mmW8/oPQPbtOdo8W0jr+T1TTZhb7AVb1Q1MTQ/N8a1GUvTmCpGuF3LW+gHuUzwEoacA3Nfot6S+L2eBirseja/pmlwQ9KISyrIrbf7+lebPPruGx0zuCzugsM915qC5vhqxYFzUZCNGz+9G2Qb9vzzn/3HU3sklmILmfMvf/oKn0/JsxwXIs0tUjPwcdn0hqWlb/78eaKhNr9i3jO83GjTxGMNghhHT1cCL3fAm5vNz6L18tLlyTVsa1PbfLFK0mUt8hosW/6gNnifcrmNXDKkDAID669kjfFUZrH2+PwCWtQhV63DYxijUyzI4Fe10oLf5kII/jbXKHQ80Mqso+3dl6tmKKVV77fDmgtsimgtM4LsdUlML1qkXD89PG5VUEeN6DTrwfWE6IGxIPF+VFA90VZrD8/xBobrOnitfx1ydw+sMNmHis8vl5vzNMlnre22ot0B+uutN2DAUHUVIx7jdFAA7oUTKE8J6we4VSL1hdZnFSEJG6Kj2Lo7bKFcp90W515EiNFSJyJkhLwxdPVWYBvbKumtIltU+ma4mjuLbZQx562j3GruDblc7J51+Fwnvl1Ol9W+GcaP+lL8aB9C/OgtyHC9O9dSE3XiW8W3qvbNMG52ANtIt9LfKt5GzVNQL5YIxoS5dKa74twkv2WBriregel1EFyt13lfrxfnhCp1zrvEmoeRalq/ayfeRGmPolalLYJej+Fx9XOqXtYI/GIVP0eAr1vAT7YDv2oBP90OjDtreRPKWvyqYFv8PrkzxvHHRYdbDy/z0XauSqAiENn2aEN5lTPA926MrHmLHJSUl3lxonYKw6/HMHhyawye7IbBqzEMnt4ag6c3YFD24J2Tog9Njwn/+eSkOBn8KX7i8UX9cZ5fLD79/7U2+PM="
               }
            ],
            "step_warnings" : []
         }
      },
      {
         "arguments" : {
            "__SKIP__" : false
         },
         "measure_dir_name" : "BTAPUtilityTariffs",
         "name" : "btaputilitytariffs",
         "result" : {
            "completed_at" : "20170710T184518Z",
            "measure_class_name" : "UtilityTariffsModelSetup",
            "measure_display_name" : "Utility Tariffs Model Setup",
            "measure_name" : "utility_tariffs_model_setup",
            "measure_taxonomy" : "Economics.Life Cycle Cost Analysis",
            "measure_type" : "EnergyPlusMeasure",
            "measure_uid" : "7353d86e-d166-4f32-a572-27ce8e65ebb5",
            "measure_version_id" : "ca1cd5c0-0e66-4db9-a9a0-8b035cb1ed3d",
            "measure_version_modified" : "20170519T182314Z",
            "measure_xml_checksum" : "4A4E44A5",
            "started_at" : "20170710T184518Z",
            "stderr" : "",
            "stdout" : "[OpenStudio.Measure] <0> OSArgumentVector is deprecated, use OpenStudio::Measure::OSArgumentVector instead.\n",
            "step_errors" : [],
            "step_files" : [],
            "step_info" : [
               "Found [\"ElectricityNet\"] meters that are not of the type Electricity, Gas, FuelOil#2. Ignoring them for tarrif costing. ",
               "Found Electricity tariff database match for weather_station :Prince George_BC_CAN\n Row Information is Electricity,kWh,BCHydro,Prince George_BC_CAN,British Columbia,6.771,14800,0.0989,14801,0.069,14802,0.069,14803,0.069,0.069,35,0,115,5.5,116,10.55,117,10.55,10.55\n",
               "Found Gas tariff database match for weather_station :Prince George_BC_CAN\n Row Information is Gas,MJ,FortisBC,Prince George_BC_CAN,British Columbia,130.61,1,0.0108,2,0.0108,3,0.0108,4,0.0108,0.0108,1,0,2,0,3,0,4,0,0\n",
               "added a tariffs \nUtilityCost:Tariff,\n  BCHydro,                              !- Name\n  Electricity:Facility,         !- Output Meter Name\n  kWh ,                         !- Conversion Factor Choice\n  ,                                       !- Energy Conversion Factor\n  ,                                       !- Demand Conversion Factor\n  ,                                       !- Time of Use Period Schedule Name\n  ,                                       !- Season Schedule Name\n  ,                                       !- Month Schedule Name\n  QuarterHour,                            !- Demand Window Length\n  ;                      !- Monthly Charge or Variable Name\n\nUtilityCost:Charge:Block,\n  ElectricityBlocksEnergyCharges,           ! Name\n  BCHydro,                  ! Tariff Name\n  TotalEnergy,                            ! Source Variable\n  Annual,                                 ! Season\n  EnergyCharges,                          ! Category Variable Name\n  ,                                       ! Remaining Into Variable\n  ,                                       ! Block Size Multiplier Value or Variable Name\n  ,            ! Block Size 1 Value or Variable Name\n  0.0989,             ! Block 1 Cost per Unit Value or Variable Name\n  ,            ! Block Size 2 Value or Variable Name\n  0.069,             ! Block 2 Cost per Unit Value or Variable Name\n  ,            ! Block Size 3 Value or Variable Name\n  0.069,             ! Block 3 Cost per Unit Value or Variable Name\n  ,            ! Block Size 4 Value or Variable Name\n  0.069,             ! Block 4 Cost per Unit Value or Variable Name\n  remaining,                              ! Block Size 5 Value or Variable Name\n  0.069;             ! Block 5 Cost per Unit Value or Variable Name\n\nUtilityCost:Charge:Block,\n  ElectricityBlocksDemandCharges,           ! Name\n  BCHydro,                  ! Tariff Name\n  TotalDemand,                                 ! Source Variable\n  Annual,                                      ! Season\n  DemandCharges,                               ! Category Variable Name\n  ,                                            ! Remaining Into Variable\n  ,                                            ! Block Size Multiplier Value or Variable Name\n ,          ! Block Size 1 Value or Variable Name\n 0,           ! Block 1 Cost per Unit Value or Variable Name\n ,          ! Block Size 2 Value or Variable Name\n 5.5,           ! Block 2 Cost per Unit Value or Variable Name\n ,          ! Block Size 3 Value or Variable Name\n 10.55,           ! Block 3 Cost per Unit Value or Variable Name\n ,          ! Block Size 4 Value or Variable Name\n 10.55,           ! Block 4 Cost per Unit Value or Variable Name\n remaining,                                   ! Block Size 5 Value or Variable Name\n 10.55;           ! Block 5 Cost per Unit Value or Variable Name\n      \nUtilityCost:Tariff,\n  FortisBC,                              !- Name\n  Gas:Facility,         !- Output Meter Name\n  MJ ,                         !- Conversion Factor Choice\n  ,                                       !- Energy Conversion Factor\n  ,                                       !- Demand Conversion Factor\n  ,                                       !- Time of Use Period Schedule Name\n  ,                                       !- Season Schedule Name\n  ,                                       !- Month Schedule Name\n  QuarterHour,                            !- Demand Window Length\n  ;                      !- Monthly Charge or Variable Name\n\nUtilityCost:Charge:Block,\n  GasBlocksEnergyCharges,           ! Name\n  FortisBC,                  ! Tariff Name\n  TotalEnergy,                            ! Source Variable\n  Annual,                                 ! Season\n  EnergyCharges,                          ! Category Variable Name\n  ,                                       ! Remaining Into Variable\n  ,                                       ! Block Size Multiplier Value or Variable Name\n  ,            ! Block Size 1 Value or Variable Name\n  0.0108,             ! Block 1 Cost per Unit Value or Variable Name\n  ,            ! Block Size 2 Value or Variable Name\n  0.0108,             ! Block 2 Cost per Unit Value or Variable Name\n  ,            ! Block Size 3 Value or Variable Name\n  0.0108,             ! Block 3 Cost per Unit Value or Variable Name\n  ,            ! Block Size 4 Value or Variable Name\n  0.0108,             ! Block 4 Cost per Unit Value or Variable Name\n  remaining,                              ! Block Size 5 Value or Variable Name\n  0.0108;             ! Block 5 Cost per Unit Value or Variable Name\n\nUtilityCost:Charge:Block,\n  GasBlocksDemandCharges,           ! Name\n  FortisBC,                  ! Tariff Name\n  TotalDemand,                                 ! Source Variable\n  Annual,                                      ! Season\n  DemandCharges,                               ! Category Variable Name\n  ,                                            ! Remaining Into Variable\n  ,                                            ! Block Size Multiplier Value or Variable Name\n ,          ! Block Size 1 Value or Variable Name\n 0,           ! Block 1 Cost per Unit Value or Variable Name\n ,          ! Block Size 2 Value or Variable Name\n 0,           ! Block 2 Cost per Unit Value or Variable Name\n ,          ! Block Size 3 Value or Variable Name\n 0,           ! Block 3 Cost per Unit Value or Variable Name\n ,          ! Block Size 4 Value or Variable Name\n 0,           ! Block 4 Cost per Unit Value or Variable Name\n remaining,                                   ! Block Size 5 Value or Variable Name\n 0;           ! Block 5 Cost per Unit Value or Variable Name\n      ",
               "set the simulation timestep to 15 min to match the demand window of the tariffs",
               "removed existing lifecycle parameters named {b1693c68-e5b3-4d4b-9aeb-7f8e3a5d4d22}",
               "added lifecycle cost parameters named FEMP LifeCycle Cost Parameters",
               "removed existing fuel escalation rates named U.S. Avg  Commercial-Residual Oil",
               "removed existing fuel escalation rates named U.S. Avg  Commercial-Distillate Oil",
               "removed existing fuel escalation rates named U.S. Avg  Commercial-Natural gas",
               "removed existing fuel escalation rates named U.S. Avg  Commercial-Coal",
               "removed existing fuel escalation rates named U.S. Avg  Commercial-Electricity",
               "added fuel escalation rates named U.S. Avg  Commercial-Electricity",
               "added fuel escalation rates named U.S. Avg  Commercial-Distillate Oil",
               "added fuel escalation rates named U.S. Avg  Commercial-Residual Oil",
               "added fuel escalation rates named U.S. Avg  Commercial-Natural gas",
               "added fuel escalation rates named U.S. Avg  Commercial-Coal"
            ],
            "step_result" : "Success",
            "step_values" : [],
            "step_warnings" : []
         }
      },
      {
         "arguments" : {
            "__SKIP__" : false,
            "generate_hourly_report" : "false"
         },
         "measure_dir_name" : "BTAPResults",
         "name" : "btapresults",
         "result" : {
            "completed_at" : "20170710T184553Z",
            "measure_class_name" : "BTAPResults",
            "measure_display_name" : "BTAP Results",
            "measure_name" : "btap_results",
            "measure_taxonomy" : "Reporting.QAQC",
            "measure_type" : "ReportingMeasure",
            "measure_uid" : "98aec261-d860-4ffa-9537-fa32cd356857",
            "measure_version_id" : "28c7a282-069d-4adc-a562-aa5e8c0a921e",
            "measure_version_modified" : "20170519T182313Z",
            "measure_xml_checksum" : "C3418C13",
            "started_at" : "20170710T184550Z",
            "stderr" : "",
            "stdout" : "[openstudio.EpwFile] <0> Successive data points (1988-Jan-31 to 1976-Feb-01, ending on line 753) are greater than 1 day apart in EPW file '/usr/local/bundle/bundler/gems/openstudio-standards-f448df66933d/openstudio-standards/data/weather/CAN_BC_Prince.George.718960_CWEC.epw'. Data will be treated as typical (TMY)\n[openstudio.setFileExtension] <0> Path p, '/usr/local/bundle/bundler/gems/openstudio-standards-f448df66933d/openstudio-standards/data/weather/CAN_BC_Prince.George.718960_CWEC.ddy', has an unexpected file extension. Was expecting 'idf'.\n[openstudio.model.YearDescription] <1> 'UseWeatherFile' is not yet a supported option for YearDescription\n[openstudio.model.YearDescription] <1> 'UseWeatherFile' is not yet a supported option for YearDescription\n[openstudio.setFileExtension] <0> Path p, '/usr/local/bundle/bundler/gems/openstudio-standards-f448df66933d/openstudio-standards/data/weather/CAN_BC_Prince.George.718960_CWEC.ddy', has an unexpected file extension. Was expecting 'idf'.\n[openstudio.model.YearDescription] <1> 'UseWeatherFile' is not yet a supported option for YearDescription\n[openstudio.model.YearDescription] <1> 'UseWeatherFile' is not yet a supported option for YearDescription\n[openstudio.EpwFile] <0> Successive data points (1988-Jan-31 to 1976-Feb-01, ending on line 753) are greater than 1 day apart in EPW file '/usr/local/bundle/bundler/gems/openstudio-standards-f448df66933d/openstudio-standards/data/weather/CAN_BC_Prince.George.718960_CWEC.epw'. Data will be treated as typical (TMY)\n[openstudio.setFileExtension] <0> Path p, '/usr/local/bundle/bundler/gems/openstudio-standards-f448df66933d/openstudio-standards/data/weather/CAN_BC_Prince.George.718960_CWEC.ddy', has an unexpected file extension. Was expecting 'idf'.\n[openstudio.model.YearDescription] <1> 'UseWeatherFile' is not yet a supported option for YearDescription\n[openstudio.model.YearDescription] <1> 'UseWeatherFile' is not yet a supported option for YearDescription\n[openstudio.setFileExtension] <0> Path p, '/usr/local/bundle/bundler/gems/openstudio-standards-f448df66933d/openstudio-standards/data/weather/CAN_BC_Prince.George.718960_CWEC.ddy', has an unexpected file extension. Was expecting 'idf'.\n[openstudio.model.YearDescription] <1> 'UseWeatherFile' is not yet a supported option for YearDescription\n[openstudio.model.YearDescription] <1> 'UseWeatherFile' is not yet a supported option for YearDescription\n",
            "step_errors" : [],
            "step_files" : [
               "/mnt/openstudio/analysis_4fef0e0f-5396-4c55-a6e1-2cd6803db3ab/data_point_a0eed643-2cfa-4b1e-bf28-5c9f6515faa1/run/003_BTAPResults/qaqc.json"
            ],
            "step_final_condition" : "Saved BTAP results to runner.",
            "step_info" : [],
            "step_initial_condition" : "Gathering data from EnergyPlus SQL file and OSM model.",
            "step_result" : "Success",
            "step_values" : [
               {
                  "name" : "model_osm_zip",
[...]
NWJOnsI1Ym5FOteMPXlq14w9eZrXjD15yteMPXn614w9eSrYjD15WtiMPXmK2Iw9ebrYjD156thMXJenkc3Yk6eUzdiTp5fN2JOnms3Yk7+qWtr7ovKVRvEZFTtgAb8pPwLJvv1ox9fjTvYVR+XnHuW3WDFP3oazwI3bw16H2fawwwbib/2h2icjtynG3edmrnvoJHwcRvM3t16cf8t0d/4KH3ylAseRy6NPM/FpkfKBgmO+zPErd+JZxHMM8XVU0e8Nf3iHZjSjGc1oRjOa0YxmNKMZzWhGM5rRjGY0oxnNaEYzmtGMZjSjGc1oRjOa0YxmNL/g5rkVXvMo8lz+qyNeDLKtnuH7Nlmx2+VXe0545PG4eD2o1SlfgJr6YWKJCryVr/jED71nVP1mUGxl5S+moe8kXhikUK044dPuOb8II95Se3PrIx/zwF0+ofy39navwwbizStRsdcWfxQVmSuLVZey1tmYJ0dBIvonNXExC0YZaXuD/VkhURLyu6NPK99FE5t3wdrJxIutOLsqaobEtnCQlfbfkTOatP8C1lUr8YsCxoXu2TSMPSH4Lv1Z5WzKTcg8QBWFN3pIJZYXuFyMh67d0Ty63C7rHnjhcV/4W7vo03ycjKNwNuUu++EH9o/i91vrbOLExft7YoBtLLbOH2xNO8RyxuP3wobl82CcTNhr1mf/Zq03vt9i+8t7xL434u2uvXHa+7JROd7unUkYsfZleiq9H9llaqZw1cKu+O1f6Yyjf4HEJty40Du9/GJ95XN2cHCQd149xUy1uOyXuqdabucRd77WOfib5jG6+4v+Ks7uQLi1cIbCU7IXUa2zfOkB7h6KV1zj06wnv9TryvJCT2fxpF33WqSXdD+/nvVHku/vq5ylJfasayVOovArV7OT71vXUjh1Rl4yVzNV7Fz7rDITpam6KuVEsjyt1Bke2pOP2MrhvDzxsC6zddV0hps667dOFlWV9v9WlVOIbXOT/f7HZ/bf4z8+sZPjT59/+e1n9vH4518O2YejT0dqAu/TWZvfOiJFY0nI4jBKWDC7Sv1gxLJXsmPmxKM0efGCsYJi2fdCZyEyOx12rj65RDyZRQGbOlHM3/uhk7QdMeVvpJdy4bfz7DelzqxO0RbMFqdQJfztCZaI+a7Odrb2S15F+0lWrAEOcIADHOAABzjAAQ5wgAOcF49zf10IQRRxFzSgAQ1oQAMa0IAGNKABDWhAs5rm3spEgkasOwQc4AAHOMABDnCAAxzgAAc4wKmDo76KWfaELV+jDKQgBSlIQQpSkIIUpCAFKUhBClKQvgzSyuU1M9J88UyQghSkIAUpSEEKUpCCFKQgBSlIQfoySLXWOM6o8xWMQQ1qUIMa1KAGNahBDWpQgxrUoAY1qJ+QusRyI+emXSl2ayVe4vOTiTPlVsJvk/arD+Esiqsx5vePfOdd8SD2wsDncaZQIbG5yd64LnNYpsRuvGTC4vCKM3dQcWR8Pbac6VQsJ9IStlsbFQeUm+UkSdRu3bY6bLunedC8JRYtUT4oTuZi1RWB13WC0SSMWndLnWhqXIRB0r3h3niSCI3z0HfVNfJr89vR4dvu2+7xaDSbpjTzVxurrs7rzXgUedPkJ+k+rzdd7/rhZukxcrFUi3nuQWskXPcwPVvHC3h01u+1WNYFBy3Xi6e+M9/3ArH2TffcD0dff2zJ+VLR/BRYMp+mx4te2Lx0rp3815VHii1bkOd6zA7KdXcCfnNyPW63/nmfscO2xDI26R+Vo2Zh8ZbTP4sVefZb35Xta3XylrPb1r5t9TqtrIB8a79nbXdaIzHRpMcUdf1a3zpKOv0lnWFtncGSTq++0BaV0JBKaJtKaIdKaJdKaI9KyO4tKe3UF7KphJY9e6u+0IBoiNhbRGPWHlIJbVP10bJrD+oL7VIJ7RGdWr9HdPn7y569W1+oTyW07Nl79YW2dITu105SCmwRdzVkpHFNT0Ye1vR05FFNT0ce1PR05DFNT0ce0vR05BFNT0ce0PR05PFMU0cazjR1pNFMU0cazDR1pLFMU0cayjR1pJFMU0cayDR1pHFMU0caxjSnQ2kU09SRBjFNHWkM09SRhjBNHWkEu6dzrySFUvQSNSs0dKThS1NHHr80heQBTFNIHsE0heQhTFNIHsM0heRBTFNIHsU0heRhTFdIGsd0haSBTFdIGsl0haShTFdIGst0haTBTFdIGs10haThTFdIGs90J0hpQNMVkkY0XSFpSNMVksY0XSFpULsnpP5NpjzaLf7TOP9ok8BEXzam6EysuHVJZmPFXU0yGytueJLZWHEvlMzGitukZDZW3EEls7Hi5iqZjRX3XelsyG/J0tmQ362lsyG/kUtnQ36Pl86G/PYvnQ35nWE6G/KbxnQ25PeT6WzIbzXThUH5XWg6G/Ib1HQ25Peu6Ww8wjj/LrVStVH5BYw8u1qcdvNPZAhMyLMrMhMrsisyGyuyKzIbK7IrMhsrsisyGyuyKzIbK7IrMhsrsisyGyuyKzobjzDMV2RXdDbksy6dDXl2RWdDnl3R2ZBnV3Q25NkVnQ15dkVnQ55d0YVBeXZFZ0OeXdHZkGdXdDbkLw3Q2ZC/T7DKhta7tWov0+Uv3xKbk79z14i5FRlYI/ZWZGON2FuRmTVib0WW1oi9FRlbI/ZWZG+N2FuRyTVib0VW14w9eYbXjD15tteMPXnm14w9eRbYjD15RtiMPXl22Iw9eabYjD151tiMPXkG2Ux4l2eTzdiTZ5bN2JNnmc3Yk2eczdiTZ5+lvS8q33MUX1yxAxbwm/JzkewrkXZ8Pe5k33tUfhhSfrYV8+RtOAvcuD3sdZhtDztsIP7WH6p9XHKbYtx9mea6h07Cx2E0f3PrxflnT3fnr/BtWCpwHLk8+jQTXyEpHyg45sscv3InnkU8xxAfUhX93vA3emhGM5rRjGY0oxnNaEYzmtGMZjSjGc1oRjOa0YxmNKMZzWhGM5rRjGY0oxnNaEbzC26eW+E1jyLP5b864sUg2+oZvm+TlcVdfrXnhEcej4vXg1qd8gWoqR8mlqjVW/mKT/zQe0bVbwbFVlYTYxr6TuKFQQrVihM+7Z7zizDiLbU3tz7yMQ/c5RPKf2tv9zpsIN68ErV9bfFHUby5sq51KWudjXlyFCSif1ITF7NglJG2N9ifFRIlIb87+rTyXTSxeResnUy82Iqzq6JmSGwLB1lp/x05o0n7L2BdtRK/KHVc6J5Nw9gTgu/Sn1XOptyEzANUUXijh1RieYHLxXjo2h3No8vtsu6BFx73hb+1iz7Nx8k4CmdT7rIffmD/KH6/tc4mTly8vycG2MZi6/zB1rRDLGc8fi9sWD4PxsmEvWZ99m/WeuP7Lba/vEfseyPe7tobp70vG5Xj7d6ZhBFrX6an0vuRXaZmClct7Irf/pXOOPoXSGzCjQu908sv1lc+ZwcHB3nn1VPMVIvLfql7quV2HnHna52Dv2keo7u/6K/i7A6EWwtnKDwlexHVOstXKeDuoXjFNT7NevJLva4sL/R0Fk/ada9Fekn38+tZfyT5/r7KWVpiz7pW4iQKv3I1O/m+dS2FU2fkJXM1U8XOtc8qM1GaqqtSTiTL00qd4aE9+YitHM7LEw/rMltXTWe4qbN+62RRVWn/b1U5hdg2N9nvf3xm/z3+4xM7Of70+ZfffmYfj3/+5ZB9OPp0pCbwPp21+a0jUjSWhCwOo4QFs6vUD0YseyU7Zk48SpMXLxgrKJZ9L3QWIrPTYefqk0vEk1kUsKkTxfy9HzpJ2xFT/kZ6KRd+O89+U+rM6hRtwWxxClXC355gNZnvSnFny8TkhbafZHEb4AAHOMABDnCAAxzgAAc4wHnxOPfXjBBEEXdBAxrQgAY0oAENaEADGtCABjSrae4tVyRoxGJEwAEOcIADHOAABzjAAQ5wgAOcOjjqa5plT9jyFctAClKQghSkIAUpSEEKUpCCFKQgBenLIK1cZTMjzdfQBClIQQpSkIIUpCAFKUhBClKQghSkL4NUa43jjDpfwRjUoAY1qEENalCDGtSgBjWoQQ1qUIP6CalLLDdybtqVYrdW4iU+P5k4U24l/DZpv/oQzqK4GmN+/8h33hUPYi8MfB5nChUSm5vsjesyh2VK7MZLJiwOrzhzBxVHxtdjy5lOxXIiLWG7tVFxQLlZTpJE7dZtq8O2e5oHzVti0RLlg+JkLlZdEXhdJxhNwqh1t9SJpsZFGCTdG+6NJ4nQOA99V10jvza/HR2+7b7tnvDo2htx9h9HfG7zgTuJF4xfbay6Uq8341HkTZOfpPu83nS964ebpcfIxVIt5rkHrZFw48P0zB0v4NFZ326xrDsOWq4XT31nvu8FYh2c7rkfjr7+2JLzpaL5KbBkPk2PFz2yeelcO/mvK48UW7Y4z/WYHZRr8AT85uR63G798z5jh22JJW3SPypH0MJCLqd/Fqvz7Le+K+HX6uQtZ7etfdvqdVpZMfnW/s7QsvcWtkGnNRJTUKpQVPxrfesoqfYXVPe2rD0a1UEjqluNqA4bUd1uRHWnEdXdRlT3GvFXu9eMbDOjy+43IztoRnarGdlhM7LbzcjuNCO724xsM6Os38wo6zcUw5oZZf1mRlnfYJTdL0hVI0OIuKshqpgg6Ikq5gd6oorpgZ6oYnagJ6qYHOiJKuYGeqKKqYGeqOKcpSeqmhhoqjYyplTTAk1VxflKU1VxutJUVcwJNFUVUwJNVcWMQFNVMSHQVG1kbKmmA5qqzcSrRsaWai6gqVp3bN0rmFIjDRD1VTRUFfMATVXFREBTVTET0FRVTAU0VRVzAU1VxWRAU1UxG9BUVZyyNFVV8wFd2WZGl2pGoCurOG3pyirOW7qyikmBrqxiVqArq5gW6Moq5gW6ss2MMtXMQFe2oRjWzChTTQ50ZeuOMvVPr2Vpw6q7wPmX2gQGVR89kBlUfSpBZlD1gQWZQdVnGWQGVR9zkBlUfQJCZlD14QiZwb3HNqj8SIXOoup9YDqLqreI6Syq3j2ms6h6Y5nOouqTHTqLqg996CyqPg+is6j6qIjOoupTJLrY/+hzjvKzJzqLjz7nKD+xorNIkeJUfjFY5zWY/ANDAoOqaSqZQdU0lcyg6jUkM6iappIZVE1TyQyqpqlkBlXTVDKDqiGDzKBymkpn8dHnGuU0lc6iasigs6iaptJZVE1T6Syqpql0FlXTVDqLqmkqncVHn3OU01Q6i4+f3zz6nKOcptJZpJhztD7qqJOy5t+AEBtXTV8bMa6ayjZiXDWtbcS4aorbiHHVdLcR46qpbyPGVdPgRoyrhqdGjCunx81Yf9I5Tjltbsa6ajhrxrpqaGvGumpq3Yx11TS7GeuqKXcz1lXT72asP+lcp5yWN2P9afO5J53rlFP3ZqzrznVfVL7CLL6ZZgcs4DflR57Zt53t+Hrcyb7SrPycs/zwOubJ23AWuHF72Osw2x522ED8rT9U+yT0NsW4+7bcdQ+dhI/DaP7m1ovzD5fvekPh6+5U4DhyefRpJr4jVj5QcMyXOX7lTjyLeI4hPoUuroLp9+rZx7XLpk545PG4wE0tFRdk6oeJJb74rTQZP3Te1aSxlb2MMw19J/HCIIVqxQmfds/5RRjxlponfeRjHrjLJ5T/1t5OvWAgPEF8IWyLP4rPwSu/lC9lrbMxT46CRPRPauJiFowy0vYG+1Phe3BByO+OPq0cG2LzLlg7mXhx6tfiODVDYls4yEr778gZTdp/AeuqlfjFB9OF7tk0jD0h+C79WeVsyk3IPEAVhTd6SCWWF7hcDNyu3dE8utwu6x544XFf+Fu76NN8nIyjcDblLvvhB/aP4vdb62zixMV8IgbYxmLr/MHWtEMsZzx+L2xYPg/GyYS9Zn32b9Z64/sttr+8R+x7I97u2hunvS8blePt3pmEEWtfpqfS+5FdpmYKVy3sit/+dcBs/QskNuHGhd7p5RfrK0+nt4ODvPPqKWaqxWW/1D3VcjuPuPO1zsHfNI/R3V/0V3F2B8KthTMUnpIFRussr3vC3UMRcuPTrCe/1OvK8kJPZ/GkXfdapJd0P7+e9UeS7++rnKUl9qxrJU6i8CtXs5PvW9dSOHVGabalZqrYufZZZSZKU3VVyolkeVqpMzy0Jx+xlcN5eeJJc1VbV01nuKmzfutkUVVp/29VOYXYNjfZ7398Zv89/uMTOzn+9PmX335mH49//uWQfTj6dKQm8D6dtfmtI1I0loQsDtNEOphdpX4wYlmKGDMnHqXJixeMFRTLvhc6C5HZ6bBz9ckl4sksCtjUiWL+3g+dpO2IKX8jvZQLv51nvyl1ZnWKtmC2OIUq4W9PUJ/qu6/Ss8JT+VfmT1IuCzjAAQ5wgAMc4AAHOMABDnBePM79qh+CKOIuaEADGtCABjSgAQ1oQAMa0IBmNc29OkmCRtQ9Ag5wgAMc4AAHOMABDnCAAxzg1MFRrwGWPWHLa3qBFKQgBSlIQQpSkIIUpCAFKUhBCtKXQVpZTDEjzYsjghSkIAUpSEEKUpCCFKQgBSlIQQrSl0GqVYE1o84rqoIa1KAGNahBDWpQgxrUoAY1qEENalA/IXWJ5UbOTbtS7NZKvMTnJxNnyq2E3ybtVx/CWRRXY8zvH/mZX0155CSziLP2+w2hUSGyucneuC5zWKbFbrxkwuLwijN3UHFkfD22nOlULCjSEtZbGxUHlJvlJEmULyGz3dM8SCz40lc/KE7mYt0Vgdd1gtEkjFp3i51oalyEQdK94d54kgiN89B31TXyq/Pb0eHb7tvu5wmPrsI4cRJ2wpNp6KXCh2Hoe8H41caq6/V6Mx5F3jT5SbrP603Xu364WXqMXCzVYp570BoJdz5Mz9/xAh6d9fstlnXKQcv14qnvzPe9QKyH0z33w9HXH1tyvlQ0PwWWzKfp8aJfNi+dayf/deWRYssW6bkes4NyLZ6A35xcj9utf95n7LAtsbRN+kflSFpY0OX0r1WivivlJ11H1baGi6s/bS2s/pRX/ltae2qFar8R1cV1sra3rIFspSo91a1GVIeNqG43orrTiOpuI6qLa+Rt78gXI9VTXV7ok8xh7WZGl93M8Fpec5NOdqsZ2WEzstvNyO40I7vbjOxeM1GhmVHWbyiGNTPK+s2Msr7BKLtfmKpGhhBxV0NUsW/1RBXzAz1RxfRAT1QxO9ATVUwO9EQVcwM9UcXUQE9UMTPQE1VNDDRVGxlTqmmBpqrifKWpqjhdaaoq5gSaqoopgaaqYkagqaqYEGiqKuYDmjGgkbGlmg1oqjYytlRzAU3VumPrXuGUGmmAqLOioarYrZqqiomApqpiJqCpqpgKaKoq5gKaqorJgKaqYjagqaqYDmiqquYDurLNjC7VjEBXVnHa0pVVnLd0ZRWTAl1ZxaxAV1YxLdCVVcwLdGUVEwPdqNDMKFNNDXRlmxllqsmBrmzdUab+CbYsbVh1Fzj/YpvAoOpdGzKDqk8lyAyqPrAgM6j6LIPMoOpjDjKDqk9AyAyqPhwhM7j32AaXMqVVT2roLKreB6az+OiTjfIzGjqLqjeW6SyqPtmhs6j60IfOourzIDqLqo+K6CyqPkWii/2qD5joLD76nKP8WIrO4qPPOX2KFKfyy8E6r8HkHxoSGFS9imQGVdNUMoOq15DMoGqaSmZQNU0lM6iappIZVE1TyQyqvt5DZlD5zR86i48+1yinqXQWVUMGnUXVNJXOomqaSmdRNU2ls6iaptJZVE1T6Syqpql0sf/R5xzlNJXO4qPPOcppKp1FijlH6+OOOilr/i0IsXHVq9uIcdVUthHjqmltI8ZVU9xGjKumu40YV019GzGumgY3Ylw1JW7EuHJ63Iz1J53jlNPmZqyrhrNmrKuGtmasq6bWzVhXTbObsa6acjdjXTX9bsa6aireTE7zpHOdcorejPUnneuUU/dmrOvOdV9UvsIsvp1mByzgN+VHntm3ne34etzJvtKs/Jyz/AA75snbcBa4cXvY6zDbHnbYQPytP1T7JPQ2xbj7xtx1D52Ej8No/ubWi/PPl+96Q+Er71TgOHJ59GkmviZWPlBwzJc5fuVOPIt4jiE+iC6ugul369nHtcumTnjk8bjATS0VF2Tqh4klvvitNBk/dN7VpLGVvYwzDX0n8cIghWrFCZ92z/lFGPGWmid95GMeuMsnlP/W3k69YCA8QXwhbIs/io/CK7+XL2WtszFPjoJE9E9q4mIWjDLS9gb7U+GrcEHI744+rRwbYvMuWDuZeHHq1+I4NUNiWzjISvvvyBlN2n8B66qV+MUH04Xu2TSMPSH4Lv1Z5WzKTcg8QBWFN3pIJZYXuFwM3K7d0Ty63C7rHnjhcV/4W7vo03ycjKNwNuUu++EH9o/i91vrbOLExXwiBtjGYuv8wda0QyxnPH4vbFg+D8bJhL1mffZv1nrj+y22v7xH7Hsj3u7aG6e9LxuV4+3emYQRa1+mp9L7kV2mZgpXLeyK3/51wGz9CyQ24caF3unlF+srT6e3g4O88+opZqrFZb/UPdVyO4+487XOwd80j9HdX/RXcXYHwq2FMxSekgVG6yyvf8LdQxFy49OsJ7/U68ryQk9n8aRd91qkl3Q/v571R5Lv76ucpSX2rGslTqLwK1ezk+9b11I4dUZptqVmqti59lllJkpTdVXKiWR5WqkzPLQnH7GVw3l54klzVVtXTWe4qbN+62RRVWn/b1U5hdg2N9nvf3xm/z3+4xM7Of70+ZfffmYfj3/+5ZB9OPp0pCbwPp21+a0jUjSWhCwO00Q6mF2lfjBiWYoYMycepcmLF4wVFMu+FzoLkdnpsHP1ySXiySwK2NSJYv7eD52k7YgpfyO9lAu/nWe/KXVmdYq2YLY4hSrhb09Qp+q7r9KzAlT5V+ZPUjYLOMABDnCAAxzgAAc4wAEOcF48zv2qH4Io4i5oQAMa0IAGNKABDWhAAxrQgGY1zb06SYJG1D0CDnCAAxzgAAc4wAEOcIADHODUwVGvAZY9YctreoEUpCAFKUhBClKQghSkIAUpSEEK0pdBWllMMSPNiyOCFKQgBSlIQQpSkIIUpCAFKUhBCtKXQapVgTWjziuqghrUoAY1qEENalCDGtSgBjWoQQ1qUD8hdYnlRs5Nu1Ls1kq8xOcnE2fKrYTfJu1XH8JZFFdjzO8f+ZlfTXnkJLOIs/b7DaFRIbK5yd64LnNYpsVuvGTC4vCKM3dQcWR8Pbac6VQsKNIS1lsbFQeUm+UkSZQvIbPd0zxILPjSVz8oTuZi3RWB13WC0SSMWneLnWhqXIRB0r3h3niSCI3z0HfVNfKr89vR4dvu2+7nCY+uwjhxEnbCk2nopcIfuJN4wfjVxqrr9XozHkXeNPlJus/rTde7frhZeoxcLNVinnvQGgl3PkzP3/ECHp31By2WdcpBy/Xiqe/M971ArIfTPffD0dcfW3K+VDQ/BZbMp+nxol82L51rJ/915ZFiyxbpuR6zg3ItnoDfnFyP261/3mfssC2xtE36R+VIWljQ5fSvVaK+K+UnW0e1Z/UX1nvKa/0trTa1QqdPpDMg0tki0hkS6WwT6ewQ6ewS6ewR6SwttWkkROXRNpVL21Q+bVM5tU3l1TaVW9tUfm1TObZN5dl9Ks/uk83VVJ7dp/LsvpZn3y+kpBTRIu5qyEj7SE9G2kN6MtL+0ZORjns9Gemo15ORjnk9GemI15ORjnc9GXkg09Qh8mN5GNPUIfJkeRDT1CHyZXkI09Qh8mZ5ANPUIfJnefjS1KGal4n8WR67NHXU/fleYQqlsCUqV2joSLtHU0faPZo60u7R1JEOd00d6XDX1JEOd00d6XDX1JEOd00defzSFaLyaHkE0xWi8ml5DNMVovJqeRTTFaLya3kc0xWi8mx5JNMVIpurqTxbHsx0hSo8G4u/Y/H3QkjhMCz+fm/D4u8qWFj8HYu/19mw+LvYsPg7Fn/PNiz+vnpPLP5eLSA2LP7+MtZIBA5wgAMc4AAHOMABDnCAA5wXj/PMlk4EDWhAAxrQgAY0oAENaEADmpdD87zWSAQOcIADHOAABzjAAQ5wgAOcZ4XzhMXQUP3sWVU/OxlNuDtLe1l8DhXzhA1eRrWzrRdQ7WzrEaud9YZE5c4MhAZUQltUQkMqoW0qoR0qoV0qoT0qoe++tjdRIvNtm8y5bTLvtsnc2ybzb5vMwW0yD7fJXNwm8/E+mY/36eZvMh/vk/l4X8/HdaqgLWqZlEGrryPvJZNCaPV15LOASSm0+jryGcCkGFp9HfnoNyqHZiBE5dErwptRRTQDISqnXhHbjIqiGQhR+fWKwGZUF81gZqTy7BVRzag0moEQlWevCGkm1dEWdYzKoxkIybvIqECagZB88BuVSDMQkg9+oyJpBkLywW9WJs1Eicy3V0Q2s0ppJkpk7r0iuJkVSzNRIvPwFfHNrF6ayVxJ5uMrQpxZyTQTJTIfXxHlUDUNVdNQNe0eIaqmiQ1V01A1DVXTVmyomoaqaVpnhappS/Y19kfVtMUNVdPutgZe0npmxQWAAxzgAAc4wAEOcIADHOAA58XjPLOaA6ABDWhAAxrQgAY0oAENaEDzcmj+NrUOgAMc4AAHOMABDnCAAxzgAKe+PVRNKzZUTSurpm29jKppwxdQNW34aFXTtrNvQutWuKESGlAJbVEJDamEtqmEdqiEdqmE9qiElj6+N1Mi822bzLltMu+2ydzbJvNvm8zBbTIPt8lc3Cbz8T6Zj/fp5m8yH++T+Xhfz8fVq6Yta9WvmmaiI++l+lXTTHTks0D9qmkmOvIZoH7VNBMd+eg3qJpmJETl0SvCm0HVNCMhKqdeEdsMqqYZCVH59YrAZlA1zWhmpPLsFVHNoGqakRCVZ68IafWrpi3rGFRNMxKSd5FB1TQjIfngN6iaZiQkH/wGVdOMhOSD36RqmpkSmW+viGwmVdPMlMjce0VwM6maZqZE5uEr4ptJ1TSzuZLMx1eEOJOqaWZKZD6+IsqhahqqpqFq2j1CVE0TG6qmoWoaqqat2FA1DVXTtM4KVdOW7Gvsj6ppixuqpt1tDbyk9cyKCwAHOMABDnCAAxzgAAc4wAHOi8d5ZjUHQAMa0IAGNKABDWhAAxrQgObl0Pxtah0ABzjAAQ5wgAMc4AAHOMABTn17qJpWbKiaVlZNG76MqmnbL6Bq2vajVU3rWX2SomkmOgMinS0inSGRzjaRzg6Rzi6Rzh6RztI390ZCVB5tU7m0TeXTNpVT21RebVO5tU3l1zaVY9tUnt2n8uw+2VxN5dl9Ks/ua3m2enW0Jan6xdEMZKQ9VL80moGMdNzXL4xmICMd8/XLohnISMe7QVE0Ex0iP5aHMYOKaCY6RK4sj2EG5dBMdIi8WR7ADGqhmcyDRP4sj14GhdBMdIj8WR666ldBW5IxKIJmoiPtHoMSaCY60uFuUADNREc63A3Kn5noSIe7SfEzIyEqj5ZHMJPKZ0ZCVE4tD2ImZc+MhKj8Wh7HTGqeGc2MVJ4tD2UmBc+MhKg8Wx7NUO0M1c5Q7eweIaqdiQ3VzlDtDNXOVmyodoZqZ1pnhWpnS/Y19ke1s8UN1c7utgZernpmRQGAAxzgAAc4wAEOcIADHOAA58XjPLNaAaABDWhAAxrQgAY0oAENaEDzcmj+NjUKgAMc4AAHOMABDnCAAxzgAKe+PVQ7KzZUOyurnW2/jGpnOy+g2tnOI1Y76w2Jyp0ZCA2ohLaohIZUQttUQjtUQrtUQntUQt99bW+iRObbNplz22TebZO5t03m3zaZg9tkHm6TubhN5uN9Mh/v083fZD7eJ/Pxvp6P61RBW9QyKYNWX0feSyaF0OrryGcBk1Jo9XXkM4BJMbT6OvLRb1QOzUCIyqNXhDejimgGQlROvSK2GRVFMxCi8usVgc2oLprBzEjl2SuimlFpNAMhKs9eEdJMqqMt6hiVRzMQkneRUYE0AyH54DcqkWYgJB/8RkXSDITkg9+sTJqJEplvr4hsZpXSTJTI3HtFcDMrlmaiRObhK+KbWb00k7mSzMdXhDizkmkmSmQ+viLKoWoaqqahato9QlRNExuqpqFqGqqmrdhQNQ1V07TOClXTluxr7I+qaYsbqqbdbQ28pPXMigsABzjAAQ5wgAMc4AAHOMABzovHeWY1B0ADGtCABjSgAQ1oQAMa0IDm5dD8bWodAAc4wAEOcIADHOAABzjAAU59e6iaVmyomlZWTdt5GVXTdl9A1bTdR6uatp19E1q3wg2V0IBKaItKaEgltE0ltEMltEsltEcltPTxvZkSmW/bZM5tk3m3TebeNpl/22QObpN5uE3m4jaZj/fJfLxPN3+T+XifzMf7ej6uXjVtWat+1TQTHXkv1a+aZqIjnwXqV00z0ZHPAPWrppnoyEe/QdU0IyEqj14R3gyqphkJUTn1ithmUDXNSIjKr1cENoOqaUYzI5Vnr4hqBlXTjISoPHtFSKtfNW1Zx6BqmpGQvIsMqqYZCckHv0HVNCMh+eA3qJpmJCQf/CZV08yUyHx7RWQzqZpmpkTm3iuCm0nVNDMlMg9fEd9MqqaZzZVkPr4ixJlUTTNTIvPxFVEOVdNQNQ1V0+4Romqa2FA1DVXTUDVtxYaqaaiapnVWqJq2ZF9jf1RNW9xQNe1ua+AlrWdWXAA4wAEOcIADHOAABzjAAQ5wXjzOM6s5ABrQgAY0oAENaEADGtCABjQvh+ZvU+sAOMABDnCAAxzgAAc4wAEOcOrbQ9W0YkPVtLJq2u7LqJq29wKqpu09WtU0e6tn9RY2e4ukhhqh7KAZ2a1mZIfNyG43I7vTjOxuM7J7zcguffpPqdvQOLMbGmh2QyPNbmio2Q2NNbuhwWY3NNrshoab3dB46zc03vpNxbWGxlu/ofHWNxlv6lXoVinXr0lHp6rau/Xr1dGpqs5k9WvZ0amqzmL169zRqarOYAY18AhlmxldyumCQbU8QtlmBphyrmBQV49QtpkxppwoGFTgI4wKzYwy5SzBoFYfoWwzo0w5Rahf1W+VqkGNP0JZ1a41qP9HKKs6gRnUBiSUVZ3ADOoGEsqqTmAmNQUpdRsaZ8qZgkn1QUrdhoaacrJgUqeQUreh0aacL5hUNKSMEw2NN+WUwaT2IaVuQ+NNOWtAlURUSUSVxHuEqJIoNlRJRJVEVElcsaFKIqokap0VqiQu2dfYH1USFzdUSbzbGngp85kVEwEOcIADHOAABzjAAQ5wgAOcF4/zzGqMgAY0oAENaEADGtCABjSgAc3Lofnb1DYBDnCAAxzgAAc4wAEOcIADnPr2nqBK4md+NeWRk8wiztrvN1A08XkVTeTRtTfi7D+O8LyPYThl4oKJ95y3eu9fRAHFQe/5F1BMGR+tgKL4e91KTUQ6AyKdLSKdIZHONpHODpHOLpHOHpHOcoEBEyEqj7apXNqm8mmbyqltKq+2qdzapvJrm8qxbSrP7lN5dp9srqby7D6VZ/e1PFujsN+ilEElv/oy0h4yqNVXX0Y67g2q8dWXkY55g3p79WWk492kop6BDpEfy8OYSZE8Ax0iV5bHMJO6dwY6RN4sD2AmpewM5kEif5ZHL5PqdAY6RP4sD10GBecWZUwqzBnoSLvHpIacgY50uJtUiTPQkQ53kzpwBjrS4W5U6c1EiMqj5RHMqHibiRCVU8uDmFE9NhMhKr+WxzGjEmsmMyOVZ8tDmVHVNBMhKs+WR7N7Qr9HXhh5yZzZrMvaJ7NgQ5Sk2u7+byfo9uxu9vd3fNQd2LIw11v6h96bN1tbe3sEJuT/uiUzMWj+LLaaNzFs3sR28yZ2mjex27yJveZNLEX2pmw8wvhecWOWzob8zhadDflNLzob8ju9dDbkN4HpbMjvD9PZkN86prMhv6tMF//kN5zpbMjvRdPZeIRxvuIONp2NeqG8n9lwEpmNntpj3MGg39/dJjAhvxpkJuRpFZkJ+bUgMyFPq8hMyNMqMhPytIrMhDytIjMhT6vITKxIq+hsPML4XpFW0dmQT7d0NuRpFZ0NeVpFZ0OeVtHZkKdVdDbkaRWdDXlaRRf/5GkVnY3HiOOPMM5XpFV0NuqN84Gw8T7yJDbEesUqaZVt7+wMBgQm+tLoQWZCnlaRmZCnVWQm5GkVmQl5WkVmQp5WkZmQp1VkJuRpFZmJFWkVnY1HGN8r0io6G/Lpls6GfLqlsyFPq+hsyNMqOhvytIrOhjytorMhT6vo4p88raKz8Rhx/BHG+Yq0is5GvXG+JWx8nsxkNnbV0qq9dBu+JTAhT6vITMjTKjIT8rSKzIQ8rSIzIU+ryEzI0yoyE/K0isyEPK0iM7EiraKz8Qjje0VaRWdDPt3S2ZBPt3Q25GkVnQ15WkVnQ55W0dmQp1V0NuRpFV38k6dVdDYeI44/wjhfkVbR2ag3zofCxn+4K7Oxo5ZWvXt3eLizQ2BCnlaRmZCnVWQm5GkVmQl5WkVmQp5WkZmQp1VkJuRpFZkJeVpFZmJFWkVn4xHG94q0is6GfLqlsyGfbulsyNMqOhvytIrOhjytorMhT6vobMjTKrr4J0+r6Gw8Rhx/hHG+Iq2is1FvnG9nqduMy2xsq6VVh4fb2yQm5GkVmQl5WkVmQp5WkZmQp1VkJuRpFZkJeVpFZkKeVpGZkKdVZCZWpFV0Nh5hfK9Iq+hsyKdbOhvy6ZbOhjytorMhT6vobMjTKjob8rSKzoY8raKLf/K0is7GY8TxRxjnK9IqOhv1xvmOsPFrKHstvj9US6t2d/v94ZDAhDytIjMhT6vITMjTKjIT8rSKzIQ8rSIzIU+ryEzI0yoyE/K0iszEirSKzsYjjO+VJdqobKyqcUVlY1X5Kyobq2q+UdlYVQ6OysaqSnFUNlYVkaOysaq+HFX8W1V6jsrGY8TxRxjnK2vZUdmoHudfVCq8FjWZ2QEL+E1ZQDarG9uOr8edrAJsZanYsrBzzJO34Sxw4/aw12G2Peywgfhbf6hWbvY2xbgrSu26h07Cx2E0f3PrxXlZ5LvzV6genQocRy6PPs1ElWLlAwXHfJnjV+7Es4jnGKLQctHvDZfnRjOa0YxmNKMZzWhGM5rRjGY0oxnNaEYzmtGMZjSjGc1oRjOa0YxmNKMZzWhGM5rRjGY0oxnNaEYzmtGMZjSjGc1oRjOa0YxmNKMZzWhG81o1z63wmkeR5/JfHfFhrW31DL9XFZ/Gxsufxp7wyONx8Xltq1N+QDz1w8TyvYBXfiIbP/SdbvWXtbGVLT0/DX0n8cIghWrFCZ92z/lFGPGW2pfPH/mYB+7yCeW/tbd7HTYQXy73xIfM4o+Wzy8SAVYhXcpaZ2OeHAWJ6J/UxMUsGGWk7Q32Z4VEScjvjj6t/JZbbN4FaycTL7bi7KqoGRLbwkFW2n9HzmjS/gtYV63EF5+Op+yF7tk0jD0h+C79WeVsyk3IPEAVhTd6SCWWF7hcjIeu3dE8utwu6x544XFf+Fu76NN8nIyjcDblLvvhB/aP4vdb62zixMX372KAbSy2zh9sTTvEcsbj98KG5fNgnEzYa9Zn/2atN77fYvvLe8S+N+Ltrr1x2vuyUTne7p1JGLH2ZXoqvR/ZZWqmcNXCrvjtX+mMo3+BxCbcuNA7vfxifeVzdnBwkHdePcVMtbjsl7qnWm7nEXe+1jn4m+YxuvuL/irO7kC4tXCGwlOyQg7WmRPH3jjg7qEoERGfZj35pV5Xlhd6Oosn7brXIr2k+/n1rD+SfH9f5SwtsWddK3EShV+5mp1837qWwqkz8pK5mqli59pnlZkoTdVVKSeS5WmlzvDQnnzEVg7n5YmHdZmtq6Yz3NRZv3WyqKq0/7eqnEJsm5vs9z8+s/8e//GJnRx/+vzLbz+zj8c//3LIPhx9OlITeJ/O2vzWESkaS0IWh1HCgtlV6gcjlpU0iZkTj9LkxQvGCopl3wudhcjsdNi5+uQS8WQWBWzqRDF/74dO0nbElL+RXsqF386z35Q6szpFWzBbnEKV8LdmK73c5Z/ZcM8Ge/uVyy+cmZ+waRSmcxh/1WGv/rm7e3h4dPSq4cIzwAEOcIADHOAABzjAAQ5wgLOeOCyeXaX/BGYuFz8y15kLooi7oAENaEADGtCABjSgAQ1oQAOa1TQ32atZ39Gc+zMOHOAABzjAAQ5wgAMc4AAHOMCpg3O3bqAt1g08mcnWDRzY2RO2N2+2tvb2QApSkIIUpCAFKUhBClKQghSkIAXpyyDtZ6ROIiPtZaSDQb+/uw1SkIIUpCAFKUhBClKQghSkIAUpSF8G6UCQvo88CWl/LyO17Z2dwQCkIAUpSEEKUpCCFKQgBSlIQQpSkL4M0i1B+nkyk5HuZqR76TZ8C1KQghSkIAUpSEEKUpCCFKQgBSlIXwbpUJD+h7sy0p2M9N27w8OdHZCCFKQgBSlIQQpSkIIUpCAFKUhB+jJIt7M7EzMuI93OSA8Pt7dBClKQghSkIAUpSEEKUpCCFKQgBelLId0RpL+GssqC/WFGurvb7w+HIAUpSEEKUpCCFKQgBSlIQQpSkIL00UhLFDdybtqVYrdW4iU+P5k4U24l/DZpv/oQzqK4GmN+/8h33hUPYi8MfB5nChUSm5vsjesyh2VK7MZLJiwOrzhzBxVHxtdjy5lOeeC2W8J2a6PigHKznCSJ2q3bVodt9zQPmqcH9dUPipO5z3O8rhOMJmGUHt/y+YUGbaFxEQZJ94Z740kiNM5D31XXyK/NybT7zgu8YMxO5nF3wN77UddmJ6NJ9y378Ls/ukq6cThLL8D//MZ+Ozp8K3ZL+BUbsN9P/ocdj0Zi31cbqy7p6814FHnT5CfpPq83Xe/64WbpMXKxVIt57kFrJPz9MO0ixwt4dDawWyzrt4OW68VT35nve4GfNnXP/XD09ceWnC8VzU+BJfNperzous1L59rJf115pNiunUi4Jjtgrnc19bkV8JuT63G79c/7jB221etlf1QONSHrOomT6p7+2fKdc+639lsuv3BmfsKmUXjh+bzVyVvOblv7ttXrtK4df8Zb+9t71t7CtrvXaY3E/JQqpFPO4eHRUetbR0m134jqoBHVrUZUh42objeiutOI6m4jqnuNqNq9ZmSbGV12M8PLbmZ82c0MMLuZEWY3M8TsZsaY3cwgs5sZZf1mRlm/oRjWzCjrNzPK+gajjMWzq6ulJb9rZAgRdzVEFftWT1SxZ/VEFftVT1Rx7tITVZy59EQV5y09UcVZS09Ucc7SE1VNDDRVGxlTqmmBpmojo0o1KdBUbWRcqaYEmqqNjCzVhEBTtZGxpZoOaKo2E68aGVuquYCmat2xdeMFiWkacC52UFdV7FZNVcVu1VRV7FZNVcUpS1NVccrSVFWcsjRVFacsTVXFKUtTVTUf0JVtZnSpZgS6ss2ML9WcQFe2mRGmmhXoyjYzxlTzAl3ZZkaZamagK9tQDGtmlKkmB7qyWqPsi8oDh+I5IjtgAb8pn2dkjzHa8fW4kz2QqHxyUT6MjHnyNpwFbtwe9jrMtocdNhB/6w/Vnn7cphh3z1hd99BJ+DiM5m9uvTh/mHfXFQpPPFOB48jl0aeZeLamfKDgmC9z/MqdeBbxHEM8Hiwugekz3Ow50rKpEx55PC5wU0vFBZn6YWKJh1uVJuOHzruaNLYyv5uGvpN4YZBCteKET7vn/CKMeEvNkz7yMQ/c5RPKf2tvp14wEJ4gHobZ4o/iEWnl0+NS1job8+QoSET/pCYuZsEoI21vsD8VnpEKQn539Gnl2BCbd8HaycSLU78Wx6kZEtvCQVbaf0fOaNL+C1hXrcQvng0WumfTMPaE4Lv0Z5WzKTch8wBVFN7oIZVYXuByMXC7dkfz6HK7rHvghcd94W/tok/zcTKOwtmUu+yHH9g/it9vrbOJExfziRhgG4ut8wdb0w6xnPH4vbBh+TwYJxP2mvXZv1nrje+32P7yHrHvjXi7a2+c9r5sVI63e2cSRqx9mZ5K70d2mZopXLWwK3771wGz9S+Q2IQbF3qnl1+srzyd3g4O8s6rp5ipFpf9UvdUy+084s7XOgd/0zxGd3/RX8XZHQi3Fs5QeEoWGK2z/P0f7mZvAMWnWU9+qdeV5YWezuJJu+61SC/pfn49648k399XOUtL7FnXSpxE4VeuZifft66lcOqMvGSuZqrYufZZZSZKU3VVyolkeVqpMzy0Jx+xlcN5eeJhXWbrqukMN3XWb50sqirt/60qpxDb5ib7/Y/P7L/Hf3xiJ8efPv/y28/s4/HPvxyyD0efjtQE3qezNr91RIrGkpDFYZpIB7Or1A9GLEsRY+bEozR58YKxgmLZ90JnITI7HXauPrlEPJlFAZs6Uczf+6GTtB0x5W+kl3Lht/PsN6XOrE7RFswWp1Al/O0J3tP87gFs8TKmeKD6JK+NAgc4wAEOcIADHOAABzjAAc6Lx7n/gosgirgLGtCABjSgAQ1oQAMa0IAGNKBZTXPvlUBBI17xAw5wgAMc4AAHOMABDnCAAxzgPGF1xM/8asojJ5lFnLXfb6A+4rOqj/gfR3jcB57935urc48HCROXTNQ95O4s7f8u2+m9fxklEPsvoARi/9FKIGYfntYtwUSkMyDS2SLSGRLpbBPp7BDp7BLp7BHpLNUWMBKi8mibyqVtKp+2qZzapvJqm8qtbSq/tqkc26by7D6VZ/fJ5moqz+5TeXZfy7PVS/YtSdUv0mcgI+2h+oX4DGSk475+sT0DGemYr19Qz0BGOt4NiuaZ6BD5sTyMGZTCM9EhcmV5DDMocGeiQ+TN8gBmULbOZB4k8md59DIoRmeiQ+TP8tBVv8TckoxBUTkTHWn3GBSOM9GRDneD4nAmOtLhblAAzkRHOtxNirwZCVF5tDyCmZRuMxKicmp5EDMpyGYkROXX8jhmUmbNaGak8mx5KDMpnmYkROXZ8miGkmgvoiQamtGMZjSjGc1oRjOa0YxmNKMZzWhGM5qfU/PcCq95FHku/9URN6psq4eS+AtngpL4dxtK4mttKImPkvgaG0rif7+hJP73G0ria24oiY+S+A9uKIkPHOAABzjAAQ5wgAMc4AAHOMB5CQUlQQMa0IAGNKABDWhAAxrQgObl0PxtClkCBzjAAQ5wgAMc4AAHOMABTn17T1AS/513xYPYCwOfxzEK4j+vgvhh9JUdXVx4I48Ho/ldGfzHLYBf7P1dy+J/l3/P//9OvfjL3f+dh+5c/P8kufJ/+l//D2nHHuw="
               },
               {
                  "name" : "annual_peak_electric_demand",
                  "units" : "kW",
                  "value" : 7.4908500000000009
               },
               {
                  "name" : "first_year_capital_cost",
                  "units" : "$",
                  "value" : 0
               },
               {
                  "name" : "annual_utility_cost",
                  "units" : "$",
                  "value" : 5878.6300000000001
               },
               {
                  "name" : "total_lifecycle_cost",
                  "units" : "$",
                  "value" : 102540.33
               }
            ],
            "step_warnings" : []
         }
      }
   ],
   "updated_at" : "20170710T184604Z",
   "weather_file" : "USA_CO_Denver.Intl.AP.725650_TMY3.epw"
}
