{
   "completed_at" : "20170710T192103Z",
   "completed_status" : "Success",
   "created_at" : "2017-07-10 19:04:05 +0000",
   "current_step" : 5,
   "description" : "",
   "eplusout_err" : "Program Version,EnergyPlus, Version 8.7.0-78a111df4a, YMD=2017.07.10 19:12,IDD_Version 8.7.0\n   ************* IDF Context for following error/warning message:\n   ************* Note -- lines truncated at 300 characters, if necessary...\n   *************      5 Building,\n   ************* indicated Name=NECB 2011-Hospital-NECB HDD Method-CAN_NF_Stephenville.718150_CWEC.epw created: 2017-07-10 19:04:14 +0000\n   ************* Only last 1 lines before error line shown.....\n   *************      6   NECB 2011-Hospital-NECB HDD Method-CAN_NF_Stephenville.718150_CWEC.epw created: 2017-07-10 19:04:14 +0000, !- Name\n   ** Warning ** IP: IDF line~6 Alpha Argument length exceeds maximum, will be truncated=  NECB 2011-Hospital-NECB HDD Method-CAN_NF_Stephenville.718150_CWEC.epw created: 2017-07-10 19:04:14 +000\n   **   ~~~   ** Will be processed as Alpha=NECB 2011-HOSPITAL-NECB HDD METHOD-CAN_NF_STEPHENVILLE.718150_CWEC.EPW CREATED: 2017-07-10 19:04:14 +0000\n   ************* IDF Context for following error/warning message:\n   ************* Note -- lines truncated at 300 characters, if necessary...\n   *************   5647 Schedule:Week:Daily,\n   ************* indicated Name=Schedule:Week:Daily {ce1385c2-66b1-4295-8b56-973cecc6a2e4}\n   ************* Only last 10 lines before error line shown.....\n   *************   5648   Schedule:Week:Daily {ce1385c2-66b1-4295-8b56-973cecc6a2e4}, !- Name\n   *************   5649   Sp-ER_NurseStn_Lobby_Flr_1 Sys-3 Flr-1 Sch-H HPlcmt-east ZN NECB System 3 PSZ Occ Sch Sunday, !- Sunday Schedule:Day Name\n   *************   5650   Sp-ER_NurseStn_Lobby_Flr_1 Sys-3 Flr-1 Sch-H HPlcmt-east ZN NECB System 3 PSZ Occ Sch Monday, !- Monday Schedule:Day Name\n   *************   5651   Sp-ER_NurseStn_Lobby_Flr_1 Sys-3 Flr-1 Sch-H HPlcmt-east ZN NECB System 3 PSZ Occ Sch Tuesday, !- Tuesday Schedule:Day Name\n   *************   5652   Sp-ER_NurseStn_Lobby_Flr_1 Sys-3 Flr-1 Sch-H HPlcmt-east ZN NECB System 3 PSZ Occ Sch Wednesday, !- Wednesday Schedule:Day Name\n   *************   5653   Sp-ER_NurseStn_Lobby_Flr_1 Sys-3 Flr-1 Sch-H HPlcmt-east ZN NECB System 3 PSZ Occ Sch Thursday, !- Thursday Schedule:Day Name\n   *************   5654   Sp-ER_NurseStn_Lobby_Flr_1 Sys-3 Flr-1 Sch-H HPlcmt-east ZN NECB System 3 PSZ Occ Sch Friday, !- Friday Schedule:Day Name\n   *************   5655   Sp-ER_NurseStn_Lobby_Flr_1 Sys-3 Flr-1 Sch-H HPlcmt-east ZN NECB System 3 PSZ Occ Sch Saturday, !- Saturday Schedule:Day Name\n   *************   5656   Sp-ER_NurseStn_Lobby_Flr_1 Sys-3 Flr-1 Sch-H HPlcmt-east ZN NECB System 3 PSZ Occ Sch Default, !- Holiday Schedule:Day Name\n   *************   5657   Sp-ER_NurseStn_Lobby_Flr_1 Sys-3 Flr-1 Sch-H HPlcmt-east ZN NECB System 3 PSZ Occ Sch Summer Design Day, !- SummerDesignDay Schedule:Day Name\n   ** Warning ** IP: IDF line~5657 Alpha Argument length exceeds maximum, will be truncated=  Sp-ER_NurseStn_Lobby_Flr_1 Sys-3 Flr-1 Sch-H HPlcmt-east ZN NECB System 3 PSZ Occ Sch Summer Design Da\n   **   ~~~   ** Will be processed as Alpha=SP-ER_NURSESTN_LOBBY_FLR_1 SYS-3 FLR-1 SCH-H HPLCMT-EAST ZN NECB SYSTEM 3 PSZ OCC SCH SUMMER DESIGN DAY\n   ************* IDF Context for following error/warning message:\n   ************* Note -- lines truncated at 300 characters, if necessary...\n   *************   5647 Schedule:Week:Daily,\n   ************* indicated Name=Schedule:Week:Daily {ce1385c2-66b1-4295-8b56-973cecc6a2e4}\n   ************* Only last 10 lines before error line shown.....\n   *************   5649   Sp-ER_NurseStn_Lobby_Flr_1 Sys-3 Flr-1 Sch-H HPlcmt-east ZN NECB System 3 PSZ Occ Sch Sunday, !- Sunday Schedule:Day Name\n   *************   5650   Sp-ER_NurseStn_Lobby_Flr_1 Sys-3 Flr-1 Sch-H HPlcmt-east ZN NECB System 3 PSZ Occ Sch Monday, !- Monday Schedule:Day Name\n   *************   5651   Sp-ER_NurseStn_Lobby_Flr_1 Sys-3 Flr-1 Sch-H HPlcmt-east ZN NECB System 3 PSZ Occ Sch Tuesday, !- Tuesday Schedule:Day Name\n   *************   5652   Sp-ER_NurseStn_Lobby_Flr_1 Sys-3 Flr-1 Sch-H HPlcmt-east ZN NECB System 3 PSZ Occ Sch Wednesday, !- Wednesday Schedule:Day Name\n   *************   5653   Sp-ER_NurseStn_Lobby_Flr_1 Sys-3 Flr-1 Sch-H HPlcmt-east ZN NECB System 3 PSZ Occ Sch Thursday, !- Thursday Schedule:Day Name\n   *************   5654   Sp-ER_NurseStn_Lobby_Flr_1 Sys-3 Flr-1 Sch-H HPlcmt-east ZN NECB System 3 PSZ Occ Sch Friday, !- Friday Schedule:Day Name\n   *************   5655   Sp-ER_NurseStn_Lobby_Flr_1 Sys-3 Flr-1 Sch-H HPlcmt-east ZN NECB System 3 PSZ Occ Sch Saturday, !- Saturday Schedule:Day Name\n   *************   5656   Sp-ER_NurseStn_Lobby_Flr_1 Sys-3 Flr-1 Sch-H HPlcmt-east ZN NECB System 3 PSZ Occ Sch Default, !- Holiday Schedule:Day Name\n   *************   5657   Sp-ER_NurseStn_Lobby_Flr_1 Sys-3 Flr-1 Sch-H HPlcmt-east ZN NECB System 3 PSZ Occ Sch Summer Design Day, !- SummerDesignDay Schedule:Day Name\n   *************   5658   Sp-ER_NurseStn_Lobby_Flr_1 Sys-3 Flr-1 Sch-H HPlcmt-east ZN NECB System 3 PSZ Occ Sch Winter Design Day, !- WinterDesignDay Schedule:Day Name\n   ** Warning ** IP: IDF line~5658 Alpha Argument length exceeds maximum, will be truncated=  Sp-ER_NurseStn_Lobby_Flr_1 Sys-3 Flr-1 Sch-H HPlcmt-east ZN NECB System 3 PSZ Occ Sch Winter Design Da\n   **   ~~~   ** Will be processed as Alpha=SP-ER_NURSESTN_LOBBY_FLR_1 SYS-3 FLR-1 SCH-H HPLCMT-EAST ZN NECB SYSTEM 3 PSZ OCC SCH WINTER DESIGN DAY\n   ************* IDF Context for following error/warning message:\n   ************* Note -- lines truncated at 300 characters, if necessary...\n   *************   5678 Schedule:Day:Interval,\n   ************* indicated Name=Sp-ER_NurseStn_Lobby_Flr_1 Sys-3 Flr-1 Sch-H HPlcmt-east ZN NECB System 3 PSZ Occ Sch Summer Design Day\n   ************* Only last 1 lines before error line shown.....\n   *************   5679   Sp-ER_NurseStn_Lobby_Flr_1 Sys-3 Flr-1 Sch-H HPlcmt-east ZN NECB System 3 PSZ Occ Sch Summer Design Day, !- Name\n   ** Warning ** IP: IDF line~5679 Alpha Argument length exceeds maximum, will be truncated=  Sp-ER_NurseStn_Lobby_Flr_1 Sys-3 Flr-1 Sch-H HPlcmt-east ZN NECB System 3 PSZ Occ Sch Summer Design Da\n   **   ~~~   ** Will be processed as Alpha=SP-ER_NURSESTN_LOBBY_FLR_1 SYS-3 FLR-1 SCH-H HPLCMT-EAST ZN NECB SYSTEM 3 PSZ OCC SCH SUMMER DESIGN DAY\n   ************* IDF Context for following error/warning message:\n   ************* Note -- lines truncated at 300 characters, if necessary...\n   *************   5685 Schedule:Day:Interval,\n   ************* indicated Name=Sp-ER_NurseStn_Lobby_Flr_1 Sys-3 Flr-1 Sch-H HPlcmt-east ZN NECB System 3 PSZ Occ Sch Winter Design Day\n   ************* Only last 1 lines before error line shown.....\n   *************   5686   Sp-ER_NurseStn_Lobby_Flr_1 Sys-3 Flr-1 Sch-H HPlcmt-east ZN NECB System 3 PSZ Occ Sch Winter Design Day, !- Name\n   ** Warning ** IP: IDF line~5686 Alpha Argument length exceeds maximum, will be truncated=  Sp-ER_NurseStn_Lobby_Flr_1 Sys-3 Flr-1 Sch-H HPlcmt-east ZN NECB System 3 PSZ Occ Sch Winter Design Da\n   **   ~~~   ** Will be processed as Alpha=SP-ER_NURSESTN_LOBBY_FLR_1 SYS-3 FLR-1 SCH-H HPLCMT-EAST ZN NECB SYSTEM 3 PSZ OCC SCH WINTER DESIGN DAY\n   ************* IDF Context for following error/warning message:\n   ************* Note -- lines truncated at 300 characters, if necessary...\n   *************   7064 Schedule:Week:Daily,\n   ************* indicated Name=Schedule:Week:Daily {fa85d5d7-58b0-4a39-b100-aca12d8a9270}\n   ************* Only last 10 lines before error line shown.....\n   *************   7065   Schedule:Week:Daily {fa85d5d7-58b0-4a39-b100-aca12d8a9270}, !- Name\n   *************   7066   Sp-ICU_NurseStn_Lobby_Flr_2 Sys-3 Flr-4 Sch-H HPlcmt-core ZN NECB System 3 PSZ Occ Sch Sunday, !- Sunday Schedule:Day Name\n   *************   7067   Sp-ICU_NurseStn_Lobby_Flr_2 Sys-3 Flr-4 Sch-H HPlcmt-core ZN NECB System 3 PSZ Occ Sch Monday, !- Monday Schedule:Day Name\n   *************   7068   Sp-ICU_NurseStn_Lobby_Flr_2 Sys-3 Flr-4 Sch-H HPlcmt-core ZN NECB System 3 PSZ Occ Sch Tuesday, !- Tuesday Schedule:Day Name\n   *************   7069   Sp-ICU_NurseStn_Lobby_Flr_2 Sys-3 Flr-4 Sch-H HPlcmt-core ZN NECB System 3 PSZ Occ Sch Wednesday, !- Wednesday Schedule:Day Name\n   *************   7070   Sp-ICU_NurseStn_Lobby_Flr_2 Sys-3 Flr-4 Sch-H HPlcmt-core ZN NECB System 3 PSZ Occ Sch Thursday, !- Thursday Schedule:Day Name\n   *************   7071   Sp-ICU_NurseStn_Lobby_Flr_2 Sys-3 Flr-4 Sch-H HPlcmt-core ZN NECB System 3 PSZ Occ Sch Friday, !- Friday Schedule:Day Name\n   *************   7072   Sp-ICU_NurseStn_Lobby_Flr_2 Sys-3 Flr-4 Sch-H HPlcmt-core ZN NECB System 3 PSZ Occ Sch Saturday, !- Saturday Schedule:Day Name\n   *************   7073   Sp-ICU_NurseStn_Lobby_Flr_2 Sys-3 Flr-4 Sch-H HPlcmt-core ZN NECB System 3 PSZ Occ Sch Default, !- Holiday Schedule:Day Name\n   *************   7074   Sp-ICU_NurseStn_Lobby_Flr_2 Sys-3 Flr-4 Sch-H HPlcmt-core ZN NECB System 3 PSZ Occ Sch Summer Design Day, !- SummerDesignDay Schedule:Day Name\n   ** Warning ** IP: IDF line~7074 Alpha Argument length exceeds maximum, will be truncated=  Sp-ICU_NurseStn_Lobby_Flr_2 Sys-3 Flr-4 Sch-H HPlcmt-core ZN NECB System 3 PSZ Occ Sch Summer Design Da\n   **   ~~~   ** Will be processed as Alpha=SP-ICU_NURSESTN_LOBBY_FLR_2 SYS-3 FLR-4 SCH-H HPLCMT-CORE ZN NECB SYSTEM 3 PSZ OCC SCH SUMMER DESIGN DAY\n   ************* IDF Context for following error/warning message:\n   ************* Note -- lines truncated at 300 characters, if necessary...\n   *************   7064 Schedule:Week:Daily,\n   ************* indicated Name=Schedule:Week:Daily {fa85d5d7-58b0-4a39-b100-aca12d8a9270}\n   ************* Only last 10 lines before error line shown.....\n   *************   7066   Sp-ICU_NurseStn_Lobby_Flr_2 Sys-3 Flr-4 Sch-H HPlcmt-core ZN NECB System 3 PSZ Occ Sch Sunday, !- Sunday Schedule:Day Name\n   *************   7067   Sp-ICU_NurseStn_Lobby_Flr_2 Sys-3 Flr-4 Sch-H HPlcmt-core ZN NECB System 3 PSZ Occ Sch Monday, !- Monday Schedule:Day Name\n   *************   7068   Sp-ICU_NurseStn_Lobby_Flr_2 Sys-3 Flr-4 Sch-H HPlcmt-core ZN NECB System 3 PSZ Occ Sch Tuesday, !- Tuesday Schedule:Day Name\n   *************   7069   Sp-ICU_NurseStn_Lobby_Flr_2 Sys-3 Flr-4 Sch-H HPlcmt-core ZN NECB System 3 PSZ Occ Sch Wednesday, !- Wednesday Schedule:Day Name\n   *************   7070   Sp-ICU_NurseStn_Lobby_Flr_2 Sys-3 Flr-4 Sch-H HPlcmt-core ZN NECB System 3 PSZ Occ Sch Thursday, !- Thursday Schedule:Day Name\n   *************   7071   Sp-ICU_NurseStn_Lobby_Flr_2 Sys-3 Flr-4 Sch-H HPlcmt-core ZN NECB System 3 PSZ Occ Sch Friday, !- Friday Schedule:Day Name\n   *************   7072   Sp-ICU_NurseStn_Lobby_Flr_2 Sys-3 Flr-4 Sch-H HPlcmt-core ZN NECB System 3 PSZ Occ Sch Saturday, !- Saturday Schedule:Day Name\n   *************   7073   Sp-ICU_NurseStn_Lobby_Flr_2 Sys-3 Flr-4 Sch-H HPlcmt-core ZN NECB System 3 PSZ Occ Sch Default, !- Holiday Schedule:Day Name\n   *************   7074   Sp-ICU_NurseStn_Lobby_Flr_2 Sys-3 Flr-4 Sch-H HPlcmt-core ZN NECB System 3 PSZ Occ Sch Summer Design Day, !- SummerDesignDay Schedule:Day Name\n   *************   7075   Sp-ICU_NurseStn_Lobby_Flr_2 Sys-3 Flr-4 Sch-H HPlcmt-core ZN NECB System 3 PSZ Occ Sch Winter Design Day, !- WinterDesignDay Schedule:Day Name\n   ** Warning ** IP: IDF line~7075 Alpha Argument length exceeds maximum, will be truncated=  Sp-ICU_NurseStn_Lobby_Flr_2 Sys-3 Flr-4 Sch-H HPlcmt-core ZN NECB System 3 PSZ Occ Sch Winter Design Da\n   **   ~~~   ** Will be processed as Alpha=SP-ICU_NURSESTN_LOBBY_FLR_2 SYS-3 FLR-4 SCH-H HPLCMT-CORE ZN NECB SYSTEM 3 PSZ OCC SCH WINTER DESIGN DAY\n   ************* IDF Context for following error/warning message:\n   ************* Note -- lines truncated at 300 characters, if necessary...\n   *************   7095 Schedule:Day:Interval,\n   ************* indicated Name=Sp-ICU_NurseStn_Lobby_Flr_2 Sys-3 Flr-4 Sch-H HPlcmt-core ZN NECB System 3 PSZ Occ Sch Summer Design Day\n   ************* Only last 1 lines before error line shown.....\n   *************   7096   Sp-ICU_NurseStn_Lobby_Flr_2 Sys-3 Flr-4 Sch-H HPlcmt-core ZN NECB System 3 PSZ Occ Sch Summer Design Day, !- Name\n   ** Warning ** IP: IDF line~7096 Alpha Argument length exceeds maximum, will be truncated=  Sp-ICU_NurseStn_Lobby_Flr_2 Sys-3 Flr-4 Sch-H HPlcmt-core ZN NECB System 3 PSZ Occ Sch Summer Design Da\n   **   ~~~   ** Will be processed as Alpha=SP-ICU_NURSESTN_LOBBY_FLR_2 SYS-3 FLR-4 SCH-H HPLCMT-CORE ZN NECB SYSTEM 3 PSZ OCC SCH SUMMER DESIGN DAY\n   ************* IDF Context for following error/warning message:\n   ************* Note -- lines truncated at 300 characters, if necessary...\n   *************   7102 Schedule:Day:Interval,\n   ************* indicated Name=Sp-ICU_NurseStn_Lobby_Flr_2 Sys-3 Flr-4 Sch-H HPlcmt-core ZN NECB System 3 PSZ Occ Sch Winter Design Day\n   ************* Only last 1 lines before error line shown.....\n   *************   7103   Sp-ICU_NurseStn_Lobby_Flr_2 Sys-3 Flr-4 Sch-H HPlcmt-core ZN NECB System 3 PSZ Occ Sch Winter Design Day, !- Name\n   ** Warning ** IP: IDF line~7103 Alpha Argument length exceeds maximum, will be truncated=  Sp-ICU_NurseStn_Lobby_Flr_2 Sys-3 Flr-4 Sch-H HPlcmt-core ZN NECB System 3 PSZ Occ Sch Winter Design Da\n   **   ~~~   ** Will be processed as Alpha=SP-ICU_NURSESTN_LOBBY_FLR_2 SYS-3 FLR-4 SCH-H HPLCMT-CORE ZN NECB SYSTEM 3 PSZ OCC SCH WINTER DESIGN DAY\n   ************* IDF Context for following error/warning message:\n   ************* Note -- lines truncated at 300 characters, if necessary...\n   *************   7901 Schedule:Week:Daily,\n   ************* indicated Name=Schedule:Week:Daily {784540a6-efb6-43b4-951d-6f43ff3a6521}\n   ************* Only last 10 lines before error line shown.....\n   *************   7902   Schedule:Week:Daily {784540a6-efb6-43b4-951d-6f43ff3a6521}, !- Name\n   *************   7903   Sp-IC_PatRoom3_Mult6_Flr_2 Sys-3 Flr-4 Sch-H HPlcmt-west ZN NECB System 3 PSZ Occ Sch Sunday, !- Sunday Schedule:Day Name\n   *************   7904   Sp-IC_PatRoom3_Mult6_Flr_2 Sys-3 Flr-4 Sch-H HPlcmt-west ZN NECB System 3 PSZ Occ Sch Monday, !- Monday Schedule:Day Name\n   *************   7905   Sp-IC_PatRoom3_Mult6_Flr_2 Sys-3 Flr-4 Sch-H HPlcmt-west ZN NECB System 3 PSZ Occ Sch Tuesday, !- Tuesday Schedule:Day Name\n   *************   7906   Sp-IC_PatRoom3_Mult6_Flr_2 Sys-3 Flr-4 Sch-H HPlcmt-west ZN NECB System 3 PSZ Occ Sch Wednesday, !- Wednesday Schedule:Day Name\n   *************   7907   Sp-IC_PatRoom3_Mult6_Flr_2 Sys-3 Flr-4 Sch-H HPlcmt-west ZN NECB System 3 PSZ Occ Sch Thursday, !- Thursday Schedule:Day Name\n   *************   7908   Sp-IC_PatRoom3_Mult6_Flr_2 Sys-3 Flr-4 Sch-H HPlcmt-west ZN NECB System 3 PSZ Occ Sch Friday, !- Friday Schedule:Day Name\n   *************   7909   Sp-IC_PatRoom3_Mult6_Flr_2 Sys-3 Flr-4 Sch-H HPlcmt-west ZN NECB System 3 PSZ Occ Sch Saturday, !- Saturday Schedule:Day Name\n   *************   7910   Sp-IC_PatRoom3_Mult6_Flr_2 Sys-3 Flr-4 Sch-H HPlcmt-west ZN NECB System 3 PSZ Occ Sch Default, !- Holiday Schedule:Day Name\n   *************   7911   Sp-IC_PatRoom3_Mult6_Flr_2 Sys-3 Flr-4 Sch-H HPlcmt-west ZN NECB System 3 PSZ Occ Sch Summer Design Day, !- SummerDesignDay Schedule:Day Name\n   ** Warning ** IP: IDF line~7911 Alpha Argument length exceeds maximum, will be truncated=  Sp-IC_PatRoom3_Mult6_Flr_2 Sys-3 Flr-4 Sch-H HPlcmt-west ZN NECB System 3 PSZ Occ Sch Summer Design Da\n   **   ~~~   ** Will be processed as Alpha=SP-IC_PATROOM3_MULT6_FLR_2 SYS-3 FLR-4 SCH-H HPLCMT-WEST ZN NECB SYSTEM 3 PSZ OCC SCH SUMMER DESIGN DAY\n   ************* IDF Context for following error/warning message:\n   ************* Note -- lines truncated at 300 characters, if necessary...\n   *************   7901 Schedule:Week:Daily,\n   ************* indicated Name=Schedule:Week:Daily {784540a6-efb6-43b4-951d-6f43ff3a6521}\n   ************* Only last 10 lines before error line shown.....\n   *************   7903   Sp-IC_PatRoom3_Mult6_Flr_2 Sys-3 Flr-4 Sch-H HPlcmt-west ZN NECB System 3 PSZ Occ Sch Sunday, !- Sunday Schedule:Day Name\n   *************   7904   Sp-IC_PatRoom3_Mult6_Flr_2 Sys-3 Flr-4 Sch-H HPlcmt-west ZN NECB System 3 PSZ Occ Sch Monday, !- Monday Schedule:Day Name\n   *************   7905   Sp-IC_PatRoom3_Mult6_Flr_2 Sys-3 Flr-4 Sch-H HPlcmt-west ZN NECB System 3 PSZ Occ Sch Tuesday, !- Tuesday Schedule:Day Name\n   *************   7906   Sp-IC_PatRoom3_Mult6_Flr_2 Sys-3 Flr-4 Sch-H HPlcmt-west ZN NECB System 3 PSZ Occ Sch Wednesday, !- Wednesday Schedule:Day Name\n   *************   7907   Sp-IC_PatRoom3_Mult6_Flr_2 Sys-3 Flr-4 Sch-H HPlcmt-west ZN NECB System 3 PSZ Occ Sch Thursday, !- Thursday Schedule:Day Name\n   *************   7908   Sp-IC_PatRoom3_Mult6_Flr_2 Sys-3 Flr-4 Sch-H HPlcmt-west ZN NECB System 3 PSZ Occ Sch Friday, !- Friday Schedule:Day Name\n   *************   7909   Sp-IC_PatRoom3_Mult6_Flr_2 Sys-3 Flr-4 Sch-H HPlcmt-west ZN NECB System 3 PSZ Occ Sch Saturday, !- Saturday Schedule:Day Name\n   *************   7910   Sp-IC_PatRoom3_Mult6_Flr_2 Sys-3 Flr-4 Sch-H HPlcmt-west ZN NECB System 3 PSZ Occ Sch Default, !- Holiday Schedule:Day Name\n   *************   7911   Sp-IC_PatRoom3_Mult6_Flr_2 Sys-3 Flr-4 Sch-H HPlcmt-west ZN NECB System 3 PSZ Occ Sch Summer Design Day, !- SummerDesignDay Schedule:Day Name\n   *************   7912   Sp-IC_PatRoom3_Mult6_Flr_2 Sys-3 Flr-4 Sch-H HPlcmt-west ZN NECB System 3 PSZ Occ Sch Winter Design Day, !- WinterDesignDay Schedule:Day Name\n   ** Warning ** IP: IDF line~7912 Alpha Argument length exceeds maximum, will be truncated=  Sp-IC_PatRoom3_Mult6_Flr_2 Sys-3 Flr-4 Sch-H HPlcmt-west ZN NECB System 3 PSZ Occ Sch Winter Design Da\n   **   ~~~   ** Will be processed as Alpha=SP-IC_PATROOM3_MULT6_FLR_2 SYS-3 FLR-4 SCH-H HPLCMT-WEST ZN NECB SYSTEM 3 PSZ OCC SCH WINTER DESIGN DAY\n   ************* IDF Context for following error/warning message:\n   ************* Note -- lines truncated at 300 characters, if necessary...\n   *************   7932 Schedule:Day:Interval,\n   ************* indicated Name=Sp-IC_PatRoom3_Mult6_Flr_2 Sys-3 Flr-4 Sch-H HPlcmt-west ZN NECB System 3 PSZ Occ Sch Summer Design Day\n   ************* Only last 1 lines before error line shown.....\n   *************   7933   Sp-IC_PatRoom3_Mult6_Flr_2 Sys-3 Flr-4 Sch-H HPlcmt-west ZN NECB System 3 PSZ Occ Sch Summer Design Day, !- Name\n   ** Warning ** IP: IDF line~7933 Alpha Argument length exceeds maximum, will be truncated=  Sp-IC_PatRoom3_Mult6_Flr_2 Sys-3 Flr-4 Sch-H HPlcmt-west ZN NECB System 3 PSZ Occ Sch Summer Design Da\n   **   ~~~   ** Will be processed as Alpha=SP-IC_PATROOM3_MULT6_FLR_2 SYS-3 FLR-4 SCH-H HPLCMT-WEST ZN NECB SYSTEM 3 PSZ OCC SCH SUMMER DESIGN DAY\n   ************* IDF Context for following error/warning message:\n   ************* Note -- lines truncated at 300 characters, if necessary...\n   *************   7939 Schedule:Day:Interval,\n   ************* indicated Name=Sp-IC_PatRoom3_Mult6_Flr_2 Sys-3 Flr-4 Sch-H HPlcmt-west ZN NECB System 3 PSZ Occ Sch Winter Design Day\n   ************* Only last 1 lines before error line shown.....\n   *************   7940   Sp-IC_PatRoom3_Mult6_Flr_2 Sys-3 Flr-4 Sch-H HPlcmt-west ZN NECB System 3 PSZ Occ Sch Winter Design Day, !- Name\n   ** Warning ** IP: IDF line~7940 Alpha Argument length exceeds maximum, will be truncated=  Sp-IC_PatRoom3_Mult6_Flr_2 Sys-3 Flr-4 Sch-H HPlcmt-west ZN NECB System 3 PSZ Occ Sch Winter Design Da\n   **   ~~~   ** Will be processed as Alpha=SP-IC_PATROOM3_MULT6_FLR_2 SYS-3 FLR-4 SCH-H HPLCMT-WEST ZN NECB SYSTEM 3 PSZ OCC SCH WINTER DESIGN DAY\n   ************* IDF Context for following error/warning message:\n   ************* Note -- lines truncated at 300 characters, if necessary...\n   *************  10559 Schedule:Week:Daily,\n   ************* indicated Name=Schedule:Week:Daily {e9ac23b3-2dee-4b63-bb10-2e4935284b01}\n   ************* Only last 10 lines before error line shown.....\n   *************  10560   Schedule:Week:Daily {e9ac23b3-2dee-4b63-bb10-2e4935284b01}, !- Name\n   *************  10561   Sp-NurseStn_Lobby_Flr_5 Sys-3 Flr-6 Sch-H HPlcmt-south ZN NECB System 3 PSZ Occ Sch Sunday, !- Sunday Schedule:Day Name\n   *************  10562   Sp-NurseStn_Lobby_Flr_5 Sys-3 Flr-6 Sch-H HPlcmt-south ZN NECB System 3 PSZ Occ Sch Monday, !- Monday Schedule:Day Name\n   *************  10563   Sp-NurseStn_Lobby_Flr_5 Sys-3 Flr-6 Sch-H HPlcmt-south ZN NECB System 3 PSZ Occ Sch Tuesday, !- Tuesday Schedule:Day Name\n   *************  10564   Sp-NurseStn_Lobby_Flr_5 Sys-3 Flr-6 Sch-H HPlcmt-south ZN NECB System 3 PSZ Occ Sch Wednesday, !- Wednesday Schedule:Day Name\n   *************  10565   Sp-NurseStn_Lobby_Flr_5 Sys-3 Flr-6 Sch-H HPlcmt-south ZN NECB System 3 PSZ Occ Sch Thursday, !- Thursday Schedule:Day Name\n   *************  10566   Sp-NurseStn_Lobby_Flr_5 Sys-3 Flr-6 Sch-H HPlcmt-south ZN NECB System 3 PSZ Occ Sch Friday, !- Friday Schedule:Day Name\n   *************  10567   Sp-NurseStn_Lobby_Flr_5 Sys-3 Flr-6 Sch-H HPlcmt-south ZN NECB System 3 PSZ Occ Sch Saturday, !- Saturday Schedule:Day Name\n   *************  10568   Sp-NurseStn_Lobby_Flr_5 Sys-3 Flr-6 Sch-H HPlcmt-south ZN NECB System 3 PSZ Occ Sch Default, !- Holiday Schedule:Day Name\n   *************  10569   Sp-NurseStn_Lobby_Flr_5 Sys-3 Flr-6 Sch-H HPlcmt-south ZN NECB System 3 PSZ Occ Sch Summer Design Day, !- SummerDesignDay Schedule:Day Name\n   ** Warning ** IP: IDF line~10569 Alpha Argument length exceeds maximum, will be truncated=  Sp-NurseStn_Lobby_Flr_5 Sys-3 Flr-6 Sch-H HPlcmt-south ZN NECB System 3 PSZ Occ Sch Summer Design Da\n   **   ~~~   ** Will be processed as Alpha=SP-NURSESTN_LOBBY_FLR_5 SYS-3 FLR-6 SCH-H HPLCMT-SOUTH ZN NECB SYSTEM 3 PSZ OCC SCH SUMMER DESIGN DAY\n   ************* IDF Context for following error/warning message:\n   ************* Note -- lines truncated at 300 characters, if necessary...\n   *************  10559 Schedule:Week:Daily,\n   ************* indicated Name=Schedule:Week:Daily {e9ac23b3-2dee-4b63-bb10-2e4935284b01}\n   ************* Only last 10 lines before error line shown.....\n   *************  10561   Sp-NurseStn_Lobby_Flr_5 Sys-3 Flr-6 Sch-H HPlcmt-south ZN NECB System 3 PSZ Occ Sch Sunday, !- Sunday Schedule:Day Name\n   *************  10562   Sp-NurseStn_Lobby_Flr_5 Sys-3 Flr-6 Sch-H HPlcmt-south ZN NECB System 3 PSZ Occ Sch Monday, !- Monday Schedule:Day Name\n   *************  10563   Sp-NurseStn_Lobby_Flr_5 Sys-3 Flr-6 Sch-H HPlcmt-south ZN NECB System 3 PSZ Occ Sch Tuesday, !- Tuesday Schedule:Day Name\n   *************  10564   Sp-NurseStn_Lobby_Flr_5 Sys-3 Flr-6 Sch-H HPlcmt-south ZN NECB System 3 PSZ Occ Sch Wednesday, !- Wednesday Schedule:Day Name\n   *************  10565   Sp-NurseStn_Lobby_Flr_5 Sys-3 Flr-6 Sch-H HPlcmt-south ZN NECB System 3 PSZ Occ Sch Thursday, !- Thursday Schedule:Day Name\n   *************  10566   Sp-NurseStn_Lobby_Flr_5 Sys-3 Flr-6 Sch-H HPlcmt-south ZN NECB System 3 PSZ Occ Sch Friday, !- Friday Schedule:Day Name\n   *************  10567   Sp-NurseStn_Lobby_Flr_5 Sys-3 Flr-6 Sch-H HPlcmt-south ZN NECB System 3 PSZ Occ Sch Saturday, !- Saturday Schedule:Day Name\n   *************  10568   Sp-NurseStn_Lobby_Flr_5 Sys-3 Flr-6 Sch-H HPlcmt-south ZN NECB System 3 PSZ Occ Sch Default, !- Holiday Schedule:Day Name\n   *************  10569   Sp-NurseStn_Lobby_Flr_5 Sys-3 Flr-6 Sch-H HPlcmt-south ZN NECB System 3 PSZ Occ Sch Summer Design Day, !- SummerDesignDay Schedule:Day Name\n   *************  10570   Sp-NurseStn_Lobby_Flr_5 Sys-3 Flr-6 Sch-H HPlcmt-south ZN NECB System 3 PSZ Occ Sch Winter Design Day, !- WinterDesignDay Schedule:Day Name\n   ** Warning ** IP: IDF line~10570 Alpha Argument length exceeds maximum, will be truncated=  Sp-NurseStn_Lobby_Flr_5 Sys-3 Flr-6 Sch-H HPlcmt-south ZN NECB System 3 PSZ Occ Sch Winter Design Da\n   **   ~~~   ** Will be processed as Alpha=SP-NURSESTN_LOBBY_FLR_5 SYS-3 FLR-6 SCH-H HPLCMT-SOUTH ZN NECB SYSTEM 3 PSZ OCC SCH WINTER DESIGN DAY\n   ************* IDF Context for following error/warning message:\n   ************* Note -- lines truncated at 300 characters, if necessary...\n   *************  10590 Schedule:Day:Interval,\n   ************* indicated Name=Sp-NurseStn_Lobby_Flr_5 Sys-3 Flr-6 Sch-H HPlcmt-south ZN NECB System 3 PSZ Occ Sch Summer Design Day\n   ************* Only last 1 lines before error line shown.....\n   *************  10591   Sp-NurseStn_Lobby_Flr_5 Sys-3 Flr-6 Sch-H HPlcmt-south ZN NECB System 3 PSZ Occ Sch Summer Design Day, !- Name\n   ** Warning ** IP: IDF line~10591 Alpha Argument length exceeds maximum, will be truncated=  Sp-NurseStn_Lobby_Flr_5 Sys-3 Flr-6 Sch-H HPlcmt-south ZN NECB System 3 PSZ Occ Sch Summer Design Da\n   **   ~~~   ** Will be processed as Alpha=SP-NURSESTN_LOBBY_FLR_5 SYS-3 FLR-6 SCH-H HPLCMT-SOUTH ZN NECB SYSTEM 3 PSZ OCC SCH SUMMER DESIGN DAY\n   ************* IDF Context for following error/warning message:\n   ************* Note -- lines truncated at 300 characters, if necessary...\n   *************  10597 Schedule:Day:Interval,\n   ************* indicated Name=Sp-NurseStn_Lobby_Flr_5 Sys-3 Flr-6 Sch-H HPlcmt-south ZN NECB System 3 PSZ Occ Sch Winter Design Day\n   ************* Only last 1 lines before error line shown.....\n   *************  10598   Sp-NurseStn_Lobby_Flr_5 Sys-3 Flr-6 Sch-H HPlcmt-south ZN NECB System 3 PSZ Occ Sch Winter Design Day, !- Name\n   ** Warning ** IP: IDF line~10598 Alpha Argument length exceeds maximum, will be truncated=  Sp-NurseStn_Lobby_Flr_5 Sys-3 Flr-6 Sch-H HPlcmt-south ZN NECB System 3 PSZ Occ Sch Winter Design Da\n   **   ~~~   ** Will be processed as Alpha=SP-NURSESTN_LOBBY_FLR_5 SYS-3 FLR-6 SCH-H HPLCMT-SOUTH ZN NECB SYSTEM 3 PSZ OCC SCH WINTER DESIGN DAY\n   ************* IDF Context for following error/warning message:\n   ************* Note -- lines truncated at 300 characters, if necessary...\n   *************  13649 Schedule:Week:Daily,\n   ************* indicated Name=Schedule:Week:Daily {6d140b5c-116d-4f57-b280-9abd9b7b7a93}\n   ************* Only last 10 lines before error line shown.....\n   *************  13650   Schedule:Week:Daily {6d140b5c-116d-4f57-b280-9abd9b7b7a93}, !- Name\n   *************  13651   Sp-OR_NurseStn_Lobby_Flr_2 Sys-3 Flr-4 Sch-H HPlcmt-south ZN NECB System 3 PSZ Occ Sch Sunday, !- Sunday Schedule:Day Name\n   *************  13652   Sp-OR_NurseStn_Lobby_Flr_2 Sys-3 Flr-4 Sch-H HPlcmt-south ZN NECB System 3 PSZ Occ Sch Monday, !- Monday Schedule:Day Name\n   *************  13653   Sp-OR_NurseStn_Lobby_Flr_2 Sys-3 Flr-4 Sch-H HPlcmt-south ZN NECB System 3 PSZ Occ Sch Tuesday, !- Tuesday Schedule:Day Name\n   *************  13654   Sp-OR_NurseStn_Lobby_Flr_2 Sys-3 Flr-4 Sch-H HPlcmt-south ZN NECB System 3 PSZ Occ Sch Wednesday, !- Wednesday Schedule:Day Name\n   *************  13655   Sp-OR_NurseStn_Lobby_Flr_2 Sys-3 Flr-4 Sch-H HPlcmt-south ZN NECB System 3 PSZ Occ Sch Thursday, !- Thursday Schedule:Day Name\n   *************  13656   Sp-OR_NurseStn_Lobby_Flr_2 Sys-3 Flr-4 Sch-H HPlcmt-south ZN NECB System 3 PSZ Occ Sch Friday, !- Friday Schedule:Day Name\n   *************  13657   Sp-OR_NurseStn_Lobby_Flr_2 Sys-3 Flr-4 Sch-H HPlcmt-south ZN NECB System 3 PSZ Occ Sch Saturday, !- Saturday Schedule:Day Name\n   *************  13658   Sp-OR_NurseStn_Lobby_Flr_2 Sys-3 Flr-4 Sch-H HPlcmt-south ZN NECB System 3 PSZ Occ Sch Default, !- Holiday Schedule:Day Name\n   *************  13659   Sp-OR_NurseStn_Lobby_Flr_2 Sys-3 Flr-4 Sch-H HPlcmt-south ZN NECB System 3 PSZ Occ Sch Summer Design Day, !- SummerDesignDay Schedule:Day Name\n   ** Warning ** IP: IDF line~13659 Alpha Argument length exceeds maximum, will be truncated=  Sp-OR_NurseStn_Lobby_Flr_2 Sys-3 Flr-4 Sch-H HPlcmt-south ZN NECB System 3 PSZ Occ Sch Summer Design Da\n   **   ~~~   ** Will be processed as Alpha=SP-OR_NURSESTN_LOBBY_FLR_2 SYS-3 FLR-4 SCH-H HPLCMT-SOUTH ZN NECB SYSTEM 3 PSZ OCC SCH SUMMER DESIGN DAY\n   ************* IDF Context for following error/warning message:\n   ************* Note -- lines truncated at 300 characters, if necessary...\n   *************  13649 Schedule:Week:Daily,\n   ************* indicated Name=Schedule:Week:Daily {6d140b5c-116d-4f57-b280-9abd9b7b7a93}\n   ************* Only last 10 lines before error line shown.....\n   *************  13651   Sp-OR_NurseStn_Lobby_Flr_2 Sys-3 Flr-4 Sch-H HPlcmt-south ZN NECB System 3 PSZ Occ Sch Sunday, !- Sunday Schedule:Day Name\n   *************  13652   Sp-OR_NurseStn_Lobby_Flr_2 Sys-3 Flr-4 Sch-H HPlcmt-south ZN NECB System 3 PSZ Occ Sch Monday, !- Monday Schedule:Day Name\n   *************  13653   Sp-OR_NurseStn_Lobby_Flr_2 Sys-3 Flr-4 Sch-H HPlcmt-south ZN NECB System 3 PSZ Occ Sch Tuesday, !- Tuesday Schedule:Day Name\n   *************  13654   Sp-OR_NurseStn_Lobby_Flr_2 Sys-3 Flr-4 Sch-H HPlcmt-south ZN NECB System 3 PSZ Occ Sch Wednesday, !- Wednesday Schedule:Day Name\n   *************  13655   Sp-OR_NurseStn_Lobby_Flr_2 Sys-3 Flr-4 Sch-H HPlcmt-south ZN NECB System 3 PSZ Occ Sch Thursday, !- Thursday Schedule:Day Name\n   *************  13656   Sp-OR_NurseStn_Lobby_Flr_2 Sys-3 Flr-4 Sch-H HPlcmt-south ZN NECB System 3 PSZ Occ Sch Friday, !- Friday Schedule:Day Name\n   *************  13657   Sp-OR_NurseStn_Lobby_Flr_2 Sys-3 Flr-4 Sch-H HPlcmt-south ZN NECB System 3 PSZ Occ Sch Saturday, !- Saturday Schedule:Day Name\n   *************  13658   Sp-OR_NurseStn_Lobby_Flr_2 Sys-3 Flr-4 Sch-H HPlcmt-south ZN NECB System 3 PSZ Occ Sch Default, !- Holiday Schedule:Day Name\n   *************  13659   Sp-OR_NurseStn_Lobby_Flr_2 Sys-3 Flr-4 Sch-H HPlcmt-south ZN NECB System 3 PSZ Occ Sch Summer Design Day, !- SummerDesignDay Schedule:Day Name\n   *************  13660   Sp-OR_NurseStn_Lobby_Flr_2 Sys-3 Flr-4 Sch-H HPlcmt-south ZN NECB System 3 PSZ Occ Sch Winter Design Day, !- WinterDesignDay Schedule:Day Name\n   ** Warning ** IP: IDF line~13660 Alpha Argument length exceeds maximum, will be truncated=  Sp-OR_NurseStn_Lobby_Flr_2 Sys-3 Flr-4 Sch-H HPlcmt-south ZN NECB System 3 PSZ Occ Sch Winter Design Da\n   **   ~~~   ** Will be processed as Alpha=SP-OR_NURSESTN_LOBBY_FLR_2 SYS-3 FLR-4 SCH-H HPLCMT-SOUTH ZN NECB SYSTEM 3 PSZ OCC SCH WINTER DESIGN DAY\n   ************* IDF Context for following error/warning message:\n   ************* Note -- lines truncated at 300 characters, if necessary...\n   *************  13680 Schedule:Day:Interval,\n   ************* indicated Name=Sp-OR_NurseStn_Lobby_Flr_2 Sys-3 Flr-4 Sch-H HPlcmt-south ZN NECB System 3 PSZ Occ Sch Summer Design Day\n   ************* Only last 1 lines before error line shown.....\n   *************  13681   Sp-OR_NurseStn_Lobby_Flr_2 Sys-3 Flr-4 Sch-H HPlcmt-south ZN NECB System 3 PSZ Occ Sch Summer Design Day, !- Name\n   ** Warning ** IP: IDF line~13681 Alpha Argument length exceeds maximum, will be truncated=  Sp-OR_NurseStn_Lobby_Flr_2 Sys-3 Flr-4 Sch-H HPlcmt-south ZN NECB System 3 PSZ Occ Sch Summer Design Da\n   **   ~~~   ** Will be processed as Alpha=SP-OR_NURSESTN_LOBBY_FLR_2 SYS-3 FLR-4 SCH-H HPLCMT-SOUTH ZN NECB SYSTEM 3 PSZ OCC SCH SUMMER DESIGN DAY\n   ************* IDF Context for following error/warning message:\n   ************* Note -- lines truncated at 300 characters, if necessary...\n   *************  13687 Schedule:Day:Interval,\n   ************* indicated Name=Sp-OR_NurseStn_Lobby_Flr_2 Sys-3 Flr-4 Sch-H HPlcmt-south ZN NECB System 3 PSZ Occ Sch Winter Design Day\n   ************* Only last 1 lines before error line shown.....\n   *************  13688   Sp-OR_NurseStn_Lobby_Flr_2 Sys-3 Flr-4 Sch-H HPlcmt-south ZN NECB System 3 PSZ Occ Sch Winter Design Day, !- Name\n   ** Warning ** IP: IDF line~13688 Alpha Argument length exceeds maximum, will be truncated=  Sp-OR_NurseStn_Lobby_Flr_2 Sys-3 Flr-4 Sch-H HPlcmt-south ZN NECB System 3 PSZ Occ Sch Winter Design Da\n   **   ~~~   ** Will be processed as Alpha=SP-OR_NURSESTN_LOBBY_FLR_2 SYS-3 FLR-4 SCH-H HPLCMT-SOUTH ZN NECB SYSTEM 3 PSZ OCC SCH WINTER DESIGN DAY\n   ************* IDF Context for following error/warning message:\n   ************* Note -- lines truncated at 300 characters, if necessary...\n   *************  13988 Schedule:Week:Daily,\n   ************* indicated Name=Schedule:Week:Daily {c49efff9-a9ea-48cb-8dc4-adfb153233b6}\n   ************* Only last 10 lines before error line shown.....\n   *************  13989   Schedule:Week:Daily {c49efff9-a9ea-48cb-8dc4-adfb153233b6}, !- Name\n   *************  13990   Sp-PatRoom1_Mult10_Flr_3 Sys-3 Flr-2 Sch-H HPlcmt-south ZN NECB System 3 PSZ Occ Sch Sunday, !- Sunday Schedule:Day Name\n   *************  13991   Sp-PatRoom1_Mult10_Flr_3 Sys-3 Flr-2 Sch-H HPlcmt-south ZN NECB System 3 PSZ Occ Sch Monday, !- Monday Schedule:Day Name\n   *************  13992   Sp-PatRoom1_Mult10_Flr_3 Sys-3 Flr-2 Sch-H HPlcmt-south ZN NECB System 3 PSZ Occ Sch Tuesday, !- Tuesday Schedule:Day Name\n   *************  13993   Sp-PatRoom1_Mult10_Flr_3 Sys-3 Flr-2 Sch-H HPlcmt-south ZN NECB System 3 PSZ Occ Sch Wednesday, !- Wednesday Schedule:Day Name\n   *************  13994   Sp-PatRoom1_Mult10_Flr_3 Sys-3 Flr-2 Sch-H HPlcmt-south ZN NECB System 3 PSZ Occ Sch Thursday, !- Thursday Schedule:Day Name\n   *************  13995   Sp-PatRoom1_Mult10_Flr_3 Sys-3 Flr-2 Sch-H HPlcmt-south ZN NECB System 3 PSZ Occ Sch Friday, !- Friday Schedule:Day Name\n   *************  13996   Sp-PatRoom1_Mult10_Flr_3 Sys-3 Flr-2 Sch-H HPlcmt-south ZN NECB System 3 PSZ Occ Sch Saturday, !- Saturday Schedule:Day Name\n   *************  13997   Sp-PatRoom1_Mult10_Flr_3 Sys-3 Flr-2 Sch-H HPlcmt-south ZN NECB System 3 PSZ Occ Sch Default, !- Holiday Schedule:Day Name\n   *************  13998   Sp-PatRoom1_Mult10_Flr_3 Sys-3 Flr-2 Sch-H HPlcmt-south ZN NECB System 3 PSZ Occ Sch Summer Design Day, !- SummerDesignDay Schedule:Day Name\n   ** Warning ** IP: IDF line~13998 Alpha Argument length exceeds maximum, will be truncated=  Sp-PatRoom1_Mult10_Flr_3 Sys-3 Flr-2 Sch-H HPlcmt-south ZN NECB System 3 PSZ Occ Sch Summer Design Da\n   **   ~~~   ** Will be processed as Alpha=SP-PATROOM1_MULT10_FLR_3 SYS-3 FLR-2 SCH-H HPLCMT-SOUTH ZN NECB SYSTEM 3 PSZ OCC SCH SUMMER DESIGN DAY\n   ************* IDF Context for following error/warning message:\n   ************* Note -- lines truncated at 300 characters, if necessary...\n   *************  13988 Schedule:Week:Daily,\n   ************* indicated Name=Schedule:Week:Daily {c49efff9-a9ea-48cb-8dc4-adfb153233b6}\n   ************* Only last 10 lines before error line shown.....\n   *************  13990   Sp-PatRoom1_Mult10_Flr_3 Sys-3 Flr-2 Sch-H HPlcmt-south ZN NECB System 3 PSZ Occ Sch Sunday, !- Sunday Schedule:Day Name\n   *************  13991   Sp-PatRoom1_Mult10_Flr_3 Sys-3 Flr-2 Sch-H HPlcmt-south ZN NECB System 3 PSZ Occ Sch Monday, !- Monday Schedule:Day Name\n   *************  13992   Sp-PatRoom1_Mult10_Flr_3 Sys-3 Flr-2 Sch-H HPlcmt-south ZN NECB System 3 PSZ Occ Sch Tuesday, !- Tuesday Schedule:Day Name\n   *************  13993   Sp-PatRoom1_Mult10_Flr_3 Sys-3 Flr-2 Sch-H HPlcmt-south ZN NECB System 3 PSZ Occ Sch Wednesday, !- Wednesday Schedule:Day Name\n   *************  13994   Sp-PatRoom1_Mult10_Flr_3 Sys-3 Flr-2 Sch-H HPlcmt-south ZN NECB System 3 PSZ Occ Sch Thursday, !- Thursday Schedule:Day Name\n   *************  13995   Sp-PatRoom1_Mult10_Flr_3 Sys-3 Flr-2 Sch-H HPlcmt-south ZN NECB System 3 PSZ Occ Sch Friday, !- Friday Schedule:Day Name\n   *************  13996   Sp-PatRoom1_Mult10_Flr_3 Sys-3 Flr-2 Sch-H HPlcmt-south ZN NECB System 3 PSZ Occ Sch Saturday, !- Saturday Schedule:Day Name\n   *************  13997   Sp-PatRoom1_Mult10_Flr_3 Sys-3 Flr-2 Sch-H HPlcmt-south ZN NECB System 3 PSZ Occ Sch Default, !- Holiday Schedule:Day Name\n   *************  13998   Sp-PatRoom1_Mult10_Flr_3 Sys-3 Flr-2 Sch-H HPlcmt-south ZN NECB System 3 PSZ Occ Sch Summer Design Day, !- SummerDesignDay Schedule:Day Name\n   *************  13999   Sp-PatRoom1_Mult10_Flr_3 Sys-3 Flr-2 Sch-H HPlcmt-south ZN NECB System 3 PSZ Occ Sch Winter Design Day, !- WinterDesignDay Schedule:Day Name\n   ** Warning ** IP: IDF line~13999 Alpha Argument length exceeds maximum, will be truncated=  Sp-PatRoom1_Mult10_Flr_3 Sys-3 Flr-2 Sch-H HPlcmt-south ZN NECB System 3 PSZ Occ Sch Winter Design Da\n   **   ~~~   ** Will be processed as Alpha=SP-PATROOM1_MULT10_FLR_3 SYS-3 FLR-2 SCH-H HPLCMT-SOUTH ZN NECB SYSTEM 3 PSZ OCC SCH WINTER DESIGN DAY\n   ************* IDF Context for following error/warning message:\n   ************* Note -- lines truncated at 300 characters, if necessary...\n   *************  14019 Schedule:Day:Interval,\n   ************* indicated Name=Sp-PatRoom1_Mult10_Flr_3 Sys-3 Flr-2 Sch-H HPlcmt-south ZN NECB System 3 PSZ Occ Sch Summer Design Day\n   ************* Only last 1 lines before error line shown.....\n   *************  14020   Sp-PatRoom1_Mult10_Flr_3 Sys-3 Flr-2 Sch-H HPlcmt-south ZN NECB System 3 PSZ Occ Sch Summer Design Day, !- Name\n   ** Warning ** IP: IDF line~14020 Alpha Argument length exceeds maximum, will be truncated=  Sp-PatRoom1_Mult10_Flr_3 Sys-3 Flr-2 Sch-H HPlcmt-south ZN NECB System 3 PSZ Occ Sch Summer Design Da\n   **   ~~~   ** Will be processed as Alpha=SP-PATROOM1_MULT10_FLR_3 SYS-3 FLR-2 SCH-H HPLCMT-SOUTH ZN NECB SYSTEM 3 PSZ OCC SCH SUMMER DESIGN DAY\n   ************* IDF Context for following error/warning message:\n   ************* Note -- lines truncated at 300 characters, if necessary...\n   *************  14026 Schedule:Day:Interval,\n   ************* indicated Name=Sp-PatRoom1_Mult10_Flr_3 Sys-3 Flr-2 Sch-H HPlcmt-south ZN NECB System 3 PSZ Occ Sch Winter Design Day\n   ************* Only last 1 lines before error line shown.....\n   *************  14027   Sp-PatRoom1_Mult10_Flr_3 Sys-3 Flr-2 Sch-H HPlcmt-south ZN NECB System 3 PSZ Occ Sch Winter Design Day, !- Name\n   ** Warning ** IP: IDF line~14027 Alpha Argument length exceeds maximum, will be truncated=  Sp-PatRoom1_Mult10_Flr_3 Sys-3 Flr-2 Sch-H HPlcmt-south ZN NECB System 3 PSZ Occ Sch Winter Design Da\n   **   ~~~   ** Will be processed as Alpha=SP-PATROOM1_MULT10_FLR_3 SYS-3 FLR-2 SCH-H HPLCMT-SOUTH ZN NECB SYSTEM 3 PSZ OCC SCH WINTER DESIGN DAY\n   ************* IDF Context for following error/warning message:\n   ************* Note -- lines truncated at 300 characters, if necessary...\n   *************  14327 Schedule:Week:Daily,\n   ************* indicated Name=Schedule:Week:Daily {def98898-108a-4701-962e-87b2a2247076}\n   ************* Only last 10 lines before error line shown.....\n   *************  14328   Schedule:Week:Daily {def98898-108a-4701-962e-87b2a2247076}, !- Name\n   *************  14329   Sp-PatRoom1_Mult10_Flr_4 Sys-3 Flr-3 Sch-H HPlcmt-south ZN NECB System 3 PSZ Occ Sch Sunday, !- Sunday Schedule:Day Name\n   *************  14330   Sp-PatRoom1_Mult10_Flr_4 Sys-3 Flr-3 Sch-H HPlcmt-south ZN NECB System 3 PSZ Occ Sch Monday, !- Monday Schedule:Day Name\n   *************  14331   Sp-PatRoom1_Mult10_Flr_4 Sys-3 Flr-3 Sch-H HPlcmt-south ZN NECB System 3 PSZ Occ Sch Tuesday, !- Tuesday Schedule:Day Name\n   *************  14332   Sp-PatRoom1_Mult10_Flr_4 Sys-3 Flr-3 Sch-H HPlcmt-south ZN NECB System 3 PSZ Occ Sch Wednesday, !- Wednesday Schedule:Day Name\n   *************  14333   Sp-PatRoom1_Mult10_Flr_4 Sys-3 Flr-3 Sch-H HPlcmt-south ZN NECB System 3 PSZ Occ Sch Thursday, !- Thursday Schedule:Day Name\n   *************  14334   Sp-PatRoom1_Mult10_Flr_4 Sys-3 Flr-3 Sch-H HPlcmt-south ZN NECB System 3 PSZ Occ Sch Friday, !- Friday Schedule:Day Name\n   *************  14335   Sp-PatRoom1_Mult10_Flr_4 Sys-3 Flr-3 Sch-H HPlcmt-south ZN NECB System 3 PSZ Occ Sch Saturday, !- Saturday Schedule:Day Name\n   *************  14336   Sp-PatRoom1_Mult10_Flr_4 Sys-3 Flr-3 Sch-H HPlcmt-south ZN NECB System 3 PSZ Occ Sch Default, !- Holiday Schedule:Day Name\n   *************  14337   Sp-PatRoom1_Mult10_Flr_4 Sys-3 Flr-3 Sch-H HPlcmt-south ZN NECB System 3 PSZ Occ Sch Summer Design Day, !- SummerDesignDay Schedule:Day Name\n   ** Warning ** IP: IDF line~14337 Alpha Argument length exceeds maximum, will be truncated=  Sp-PatRoom1_Mult10_Flr_4 Sys-3 Flr-3 Sch-H HPlcmt-south ZN NECB System 3 PSZ Occ Sch Summer Design Da\n   **   ~~~   ** Will be processed as Alpha=SP-PATROOM1_MULT10_FLR_4 SYS-3 FLR-3 SCH-H HPLCMT-SOUTH ZN NECB SYSTEM 3 PSZ OCC SCH SUMMER DESIGN DAY\n   ************* IDF Context for following error/warning message:\n   ************* Note -- lines truncated at 300 characters, if necessary...\n   *************  14327 Schedule:Week:Daily,\n   ************* indicated Name=Schedule:Week:Daily {def98898-108a-4701-962e-87b2a2247076}\n   ************* Only last 10 lines before error line shown.....\n   *************  14329   Sp-PatRoom1_Mult10_Flr_4 Sys-3 Flr-3 Sch-H HPlcmt-south ZN NECB System 3 PSZ Occ Sch Sunday, !- Sunday Schedule:Day Name\n   *************  14330   Sp-PatRoom1_Mult10_Flr_4 Sys-3 Flr-3 Sch-H HPlcmt-south ZN NECB System 3 PSZ Occ Sch Monday, !- Monday Schedule:Day Name\n   *************  14331   Sp-PatRoom1_Mult10_Flr_4 Sys-3 Flr-3 Sch-H HPlcmt-south ZN NECB System 3 PSZ Occ Sch Tuesday, !- Tuesday Schedule:Day Name\n   *************  14332   Sp-PatRoom1_Mult10_Flr_4 Sys-3 Flr-3 Sch-H HPlcmt-south ZN NECB System 3 PSZ Occ Sch Wednesday, !- Wednesday Schedule:Day Name\n   *************  14333   Sp-PatRoom1_Mult10_Flr_4 Sys-3 Flr-3 Sch-H HPlcmt-south ZN NECB System 3 PSZ Occ Sch Thursday, !- Thursday Schedule:Day Name\n   *************  14334   Sp-PatRoom1_Mult10_Flr_4 Sys-3 Flr-3 Sch-H HPlcmt-south ZN NECB System 3 PSZ Occ Sch Friday, !- Friday Schedule:Day Name\n   *************  14335   Sp-PatRoom1_Mult10_Flr_4 Sys-3 Flr-3 Sch-H HPlcmt-south ZN NECB System 3 PSZ Occ Sch Saturday, !- Saturday Schedule:Day Name\n   *************  14336   Sp-PatRoom1_Mult10_Flr_4 Sys-3 Flr-3 Sch-H HPlcmt-south ZN NECB System 3 PSZ Occ Sch Default, !- Holiday Schedule:Day Name\n   *************  14337   Sp-PatRoom1_Mult10_Flr_4 Sys-3 Flr-3 Sch-H HPlcmt-south ZN NECB System 3 PSZ Occ Sch Summer Design Day, !- SummerDesignDay Schedule:Day Name\n   *************  14338   Sp-PatRoom1_Mult10_Flr_4 Sys-3 Flr-3 Sch-H HPlcmt-south ZN NECB System 3 PSZ Occ Sch Winter Design Day, !- WinterDesignDay Schedule:Day Name\n   ** Warning ** IP: IDF line~14338 Alpha Argument length exceeds maximum, will be truncated=  Sp-PatRoom1_Mult10_Flr_4 Sys-3 Flr-3 Sch-H HPlcmt-south ZN NECB System 3 PSZ Occ Sch Winter Design Da\n   **   ~~~   ** Will be processed as Alpha=SP-PATROOM1_MULT10_FLR_4 SYS-3 FLR-3 SCH-H HPLCMT-SOUTH ZN NECB SYSTEM 3 PSZ OCC SCH WINTER DESIGN DAY\n   ************* IDF Context for following error/warning message:\n   ************* Note -- lines truncated at 300 characters, if necessary...\n   *************  14358 Schedule:Day:Interval,\n   ************* indicated Name=Sp-PatRoom1_Mult10_Flr_4 Sys-3 Flr-3 Sch-H HPlcmt-south ZN NECB System 3 PSZ Occ Sch Summer Design Day\n   ************* Only last 1 lines before error line shown.....\n   *************  14359   Sp-PatRoom1_Mult10_Flr_4 Sys-3 Flr-3 Sch-H HPlcmt-south ZN NECB System 3 PSZ Occ Sch Summer Design Day, !- Name\n   ** Warning ** IP: IDF line~14359 Alpha Argument length exceeds maximum, will be truncated=  Sp-PatRoom1_Mult10_Flr_4 Sys-3 Flr-3 Sch-H HPlcmt-south ZN NECB System 3 PSZ Occ Sch Summer Design Da\n   **   ~~~   ** Will be processed as Alpha=SP-PATROOM1_MULT10_FLR_4 SYS-3 FLR-3 SCH-H HPLCMT-SOUTH ZN NECB SYSTEM 3 PSZ OCC SCH SUMMER DESIGN DAY\n   ************* IDF Context for following error/warning message:\n   ************* Note -- lines truncated at 300 characters, if necessary...\n   *************  14365 Schedule:Day:Interval,\n   ************* indicated Name=Sp-PatRoom1_Mult10_Flr_4 Sys-3 Flr-3 Sch-H HPlcmt-south ZN NECB System 3 PSZ Occ Sch Winter Design Day\n   ************* Only last 1 lines before error line shown.....\n   *************  14366   Sp-PatRoom1_Mult10_Flr_4 Sys-3 Flr-3 Sch-H HPlcmt-south ZN NECB System 3 PSZ Occ Sch Winter Design Day, !- Name\n   ** Warning ** IP: IDF line~14366 Alpha Argument length exceeds maximum, will be truncated=  Sp-PatRoom1_Mult10_Flr_4 Sys-3 Flr-3 Sch-H HPlcmt-south ZN NECB System 3 PSZ Occ Sch Winter Design Da\n   **   ~~~   ** Will be processed as Alpha=SP-PATROOM1_MULT10_FLR_4 SYS-3 FLR-3 SCH-H HPLCMT-SOUTH ZN NECB SYSTEM 3 PSZ OCC SCH WINTER DESIGN DAY\n   ************* IDF Context for following error/warning message:\n   ************* Note -- lines truncated at 300 characters, if necessary...\n   *************  15220 Schedule:Week:Daily,\n   ************* indicated Name=Schedule:Week:Daily {4765ecba-f5d8-4b5c-96a0-92b0bfc58206}\n   ************* Only last 10 lines before error line shown.....\n   *************  15221   Schedule:Week:Daily {4765ecba-f5d8-4b5c-96a0-92b0bfc58206}, !- Name\n   *************  15222   Sp-PatRoom3_Mult10_Flr_3 Sys-3 Flr-2 Sch-H HPlcmt-east ZN NECB System 3 PSZ Occ Sch Sunday, !- Sunday Schedule:Day Name\n   *************  15223   Sp-PatRoom3_Mult10_Flr_3 Sys-3 Flr-2 Sch-H HPlcmt-east ZN NECB System 3 PSZ Occ Sch Monday, !- Monday Schedule:Day Name\n   *************  15224   Sp-PatRoom3_Mult10_Flr_3 Sys-3 Flr-2 Sch-H HPlcmt-east ZN NECB System 3 PSZ Occ Sch Tuesday, !- Tuesday Schedule:Day Name\n   *************  15225   Sp-PatRoom3_Mult10_Flr_3 Sys-3 Flr-2 Sch-H HPlcmt-east ZN NECB System 3 PSZ Occ Sch Wednesday, !- Wednesday Schedule:Day Name\n   *************  15226   Sp-PatRoom3_Mult10_Flr_3 Sys-3 Flr-2 Sch-H HPlcmt-east ZN NECB System 3 PSZ Occ Sch Thursday, !- Thursday Schedule:Day Name\n   *************  15227   Sp-PatRoom3_Mult10_Flr_3 Sys-3 Flr-2 Sch-H HPlcmt-east ZN NECB System 3 PSZ Occ Sch Friday, !- Friday Schedule:Day Name\n   *************  15228   Sp-PatRoom3_Mult10_Flr_3 Sys-3 Flr-2 Sch-H HPlcmt-east ZN NECB System 3 PSZ Occ Sch Saturday, !- Saturday Schedule:Day Name\n   *************  15229   Sp-PatRoom3_Mult10_Flr_3 Sys-3 Flr-2 Sch-H HPlcmt-east ZN NECB System 3 PSZ Occ Sch Default, !- Holiday Schedule:Day Name\n   *************  15230   Sp-PatRoom3_Mult10_Flr_3 Sys-3 Flr-2 Sch-H HPlcmt-east ZN NECB System 3 PSZ Occ Sch Summer Design Day, !- SummerDesignDay Schedule:Day Name\n   ** Warning ** IP: IDF line~15230 Alpha Argument length exceeds maximum, will be truncated=  Sp-PatRoom3_Mult10_Flr_3 Sys-3 Flr-2 Sch-H HPlcmt-east ZN NECB System 3 PSZ Occ Sch Summer Design Da\n   **   ~~~   ** Will be processed as Alpha=SP-PATROOM3_MULT10_FLR_3 SYS-3 FLR-2 SCH-H HPLCMT-EAST ZN NECB SYSTEM 3 PSZ OCC SCH SUMMER DESIGN DAY\n   ************* IDF Context for following error/warning message:\n   ************* Note -- lines truncated at 300 characters, if necessary...\n   *************  15220 Schedule:Week:Daily,\n   ************* indicated Name=Schedule:Week:Daily {4765ecba-f5d8-4b5c-96a0-92b0bfc58206}\n   ************* Only last 10 lines before error line shown.....\n   *************  15222   Sp-PatRoom3_Mult10_Flr_3 Sys-3 Flr-2 Sch-H HPlcmt-east ZN NECB System 3 PSZ Occ Sch Sunday, !- Sunday Schedule:Day Name\n   *************  15223   Sp-PatRoom3_Mult10_Flr_3 Sys-3 Flr-2 Sch-H HPlcmt-east ZN NECB System 3 PSZ Occ Sch Monday, !- Monday Schedule:Day Name\n   *************  15224   Sp-PatRoom3_Mult10_Flr_3 Sys-3 Flr-2 Sch-H HPlcmt-east ZN NECB System 3 PSZ Occ Sch Tuesday, !- Tuesday Schedule:Day Name\n   *************  15225   Sp-PatRoom3_Mult10_Flr_3 Sys-3 Flr-2 Sch-H HPlcmt-east ZN NECB System 3 PSZ Occ Sch Wednesday, !- Wednesday Schedule:Day Name\n   *************  15226   Sp-PatRoom3_Mult10_Flr_3 Sys-3 Flr-2 Sch-H HPlcmt-east ZN NECB System 3 PSZ Occ Sch Thursday, !- Thursday Schedule:Day Name\n   *************  15227   Sp-PatRoom3_Mult10_Flr_3 Sys-3 Flr-2 Sch-H HPlcmt-east ZN NECB System 3 PSZ Occ Sch Friday, !- Friday Schedule:Day Name\n   *************  15228   Sp-PatRoom3_Mult10_Flr_3 Sys-3 Flr-2 Sch-H HPlcmt-east ZN NECB System 3 PSZ Occ Sch Saturday, !- Saturday Schedule:Day Name\n   *************  15229   Sp-PatRoom3_Mult10_Flr_3 Sys-3 Flr-2 Sch-H HPlcmt-east ZN NECB System 3 PSZ Occ Sch Default, !- Holiday Schedule:Day Name\n   *************  15230   Sp-PatRoom3_Mult10_Flr_3 Sys-3 Flr-2 Sch-H HPlcmt-east ZN NECB System 3 PSZ Occ Sch Summer Design Day, !- SummerDesignDay Schedule:Day Name\n   *************  15231   Sp-PatRoom3_Mult10_Flr_3 Sys-3 Flr-2 Sch-H HPlcmt-east ZN NECB System 3 PSZ Occ Sch Winter Design Day, !- WinterDesignDay Schedule:Day Name\n   ** Warning ** IP: IDF line~15231 Alpha Argument length exceeds maximum, will be truncated=  Sp-PatRoom3_Mult10_Flr_3 Sys-3 Flr-2 Sch-H HPlcmt-east ZN NECB System 3 PSZ Occ Sch Winter Design Da\n   **   ~~~   ** Will be processed as Alpha=SP-PATROOM3_MULT10_FLR_3 SYS-3 FLR-2 SCH-H HPLCMT-EAST ZN NECB SYSTEM 3 PSZ OCC SCH WINTER DESIGN DAY\n   ************* IDF Context for following error/warning message:\n   ************* Note -- lines truncated at 300 characters, if necessary...\n   *************  15251 Schedule:Day:Interval,\n   ************* indicated Name=Sp-PatRoom3_Mult10_Flr_3 Sys-3 Flr-2 Sch-H HPlcmt-east ZN NECB System 3 PSZ Occ Sch Summer Design Day\n   ************* Only last 1 lines before error line shown.....\n   *************  15252   Sp-PatRoom3_Mult10_Flr_3 Sys-3 Flr-2 Sch-H HPlcmt-east ZN NECB System 3 PSZ Occ Sch Summer Design Day, !- Name\n   ** Warning ** IP: IDF line~15252 Alpha Argument length exceeds maximum, will be truncated=  Sp-PatRoom3_Mult10_Flr_3 Sys-3 Flr-2 Sch-H HPlcmt-east ZN NECB System 3 PSZ Occ Sch Summer Design Da\n   **   ~~~   ** Will be processed as Alpha=SP-PATROOM3_MULT10_FLR_3 SYS-3 FLR-2 SCH-H HPLCMT-EAST ZN NECB SYSTEM 3 PSZ OCC SCH SUMMER DESIGN DAY\n   ************* IDF Context for following error/warning message:\n   ************* Note -- lines truncated at 300 characters, if necessary...\n   *************  15258 Schedule:Day:Interval,\n   ************* indicated Name=Sp-PatRoom3_Mult10_Flr_3 Sys-3 Flr-2 Sch-H HPlcmt-east ZN NECB System 3 PSZ Occ Sch Winter Design Day\n   ************* Only last 1 lines before error line shown.....\n   *************  15259   Sp-PatRoom3_Mult10_Flr_3 Sys-3 Flr-2 Sch-H HPlcmt-east ZN NECB System 3 PSZ Occ Sch Winter Design Day, !- Name\n   ** Warning ** IP: IDF line~15259 Alpha Argument length exceeds maximum, will be truncated=  Sp-PatRoom3_Mult10_Flr_3 Sys-3 Flr-2 Sch-H HPlcmt-east ZN NECB System 3 PSZ Occ Sch Winter Design Da\n   **   ~~~   ** Will be processed as Alpha=SP-PATROOM3_MULT10_FLR_3 SYS-3 FLR-2 SCH-H HPLCMT-EAST ZN NECB SYSTEM 3 PSZ OCC SCH WINTER DESIGN DAY\n   ************* IDF Context for following error/warning message:\n   ************* Note -- lines truncated at 300 characters, if necessary...\n   *************  15559 Schedule:Week:Daily,\n   ************* indicated Name=Schedule:Week:Daily {e2578ce0-9577-4a78-8698-5c770a99c751}\n   ************* Only last 10 lines before error line shown.....\n   *************  15560   Schedule:Week:Daily {e2578ce0-9577-4a78-8698-5c770a99c751}, !- Name\n   *************  15561   Sp-PatRoom3_Mult10_Flr_4 Sys-3 Flr-3 Sch-H HPlcmt-east ZN NECB System 3 PSZ Occ Sch Sunday, !- Sunday Schedule:Day Name\n   *************  15562   Sp-PatRoom3_Mult10_Flr_4 Sys-3 Flr-3 Sch-H HPlcmt-east ZN NECB System 3 PSZ Occ Sch Monday, !- Monday Schedule:Day Name\n   *************  15563   Sp-PatRoom3_Mult10_Flr_4 Sys-3 Flr-3 Sch-H HPlcmt-east ZN NECB System 3 PSZ Occ Sch Tuesday, !- Tuesday Schedule:Day Name\n   *************  15564   Sp-PatRoom3_Mult10_Flr_4 Sys-3 Flr-3 Sch-H HPlcmt-east ZN NECB System 3 PSZ Occ Sch Wednesday, !- Wednesday Schedule:Day Name\n   *************  15565   Sp-PatRoom3_Mult10_Flr_4 Sys-3 Flr-3 Sch-H HPlcmt-east ZN NECB System 3 PSZ Occ Sch Thursday, !- Thursday Schedule:Day Name\n   *************  15566   Sp-PatRoom3_Mult10_Flr_4 Sys-3 Flr-3 Sch-H HPlcmt-east ZN NECB System 3 PSZ Occ Sch Friday, !- Friday Schedule:Day Name\n   *************  15567   Sp-PatRoom3_Mult10_Flr_4 Sys-3 Flr-3 Sch-H HPlcmt-east ZN NECB System 3 PSZ Occ Sch Saturday, !- Saturday Schedule:Day Name\n   *************  15568   Sp-PatRoom3_Mult10_Flr_4 Sys-3 Flr-3 Sch-H HPlcmt-east ZN NECB System 3 PSZ Occ Sch Default, !- Holiday Schedule:Day Name\n   *************  15569   Sp-PatRoom3_Mult10_Flr_4 Sys-3 Flr-3 Sch-H HPlcmt-east ZN NECB System 3 PSZ Occ Sch Summer Design Day, !- SummerDesignDay Schedule:Day Name\n   ** Warning ** IP: IDF line~15569 Alpha Argument length exceeds maximum, will be truncated=  Sp-PatRoom3_Mult10_Flr_4 Sys-3 Flr-3 Sch-H HPlcmt-east ZN NECB System 3 PSZ Occ Sch Summer Design Da\n   **   ~~~   ** Will be processed as Alpha=SP-PATROOM3_MULT10_FLR_4 SYS-3 FLR-3 SCH-H HPLCMT-EAST ZN NECB SYSTEM 3 PSZ OCC SCH SUMMER DESIGN DAY\n   ************* IDF Context for following error/warning message:\n   ************* Note -- lines truncated at 300 characters, if necessary...\n   *************  15559 Schedule:Week:Daily,\n   ************* indicated Name=Schedule:Week:Daily {e2578ce0-9577-4a78-8698-5c770a99c751}\n   ************* Only last 10 lines before error line shown.....\n   *************  15561   Sp-PatRoom3_Mult10_Flr_4 Sys-3 Flr-3 Sch-H HPlcmt-east ZN NECB System 3 PSZ Occ Sch Sunday, !- Sunday Schedule:Day Name\n   *************  15562   Sp-PatRoom3_Mult10_Flr_4 Sys-3 Flr-3 Sch-H HPlcmt-east ZN NECB System 3 PSZ Occ Sch Monday, !- Monday Schedule:Day Name\n   *************  15563   Sp-PatRoom3_Mult10_Flr_4 Sys-3 Flr-3 Sch-H HPlcmt-east ZN NECB System 3 PSZ Occ Sch Tuesday, !- Tuesday Schedule:Day Name\n   *************  15564   Sp-PatRoom3_Mult10_Flr_4 Sys-3 Flr-3 Sch-H HPlcmt-east ZN NECB System 3 PSZ Occ Sch Wednesday, !- Wednesday Schedule:Day Name\n   *************  15565   Sp-PatRoom3_Mult10_Flr_4 Sys-3 Flr-3 Sch-H HPlcmt-east ZN NECB System 3 PSZ Occ Sch Thursday, !- Thursday Schedule:Day Name\n   *************  15566   Sp-PatRoom3_Mult10_Flr_4 Sys-3 Flr-3 Sch-H HPlcmt-east ZN NECB System 3 PSZ Occ Sch Friday, !- Friday Schedule:Day Name\n   *************  15567   Sp-PatRoom3_Mult10_Flr_4 Sys-3 Flr-3 Sch-H HPlcmt-east ZN NECB System 3 PSZ Occ Sch Saturday, !- Saturday Schedule:Day Name\n   *************  15568   Sp-PatRoom3_Mult10_Flr_4 Sys-3 Flr-3 Sch-H HPlcmt-east ZN NECB System 3 PSZ Occ Sch Default, !- Holiday Schedule:Day Name\n   *************  15569   Sp-PatRoom3_Mult10_Flr_4 Sys-3 Flr-3 Sch-H HPlcmt-east ZN NECB System 3 PSZ Occ Sch Summer Design Day, !- SummerDesignDay Schedule:Day Name\n   *************  15570   Sp-PatRoom3_Mult10_Flr_4 Sys-3 Flr-3 Sch-H HPlcmt-east ZN NECB System 3 PSZ Occ Sch Winter Design Day, !- WinterDesignDay Schedule:Day Name\n   ** Warning ** IP: IDF line~15570 Alpha Argument length exceeds maximum, will be truncated=  Sp-PatRoom3_Mult10_Flr_4 Sys-3 Flr-3 Sch-H HPlcmt-east ZN NECB System 3 PSZ Occ Sch Winter Design Da\n   **   ~~~   ** Will be processed as Alpha=SP-PATROOM3_MULT10_FLR_4 SYS-3 FLR-3 SCH-H HPLCMT-EAST ZN NECB SYSTEM 3 PSZ OCC SCH WINTER DESIGN DAY\n   ************* IDF Context for following error/warning message:\n   ************* Note -- lines truncated at 300 characters, if necessary...\n   *************  15590 Schedule:Day:Interval,\n   ************* indicated Name=Sp-PatRoom3_Mult10_Flr_4 Sys-3 Flr-3 Sch-H HPlcmt-east ZN NECB System 3 PSZ Occ Sch Summer Design Day\n   ************* Only last 1 lines before error line shown.....\n   *************  15591   Sp-PatRoom3_Mult10_Flr_4 Sys-3 Flr-3 Sch-H HPlcmt-east ZN NECB System 3 PSZ Occ Sch Summer Design Day, !- Name\n   ** Warning ** IP: IDF line~15591 Alpha Argument length exceeds maximum, will be truncated=  Sp-PatRoom3_Mult10_Flr_4 Sys-3 Flr-3 Sch-H HPlcmt-east ZN NECB System 3 PSZ Occ Sch Summer Design Da\n   **   ~~~   ** Will be processed as Alpha=SP-PATROOM3_MULT10_FLR_4 SYS-3 FLR-3 SCH-H HPLCMT-EAST ZN NECB SYSTEM 3 PSZ OCC SCH SUMMER DESIGN DAY\n   ************* IDF Context for following error/warning message:\n   ************* Note -- lines truncated at 300 characters, if necessary...\n   *************  15597 Schedule:Day:Interval,\n   ************* indicated Name=Sp-PatRoom3_Mult10_Flr_4 Sys-3 Flr-3 Sch-H HPlcmt-east ZN NECB System 3 PSZ Occ Sch Winter Design Day\n   ************* Only last 1 lines before error line shown.....\n   *************  15598   Sp-PatRoom3_Mult10_Flr_4 Sys-3 Flr-3 Sch-H HPlcmt-east ZN NECB System 3 PSZ Occ Sch Winter Design Day, !- Name\n   ** Warning ** IP: IDF line~15598 Alpha Argument length exceeds maximum, will be truncated=  Sp-PatRoom3_Mult10_Flr_4 Sys-3 Flr-3 Sch-H HPlcmt-east ZN NECB System 3 PSZ Occ Sch Winter Design Da\n   **   ~~~   ** Will be processed as Alpha=SP-PATROOM3_MULT10_FLR_4 SYS-3 FLR-3 SCH-H HPLCMT-EAST ZN NECB SYSTEM 3 PSZ OCC SCH WINTER DESIGN DAY\n   ************* IDF Context for following error/warning message:\n   ************* Note -- lines truncated at 300 characters, if necessary...\n   *************  16452 Schedule:Week:Daily,\n   ************* indicated Name=Schedule:Week:Daily {5dc379ba-9b93-4057-b194-eabd1aa990b8}\n   ************* Only last 10 lines before error line shown.....\n   *************  16453   Schedule:Week:Daily {5dc379ba-9b93-4057-b194-eabd1aa990b8}, !- Name\n   *************  16454   Sp-PatRoom5_Mult10_Flr_3 Sys-3 Flr-2 Sch-H HPlcmt-north ZN NECB System 3 PSZ Occ Sch Sunday, !- Sunday Schedule:Day Name\n   *************  16455   Sp-PatRoom5_Mult10_Flr_3 Sys-3 Flr-2 Sch-H HPlcmt-north ZN NECB System 3 PSZ Occ Sch Monday, !- Monday Schedule:Day Name\n   *************  16456   Sp-PatRoom5_Mult10_Flr_3 Sys-3 Flr-2 Sch-H HPlcmt-north ZN NECB System 3 PSZ Occ Sch Tuesday, !- Tuesday Schedule:Day Name\n   *************  16457   Sp-PatRoom5_Mult10_Flr_3 Sys-3 Flr-2 Sch-H HPlcmt-north ZN NECB System 3 PSZ Occ Sch Wednesday, !- Wednesday Schedule:Day Name\n   *************  16458   Sp-PatRoom5_Mult10_Flr_3 Sys-3 Flr-2 Sch-H HPlcmt-north ZN NECB System 3 PSZ Occ Sch Thursday, !- Thursday Schedule:Day Name\n   *************  16459   Sp-PatRoom5_Mult10_Flr_3 Sys-3 Flr-2 Sch-H HPlcmt-north ZN NECB System 3 PSZ Occ Sch Friday, !- Friday Schedule:Day Name\n   *************  16460   Sp-PatRoom5_Mult10_Flr_3 Sys-3 Flr-2 Sch-H HPlcmt-north ZN NECB System 3 PSZ Occ Sch Saturday, !- Saturday Schedule:Day Name\n   *************  16461   Sp-PatRoom5_Mult10_Flr_3 Sys-3 Flr-2 Sch-H HPlcmt-north ZN NECB System 3 PSZ Occ Sch Default, !- Holiday Schedule:Day Name\n   *************  16462   Sp-PatRoom5_Mult10_Flr_3 Sys-3 Flr-2 Sch-H HPlcmt-north ZN NECB System 3 PSZ Occ Sch Summer Design Day, !- SummerDesignDay Schedule:Day Name\n   ** Warning ** IP: IDF line~16462 Alpha Argument length exceeds maximum, will be truncated=  Sp-PatRoom5_Mult10_Flr_3 Sys-3 Flr-2 Sch-H HPlcmt-north ZN NECB System 3 PSZ Occ Sch Summer Design Da\n   **   ~~~   ** Will be processed as Alpha=SP-PATROOM5_MULT10_FLR_3 SYS-3 FLR-2 SCH-H HPLCMT-NORTH ZN NECB SYSTEM 3 PSZ OCC SCH SUMMER DESIGN DAY\n   ************* IDF Context for following error/warning message:\n   ************* Note -- lines truncated at 300 characters, if necessary...\n   *************  16452 Schedule:Week:Daily,\n   ************* indicated Name=Schedule:Week:Daily {5dc379ba-9b93-4057-b194-eabd1aa990b8}\n   ************* Only last 10 lines before error line shown.....\n   *************  16454   Sp-PatRoom5_Mult10_Flr_3 Sys-3 Flr-2 Sch-H HPlcmt-north ZN NECB System 3 PSZ Occ Sch Sunday, !- Sunday Schedule:Day Name\n   *************  16455   Sp-PatRoom5_Mult10_Flr_3 Sys-3 Flr-2 Sch-H HPlcmt-north ZN NECB System 3 PSZ Occ Sch Monday, !- Monday Schedule:Day Name\n   *************  16456   Sp-PatRoom5_Mult10_Flr_3 Sys-3 Flr-2 Sch-H HPlcmt-north ZN NECB System 3 PSZ Occ Sch Tuesday, !- Tuesday Schedule:Day Name\n   *************  16457   Sp-PatRoom5_Mult10_Flr_3 Sys-3 Flr-2 Sch-H HPlcmt-north ZN NECB System 3 PSZ Occ Sch Wednesday, !- Wednesday Schedule:Day Name\n   *************  16458   Sp-PatRoom5_Mult10_Flr_3 Sys-3 Flr-2 Sch-H HPlcmt-north ZN NECB System 3 PSZ Occ Sch Thursday, !- Thursday Schedule:Day Name\n   *************  16459   Sp-PatRoom5_Mult10_Flr_3 Sys-3 Flr-2 Sch-H HPlcmt-north ZN NECB System 3 PSZ Occ Sch Friday, !- Friday Schedule:Day Name\n   *************  16460   Sp-PatRoom5_Mult10_Flr_3 Sys-3 Flr-2 Sch-H HPlcmt-north ZN NECB System 3 PSZ Occ Sch Saturday, !- Saturday Schedule:Day Name\n   *************  16461   Sp-PatRoom5_Mult10_Flr_3 Sys-3 Flr-2 Sch-H HPlcmt-north ZN NECB System 3 PSZ Occ Sch Default, !- Holiday Schedule:Day Name\n   *************  16462   Sp-PatRoom5_Mult10_Flr_3 Sys-3 Flr-2 Sch-H HPlcmt-north ZN NECB System 3 PSZ Occ Sch Summer Design Day, !- SummerDesignDay Schedule:Day Name\n   *************  16463   Sp-PatRoom5_Mult10_Flr_3 Sys-3 Flr-2 Sch-H HPlcmt-north ZN NECB System 3 PSZ Occ Sch Winter Design Day, !- WinterDesignDay Schedule:Day Name\n   ** Warning ** IP: IDF line~16463 Alpha Argument length exceeds maximum, will be truncated=  Sp-PatRoom5_Mult10_Flr_3 Sys-3 Flr-2 Sch-H HPlcmt-north ZN NECB System 3 PSZ Occ Sch Winter Design Da\n   **   ~~~   ** Will be processed as Alpha=SP-PATROOM5_MULT10_FLR_3 SYS-3 FLR-2 SCH-H HPLCMT-NORTH ZN NECB SYSTEM 3 PSZ OCC SCH WINTER DESIGN DAY\n   ************* IDF Context for following error/warning message:\n   ************* Note -- lines truncated at 300 characters, if necessary...\n   *************  16483 Schedule:Day:Interval,\n   ************* indicated Name=Sp-PatRoom5_Mult10_Flr_3 Sys-3 Flr-2 Sch-H HPlcmt-north ZN NECB System 3 PSZ Occ Sch Summer Design Day\n   ************* Only last 1 lines before error line shown.....\n   *************  16484   Sp-PatRoom5_Mult10_Flr_3 Sys-3 Flr-2 Sch-H HPlcmt-north ZN NECB System 3 PSZ Occ Sch Summer Design Day, !- Name\n   ** Warning ** IP: IDF line~16484 Alpha Argument length exceeds maximum, will be truncated=  Sp-PatRoom5_Mult10_Flr_3 Sys-3 Flr-2 Sch-H HPlcmt-north ZN NECB System 3 PSZ Occ Sch Summer Design Da\n   **   ~~~   ** Will be processed as Alpha=SP-PATROOM5_MULT10_FLR_3 SYS-3 FLR-2 SCH-H HPLCMT-NORTH ZN NECB SYSTEM 3 PSZ OCC SCH SUMMER DESIGN DAY\n   ************* IDF Context for following error/warning message:\n   ************* Note -- lines truncated at 300 characters, if necessary...\n   *************  16490 Schedule:Day:Interval,\n   ************* indicated Name=Sp-PatRoom5_Mult10_Flr_3 Sys-3 Flr-2 Sch-H HPlcmt-north ZN NECB System 3 PSZ Occ Sch Winter Design Day\n   ************* Only last 1 lines before error line shown.....\n   *************  16491   Sp-PatRoom5_Mult10_Flr_3 Sys-3 Flr-2 Sch-H HPlcmt-north ZN NECB System 3 PSZ Occ Sch Winter Design Day, !- Name\n   ** Warning ** IP: IDF line~16491 Alpha Argument length exceeds maximum, will be truncated=  Sp-PatRoom5_Mult10_Flr_3 Sys-3 Flr-2 Sch-H HPlcmt-north ZN NECB System 3 PSZ Occ Sch Winter Design Da\n   **   ~~~   ** Will be processed as Alpha=SP-PATROOM5_MULT10_FLR_3 SYS-3 FLR-2 SCH-H HPLCMT-NORTH ZN NECB SYSTEM 3 PSZ OCC SCH WINTER DESIGN DAY\n   ************* IDF Context for following error/warning message:\n   ************* Note -- lines truncated at 300 characters, if necessary...\n   *************  16791 Schedule:Week:Daily,\n   ************* indicated Name=Schedule:Week:Daily {befed8f7-ab75-4af8-bb6a-dba32328e84c}\n   ************* Only last 10 lines before error line shown.....\n   *************  16792   Schedule:Week:Daily {befed8f7-ab75-4af8-bb6a-dba32328e84c}, !- Name\n   *************  16793   Sp-PatRoom5_Mult10_Flr_4 Sys-3 Flr-3 Sch-H HPlcmt-north ZN NECB System 3 PSZ Occ Sch Sunday, !- Sunday Schedule:Day Name\n   *************  16794   Sp-PatRoom5_Mult10_Flr_4 Sys-3 Flr-3 Sch-H HPlcmt-north ZN NECB System 3 PSZ Occ Sch Monday, !- Monday Schedule:Day Name\n   *************  16795   Sp-PatRoom5_Mult10_Flr_4 Sys-3 Flr-3 Sch-H HPlcmt-north ZN NECB System 3 PSZ Occ Sch Tuesday, !- Tuesday Schedule:Day Name\n   *************  16796   Sp-PatRoom5_Mult10_Flr_4 Sys-3 Flr-3 Sch-H HPlcmt-north ZN NECB System 3 PSZ Occ Sch Wednesday, !- Wednesday Schedule:Day Name\n   *************  16797   Sp-PatRoom5_Mult10_Flr_4 Sys-3 Flr-3 Sch-H HPlcmt-north ZN NECB System 3 PSZ Occ Sch Thursday, !- Thursday Schedule:Day Name\n   *************  16798   Sp-PatRoom5_Mult10_Flr_4 Sys-3 Flr-3 Sch-H HPlcmt-north ZN NECB System 3 PSZ Occ Sch Friday, !- Friday Schedule:Day Name\n   *************  16799   Sp-PatRoom5_Mult10_Flr_4 Sys-3 Flr-3 Sch-H HPlcmt-north ZN NECB System 3 PSZ Occ Sch Saturday, !- Saturday Schedule:Day Name\n   *************  16800   Sp-PatRoom5_Mult10_Flr_4 Sys-3 Flr-3 Sch-H HPlcmt-north ZN NECB System 3 PSZ Occ Sch Default, !- Holiday Schedule:Day Name\n   *************  16801   Sp-PatRoom5_Mult10_Flr_4 Sys-3 Flr-3 Sch-H HPlcmt-north ZN NECB System 3 PSZ Occ Sch Summer Design Day, !- SummerDesignDay Schedule:Day Name\n   ** Warning ** IP: IDF line~16801 Alpha Argument length exceeds maximum, will be truncated=  Sp-PatRoom5_Mult10_Flr_4 Sys-3 Flr-3 Sch-H HPlcmt-north ZN NECB System 3 PSZ Occ Sch Summer Design Da\n   **   ~~~   ** Will be processed as Alpha=SP-PATROOM5_MULT10_FLR_4 SYS-3 FLR-3 SCH-H HPLCMT-NORTH ZN NECB SYSTEM 3 PSZ OCC SCH SUMMER DESIGN DAY\n   ************* IDF Context for following error/warning message:\n   ************* Note -- lines truncated at 300 characters, if necessary...\n   *************  16791 Schedule:Week:Daily,\n   ************* indicated Name=Schedule:Week:Daily {befed8f7-ab75-4af8-bb6a-dba32328e84c}\n   ************* Only last 10 lines before error line shown.....\n   *************  16793   Sp-PatRoom5_Mult10_Flr_4 Sys-3 Flr-3 Sch-H HPlcmt-north ZN NECB System 3 PSZ Occ Sch Sunday, !- Sunday Schedule:Day Name\n   *************  16794   Sp-PatRoom5_Mult10_Flr_4 Sys-3 Flr-3 Sch-H HPlcmt-north ZN NECB System 3 PSZ Occ Sch Monday, !- Monday Schedule:Day Name\n   *************  16795   Sp-PatRoom5_Mult10_Flr_4 Sys-3 Flr-3 Sch-H HPlcmt-north ZN NECB System 3 PSZ Occ Sch Tuesday, !- Tuesday Schedule:Day Name\n   *************  16796   Sp-PatRoom5_Mult10_Flr_4 Sys-3 Flr-3 Sch-H HPlcmt-north ZN NECB System 3 PSZ Occ Sch Wednesday, !- Wednesday Schedule:Day Name\n   *************  16797   Sp-PatRoom5_Mult10_Flr_4 Sys-3 Flr-3 Sch-H HPlcmt-north ZN NECB System 3 PSZ Occ Sch Thursday, !- Thursday Schedule:Day Name\n   *************  16798   Sp-PatRoom5_Mult10_Flr_4 Sys-3 Flr-3 Sch-H HPlcmt-north ZN NECB System 3 PSZ Occ Sch Friday, !- Friday Schedule:Day Name\n   *************  16799   Sp-PatRoom5_Mult10_Flr_4 Sys-3 Flr-3 Sch-H HPlcmt-north ZN NECB System 3 PSZ Occ Sch Saturday, !- Saturday Schedule:Day Name\n   *************  16800   Sp-PatRoom5_Mult10_Flr_4 Sys-3 Flr-3 Sch-H HPlcmt-north ZN NECB System 3 PSZ Occ Sch Default, !- Holiday Schedule:Day Name\n   *************  16801   Sp-PatRoom5_Mult10_Flr_4 Sys-3 Flr-3 Sch-H HPlcmt-north ZN NECB System 3 PSZ Occ Sch Summer Design Day, !- SummerDesignDay Schedule:Day Name\n   *************  16802   Sp-PatRoom5_Mult10_Flr_4 Sys-3 Flr-3 Sch-H HPlcmt-north ZN NECB System 3 PSZ Occ Sch Winter Design Day, !- WinterDesignDay Schedule:Day Name\n   ** Warning ** IP: IDF line~16802 Alpha Argument length exceeds maximum, will be truncated=  Sp-PatRoom5_Mult10_Flr_4 Sys-3 Flr-3 Sch-H HPlcmt-north ZN NECB System 3 PSZ Occ Sch Winter Design Da\n   **   ~~~   ** Will be processed as Alpha=SP-PATROOM5_MULT10_FLR_4 SYS-3 FLR-3 SCH-H HPLCMT-NORTH ZN NECB SYSTEM 3 PSZ OCC SCH WINTER DESIGN DAY\n   ************* IDF Context for following error/warning message:\n   ************* Note -- lines truncated at 300 characters, if necessary...\n   *************  16822 Schedule:Day:Interval,\n   ************* indicated Name=Sp-PatRoom5_Mult10_Flr_4 Sys-3 Flr-3 Sch-H HPlcmt-north ZN NECB System 3 PSZ Occ Sch Summer Design Day\n   ************* Only last 1 lines before error line shown.....\n   *************  16823   Sp-PatRoom5_Mult10_Flr_4 Sys-3 Flr-3 Sch-H HPlcmt-north ZN NECB System 3 PSZ Occ Sch Summer Design Day, !- Name\n   ** Warning ** IP: IDF line~16823 Alpha Argument length exceeds maximum, will be truncated=  Sp-PatRoom5_Mult10_Flr_4 Sys-3 Flr-3 Sch-H HPlcmt-north ZN NECB System 3 PSZ Occ Sch Summer Design Da\n   **   ~~~   ** Will be processed as Alpha=SP-PATROOM5_MULT10_FLR_4 SYS-3 FLR-3 SCH-H HPLCMT-NORTH ZN NECB SYSTEM 3 PSZ OCC SCH SUMMER DESIGN DAY\n   ************* IDF Context for following error/warning message:\n   ************* Note -- lines truncated at 300 characters, if necessary...\n   *************  16829 Schedule:Day:Interval,\n   ************* indicated Name=Sp-PatRoom5_Mult10_Flr_4 Sys-3 Flr-3 Sch-H HPlcmt-north ZN NECB System 3 PSZ Occ Sch Winter Design Day\n   ************* Only last 1 lines before error line shown.....\n   *************  16830   Sp-PatRoom5_Mult10_Flr_4 Sys-3 Flr-3 Sch-H HPlcmt-north ZN NECB System 3 PSZ Occ Sch Winter Design Day, !- Name\n   ** Warning ** IP: IDF line~16830 Alpha Argument length exceeds maximum, will be truncated=  Sp-PatRoom5_Mult10_Flr_4 Sys-3 Flr-3 Sch-H HPlcmt-north ZN NECB System 3 PSZ Occ Sch Winter Design Da\n   **   ~~~   ** Will be processed as Alpha=SP-PATROOM5_MULT10_FLR_4 SYS-3 FLR-3 SCH-H HPLCMT-NORTH ZN NECB SYSTEM 3 PSZ OCC SCH WINTER DESIGN DAY\n   ************* IDF Context for following error/warning message:\n   ************* Note -- lines truncated at 300 characters, if necessary...\n   *************  17684 Schedule:Week:Daily,\n   ************* indicated Name=Schedule:Week:Daily {b31b6448-8ae4-4a92-914b-808f06a37a68}\n   ************* Only last 10 lines before error line shown.....\n   *************  17685   Schedule:Week:Daily {b31b6448-8ae4-4a92-914b-808f06a37a68}, !- Name\n   *************  17686   Sp-PatRoom7_Mult10_Flr_3 Sys-3 Flr-2 Sch-H HPlcmt-west ZN NECB System 3 PSZ Occ Sch Sunday, !- Sunday Schedule:Day Name\n   *************  17687   Sp-PatRoom7_Mult10_Flr_3 Sys-3 Flr-2 Sch-H HPlcmt-west ZN NECB System 3 PSZ Occ Sch Monday, !- Monday Schedule:Day Name\n   *************  17688   Sp-PatRoom7_Mult10_Flr_3 Sys-3 Flr-2 Sch-H HPlcmt-west ZN NECB System 3 PSZ Occ Sch Tuesday, !- Tuesday Schedule:Day Name\n   *************  17689   Sp-PatRoom7_Mult10_Flr_3 Sys-3 Flr-2 Sch-H HPlcmt-west ZN NECB System 3 PSZ Occ Sch Wednesday, !- Wednesday Schedule:Day Name\n   *************  17690   Sp-PatRoom7_Mult10_Flr_3 Sys-3 Flr-2 Sch-H HPlcmt-west ZN NECB System 3 PSZ Occ Sch Thursday, !- Thursday Schedule:Day Name\n   *************  17691   Sp-PatRoom7_Mult10_Flr_3 Sys-3 Flr-2 Sch-H HPlcmt-west ZN NECB System 3 PSZ Occ Sch Friday, !- Friday Schedule:Day Name\n   *************  17692   Sp-PatRoom7_Mult10_Flr_3 Sys-3 Flr-2 Sch-H HPlcmt-west ZN NECB System 3 PSZ Occ Sch Saturday, !- Saturday Schedule:Day Name\n   *************  17693   Sp-PatRoom7_Mult10_Flr_3 Sys-3 Flr-2 Sch-H HPlcmt-west ZN NECB System 3 PSZ Occ Sch Default, !- Holiday Schedule:Day Name\n   *************  17694   Sp-PatRoom7_Mult10_Flr_3 Sys-3 Flr-2 Sch-H HPlcmt-west ZN NECB System 3 PSZ Occ Sch Summer Design Day, !- SummerDesignDay Schedule:Day Name\n   ** Warning ** IP: IDF line~17694 Alpha Argument length exceeds maximum, will be truncated=  Sp-PatRoom7_Mult10_Flr_3 Sys-3 Flr-2 Sch-H HPlcmt-west ZN NECB System 3 PSZ Occ Sch Summer Design Da\n   **   ~~~   ** Will be processed as Alpha=SP-PATROOM7_MULT10_FLR_3 SYS-3 FLR-2 SCH-H HPLCMT-WEST ZN NECB SYSTEM 3 PSZ OCC SCH SUMMER DESIGN DAY\n   ************* IDF Context for following error/warning message:\n   ************* Note -- lines truncated at 300 characters, if necessary...\n   *************  17684 Schedule:Week:Daily,\n   ************* indicated Name=Schedule:Week:Daily {b31b6448-8ae4-4a92-914b-808f06a37a68}\n   ************* Only last 10 lines before error line shown.....\n   *************  17686   Sp-PatRoom7_Mult10_Flr_3 Sys-3 Flr-2 Sch-H HPlcmt-west ZN NECB System 3 PSZ Occ Sch Sunday, !- Sunday Schedule:Day Name\n   *************  17687   Sp-PatRoom7_Mult10_Flr_3 Sys-3 Flr-2 Sch-H HPlcmt-west ZN NECB System 3 PSZ Occ Sch Monday, !- Monday Schedule:Day Name\n   *************  17688   Sp-PatRoom7_Mult10_Flr_3 Sys-3 Flr-2 Sch-H HPlcmt-west ZN NECB System 3 PSZ Occ Sch Tuesday, !- Tuesday Schedule:Day Name\n   *************  17689   Sp-PatRoom7_Mult10_Flr_3 Sys-3 Flr-2 Sch-H HPlcmt-west ZN NECB System 3 PSZ Occ Sch Wednesday, !- Wednesday Schedule:Day Name\n   *************  17690   Sp-PatRoom7_Mult10_Flr_3 Sys-3 Flr-2 Sch-H HPlcmt-west ZN NECB System 3 PSZ Occ Sch Thursday, !- Thursday Schedule:Day Name\n   *************  17691   Sp-PatRoom7_Mult10_Flr_3 Sys-3 Flr-2 Sch-H HPlcmt-west ZN NECB System 3 PSZ Occ Sch Friday, !- Friday Schedule:Day Name\n   *************  17692   Sp-PatRoom7_Mult10_Flr_3 Sys-3 Flr-2 Sch-H HPlcmt-west ZN NECB System 3 PSZ Occ Sch Saturday, !- Saturday Schedule:Day Name\n   *************  17693   Sp-PatRoom7_Mult10_Flr_3 Sys-3 Flr-2 Sch-H HPlcmt-west ZN NECB System 3 PSZ Occ Sch Default, !- Holiday Schedule:Day Name\n   *************  17694   Sp-PatRoom7_Mult10_Flr_3 Sys-3 Flr-2 Sch-H HPlcmt-west ZN NECB System 3 PSZ Occ Sch Summer Design Day, !- SummerDesignDay Schedule:Day Name\n   *************  17695   Sp-PatRoom7_Mult10_Flr_3 Sys-3 Flr-2 Sch-H HPlcmt-west ZN NECB System 3 PSZ Occ Sch Winter Design Day, !- WinterDesignDay Schedule:Day Name\n   ** Warning ** IP: IDF line~17695 Alpha Argument length exceeds maximum, will be truncated=  Sp-PatRoom7_Mult10_Flr_3 Sys-3 Flr-2 Sch-H HPlcmt-west ZN NECB System 3 PSZ Occ Sch Winter Design Da\n   **   ~~~   ** Will be processed as Alpha=SP-PATROOM7_MULT10_FLR_3 SYS-3 FLR-2 SCH-H HPLCMT-WEST ZN NECB SYSTEM 3 PSZ OCC SCH WINTER DESIGN DAY\n   ************* IDF Context for following error/warning message:\n   ************* Note -- lines truncated at 300 characters, if necessary...\n   *************  17715 Schedule:Day:Interval,\n   ************* indicated Name=Sp-PatRoom7_Mult10_Flr_3 Sys-3 Flr-2 Sch-H HPlcmt-west ZN NECB System 3 PSZ Occ Sch Summer Design Day\n   ************* Only last 1 lines before error line shown.....\n   *************  17716   Sp-PatRoom7_Mult10_Flr_3 Sys-3 Flr-2 Sch-H HPlcmt-west ZN NECB System 3 PSZ Occ Sch Summer Design Day, !- Name\n   ** Warning ** IP: IDF line~17716 Alpha Argument length exceeds maximum, will be truncated=  Sp-PatRoom7_Mult10_Flr_3 Sys-3 Flr-2 Sch-H HPlcmt-west ZN NECB System 3 PSZ Occ Sch Summer Design Da\n   **   ~~~   ** Will be processed as Alpha=SP-PATROOM7_MULT10_FLR_3 SYS-3 FLR-2 SCH-H HPLCMT-WEST ZN NECB SYSTEM 3 PSZ OCC SCH SUMMER DESIGN DAY\n   ************* IDF Context for following error/warning message:\n   ************* Note -- lines truncated at 300 characters, if necessary...\n   *************  17722 Schedule:Day:Interval,\n   ************* indicated Name=Sp-PatRoom7_Mult10_Flr_3 Sys-3 Flr-2 Sch-H HPlcmt-west ZN NECB System 3 PSZ Occ Sch Winter Design Day\n   ************* Only last 1 lines before error line shown.....\n   *************  17723   Sp-PatRoom7_Mult10_Flr_3 Sys-3 Flr-2 Sch-H HPlcmt-west ZN NECB System 3 PSZ Occ Sch Winter Design Day, !- Name\n   ** Warning ** IP: IDF line~17723 Alpha Argument length exceeds maximum, will be truncated=  Sp-PatRoom7_Mult10_Flr_3 Sys-3 Flr-2 Sch-H HPlcmt-west ZN NECB System 3 PSZ Occ Sch Winter Design Da\n   **   ~~~   ** Will be processed as Alpha=SP-PATROOM7_MULT10_FLR_3 SYS-3 FLR-2 SCH-H HPLCMT-WEST ZN NECB SYSTEM 3 PSZ OCC SCH WINTER DESIGN DAY\n   ************* IDF Context for following error/warning message:\n   ************* Note -- lines truncated at 300 characters, if necessary...\n   *************  18023 Schedule:Week:Daily,\n   ************* indicated Name=Schedule:Week:Daily {ac16bea2-4bf8-4618-aa9a-362f62d12c01}\n   ************* Only last 10 lines before error line shown.....\n   *************  18024   Schedule:Week:Daily {ac16bea2-4bf8-4618-aa9a-362f62d12c01}, !- Name\n   *************  18025   Sp-PatRoom7_Mult10_Flr_4 Sys-3 Flr-3 Sch-H HPlcmt-west ZN NECB System 3 PSZ Occ Sch Sunday, !- Sunday Schedule:Day Name\n   *************  18026   Sp-PatRoom7_Mult10_Flr_4 Sys-3 Flr-3 Sch-H HPlcmt-west ZN NECB System 3 PSZ Occ Sch Monday, !- Monday Schedule:Day Name\n   *************  18027   Sp-PatRoom7_Mult10_Flr_4 Sys-3 Flr-3 Sch-H HPlcmt-west ZN NECB System 3 PSZ Occ Sch Tuesday, !- Tuesday Schedule:Day Name\n   *************  18028   Sp-PatRoom7_Mult10_Flr_4 Sys-3 Flr-3 Sch-H HPlcmt-west ZN NECB System 3 PSZ Occ Sch Wednesday, !- Wednesday Schedule:Day Name\n   *************  18029   Sp-PatRoom7_Mult10_Flr_4 Sys-3 Flr-3 Sch-H HPlcmt-west ZN NECB System 3 PSZ Occ Sch Thursday, !- Thursday Schedule:Day Name\n   *************  18030   Sp-PatRoom7_Mult10_Flr_4 Sys-3 Flr-3 Sch-H HPlcmt-west ZN NECB System 3 PSZ Occ Sch Friday, !- Friday Schedule:Day Name\n   *************  18031   Sp-PatRoom7_Mult10_Flr_4 Sys-3 Flr-3 Sch-H HPlcmt-west ZN NECB System 3 PSZ Occ Sch Saturday, !- Saturday Schedule:Day Name\n   *************  18032   Sp-PatRoom7_Mult10_Flr_4 Sys-3 Flr-3 Sch-H HPlcmt-west ZN NECB System 3 PSZ Occ Sch Default, !- Holiday Schedule:Day Name\n   *************  18033   Sp-PatRoom7_Mult10_Flr_4 Sys-3 Flr-3 Sch-H HPlcmt-west ZN NECB System 3 PSZ Occ Sch Summer Design Day, !- SummerDesignDay Schedule:Day Name\n   ** Warning ** IP: IDF line~18033 Alpha Argument length exceeds maximum, will be truncated=  Sp-PatRoom7_Mult10_Flr_4 Sys-3 Flr-3 Sch-H HPlcmt-west ZN NECB System 3 PSZ Occ Sch Summer Design Da\n   **   ~~~   ** Will be processed as Alpha=SP-PATROOM7_MULT10_FLR_4 SYS-3 FLR-3 SCH-H HPLCMT-WEST ZN NECB SYSTEM 3 PSZ OCC SCH SUMMER DESIGN DAY\n   ************* IDF Context for following error/warning message:\n   ************* Note -- lines truncated at 300 characters, if necessary...\n   *************  18023 Schedule:Week:Daily,\n   ************* indicated Name=Schedule:Week:Daily {ac16bea2-4bf8-4618-aa9a-362f62d12c01}\n   ************* Only last 10 lines before error line shown.....\n   *************  18025   Sp-PatRoom7_Mult10_Flr_4 Sys-3 Flr-3 Sch-H HPlcmt-west ZN NECB System 3 PSZ Occ Sch Sunday, !- Sunday Schedule:Day Name\n   *************  18026   Sp-PatRoom7_Mult10_Flr_4 Sys-3 Flr-3 Sch-H HPlcmt-west ZN NECB System 3 PSZ Occ Sch Monday, !- Monday Schedule:Day Name\n   *************  18027   Sp-PatRoom7_Mult10_Flr_4 Sys-3 Flr-3 Sch-H HPlcmt-west ZN NECB System 3 PSZ Occ Sch Tuesday, !- Tuesday Schedule:Day Name\n   *************  18028   Sp-PatRoom7_Mult10_Flr_4 Sys-3 Flr-3 Sch-H HPlcmt-west ZN NECB System 3 PSZ Occ Sch Wednesday, !- Wednesday Schedule:Day Name\n   *************  18029   Sp-PatRoom7_Mult10_Flr_4 Sys-3 Flr-3 Sch-H HPlcmt-west ZN NECB System 3 PSZ Occ Sch Thursday, !- Thursday Schedule:Day Name\n   *************  18030   Sp-PatRoom7_Mult10_Flr_4 Sys-3 Flr-3 Sch-H HPlcmt-west ZN NECB System 3 PSZ Occ Sch Friday, !- Friday Schedule:Day Name\n   *************  18031   Sp-PatRoom7_Mult10_Flr_4 Sys-3 Flr-3 Sch-H HPlcmt-west ZN NECB System 3 PSZ Occ Sch Saturday, !- Saturday Schedule:Day Name\n   *************  18032   Sp-PatRoom7_Mult10_Flr_4 Sys-3 Flr-3 Sch-H HPlcmt-west ZN NECB System 3 PSZ Occ Sch Default, !- Holiday Schedule:Day Name\n   *************  18033   Sp-PatRoom7_Mult10_Flr_4 Sys-3 Flr-3 Sch-H HPlcmt-west ZN NECB System 3 PSZ Occ Sch Summer Design Day, !- SummerDesignDay Schedule:Day Name\n   *************  18034   Sp-PatRoom7_Mult10_Flr_4 Sys-3 Flr-3 Sch-H HPlcmt-west ZN NECB System 3 PSZ Occ Sch Winter Design Day, !- WinterDesignDay Schedule:Day Name\n   ** Warning ** IP: IDF line~18034 Alpha Argument length exceeds maximum, will be truncated=  Sp-PatRoom7_Mult10_Flr_4 Sys-3 Flr-3 Sch-H HPlcmt-west ZN NECB System 3 PSZ Occ Sch Winter Design Da\n   **   ~~~   ** Will be processed as Alpha=SP-PATROOM7_MULT10_FLR_4 SYS-3 FLR-3 SCH-H HPLCMT-WEST ZN NECB SYSTEM 3 PSZ OCC SCH WINTER DESIGN DAY\n   ************* IDF Context for following error/warning message:\n   ************* Note -- lines truncated at 300 characters, if necessary...\n   *************  18054 Schedule:Day:Interval,\n   ************* indicated Name=Sp-PatRoom7_Mult10_Flr_4 Sys-3 Flr-3 Sch-H HPlcmt-west ZN NECB System 3 PSZ Occ Sch Summer Design Day\n   ************* Only last 1 lines before error line shown.....\n   *************  18055   Sp-PatRoom7_Mult10_Flr_4 Sys-3 Flr-3 Sch-H HPlcmt-west ZN NECB System 3 PSZ Occ Sch Summer Design Day, !- Name\n   ** Warning ** IP: IDF line~18055 Alpha Argument length exceeds maximum, will be truncated=  Sp-PatRoom7_Mult10_Flr_4 Sys-3 Flr-
[...]
s5V6szyFO2J7PIWyhw/rLfSy2P+WYR7EeytDU+O3SxIxSyO8jVMbrTFxg97e8Ph8fHGmgvPAAc4wAEOcIADHOAABzjAAc5fE0ck2U3+J7DwpDopPHeuiGLpgQY0oAENaEADGtCABjSgAQ1o9DR3xb9m/RfNVZBJ4AAHOMABDnCAAxzgAAc4wAFOHZzH9wY66r2B5xn13sC+U3zDdnS0vb2/D1KQghSkIAUpSEEKUpCCFKQgBSlI3wZpryB1U4q0W5D2+73e3g5IQQpSkIIUpCAFKUhBClKQghSkIH0bpH1FehL7BGlvvyB1nN3dfh+kIAUpSEEKUpCCFKQgBSlIQQpSkL4N0m1F+nWaUaR7Bel+fgzegxSkIAUpSEEKUpCCFKQgBSlIQQrSt0E6UKT/kh5FuluQfvgwHO7ughSkIAUpSEEKUpCCFKQgBSlIQQrSt0G6U3wykUmKdKcgHQ53dkAKUpCCFKQgBSlIQQpSkIIUpCAF6Vsh3VWknyKqsmBvUJDu7fV6gwFIQQpSkIIUpCAFKUhBClKQghSkIG2MdIXixe5dq9TZvZ36aSDPp+5M2qm8T1sbH6MsTsox5n9u+cG/kWHiR2Egk8JDiYutLXHkecIVhSdx56dTkUQ3Unj9kpbJ7cR2ZzMZei1LaVubJQ1Wh+2madyy7q222OkaNprnjXrVGyXpPJALvI4bjqZRnLe3Ajk2oF36GEdh2rmT/mSaKh9XUeBV97EYm/NZ54ubnkXRze7lpyxIne7lSRBfbovzedLpi/z3/Of5aNr5KD5+CUY3Si9Jxe+fxefj4Xt1VSpvRF98Of9dnI5G6tKNTd0Av9tKRrE/S/9BXvNuy/NvXzaTbWhnuS/he4fWSM3+Yd5hrh/K+LLn9CxRdOOh5fnJLHDnB34Y5LbOVRCNvv9k0YC518U9iHQ+y9urnty6dm/dxVltS3XcurGaqeJQeP7NLJB2KO/Obyct64cXINtiu9stfpSGnvLruambO774wwrcKxlYB5Ynx24+sGIWR2M/kFZ7Ybm8tw4cu9u2bt0gk8vfR2qFytvki85weHxsPbQr+ekx+ekz+dlm8jNg8rPD5GeXyc8ek599Jj9Ol8sR14x2uKa0wzWnHa5J7XDNaodrWjtc89rhmtgO18zucc3sHttazTWze1wzu2c0s0WS3dw8e2V1pR0tlp6BG7KPzNyQPWTmhuwfMzdk3Ju5IaPezA0Z82ZuyIg3c0PGu5kbeiMz9MM0j+ltzNAP00ymNzFDP0xzmd7CDP0wzWZ6AzP0wzSf6e3L0A/Xusw0n+m9y9BP9fl854ep+bZ1pU5V90N2j6EfsnsM/ZDdY+iHDHdDP2S4G/ohw93QDxnuhn7IcDf0Q+9fpo64ZjS9g5k64prT9B5m6ohrVtO7mKkjrnlN72OmjrhmNr2TmTpiW6u5Zja9mZk6qj6zH7/DKH3HMLXNdZ/9obd4CTGDRG/9Ev31S2yvX2Kwfomd9Uvsrl9ib/0S++uXeLazr0ujgfjWfDDLp0F/ssWnQX/oxadBf9LLp0F/CMynQX8+zKdBf3TMp0F/qsy3/zUQ570m9vEGNvJeAzt5r95WXvoqx2pp1eJdjwwS9GiwSdCDwSZBjwWbBJ1WsUnQaRWbBJ1WsUnQaRWbBJ1WsUlovrnm06C/+uPToNMqPg06reLToNMqPg06reLToNMqPg06reLToNMqPg06reLb/xqIc81X/HwaDWzkmrSKT6PeVl76xqxqadXilVoMEvRosEnQg8EmQY8FmwSdVrFJ0GkVmwSdVrFJ0GkVmwSdVrFJaNIqPg16ueXToNMqPg06reLToNMqPg06reLToNMqPg06reLToNMqPg06reLb/xqIc01axafRwEauSav4NOpt5aUvJqmWVi3eXMIgQY8GmwQ9GGwS9FiwSdBpFZsEnVaxSdBpFZsEnVaxSdBpFZuEJq3i06CXWz4NOq3i06DTKj4NOq3i06DTKj4NOq3i06DTKj4NOq3i06DTKr79r4E416RVfBoNbOSatIpPo95WXlr/vVpatSgQzyBBjwabBD0YbBL0WLBJ0GkVmwSdVrFJ0GkVmwSdVrFJ0GkVm4QmreLToJdbPg06reLToNMqPg06reLToNMqPg06reLToNMqPg06reLToNMqvv2vgTjXpFV8Gg1s5Jq0ik+j3lZeWma3Wlq1qMPLIEGPBpsEPRhsEvRYsEnQaRWbBJ1WsUnQaRWbBJ1WsUnQaRWbhCat4tOgl1s+DTqt4tOg0yo+DTqt4tOg0yo+DTqt4tOg0yo+DTqt4tOg0yq+/a+BONekVXwaDWzkmrSKT6PeVl5azbBaWrUod8ggQY8GmwQ9GGwS9FiwSdBpFZsEnVaxSdBpFZsEnVaxSdBpFZuEttgalwa93PJp6ApZcWnoalxxaejKX3Fp6Gq+cWnoysFxaegqxXFp6IrIcWno6stx7X8NxLm2Kh2XRgMbuSat4tMo38q/VanwuizkLA5FKO9WFWSLwrGt5HbSLirAlpaKXVWDTmT6PspCL2kNum3hOIO26KvfeoNq5Wbvc4zHIteeN3RTOYni+dG9nyyqKT/ef4WS07mD09iT8VmmihtXbqg45s85Pkk3yWK5wFD1mZf9vuZy3zDDDDPMMMMMM8wwwwwzzDDDDDPMMMMMM8wwwwwzzDDDDDPMMMMMM8wwwwwzzDDDDDPMMMMMM8wwwwwzzDDDDDPMMMMMM8ww/6XMczu6lXHse/KTqx6sdezuK59XVY/GJs8fjT2XsS+T5eO1Vnv1APEsiFI78ENZ+ohs8tJzuuVP1iZ28er5WRS4qR+FOZSVpHLWuZLjKJZWtSeff5UTGXrPb2hxrrXTbYu+enK5qx5kVj+sQI5TBVbieuXWvpzI9DhMVf/kEuMsHBWkrU3xR4mLFaF8bH1R+iy3OvyxaKVTP7GTYlSqCanjSSM7779jdzRt/QfY1NsKXz06nrMv/V7OosRXDj/kp6vczepQbl6giqM7M6QVlh96UsVDx2kbtl4d13Ubjn0ZqPnWWvbpIk4mcZTNpCd+/FH8bXn+3r6cusny+XcVYJtPrfMXrXmH2O5kcqI07ECGk3Qq3ome+KewjoLAEgfPr0gCfyRbHWfzovttszTe/nQnUSxa1/mtdH8S17nMcqouddW5v+crjvkAqUNN46W/i+tv9nc5F4eHh4vOq+ex8Loc9mvTW10dV7F0v9dp/GDYxvR61V/LuztU01pNhuVMKQo52JdukviTUHpDVSIiuSh68lu9rlwN9CxLpq26Y5EP6cFiPOtHUhAcVLlLW11ZVyVJ4+i7rKazuLauUjRzR346rya1vLj2XRUSK6m6XlYLyfNlpU54GC8+6liF8/OFR3SEY+rNJNyqsz60i1210vUPZTmFOra2xJffvop/n/52Js5Pz77+8vln8evpz78Mxcfjs+NqDk7yVVveuypFE2kkkihORZjd5PNgJIqSJolwk1GevPjhpILHVd8rP092ZrctrqovLrFMszgUMzdO5EkQuWnLVUv+Zj6UT85dFecqdWZ5ivZEdnkLZY4f1lvp5TH/LMK9CPbWhifHbhakYhZH+RomN9pi44e9veHw+HhjzYVngAMc4AAHOMABDnCAAxzgAOeviSOS7Cb/E1h4Up0UnjtXRLH0QAMa0IAGNKABDWhAAxrQgAY0epq74l+z/ovmKsgkcIADHOAABzjAAQ5wgAMc4ACnDs7jewMd9d7A84x6b2DfKb5hOzra3t7fBylIQQpSkIIUpCAFKUhBClKQghSkb4O0V5C6KUXaLUj7/V5vbwekIAUpSEEKUpCCFKQgBSlIQQpSkL4N0r4iPYl9grS3X5A6zu5uvw9SkIIUpCAFKUhBClKQghSkIAUpSN8G6bYi/TrNKNK9gnQ/PwbvQQpSkIIUpCAFKUhBClKQghSkIAXp2yAdKNJ/SY8i3S1IP3wYDnd3QQpSkIIUpCAFKUhBClKQghSkIAXp2yDdKT6ZyCRFulOQDoc7OyAFKUhBClKQghSkIAUpSEEKUpCC9K2Q7irSTxFVWbA3KEj39nq9wQCkIAUpSEEKUpCCFKQgBSlIQQpSkDZGukLxYveuVers3k79NJDnU3cm7VTep62Nj1EWJ+UY8z+3/ODfyDDxozCQSeGhxMXWljjyPOGKwpO489OpSKIbKbx+ScvkdmK7s5kMvZaltK3Nkgarw3bTNG5Z91Zb7HQNG83zRr3qjZJ0HsgFXscNR9MozttbgRwb0C59jKMw7dxJfzJNlY+rKPCq+1iMzfms82U6T75OZezO5pcnQXzZF+fzpNMX+e+dnjgfTTtD8fFLMLpJO6MoluL3z+Lz8fC9uiqVN6Ivvpz/Lk5HI3XpxqZucN9tJaPYn6X/IK95t+X5ty+byTa0s9yX8L1Da6Rm/jDvLNcPZXzZc/qWKLrw0PL8ZBa48wM/DHJb5yqIRt9/smjA3OviHkQ6n+XtVS9uXbu37uKstqU6bt1YzVJxKDz/ZhZIO5R357eTlvXDC5Btsd3tFj9Kw0759dzUzR1f/GEF7pUMrAPLk2M3C1Ixi6OxH0irvbBc3lsHjt1tW7dukMnl7yO1OuVt8gVnODw+th7alfz0mPz0mfxsM/kZMPnZYfKzy+Rnj8nPPpMfp8vliGtGO1xT2uGa0w7XpHa4ZrXDNa0drnntcE1sh2tm97hmdo9treaa2T2umd0zmtkiyW5unr2uutKOFkvPwA3ZR2ZuyB4yc0P2j5kbMu7N3JBRb+aGjHkzN2TEm7kh493MDb2RGfphmsf0Nmboh2km05uYoR+muUxvYYZ+mGYzvYEZ+mGaz/T2ZeiHa11mms/03mXop/p8vvPD1HzbulKnqvshu8fQD9k9hn7I7jH0Q4a7oR8y3A39kOFu6IcMd0M/ZLgb+qH3L1NHXDOa3sFMHXHNaXoPM3XENavpXczUEde8pvcxU0dcM5veyUwdsa3VXDOb3sxMHVWf2Y/fX5S+X7ja542LFxAzSNB/3bJJ0H/3sknQfxGzSdCfArFJ0J8PsUnQnxyxSdCfKbFJ0J82sUloPmLl02ggvjUfzPJpNBDhmo9z+TQaiHHNh8B8Gg1EueajYz6NBuJc84Ezn0YT+3gDca75BJtPo16cl77GsVpatXjPI4MEPRpsEvRgsEnQY8EmQS+5bBL0issmQS+4bBL0essmQS+3bBKatIpPo4H41qRVfBoNRLgmreLTaCDGNWkVn0YDUa5Jq/g0GohzTVrFp9HEPt5AnGvSKj6NenFe+rasamnV4nVaDBL0aLBJ0IPBJkGPBZsEveSySdArLpsEveCySdDrLZsEvdyySWjSKj6NBuJbk1bxaTQQ4Zq0ik+jgRjXpFV8Gg1EuSat4tNoIM41aRWfRhP7eANxrkmr+DTqxXnpS0mqpVWLt5YwSNCjwSZBDwabBD0WbBL0kssmQa+4bBL0gssmQa+3bBL0cssmoUmr+DQaiG9NWsWn0UCEa9IqPo0GYlyTVvFpNBDlmrSKT6OBONekVXwaTezjDcS5Jq3i06gX56W136ulVYvi8AwS9GiwSdCDwSZBjwWbBL3ksknQKy6bBL3gsknQ6y2bBL3csklo0io+jQbiW5NW8Wk0EOGatIpPo4EY16RVfBoNRLkmreLTaCDONWkVn0YT+3gDca5Jq/g06sV5aYndamnVogYvgwQ9GmwS9GCwSdBjwSZBL7lsEvSKyyZBL7hsEvR6yyZBL7dsEpq0ik+jgfjWpFV8Gg1EuCat4tNoIMY1aRWfRgNRrkmr+DQaiHNNWsWn0cQ+3kCca9IqPo16cV5aybBaWrUodcggoatzwyShq4DDJKGrjcMkoasHxSShqxTFJKGrIcUkoasuxSShqzvFJKEttsal0UB8a0u0cWk0EOHawm5cGg3EuLYcHJdGA1GuLSLHpdFAnGtLz3FpNLGPNxDn2lp2XBrlcf6tSoXXZRFncShCebeqIFsUjm0lt5N2UQG2tFTsqhJ0ItP3URZ6SWvQbQvHGbRFX/3WG1QrN3ufYzwWuPa8oZvKSRTPj+79ZFFJ+fH+K5Sbzh2cxp6MzzJV2LhyQ8Uxf87xSbpJFssFhqrNvOz3NZf6hhlmmGGGGWaYYYYZZphhhhlmmGGGGWaYYYYZZphhhhlmmGGGGWaYYYYZZphhhhlmmGGGGWaYYYYZZphhhhlmmGGGGWaYYYb5L2We29GtjGPfk59c9WCtY3df+byqejQ2ef5o7LmMfZksH6+12qsHiGdBlNqBH8rSR2STl57TLX+yNrGLV8/PosBN/SjMoawklbPOlRxHsbSqPfn8q5zI0Ht+Q4tzrZ1uW/TVk8td9SCz+mEFcpwqsBLXK7f25USmx2Gq+ieXGGfhqCBtbYo/SlysCOVj64vSZ7nV4Y9FK536iZ0Uo1JNSB1PGtl5/x27o2nrP8Cm3lb46tHxnH3p93IWJb5y+CE/XeVuVody8wJVHN2ZIa2w/NCTKh46Ttuw9eq4rttw7MtAzbfWsk8XcTKJo2wmPfHjj+Jvy/P39uXUTZbPv6sA23xqnb9ozTvEdieTE6VhBzKcpFPxTvTEP4V1FASWOHh+RRL4I9nqOJsX3W+bpfH2pzuJYtG6zm+l+5O4zmWWU3Wpq879PV9xzAdIHWoaL/1dXH+zv8u5ODw8XHRePY+F1+WwX5ve6uq4iqX7vU7jB8M2pter/lre3aGa1moyLGdKUcjBvnSTxJ+E0huqEhHJRdGT3+p15WqgZ1kybdUdi3xIDxbjWT+SguCgyl3a6sq6KkkaR99lNZ3FtXWVopk78tN5NanlxbXvqpBYSdX1slpIni8rdcLDePFRxyqcny88oiMcU28m4Vad9aFd7KqVrn8oyynUsbUlvvz2Vfz79LczcX569vWXzz+LX09//mUoPh6fHVdzcJKv2vLeVSmaSCORRHEqwuwmnwcjUZQ0SYSbjPLkxQ8nFTyu+l75ebIzu21xVX1xiWWaxaGYuXEiT4LITVuuWvI386F8cu6qOFepM8tTtCeyy1soc/yw3kovj/lnEe5FsLc2PDl2syAVszjK1zC50RYbP+ztDYfHxxtrLjwDHOAABzjAAQ5wgAMc4AAHOH9NHJFkN/mfwMKT6qTw3LkiiqUHGtCABjSgAQ1oQAMa0IAGNKDR09wV/5r1XzRXQSaBAxzgAAc4wAEOcIADHOAABzh1cB7fG+io9waeZ9R7A/tO8Q3b0dH29v4+SEEKUpCCFKQgBSlIQQpSkIIUpCB9G6S9gtRNKdJuQdrv93p7OyAFKUhBClKQghSkIAUpSEEKUpCC9G2Q9hXpSewTpL39gtRxdnf7fZCCFKQgBSlIQQpSkIIUpCAFKUhB+jZItxXp12lGke4VpPv5MXgPUpCCFKQgBSlIQQpSkIIUpCAFKUjfBulAkf5LehTpbkH64cNwuLsLUpCCFKQgBSlIQQpSkIIUpCAFKUjfBulO8clEJinSnYJ0ONzZASlIQQpSkIIUpCAFKUhBClKQghSkb4V0V5F+iqjKgr1BQbq31+sNBiAFKUhBClKQghSkIAUpSEEKUpCCtDHSFYoXu3etUmf3duqngTyfujNpp/I+bW18jLI4KceY/7nlB/9GhokfhYFMCg8lLra2xJHnCVcUnsSdn05FEt1I4fVLWia3E9udzWTotSylbW2WNFgdtpumccu6t9pip2vYaJ436lVvlKTzQC7wOm44mkZx3t4K5NiAduljHIVp5076k2mqfFxFgVfdx2JszmedM9fz85k5mV+eBPHltjifJ52+yH/Pf56Ppp2P4uOXYHSTdkZRLMXvn8Xn4+F7dVUqb0RffDn/XZyORurSjU3d0L7bSkaxP0v/QV7zbsvzb182k21oZ7kv4XuH1kjN+2HeVa4fyviy52xboujAQ8vzk1ngzg/8MMhtnasgGn3/yaIBc6+LexDpfJa3V324de3euouz2pbquHVjNUfFofD8m1kg7VDend9OWtYPL0C2xXa3W/woDTrl13NTN3d88YcVuFcysA4sT47dLEjFLI7GfiCt9sJyeW8dOHa3bd26QSatg8HA7u8/OfqDtjVSS1XuIl99hsPjY+uhXcltbz1u++txu70et4P1uN1Zj9vd9bjdW4/b/fW4dbpr8rumOHPWFGjOmiLNWVOoOWuKNWdNweasKdqcNYWbs6Z4660p3nrr2tfWFG+9NcVb7zXxJpLs5ubZS8HrZA6x9Ay8Vu1fM69Ve9fMa9W+NfNadSUz81p1HTPzWnUVM/NadQ0z81p1BTPzWjlhMHS7nuiqnC4Yul1PfFVOFgzdrifCKqcKhm7XE2OVEwVDt+uJssppgqHbNe1h64myyjmCodvaUXbnh+mr04MrdUV1t1W71tBt1a41dFu1aw3dVl3ADN1WXcAM3VZdwAzdVl3ADN1WXcAM3VbOE0z9rinOKmcKpn7XFGmVcwVTv2uKtcrZgqnfNUVb5XzB1O+a4q1yxmDqd1372prirXLSYOrXLN6+VfniYvnNpDgUobxbfTFSfB/SSm4n7eKLjdJvQFZfbyYyfR9loZe0Bt22cJxBW/TVb71BtW9R7nOMx29tPW/opnISxfOjez9ZfD342BcVvkPNHZzGnozPMvVtXeWGimP+nOOTdJMslgsM9YXjcgxe+61w8YXUc6lzGfsyWeLmSssBmQVRaqtvyUolk5fuu5w0sYuJN4sCN/WjMIeyklTOOldyHMXSqjaTfpUTGXrPb2hxrrWTz4K+mgnqSzVH/Vh+6Vr6ffTKrX05kelxmKr+ySXGWTgqSFub4o8K37oqQvnY+qI0NtThj0UrnfpJPq9Vu2pC6njSyM7779gdTVv/ATb1tsJffse49Hs5ixJfOfyQn65yN6tDuXmBKo7uzJBWWH7oSRW4Hadt2Hp1XNdtOPZloOZba9mniziZxFE2k5748Ufxt+X5e/ty6ibL9UQF2OZT6/xFa94htjuZnCgNO5DhJJ2Kd6In/imsoyCwxMHzK5LAH8lWx9m86H7bLI23P91JFIvWdX4r3Z/EdS6znKpLXXXu74fCMR8gdahpvPR3cf3N/i7z5e3wcNF59TwWXpfDfm16q6vjKpbu9zqNHwzbmF6v+mt5d4dqWqvJsJwpxcZoXy7+o0h6xf8UJRdFT36r15WrgZ5lybRVdyzyIT1YjGf9SAqCgyp3aasr66okaRx9l9V0FtfWVYpm7shP59WklhfXvqtCYiVV18tqIXm+rNQJD+PFRx2rcH6+8IiOcEy9mYRbddaHdrGrVrr+oSynUMfWlvjy21fx79PfzsT56dnXXz7/LH49/fmXofh4fHZczcFJvmrLe1elaCKNRBLliXSY3eTzYCSKFDERbjLKkxc/nFTwuOp75efJzuy2xVX1xSWWaRaHYubGiTwJIjdtuWrJ38yH8sm5q+Jcpc4sT9GeyC5voczxw//Cf37+1ze2y3/vVF/A/q/8IypwgAMc4AAHOMABDnCAAxzgvHmcP//niyKKpQca0IAGNKABDWhAAxrQgAY0oNHT/Ol/AhWN+hc/4AAHOMABDnCAAxzgAAc4wAHO/2K9xa/yZiZjN81iKVonm6i4+P9WxcVsNgvm4siPhRqoN1IzcfAWaiYOUDPRuLQBaiaau0XNRNRMNC9tgJqJ9fyiZiJqJqJmImomomYiaia+5BY1E1EzETUTjdME1Ew0d4uaiaiZiJqJpmkCaibW84uaiaiZiJqJqJn4whcXqJn4AgdqJqJmokDNxGpYqJmImol1DtRMVAdqJqJmYnGgZqL+StRMLHegDtRMfBulRYADHOAABzjAAQ5wgAMc4ADnzeP8P1ZxBDSgAQ1oQAMa0IAGNKABDWjeDs3/N5VOgAMc4AAHOMABDnCAAxzgAKe+HmomvnygZuKiZqJw3kjVxJ23UDVxp7GqicXvdcszMfnpM/nZZvIzYPKzw+Rnl8nPHpOffSY/z6oKvMoR14x2uKa0wzWnHa5J7XDNaodrWjtc89rhmtgO18zucc3sHttazTWze1wzu2c0s6tX83vmqn75vle4IXuofoG+V7gh475+Cb5XuCFjvn6RvVe4IeP9FWX0XuOHaR7T29grKuO9xg/TVKb3sFcUu3uNH6bZTG9gr6hf95p1kGk+07vXK0rSvcYP03ymt676VeaeuXlFWbnX+CG75xWF417jhwz3V5SGe40fMtxfUfztNX7IcH9NebdXOeKa0fQO9pqKba9yxDWp6U3sNUXYXuWIa17T+9hr6qq9amXkmtn0VvaaUmmvcsQ1s+nd7E+OvsR+FPvpXDiiI1rnWbip6lDtdP6PG3a6Tqf4/YMcdfoOtc11n/2hd3S0vb2/zyDRW79Ef/0S2+uXGKxfYmf9Ervrl9hbv8T++iWe7ezr0mggvp0GAtxpIMKdBkLcaSDGnQaC3Gkgyp0GwtxpIM57DcR5r4l9vIE47zUQ5716cd4rNNyU0uhWS6v6/V5vb4dBgh4NNgl6MNgk6LFgk6CXXDYJesVlk6AXXDYJer1lk6CXWzYJTVrFp9FAfGvSKj6NBiJck1bxaTQQ45q0ik+jgSjXpFV8Gg3EuSat4tNoYh9vIM41aRWfRr047yuNk9gnNHr71dIqx9nd7fcZJOjRYJOgB4NNgh4LNgl6yWWToFdcNgl6wWWToNdbNgn6f6PYJDT/EMinQf9HFZ8G/c9WfBr0/2HxadD/osWnQf9fIp8G/S+LfBr0fzPyadD/6Min0UCca9IqPo0m9vEGNnJNWsWnUW8r31YaX6cZpbFXLa1S71wavGeQoEeDTYIeDDYJeizYJOi0ik2CTqvYJOi0ik2CTqvYJOjllk1Ck1bxadBpFZ8GnVbxadBpFZ8GnVbxadBpFZ8GnVbxadBpFZ8GnVbxaTQQ55q0ik+jiX28gY1ck1bxadTbygdK41/SozR2q6VVHz4Mh7u7DBL0aLBJ0IPBJkGPBZsEnVaxSdBpFZsEnVaxSdBpFZsEvdyySWjSKj4NOq3i06DTKj4NOq3i06DTKj4NOq3i06DTKj4NOq3i06DTKj6NBuJck1bxaTSxjzewkWvSKj6Nelv5TpG6ZZLS2KmWVg2HOzssEvRosEnQg8EmQY8FmwSdVrFJ0GkVmwSdVrFJ0GkVmwS93LJJaNIqPg06reLToNMqPg06reLToNMqPg06reLToNMqPg06reLToNMqPo0G4lyTVvFpNLGPN7CRa9IqPo16W/mu0vgUUf8W3xtUS6v29nq9wYBBgh4NNgl6MNgk6LFgk6DTKjYJOq1ik6DTKjYJOq1ik9DVnWKS0BZb49LQVavi0tAVsuLS0NW44tLQlb/i0tDVfOPS0JWD49LQVYrj0tAVkePSaCDONWkVn0YT+3gDG7kmreLTKN/Kv1Wp8LosxCwORSjvVhVki8KxreR20i4qwJaWil1Vc05k+j7KQi9pDbpt4TiDtuir33qDauVm73OMx0rUnjd0UzmJ4vnRvZ8saiE/3n+FktG5g9PYk/FZpkoTV26oOObPOT5JN8liucBQ1ZWX/b7mmtwwwwwzzDDDDDPMMMMMM8wwwwwzzDDDDDPMMMMMM8wwwwwzzDDDDDPMMMMMM8wwwwwzzDDDDDPMMMMMM8wwwwwzzDDDDDPMMP+lzHM7upVx7Hvyk6serHXs7iufV1WPxibPH409l7Evk+XjtVZ79QDxLIhSO/BDWfqIbPLSc7rlT9YmdvHq+VkUuKkfhTmUlaRy1rmS4yiWVrUnn3+VExl6z29oca61022LvnpyuaseZFY/rECOUwVW4nrl1r6cyPQ4TFX/5BLjLBwVpK1N8UeJixWhfGx9Ufostzr8sWilUz+xk2JUqgmp40kjO++/Y3c0bf0H2NTbCl89Op6zL/1ezqLEVw4/5Ker3M3qUG5eoIqjOzOkFZYfelLFQ8dpG7ZeHdd1G459Gaj51lr26SJOJnGUzaQnfvxR/G15/t6+nLrJ8vl3FWCbT63zF615h9juZHKiNOxAhpN0Kt6JnvinsI6CwBIHz69IAn8kWx1n86L7bbM03v50J1EsWtf5rXR/Ete5zHKqLnXVub/nK475AKlDTeOlv4vrb/Z3OReHh4eLzqvnsfC6HPZr01tdHVexdL/Xafxg2Mb0etVfy7s7VNNaTYblTCkKOdiXbpL4k1B6Q1UiIrkoevJbva5cDfQsS6atumORD+nBYjzrR1IQHFS5S1tdWVclSePou6yms7i2rlI0c0d+Oq8mtby49l0VEiupul5WC8nzZaVOeBgvPupYhfPzhUd0hGPqzSTcqrM+tItdtdL1D2U5hTq2tsSX376Kf5/+dibOT8++/vL5Z/Hr6c+/DMXH47Pjag5O8lVb3rsqRRNpJJIoTkWY3eTzYCSKkiaJcJNRnrz44aSCx1XfKz9Pdma3La6qLy6xTLM4FDM3TuRJELlpy1VL/mY+lE/OXRXnKnVmeYr2RHZ5C2WOH9Zb6eUx/yzCvQj21oYnx24WpGIWR/kaJjfaYuOHvb3h8Ph4Y82FZ4ADHOAABzjAAQ5wgAMc4ADnr4kjkuwm/xNYeFKdFJ47V0Sx9EADGtCABjSgAQ1oQAMa0IAGNHqau+Jfs/6L5irIJHCAAxzgAAc4wAEOcIADHOAApw7O43sDHfXewPOMem9g3ym+YTs62t7e3wcpSEEKUpCCFKQgBSlIQQpSkIIUpG+DtFeQuilF2i1I+/1eb28HpCAFKUhBClKQghSkIAUpSEEKUpC+DdK+Ij2JfYK0t1+QOs7ubr8PUpCCFKQgBSlIQQpSkIIUpCAFKUjfBum2Iv06zSjSvYJ0Pz8G70EKUpCCFKQgBSlIQQpSkIIUpCAF6dsgHSjSf0mPIt0tSD98GA53d0EKUpCCFKQgBSlIQQpSkIIUpCAF6dsg3Sk+mcgkRbpTkA6HOzsgBSlIQQpSkIIUpCAFKUhBClKQgvStkO4q0k8RVVmwNyhI9/Z6vcEApCAFKUhBClKQghSkIAUpSEEKUpA2RrpC8WL3rlXq7N5O/TSQ51N3Ju1U3qetjY9RFiflGPM/t/zg38gw8aMwkEnhocTF1pY48jzhisKTuPPTqUiiGym8fknL5HZiu7OZDL2WpbStzZIGq8N20zRuWfdWW+x0DRvN80a96o2SdB7IBV7HDUfTKM7bW4EcG9AufYyjMO3cSX8yTZWPqyjwqvtYjM3/HP3PooPP5FS6qXDE6WgkzkfTjU3dML3bSkaxP0v/QV7zbsvzb182k21oZ7kv4XuH1kjN4WF+264fyviy5+xaouiMQ8vzk1ngzg/8MMhtnasgGn3/yaIBc6+LexDpfJa3V/2xde3euouz2pbquHVjNd/EofD8m1kg7VDend9OWtYPL0C2xXa3W/woDSDl13NTN3d88YcVuFcysA4sT47dLEjFLI7GfiCt9sJyeW8dOHa3bd26QSaXv4/UOpO3yZeO4fD42HpoV/LTY/LTZ/KzzeRnwORnh8nPLpOfPSY/+0x+nC6XI64Z7XBNaYdrTjtck9rhmtUO17R2uOa1wzWxHa6Z3eOa2T22tZprZve4ZnbPaGaLJLu5efbi6Uo7Wiw9AzdkH5m5IXvIzA3ZP2ZuyLg3c0NGvZkbMubN3JARb+aGjHczN/RGZuiHaR7T25ihH6aZTG9ihn6Y5jK9hRn6YZrN9AZm6IdpPtPbl6EfrnWZaT7Te5ehn+rz+c4PU/Nt60qdqu6H7B5DP2T3GPohu8fQDxnuhn7IcDf0Q4a7oR8y3A39kOFu6Ifev0wdcc1oegczdcQ1p+k9zNQR16ymdzFTR1zzmt7HTB1xzWx6JzN1xLZWc81sejMzdVR9Zj9+E1H6pmBqm+s++0Nv8SphBone+iX665fYXr/EYP0SO+uX2F2/xN76JfbXL/FsZ1+XRgPx7TQQ4E4DEe40EOJOAzHuNBDkTgNR7jQQ5k4Dcd5rIM57TezjDcR5r4E479WL89IXMlZLqxZvbGSQoEeDTYIeDDYJeizYJOgll02CXnHZJOgFl02CXm/ZJOjllk1Ck1bxaTQQ35q0ik+jgQjXpFV8Gg3EuCat4tNoIMo1aRWfRgNxrkmr+DSa2McbiHNNWsWnUS/OS997VS2tWrwYi0GCHg02CXow2CTosWCToJdcNgl6xWWToBdcNgl6vWWToP83ik1C8w+BfBr0f1TxadD/bMWnQf8fFp8G/S9afBr0/yXyadD/ssinQf83I58G/Y+OfBoNxLnm3yP5NBqIc80/VfJpNLCTa9IqnUbp60WqpVWL948wSNBpFZsEPRhsEvRYsEnQaRWbBJ1WsUnQaRWbBJ1WsUnQyy2bhCat4tOgl1s+DXq55dOg0yo+DTqt4tOg0yo+DTqt4tOg0yo+DTqt4tNoIM41aRWfRgNxrkmr+DQa2Mk1aZVOo7SKe7W0alHmnUGCTqvYJOjBYJOgx4JNgk6r2CTotIpNgk6r2CTotIpNgl5u2SQ0aRWfBr3c8mnQyy2fBp1W8WnQaRWfBp1W8WnQaRWfBp1W8WnQaRWfRgNxrkmr+DQaiHNNWsWn0cBOrkmrdBqlxXKrpVWLaroMEnRaxSZBDwabBD0WbBJ0WsUmQadVbBJ0WsUmQadVbBL0cssmoUmr+DTo5ZZPg15u+TTotIpPg06r+DTotIpPg06r+DTotIpPg06r+DQaiHNNWsWn0UCca9IqPo0GdnJNWqXTKK1JWC2tWhQtZJCg0yo2CXow2CTosWCToNMqNgk6rWKToNMqNgk6rWKT0NWdYpLQFlvj0qCXWz4NXSErLg1djSsuDV35Ky4NXc03Lg1dOTguDV2lOC4NXRE5Lo0G4lxbeo5Lo4E41xas49JoYCfXpFUrjW9VKrwuyzGLQxHKu1UF2aJwbCu5nbSLCrClpWJXNZ0Tmb6PstBLWoNuWzjOoC366rfeoFq52fsc47FUtecN3VROonh+dO8ni5rIj/dfoXB07uA09mR8lqkSxZUbKo75c45P0k2yWC4wVJXlZb+vuWg3zDDDDDPMMMMMM8wwwwwzzDDDDDPMMMMMM8wwwwwzzDDDDDPMMMMMM8wwwwwzzDDDDDPMMMMMM8wwwwwzzDDDDDPMMMMMM8x/KfPcjm5lHPue/OSqB2sdu/vK51XVo7HJ80djz2Xsy2T5eK3VXj1APAui1A78UJY+Ipu89Jxu+ZO1iV28en4WBW7qR2EOZSWpnHWu5DiKpVXtyedf5USG3vMbWpxr7XTboq+eXO6qB5nVDyuQ41SBlbheubUvJzI9DlPVP7nEOAtHBWlrU/xR4mJFKB9bX5Q+y60Ofyxa6dRP7KQYlWpC6njSyM7779gdTVv/ATb1tsJXj47n7Eu/l7Mo8ZXDD/npKnezOpSbF6ji6M4MaYXlh55U8dBx2oatV8d13YZjXwZqvrWWfbqIk0kcZTPpiR9/FH9bnr+3L6dusnz+XQXY5lPr/EVr3iG2O5mcKA07kOEknYp3oif+KayjILDEwfMrksAfyVbH2bzoftssjbc/3UkUi9Z1fivdn8R1LrOcqktdde7v+YpjPkDqUNN46e/i+pv9Xc7F4eHhovPqeSy8Lof92vRWV8dVLN3vdRo/GLYxvV711/LuDtW0VpNhOVOKQg72pZsk/iSU3lCViEguip78Vq8rVwM9y5Jpq+5Y5EN6sBjP+pEUBAdV7tJWV9ZVSdI4+i6r6SyurasUzdyRn86rSS0vrn1XhcRKqq6X1ULyfFmpEx7Gi486VuH8fOERHeGYejMJt+qsD+1iV610/UNZTqGOrS3x5bev4t+nv52J89Ozr798/ln8evrzL0Px8fjsuJqDk3zVlveuStFEGokkilMRZjf5PBiJoqRJItxklCcvfjip4HHV98rPk53ZbYur6otLLNMsDsXMjRN5EkRu2nLVkr+ZD+WTc1fFuUqdWZ6iPZFd3kKZ44f1Vnp5zD+LcC+CvbXhybGbBamYxVG+hsmNttj4YW9vODw+3lhz4RngAAc4wAEOcIADHOAABzjA+WviiCS7yf8EFp5UJ4XnzhVRLD3QgAY0oAENaEADGtCABjSgAY2e5q7416z/orkKMgkc4AAHOMABDnCAAxzgAAc4wKmD8/jeQEe9N/A8o94b2HeKb9iOjra39/dBClKQghSkIAUpSEEKUpCCFKQgBenbIO0VpG5KkXYL0n6/19vbASlIQQpSkIIUpCAFKUhBClKQghSkb4O0r0hPYp8g7e0XpI6zu9vvgxSkIAUpSEEKUpCCFKQgBSlIQQrSt0G6rUi/TjOKdK8g3c+PwXuQghSkIAUpSEEKUpCCFKQgBSlIQfo2SAeK9F/So0h3C9IPH4bD3V2QghSkIAUpSEEKUpCCFKQgBSlIQfo2SHeKTyYySZHuFKTD4c4OSEEKUpCCFKQgBSlIQQpSkIIUpCB9K6S7ivRTRFUW7A0K0r29Xm8wAClIQQpSkIIUpCAFKUhBClKQghSkjZGuULzYvWuVOru3Uz8N5PnUnUk7lfdpa+NjlMVJOcb8zy0/+DcyTPwoDGRSeChxsbUljjxPuKLwJO78dCqS6EYKr1/SMrmd2O5sJkOvZSlta7Okweqw3TSNW9a91RY7XcNG87xRr3qjJJ0HcoHXccPRNIrz9lYgxwa0Sx/jKEw7d9KfTFPl4yoKvOo+FmPzP0f/s+jgMzmVbipORyNxPppubOoG6d1WMor9WfoP8pp3W55/+7KZbEM7y30J3zu0RmoGD/Obdv1Qxpc9Z88SRVccWp6fzAJ3fuCHQW7rXAXR6PtPFg2Ye13cg0jns7y96o2ta/fWXZzVtlTHrRur2SYOheffzAJph/Lu/HbSsn54AbIttrvd4kdp+Ci/npu6ueOLP6zAvZKBdWB5cuxmQSpmcTT2A2m1F5bLe+vAsbtt69YNMmkd7Ozb+0+Ovf22NVJrTu4hX0aGw+Nj66FdyWtvLV77a/G6vRavg7V43VmL1921eN1bi9f9tXh1uutxu57octYTXs564stZT4A564kwZz0h5qwnxpz1BJmznijrrSfKemvaw9YTZb31RFnvFVEmkuzm5tlrvGtkCLH0DJxW7FszpxV71sxpxX41c1px7TJzWnHlMnNacd0yc1px1TJzWnHNMnNaNTEw9LqWmKqaFhh6XUtUVU0KDL2uJa6qpgSGXtcSWVUTAkOva4mtqumAodf17Fdria2quYCh17qxdeeH6WvTgCt1QXWvFbvV0GvFbjX0WrFbDb1WXLIMvVZcsgy9VlyyDL1WXLIMvVZcsgy9Vs0HTN2uJ7qqZgSmbtcTX1VzAlO364mwqlmBqdv1xFjVvMDU7XqirGpmYOp2TXvYeqKsanJg6tYoyr5V+cJh+d2gOBShvFt9oVF8j9FKbift4guJ0m8uVl8wJjJ9H2Whl7QG3bZwnEFb9NVvvUG1bz/uc4zH7009b+imchLF86N7P1l8QffYFRW+xcwdnMaejM8y9X1Z5YaKY/6c45N0kyyWCwz1ld9yCF77vWzxRdJzqXMZ+zJZ4uZKywGZBVFqq2+3SiWTl+67nDSxi3k3iwI39aMwh7KSVM46V3IcxdKqNpN+lRMZes9vaHGutZPPgr6aCerLMEf9WH7tWfqN8MqtfTmR6XGYqv7JJcZZOPq/7ZxfT9swFMXf9yk8HlCq0UC6Pww2NqGtBaRtTAw0TRVCaeu2adOkStKNaup3X5wmXVvwmvhalGrHL4Hc5Phn59qOiDkJqVFiv3N89xSEfHZ3feXYEMVpMyPqOmGc1+K+fBWJMneTGfdf1W52jb/ARdUy/PTbYKp7M/RDRwh+jE/naU1WhMw9VIH/qxhShuV4LS4GbtnaKXh3VnqqN7Yd7op8M9I+nY6TTuCPhrzFtrfZ0/T8rXnTtcN0PhEDrDQfHd8bjTvEtDudmqjDdLnXibrsLauw92zr2HW32OHiFaHrNLlRtkr1vevSyvF2pyV+wIxe3JS9N6wXV5OmalqvOPfsiFnFH5AoIo1TvXrv2uzzeHo7Opp2nppiopo+9l7RpmalEXC7r3LzpOA9Ra8X/ZW27kiktUiGNFOShdG8me7p4a1kV09YT3ryWq0rswc9HIVdQ/VZxI/0cPo81UeS6x7maaUprlStJYwCv8/z1TO9VrUmf2g3nWicr6r0YuVWJVVkVamqZBPJ4rSiMjwKTz6iZMN5ceJhZWYVVSsy3PKzTnaSVTXX9ZNV7xSi7O6yr1eX7Mf51QX7dn5xefblhH06Pzn7wE6rF9V8ArV41ua3tnhFY5HPQj9+kfZGgzgPmix5RQyZHTbjlxfH6+RQzPpe6MytzPYOa+SfXAIejQKPDe0g5DXXtyPDFlN+KX6Uc+cayblcnbn6FW2u2rQJq4Qna9h7ufQBNt1gKT6ormUrKHCAAxzgAAc4wAEOcIADHOBsPM7dDS6CKOAt0IAGNKABDWhAAxrQgAY0oAHNv2nubAkUNGKLH3CAAxzgAAc4wAEOcIADHOAAZ42Oh5d8MOSBHY0CzoxaCZ6Hj8rz8LstMu6UJ4fjQcPhXsTEIxPOh7w1ivu/zPb3ahtigniwCSaIBw9mgpj866mqCZMmneeadF5o0nmpSeeVJp19TTqvNekcaNJZcBcgCenKaEtXSlu6ctrSldSWrqy2dKW1pSuvLV2JbenK7IquzK5om6t1ZXZFV2ZXCmV2ftO+BSl1mz6CjLSH1K34CDLSca9ut0eQkY55dUs9gox0vBNs8yg6mvJYvowRzPAoOppSWb6GESzuKDqaslm+gBGM6yjzoKZ8lq9eBDs6io6mfJYvXeomcwsyBFs5io60ewjWcRQd6XAn2MNRdKTDnWABR9GRDneKzRtJSFdGy1cwinkbSUhXUssXMYolG0lIV17L1zGK0RppZtSV2fKljGKfRhLSldny1QymaBthioYwwggjjDDCCCOMMMIII4wwwggjjPBjCo9N/ycPAqfFP9viD1WWuQdT/LmWwBR/VmCKX6jAFB+m+AUKTPGXC0zxlwtM8QsWmOLDFP/eAlN84AAHOMABDnCAAxzgAAc4wAHOJlhKggY0oAENaEADGtCABjSgAc3m0Pw3VpbAAQ5wgAMc4AAHOMABDnCAo17fGkzxPzoD7oWO77k8DGGJ/7gs8f2gz6rtttN0uNccz4zwH9YCP716KTL/e/bz9DhTT3+YHRp+ayyO3WjgvnvyBycMJig="
               },
               {
                  "name" : "annual_peak_electric_demand",
                  "units" : "kW",
                  "value" : 1759.2301399999999
               },
               {
                  "name" : "first_year_capital_cost",
                  "units" : "$",
                  "value" : 0
               },
               {
                  "name" : "annual_utility_cost",
                  "units" : "$",
                  "value" : 0
               },
               {
                  "name" : "total_lifecycle_cost",
                  "units" : "$",
                  "value" : 0
               }
            ],
            "step_warnings" : [ "A table in Annual Overview section returned false and was skipped." ]
         }
      }
   ],
   "updated_at" : "20170710T192103Z",
   "weather_file" : "USA_CO_Denver.Intl.AP.725650_TMY3.epw"
}
