{
   "completed_at" : "20170710T192055Z",
   "completed_status" : "Success",
   "created_at" : "2017-07-10 18:57:29 +0000",
   "current_step" : 5,
   "description" : "",
   "eplusout_err" : "Program Version,EnergyPlus, Version 8.7.0-78a111df4a, YMD=2017.07.10 19:06,IDD_Version 8.7.0\n   ************* IDF Context for following error/warning message:\n   ************* Note -- lines truncated at 300 characters, if necessary...\n   *************   5098 Schedule:Week:Daily,\n   ************* indicated Name=Schedule:Week:Daily {056235ec-795a-4756-8290-5a81ce07fff7}\n   ************* Only last 10 lines before error line shown.....\n   *************   5099   Schedule:Week:Daily {056235ec-795a-4756-8290-5a81ce07fff7}, !- Name\n   *************   5100   Sp-ER_Exam1_Mult4_Flr_1 Sys-3 Flr-1 Sch-H HPlcmt-south ZN NECB System 3 PSZ Occ Sch Sunday, !- Sunday Schedule:Day Name\n   *************   5101   Sp-ER_Exam1_Mult4_Flr_1 Sys-3 Flr-1 Sch-H HPlcmt-south ZN NECB System 3 PSZ Occ Sch Monday, !- Monday Schedule:Day Name\n   *************   5102   Sp-ER_Exam1_Mult4_Flr_1 Sys-3 Flr-1 Sch-H HPlcmt-south ZN NECB System 3 PSZ Occ Sch Tuesday, !- Tuesday Schedule:Day Name\n   *************   5103   Sp-ER_Exam1_Mult4_Flr_1 Sys-3 Flr-1 Sch-H HPlcmt-south ZN NECB System 3 PSZ Occ Sch Wednesday, !- Wednesday Schedule:Day Name\n   *************   5104   Sp-ER_Exam1_Mult4_Flr_1 Sys-3 Flr-1 Sch-H HPlcmt-south ZN NECB System 3 PSZ Occ Sch Thursday, !- Thursday Schedule:Day Name\n   *************   5105   Sp-ER_Exam1_Mult4_Flr_1 Sys-3 Flr-1 Sch-H HPlcmt-south ZN NECB System 3 PSZ Occ Sch Friday, !- Friday Schedule:Day Name\n   *************   5106   Sp-ER_Exam1_Mult4_Flr_1 Sys-3 Flr-1 Sch-H HPlcmt-south ZN NECB System 3 PSZ Occ Sch Saturday, !- Saturday Schedule:Day Name\n   *************   5107   Sp-ER_Exam1_Mult4_Flr_1 Sys-3 Flr-1 Sch-H HPlcmt-south ZN NECB System 3 PSZ Occ Sch Default, !- Holiday Schedule:Day Name\n   *************   5108   Sp-ER_Exam1_Mult4_Flr_1 Sys-3 Flr-1 Sch-H HPlcmt-south ZN NECB System 3 PSZ Occ Sch Summer Design Day, !- SummerDesignDay Schedule:Day Name\n   ** Warning ** IP: IDF line~5108 Alpha Argument length exceeds maximum, will be truncated=  Sp-ER_Exam1_Mult4_Flr_1 Sys-3 Flr-1 Sch-H HPlcmt-south ZN NECB System 3 PSZ Occ Sch Summer Design Da\n   **   ~~~   ** Will be processed as Alpha=SP-ER_EXAM1_MULT4_FLR_1 SYS-3 FLR-1 SCH-H HPLCMT-SOUTH ZN NECB SYSTEM 3 PSZ OCC SCH SUMMER DESIGN DAY\n   ************* IDF Context for following error/warning message:\n   ************* Note -- lines truncated at 300 characters, if necessary...\n   *************   5098 Schedule:Week:Daily,\n   ************* indicated Name=Schedule:Week:Daily {056235ec-795a-4756-8290-5a81ce07fff7}\n   ************* Only last 10 lines before error line shown.....\n   *************   5100   Sp-ER_Exam1_Mult4_Flr_1 Sys-3 Flr-1 Sch-H HPlcmt-south ZN NECB System 3 PSZ Occ Sch Sunday, !- Sunday Schedule:Day Name\n   *************   5101   Sp-ER_Exam1_Mult4_Flr_1 Sys-3 Flr-1 Sch-H HPlcmt-south ZN NECB System 3 PSZ Occ Sch Monday, !- Monday Schedule:Day Name\n   *************   5102   Sp-ER_Exam1_Mult4_Flr_1 Sys-3 Flr-1 Sch-H HPlcmt-south ZN NECB System 3 PSZ Occ Sch Tuesday, !- Tuesday Schedule:Day Name\n   *************   5103   Sp-ER_Exam1_Mult4_Flr_1 Sys-3 Flr-1 Sch-H HPlcmt-south ZN NECB System 3 PSZ Occ Sch Wednesday, !- Wednesday Schedule:Day Name\n   *************   5104   Sp-ER_Exam1_Mult4_Flr_1 Sys-3 Flr-1 Sch-H HPlcmt-south ZN NECB System 3 PSZ Occ Sch Thursday, !- Thursday Schedule:Day Name\n   *************   5105   Sp-ER_Exam1_Mult4_Flr_1 Sys-3 Flr-1 Sch-H HPlcmt-south ZN NECB System 3 PSZ Occ Sch Friday, !- Friday Schedule:Day Name\n   *************   5106   Sp-ER_Exam1_Mult4_Flr_1 Sys-3 Flr-1 Sch-H HPlcmt-south ZN NECB System 3 PSZ Occ Sch Saturday, !- Saturday Schedule:Day Name\n   *************   5107   Sp-ER_Exam1_Mult4_Flr_1 Sys-3 Flr-1 Sch-H HPlcmt-south ZN NECB System 3 PSZ Occ Sch Default, !- Holiday Schedule:Day Name\n   *************   5108   Sp-ER_Exam1_Mult4_Flr_1 Sys-3 Flr-1 Sch-H HPlcmt-south ZN NECB System 3 PSZ Occ Sch Summer Design Day, !- SummerDesignDay Schedule:Day Name\n   *************   5109   Sp-ER_Exam1_Mult4_Flr_1 Sys-3 Flr-1 Sch-H HPlcmt-south ZN NECB System 3 PSZ Occ Sch Winter Design Day, !- WinterDesignDay Schedule:Day Name\n   ** Warning ** IP: IDF line~5109 Alpha Argument length exceeds maximum, will be truncated=  Sp-ER_Exam1_Mult4_Flr_1 Sys-3 Flr-1 Sch-H HPlcmt-south ZN NECB System 3 PSZ Occ Sch Winter Design Da\n   **   ~~~   ** Will be processed as Alpha=SP-ER_EXAM1_MULT4_FLR_1 SYS-3 FLR-1 SCH-H HPLCMT-SOUTH ZN NECB SYSTEM 3 PSZ OCC SCH WINTER DESIGN DAY\n   ************* IDF Context for following error/warning message:\n   ************* Note -- lines truncated at 300 characters, if necessary...\n   *************   5129 Schedule:Day:Interval,\n   ************* indicated Name=Sp-ER_Exam1_Mult4_Flr_1 Sys-3 Flr-1 Sch-H HPlcmt-south ZN NECB System 3 PSZ Occ Sch Summer Design Day\n   ************* Only last 1 lines before error line shown.....\n   *************   5130   Sp-ER_Exam1_Mult4_Flr_1 Sys-3 Flr-1 Sch-H HPlcmt-south ZN NECB System 3 PSZ Occ Sch Summer Design Day, !- Name\n   ** Warning ** IP: IDF line~5130 Alpha Argument length exceeds maximum, will be truncated=  Sp-ER_Exam1_Mult4_Flr_1 Sys-3 Flr-1 Sch-H HPlcmt-south ZN NECB System 3 PSZ Occ Sch Summer Design Da\n   **   ~~~   ** Will be processed as Alpha=SP-ER_EXAM1_MULT4_FLR_1 SYS-3 FLR-1 SCH-H HPLCMT-SOUTH ZN NECB SYSTEM 3 PSZ OCC SCH SUMMER DESIGN DAY\n   ************* IDF Context for following error/warning message:\n   ************* Note -- lines truncated at 300 characters, if necessary...\n   *************   5136 Schedule:Day:Interval,\n   ************* indicated Name=Sp-ER_Exam1_Mult4_Flr_1 Sys-3 Flr-1 Sch-H HPlcmt-south ZN NECB System 3 PSZ Occ Sch Winter Design Day\n   ************* Only last 1 lines before error line shown.....\n   *************   5137   Sp-ER_Exam1_Mult4_Flr_1 Sys-3 Flr-1 Sch-H HPlcmt-south ZN NECB System 3 PSZ Occ Sch Winter Design Day, !- Name\n   ** Warning ** IP: IDF line~5137 Alpha Argument length exceeds maximum, will be truncated=  Sp-ER_Exam1_Mult4_Flr_1 Sys-3 Flr-1 Sch-H HPlcmt-south ZN NECB System 3 PSZ Occ Sch Winter Design Da\n   **   ~~~   ** Will be processed as Alpha=SP-ER_EXAM1_MULT4_FLR_1 SYS-3 FLR-1 SCH-H HPLCMT-SOUTH ZN NECB SYSTEM 3 PSZ OCC SCH WINTER DESIGN DAY\n   ************* IDF Context for following error/warning message:\n   ************* Note -- lines truncated at 300 characters, if necessary...\n   *************   5892 Schedule:Week:Daily,\n   ************* indicated Name=Schedule:Week:Daily {a26178db-625a-4740-b52b-dc51e9857eda}\n   ************* Only last 10 lines before error line shown.....\n   *************   5893   Schedule:Week:Daily {a26178db-625a-4740-b52b-dc51e9857eda}, !- Name\n   *************   5894   Sp-ER_NurseStn_Lobby_Flr_1 Sys-3 Flr-1 Sch-H HPlcmt-east ZN NECB System 3 PSZ Occ Sch Sunday, !- Sunday Schedule:Day Name\n   *************   5895   Sp-ER_NurseStn_Lobby_Flr_1 Sys-3 Flr-1 Sch-H HPlcmt-east ZN NECB System 3 PSZ Occ Sch Monday, !- Monday Schedule:Day Name\n   *************   5896   Sp-ER_NurseStn_Lobby_Flr_1 Sys-3 Flr-1 Sch-H HPlcmt-east ZN NECB System 3 PSZ Occ Sch Tuesday, !- Tuesday Schedule:Day Name\n   *************   5897   Sp-ER_NurseStn_Lobby_Flr_1 Sys-3 Flr-1 Sch-H HPlcmt-east ZN NECB System 3 PSZ Occ Sch Wednesday, !- Wednesday Schedule:Day Name\n   *************   5898   Sp-ER_NurseStn_Lobby_Flr_1 Sys-3 Flr-1 Sch-H HPlcmt-east ZN NECB System 3 PSZ Occ Sch Thursday, !- Thursday Schedule:Day Name\n   *************   5899   Sp-ER_NurseStn_Lobby_Flr_1 Sys-3 Flr-1 Sch-H HPlcmt-east ZN NECB System 3 PSZ Occ Sch Friday, !- Friday Schedule:Day Name\n   *************   5900   Sp-ER_NurseStn_Lobby_Flr_1 Sys-3 Flr-1 Sch-H HPlcmt-east ZN NECB System 3 PSZ Occ Sch Saturday, !- Saturday Schedule:Day Name\n   *************   5901   Sp-ER_NurseStn_Lobby_Flr_1 Sys-3 Flr-1 Sch-H HPlcmt-east ZN NECB System 3 PSZ Occ Sch Default, !- Holiday Schedule:Day Name\n   *************   5902   Sp-ER_NurseStn_Lobby_Flr_1 Sys-3 Flr-1 Sch-H HPlcmt-east ZN NECB System 3 PSZ Occ Sch Summer Design Day, !- SummerDesignDay Schedule:Day Name\n   ** Warning ** IP: IDF line~5902 Alpha Argument length exceeds maximum, will be truncated=  Sp-ER_NurseStn_Lobby_Flr_1 Sys-3 Flr-1 Sch-H HPlcmt-east ZN NECB System 3 PSZ Occ Sch Summer Design Da\n   **   ~~~   ** Will be processed as Alpha=SP-ER_NURSESTN_LOBBY_FLR_1 SYS-3 FLR-1 SCH-H HPLCMT-EAST ZN NECB SYSTEM 3 PSZ OCC SCH SUMMER DESIGN DAY\n   ************* IDF Context for following error/warning message:\n   ************* Note -- lines truncated at 300 characters, if necessary...\n   *************   5892 Schedule:Week:Daily,\n   ************* indicated Name=Schedule:Week:Daily {a26178db-625a-4740-b52b-dc51e9857eda}\n   ************* Only last 10 lines before error line shown.....\n   *************   5894   Sp-ER_NurseStn_Lobby_Flr_1 Sys-3 Flr-1 Sch-H HPlcmt-east ZN NECB System 3 PSZ Occ Sch Sunday, !- Sunday Schedule:Day Name\n   *************   5895   Sp-ER_NurseStn_Lobby_Flr_1 Sys-3 Flr-1 Sch-H HPlcmt-east ZN NECB System 3 PSZ Occ Sch Monday, !- Monday Schedule:Day Name\n   *************   5896   Sp-ER_NurseStn_Lobby_Flr_1 Sys-3 Flr-1 Sch-H HPlcmt-east ZN NECB System 3 PSZ Occ Sch Tuesday, !- Tuesday Schedule:Day Name\n   *************   5897   Sp-ER_NurseStn_Lobby_Flr_1 Sys-3 Flr-1 Sch-H HPlcmt-east ZN NECB System 3 PSZ Occ Sch Wednesday, !- Wednesday Schedule:Day Name\n   *************   5898   Sp-ER_NurseStn_Lobby_Flr_1 Sys-3 Flr-1 Sch-H HPlcmt-east ZN NECB System 3 PSZ Occ Sch Thursday, !- Thursday Schedule:Day Name\n   *************   5899   Sp-ER_NurseStn_Lobby_Flr_1 Sys-3 Flr-1 Sch-H HPlcmt-east ZN NECB System 3 PSZ Occ Sch Friday, !- Friday Schedule:Day Name\n   *************   5900   Sp-ER_NurseStn_Lobby_Flr_1 Sys-3 Flr-1 Sch-H HPlcmt-east ZN NECB System 3 PSZ Occ Sch Saturday, !- Saturday Schedule:Day Name\n   *************   5901   Sp-ER_NurseStn_Lobby_Flr_1 Sys-3 Flr-1 Sch-H HPlcmt-east ZN NECB System 3 PSZ Occ Sch Default, !- Holiday Schedule:Day Name\n   *************   5902   Sp-ER_NurseStn_Lobby_Flr_1 Sys-3 Flr-1 Sch-H HPlcmt-east ZN NECB System 3 PSZ Occ Sch Summer Design Day, !- SummerDesignDay Schedule:Day Name\n   *************   5903   Sp-ER_NurseStn_Lobby_Flr_1 Sys-3 Flr-1 Sch-H HPlcmt-east ZN NECB System 3 PSZ Occ Sch Winter Design Day, !- WinterDesignDay Schedule:Day Name\n   ** Warning ** IP: IDF line~5903 Alpha Argument length exceeds maximum, will be truncated=  Sp-ER_NurseStn_Lobby_Flr_1 Sys-3 Flr-1 Sch-H HPlcmt-east ZN NECB System 3 PSZ Occ Sch Winter Design Da\n   **   ~~~   ** Will be processed as Alpha=SP-ER_NURSESTN_LOBBY_FLR_1 SYS-3 FLR-1 SCH-H HPLCMT-EAST ZN NECB SYSTEM 3 PSZ OCC SCH WINTER DESIGN DAY\n   ************* IDF Context for following error/warning message:\n   ************* Note -- lines truncated at 300 characters, if necessary...\n   *************   5923 Schedule:Day:Interval,\n   ************* indicated Name=Sp-ER_NurseStn_Lobby_Flr_1 Sys-3 Flr-1 Sch-H HPlcmt-east ZN NECB System 3 PSZ Occ Sch Summer Design Day\n   ************* Only last 1 lines before error line shown.....\n   *************   5924   Sp-ER_NurseStn_Lobby_Flr_1 Sys-3 Flr-1 Sch-H HPlcmt-east ZN NECB System 3 PSZ Occ Sch Summer Design Day, !- Name\n   ** Warning ** IP: IDF line~5924 Alpha Argument length exceeds maximum, will be truncated=  Sp-ER_NurseStn_Lobby_Flr_1 Sys-3 Flr-1 Sch-H HPlcmt-east ZN NECB System 3 PSZ Occ Sch Summer Design Da\n   **   ~~~   ** Will be processed as Alpha=SP-ER_NURSESTN_LOBBY_FLR_1 SYS-3 FLR-1 SCH-H HPLCMT-EAST ZN NECB SYSTEM 3 PSZ OCC SCH SUMMER DESIGN DAY\n   ************* IDF Context for following error/warning message:\n   ************* Note -- lines truncated at 300 characters, if necessary...\n   *************   5930 Schedule:Day:Interval,\n   ************* indicated Name=Sp-ER_NurseStn_Lobby_Flr_1 Sys-3 Flr-1 Sch-H HPlcmt-east ZN NECB System 3 PSZ Occ Sch Winter Design Day\n   ************* Only last 1 lines before error line shown.....\n   *************   5931   Sp-ER_NurseStn_Lobby_Flr_1 Sys-3 Flr-1 Sch-H HPlcmt-east ZN NECB System 3 PSZ Occ Sch Winter Design Day, !- Name\n   ** Warning ** IP: IDF line~5931 Alpha Argument length exceeds maximum, will be truncated=  Sp-ER_NurseStn_Lobby_Flr_1 Sys-3 Flr-1 Sch-H HPlcmt-east ZN NECB System 3 PSZ Occ Sch Winter Design Da\n   **   ~~~   ** Will be processed as Alpha=SP-ER_NURSESTN_LOBBY_FLR_1 SYS-3 FLR-1 SCH-H HPLCMT-EAST ZN NECB SYSTEM 3 PSZ OCC SCH WINTER DESIGN DAY\n   ************* IDF Context for following error/warning message:\n   ************* Note -- lines truncated at 300 characters, if necessary...\n   *************   6693 Schedule:Week:Daily,\n   ************* indicated Name=Schedule:Week:Daily {d6974372-8ab0-4e79-8197-a1e70c53d434}\n   ************* Only last 10 lines before error line shown.....\n   *************   6694   Schedule:Week:Daily {d6974372-8ab0-4e79-8197-a1e70c53d434}, !- Name\n   *************   6695   Sp-ER_Triage_Mult4_Flr_1 Sys-3 Flr-1 Sch-H HPlcmt-north ZN NECB System 3 PSZ Occ Sch Sunday, !- Sunday Schedule:Day Name\n   *************   6696   Sp-ER_Triage_Mult4_Flr_1 Sys-3 Flr-1 Sch-H HPlcmt-north ZN NECB System 3 PSZ Occ Sch Monday, !- Monday Schedule:Day Name\n   *************   6697   Sp-ER_Triage_Mult4_Flr_1 Sys-3 Flr-1 Sch-H HPlcmt-north ZN NECB System 3 PSZ Occ Sch Tuesday, !- Tuesday Schedule:Day Name\n   *************   6698   Sp-ER_Triage_Mult4_Flr_1 Sys-3 Flr-1 Sch-H HPlcmt-north ZN NECB System 3 PSZ Occ Sch Wednesday, !- Wednesday Schedule:Day Name\n   *************   6699   Sp-ER_Triage_Mult4_Flr_1 Sys-3 Flr-1 Sch-H HPlcmt-north ZN NECB System 3 PSZ Occ Sch Thursday, !- Thursday Schedule:Day Name\n   *************   6700   Sp-ER_Triage_Mult4_Flr_1 Sys-3 Flr-1 Sch-H HPlcmt-north ZN NECB System 3 PSZ Occ Sch Friday, !- Friday Schedule:Day Name\n   *************   6701   Sp-ER_Triage_Mult4_Flr_1 Sys-3 Flr-1 Sch-H HPlcmt-north ZN NECB System 3 PSZ Occ Sch Saturday, !- Saturday Schedule:Day Name\n   *************   6702   Sp-ER_Triage_Mult4_Flr_1 Sys-3 Flr-1 Sch-H HPlcmt-north ZN NECB System 3 PSZ Occ Sch Default, !- Holiday Schedule:Day Name\n   *************   6703   Sp-ER_Triage_Mult4_Flr_1 Sys-3 Flr-1 Sch-H HPlcmt-north ZN NECB System 3 PSZ Occ Sch Summer Design Day, !- SummerDesignDay Schedule:Day Name\n   ** Warning ** IP: IDF line~6703 Alpha Argument length exceeds maximum, will be truncated=  Sp-ER_Triage_Mult4_Flr_1 Sys-3 Flr-1 Sch-H HPlcmt-north ZN NECB System 3 PSZ Occ Sch Summer Design Da\n   **   ~~~   ** Will be processed as Alpha=SP-ER_TRIAGE_MULT4_FLR_1 SYS-3 FLR-1 SCH-H HPLCMT-NORTH ZN NECB SYSTEM 3 PSZ OCC SCH SUMMER DESIGN DAY\n   ************* IDF Context for following error/warning message:\n   ************* Note -- lines truncated at 300 characters, if necessary...\n   *************   6693 Schedule:Week:Daily,\n   ************* indicated Name=Schedule:Week:Daily {d6974372-8ab0-4e79-8197-a1e70c53d434}\n   ************* Only last 10 lines before error line shown.....\n   *************   6695   Sp-ER_Triage_Mult4_Flr_1 Sys-3 Flr-1 Sch-H HPlcmt-north ZN NECB System 3 PSZ Occ Sch Sunday, !- Sunday Schedule:Day Name\n   *************   6696   Sp-ER_Triage_Mult4_Flr_1 Sys-3 Flr-1 Sch-H HPlcmt-north ZN NECB System 3 PSZ Occ Sch Monday, !- Monday Schedule:Day Name\n   *************   6697   Sp-ER_Triage_Mult4_Flr_1 Sys-3 Flr-1 Sch-H HPlcmt-north ZN NECB System 3 PSZ Occ Sch Tuesday, !- Tuesday Schedule:Day Name\n   *************   6698   Sp-ER_Triage_Mult4_Flr_1 Sys-3 Flr-1 Sch-H HPlcmt-north ZN NECB System 3 PSZ Occ Sch Wednesday, !- Wednesday Schedule:Day Name\n   *************   6699   Sp-ER_Triage_Mult4_Flr_1 Sys-3 Flr-1 Sch-H HPlcmt-north ZN NECB System 3 PSZ Occ Sch Thursday, !- Thursday Schedule:Day Name\n   *************   6700   Sp-ER_Triage_Mult4_Flr_1 Sys-3 Flr-1 Sch-H HPlcmt-north ZN NECB System 3 PSZ Occ Sch Friday, !- Friday Schedule:Day Name\n   *************   6701   Sp-ER_Triage_Mult4_Flr_1 Sys-3 Flr-1 Sch-H HPlcmt-north ZN NECB System 3 PSZ Occ Sch Saturday, !- Saturday Schedule:Day Name\n   *************   6702   Sp-ER_Triage_Mult4_Flr_1 Sys-3 Flr-1 Sch-H HPlcmt-north ZN NECB System 3 PSZ Occ Sch Default, !- Holiday Schedule:Day Name\n   *************   6703   Sp-ER_Triage_Mult4_Flr_1 Sys-3 Flr-1 Sch-H HPlcmt-north ZN NECB System 3 PSZ Occ Sch Summer Design Day, !- SummerDesignDay Schedule:Day Name\n   *************   6704   Sp-ER_Triage_Mult4_Flr_1 Sys-3 Flr-1 Sch-H HPlcmt-north ZN NECB System 3 PSZ Occ Sch Winter Design Day, !- WinterDesignDay Schedule:Day Name\n   ** Warning ** IP: IDF line~6704 Alpha Argument length exceeds maximum, will be truncated=  Sp-ER_Triage_Mult4_Flr_1 Sys-3 Flr-1 Sch-H HPlcmt-north ZN NECB System 3 PSZ Occ Sch Winter Design Da\n   **   ~~~   ** Will be processed as Alpha=SP-ER_TRIAGE_MULT4_FLR_1 SYS-3 FLR-1 SCH-H HPLCMT-NORTH ZN NECB SYSTEM 3 PSZ OCC SCH WINTER DESIGN DAY\n   ************* IDF Context for following error/warning message:\n   ************* Note -- lines truncated at 300 characters, if necessary...\n   *************   6724 Schedule:Day:Interval,\n   ************* indicated Name=Sp-ER_Triage_Mult4_Flr_1 Sys-3 Flr-1 Sch-H HPlcmt-north ZN NECB System 3 PSZ Occ Sch Summer Design Day\n   ************* Only last 1 lines before error line shown.....\n   *************   6725   Sp-ER_Triage_Mult4_Flr_1 Sys-3 Flr-1 Sch-H HPlcmt-north ZN NECB System 3 PSZ Occ Sch Summer Design Day, !- Name\n   ** Warning ** IP: IDF line~6725 Alpha Argument length exceeds maximum, will be truncated=  Sp-ER_Triage_Mult4_Flr_1 Sys-3 Flr-1 Sch-H HPlcmt-north ZN NECB System 3 PSZ Occ Sch Summer Design Da\n   **   ~~~   ** Will be processed as Alpha=SP-ER_TRIAGE_MULT4_FLR_1 SYS-3 FLR-1 SCH-H HPLCMT-NORTH ZN NECB SYSTEM 3 PSZ OCC SCH SUMMER DESIGN DAY\n   ************* IDF Context for following error/warning message:\n   ************* Note -- lines truncated at 300 characters, if necessary...\n   *************   6731 Schedule:Day:Interval,\n   ************* indicated Name=Sp-ER_Triage_Mult4_Flr_1 Sys-3 Flr-1 Sch-H HPlcmt-north ZN NECB System 3 PSZ Occ Sch Winter Design Day\n   ************* Only last 1 lines before error line shown.....\n   *************   6732   Sp-ER_Triage_Mult4_Flr_1 Sys-3 Flr-1 Sch-H HPlcmt-north ZN NECB System 3 PSZ Occ Sch Winter Design Day, !- Name\n   ** Warning ** IP: IDF line~6732 Alpha Argument length exceeds maximum, will be truncated=  Sp-ER_Triage_Mult4_Flr_1 Sys-3 Flr-1 Sch-H HPlcmt-north ZN NECB System 3 PSZ Occ Sch Winter Design Da\n   **   ~~~   ** Will be processed as Alpha=SP-ER_TRIAGE_MULT4_FLR_1 SYS-3 FLR-1 SCH-H HPLCMT-NORTH ZN NECB SYSTEM 3 PSZ OCC SCH WINTER DESIGN DAY\n   ************* IDF Context for following error/warning message:\n   ************* Note -- lines truncated at 300 characters, if necessary...\n   *************   7423 Schedule:Week:Daily,\n   ************* indicated Name=Schedule:Week:Daily {fe1b620b-027f-49e8-8492-ae52197edab5}\n   ************* Only last 10 lines before error line shown.....\n   *************   7424   Schedule:Week:Daily {fe1b620b-027f-49e8-8492-ae52197edab5}, !- Name\n   *************   7425   Sp-ICU_NurseStn_Lobby_Flr_2 Sys-3 Flr-4 Sch-H HPlcmt-core ZN NECB System 3 PSZ Occ Sch Sunday, !- Sunday Schedule:Day Name\n   *************   7426   Sp-ICU_NurseStn_Lobby_Flr_2 Sys-3 Flr-4 Sch-H HPlcmt-core ZN NECB System 3 PSZ Occ Sch Monday, !- Monday Schedule:Day Name\n   *************   7427   Sp-ICU_NurseStn_Lobby_Flr_2 Sys-3 Flr-4 Sch-H HPlcmt-core ZN NECB System 3 PSZ Occ Sch Tuesday, !- Tuesday Schedule:Day Name\n   *************   7428   Sp-ICU_NurseStn_Lobby_Flr_2 Sys-3 Flr-4 Sch-H HPlcmt-core ZN NECB System 3 PSZ Occ Sch Wednesday, !- Wednesday Schedule:Day Name\n   *************   7429   Sp-ICU_NurseStn_Lobby_Flr_2 Sys-3 Flr-4 Sch-H HPlcmt-core ZN NECB System 3 PSZ Occ Sch Thursday, !- Thursday Schedule:Day Name\n   *************   7430   Sp-ICU_NurseStn_Lobby_Flr_2 Sys-3 Flr-4 Sch-H HPlcmt-core ZN NECB System 3 PSZ Occ Sch Friday, !- Friday Schedule:Day Name\n   *************   7431   Sp-ICU_NurseStn_Lobby_Flr_2 Sys-3 Flr-4 Sch-H HPlcmt-core ZN NECB System 3 PSZ Occ Sch Saturday, !- Saturday Schedule:Day Name\n   *************   7432   Sp-ICU_NurseStn_Lobby_Flr_2 Sys-3 Flr-4 Sch-H HPlcmt-core ZN NECB System 3 PSZ Occ Sch Default, !- Holiday Schedule:Day Name\n   *************   7433   Sp-ICU_NurseStn_Lobby_Flr_2 Sys-3 Flr-4 Sch-H HPlcmt-core ZN NECB System 3 PSZ Occ Sch Summer Design Day, !- SummerDesignDay Schedule:Day Name\n   ** Warning ** IP: IDF line~7433 Alpha Argument length exceeds maximum, will be truncated=  Sp-ICU_NurseStn_Lobby_Flr_2 Sys-3 Flr-4 Sch-H HPlcmt-core ZN NECB System 3 PSZ Occ Sch Summer Design Da\n   **   ~~~   ** Will be processed as Alpha=SP-ICU_NURSESTN_LOBBY_FLR_2 SYS-3 FLR-4 SCH-H HPLCMT-CORE ZN NECB SYSTEM 3 PSZ OCC SCH SUMMER DESIGN DAY\n   ************* IDF Context for following error/warning message:\n   ************* Note -- lines truncated at 300 characters, if necessary...\n   *************   7423 Schedule:Week:Daily,\n   ************* indicated Name=Schedule:Week:Daily {fe1b620b-027f-49e8-8492-ae52197edab5}\n   ************* Only last 10 lines before error line shown.....\n   *************   7425   Sp-ICU_NurseStn_Lobby_Flr_2 Sys-3 Flr-4 Sch-H HPlcmt-core ZN NECB System 3 PSZ Occ Sch Sunday, !- Sunday Schedule:Day Name\n   *************   7426   Sp-ICU_NurseStn_Lobby_Flr_2 Sys-3 Flr-4 Sch-H HPlcmt-core ZN NECB System 3 PSZ Occ Sch Monday, !- Monday Schedule:Day Name\n   *************   7427   Sp-ICU_NurseStn_Lobby_Flr_2 Sys-3 Flr-4 Sch-H HPlcmt-core ZN NECB System 3 PSZ Occ Sch Tuesday, !- Tuesday Schedule:Day Name\n   *************   7428   Sp-ICU_NurseStn_Lobby_Flr_2 Sys-3 Flr-4 Sch-H HPlcmt-core ZN NECB System 3 PSZ Occ Sch Wednesday, !- Wednesday Schedule:Day Name\n   *************   7429   Sp-ICU_NurseStn_Lobby_Flr_2 Sys-3 Flr-4 Sch-H HPlcmt-core ZN NECB System 3 PSZ Occ Sch Thursday, !- Thursday Schedule:Day Name\n   *************   7430   Sp-ICU_NurseStn_Lobby_Flr_2 Sys-3 Flr-4 Sch-H HPlcmt-core ZN NECB System 3 PSZ Occ Sch Friday, !- Friday Schedule:Day Name\n   *************   7431   Sp-ICU_NurseStn_Lobby_Flr_2 Sys-3 Flr-4 Sch-H HPlcmt-core ZN NECB System 3 PSZ Occ Sch Saturday, !- Saturday Schedule:Day Name\n   *************   7432   Sp-ICU_NurseStn_Lobby_Flr_2 Sys-3 Flr-4 Sch-H HPlcmt-core ZN NECB System 3 PSZ Occ Sch Default, !- Holiday Schedule:Day Name\n   *************   7433   Sp-ICU_NurseStn_Lobby_Flr_2 Sys-3 Flr-4 Sch-H HPlcmt-core ZN NECB System 3 PSZ Occ Sch Summer Design Day, !- SummerDesignDay Schedule:Day Name\n   *************   7434   Sp-ICU_NurseStn_Lobby_Flr_2 Sys-3 Flr-4 Sch-H HPlcmt-core ZN NECB System 3 PSZ Occ Sch Winter Design Day, !- WinterDesignDay Schedule:Day Name\n   ** Warning ** IP: IDF line~7434 Alpha Argument length exceeds maximum, will be truncated=  Sp-ICU_NurseStn_Lobby_Flr_2 Sys-3 Flr-4 Sch-H HPlcmt-core ZN NECB System 3 PSZ Occ Sch Winter Design Da\n   **   ~~~   ** Will be processed as Alpha=SP-ICU_NURSESTN_LOBBY_FLR_2 SYS-3 FLR-4 SCH-H HPLCMT-CORE ZN NECB SYSTEM 3 PSZ OCC SCH WINTER DESIGN DAY\n   ************* IDF Context for following error/warning message:\n   ************* Note -- lines truncated at 300 characters, if necessary...\n   *************   7454 Schedule:Day:Interval,\n   ************* indicated Name=Sp-ICU_NurseStn_Lobby_Flr_2 Sys-3 Flr-4 Sch-H HPlcmt-core ZN NECB System 3 PSZ Occ Sch Summer Design Day\n   ************* Only last 1 lines before error line shown.....\n   *************   7455   Sp-ICU_NurseStn_Lobby_Flr_2 Sys-3 Flr-4 Sch-H HPlcmt-core ZN NECB System 3 PSZ Occ Sch Summer Design Day, !- Name\n   ** Warning ** IP: IDF line~7455 Alpha Argument length exceeds maximum, will be truncated=  Sp-ICU_NurseStn_Lobby_Flr_2 Sys-3 Flr-4 Sch-H HPlcmt-core ZN NECB System 3 PSZ Occ Sch Summer Design Da\n   **   ~~~   ** Will be processed as Alpha=SP-ICU_NURSESTN_LOBBY_FLR_2 SYS-3 FLR-4 SCH-H HPLCMT-CORE ZN NECB SYSTEM 3 PSZ OCC SCH SUMMER DESIGN DAY\n   ************* IDF Context for following error/warning message:\n   ************* Note -- lines truncated at 300 characters, if necessary...\n   *************   7461 Schedule:Day:Interval,\n   ************* indicated Name=Sp-ICU_NurseStn_Lobby_Flr_2 Sys-3 Flr-4 Sch-H HPlcmt-core ZN NECB System 3 PSZ Occ Sch Winter Design Day\n   ************* Only last 1 lines before error line shown.....\n   *************   7462   Sp-ICU_NurseStn_Lobby_Flr_2 Sys-3 Flr-4 Sch-H HPlcmt-core ZN NECB System 3 PSZ Occ Sch Winter Design Day, !- Name\n   ** Warning ** IP: IDF line~7462 Alpha Argument length exceeds maximum, will be truncated=  Sp-ICU_NurseStn_Lobby_Flr_2 Sys-3 Flr-4 Sch-H HPlcmt-core ZN NECB System 3 PSZ Occ Sch Winter Design Da\n   **   ~~~   ** Will be processed as Alpha=SP-ICU_NURSESTN_LOBBY_FLR_2 SYS-3 FLR-4 SCH-H HPLCMT-CORE ZN NECB SYSTEM 3 PSZ OCC SCH WINTER DESIGN DAY\n   ************* IDF Context for following error/warning message:\n   ************* Note -- lines truncated at 300 characters, if necessary...\n   *************   8272 Schedule:Week:Daily,\n   ************* indicated Name=Schedule:Week:Daily {b26fc908-490a-4a17-aedd-6490019779f4}\n   ************* Only last 10 lines before error line shown.....\n   *************   8273   Schedule:Week:Daily {b26fc908-490a-4a17-aedd-6490019779f4}, !- Name\n   *************   8274   Sp-IC_PatRoom3_Mult6_Flr_2 Sys-3 Flr-4 Sch-H HPlcmt-west ZN NECB System 3 PSZ Occ Sch Sunday, !- Sunday Schedule:Day Name\n   *************   8275   Sp-IC_PatRoom3_Mult6_Flr_2 Sys-3 Flr-4 Sch-H HPlcmt-west ZN NECB System 3 PSZ Occ Sch Monday, !- Monday Schedule:Day Name\n   *************   8276   Sp-IC_PatRoom3_Mult6_Flr_2 Sys-3 Flr-4 Sch-H HPlcmt-west ZN NECB System 3 PSZ Occ Sch Tuesday, !- Tuesday Schedule:Day Name\n   *************   8277   Sp-IC_PatRoom3_Mult6_Flr_2 Sys-3 Flr-4 Sch-H HPlcmt-west ZN NECB System 3 PSZ Occ Sch Wednesday, !- Wednesday Schedule:Day Name\n   *************   8278   Sp-IC_PatRoom3_Mult6_Flr_2 Sys-3 Flr-4 Sch-H HPlcmt-west ZN NECB System 3 PSZ Occ Sch Thursday, !- Thursday Schedule:Day Name\n   *************   8279   Sp-IC_PatRoom3_Mult6_Flr_2 Sys-3 Flr-4 Sch-H HPlcmt-west ZN NECB System 3 PSZ Occ Sch Friday, !- Friday Schedule:Day Name\n   *************   8280   Sp-IC_PatRoom3_Mult6_Flr_2 Sys-3 Flr-4 Sch-H HPlcmt-west ZN NECB System 3 PSZ Occ Sch Saturday, !- Saturday Schedule:Day Name\n   *************   8281   Sp-IC_PatRoom3_Mult6_Flr_2 Sys-3 Flr-4 Sch-H HPlcmt-west ZN NECB System 3 PSZ Occ Sch Default, !- Holiday Schedule:Day Name\n   *************   8282   Sp-IC_PatRoom3_Mult6_Flr_2 Sys-3 Flr-4 Sch-H HPlcmt-west ZN NECB System 3 PSZ Occ Sch Summer Design Day, !- SummerDesignDay Schedule:Day Name\n   ** Warning ** IP: IDF line~8282 Alpha Argument length exceeds maximum, will be truncated=  Sp-IC_PatRoom3_Mult6_Flr_2 Sys-3 Flr-4 Sch-H HPlcmt-west ZN NECB System 3 PSZ Occ Sch Summer Design Da\n   **   ~~~   ** Will be processed as Alpha=SP-IC_PATROOM3_MULT6_FLR_2 SYS-3 FLR-4 SCH-H HPLCMT-WEST ZN NECB SYSTEM 3 PSZ OCC SCH SUMMER DESIGN DAY\n   ************* IDF Context for following error/warning message:\n   ************* Note -- lines truncated at 300 characters, if necessary...\n   *************   8272 Schedule:Week:Daily,\n   ************* indicated Name=Schedule:Week:Daily {b26fc908-490a-4a17-aedd-6490019779f4}\n   ************* Only last 10 lines before error line shown.....\n   *************   8274   Sp-IC_PatRoom3_Mult6_Flr_2 Sys-3 Flr-4 Sch-H HPlcmt-west ZN NECB System 3 PSZ Occ Sch Sunday, !- Sunday Schedule:Day Name\n   *************   8275   Sp-IC_PatRoom3_Mult6_Flr_2 Sys-3 Flr-4 Sch-H HPlcmt-west ZN NECB System 3 PSZ Occ Sch Monday, !- Monday Schedule:Day Name\n   *************   8276   Sp-IC_PatRoom3_Mult6_Flr_2 Sys-3 Flr-4 Sch-H HPlcmt-west ZN NECB System 3 PSZ Occ Sch Tuesday, !- Tuesday Schedule:Day Name\n   *************   8277   Sp-IC_PatRoom3_Mult6_Flr_2 Sys-3 Flr-4 Sch-H HPlcmt-west ZN NECB System 3 PSZ Occ Sch Wednesday, !- Wednesday Schedule:Day Name\n   *************   8278   Sp-IC_PatRoom3_Mult6_Flr_2 Sys-3 Flr-4 Sch-H HPlcmt-west ZN NECB System 3 PSZ Occ Sch Thursday, !- Thursday Schedule:Day Name\n   *************   8279   Sp-IC_PatRoom3_Mult6_Flr_2 Sys-3 Flr-4 Sch-H HPlcmt-west ZN NECB System 3 PSZ Occ Sch Friday, !- Friday Schedule:Day Name\n   *************   8280   Sp-IC_PatRoom3_Mult6_Flr_2 Sys-3 Flr-4 Sch-H HPlcmt-west ZN NECB System 3 PSZ Occ Sch Saturday, !- Saturday Schedule:Day Name\n   *************   8281   Sp-IC_PatRoom3_Mult6_Flr_2 Sys-3 Flr-4 Sch-H HPlcmt-west ZN NECB System 3 PSZ Occ Sch Default, !- Holiday Schedule:Day Name\n   *************   8282   Sp-IC_PatRoom3_Mult6_Flr_2 Sys-3 Flr-4 Sch-H HPlcmt-west ZN NECB System 3 PSZ Occ Sch Summer Design Day, !- SummerDesignDay Schedule:Day Name\n   *************   8283   Sp-IC_PatRoom3_Mult6_Flr_2 Sys-3 Flr-4 Sch-H HPlcmt-west ZN NECB System 3 PSZ Occ Sch Winter Design Day, !- WinterDesignDay Schedule:Day Name\n   ** Warning ** IP: IDF line~8283 Alpha Argument length exceeds maximum, will be truncated=  Sp-IC_PatRoom3_Mult6_Flr_2 Sys-3 Flr-4 Sch-H HPlcmt-west ZN NECB System 3 PSZ Occ Sch Winter Design Da\n   **   ~~~   ** Will be processed as Alpha=SP-IC_PATROOM3_MULT6_FLR_2 SYS-3 FLR-4 SCH-H HPLCMT-WEST ZN NECB SYSTEM 3 PSZ OCC SCH WINTER DESIGN DAY\n   ************* IDF Context for following error/warning message:\n   ************* Note -- lines truncated at 300 characters, if necessary...\n   *************   8303 Schedule:Day:Interval,\n   ************* indicated Name=Sp-IC_PatRoom3_Mult6_Flr_2 Sys-3 Flr-4 Sch-H HPlcmt-west ZN NECB System 3 PSZ Occ Sch Summer Design Day\n   ************* Only last 1 lines before error line shown.....\n   *************   8304   Sp-IC_PatRoom3_Mult6_Flr_2 Sys-3 Flr-4 Sch-H HPlcmt-west ZN NECB System 3 PSZ Occ Sch Summer Design Day, !- Name\n   ** Warning ** IP: IDF line~8304 Alpha Argument length exceeds maximum, will be truncated=  Sp-IC_PatRoom3_Mult6_Flr_2 Sys-3 Flr-4 Sch-H HPlcmt-west ZN NECB System 3 PSZ Occ Sch Summer Design Da\n   **   ~~~   ** Will be processed as Alpha=SP-IC_PATROOM3_MULT6_FLR_2 SYS-3 FLR-4 SCH-H HPLCMT-WEST ZN NECB SYSTEM 3 PSZ OCC SCH SUMMER DESIGN DAY\n   ************* IDF Context for following error/warning message:\n   ************* Note -- lines truncated at 300 characters, if necessary...\n   *************   8310 Schedule:Day:Interval,\n   ************* indicated Name=Sp-IC_PatRoom3_Mult6_Flr_2 Sys-3 Flr-4 Sch-H HPlcmt-west ZN NECB System 3 PSZ Occ Sch Winter Design Day\n   ************* Only last 1 lines before error line shown.....\n   *************   8311   Sp-IC_PatRoom3_Mult6_Flr_2 Sys-3 Flr-4 Sch-H HPlcmt-west ZN NECB System 3 PSZ Occ Sch Winter Design Day, !- Name\n   ** Warning ** IP: IDF line~8311 Alpha Argument length exceeds maximum, will be truncated=  Sp-IC_PatRoom3_Mult6_Flr_2 Sys-3 Flr-4 Sch-H HPlcmt-west ZN NECB System 3 PSZ Occ Sch Winter Design Da\n   **   ~~~   ** Will be processed as Alpha=SP-IC_PATROOM3_MULT6_FLR_2 SYS-3 FLR-4 SCH-H HPLCMT-WEST ZN NECB SYSTEM 3 PSZ OCC SCH WINTER DESIGN DAY\n   ************* IDF Context for following error/warning message:\n   ************* Note -- lines truncated at 300 characters, if necessary...\n   *************  10967 Schedule:Week:Daily,\n   ************* indicated Name=Schedule:Week:Daily {aaf5be9a-47c6-4ea5-af01-d9ba6593c9cd}\n   ************* Only last 10 lines before error line shown.....\n   *************  10968   Schedule:Week:Daily {aaf5be9a-47c6-4ea5-af01-d9ba6593c9cd}, !- Name\n   *************  10969   Sp-NurseStn_Lobby_Flr_5 Sys-3 Flr-6 Sch-H HPlcmt-south ZN NECB System 3 PSZ Occ Sch Sunday, !- Sunday Schedule:Day Name\n   *************  10970   Sp-NurseStn_Lobby_Flr_5 Sys-3 Flr-6 Sch-H HPlcmt-south ZN NECB System 3 PSZ Occ Sch Monday, !- Monday Schedule:Day Name\n   *************  10971   Sp-NurseStn_Lobby_Flr_5 Sys-3 Flr-6 Sch-H HPlcmt-south ZN NECB System 3 PSZ Occ Sch Tuesday, !- Tuesday Schedule:Day Name\n   *************  10972   Sp-NurseStn_Lobby_Flr_5 Sys-3 Flr-6 Sch-H HPlcmt-south ZN NECB System 3 PSZ Occ Sch Wednesday, !- Wednesday Schedule:Day Name\n   *************  10973   Sp-NurseStn_Lobby_Flr_5 Sys-3 Flr-6 Sch-H HPlcmt-south ZN NECB System 3 PSZ Occ Sch Thursday, !- Thursday Schedule:Day Name\n   *************  10974   Sp-NurseStn_Lobby_Flr_5 Sys-3 Flr-6 Sch-H HPlcmt-south ZN NECB System 3 PSZ Occ Sch Friday, !- Friday Schedule:Day Name\n   *************  10975   Sp-NurseStn_Lobby_Flr_5 Sys-3 Flr-6 Sch-H HPlcmt-south ZN NECB System 3 PSZ Occ Sch Saturday, !- Saturday Schedule:Day Name\n   *************  10976   Sp-NurseStn_Lobby_Flr_5 Sys-3 Flr-6 Sch-H HPlcmt-south ZN NECB System 3 PSZ Occ Sch Default, !- Holiday Schedule:Day Name\n   *************  10977   Sp-NurseStn_Lobby_Flr_5 Sys-3 Flr-6 Sch-H HPlcmt-south ZN NECB System 3 PSZ Occ Sch Summer Design Day, !- SummerDesignDay Schedule:Day Name\n   ** Warning ** IP: IDF line~10977 Alpha Argument length exceeds maximum, will be truncated=  Sp-NurseStn_Lobby_Flr_5 Sys-3 Flr-6 Sch-H HPlcmt-south ZN NECB System 3 PSZ Occ Sch Summer Design Da\n   **   ~~~   ** Will be processed as Alpha=SP-NURSESTN_LOBBY_FLR_5 SYS-3 FLR-6 SCH-H HPLCMT-SOUTH ZN NECB SYSTEM 3 PSZ OCC SCH SUMMER DESIGN DAY\n   ************* IDF Context for following error/warning message:\n   ************* Note -- lines truncated at 300 characters, if necessary...\n   *************  10967 Schedule:Week:Daily,\n   ************* indicated Name=Schedule:Week:Daily {aaf5be9a-47c6-4ea5-af01-d9ba6593c9cd}\n   ************* Only last 10 lines before error line shown.....\n   *************  10969   Sp-NurseStn_Lobby_Flr_5 Sys-3 Flr-6 Sch-H HPlcmt-south ZN NECB System 3 PSZ Occ Sch Sunday, !- Sunday Schedule:Day Name\n   *************  10970   Sp-NurseStn_Lobby_Flr_5 Sys-3 Flr-6 Sch-H HPlcmt-south ZN NECB System 3 PSZ Occ Sch Monday, !- Monday Schedule:Day Name\n   *************  10971   Sp-NurseStn_Lobby_Flr_5 Sys-3 Flr-6 Sch-H HPlcmt-south ZN NECB System 3 PSZ Occ Sch Tuesday, !- Tuesday Schedule:Day Name\n   *************  10972   Sp-NurseStn_Lobby_Flr_5 Sys-3 Flr-6 Sch-H HPlcmt-south ZN NECB System 3 PSZ Occ Sch Wednesday, !- Wednesday Schedule:Day Name\n   *************  10973   Sp-NurseStn_Lobby_Flr_5 Sys-3 Flr-6 Sch-H HPlcmt-south ZN NECB System 3 PSZ Occ Sch Thursday, !- Thursday Schedule:Day Name\n   *************  10974   Sp-NurseStn_Lobby_Flr_5 Sys-3 Flr-6 Sch-H HPlcmt-south ZN NECB System 3 PSZ Occ Sch Friday, !- Friday Schedule:Day Name\n   *************  10975   Sp-NurseStn_Lobby_Flr_5 Sys-3 Flr-6 Sch-H HPlcmt-south ZN NECB System 3 PSZ Occ Sch Saturday, !- Saturday Schedule:Day Name\n   *************  10976   Sp-NurseStn_Lobby_Flr_5 Sys-3 Flr-6 Sch-H HPlcmt-south ZN NECB System 3 PSZ Occ Sch Default, !- Holiday Schedule:Day Name\n   *************  10977   Sp-NurseStn_Lobby_Flr_5 Sys-3 Flr-6 Sch-H HPlcmt-south ZN NECB System 3 PSZ Occ Sch Summer Design Day, !- SummerDesignDay Schedule:Day Name\n   *************  10978   Sp-NurseStn_Lobby_Flr_5 Sys-3 Flr-6 Sch-H HPlcmt-south ZN NECB System 3 PSZ Occ Sch Winter Design Day, !- WinterDesignDay Schedule:Day Name\n   ** Warning ** IP: IDF line~10978 Alpha Argument length exceeds maximum, will be truncated=  Sp-NurseStn_Lobby_Flr_5 Sys-3 Flr-6 Sch-H HPlcmt-south ZN NECB System 3 PSZ Occ Sch Winter Design Da\n   **   ~~~   ** Will be processed as Alpha=SP-NURSESTN_LOBBY_FLR_5 SYS-3 FLR-6 SCH-H HPLCMT-SOUTH ZN NECB SYSTEM 3 PSZ OCC SCH WINTER DESIGN DAY\n   ************* IDF Context for following error/warning message:\n   ************* Note -- lines truncated at 300 characters, if necessary...\n   *************  10998 Schedule:Day:Interval,\n   ************* indicated Name=Sp-NurseStn_Lobby_Flr_5 Sys-3 Flr-6 Sch-H HPlcmt-south ZN NECB System 3 PSZ Occ Sch Summer Design Day\n   ************* Only last 1 lines before error line shown.....\n   *************  10999   Sp-NurseStn_Lobby_Flr_5 Sys-3 Flr-6 Sch-H HPlcmt-south ZN NECB System 3 PSZ Occ Sch Summer Design Day, !- Name\n   ** Warning ** IP: IDF line~10999 Alpha Argument length exceeds maximum, will be truncated=  Sp-NurseStn_Lobby_Flr_5 Sys-3 Flr-6 Sch-H HPlcmt-south ZN NECB System 3 PSZ Occ Sch Summer Design Da\n   **   ~~~   ** Will be processed as Alpha=SP-NURSESTN_LOBBY_FLR_5 SYS-3 FLR-6 SCH-H HPLCMT-SOUTH ZN NECB SYSTEM 3 PSZ OCC SCH SUMMER DESIGN DAY\n   ************* IDF Context for following error/warning message:\n   ************* Note -- lines truncated at 300 characters, if necessary...\n   *************  11005 Schedule:Day:Interval,\n   ************* indicated Name=Sp-NurseStn_Lobby_Flr_5 Sys-3 Flr-6 Sch-H HPlcmt-south ZN NECB System 3 PSZ Occ Sch Winter Design Day\n   ************* Only last 1 lines before error line shown.....\n   *************  11006   Sp-NurseStn_Lobby_Flr_5 Sys-3 Flr-6 Sch-H HPlcmt-south ZN NECB System 3 PSZ Occ Sch Winter Design Day, !- Name\n   ** Warning ** IP: IDF line~11006 Alpha Argument length exceeds maximum, will be truncated=  Sp-NurseStn_Lobby_Flr_5 Sys-3 Flr-6 Sch-H HPlcmt-south ZN NECB System 3 PSZ Occ Sch Winter Design Da\n   **   ~~~   ** Will be processed as Alpha=SP-NURSESTN_LOBBY_FLR_5 SYS-3 FLR-6 SCH-H HPLCMT-SOUTH ZN NECB SYSTEM 3 PSZ OCC SCH WINTER DESIGN DAY\n   ************* IDF Context for following error/warning message:\n   ************* Note -- lines truncated at 300 characters, if necessary...\n   *************  14142 Schedule:Week:Daily,\n   ************* indicated Name=Schedule:Week:Daily {a39034ac-4098-4bef-be94-c17dbca34855}\n   ************* Only last 10 lines before error line shown.....\n   *************  14143   Schedule:Week:Daily {a39034ac-4098-4bef-be94-c17dbca34855}, !- Name\n   *************  14144   Sp-OR_NurseStn_Lobby_Flr_2 Sys-3 Flr-4 Sch-H HPlcmt-south ZN NECB System 3 PSZ Occ Sch Sunday, !- Sunday Schedule:Day Name\n   *************  14145   Sp-OR_NurseStn_Lobby_Flr_2 Sys-3 Flr-4 Sch-H HPlcmt-south ZN NECB System 3 PSZ Occ Sch Monday, !- Monday Schedule:Day Name\n   *************  14146   Sp-OR_NurseStn_Lobby_Flr_2 Sys-3 Flr-4 Sch-H HPlcmt-south ZN NECB System 3 PSZ Occ Sch Tuesday, !- Tuesday Schedule:Day Name\n   *************  14147   Sp-OR_NurseStn_Lobby_Flr_2 Sys-3 Flr-4 Sch-H HPlcmt-south ZN NECB System 3 PSZ Occ Sch Wednesday, !- Wednesday Schedule:Day Name\n   *************  14148   Sp-OR_NurseStn_Lobby_Flr_2 Sys-3 Flr-4 Sch-H HPlcmt-south ZN NECB System 3 PSZ Occ Sch Thursday, !- Thursday Schedule:Day Name\n   *************  14149   Sp-OR_NurseStn_Lobby_Flr_2 Sys-3 Flr-4 Sch-H HPlcmt-south ZN NECB System 3 PSZ Occ Sch Friday, !- Friday Schedule:Day Name\n   *************  14150   Sp-OR_NurseStn_Lobby_Flr_2 Sys-3 Flr-4 Sch-H HPlcmt-south ZN NECB System 3 PSZ Occ Sch Saturday, !- Saturday Schedule:Day Name\n   *************  14151   Sp-OR_NurseStn_Lobby_Flr_2 Sys-3 Flr-4 Sch-H HPlcmt-south ZN NECB System 3 PSZ Occ Sch Default, !- Holiday Schedule:Day Name\n   *************  14152   Sp-OR_NurseStn_Lobby_Flr_2 Sys-3 Flr-4 Sch-H HPlcmt-south ZN NECB System 3 PSZ Occ Sch Summer Design Day, !- SummerDesignDay Schedule:Day Name\n   ** Warning ** IP: IDF line~14152 Alpha Argument length exceeds maximum, will be truncated=  Sp-OR_NurseStn_Lobby_Flr_2 Sys-3 Flr-4 Sch-H HPlcmt-south ZN NECB System 3 PSZ Occ Sch Summer Design Da\n   **   ~~~   ** Will be processed as Alpha=SP-OR_NURSESTN_LOBBY_FLR_2 SYS-3 FLR-4 SCH-H HPLCMT-SOUTH ZN NECB SYSTEM 3 PSZ OCC SCH SUMMER DESIGN DAY\n   ************* IDF Context for following error/warning message:\n   ************* Note -- lines truncated at 300 characters, if necessary...\n   *************  14142 Schedule:Week:Daily,\n   ************* indicated Name=Schedule:Week:Daily {a39034ac-4098-4bef-be94-c17dbca34855}\n   ************* Only last 10 lines before error line shown.....\n   *************  14144   Sp-OR_NurseStn_Lobby_Flr_2 Sys-3 Flr-4 Sch-H HPlcmt-south ZN NECB System 3 PSZ Occ Sch Sunday, !- Sunday Schedule:Day Name\n   *************  14145   Sp-OR_NurseStn_Lobby_Flr_2 Sys-3 Flr-4 Sch-H HPlcmt-south ZN NECB System 3 PSZ Occ Sch Monday, !- Monday Schedule:Day Name\n   *************  14146   Sp-OR_NurseStn_Lobby_Flr_2 Sys-3 Flr-4 Sch-H HPlcmt-south ZN NECB System 3 PSZ Occ Sch Tuesday, !- Tuesday Schedule:Day Name\n   *************  14147   Sp-OR_NurseStn_Lobby_Flr_2 Sys-3 Flr-4 Sch-H HPlcmt-south ZN NECB System 3 PSZ Occ Sch Wednesday, !- Wednesday Schedule:Day Name\n   *************  14148   Sp-OR_NurseStn_Lobby_Flr_2 Sys-3 Flr-4 Sch-H HPlcmt-south ZN NECB System 3 PSZ Occ Sch Thursday, !- Thursday Schedule:Day Name\n   *************  14149   Sp-OR_NurseStn_Lobby_Flr_2 Sys-3 Flr-4 Sch-H HPlcmt-south ZN NECB System 3 PSZ Occ Sch Friday, !- Friday Schedule:Day Name\n   *************  14150   Sp-OR_NurseStn_Lobby_Flr_2 Sys-3 Flr-4 Sch-H HPlcmt-south ZN NECB System 3 PSZ Occ Sch Saturday, !- Saturday Schedule:Day Name\n   *************  14151   Sp-OR_NurseStn_Lobby_Flr_2 Sys-3 Flr-4 Sch-H HPlcmt-south ZN NECB System 3 PSZ Occ Sch Default, !- Holiday Schedule:Day Name\n   *************  14152   Sp-OR_NurseStn_Lobby_Flr_2 Sys-3 Flr-4 Sch-H HPlcmt-south ZN NECB System 3 PSZ Occ Sch Summer Design Day, !- SummerDesignDay Schedule:Day Name\n   *************  14153   Sp-OR_NurseStn_Lobby_Flr_2 Sys-3 Flr-4 Sch-H HPlcmt-south ZN NECB System 3 PSZ Occ Sch Winter Design Day, !- WinterDesignDay Schedule:Day Name\n   ** Warning ** IP: IDF line~14153 Alpha Argument length exceeds maximum, will be truncated=  Sp-OR_NurseStn_Lobby_Flr_2 Sys-3 Flr-4 Sch-H HPlcmt-south ZN NECB System 3 PSZ Occ Sch Winter Design Da\n   **   ~~~   ** Will be processed as Alpha=SP-OR_NURSESTN_LOBBY_FLR_2 SYS-3 FLR-4 SCH-H HPLCMT-SOUTH ZN NECB SYSTEM 3 PSZ OCC SCH WINTER DESIGN DAY\n   ************* IDF Context for following error/warning message:\n   ************* Note -- lines truncated at 300 characters, if necessary...\n   *************  14173 Schedule:Day:Interval,\n   ************* indicated Name=Sp-OR_NurseStn_Lobby_Flr_2 Sys-3 Flr-4 Sch-H HPlcmt-south ZN NECB System 3 PSZ Occ Sch Summer Design Day\n   ************* Only last 1 lines before error line shown.....\n   *************  14174   Sp-OR_NurseStn_Lobby_Flr_2 Sys-3 Flr-4 Sch-H HPlcmt-south ZN NECB System 3 PSZ Occ Sch Summer Design Day, !- Name\n   ** Warning ** IP: IDF line~14174 Alpha Argument length exceeds maximum, will be truncated=  Sp-OR_NurseStn_Lobby_Flr_2 Sys-3 Flr-4 Sch-H HPlcmt-south ZN NECB System 3 PSZ Occ Sch Summer Design Da\n   **   ~~~   ** Will be processed as Alpha=SP-OR_NURSESTN_LOBBY_FLR_2 SYS-3 FLR-4 SCH-H HPLCMT-SOUTH ZN NECB SYSTEM 3 PSZ OCC SCH SUMMER DESIGN DAY\n   ************* IDF Context for following error/warning message:\n   ************* Note -- lines truncated at 300 characters, if necessary...\n   *************  14180 Schedule:Day:Interval,\n   ************* indicated Name=Sp-OR_NurseStn_Lobby_Flr_2 Sys-3 Flr-4 Sch-H HPlcmt-south ZN NECB System 3 PSZ Occ Sch Winter Design Day\n   ************* Only last 1 lines before error line shown.....\n   *************  14181   Sp-OR_NurseStn_Lobby_Flr_2 Sys-3 Flr-4 Sch-H HPlcmt-south ZN NECB System 3 PSZ Occ Sch Winter Design Day, !- Name\n   ** Warning ** IP: IDF line~14181 Alpha Argument length exceeds maximum, will be truncated=  Sp-OR_NurseStn_Lobby_Flr_2 Sys-3 Flr-4 Sch-H HPlcmt-south ZN NECB System 3 PSZ Occ Sch Winter Design Da\n   **   ~~~   ** Will be processed as Alpha=SP-OR_NURSESTN_LOBBY_FLR_2 SYS-3 FLR-4 SCH-H HPLCMT-SOUTH ZN NECB SYSTEM 3 PSZ OCC SCH WINTER DESIGN DAY\n   ************* IDF Context for following error/warning message:\n   ************* Note -- lines truncated at 300 characters, if necessary...\n   *************  14485 Schedule:Week:Daily,\n   ************* indicated Name=Schedule:Week:Daily {1b678fdd-f35b-4664-a576-5598d91c9d79}\n   ************* Only last 10 lines before error line shown.....\n   *************  14486   Schedule:Week:Daily {1b678fdd-f35b-4664-a576-5598d91c9d79}, !- Name\n   *************  14487   Sp-PatRoom1_Mult10_Flr_3 Sys-3 Flr-2 Sch-H HPlcmt-south ZN NECB System 3 PSZ Occ Sch Sunday, !- Sunday Schedule:Day Name\n   *************  14488   Sp-PatRoom1_Mult10_Flr_3 Sys-3 Flr-2 Sch-H HPlcmt-south ZN NECB System 3 PSZ Occ Sch Monday, !- Monday Schedule:Day Name\n   *************  14489   Sp-PatRoom1_Mult10_Flr_3 Sys-3 Flr-2 Sch-H HPlcmt-south ZN NECB System 3 PSZ Occ Sch Tuesday, !- Tuesday Schedule:Day Name\n   *************  14490   Sp-PatRoom1_Mult10_Flr_3 Sys-3 Flr-2 Sch-H HPlcmt-south ZN NECB System 3 PSZ Occ Sch Wednesday, !- Wednesday Schedule:Day Name\n   *************  14491   Sp-PatRoom1_Mult10_Flr_3 Sys-3 Flr-2 Sch-H HPlcmt-south ZN NECB System 3 PSZ Occ Sch Thursday, !- Thursday Schedule:Day Name\n   *************  14492   Sp-PatRoom1_Mult10_Flr_3 Sys-3 Flr-2 Sch-H HPlcmt-south ZN NECB System 3 PSZ Occ Sch Friday, !- Friday Schedule:Day Name\n   *************  14493   Sp-PatRoom1_Mult10_Flr_3 Sys-3 Flr-2 Sch-H HPlcmt-south ZN NECB System 3 PSZ Occ Sch Saturday, !- Saturday Schedule:Day Name\n   *************  14494   Sp-PatRoom1_Mult10_Flr_3 Sys-3 Flr-2 Sch-H HPlcmt-south ZN NECB System 3 PSZ Occ Sch Default, !- Holiday Schedule:Day Name\n   *************  14495   Sp-PatRoom1_Mult10_Flr_3 Sys-3 Flr-2 Sch-H HPlcmt-south ZN NECB System 3 PSZ Occ Sch Summer Design Day, !- SummerDesignDay Schedule:Day Name\n   ** Warning ** IP: IDF line~14495 Alpha Argument length exceeds maximum, will be truncated=  Sp-PatRoom1_Mult10_Flr_3 Sys-3 Flr-2 Sch-H HPlcmt-south ZN NECB System 3 PSZ Occ Sch Summer Design Da\n   **   ~~~   ** Will be processed as Alpha=SP-PATROOM1_MULT10_FLR_3 SYS-3 FLR-2 SCH-H HPLCMT-SOUTH ZN NECB SYSTEM 3 PSZ OCC SCH SUMMER DESIGN DAY\n   ************* IDF Context for following error/warning message:\n   ************* Note -- lines truncated at 300 characters, if necessary...\n   *************  14485 Schedule:Week:Daily,\n   ************* indicated Name=Schedule:Week:Daily {1b678fdd-f35b-4664-a576-5598d91c9d79}\n   ************* Only last 10 lines before error line shown.....\n   *************  14487   Sp-PatRoom1_Mult10_Flr_3 Sys-3 Flr-2 Sch-H HPlcmt-south ZN NECB System 3 PSZ Occ Sch Sunday, !- Sunday Schedule:Day Name\n   *************  14488   Sp-PatRoom1_Mult10_Flr_3 Sys-3 Flr-2 Sch-H HPlcmt-south ZN NECB System 3 PSZ Occ Sch Monday, !- Monday Schedule:Day Name\n   *************  14489   Sp-PatRoom1_Mult10_Flr_3 Sys-3 Flr-2 Sch-H HPlcmt-south ZN NECB System 3 PSZ Occ Sch Tuesday, !- Tuesday Schedule:Day Name\n   *************  14490   Sp-PatRoom1_Mult10_Flr_3 Sys-3 Flr-2 Sch-H HPlcmt-south ZN NECB System 3 PSZ Occ Sch Wednesday, !- Wednesday Schedule:Day Name\n   *************  14491   Sp-PatRoom1_Mult10_Flr_3 Sys-3 Flr-2 Sch-H HPlcmt-south ZN NECB System 3 PSZ Occ Sch Thursday, !- Thursday Schedule:Day Name\n   *************  14492   Sp-PatRoom1_Mult10_Flr_3 Sys-3 Flr-2 Sch-H HPlcmt-south ZN NECB System 3 PSZ Occ Sch Friday, !- Friday Schedule:Day Name\n   *************  14493   Sp-PatRoom1_Mult10_Flr_3 Sys-3 Flr-2 Sch-H HPlcmt-south ZN NECB System 3 PSZ Occ Sch Saturday, !- Saturday Schedule:Day Name\n   *************  14494   Sp-PatRoom1_Mult10_Flr_3 Sys-3 Flr-2 Sch-H HPlcmt-south ZN NECB System 3 PSZ Occ Sch Default, !- Holiday Schedule:Day Name\n   *************  14495   Sp-PatRoom1_Mult10_Flr_3 Sys-3 Flr-2 Sch-H HPlcmt-south ZN NECB System 3 PSZ Occ Sch Summer Design Day, !- SummerDesignDay Schedule:Day Name\n   *************  14496   Sp-PatRoom1_Mult10_Flr_3 Sys-3 Flr-2 Sch-H HPlcmt-south ZN NECB System 3 PSZ Occ Sch Winter Design Day, !- WinterDesignDay Schedule:Day Name\n   ** Warning ** IP: IDF line~14496 Alpha Argument length exceeds maximum, will be truncated=  Sp-PatRoom1_Mult10_Flr_3 Sys-3 Flr-2 Sch-H HPlcmt-south ZN NECB System 3 PSZ Occ Sch Winter Design Da\n   **   ~~~   ** Will be processed as Alpha=SP-PATROOM1_MULT10_FLR_3 SYS-3 FLR-2 SCH-H HPLCMT-SOUTH ZN NECB SYSTEM 3 PSZ OCC SCH WINTER DESIGN DAY\n   ************* IDF Context for following error/warning message:\n   ************* Note -- lines truncated at 300 characters, if necessary...\n   *************  14516 Schedule:Day:Interval,\n   ************* indicated Name=Sp-PatRoom1_Mult10_Flr_3 Sys-3 Flr-2 Sch-H HPlcmt-south ZN NECB System 3 PSZ Occ Sch Summer Design Day\n   ************* Only last 1 lines before error line shown.....\n   *************  14517   Sp-PatRoom1_Mult10_Flr_3 Sys-3 Flr-2 Sch-H HPlcmt-south ZN NECB System 3 PSZ Occ Sch Summer Design Day, !- Name\n   ** Warning ** IP: IDF line~14517 Alpha Argument length exceeds maximum, will be truncated=  Sp-PatRoom1_Mult10_Flr_3 Sys-3 Flr-2 Sch-H HPlcmt-south ZN NECB System 3 PSZ Occ Sch Summer Design Da\n   **   ~~~   ** Will be processed as Alpha=SP-PATROOM1_MULT10_FLR_3 SYS-3 FLR-2 SCH-H HPLCMT-SOUTH ZN NECB SYSTEM 3 PSZ OCC SCH SUMMER DESIGN DAY\n   ************* IDF Context for following error/warning message:\n   ************* Note -- lines truncated at 300 characters, if necessary...\n   *************  14523 Schedule:Day:Interval,\n   ************* indicated Name=Sp-PatRoom1_Mult10_Flr_3 Sys-3 Flr-2 Sch-H HPlcmt-south ZN NECB System 3 PSZ Occ Sch Winter Design Day\n   ************* Only last 1 lines before error line shown.....\n   *************  14524   Sp-PatRoom1_Mult10_Flr_3 Sys-3 Flr-2 Sch-H HPlcmt-south ZN NECB System 3 PSZ Occ Sch Winter Design Day, !- Name\n   ** Warning ** IP: IDF line~14524 Alpha Argument length exceeds maximum, will be truncated=  Sp-PatRoom1_Mult10_Flr_3 Sys-3 Flr-2 Sch-H HPlcmt-south ZN NECB System 3 PSZ Occ Sch Winter Design Da\n   **   ~~~   ** Will be processed as Alpha=SP-PATROOM1_MULT10_FLR_3 SYS-3 FLR-2 SCH-H HPLCMT-SOUTH ZN NECB SYSTEM 3 PSZ OCC SCH WINTER DESIGN DAY\n   ************* IDF Context for following error/warning message:\n   ************* Note -- lines truncated at 300 characters, if necessary...\n   *************  14828 Schedule:Week:Daily,\n   ************* indicated Name=Schedule:Week:Daily {d016938d-6330-487e-9109-0c1f9d7fe95d}\n   ************* Only last 10 lines before error line shown.....\n   *************  14829   Schedule:Week:Daily {d016938d-6330-487e-9109-0c1f9d7fe95d}, !- Name\n   *************  14830   Sp-PatRoom1_Mult10_Flr_4 Sys-3 Flr-3 Sch-H HPlcmt-south ZN NECB System 3 PSZ Occ Sch Sunday, !- Sunday Schedule:Day Name\n   *************  14831   Sp-PatRoom1_Mult10_Flr_4 Sys-3 Flr-3 Sch-H HPlcmt-south ZN NECB System 3 PSZ Occ Sch Monday, !- Monday Schedule:Day Name\n   *************  14832   Sp-PatRoom1_Mult10_Flr_4 Sys-3 Flr-3 Sch-H HPlcmt-south ZN NECB System 3 PSZ Occ Sch Tuesday, !- Tuesday Schedule:Day Name\n   *************  14833   Sp-PatRoom1_Mult10_Flr_4 Sys-3 Flr-3 Sch-H HPlcmt-south ZN NECB System 3 PSZ Occ Sch Wednesday, !- Wednesday Schedule:Day Name\n   *************  14834   Sp-PatRoom1_Mult10_Flr_4 Sys-3 Flr-3 Sch-H HPlcmt-south ZN NECB System 3 PSZ Occ Sch Thursday, !- Thursday Schedule:Day Name\n   *************  14835   Sp-PatRoom1_Mult10_Flr_4 Sys-3 Flr-3 Sch-H HPlcmt-south ZN NECB System 3 PSZ Occ Sch Friday, !- Friday Schedule:Day Name\n   *************  14836   Sp-PatRoom1_Mult10_Flr_4 Sys-3 Flr-3 Sch-H HPlcmt-south ZN NECB System 3 PSZ Occ Sch Saturday, !- Saturday Schedule:Day Name\n   *************  14837   Sp-PatRoom1_Mult10_Flr_4 Sys-3 Flr-3 Sch-H HPlcmt-south ZN NECB System 3 PSZ Occ Sch Default, !- Holiday Schedule:Day Name\n   *************  14838   Sp-PatRoom1_Mult10_Flr_4 Sys-3 Flr-3 Sch-H HPlcmt-south ZN NECB System 3 PSZ Occ Sch Summer Design Day, !- SummerDesignDay Schedule:Day Name\n   ** Warning ** IP: IDF line~14838 Alpha Argument length exceeds maximum, will be truncated=  Sp-PatRoom1_Mult10_Flr_4 Sys-3 Flr-3 Sch-H HPlcmt-south ZN NECB System 3 PSZ Occ Sch Summer Design Da\n   **   ~~~   ** Will be processed as Alpha=SP-PATROOM1_MULT10_FLR_4 SYS-3 FLR-3 SCH-H HPLCMT-SOUTH ZN NECB SYSTEM 3 PSZ OCC SCH SUMMER DESIGN DAY\n   ************* IDF Context for following error/warning message:\n   ************* Note -- lines truncated at 300 characters, if necessary...\n   *************  14828 Schedule:Week:Daily,\n   ************* indicated Name=Schedule:Week:Daily {d016938d-6330-487e-9109-0c1f9d7fe95d}\n   ************* Only last 10 lines before error line shown.....\n   *************  14830   Sp-PatRoom1_Mult10_Flr_4 Sys-3 Flr-3 Sch-H HPlcmt-south ZN NECB System 3 PSZ Occ Sch Sunday, !- Sunday Schedule:Day Name\n   *************  14831   Sp-PatRoom1_Mult10_Flr_4 Sys-3 Flr-3 Sch-H HPlcmt-south ZN NECB System 3 PSZ Occ Sch Monday, !- Monday Schedule:Day Name\n   *************  14832   Sp-PatRoom1_Mult10_Flr_4 Sys-3 Flr-3 Sch-H HPlcmt-south ZN NECB System 3 PSZ Occ Sch Tuesday, !- Tuesday Schedule:Day Name\n   *************  14833   Sp-PatRoom1_Mult10_Flr_4 Sys-3 Flr-3 Sch-H HPlcmt-south ZN NECB System 3 PSZ Occ Sch Wednesday, !- Wednesday Schedule:Day Name\n   *************  14834   Sp-PatRoom1_Mult10_Flr_4 Sys-3 Flr-3 Sch-H HPlcmt-south ZN NECB System 3 PSZ Occ Sch Thursday, !- Thursday Schedule:Day Name\n   *************  14835   Sp-PatRoom1_Mult10_Flr_4 Sys-3 Flr-3 Sch-H HPlcmt-south ZN NECB System 3 PSZ Occ Sch Friday, !- Friday Schedule:Day Name\n   *************  14836   Sp-PatRoom1_Mult10_Flr_4 Sys-3 Flr-3 Sch-H HPlcmt-south ZN NECB System 3 PSZ Occ Sch Saturday, !- Saturday Schedule:Day Name\n   *************  14837   Sp-PatRoom1_Mult10_Flr_4 Sys-3 Flr-3 Sch-H HPlcmt-south ZN NECB System 3 PSZ Occ Sch Default, !- Holiday Schedule:Day Name\n   *************  14838   Sp-PatRoom1_Mult10_Flr_4 Sys-3 Flr-3 Sch-H HPlcmt-south ZN NECB System 3 PSZ Occ Sch Summer Design Day, !- SummerDesignDay Schedule:Day Name\n   *************  14839   Sp-PatRoom1_Mult10_Flr_4 Sys-3 Flr-3 Sch-H HPlcmt-south ZN NECB System 3 PSZ Occ Sch Winter Design Day, !- WinterDesignDay Schedule:Day Name\n   ** Warning ** IP: IDF line~14839 Alpha Argument length exceeds maximum, will be truncated=  Sp-PatRoom1_Mult10_Flr_4 Sys-3 Flr-3 Sch-H HPlcmt-south ZN NECB System 3 PSZ Occ Sch Winter Design Da\n   **   ~~~   ** Will be processed as Alpha=SP-PATROOM1_MULT10_FLR_4 SYS-3 FLR-3 SCH-H HPLCMT-SOUTH ZN NECB SYSTEM 3 PSZ OCC SCH WINTER DESIGN DAY\n   ************* IDF Context for following error/warning message:\n   ************* Note -- lines truncated at 300 characters, if necessary...\n   *************  14859 Schedule:Day:Interval,\n   ************* indicated Name=Sp-PatRoom1_Mult10_Flr_4 Sys-3 Flr-3 Sch-H HPlcmt-south ZN NECB System 3 PSZ Occ Sch Summer Design Day\n   ************* Only last 1 lines before error line shown.....\n   *************  14860   Sp-PatRoom1_Mult10_Flr_4 Sys-3 Flr-3 Sch-H HPlcmt-south ZN NECB System 3 PSZ Occ Sch Summer Design Day, !- Name\n   ** Warning ** IP: IDF line~14860 Alpha Argument length exceeds maximum, will be truncated=  Sp-PatRoom1_Mult10_Flr_4 Sys-3 Flr-3 Sch-H HPlcmt-south ZN NECB System 3 PSZ Occ Sch Summer Design Da\n   **   ~~~   ** Will be processed as Alpha=SP-PATROOM1_MULT10_FLR_4 SYS-3 FLR-3 SCH-H HPLCMT-SOUTH ZN NECB SYSTEM 3 PSZ OCC SCH SUMMER DESIGN DAY\n   ************* IDF Context for following error/warning message:\n   ************* Note -- lines truncated at 300 characters, if necessary...\n   *************  14866 Schedule:Day:Interval,\n   ************* indicated Name=Sp-PatRoom1_Mult10_Flr_4 Sys-3 Flr-3 Sch-H HPlcmt-south ZN NECB System 3 PSZ Occ Sch Winter Design Day\n   ************* Only last 1 lines before error line shown.....\n   *************  14867   Sp-PatRoom1_Mult10_Flr_4 Sys-3 Flr-3 Sch-H HPlcmt-south ZN NECB System 3 PSZ Occ Sch Winter Design Day, !- Name\n   ** Warning ** IP: IDF line~14867 Alpha Argument length exceeds maximum, will be truncated=  Sp-PatRoom1_Mult10_Flr_4 Sys-3 Flr-3 Sch-H HPlcmt-south ZN NECB System 3 PSZ Occ Sch Winter Design Da\n   **   ~~~   ** Will be processed as Alpha=SP-PATROOM1_MULT10_FLR_4 SYS-3 FLR-3 SCH-H HPLCMT-SOUTH ZN NECB SYSTEM 3 PSZ OCC SCH WINTER DESIGN DAY\n   ************* IDF Context for following error/warning message:\n   ************* Note -- lines truncated at 300 characters, if necessary...\n   *************  15733 Schedule:Week:Daily,\n   ************* indicated Name=Schedule:Week:Daily {703ce299-cbfd-49e1-bc61-0e3ed99c7a3c}\n   ************* Only last 10 lines before error line shown.....\n   *************  15734   Schedule:Week:Daily {703ce299-cbfd-49e1-bc61-0e3ed99c7a3c}, !- Name\n   *************  15735   Sp-PatRoom3_Mult10_Flr_3 Sys-3 Flr-2 Sch-H HPlcmt-east ZN NECB System 3 PSZ Occ Sch Sunday, !- Sunday Schedule:Day Name\n   *************  15736   Sp-PatRoom3_Mult10_Flr_3 Sys-3 Flr-2 Sch-H HPlcmt-east ZN NECB System 3 PSZ Occ Sch Monday, !- Monday Schedule:Day Name\n   *************  15737   Sp-PatRoom3_Mult10_Flr_3 Sys-3 Flr-2 Sch-H HPlcmt-east ZN NECB System 3 PSZ Occ Sch Tuesday, !- Tuesday Schedule:Day Name\n   *************  15738   Sp-PatRoom3_Mult10_Flr_3 Sys-3 Flr-2 Sch-H HPlcmt-east ZN NECB System 3 PSZ Occ Sch Wednesday, !- Wednesday Schedule:Day Name\n   *************  15739   Sp-PatRoom3_Mult10_Flr_3 Sys-3 Flr-2 Sch-H HPlcmt-east ZN NECB System 3 PSZ Occ Sch Thursday, !- Thursday Schedule:Day Name\n   *************  15740   Sp-PatRoom3_Mult10_Flr_3 Sys-3 Flr-2 Sch-H HPlcmt-east ZN NECB System 3 PSZ Occ Sch Friday, !- Friday Schedule:Day Name\n   *************  15741   Sp-PatRoom3_Mult10_Flr_3 Sys-3 Flr-2 Sch-H HPlcmt-east ZN NECB System 3 PSZ Occ Sch Saturday, !- Saturday Schedule:Day Name\n   *************  15742   Sp-PatRoom3_Mult10_Flr_3 Sys-3 Flr-2 Sch-H HPlcmt-east ZN NECB System 3 PSZ Occ Sch Default, !- Holiday Schedule:Day Name\n   *************  15743   Sp-PatRoom3_Mult10_Flr_3 Sys-3 Flr-2 Sch-H HPlcmt-east ZN NECB System 3 PSZ Occ Sch Summer Design Day, !- SummerDesignDay Schedule:Day Name\n   ** Warning ** IP: IDF line~15743 Alpha Argument length exceeds maximum, will be truncated=  Sp-PatRoom3_Mult10_Flr_3 Sys-3 Flr-2 Sch-H HPlcmt-east ZN NECB System 3 PSZ Occ Sch Summer Design Da\n   **   ~~~   ** Will be processed as Alpha=SP-PATROOM3_MULT10_FLR_3 SYS-3 FLR-2 SCH-H HPLCMT-EAST ZN NECB SYSTEM 3 PSZ OCC SCH SUMMER DESIGN DAY\n   ************* IDF Context for following error/warning message:\n   ************* Note -- lines truncated at 300 characters, if necessary...\n   *************  15733 Schedule:Week:Daily,\n   ************* indicated Name=Schedule:Week:Daily {703ce299-cbfd-49e1-bc61-0e3ed99c7a3c}\n   ************* Only last 10 lines before error line shown.....\n   *************  15735   Sp-PatRoom3_Mult10_Flr_3 Sys-3 Flr-2 Sch-H HPlcmt-east ZN NECB System 3 PSZ Occ Sch Sunday, !- Sunday Schedule:Day Name\n   *************  15736   Sp-PatRoom3_Mult10_Flr_3 Sys-3 Flr-2 Sch-H HPlcmt-east ZN NECB System 3 PSZ Occ Sch Monday, !- Monday Schedule:Day Name\n   *************  15737   Sp-PatRoom3_Mult10_Flr_3 Sys-3 Flr-2 Sch-H HPlcmt-east ZN NECB System 3 PSZ Occ Sch Tuesday, !- Tuesday Schedule:Day Name\n   *************  15738   Sp-PatRoom3_Mult10_Flr_3 Sys-3 Flr-2 Sch-H HPlcmt-east ZN NECB System 3 PSZ Occ Sch Wednesday, !- Wednesday Schedule:Day Name\n   *************  15739   Sp-PatRoom3_Mult10_Flr_3 Sys-3 Flr-2 Sch-H HPlcmt-east ZN NECB System 3 PSZ Occ Sch Thursday, !- Thursday Schedule:Day Name\n   *************  15740   Sp-PatRoom3_Mult10_Flr_3 Sys-3 Flr-2 Sch-H HPlcmt-east ZN NECB System 3 PSZ Occ Sch Friday, !- Friday Schedule:Day Name\n   *************  15741   Sp-PatRoom3_Mult10_Flr_3 Sys-3 Flr-2 Sch-H HPlcmt-east ZN NECB System 3 PSZ Occ Sch Saturday, !- Saturday Schedule:Day Name\n   *************  15742   Sp-PatRoom3_Mult10_Flr_3 Sys-3 Flr-2 Sch-H HPlcmt-east ZN NECB System 3 PSZ Occ Sch Default, !- Holiday Schedule:Day Name\n   *************  15743   Sp-PatRoom3_Mult10_Flr_3 Sys-3 Flr-2 Sch-H HPlcmt-east ZN NECB System 3 PSZ Occ Sch Summer Design Day, !- SummerDesignDay Schedule:Day Name\n   *************  15744   Sp-PatRoom3_Mult10_Flr_3 Sys-3 Flr-2 Sch-H HPlcmt-east ZN NECB System 3 PSZ Occ Sch Winter Design Day, !- WinterDesignDay Schedule:Day Name\n   ** Warning ** IP: IDF line~15744 Alpha Argument length exceeds maximum, will be truncated=  Sp-PatRoom3_Mult10_Flr_3 Sys-3 Flr-2 Sch-H HPlcmt-east ZN NECB System 3 PSZ Occ Sch Winter Design Da\n   **   ~~~   ** Will be processed as Alpha=SP-PATROOM3_MULT10_FLR_3 SYS-3 FLR-2 SCH-H HPLCMT-EAST ZN NECB SYSTEM 3 PSZ OCC SCH WINTER DESIGN DAY\n   ************* IDF Context for following error/warning message:\n   ************* Note -- lines truncated at 300 characters, if necessary...\n   *************  15764 Schedule:Day:Interval,\n   ************* indicated Name=Sp-PatRoom3_Mult10_Flr_3 Sys-3 Flr-2 Sch-H HPlcmt-east ZN NECB System 3 PSZ Occ Sch Summer Design Day\n   ************* Only last 1 lines before error line shown.....\n   *************  15765   Sp-PatRoom3_Mult10_Flr_3 Sys-3 Flr-2 Sch-H HPlcmt-east ZN NECB System 3 PSZ Occ Sch Summer Design Day, !- Name\n   ** Warning ** IP: IDF line~15765 Alpha Argument length exceeds maximum, will be truncated=  Sp-PatRoom3_Mult10_Flr_3 Sys-3 Flr-2 Sch-H HPlcmt-east ZN NECB System 3 PSZ Occ Sch Summer Design Da\n   **   ~~~   ** Will be processed as Alpha=SP-PATROOM3_MULT10_FLR_3 SYS-3 FLR-2 SCH-H HPLCMT-EAST ZN NECB SYSTEM 3 PSZ OCC SCH SUMMER DESIGN DAY\n   ************* IDF Context for following error/warning message:\n   ************* Note -- lines truncated at 300 characters, if necessary...\n   *************  15771 Schedule:Day:Interval,\n   ************* indicated Name=Sp-PatRoom3_Mult10_Flr_3 Sys-3 Flr-2 Sch-H HPlcmt-east ZN NECB System 3 PSZ Occ Sch Winter Design Day\n   ************* Only last 1 lines before error line shown.....\n   *************  15772   Sp-PatRoom3_Mult10_Flr_3 Sys-3 Flr-2 Sch-H HPlcmt-east ZN NECB System 3 PSZ Occ Sch Winter Design Day, !- Name\n   ** Warning ** IP: IDF line~15772 Alpha Argument length exceeds maximum, will be truncated=  Sp-PatRoom3_Mult10_Flr_3 Sys-3 Flr-2 Sch-H HPlcmt-east ZN NECB System 3 PSZ Occ Sch Winter Design Da\n   **   ~~~   ** Will be processed as Alpha=SP-PATROOM3_MULT10_FLR_3 SYS-3 FLR-2 SCH-H HPLCMT-EAST ZN NECB SYSTEM 3 PSZ OCC SCH WINTER DESIGN DAY\n   ************* IDF Context for following error/warning message:\n   ************* Note -- lines truncated at 300 characters, if necessary...\n   *************  16076 Schedule:Week:Daily,\n   ************* indicated Name=Schedule:Week:Daily {5db3a641-463e-4426-9cbf-b8e804492091}\n   ************* Only last 10 lines before error line shown.....\n   *************  16077   Schedule:Week:Daily {5db3a641-463e-4426-9cbf-b8e804492091}, !- Name\n   *************  16078   Sp-PatRoom3_Mult10_Flr_4 Sys-3 Flr-3 Sch-H HPlcmt-east ZN NECB System 3 PSZ Occ Sch Sunday, !- Sunday Schedule:Day Name\n   *************  16079   Sp-PatRoom3_Mult10_Flr_4 Sys-3 Flr-3 Sch-H HPlcmt-east ZN NECB System 3 PSZ Occ Sch Monday, !- Monday Schedule:Day Name\n   *************  16080   Sp-PatRoom3_Mult10_Flr_4 Sys-3 Flr-3 Sch-H HPlcmt-east ZN NECB System 3 PSZ Occ Sch Tuesday, !- Tuesday Schedule:Day Name\n   *************  16081   Sp-PatRoom3_Mult10_Flr_4 Sys-3 Flr-3 Sch-H HPlcmt-east ZN NECB System 3 PSZ Occ Sch Wednesday, !- Wednesday Schedule:Day Name\n   *************  16082   Sp-PatRoom3_Mult10_Flr_4 Sys-3 Flr-3 Sch-H HPlcmt-east ZN NECB System 3 PSZ Occ Sch Thursday, !- Thursday Schedule:Day Name\n   *************  16083   Sp-PatRoom3_Mult10_Flr_4 Sys-3 Flr-3 Sch-H HPlcmt-east ZN NECB System 3 PSZ Occ Sch Friday, !- Friday Schedule:Day Name\n   *************  16084   Sp-PatRoom3_Mult10_Flr_4 Sys-3 Flr-3 Sch-H HPlcmt-east ZN NECB System 3 PSZ Occ Sch Saturday, !- Saturday Schedule:Day Name\n   *************  16085   Sp-PatRoom3_Mult10_Flr_4 Sys-3 Flr-3 Sch-H HPlcmt-east ZN NECB System 3 PSZ Occ Sch Default, !- Holiday Schedule:Day Name\n   *************  16086   Sp-PatRoom3_Mult10_Flr_4 Sys-3 Flr-3 Sch-H HPlcmt-east ZN NECB System 3 PSZ Occ Sch Summer Design Day, !- SummerDesignDay Schedule:Day Name\n   ** Warning ** IP: IDF line~16086 Alpha Argument length exceeds maximum, will be truncated=  Sp-PatRoom3_Mult10_Flr_4 Sys-3 Flr-3 Sch-H HPlcmt-east ZN NECB System 3 PSZ Occ Sch Summer Design Da\n   **   ~~~   ** Will be processed as Alpha=SP-PATROOM3_MULT10_FLR_4 SYS-3 FLR-3 SCH-H HPLCMT-EAST ZN NECB SYSTEM 3 PSZ OCC SCH SUMMER DESIGN DAY\n   ************* IDF Context for following error/warning message:\n   ************* Note -- lines truncated at 300 characters, if necessary...\n   *************  16076 Schedule:Week:Daily,\n   ************* indicated Name=Schedule:Week:Daily {5db3a641-463e-4426-9cbf-b8e804492091}\n   ************* Only last 10 lines before error line shown.....\n   *************  16078   Sp-PatRoom3_Mult10_Flr_4 Sys-3 Flr-3 Sch-H HPlcmt-east ZN NECB System 3 PSZ Occ Sch Sunday, !- Sunday Schedule:Day Name\n   *************  16079   Sp-PatRoom3_Mult10_Flr_4 Sys-3 Flr-3 Sch-H HPlcmt-east ZN NECB System 3 PSZ Occ Sch Monday, !- Monday Schedule:Day Name\n   *************  16080   Sp-PatRoom3_Mult10_Flr_4 Sys-3 Flr-3 Sch-H HPlcmt-east ZN NECB System 3 PSZ Occ Sch Tuesday, !- Tuesday Schedule:Day Name\n   *************  16081   Sp-PatRoom3_Mult10_Flr_4 Sys-3 Flr-3 Sch-H HPlcmt-east ZN NECB System 3 PSZ Occ Sch Wednesday, !- Wednesday Schedule:Day Name\n   *************  16082   Sp-PatRoom3_Mult10_Flr_4 Sys-3 Flr-3 Sch-H HPlcmt-east ZN NECB System 3 PSZ Occ Sch Thursday, !- Thursday Schedule:Day Name\n   *************  16083   Sp-PatRoom3_Mult10_Flr_4 Sys-3 Flr-3 Sch-H HPlcmt-east ZN NECB System 3 PSZ Occ Sch Friday, !- Friday Schedule:Day Name\n   *************  16084   Sp-PatRoom3_Mult10_Flr_4 Sys-3 Flr-3 Sch-H HPlcmt-east ZN NECB System 3 PSZ Occ Sch Saturday, !- Saturday Schedule:Day Name\n   *************  16085   Sp-PatRoom3_Mult10_Flr_4 Sys-3 Flr-3 Sch-H HPlcmt-east ZN NECB System 3 PSZ Occ Sch Default, !- Holiday Schedule:Day Name\n   *************  16086   Sp-PatRoom3_Mult10_Flr_4 Sys-3 Flr-3 Sch-H HPlcmt-east ZN NECB System 3 PSZ Occ Sch Summer Design Day, !- SummerDesignDay Schedule:Day Name\n   *************  16087   Sp-PatRoom3_Mult10_Flr_4 Sys-3 Flr-3 Sch-H HPlcmt-east ZN NECB System 3 PSZ Occ Sch Winter Design Day, !- WinterDesignDay Schedule:Day Name\n   ** Warning ** IP: IDF line~16087 Alpha Argument length exceeds maximum, will be truncated=  Sp-PatRoom3_Mult10_Flr_4 Sys-3 Flr-3 Sch-H HPlcmt-east ZN NECB System 3 PSZ Occ Sch Winter Design Da\n   **   ~~~   ** Will be processed as Alpha=SP-PATROOM3_MULT10_FLR_4 SYS-3 FLR-3 SCH-H HPLCMT-EAST ZN NECB SYSTEM 3 PSZ OCC SCH WINTER DESIGN DAY\n   ************* IDF Context for following error/warning message:\n   ************* Note -- lines truncated at 300 characters, if necessary...\n   *************  16107 Schedule:Day:Interval,\n   ************* indicated Name=Sp-PatRoom3_Mult10_Flr_4 Sys-3 Flr-3 Sch-H HPlcmt-east ZN NECB System 3 PSZ Occ Sch Summer Design Day\n   ************* Only last 1 lines before error line shown.....\n   *************  16108   Sp-PatRoom3_Mult10_Flr_4 Sys-3 Flr-3 Sch-H HPlcmt-east ZN NECB System 3 PSZ Occ Sch Summer Design Day, !- Name\n   ** Warning ** IP: IDF line~16108 Alpha Argument length exceeds maximum, will be truncated=  Sp-PatRoom3_Mult10_Flr_4 Sys-3 Flr-3 Sch-H HPlcmt-east ZN NECB System 3 PSZ Occ Sch Summer Design Da\n   **   ~~~   ** Will be processed as Alpha=SP-PATROOM3_MULT10_FLR_4 SYS-3 FLR-3 SCH-H HPLCMT-EAST ZN NECB SYSTEM 3 PSZ OCC SCH SUMMER DESIGN DAY\n   ************* IDF Context for following error/warning message:\n   ************* Note -- lines truncated at 300 characters, if necessary...\n   *************  16114 Schedule:Day:Interval,\n   ************* indicated Name=Sp-PatRoom3_Mult10_Flr_4 Sys-3 Flr-3 Sch-H HPlcmt-east ZN NECB System 3 PSZ Occ Sch Winter Design Day\n   ************* Only last 1 lines before error line shown.....\n   *************  16115   Sp-PatRoom3_Mult10_Flr_4 Sys-3 Flr-3 Sch-H HPlcmt-east ZN NECB System 3 PSZ Occ Sch Winter Design Day, !- Name\n   ** Warning ** IP: IDF line~16115 Alpha Argument length exceeds maximum, will be truncated=  Sp-PatRoom3_Mult10_Flr_4 Sys-3 Flr-3 Sch-H HPlcmt-east ZN NECB System 3 PSZ Occ Sch Winter Design Da\n   **   ~~~   ** Will be processed as Alpha=SP-PATROOM3_MULT10_FLR_4 SYS-3 FLR-3 SCH-H HPLCMT-EAST ZN NECB SYSTEM 3 PSZ OCC SCH WINTER DESIGN DAY\n   ************* IDF Context for following error/warning message:\n   ************* Note -- lines truncated at 300 characters, if necessary...\n   *************  16981 Schedule:Week:Daily,\n   ************* indicated Name=Schedule:Week:Daily {9412c037-14ec-4ea3-9060-b9a44c659d12}\n   ************* Only last 10 lines before error line shown.....\n   *************  16982   Schedule:Week:Daily {9412c037-14ec-4ea3-9060-b9a44c659d12}, !- Name\n   *************  16983   Sp-PatRoom5_Mult10_Flr_3 Sys-3 Flr-2 Sch-H HPlcmt-north ZN NECB System 3 PSZ Occ Sch Sunday, !- Sunday Schedule:Day Name\n   *************  16984   Sp-PatRoom5_Mult10_Flr_3 Sys-3 Flr-2 Sch-H HPlcmt-north ZN NECB System 3 PSZ Occ Sch Monday, !- Monday Schedule:Day Name\n   *************  16985   Sp-PatRoom5_Mult10_Flr_3 Sys-3 Flr-2 Sch-H HPlcmt-north ZN NECB System 3 PSZ Occ Sch Tuesday, !- Tuesday Schedule:Day Name\n   *************  16986   Sp-PatRoom5_Mult10_Flr_3 Sys-3 Flr-2 Sch-H HPlcmt-north ZN NECB System 3 PSZ Occ Sch Wednesday, !- Wednesday Schedule:Day Name\n   *************  16987   Sp-PatRoom5_Mult10_Flr_3 Sys-3 Flr-2 Sch-H HPlcmt-north ZN NECB System 3 PSZ Occ Sch Thursday, !- Thursday Schedule:Day Name\n   *************  16988   Sp-PatRoom5_Mult10_Flr_3 Sys-3 Flr-2 Sch-H HPlcmt-north ZN NECB System 3 PSZ Occ Sch Friday, !- Friday Schedule:Day Name\n   *************  16989   Sp-PatRoom5_Mult10_Flr_3 Sys-3 Flr-2 Sch-H HPlcmt-north ZN NECB System 3 PSZ Occ Sch Saturday, !- Saturday Schedule:Day Name\n   *************  16990   Sp-PatRoom5_Mult10_Flr_3 Sys-3 Flr-2 Sch-H HPlcmt-north ZN NECB System 3 PSZ Occ Sch Default, !- Holiday Schedule:Day Name\n   *************  16991   Sp-PatRoom5_Mult10_Flr_3 Sys-3 Flr-2 Sch-H HPlcmt-north ZN NECB System 3 PSZ Occ Sch Summer Design Day, !- SummerDesignDay Schedule:Day Name\n   ** Warning ** IP: IDF line~16991 Alpha Argument length exceeds maximum, will be truncated=  Sp-PatRoom5_Mult10_Flr_3 Sys-3 Flr-2 Sch-H HPlcmt-north ZN NECB System 3 PSZ Occ Sch Summer Design Da\n   **   ~~~   ** Will be processed as Alpha=SP-PATROOM5_MULT10_FLR_3 SYS-3 FLR-2 SCH-H HPLCMT-NORTH ZN NECB SYSTEM 3 PSZ OCC SCH SUMMER DESIGN DAY\n   ************* IDF Context for following error/warning message:\n   ************* Note -- lines truncated at 300 characters, if necessary...\n   *************  16981 Schedule:Week:Daily,\n   ************* indicated Name=Schedule:Week:Daily {9412c037-14ec-4ea3-9060-b9a44c659d12}\n   ************* Only last 10 lines before error line shown.....\n   *************  16983   Sp-PatRoom5_Mult10_Flr_3 Sys-3 Flr-2 Sch-H HPlcmt-north ZN NECB System 3 PSZ Occ Sch Sunday, !- Sunday Schedule:Day Name\n   *************  16984   Sp-PatRoom5_Mult10_Flr_3 Sys-3 Flr-2 Sch-H HPlcmt-north ZN NECB System 3 PSZ Occ Sch Monday, !- Monday Schedule:Day Name\n   *************  16985   Sp-PatRoom5_Mult10_Flr_3 Sys-3 Flr-2 Sch-H HPlcmt-north ZN NECB System 3 PSZ Occ Sch Tuesday, !- Tuesday Schedule:Day Name\n   *************  16986   Sp-PatRoom5_Mult10_Flr_3 Sys-3 Flr-2 Sch-H HPlcmt-north ZN NECB System 3 PSZ Occ Sch Wednesday, !- Wednesday Schedule:Day Name\n   *************  16987   Sp-PatRoom5_Mult10_Flr_3 Sys-3 Flr-2 Sch-H HPlcmt-north ZN NECB System 3 PSZ Occ Sch Thursday, !- Thursday Schedule:Day Name\n   *************  16988   Sp-PatRoom5_Mult10_Flr_3 Sys-3 Flr-2 Sch-H HPlcmt-north ZN NECB System 3 PSZ Occ Sch Friday, !- Friday Schedule:Day Name\n   *************  16989   Sp-PatRoom5_Mult10_Flr_3 Sys-3 Flr-2 Sch-H HPlcmt-north ZN NECB System 3 PSZ Occ Sch Saturday, !- Saturday Schedule:Day Name\n   *************  16990   Sp-PatRoom5_Mult10_Flr_3 Sys-3 Flr-2 Sch-H HPlcmt-north ZN NECB System 3 PSZ Occ Sch Default, !- Holiday Schedule:Day Name\n   *************  16991   Sp-PatRoom5_Mult10_Flr_3 Sys-3 Flr-2 Sch-H HPlcmt-north ZN NECB System 3 PSZ Occ Sch Summer Design Day, !- SummerDesignDay Schedule:Day Name\n   *************  16992   Sp-PatRoom5_Mult10_Flr_3 Sys-3 Flr-2 Sch-H HPlcmt-north ZN NECB System 3 PSZ Occ Sch Winter Design Day, !- WinterDesignDay Schedule:Day Name\n   ** Warning ** IP: IDF line~16992 Alpha Argument length exceeds maximum, will be truncated=  Sp-PatRoom5_Mult10_Flr_3 Sys-3 Flr-2 Sch-H HPlcmt-north ZN NECB System 3 PSZ Occ Sch Winter Design Da\n   **   ~~~   ** Will be processed as Alpha=SP-PATROOM5_MULT10_FLR_3 SYS-3 FLR-2 SCH-H HPLCMT-NORTH ZN NECB SYSTEM 3 PSZ OCC SCH WINTER DESIGN DAY\n   ************* IDF Context for following error/warning message:\n   ************* Note -- lines truncated at 300 characters, if necessary...\n   *************  17012 Schedule:Day:Interval,\n   ************* indicated Name=Sp-PatRoom5_Mult10_Flr_3 Sys-3 Flr-2 Sch-H HPlcmt-north ZN NECB System 3 PSZ Occ Sch Summer Design Day\n   ************* Only last 1 lines before error line shown.....\n   *************  17013   Sp-PatRoom5_Mult10_Flr_3 Sys-3 Flr-2 Sch-H HPlcmt-north ZN NECB System 3 PSZ Occ Sch Summer Design Day, !- Name\n   ** Warning ** IP: IDF line~17013 Alpha Argument length exceeds maximum, will be truncated=  Sp-PatRoom5_Mult10_Flr_3 Sys-3 Flr-2 Sch-H HPlcmt-north ZN NECB System 3 PSZ Occ Sch Summer Design Da\n   **   ~~~   ** Will be processed as Alpha=SP-PATROOM5_MULT10_FLR_3 SYS-3 FLR-2 SCH-H HPLCMT-NORTH ZN NECB SYSTEM 3 PSZ OCC SCH SUMMER DESIGN DAY\n   ************* IDF Context for following error/warning message:\n   ************* Note -- lines truncated at 300 characters, if necessary...\n   *************  17019 Schedule:Day:Interval,\n   ************* indicated Name=Sp-PatRoom5_Mult10_Flr_3 Sys-3 Flr-2 Sch-H HPlcmt-north ZN NECB System 3 PSZ Occ Sch Winter Design Day\n   ************* Only last 1 lines before error line shown.....\n   *************  17020   Sp-PatRoom5_Mult10_Flr_3 Sys-3 Flr-2 Sch-H HPlcmt-north ZN NECB System 3 PSZ Occ Sch Winter Design Day, !- Name\n   ** Warning ** IP: IDF line~17020 Alpha Argument length exceeds maximum, will be truncated=  Sp-PatRoom5_Mult10_Flr_3 Sys-3 Flr-2 Sch-H HPlcmt-north ZN NECB System 3 PSZ Occ Sch Winter Design Da\n   **   ~~~   ** Will be processed as Alpha=SP-PATROOM5_MULT10_FLR_3 SYS-3 FLR-2 SCH-H HPLCMT-NORTH ZN NECB SYSTEM 3 PSZ OCC SCH WINTER DESIGN DAY\n   ************* IDF Context for following error/warning message:\n   ************* Note -- lines truncated at 300 characters, if necessary...\n   *************  17324 Schedule:Week:Daily,\n   ************* indicated Name=Schedule:Week:Daily {dca0404d-fb95-47b9-91d7-3850bc391071}\n   ************* Only last 10 lines before error line shown.....\n   *************  17325   Schedule:Week:Daily {dca0404d-fb95-47b9-91d7-3850bc391071}, !- Name\n   *************  17326   Sp-PatRoom5_Mult10_Flr_4 Sys-3 Flr-3 Sch-H HPlcmt-north ZN NECB System 3 PSZ Occ Sch Sunday, !- Sunday Schedule:Day Name\n   *************  17327   Sp-PatRoom5_Mult10_Flr_4 Sys-3 Flr-3 Sch-H HPlcmt-north ZN NECB System 3 PSZ Occ Sch Monday, !- Monday Schedule:Day Name\n   *************  17328   Sp-PatRoom5_Mult10_Flr_4 Sys-3 Flr-3 Sch-H HPlcmt-north ZN NECB System 3 PSZ Occ Sch Tuesday, !- Tuesday Schedule:Day Name\n   *************  17329   Sp-PatRoom5_Mult10_Flr_4 Sys-3 Flr-3 Sch-H HPlcmt-north ZN NECB System 3 PSZ Occ Sch Wednesday, !- Wednesday Schedule:Day Name\n   *************  17330   Sp-PatRoom5_Mult10_Flr_4 Sys-3 Flr-3 Sch-H HPlcmt-north ZN NECB System 3 PSZ Occ Sch Thursday, !- Thursday Schedule:Day Name\n   *************  17331   Sp-PatRoom5_Mult10_Flr_4 Sys-3 Flr-3 Sch-H HPlcmt-north ZN NECB System 3 PSZ Occ Sch Friday, !- Friday Schedule:Day Name\n   *************  17332   Sp-PatRoom5_Mult10_Flr_4 Sys-3 Flr-3 Sch-H HPlcmt-north ZN NECB System 3 PSZ Occ Sch Saturday, !- Saturday Schedule:Day Name\n   *************  17333   Sp-PatRoom5_Mult10_Flr_4 Sys-3 Flr-3 Sch-H HPlcmt-north ZN NECB System 3 PSZ Occ Sch Default, !- Holiday Schedule:Day Name\n   *************  17334   Sp-PatRoom5_Mult10_Flr_4 Sys-3 Flr-3 Sch-H HPlcmt-north ZN NECB System 3 PSZ Occ Sch Summer Design Day, !- SummerDesignDay Schedule:Day Name\n   ** Warning ** IP: IDF line~17334 Alpha Argument length exceeds maximum, will be truncated=  Sp-PatRoom5_Mult10_Flr_4 Sys-3 Flr-3 Sch-H HPlcmt-north ZN NECB System 3 PSZ Occ Sch Summer Design Da\n   **   ~~~   ** Will be processed as Alpha=SP-PATROOM5_MULT10_FLR_4 SYS-3 FLR-3 SCH-H HPLCMT-NORTH ZN NECB SYSTEM 3 PSZ OCC SCH SUMMER DESIGN DAY\n   ************* IDF Context for following error/warning message:\n   ************* Note -- lines truncated at 300 characters, if necessary...\n   *************  17324 Schedule:Week:Daily,\n   ************* indicated Name=Schedule:Week:Daily {dca0404d-fb95-47b9-91d7-3850bc391071}\n   ************* Only last 10 lines before error line shown.....\n   *************  17326   Sp-PatRoom5_Mult10_Flr_4 Sys-3 Flr-3 Sch-H HPlcmt-north ZN NECB System 3 PSZ Occ Sch Sunday, !- Sunday Schedule:Day Name\n   *************  17327   Sp-PatRoom5_Mult10_Flr_4 Sys-3 Flr-3 Sch-H HPlcmt-north ZN NECB System 3 PSZ Occ Sch Monday, !- Monday Schedule:Day Name\n   *************  17328   Sp-PatRoom5_Mult10_Flr_4 Sys-3 Flr-3 Sch-H HPlcmt-north ZN NECB System 3 PSZ Occ Sch Tuesday, !- Tuesday Schedule:Day Name\n   *************  17329   Sp-PatRoom5_Mult10_Flr_4 Sys-3 Flr-3 Sch-H HPlcmt-north ZN NECB System 3 PSZ Occ Sch Wednesday, !- Wednesday Schedule:Day Name\n   *************  17330   Sp-PatRoom5_Mult10_Flr_4 Sys-3 Flr-3 Sch-H HPlcmt-north ZN NECB System 3 PSZ Occ Sch Thursday, !- Thursday Schedule:Day Name\n   *************  17331   Sp-PatRoom5_Mult10_Flr_4 Sys-3 Flr-3 Sch-H HPlcmt-north ZN NECB System 3 PSZ Occ Sch Friday, !- Friday Schedule:Day Name\n   *************  17332   Sp-PatRoom5_Mult10_Flr_4 Sys-3 Flr-3 Sch-H HPlcmt-north ZN NECB System 3 PSZ Occ Sch Saturday, !- Saturday Schedule:Day Name\n   *************  17333   Sp-PatRoom5_Mult10_Flr_4 Sys-3 Flr-3 Sch-H HPlcmt-north ZN NECB System 3 PSZ Occ Sch Default, !- Holiday Schedule:Day Name\n   *************  17334   Sp-PatRoom5_Mult10_Flr_4 Sys-3 Flr-3 Sch-H HPlcmt-north ZN NECB System 3 PSZ Occ Sch Summer Design Day, !- SummerDesignDay Schedule:Day Name\n   *************  17335   Sp-PatRoom5_Mult10_Flr_4 Sys-3 Flr-3 Sch-H HPlcmt-north ZN NECB System 3 PSZ Occ Sch Winter Design Day, !- WinterDesignDay Schedule:Day Name\n   ** Warning ** IP: IDF line~17335 Alpha Argument length exceeds maximum, will be truncated=  Sp-PatRoom5_Mult10_Flr_4 Sys-3 Flr-3 Sch-H HPlcmt-north ZN NECB System 3 PSZ Occ Sch Winter Design Da\n   **   ~~~   ** Will be processed as Alpha=SP-PATROOM5_MULT10_FLR_4 SYS-3 FLR-3 SCH-H HPLCMT-NORTH ZN NECB SYSTEM 3 PSZ OCC SCH WINTER DESIGN DAY\n   ************* IDF Context for following error/warning message:\n   ************* Note -- lines truncated at 300 characters, if necessary...\n   *************  17355 Schedule:Day:Interval,\n   ************* indicated Name=Sp-PatRoom5_Mult10_Flr_4 Sys-3 Flr-3 Sch-H HPlcmt-north ZN NECB System 3 PSZ Occ Sch Summer Design Day\n   ************* Only last 1 lines before error line shown.....\n   *************  17356   Sp-PatRoom5_Mult10_Flr_4 Sys-3 Flr-3 Sch-H HPlcmt-north ZN NECB System 3 PSZ Occ Sch Summer Design Day, !- Name\n   ** Warning ** IP: IDF line~17356 Alpha Argument length exceeds maximum, will be truncated=  Sp-PatRoom5_Mult10_Flr_4 Sys-3 Flr-3 Sch-H HPlcmt-north ZN NECB System 3 PSZ Occ Sch Summer Design Da\n   **   ~~~   ** Will be processed as Alpha=SP-PATROOM5_MULT10_FLR_4 SYS-3 FLR-3 SCH-H HPLCMT-NORTH ZN NECB SYSTEM 3 PSZ OCC SCH SUMMER DESIGN DAY\n   ************* IDF Context for following error/warning message:\n   ************* Note -- lines truncated at 300 characters, if necessary...\n   *************  17362 Schedule:Day:Interval,\n   ************* indicated Name=Sp-PatRoom5_Mult10_Flr_4 Sys-3 Flr-3 Sch-H HPlcmt-north ZN NECB System 3 PSZ Occ Sch Winter Design Day\n   ************* Only last 1 lines before error line shown.....\n   *************  17363   Sp-PatRoom5_Mult10_Flr_4 Sys-3 Flr-3 Sch-H HPlcmt-north ZN NECB System 3 PSZ Occ Sch Winter Design Day, !- Name\n   ** Warning ** IP: IDF line~17363 Alpha Argument length exceeds maximum, will be truncated=  Sp-PatRoom5_M
[...]
//OtP4pezn34eiA8n5yfVHJymq7Z8cFSKJpJQxGGUiGB2m86DochKmsTCiYdp8uIF4woel32v/DzbmZ22uK6+uEQymUWBmDpRLE/90Elajlryt9KhfHbuOjtXqTPLU7RnsvktlDl+3Gyll6f8Mwv3LNhbb1w5cmZ+IqZRmK5h8k1bvPl+f38wODl5s+HCM8ABDnCAAxzgAAc4wAEOcIDz18QR8ew2/SewcKU6KVxnrogi6YIGNKABDWhAAxrQgAY0oAENaIpp7rOPZv2J5tqfSeAABzjAAQ5wgAMc4AAHOMABTh2cp+8NtNT3Bl7MqO8N7FnZE7bj452dgwOQghSkIAUpSEEKUpCCFKQgBSlIQfo6SO2M1Eko0m5G2uvZ9v4uSEEKUpCCFKQgBSlIQQpSkIIUpCB9HaQ9RXoaeQSpfZCRWtbeXq8HUpCCFKQgBSlIQQpSkIIUpCAFKUhfB+mOIv08mVGk+xnpQXr034EUpCAFKUhBClKQghSkIAUpSEEK0tdB2lekv0uXIt3LSN+/Hwz29kAKUpCCFKQgBSlIQQpSkIIUpCAF6esg3c3+MjGTFOluRjoY7O6CFKQgBSlIQQpSkIIUpCAFKUhBCtLXQrqnSD+GVGVBu5+R7u/bdr8PUpCCFKQgBSlIQQpSkIIUpCAFKUgbI12iuJFz3yp19mAmXuLLi4kzlWYiH5LWmw/hLIrLMebftnzv3cog9sLAl3HmocTF9rY4dl3hiMyTuPeSiYjDWyncXknL+G5sOtOpDNyWobSNrZIGy8N0kiRqGQ9GW+x2NRvN00Z29UZxMvflAq/jBMNJGKXtDV+ONGhzH6MwSDr30htPEuXjOvTd6j4WY3Mx7XxykvMwvN27+jjzE6t7depHVzviYh53eiL9Pf15MZx0PogPn/zhrdKLE/HvX8WvJ4N36qpE3oqe+HTxb3E2HKpL32wVDfDb7XgYedPk7+Q1b7dd7+5lM9mGdpb6Ep57ZAzV7B+kHeZ4gYyubGvfEFk3HhmuF099Z37oBX5q61z74fDrjwYNmHpd3INI5tO0verJ7RvnzlmcLWypjjsnUjNVHAnXu5360gzk/cXduGV8/wJkW+x0u9mP0tBTfl0ncVLHl38YvnMtfePQcOXISQdWTKNw5PnSaC8sVw/GoWV228ad489k/vtQrVBpm3TRGQxOTozHdiU/NpOfHpOfHSY/fSY/u0x+9pj87DP5OWDyY3W5HHHNaItrSltcc9rimtQW16y2uKa1xTWvLa6JbXHNbJtrZttsazXXzLa5ZratNbNFPLu9XfnK6ko7WiRdDTdkH+m5IXtIzw3ZP3puyLjXc0NGvZ4bMub13JARr+eGjHc9N/RGpumHaR7T25imH6aZTG9imn6Y5jK9hWn6YZrN9Aam6YdpPtPbl6YfrnWZaT7Te5emn+rz+d4LEv1t61qdqu6H7B5NP2T3aPohu0fTDxnumn7IcNf0Q4a7ph8y3DX9kOGu6Yfev3Qdcc1oegfTdcQ1p+k9TNcR16ymdzFdR1zzmt7HdB1xzWx6J9N1xLZWc81sejPTdVR9Zj89wyj9jmFqm+uu/ENv8SXEDBL25iV6m5fY2bxEf/MSu5uX2Nu8xP7mJQ42L7Gys29Ko4H4LvjDLJ8G/ZctPg36j158GvRfevk06D8C82nQfx/m06D/dMynQf9VmW//ayDO7Sb28QY2cruBndyut5WXfpVjtbRq8V2PDBL0aLBJ0IPBJkGPBZsEnVaxSdBpFZsEnVaxSdBpFZsEnVaxSRQ8uebToB/98WnQaRWfBp1W8WnQaRWfBp1W8WnQaRWfBp1W8WnQaRWfBp1W8e1/DcR5wSN+Po0GNvKCtIpPo95WXvqNWdXSqsVXajFI0KPBJkEPBpsEPRZsEnRaxSZBp1VsEnRaxSZBp1VsEnRaxSZRkFbxadDLLZ8GnVbxadBpFZ8GnVbxadBpFZ8GnVbxadBpFZ8GnVbxadBpFd/+10CcF6RVfBoNbOQFaRWfRr2tvPSLSaqlVYtvLmGQoEeDTYIeDDYJeizYJOi0ik2CTqvYJOi0ik2CTqvYJOi0ik2iIK3i06CXWz4NOq3i06DTKj4NOq3i06DTKj4NOq3i06DTKj4NOq3i06DTKr79r4E4L0ir+DQa2MgL0io+jXpbeWn992pp1aJAPIMEPRpsEvRgsEnQY8EmQadVbBJ0WsUmQadVbBJ0WsUmQadVbBIFaRWfBr3c8mnQaRWfBp1W8WnQaRWfBp1W8WnQaRWfBp1W8WnQaRWfBp1W8e1/DcR5QVrFp9HARl6QVvFp1NvKS8vsVkurFnV4GSTo0WCToAeDTYIeCzYJOq1ik6DTKjYJOq1ik6DTKjYJOq1ikyhIq/g06OWWT4NOq/g06LSKT4NOq/g06LSKT4NOq/g06LSKT4NOq/g06LSKb/9rIM4L0io+jQY28oK0ik+j3lZeWs2wWlq1KHfIIEGPBpsEPRhsEvRYsEnQaRWbBJ1WsUnQaRWbBJ1WsUnQaRWbRGGxNS4Nernl0ygqZMWlUVTjikujqPwVl0ZRzTcujaJycFwaRZXiuDSKishxaRTVl+Pa/xqI88KqdFwaDWzkBWkVn0b5Vv6lSoXXvJCzOBKBvF9WkM0Kx7biu3E7qwBbWip2WQ06lsm7cBa4cavfbQvL6rdFT/1m96uVm31IMZ6KXLvuwEnkOIzmxw9evKim/HT/FUpOpw7OIldG5zNV3LhyQ8UxX+X4KJ14FskFhqrPnPf7hst9wwwzzDDDDDPMMMMMM8wwwwwzzDDDDDPMMMMMM8wwwwwzzDDDDDPMMMMMM8wwwwwzzDDDDDPMMMMMM8wwwwwzzDDDDDPMMMP8lzLPzfBORpHnyo+OerHWMrtrvq+qXo2NV1+NvZCRJ+P89VqjvXyBeOqHiel7gSx9RTZ+6T3d8jdrYzP76vlp6DuJFwYplBEnctq5lqMwkka1N59/kWMZuKs3tDjX2u22RU+9udxVLzKrH4YvR4kCK3G9dGtejWVyEiSqf1KJ0SwYZqStLfFHiYsloXxqfVn6Lrc6vJFoJRMvNuNsVKoJqeNZIzPtvxNnOGn9B1jX2xJfvTqesud+r6Zh7CmH79PTVe5meSg3L1BF4b0e0hLLC1yp4qFjtTVbL4+bug1HnvTVfGvlfbqIk3EUzqbSFT/8IL7Lzz+YVxMnzt9/VwG29dw6f9GadojpjMenSsP0ZTBOJuKtsMU/hHHs+4Y4XL0i9r2hbHWsrcvul63SePvmTsJItG7SW+n+KG5SmXyq5rrq3N/SFUd/gNShpnHu7/Lmi/lVzsXR0dGi8+p5zLzmw36je6vL4zqSztc6jR812+her/orv7sjNa3VZMhnSlbIwbxy4tgbB9IdqBIR8WXWk1/qdeVyoKezeNKqOxbpkB4uxrN+JPn+YZW7NNWVdVXiJAq/ymo6i2vrKoVTZ+gl82pS+cW17yqTWErV9bJcSFaXlTrhob34qGMZzqsLj+gIS9ebTrhVZ31sZ7tqpesfy3IKdWxvi0+/fRb/OvvtXFycnX/++defxC9nP/08EB9Ozk+qOThNV2354KgUTSShiMMoEcHsNp0HQ5GVNImFEw/T5MULxhU8Lvte+Xm2MzttcV19cYlkMosCMXWiWJ76oZO0HLXkb6VD+ezcdXauUmeWp2jPZPNbKHP8uNlKL0/5ZxbuWbC33rhy5Mz8REyjMF3D5Ju2ePP9/v5gcHLyZsOFZ4ADHOAABzjAAQ5wgAMc4ADnr4kj4tlt+k9g4Up1UrjOXBFF0gUNaEADGtCABjSgAQ1oQAMa0BTT3GcfzfoTzbU/k8ABDnCAAxzgAAc4wAEOcIADnDo4T98baKnvDbyYUd8b2LOyJ2zHxzs7BwcgBSlIQQpSkIIUpCAFKUhBClKQgvR1kNoZqZNQpN2MtNez7f1dkIIUpCAFKUhBClKQghSkIAUpSEH6Okh7ivQ08ghS+yAjtay9vV4PpCAFKUhBClKQghSkIAUpSEEKUpC+DtIdRfp5MqNI9zPSg/TovwMpSEEKUpCCFKQgBSlIQQpSkIIUpK+DtK9If5cuRbqXkb5/Pxjs7YEUpCAFKUhBClKQghSkIAUpSEEK0tdBupv9ZWImKdLdjHQw2N0FKUhBClKQghSkIAUpSEEKUpCCFKSvhXRPkX4MqcqCdj8j3d+37X4fpCAFKUhBClKQghSkIAUpSEEKUpA2RrpEcSPnvlXq7MFMvMSXFxNnKs1EPiStNx/CWRSXY8y/bfneu5VB7IWBL+PMQ4mL7W1x7LrCEZknce8lExGHt1K4vZKW8d3YdKZTGbgtQ2kbWyUNlofpJEnUMh6Mttjtajaap43s6o3iZO7LBV7HCYaTMErbG74cadDmPkZhkHTupTeeJMrHdei71X0sxuZi2vk0mcefJzJypvOrUz+66omLedzpifT3ji0uhpPOQHz45A9vk84wjKT496/i15PBO3VVIm9FT3y6+Lc4Gw7VpW+2igb37XY8jLxp8nfymrfbrnf3splsQztLfQnPPTKGauYP0s5yvEBGV7Z1YIisC48M14unvjM/9AI/tXWu/XD49UeDBky9Lu5BJPNp2l714vaNc+cszha2VMedE6lZKo6E691OfWkG8v7ibtwyvn8Bsi12ut3sR2nYKb+ukzip48s/DN+5lr5xaLhy5Mz8REyjcOT50mgvLFcPxqFldtvGnePPZP77UK1OaZt0wRkMTk6Mx3YlPzaTnx6Tnx0mP30mP7tMfvaY/Owz+Tlg8mN1uRxxzWiLa0pbXHPa4prUFtestrimtcU1ry2uiW1xzWyba2bbbGs118y2uWa2rTWzRTy7vV35uupKO1okXQ03ZB/puSF7SM8N2T96bsi413NDRr2eGzLm9dyQEa/nhox3PTf0Rqbph2ke09uYph+mmUxvYpp+mOYyvYVp+mGazfQGpumHaT7T25emH651mWk+03uXpp/q8/neCxL9betanaruh+weTT9k92j6IbtH0w8Z7pp+yHDX9EOGu6YfMtw1/ZDhrumH3r90HXHNaHoH03XENafpPUzXEdespncxXUdc85rex3Qdcc1seifTdcS2VnPNbHoz03VUfWY/Pb8o/X7han9vXHwBMYME/a9bNgn6371sEvS/iNkk6L8CsUnQfx9ik6D/csQmQf9NiU2C/msTm0TBn1j5NBqI74I/zPJpNBDhBX/O5dNoIMYL/gjMp9FAlBf86ZhPo4E4L/iDM59GE/t4A3Fe8BdsPo16cV76NY7V0qrF9zwySNCjwSZBDwabBD0WbBL0kssmQa+4bBL0gssmQa+3bBL0cssmUZBW8Wk0EN8FaRWfRgMRXpBW8Wk0EOMFaRWfRgNRXpBW8Wk0EOcFaRWfRhP7eANxXpBW8WnUi/PSb8uqllYtvk6LQYIeDTYJejDYJOixYJOgl1w2CXrFZZOgF1w2CXq9ZZOgl1s2iYK0ik+jgfguSKv4NBqI8IK0ik+jgRgvSKv4NBqI8oK0ik+jgTgvSKv4NJrYxxuI84K0ik+jXpyXfilJtbRq8a0lDBL0aLBJ0IPBJkGPBZsEveSySdArLpsEveCySdDrLZsEvdyySRSkVXwaDcR3QVrFp9FAhBekVXwaDcR4QVrFp9FAlBekVXwaDcR5QVrFp9HEPt5AnBekVXwa9eK8tPZ7tbRqURyeQYIeDTYJejDYJOixYJOgl1w2CXrFZZOgF1w2CXq9ZZOgl1s2iYK0ik+jgfguSKv4NBqI8IK0ik+jgRgvSKv4NBqI8oK0ik+jgTgvSKv4NJrYxxuI84K0ik+jXpyXltitllYtavAySNCjwSZBDwabBD0WbBL0kssmQa+4bBL0gssmQa+3bBL0cssmUZBW8Wk0EN8FaRWfRgMRXpBW8Wk0EOMFaRWfRgNRXpBW8Wk0EOcFaRWfRhP7eANxXpBW8WnUi/PSSobV0qpFqUMGiaI6N0wSRRVwmCSKauMwSRTVg2KSKKoUxSRRVEOKSaKouhSTRFHdKSaJwmJrXBoNxHdhiTYujQYivLCwG5dGAzFeWA6OS6OBKC8sIsel0UCcF5ae49JoYh9vIM4La9lxaZTH+ZcqFV7zIs7iSATyfllBNisc24rvxu2sAmxpqdhlJehYJu/CWeDGrX63LSyr3xY99Zvdr1Zu9iHFeCpw7boDJ5HjMJofP3jxopLy0/1XKDedOjiLXBmdz1Rh48oNFcd8leOjdOJZJBcYqjZz3u8bLvUNM8wwwwwzzDDDDDPMMMMMM8wwwwwzzDDDDDPMMMMMM8wwwwwzzDDDDDPMMMMMM8wwwwwzzDDDDDPMMMMMM8wwwwwzzDDDDPNfyjw3wzsZRZ4rPzrqxVrL7K75vqp6NTZefTX2QkaejPPXa4328gXiqR8mpu8FsvQV2fil93TL36yNzeyr56eh7yReGKRQRpzIaedajsJIGtXefP5FjmXgrt7Q4lxrt9sWPfXmcle9yKx+GL4cJQqsxPXSrXk1lslJkKj+SSVGs2CYkba2xB8lLpaE8qn1Zem73OrwRqKVTLzYjLNRqSakjmeNzLT/TpzhpPUfYF1vS3z16njKnvu9moaxpxy+T09XuZvlody8QBWF93pISywvcKWKh47V1my9PG7qNhx50lfzrZX36SJOxlE4m0pX/PCD+C4//2BeTZw4f/9dBdjWc+v8RWvaIaYzHp8qDdOXwTiZiLfCFv8QxrHvG+Jw9YrY94ay1bG2Lrtftkrj7Zs7CSPRuklvpfujuEll8qma66pzf0tXHP0BUoeaxrm/y5sv5lc5F0dHR4vOq+cx85oP+43urS6P60g6X+s0ftRso3u96q/87o7UtFaTIZ8pWSEH88qJY28cSHegSkTEl1lPfqnXlcuBns7iSavuWKRDergYz/qR5PuHVe7SVFfWVYmTKPwqq+ksrq2rFE6doZfMq0nlF9e+q0xiKVXXy3IhWV1W6oSH9uKjjmU4ry48oiMsXW864Vad9bGd7aqVrn8syynUsb0tPv32Wfzr7LdzcXF2/vnnX38Sv5z99PNAfDg5P6nm4DRdteWDo1I0kYQiDqNEBLPbdB4MRVbSJBZOPEyTFy8YV/C47Hvl59nO7LTFdfXFJZLJLArE1IlieeqHTtJy1JK/lQ7ls3PX2blKnVmeoj2TzW+hzPHjZiu9POWfWbhnwd5648qRM/MTMY3CdA2Tb9rizff7+4PBycmbDReeAQ5wgAMc4AAHOMABDnCAA5y/Jo6IZ7fpP4GFK9VJ4TpzRRRJFzSgAQ1oQAMa0IAGNKABDWhAU0xzn30060801/5MAgc4wAEOcIADHOAABzjAAQ5w6uA8fW+gpb438GJGfW9gz8qesB0f7+wcHIAUpCAFKUhBClKQghSkIAUpSEEK0tdBamekTkKRdjPSXs+293dBClKQghSkIAUpSEEKUpCCFKQgBenrIO0p0tPII0jtg4zUsvb2ej2QghSkIAUpSEEKUpCCFKQgBSlIQfo6SHcU6efJjCLdz0gP0qP/DqQgBSlIQQpSkIIUpCAFKUhBClKQvg7SviL9XboU6V5G+v79YLC3B1KQghSkIAUpSEEKUpCCFKQgBSlIXwfpbvaXiZmkSHcz0sFgdxekIAUpSEEKUpCCFKQgBSlIQQpSkL4W0j1F+jGkKgva/Yx0f9+2+32QghSkIAUpSEEKUpCCFKQgBSlIQdoY6RLFjZz7VqmzBzPxEl9eTJypNBP5kLTefAhnUVyOMf+25XvvVgaxFwa+jDMPJS62t8Wx6wpHZJ7EvZdMRBzeSuH2SlrGd2PTmU5l4LYMpW1slTRYHqaTJFHLeDDaYrer2WieNrKrN4qTuS8XeB0nGE7CKG1v+HKkQZv7GIVB0rmX3niSKB/Xoe9W97EYm4tp59xxvXRmjudXp350tSMu5nGnJ9Lf058Xw0nng/jwyR/eJp1hGEnx71/FryeDd+qqRN6Knvh08W9xNhyqS99sFQ3t2+14GHnT5O/kNW+3Xe/uZTPZhnaW+hKee2QM1bwfpF3leIGMrmy7a4isA48M14unvjM/9AI/tXWu/XD49UeDBky9Lu5BJPNp2l714faNc+cszha2VMedE6k5Ko6E691OfWkG8v7ibtwyvn8Bsi12ut3sR2nQKb+ukzip48s/DN+5lr5xaLhy5Mz8REyjcOT50mgvLFcPxqFldtvGnePPpHHY75u9g2dHr982hmqpSl2kq89gcHJiPLYrubU347a3Gbc7m3Hb34zb3c243duM2/3NuD3YjFuruyG/G4oza0OBZm0o0qwNhZq1oVizNhRs1oaizdpQuFkbijd7Q/Fmb2pf21C82RuKN3udeBPx7PZ25UvB62QOkXQ1vFbtXz2vVXtXz2vVvtXzWnUl0/NadR3T81p1FdPzWnUN0/NadQXT81o5YdB0u5noqpwuaLrdTHxVThY03W4mwiqnCppuNxNjlRMFTbebibLKaYKm2w3tYZuJsso5gqbb2lF27wXJ2unBtbqiutuqXavptmrXarqt2rWabqsuYJpuqy5gmm6rLmCabqsuYJpuqy5gmm4r5wm6fjcUZ5UzBV2/G4q0yrmCrt8NxVrlbEHX74airXK+oOt3Q/FWOWPQ9bupfW1D8VY5adD1qxdvX6o8uMifTIojEcj75YOR7HlIK74bt7MHG6VPQJaPN2OZvAtngRu3+t22sKx+W/TUb3a/2lOUhxTj6amt6w6cRI7DaH784MWLx4NPfVHhGWrq4CxyZXQ+U0/rKjdUHPNVjo/SiWeRXGCoB475GKz7VDh7ILUqdSEjT8Y5bqqUD8jUDxNTPSUrlYxfuu9y0tjMJt409J3EC4MUyogTOe1cy1EYSaPaTPpFjmXgrt7Q4lxrN50FPTUT1EM1S/3IH7qWPo9eujWvxjI5CRLVP6nEaBYMM9LWlvijwlNXRSifWl+WxoY6vJFoJRMvTue1aldNSB3PGplp/504w0nrP8C63pb4+TPG3O/VNIw95fB9errK3SwP5eYFqii810NaYnmBK1Xgdqy2ZuvlcVO34ciTvppvrbxPF3EyjsLZVLrihx/Ed/n5B/Nq4sT5eqICbOu5df6iNe0Q0xmPT5WG6ctgnEzEW2GLfwjj2PcNcbh6Rex7Q9nqWFuX3S9bpfH2zZ2EkWjdpLfS/VHcpDL5VM111bm/HQlLf4DUoaZx7u/y5ov5VabL29HRovPqecy85sN+o3ury+M6ks7XOo0fNdvoXq/6K7+7IzWt1WTIZ0q2MZpXi08USTf7TFF8mfXkl3pduRzo6SyetOqORTqkh4vxrB9Jvn9Y5S5NdWVdlTiJwq+yms7i2rpK4dQZesm8mlR+ce27yiSWUnW9LBeS1WWlTnhoLz7qWIbz6sIjOsLS9aYTbtVZH9vZrlrp+seynEId29vi02+fxb/OfjsXF2fnn3/+9Sfxy9lPPw/Eh5Pzk2oOTtNVWz44KkUTSSjiME2kg9ltOg+GIksRY+HEwzR58YJxBY/Lvld+nu3MTltcV19cIpnMokBMnSiWp37oJC1HLflb6VA+O3ednavUmeUp2jPZ/BbKHD/+Fz75+acntvnHO9UD2P/KB1GBAxzgAAc4wAEOcIADHOAA59XjfPvJF0UUSRc0oAENaEADGtCABjSgAQ1oQFNM881nAhWN+ogfcIADHOAABzjAAQ5wgAMc4ADnv1hv8bO8ncrISWaRFK3TLVRc/N+quDibTv25OPYioQbqldRMtF5DzUQLNRO1SxugZqK+W9RMRM1E/dIGqJlYzy9qJqJmImomomYiaiaiZuJLblEzETUTUTNRO01AzUR9t6iZiJqJqJmomyagZmI9v6iZiJqJqJmImokvPLhAzcQXOFAzETUTBWomVsNCzUTUTKxzoGaiOlAzETUTswM1E4uvRM3EcgfqQM3E11FaBDjAAQ5wgAMc4AAHOMABDnBePc7/WMUR0IAGNKABDWhAAxrQgAY0oHk9NP/fVDoBDnCAAxzgAAc4wAEOcIADnPp6qJn48oGaiYuaicJ6JVUT7ddQNdFurGpi9nvd8kxMfnpMfnaY/PSZ/Owy+dlj8rPP5OeAyc9KVYG1HHHNaItrSltcc9rimtQW16y2uKa1xTWvLa6JbXHNbJtrZttsazXXzLa5ZratNbOrV/NbcVW/fN8absgeql+gbw03ZNzXL8G3hhsy5usX2VvDDRnva5TRW8cP0zymt7E1KuOt44dpKtN72BrF7tbxwzSb6Q1sjfp166yDTPOZ3r3WKEm3jh+m+UxvXfWrzK24WaOs3Dp+yO5Zo3DcOn7IcF+jNNw6fshwX6P42zp+yHBfp7zbWo64ZjS9g61TsW0tR1yTmt7E1inCtpYjrnlN72Pr1FVba2Xkmtn0VrZOqbS1HHHNbHo3+8bRp8gLIy+ZC0t0ROtiFmypOlS7nf/rBJ2u1cl+fy+HnZ5FbXPdlX/oHR/v7BwcMEjYm5fobV5iZ/MS/c1L7G5eYm/zEvublzjYvMTKzr4pjQbi22ogwK0GItxqIMStBmLcaiDIrQai3GogzK0G4txuIM7tJvbxBuLcbiDO7XpxbmcaTkJpdKulVb2ebe/vMkjQo8EmQQ8GmwQ9FmwS9JLLJkGvuGwS9ILLJkGvt2wS9HLLJlGQVvFpNBDfBWkVn0YDEV6QVvFpNBDjBWkVn0YDUV6QVvFpNBDnBWkVn0YT+3gDcV6QVvFp1IvzntI4jTxCwz6ollZZ1t5er8cgQY8GmwQ9GGwS9FiwSdBLLpsEveKySdALLpsEvd6ySdCfjWKTKPhAIJ8G/YkqPg36w1Z8GvTnsPg06I9o8WnQn0vk06A/ssinQX+akU+D/qAjn0YDcV6QVvFpNLGPN7CRF6RVfBr1tvIdpfF5MqM09qulVeo7l/rvGCTo0WCToAeDTYIeCzYJOq1ik6DTKjYJOq1ik6DTKjYJerllkyhIq/g06LSKT4NOq/g06LSKT4NOq/g06LSKT4NOq/g06LSKT4NOq/g0GojzgrSKT6OJfbyBjbwgreLTqLeV95XG79KlNPaqpVXv3w8Ge3sMEvRosEnQg8EmQY8FmwSdVrFJ0GkVmwSdVrFJ0GkVmwS93LJJFKRVfBp0WsWnQadVfBp0WsWnQadVfBp0WsWnQadVfBp0WsWnQadVfBoNxHlBWsWn0cQ+3sBGXpBW8WnU28p3s9RtJimN3Wpp1WCwu8siQY8GmwQ9GGwS9FiwSdBpFZsEnVaxSdBpFZsEnVaxSdDLLZtEQVrFp0GnVXwadFrFp0GnVXwadFrFp0GnVXwadFrFp0GnVXwadFrFp9FAnBekVXwaTezjDWzkBWkVn0a9rXxPaXwMqY/F2/1qadX+vm33+wwS9GiwSdCDwSZBjwWbBJ1WsUnQaRWbBJ1WsUnQaRWbRFHdKSaJwmJrXBpF1aq4NIoKWXFpFNW44tIoKn/FpVFU841Lo6gcHJdGUaU4Lo2iInJcGg3EeUFaxafRxD7ewEZekFbxaZRv5V+qVHjNCzGLIxHI+2UF2axwbCu+G7ezCrClpWKX1ZxjmbwLZ4Ebt/rdtrCsflv01G92v1q52YcU46kStesOnESOw2h+/ODFi1rIT/dfoWR06uAscmV0PlOliSs3VBzzVY6P0olnkVxgqOrKeb9vuCY3zDDDDDPMMMMMM8wwwwwzzDDDDDPMMMMMM8wwwwwzzDDDDDPMMMMMM8wwwwwzzDDDDDPMMMMMM8wwwwwzzDDDDDPMMMMMM8x/KfPcDO9kFHmu/OioF2sts7vm+6rq1dh49dXYCxl5Ms5frzXayxeIp36YmL4XyNJXZOOX3tMtf7M2NrOvnp+GvpN4YZBCGXEip51rOQojaVR78/kXOZaBu3pDi3Ot3W5b9NSby131IrP6YfhylCiwEtdLt+bVWCYnQaL6J5UYzYJhRtraEn+UuFgSyqfWl6XvcqvDG4lWMvFiM85GpZqQOp41MtP+O3GGk9Z/gHW9LfHVq+Mpe+73ahrGnnL4Pj1d5W6Wh3LzAlUU3ushLbG8wJUqHjpWW7P18rip23DkSV/Nt1bep4s4GUfhbCpd8cMP4rv8/IN5NXHi/P13FWBbz63zF61ph5jOeHyqNExfBuNkIt4KW/xDGMe+b4jD1Sti3xvKVsfauux+2SqNt2/uJIxE6ya9le6P4iaVyadqrqvO/S1dcfQHSB1qGuf+Lm++mF/lXBwdHS06r57HzGs+7De6t7o8riPpfK3T+FGzje71qr/yuztS01pNhnymZIUczCsnjr1xIN2BKhERX2Y9+aVeVy4HejqLJ626Y5EO6eFiPOtHku8fVrlLU11ZVyVOovCrrKazuLauUjh1hl4yryaVX1z7rjKJpVRdL8uFZHVZqRMe2ouPOpbhvLrwiI6wdL3phFt11sd2tqtWuv6xLKdQx/a2+PTbZ/Gvs9/OxcXZ+eeff/1J/HL2088D8eHk/KSag9N01ZYPjkrRRBKKOIwSEcxu03kwFFlJk1g48TBNXrxgXMHjsu+Vn2c7s9MW19UXl0gmsygQUyeK5akfOknLUUv+VjqUz85dZ+cqdWZ5ivZMNr+FMsePm6308pR/ZuGeBXvrjStHzsxPxDQK0zVMvmmLN9/v7w8GJydvNlx4BjjAAQ5wgAMc4AAHOMABDnD+mjgint2m/wQWrlQnhevMFVEkXdCABjSgAQ1oQAMa0IAGNKABTTHNffbRrD/RXPszCRzgAAc4wAEOcIADHOAABzjAqYPz9L2BlvrewIsZ9b2BPSt7wnZ8vLNzcABSkIIUpCAFKUhBClKQghSkIAUpSF8HqZ2ROglF2s1Iez3b3t8FKUhBClKQghSkIAUpSEEKUpCCFKSvg7SnSE8jjyC1DzJSy9rb6/VAClKQghSkIAUpSEEKUpCCFKQgBenrIN1RpJ8nM4p0PyM9SI/+O5CCFKQgBSlIQQpSkIIUpCAFKUhB+jpI+4r0d+lSpHsZ6fv3g8HeHkhBClKQghSkIAUpSEEKUpCCFKQgfR2ku9lfJmaSIt3NSAeD3V2QghSkIAUpSEEKUpCCFKQgBSlIQfpaSPcU6ceQqixo9zPS/X3b7vdBClKQghSkIAUpSEEKUpCCFKQgBWljpEsUN3LuW6XOHszES3x5MXGm0kzkQ9J68yGcRXE5xvzblu+9WxnEXhj4Ms48lLjY3hbHrisckXkS914yEXF4K4XbK2kZ341NZzqVgdsylLaxVdJgeZhOkkQt48Foi92uZqN52siu3ihO5r5c4HWcYDgJo7S94cuRBm3uYxQGSedeeuNJonxch75b3cdibP55/M9FB5/LiXQSYYmz4VBcDCdvtoqG6e12PIy8afJ38pq3265397KZbEM7S30Jzz0yhmoOD9LbdrxARle23TNE1hlHhuvFU9+ZH3qBn9o61344/PqjQQOmXhf3IJL5NG2v+mP7xrlzFmcLW6rjzonUfBNHwvVup740A3l/cTduGd+/ANkWO91u9qM0gJRf10mc1PHlH4bvXEvfODRcOXJmfiKmUTjyfGm0F5arB+PQMrtt487xZzL/fajWmbRNunQMBicnxmO7kh+byU+Pyc8Ok58+k59dJj97TH72mfwcMPmxulyOuGa0xTWlLa45bXFNaotrVltc09rimtcW18S2uGa2zTWzbba1mmtm21wz29aa2SKe3d6ufPF0pR0tkq6GG7KP9NyQPaTnhuwfPTdk3Ou5IaNezw0Z83puyIjXc0PGu54beiPT9MM0j+ltTNMP00ymNzFNP0xzmd7CNP0wzWZ6A9P0wzSf6e1L0w/Xusw0n+m9S9NP9fl87wWJ/rZ1rU5V90N2j6Yfsns0/ZDdo+mHDHdNP2S4a/ohw13TDxnumn7IcNf0Q+9fuo64ZjS9g+k64prT9B6m64hrVtO7mK4jrnlN72O6jrhmNr2T6TpiW6u5Zja9mek6qj6zn55ElH5TMLXNdVf+obf4KmEGCXvzEr3NS+xsXqK/eYndzUvsbV5if/MSB5uXWNnZN6XRQHxbDQS41UCEWw2EuNVAjFsNBLnVQJRbDYS51UCc2w3Eud3EPt5AnNsNxLldL85Lv5CxWlq1+MZGBgl6NNgk6MFgk6DHgk2CXnLZJOgVl02CXnDZJOj1lk2CXm7ZJArSKj6NBuK7IK3i02ggwgvSKj6NBmK8IK3i02ggygvSKj6NBuK8IK3i02hiH28gzgvSKj6NenFe+r1X1dKqxRdjMUjQo8EmQQ8GmwQ9FmwS9JLLJkGvuGwS9ILLJkGvt2wS9Gej2CQKPhDIp0F/oopPg/6wFZ8G/TksPg36I1p8GvTnEvk06I8s8mnQn2bk06A/6Min0UCcF3w8kk+jgTgv+FAln0YDO3lBWlWkUfr1ItXSqsX3jzBI0GkVmwQ9GGwS9FiwSdBpFZsEnVaxSdBpFZsEnVaxSdDLLZtEQVrFp0Evt3wa9HLLp0GnVXwadFrFp0GnVXwadFrFp0GnVXwadFrFp9FAnBekVXwaDcR5QVrFp9HATl6QVhVplFZxr5ZWLcq8M0jQaRWbBD0YbBL0WLBJ0GkVmwSdVrFJ0GkVmwSdVrFJ0Mstm0RBWsWnQS+3fBr0csunQadVfBp0WsWnQadVfBp0WsWnQadVfBp0WsWn0UCcF6RVfBoNxHlBWsWn0cBOXpBWFWmUFsutllYtqukySNBpFZsEPRhsEvRYsEnQaRWbBJ1WsUnQaRWbBJ1WsUnQyy2bREFaxadBL7d8GvRyy6dBp1V8GnRaxadBp1V8GnRaxadBp1V8GnRaxafRQJwXpFV8Gg3EeUFaxafRwE5ekFYVaZTWJKyWVi2KFjJI0GkVmwQ9GGwS9FiwSdBpFZsEnVaxSdBpFZsEnVaxSRTVnWKSKCy2xqVBL7d8GkWFrLg0impccWkUlb/i0iiq+calUVQOjkujqFIcl0ZRETkujQbivLD0HJdGA3FeWLCOS6OBnbwgrVpqfKlS4TUvxyyORCDvlxVks8Kxrfhu3M4qwJaWil3WdI5l8i6cBW7c6nfbwrL6bdFTv9n9auVmH1KMp1LVrjtwEjkOo/nxgxcvaiI/3X+FwtGpg7PIldH5TJUortxQccxXOT5KJ55FcoGhqizn/b7hot0wwwwzzDDDDDPMMMMMM8wwwwwzzDDDDDPMMMMMM8wwwwwzzDDDDDPMMMMMM8wwwwwzzDDDDDPMMMMMM8wwwwwzzDDDDDPMMP+lzHMzvJNR5Lnyo6NerLXM7prvq6pXY+PVV2MvZOTJOH+91mgvXyCe+mFi+l4gS1+RjV96T7f8zdrYzL56fhr6TuKFQQplxImcdq7lKIykUe3N51/kWAbu6g0tzrV2u23RU28ud9WLzOqH4ctRosBKXC/dmldjmZwEieqfVGI0C4YZaWtL/FHiYkkon1pflr7LrQ5vJFrJxIvNOBuVakLqeNbITPvvxBlOWv8B1vW2xFevjqfsud+raRh7yuH79HSVu1keys0LVFF4r4e0xPICV6p46FhtzdbL46Zuw5EnfTXfWnmfLuJkHIWzqXTFDz+I7/LzD+bVxInz999VgG09t85ftKYdYjrj8anSMH0ZjJOJeCts8Q9hHPu+IQ5Xr4h9byhbHWvrsvtlqzTevrmTMBKtm/RWuj+Km1Qmn6q5rjr3t3TF0R8gdahpnPu7vPlifpVzcXR0tOi8eh4zr/mw3+je6vK4jqTztU7jR802uter/srv7khNazUZ8pmSFXIwr5w49saBdAeqRER8mfXkl3pduRzo6SyetOqORTqkh4vxrB9Jvn9Y5S5NdWVdlTiJwq+yms7i2rpK4dQZesm8mlR+ce27yiSWUnW9LBeS1WWlTnhoLz7qWIbz6sIjOsLS9aYTbtVZH9vZrlrp+seynEId29vi02+fxb/OfjsXF2fnn3/+9Sfxy9lPPw/Eh5Pzk2oOTtNVWz44KkUTSSjiMEpEMLtN58FQZCVNYuHEwzR58YJxBY/Lvld+nu3MTltcV19cIpnMokBMnSiWp37oJC1HLflb6VA+O3ednavUmeUp2jPZ/BbKHD9uttLLU/6ZhXsW7K03rhw5Mz8R0yhM1zD5pi3efL+/PxicnLzZcOEZ4AAHOMABDnCAAxzgAAc4wPlr4oh4dpv+E1i4Up0UrjNXRJF0QQMa0IAGNKABDWhAAxrQgAY0xTT32Uez/kRz7c8kcIADHOAABzjAAQ5wgAMc4ACnDs7T9wZa6nsDL2bU9wb2rOwJ2/Hxzs7BAUhBClKQghSkIAUpSEEKUpCCFKQgfR2kdkbqJBRpNyPt9Wx7fxekIAUpSEEKUpCCFKQgBSlIQQpSkL4O0p4iPY08gtQ+yEgta2+v1wMpSEEKUpCCFKQgBSlIQQpSkIIUpK+DdEeRfp7MKNL9jPQgPfrvQApSkIIUpCAFKUhBClKQghSkIAXp6yDtK9LfpUuR7mWk798PBnt7IAUpSEEKUpCCFKQgBSlIQQpSkIL0dZDuZn+ZmEmKdDcjHQx2d0EKUpCCFKQgBSlIQQpSkIIUpCAF6Wsh3VOkH0OqsqDdz0j392273wcpSEEKUpCCFKQgBSlIQQpSkIIUpI2RLlHcyLlvlTp7MBMv8eXFxJlKM5EPSevNh3AWxeUY829bvvduZRB7YeDLOPNQ4mJ7Wxy7rnBE5knce8lExOGtFG6vpGV8Nzad6VQGbstQ2sZWSYPlYTpJErWMB6MtdruajeZpI7t6oziZ+3KB13GC4SSM0vaGL0catLmPURgknXvpjSeJ8nEd+m51H4ux+efxPxcdfC4n0knE2XAoLoaTN1tFg/R2Ox5G3jT5O3nN223Xu3vZTLahnaW+hOceGUM1gwfpTTteIKMr294xRNYVR4brxVPfmR96gZ/aOtd+OPz6o0EDpl4X9yCS+TRtr3pj+8a5cxZnC1uq486J1GwTR8L1bqe+NAN5f3E3bhnfvwDZFjvdbvajNHyUX9dJnNTx5R+G71xL3zg0XDlyZn4iplE48nxptBeWqwfj0DK7bePO8WfSONw9MA+eHfsHbWOo1pzUQ7qMDAYnJ8Zju5JXeyNeexvxurMRr/2NeN3diNe9jXjd34jXg414tbqbcbuZ6LI2E17WZuLL2kyAWZuJMGszIWZtJsaszQSZtZkoszcTZfaG9rDNRJm9mSiz14gyEc9ub1e+xrtGhhBJV8Npxb7Vc1qxZ/WcVuxXPacV1y49pxVXLj2nFdctPacVVy09pxXXLD2nVRMDTa8biamqaYGm141EVdWkQNPrRuKqakqg6XUjkVU1IdD0upHYqpoOaHrdzH61kdiqmgtoeq0bW/dekKybBlyrC6p7rditml4rdqum14rdqum14pKl6bXikqXpteKSpem14pKl6bXikqXptWo+oOt2M9FVNSPQdbuZ+KqaE+i63UyEVc0KdN1uJsaq5gW6bjcTZVUzA123G9rDNhNlVZMDXbdaUfalygOH/NmgOBKBvF8+0MieY7Tiu3E7eyBR+uRi+YAxlsm7cBa4cavfbQvL6rdFT/1m96s9/XhIMZ6em7ruwEnkOIzmxw9evHhA99QVFZ5ipg7OIldG5zP1vKxyQ8UxX+X4KJ14FskFhnrklw/Bus9lswdJq1IXMvJknOOmSvmATP0wMdXTrVLJ+KX7LieNzWzeTUPfSbwwSKGMOJHTzrUchZE0qs2kX+RYBu7qDS3OtXbTWdBTM0E9DLPUj/yxZ+kT4aVb82osk5MgUf2TSoxmwTAjbW2JPyo891SE8qn1ZWlsqMMbiVYy8eJ0Xqt21YTU8ayRmfbfiTOctP4DrOttiZ8/G8z9Xk3D2FMO36enq9zN8lBuXqCKwns9pCWWF7hSBW7Hamu2Xh43dRuOPOmr+dbK+3QRJ+MonE2lK374QXyXn38wryZOnK8nKsC2nlvnL1rTDjGd8fhUaZi+DMbJRLwVtviHMI593xCHq1fEvjeUrY61ddn9slUab9/cSRiJ1k16K90fxU0qk0/VXFed+9uRsPQHSB1qGuf+Lm++mF9lurwdHS06r57HzGs+7De6t7o8riPpfK3T+FGzje71qr/yuztS01pNhnymZBujebX4TI90s0/1xJdZT36p15XLgZ7O4kmr7likQ3q4GM/6keT7h1Xu0lRX1lWJkyj8KqvpLK6tqxROnaGXzKtJ5RfXvqtMYilV18tyIVldVuqEh/bio45lOK8uPKIjLF1vOuFWnfWxne2qla5/LMsp1LG9LT799ln86+y3c3Fxdv75519/Er+c/fTzQHw4OT+p5uA0XbXlg6NSNJGEIg7TRDqY3abzYCiyFDEWTjxMkxcvGFfwuOx75efZzuy0xXX1xSWSySwKxNSJYnnqh07SctSSv5UO5bNz19m5Sp1ZnqI9k81voczx43/hs5d/egCbf8BSPVD9r3wUFDjAAQ5wgAMc4AAHOMABDnBePc63H3BRRJF0QQMa0IAGNKABDWhAAxrQgAY0xTTffCRQ0aiP+AEHOMABDnCAAxzgAAc4wAEOcP6LFQ8/y9upjJxkFknROt1CzcP/qZqHvztqxn2Q2X+Ob689GSRCDZmqfCjdWdr/HbHXPX0lRRD7r6EIYr+xIojZq6d1izAx+ekx+dlh8tNn8rPL5GePyc8+k58DJj8r1QXWcsQ1oy2uKW1xzWmLa1JbXLPa4prWFte8trgmtsU1s22umW2zrdVcM9vmmtm21syuXrRvxVX9Mn1ruCF7qH4pvjXckHFfv9zeGm7ImK9fUm8NN2S8r1E2bx0/TPOY3sbWKIa3jh+mqUzvYWuUuFvHD9NspjewNQrXrbMOMs1nevdaoxzdOn6Y5jO9ddUvMrfiZo2ycuv4IbtnjdJx6/ghw32N8nDr+CHDfY0ScOv4IcN9nTJvaznimtH0DrZO8ba1HHFNanoTW6ck21qOuOY1vY+tU2htrZWRa2bTW9k65dPWcsQ1s+ndDEXRXkVRNJhhhhlmmGGGGWaYYYYZZphhhhlmmP+XzHMzvJNR5Lnyo6P+UGWZXRTFf3YnKIr/dKAovtaBovgoiq9xoCj+nw8Uxf/zgaL4mgeK4qMo/osHiuIDBzjAAQ5wgAMc4AAHOMABDnBeQ0lJ0IAGNKABDWhAAxrQgAY0oHk9NP/flLIEDnCAAxzgAAc4wAEOcIADnPp6/4Wi+O+9WxnEXhj4Mo5REv9/qyR+GH0VJ6ORN/RkMJw/FcJvtgR+fvWfLM//f/n74r9P3vNfnv5zHbpz9d9Jcuv//f/8P2iBSCI="
               },
               {
                  "name" : "annual_peak_electric_demand",
                  "units" : "kW",
                  "value" : 662.68879000000004
               },
               {
                  "name" : "first_year_capital_cost",
                  "units" : "$",
                  "value" : 0
               },
               {
                  "name" : "annual_utility_cost",
                  "units" : "$",
                  "value" : 0
               },
               {
                  "name" : "total_lifecycle_cost",
                  "units" : "$",
                  "value" : 0
               }
            ],
            "step_warnings" : []
         }
      }
   ],
   "updated_at" : "20170710T192055Z",
   "weather_file" : "USA_CO_Denver.Intl.AP.725650_TMY3.epw"
}
