{
   "completed_at" : "20170710T182804Z",
   "completed_status" : "Success",
   "created_at" : "2017-07-10 18:23:39 +0000",
   "current_step" : 5,
   "description" : "",
   "eplusout_err" : "Program Version,EnergyPlus, Version 8.7.0-78a111df4a, YMD=2017.07.10 18:25,IDD_Version 8.7.0\n   ************* IDF Context for following error/warning message:\n   ************* Note -- lines truncated at 300 characters, if necessary...\n   *************      5 Building,\n   ************* indicated Name=NECB 2011-MidriseApartment-NECB HDD Method-CAN_ON_Timmins.717390_CWEC.epw created: 2017-07-10 18:23:48 +0000\n   ************* Only last 1 lines before error line shown.....\n   *************      6   NECB 2011-MidriseApartment-NECB HDD Method-CAN_ON_Timmins.717390_CWEC.epw created: 2017-07-10 18:23:48 +0000, !- Name\n   ** Warning ** IP: IDF line~6 Alpha Argument length exceeds maximum, will be truncated=  NECB 2011-MidriseApartment-NECB HDD Method-CAN_ON_Timmins.717390_CWEC.epw created: 2017-07-10 18:23:48 +000\n   **   ~~~   ** Will be processed as Alpha=NECB 2011-MIDRISEAPARTMENT-NECB HDD METHOD-CAN_ON_TIMMINS.717390_CWEC.EPW CREATED: 2017-07-10 18:23:48 +0000\n   ************* Beginning Zone Sizing Calculations\n   ** Warning ** ProcessScheduleInput: Schedule:Day:Interval=\"ECONOMIZER MAX OA FRACTION 100 PCT DEFAULT\", Blank Schedule Type Limits Name input -- will not be validated.\n   ** Warning ** ProcessScheduleInput: Schedule:Day:Interval=\"SCHEDULE DAY 1\", Blank Schedule Type Limits Name input -- will not be validated.\n   ** Warning ** ProcessScheduleInput: Schedule:Day:Interval=\"SCHEDULE DAY 10\", Blank Schedule Type Limits Name input -- will not be validated.\n   ** Warning ** ProcessScheduleInput: Schedule:Day:Interval=\"SCHEDULE DAY 11\", Blank Schedule Type Limits Name input -- will not be validated.\n   ** Warning ** ProcessScheduleInput: Schedule:Day:Interval=\"SCHEDULE DAY 12\", Blank Schedule Type Limits Name input -- will not be validated.\n   ** Warning ** ProcessScheduleInput: Schedule:Day:Interval=\"SCHEDULE DAY 13\", Blank Schedule Type Limits Name input -- will not be validated.\n   ** Warning ** ProcessScheduleInput: Schedule:Day:Interval=\"SCHEDULE DAY 14\", Blank Schedule Type Limits Name input -- will not be validated.\n   ** Warning ** ProcessScheduleInput: Schedule:Day:Interval=\"SCHEDULE DAY 15\", Blank Schedule Type Limits Name input -- will not be validated.\n   ** Warning ** ProcessScheduleInput: Schedule:Day:Interval=\"SCHEDULE DAY 16\", Blank Schedule Type Limits Name input -- will not be validated.\n   ** Warning ** ProcessScheduleInput: Schedule:Day:Interval=\"SCHEDULE DAY 17\", Blank Schedule Type Limits Name input -- will not be validated.\n   ** Warning ** ProcessScheduleInput: Schedule:Day:Interval=\"SCHEDULE DAY 18\", Blank Schedule Type Limits Name input -- will not be validated.\n   ** Warning ** ProcessScheduleInput: Schedule:Day:Interval=\"SCHEDULE DAY 19\", Blank Schedule Type Limits Name input -- will not be validated.\n   ** Warning ** ProcessScheduleInput: Schedule:Day:Interval=\"SCHEDULE DAY 2\", Blank Schedule Type Limits Name input -- will not be validated.\n   ** Warning ** ProcessScheduleInput: Schedule:Day:Interval=\"SCHEDULE DAY 20\", Blank Schedule Type Limits Name input -- will not be validated.\n   ** Warning ** ProcessScheduleInput: Schedule:Day:Interval=\"SCHEDULE DAY 21\", Blank Schedule Type Limits Name input -- will not be validated.\n   ** Warning ** ProcessScheduleInput: Schedule:Day:Interval=\"SCHEDULE DAY 22\", Blank Schedule Type Limits Name input -- will not be validated.\n   ** Warning ** ProcessScheduleInput: Schedule:Day:Interval=\"SCHEDULE DAY 23\", Blank Schedule Type Limits Name input -- will not be validated.\n   ** Warning ** ProcessScheduleInput: Schedule:Day:Interval=\"SCHEDULE DAY 24\", Blank Schedule Type Limits Name input -- will not be validated.\n   ** Warning ** ProcessScheduleInput: Schedule:Day:Interval=\"SCHEDULE DAY 25\", Blank Schedule Type Limits Name input -- will not be validated.\n   ** Warning ** ProcessScheduleInput: Schedule:Day:Interval=\"SCHEDULE DAY 26\", Blank Schedule Type Limits Name input -- will not be validated.\n   ** Warning ** ProcessScheduleInput: Schedule:Day:Interval=\"SCHEDULE DAY 27\", Blank Schedule Type Limits Name input -- will not be validated.\n   ** Warning ** ProcessScheduleInput: Schedule:Day:Interval=\"SCHEDULE DAY 28\", Blank Schedule Type Limits Name input -- will not be validated.\n   ** Warning ** ProcessScheduleInput: Schedule:Day:Interval=\"SCHEDULE DAY 29\", Blank Schedule Type Limits Name input -- will not be validated.\n   ** Warning ** ProcessScheduleInput: Schedule:Day:Interval=\"SCHEDULE DAY 30\", Blank Schedule Type Limits Name input -- will not be validated.\n   ** Warning ** ProcessScheduleInput: Schedule:Day:Interval=\"SCHEDULE DAY 31\", Blank Schedule Type Limits Name input -- will not be validated.\n   ** Warning ** ProcessScheduleInput: Schedule:Day:Interval=\"SCHEDULE DAY 32\", Blank Schedule Type Limits Name input -- will not be validated.\n   ** Warning ** ProcessScheduleInput: Schedule:Day:Interval=\"SCHEDULE DAY 33\", Blank Schedule Type Limits Name input -- will not be validated.\n   ** Warning ** ProcessScheduleInput: Schedule:Day:Interval=\"SCHEDULE DAY 34\", Blank Schedule Type Limits Name input -- will not be validated.\n   ** Warning ** ProcessScheduleInput: Schedule:Day:Interval=\"SCHEDULE DAY 35\", Blank Schedule Type Limits Name input -- will not be validated.\n   ** Warning ** ProcessScheduleInput: Schedule:Day:Interval=\"SCHEDULE DAY 36\", Blank Schedule Type Limits Name input -- will not be validated.\n   ** Warning ** ProcessScheduleInput: Schedule:Day:Interval=\"SCHEDULE DAY 37\", Blank Schedule Type Limits Name input -- will not be validated.\n   ** Warning ** ProcessScheduleInput: Schedule:Day:Interval=\"SCHEDULE DAY 38\", Blank Schedule Type Limits Name input -- will not be validated.\n   ** Warning ** ProcessScheduleInput: Schedule:Day:Interval=\"SCHEDULE DAY 39\", Blank Schedule Type Limits Name input -- will not be validated.\n   ** Warning ** ProcessScheduleInput: Schedule:Day:Interval=\"SCHEDULE DAY 40\", Blank Schedule Type Limits Name input -- will not be validated.\n   ** Warning ** ProcessScheduleInput: Schedule:Day:Interval=\"SCHEDULE DAY 41\", Blank Schedule Type Limits Name input -- will not be validated.\n   ** Warning ** ProcessScheduleInput: Schedule:Day:Interval=\"SCHEDULE DAY 42\", Blank Schedule Type Limits Name input -- will not be validated.\n   ** Warning ** ProcessScheduleInput: Schedule:Day:Interval=\"SCHEDULE DAY 43\", Blank Schedule Type Limits Name input -- will not be validated.\n   ** Warning ** ProcessScheduleInput: Schedule:Day:Interval=\"SCHEDULE DAY 44\", Blank Schedule Type Limits Name input -- will not be validated.\n   ** Warning ** ProcessScheduleInput: Schedule:Day:Interval=\"SCHEDULE DAY 45\", Blank Schedule Type Limits Name input -- will not be validated.\n   ** Warning ** ProcessScheduleInput: Schedule:Day:Interval=\"SCHEDULE DAY 46\", Blank Schedule Type Limits Name input -- will not be validated.\n   ** Warning ** ProcessScheduleInput: Schedule:Day:Interval=\"SCHEDULE DAY 47\", Blank Schedule Type Limits Name input -- will not be validated.\n   ** Warning ** ProcessScheduleInput: Schedule:Day:Interval=\"SCHEDULE DAY 48\", Blank Schedule Type Limits Name input -- will not be validated.\n   ** Warning ** ProcessScheduleInput: Schedule:Day:Interval=\"SCHEDULE DAY 49\", Blank Schedule Type Limits Name input -- will not be validated.\n   ** Warning ** ProcessScheduleInput: Schedule:Day:Interval=\"SCHEDULE DAY 50\", Blank Schedule Type Limits Name input -- will not be validated.\n   ** Warning ** ProcessScheduleInput: Schedule:Day:Interval=\"SCHEDULE DAY 51\", Blank Schedule Type Limits Name input -- will not be validated.\n   ** Warning ** ProcessScheduleInput: Schedule:Day:Interval=\"SCHEDULE DAY 52\", Blank Schedule Type Limits Name input -- will not be validated.\n   ** Warning ** ProcessScheduleInput: Schedule:Day:Interval=\"SCHEDULE DAY 53\", Blank Schedule Type Limits Name input -- will not be validated.\n   ** Warning ** ProcessScheduleInput: Schedule:Day:Interval=\"SCHEDULE DAY 54\", Blank Schedule Type Limits Name input -- will not be validated.\n   ** Warning ** ProcessScheduleInput: Schedule:Day:Interval=\"SCHEDULE DAY 55\", Blank Schedule Type Limits Name input -- will not be validated.\n   ** Warning ** ProcessScheduleInput: Schedule:Day:Interval=\"SCHEDULE DAY 56\", Blank Schedule Type Limits Name input -- will not be validated.\n   ** Warning ** ProcessScheduleInput: Schedule:Day:Interval=\"SCHEDULE DAY 57\", Blank Schedule Type Limits Name input -- will not be validated.\n   ** Warning ** ProcessScheduleInput: Schedule:Day:Interval=\"SCHEDULE DAY 58\", Blank Schedule Type Limits Name input -- will not be validated.\n   ** Warning ** ProcessScheduleInput: Schedule:Day:Interval=\"SCHEDULE DAY 59\", Blank Schedule Type Limits Name input -- will not be validated.\n   ** Warning ** ProcessScheduleInput: Schedule:Day:Interval=\"SCHEDULE DAY 6\", Blank Schedule Type Limits Name input -- will not be validated.\n   ** Warning ** ProcessScheduleInput: Schedule:Day:Interval=\"SCHEDULE DAY 60\", Blank Schedule Type Limits Name input -- will not be validated.\n   ** Warning ** ProcessScheduleInput: Schedule:Day:Interval=\"SCHEDULE DAY 61\", Blank Schedule Type Limits Name input -- will not be validated.\n   ** Warning ** ProcessScheduleInput: Schedule:Day:Interval=\"SCHEDULE DAY 62\", Blank Schedule Type Limits Name input -- will not be validated.\n   ** Warning ** ProcessScheduleInput: Schedule:Day:Interval=\"SCHEDULE DAY 63\", Blank Schedule Type Limits Name input -- will not be validated.\n   ** Warning ** ProcessScheduleInput: Schedule:Day:Interval=\"SCHEDULE DAY 64\", Blank Schedule Type Limits Name input -- will not be validated.\n   ** Warning ** ProcessScheduleInput: Schedule:Day:Interval=\"SCHEDULE DAY 65\", Blank Schedule Type Limits Name input -- will not be validated.\n   ** Warning ** ProcessScheduleInput: Schedule:Day:Interval=\"SCHEDULE DAY 66\", Blank Schedule Type Limits Name input -- will not be validated.\n   ** Warning ** ProcessScheduleInput: Schedule:Day:Interval=\"SCHEDULE DAY 67\", Blank Schedule Type Limits Name input -- will not be validated.\n   ** Warning ** ProcessScheduleInput: Schedule:Day:Interval=\"SCHEDULE DAY 68\", Blank Schedule Type Limits Name input -- will not be validated.\n   ** Warning ** ProcessScheduleInput: Schedule:Day:Interval=\"SCHEDULE DAY 69\", Blank Schedule Type Limits Name input -- will not be validated.\n   ** Warning ** ProcessScheduleInput: Schedule:Day:Interval=\"SCHEDULE DAY 7\", Blank Schedule Type Limits Name input -- will not be validated.\n   ** Warning ** ProcessScheduleInput: Schedule:Day:Interval=\"SCHEDULE DAY 70\", Blank Schedule Type Limits Name input -- will not be validated.\n   ** Warning ** ProcessScheduleInput: Schedule:Day:Interval=\"SCHEDULE DAY 71\", Blank Schedule Type Limits Name input -- will not be validated.\n   ** Warning ** ProcessScheduleInput: Schedule:Day:Interval=\"SCHEDULE DAY 72\", Blank Schedule Type Limits Name input -- will not be validated.\n   ** Warning ** ProcessScheduleInput: Schedule:Day:Interval=\"SCHEDULE DAY 73\", Blank Schedule Type Limits Name input -- will not be validated.\n   ** Warning ** ProcessScheduleInput: Schedule:Day:Interval=\"SCHEDULE DAY 74\", Blank Schedule Type Limits Name input -- will not be validated.\n   ** Warning ** ProcessScheduleInput: Schedule:Day:Interval=\"SCHEDULE DAY 75\", Blank Schedule Type Limits Name input -- will not be validated.\n   ** Warning ** ProcessScheduleInput: Schedule:Day:Interval=\"SCHEDULE DAY 76\", Blank Schedule Type Limits Name input -- will not be validated.\n   ** Warning ** ProcessScheduleInput: Schedule:Day:Interval=\"SCHEDULE DAY 77\", Blank Schedule Type Limits Name input -- will not be validated.\n   ** Warning ** ProcessScheduleInput: Schedule:Day:Interval=\"SCHEDULE DAY 78\", Blank Schedule Type Limits Name input -- will not be validated.\n   ** Warning ** ProcessScheduleInput: Schedule:Day:Interval=\"SCHEDULE DAY 79\", Blank Schedule Type Limits Name input -- will not be validated.\n   ** Warning ** ProcessScheduleInput: Schedule:Day:Interval=\"SCHEDULE DAY 8\", Blank Schedule Type Limits Name input -- will not be validated.\n   ** Warning ** ProcessScheduleInput: Schedule:Day:Interval=\"SCHEDULE DAY 9\", Blank Schedule Type Limits Name input -- will not be validated.\n   ** Warning ** ProcessScheduleInput: Schedule:Year=\"ECONOMIZER MAX OA FRACTION 100 PCT\", Blank Schedule Type Limits Name input -- will not be validated.\n   ** Warning ** ProcessScheduleInput: Schedule:Year=\"SCHEDULE RULESET 10\", Blank Schedule Type Limits Name input -- will not be validated.\n   ** Warning ** ProcessScheduleInput: Schedule:Year=\"SCHEDULE RULESET 11\", Blank Schedule Type Limits Name input -- will not be validated.\n   ** Warning ** ProcessScheduleInput: Schedule:Year=\"SCHEDULE RULESET 12\", Blank Schedule Type Limits Name input -- will not be validated.\n   ** Warning ** ProcessScheduleInput: Schedule:Year=\"SCHEDULE RULESET 13\", Blank Schedule Type Limits Name input -- will not be validated.\n   ** Warning ** ProcessScheduleInput: Schedule:Year=\"SCHEDULE RULESET 14\", Blank Schedule Type Limits Name input -- will not be validated.\n   ** Warning ** ProcessScheduleInput: Schedule:Year=\"SCHEDULE RULESET 15\", Blank Schedule Type Limits Name input -- will not be validated.\n   ** Warning ** ProcessScheduleInput: Schedule:Year=\"SCHEDULE RULESET 16\", Blank Schedule Type Limits Name input -- will not be validated.\n   ** Warning ** ProcessScheduleInput: Schedule:Year=\"SCHEDULE RULESET 17\", Blank Schedule Type Limits Name input -- will not be validated.\n   ** Warning ** ProcessScheduleInput: Schedule:Year=\"SCHEDULE RULESET 18\", Blank Schedule Type Limits Name input -- will not be validated.\n   ** Warning ** ProcessScheduleInput: Schedule:Year=\"SCHEDULE RULESET 19\", Blank Schedule Type Limits Name input -- will not be validated.\n   ** Warning ** ProcessScheduleInput: Schedule:Year=\"SCHEDULE RULESET 20\", Blank Schedule Type Limits Name input -- will not be validated.\n   ** Warning ** ProcessScheduleInput: Schedule:Year=\"SCHEDULE RULESET 21\", Blank Schedule Type Limits Name input -- will not be validated.\n   ** Warning ** ProcessScheduleInput: Schedule:Year=\"SCHEDULE RULESET 22\", Blank Schedule Type Limits Name input -- will not be validated.\n   ** Warning ** ProcessScheduleInput: Schedule:Year=\"SCHEDULE RULESET 23\", Blank Schedule Type Limits Name input -- will not be validated.\n   ** Warning ** ProcessScheduleInput: Schedule:Year=\"SCHEDULE RULESET 24\", Blank Schedule Type Limits Name input -- will not be validated.\n   ** Warning ** ProcessScheduleInput: Schedule:Year=\"SCHEDULE RULESET 25\", Blank Schedule Type Limits Name input -- will not be validated.\n   ** Warning ** ProcessScheduleInput: Schedule:Year=\"SCHEDULE RULESET 26\", Blank Schedule Type Limits Name input -- will not be validated.\n   ** Warning ** ProcessScheduleInput: Schedule:Year=\"SCHEDULE RULESET 27\", Blank Schedule Type Limits Name input -- will not be validated.\n   ** Warning ** ProcessScheduleInput: Schedule:Year=\"SCHEDULE RULESET 28\", Blank Schedule Type Limits Name input -- will not be validated.\n   ** Warning ** ProcessScheduleInput: Schedule:Year=\"SCHEDULE RULESET 29\", Blank Schedule Type Limits Name input -- will not be validated.\n   ** Warning ** ProcessScheduleInput: Schedule:Year=\"SCHEDULE RULESET 3\", Blank Schedule Type Limits Name input -- will not be validated.\n   ** Warning ** ProcessScheduleInput: Schedule:Year=\"SCHEDULE RULESET 30\", Blank Schedule Type Limits Name input -- will not be validated.\n   ** Warning ** ProcessScheduleInput: Schedule:Year=\"SCHEDULE RULESET 31\", Blank Schedule Type Limits Name input -- will not be validated.\n   ** Warning ** ProcessScheduleInput: Schedule:Year=\"SCHEDULE RULESET 32\", Blank Schedule Type Limits Name input -- will not be validated.\n   ** Warning ** ProcessScheduleInput: Schedule:Year=\"SCHEDULE RULESET 33\", Blank Schedule Type Limits Name input -- will not be validated.\n   ** Warning ** ProcessScheduleInput: Schedule:Year=\"SCHEDULE RULESET 34\", Blank Schedule Type Limits Name input -- will not be validated.\n   ** Warning ** ProcessScheduleInput: Schedule:Year=\"SCHEDULE RULESET 35\", Blank Schedule Type Limits Name input -- will not be validated.\n   ** Warning ** ProcessScheduleInput: Schedule:Year=\"SCHEDULE RULESET 36\", Blank Schedule Type Limits Name input -- will not be validated.\n   ** Warning ** ProcessScheduleInput: Schedule:Year=\"SCHEDULE RULESET 37\", Blank Schedule Type Limits Name input -- will not be validated.\n   ** Warning ** ProcessScheduleInput: Schedule:Year=\"SCHEDULE RULESET 38\", Blank Schedule Type Limits Name input -- will not be validated.\n   ** Warning ** ProcessScheduleInput: Schedule:Year=\"SCHEDULE RULESET 39\", Blank Schedule Type Limits Name input -- will not be validated.\n   ** Warning ** ProcessScheduleInput: Schedule:Year=\"SCHEDULE RULESET 4\", Blank Schedule Type Limits Name input -- will not be validated.\n   ** Warning ** ProcessScheduleInput: Schedule:Year=\"SCHEDULE RULESET 40\", Blank Schedule Type Limits Name input -- will not be validated.\n   ** Warning ** ProcessScheduleInput: Schedule:Year=\"SCHEDULE RULESET 41\", Blank Schedule Type Limits Name input -- will not be validated.\n   ** Warning ** ProcessScheduleInput: Schedule:Year=\"SCHEDULE RULESET 42\", Blank Schedule Type Limits Name input -- will not be validated.\n   ** Warning ** ProcessScheduleInput: Schedule:Year=\"SCHEDULE RULESET 43\", Blank Schedule Type Limits Name input -- will not be validated.\n   ** Warning ** ProcessScheduleInput: Schedule:Year=\"SCHEDULE RULESET 44\", Blank Schedule Type Limits Name input -- will not be validated.\n   ** Warning ** ProcessScheduleInput: Schedule:Year=\"SCHEDULE RULESET 45\", Blank Schedule Type Limits Name input -- will not be validated.\n   ** Warning ** ProcessScheduleInput: Schedule:Year=\"SCHEDULE RULESET 46\", Blank Schedule Type Limits Name input -- will not be validated.\n   ** Warning ** ProcessScheduleInput: Schedule:Year=\"SCHEDULE RULESET 47\", Blank Schedule Type Limits Name input -- will not be validated.\n   ** Warning ** ProcessScheduleInput: Schedule:Year=\"SCHEDULE RULESET 48\", Blank Schedule Type Limits Name input -- will not be validated.\n   ** Warning ** ProcessScheduleInput: Schedule:Year=\"SCHEDULE RULESET 49\", Blank Schedule Type Limits Name input -- will not be validated.\n   ** Warning ** ProcessScheduleInput: Schedule:Year=\"SCHEDULE RULESET 5\", Blank Schedule Type Limits Name input -- will not be validated.\n   ** Warning ** ProcessScheduleInput: Schedule:Year=\"SCHEDULE RULESET 50\", Blank Schedule Type Limits Name input -- will not be validated.\n   ** Warning ** ProcessScheduleInput: Schedule:Year=\"SCHEDULE RULESET 51\", Blank Schedule Type Limits Name input -- will not be validated.\n   ** Warning ** ProcessScheduleInput: Schedule:Year=\"SCHEDULE RULESET 52\", Blank Schedule Type Limits Name input -- will not be validated.\n   ** Warning ** ProcessScheduleInput: Schedule:Year=\"SCHEDULE RULESET 53\", Blank Schedule Type Limits Name input -- will not be validated.\n   ** Warning ** ProcessScheduleInput: Schedule:Year=\"SCHEDULE RULESET 54\", Blank Schedule Type Limits Name input -- will not be validated.\n   ** Warning ** ProcessScheduleInput: Schedule:Year=\"SCHEDULE RULESET 55\", Blank Schedule Type Limits Name input -- will not be validated.\n   ** Warning ** ProcessScheduleInput: Schedule:Year=\"SCHEDULE RULESET 56\", Blank Schedule Type Limits Name input -- will not be validated.\n   ** Warning ** ProcessScheduleInput: Schedule:Year=\"SCHEDULE RULESET 57\", Blank Schedule Type Limits Name input -- will not be validated.\n   ** Warning ** ProcessScheduleInput: Schedule:Year=\"SCHEDULE RULESET 58\", Blank Schedule Type Limits Name input -- will not be validated.\n   ** Warning ** ProcessScheduleInput: Schedule:Year=\"SCHEDULE RULESET 59\", Blank Schedule Type Limits Name input -- will not be validated.\n   ** Warning ** ProcessScheduleInput: Schedule:Year=\"SCHEDULE RULESET 6\", Blank Schedule Type Limits Name input -- will not be validated.\n   ** Warning ** ProcessScheduleInput: Schedule:Year=\"SCHEDULE RULESET 60\", Blank Schedule Type Limits Name input -- will not be validated.\n   ** Warning ** ProcessScheduleInput: Schedule:Year=\"SCHEDULE RULESET 61\", Blank Schedule Type Limits Name input -- will not be validated.\n   ** Warning ** ProcessScheduleInput: Schedule:Year=\"SCHEDULE RULESET 62\", Blank Schedule Type Limits Name input -- will not be validated.\n   ** Warning ** ProcessScheduleInput: Schedule:Year=\"SCHEDULE RULESET 63\", Blank Schedule Type Limits Name input -- will not be validated.\n   ** Warning ** ProcessScheduleInput: Schedule:Year=\"SCHEDULE RULESET 64\", Blank Schedule Type Limits Name input -- will not be validated.\n   ** Warning ** ProcessScheduleInput: Schedule:Year=\"SCHEDULE RULESET 65\", Blank Schedule Type Limits Name input -- will not be validated.\n   ** Warning ** ProcessScheduleInput: Schedule:Year=\"SCHEDULE RULESET 66\", Blank Schedule Type Limits Name input -- will not be validated.\n   ** Warning ** ProcessScheduleInput: Schedule:Year=\"SCHEDULE RULESET 67\", Blank Schedule Type Limits Name input -- will not be validated.\n   ** Warning ** ProcessScheduleInput: Schedule:Year=\"SCHEDULE RULESET 68\", Blank Schedule Type Limits Name input -- will not be validated.\n   ** Warning ** ProcessScheduleInput: Schedule:Year=\"SCHEDULE RULESET 69\", Blank Schedule Type Limits Name input -- will not be validated.\n   ** Warning ** ProcessScheduleInput: Schedule:Year=\"SCHEDULE RULESET 7\", Blank Schedule Type Limits Name input -- will not be validated.\n   ** Warning ** ProcessScheduleInput: Schedule:Year=\"SCHEDULE RULESET 70\", Blank Schedule Type Limits Name input -- will not be validated.\n   ** Warning ** ProcessScheduleInput: Schedule:Year=\"SCHEDULE RULESET 71\", Blank Schedule Type Limits Name input -- will not be validated.\n   ** Warning ** ProcessScheduleInput: Schedule:Year=\"SCHEDULE RULESET 72\", Blank Schedule Type Limits Name input -- will not be validated.\n   ** Warning ** ProcessScheduleInput: Schedule:Year=\"SCHEDULE RULESET 73\", Blank Schedule Type Limits Name input -- will not be validated.\n   ** Warning ** ProcessScheduleInput: Schedule:Year=\"SCHEDULE RULESET 74\", Blank Schedule Type Limits Name input -- will not be validated.\n   ** Warning ** ProcessScheduleInput: Schedule:Year=\"SCHEDULE RULESET 8\", Blank Schedule Type Limits Name input -- will not be validated.\n   ** Warning ** ProcessScheduleInput: Schedule:Year=\"SCHEDULE RULESET 9\", Blank Schedule Type Limits Name input -- will not be validated.\n   ** Warning ** ProcessScheduleInput: Schedule:Constant=\"ALWAYS OFF DISCRETE\", Blank Schedule Type Limits Name input -- will not be validated.\n   ** Warning ** ProcessScheduleInput: Schedule:Constant=\"ALWAYS ON CONTINUOUS\", Blank Schedule Type Limits Name input -- will not be validated.\n   ** Warning ** CheckUsedConstructions: There are 26 nominally unused constructions in input.\n   **   ~~~   ** For explicit details on each unused construction, use Output:Diagnostics,DisplayExtraWarnings;\n   ************* Beginning System Sizing Calculations\n   ** Warning ** GetDXCoils: Coil:Cooling:DX:SingleSpeed=\"COIL COOLING DX SINGLE SPEED 24 7KBTU/HR 11.0EER\", invalid\n   **   ~~~   ** ...Part Load Fraction Correlation Curve Name = DXCOOL-NECB2011-REF-COOLPLFFPLR 16 has out of range value.\n   **   ~~~   ** ...Curve maximum must be <= 1.0, curve max at PLR = 0.99 is 1.015\n   **   ~~~   ** ...Setting curve maximum to 1.0 and simulation continues.\n   ** Warning ** GetDXCoils: Coil:Cooling:DX:SingleSpeed=\"COIL COOLING DX SINGLE SPEED 22 5KBTU/HR 11.0EER\", invalid\n   **   ~~~   ** ...Part Load Fraction Correlation Curve Name = DXCOOL-NECB2011-REF-COOLPLFFPLR 14 has out of range value.\n   **   ~~~   ** ...Curve maximum must be <= 1.0, curve max at PLR = 0.99 is 1.015\n   **   ~~~   ** ...Setting curve maximum to 1.0 and simulation continues.\n   ** Warning ** GetDXCoils: Coil:Cooling:DX:SingleSpeed=\"COIL COOLING DX SINGLE SPEED 21 5KBTU/HR 11.0EER\", invalid\n   **   ~~~   ** ...Part Load Fraction Correlation Curve Name = DXCOOL-NECB2011-REF-COOLPLFFPLR 13 has out of range value.\n   **   ~~~   ** ...Curve maximum must be <= 1.0, curve max at PLR = 0.99 is 1.015\n   **   ~~~   ** ...Setting curve maximum to 1.0 and simulation continues.\n   ** Warning ** GetDXCoils: Coil:Cooling:DX:SingleSpeed=\"COIL COOLING DX SINGLE SPEED 23 9KBTU/HR 10.5EER\", invalid\n   **   ~~~   ** ...Part Load Fraction Correlation Curve Name = DXCOOL-NECB2011-REF-COOLPLFFPLR 15 has out of range value.\n   **   ~~~   ** ...Curve maximum must be <= 1.0, curve max at PLR = 0.99 is 1.015\n   **   ~~~   ** ...Setting curve maximum to 1.0 and simulation continues.\n   ** Warning ** GetDXCoils: Coil:Cooling:DX:SingleSpeed=\"COIL COOLING DX SINGLE SPEED 20 9KBTU/HR 10.6EER\", invalid\n   **   ~~~   ** ...Part Load Fraction Correlation Curve Name = DXCOOL-NECB2011-REF-COOLPLFFPLR 12 has out of range value.\n   **   ~~~   ** ...Curve maximum must be <= 1.0, curve max at PLR = 0.99 is 1.015\n   **   ~~~   ** ...Setting curve maximum to 1.0 and simulation continues.\n   ** Warning ** GetDXCoils: Coil:Cooling:DX:SingleSpeed=\"COIL COOLING DX SINGLE SPEED 25 7KBTU/HR 11.0EER\", invalid\n   **   ~~~   ** ...Part Load Fraction Correlation Curve Name = DXCOOL-NECB2011-REF-COOLPLFFPLR 17 has out of range value.\n   **   ~~~   ** ...Curve maximum must be <= 1.0, curve max at PLR = 0.99 is 1.015\n   **   ~~~   ** ...Setting curve maximum to 1.0 and simulation continues.\n   ** Warning ** GetDXCoils: Coil:Cooling:DX:SingleSpeed=\"COIL COOLING DX SINGLE SPEED 26 7KBTU/HR 11.0EER\", invalid\n   **   ~~~   ** ...Part Load Fraction Correlation Curve Name = DXCOOL-NECB2011-REF-COOLPLFFPLR 18 has out of range value.\n   **   ~~~   ** ...Curve maximum must be <= 1.0, curve max at PLR = 0.99 is 1.015\n   **   ~~~   ** ...Setting curve maximum to 1.0 and simulation continues.\n   ** Warning ** GetDXCoils: Coil:Cooling:DX:SingleSpeed=\"COIL COOLING DX SINGLE SPEED 27 10KBTU/HR 10.4EER\", invalid\n   **   ~~~   ** ...Part Load Fraction Correlation Curve Name = DXCOOL-NECB2011-REF-COOLPLFFPLR 19 has out of range value.\n   **   ~~~   ** ...Curve maximum must be <= 1.0, curve max at PLR = 0.99 is 1.015\n   **   ~~~   ** ...Setting curve maximum to 1.0 and simulation continues.\n   ** Warning ** GetDXCoils: Coil:Cooling:DX:SingleSpeed=\"COIL COOLING DX SINGLE SPEED 6 7KBTU/HR 11.0EER\", invalid\n   **   ~~~   ** ...Part Load Fraction Correlation Curve Name = DXCOOL-NECB2011-REF-COOLPLFFPLR 24 has out of range value.\n   **   ~~~   ** ...Curve maximum must be <= 1.0, curve max at PLR = 0.99 is 1.015\n   **   ~~~   ** ...Setting curve maximum to 1.0 and simulation continues.\n   ** Warning ** GetDXCoils: Coil:Cooling:DX:SingleSpeed=\"COIL COOLING DX SINGLE SPEED 4 6KBTU/HR 11.0EER\", invalid\n   **   ~~~   ** ...Part Load Fraction Correlation Curve Name = DXCOOL-NECB2011-REF-COOLPLFFPLR 22 has out of range value.\n   **   ~~~   ** ...Curve maximum must be <= 1.0, curve max at PLR = 0.99 is 1.015\n   **   ~~~   ** ...Setting curve maximum to 1.0 and simulation continues.\n   ** Warning ** GetDXCoils: Coil:Cooling:DX:SingleSpeed=\"COIL COOLING DX SINGLE SPEED 3 6KBTU/HR 11.0EER\", invalid\n   **   ~~~   ** ...Part Load Fraction Correlation Curve Name = DXCOOL-NECB2011-REF-COOLPLFFPLR 21 has out of range value.\n   **   ~~~   ** ...Curve maximum must be <= 1.0, curve max at PLR = 0.99 is 1.015\n   **   ~~~   ** ...Setting curve maximum to 1.0 and simulation continues.\n   ** Warning ** GetDXCoils: Coil:Cooling:DX:SingleSpeed=\"COIL COOLING DX SINGLE SPEED 2 10KBTU/HR 10.4EER\", invalid\n   **   ~~~   ** ...Part Load Fraction Correlation Curve Name = DXCOOL-NECB2011-REF-COOLPLFFPLR 11 has out of range value.\n   **   ~~~   ** ...Curve maximum must be <= 1.0, curve max at PLR = 0.99 is 1.015\n   **   ~~~   ** ...Setting curve maximum to 1.0 and simulation continues.\n   ** Warning ** GetDXCoils: Coil:Cooling:DX:SingleSpeed=\"COIL COOLING DX SINGLE SPEED 5 10KBTU/HR 10.3EER\", invalid\n   **   ~~~   ** ...Part Load Fraction Correlation Curve Name = DXCOOL-NECB2011-REF-COOLPLFFPLR 23 has out of range value.\n   **   ~~~   ** ...Curve maximum must be <= 1.0, curve max at PLR = 0.99 is 1.015\n   **   ~~~   ** ...Setting curve maximum to 1.0 and simulation continues.\n   ** Warning ** GetDXCoils: Coil:Cooling:DX:SingleSpeed=\"COIL COOLING DX SINGLE SPEED 7 8KBTU/HR 10.8EER\", invalid\n   **   ~~~   ** ...Part Load Fraction Correlation Curve Name = DXCOOL-NECB2011-REF-COOLPLFFPLR 25 has out of range value.\n   **   ~~~   ** ...Curve maximum must be <= 1.0, curve max at PLR = 0.99 is 1.015\n   **   ~~~   ** ...Setting curve maximum to 1.0 and simulation continues.\n   ** Warning ** GetDXCoils: Coil:Cooling:DX:SingleSpeed=\"COIL COOLING DX SINGLE SPEED 9 8KBTU/HR 10.8EER\", invalid\n   **   ~~~   ** ...Part Load Fraction Correlation Curve Name = DXCOOL-NECB2011-REF-COOLPLFFPLR 27 has out of range value.\n   **   ~~~   ** ...Curve maximum must be <= 1.0, curve max at PLR = 0.99 is 1.015\n   **   ~~~   ** ...Setting curve maximum to 1.0 and simulation continues.\n   ** Warning ** GetDXCoils: Coil:Cooling:DX:SingleSpeed=\"COIL COOLING DX SINGLE SPEED 8 10KBTU/HR 10.3EER\", invalid\n   **   ~~~   ** ...Part Load Fraction Correlation Curve Name = DXCOOL-NECB2011-REF-COOLPLFFPLR 26 has out of range value.\n   **   ~~~   ** ...Curve maximum must be <= 1.0, curve max at PLR = 0.99 is 1.015\n   **   ~~~   ** ...Setting curve maximum to 1.0 and simulation continues.\n   ** Warning ** GetDXCoils: Coil:Cooling:DX:SingleSpeed=\"COIL COOLING DX SINGLE SPEED 10 12KBTU/HR 10.0EER\", invalid\n   **   ~~~   ** ...Part Load Fraction Correlation Curve Name = DXCOOL-NECB2011-REF-COOLPLFFPLR 1 has out of range value.\n   **   ~~~   ** ...Curve maximum must be <= 1.0, curve max at PLR = 0.99 is 1.015\n   **   ~~~   ** ...Setting curve maximum to 1.0 and simulation continues.\n   ** Warning ** GetDXCoils: Coil:Cooling:DX:SingleSpeed=\"COIL COOLING DX SINGLE SPEED 15 11KBTU/HR 10.3EER\", invalid\n   **   ~~~   ** ...Part Load Fraction Correlation Curve Name = DXCOOL-NECB2011-REF-COOLPLFFPLR 6 has out of range value.\n   **   ~~~   ** ...Curve maximum must be <= 1.0, curve max at PLR = 0.99 is 1.015\n   **   ~~~   ** ...Setting curve maximum to 1.0 and simulation continues.\n   ** Warning ** GetDXCoils: Coil:Cooling:DX:SingleSpeed=\"COIL COOLING DX SINGLE SPEED 12 9KBTU/HR 10.5EER\", invalid\n   **   ~~~   ** ...Part Load Fraction Correlation Curve Name = DXCOOL-NECB2011-REF-COOLPLFFPLR 3 has out of range value.\n   **   ~~~   ** ...Curve maximum must be <= 1.0, curve max at PLR = 0.99 is 1.015\n   **   ~~~   ** ...Setting curve maximum to 1.0 and simulation continues.\n   ** Warning ** GetDXCoils: Coil:Cooling:DX:SingleSpeed=\"COIL COOLING DX SINGLE SPEED 13 9KBTU/HR 10.6EER\", invalid\n   **   ~~~   ** ...Part Load Fraction Correlation Curve Name = DXCOOL-NECB2011-REF-COOLPLFFPLR 4 has out of range value.\n   **   ~~~   ** ...Curve maximum must be <= 1.0, curve max at PLR = 0.99 is 1.015\n   **   ~~~   ** ...Setting curve maximum to 1.0 and simulation continues.\n   ** Warning ** GetDXCoils: Coil:Cooling:DX:SingleSpeed=\"COIL COOLING DX SINGLE SPEED 14 11KBTU/HR 10.1EER\", invalid\n   **   ~~~   ** ...Part Load Fraction Correlation Curve Name = DXCOOL-NECB2011-REF-COOLPLFFPLR 5 has out of range value.\n   **   ~~~   ** ...Curve maximum must be <= 1.0, curve max at PLR = 0.99 is 1.015\n   **   ~~~   ** ...Setting curve maximum to 1.0 and simulation continues.\n   ** Warning ** GetDXCoils: Coil:Cooling:DX:SingleSpeed=\"COIL COOLING DX SINGLE SPEED 11 12KBTU/HR 9.9EER\", invalid\n   **   ~~~   ** ...Part Load Fraction Correlation Curve Name = DXCOOL-NECB2011-REF-COOLPLFFPLR 2 has out of range value.\n   **   ~~~   ** ...Curve maximum must be <= 1.0, curve max at PLR = 0.99 is 1.015\n   **   ~~~   ** ...Setting curve maximum to 1.0 and simulation continues.\n   ** Warning ** GetDXCoils: Coil:Cooling:DX:SingleSpeed=\"COIL COOLING DX SINGLE SPEED 16 11KBTU/HR 10.1EER\", invalid\n   **   ~~~   ** ...Part Load Fraction Correlation Curve Name = DXCOOL-NECB2011-REF-COOLPLFFPLR 7 has out of range value.\n   **   ~~~   ** ...Curve maximum must be <= 1.0, curve max at PLR = 0.99 is 1.015\n   **   ~~~   ** ...Setting curve maximum to 1.0 and simulation continues.\n   ** Warning ** GetDXCoils: Coil:Cooling:DX:SingleSpeed=\"COIL COOLING DX SINGLE SPEED 19 11KBTU/HR 10.1EER\", invalid\n   **   ~~~   ** ...Part Load Fraction Correlation Curve Name = DXCOOL-NECB2011-REF-COOLPLFFPLR 10 has out of range value.\n   **   ~~~   ** ...Curve maximum must be <= 1.0, curve max at PLR = 0.99 is 1.015\n   **   ~~~   ** ...Setting curve maximum to 1.0 and simulation continues.\n   ** Warning ** GetDXCoils: Coil:Cooling:DX:SingleSpeed=\"COIL COOLING DX SINGLE SPEED 18 13KBTU/HR 9.8EER\", invalid\n   **   ~~~   ** ...Part Load Fraction Correlation Curve Name = DXCOOL-NECB2011-REF-COOLPLFFPLR 9 has out of range value.\n   **   ~~~   ** ...Curve maximum must be <= 1.0, curve max at PLR = 0.99 is 1.015\n   **   ~~~   ** ...Setting curve maximum to 1.0 and simulation continues.\n   ** Warning ** GetDXCoils: Coil:Cooling:DX:SingleSpeed=\"COIL COOLING DX SINGLE SPEED 17 14KBTU/HR 9.6EER\", invalid\n   **   ~~~   ** ...Part Load Fraction Correlation Curve Name = DXCOOL-NECB2011-REF-COOLPLFFPLR 8 has out of range value.\n   **   ~~~   ** ...Curve maximum must be <= 1.0, curve max at PLR = 0.99 is 1.015\n   **   ~~~   ** ...Setting curve maximum to 1.0 and simulation continues.\n   ** Warning ** GetDXCoils: Coil:Cooling:DX:SingleSpeed=\"COIL COOLING DX SINGLE SPEED 1 78KBTU/HR 9.7EER\", invalid\n   **   ~~~   ** ...Part Load Fraction Correlation Curve Name = DXCOOL-NECB2011-REF-COOLPLFFPLR has out of range value.\n   **   ~~~   ** ...Curve maximum must be <= 1.0, curve max at PLR = 0.99 is 1.015\n   **   ~~~   ** ...Setting curve maximum to 1.0 and simulation continues.\n   ** Warning ** GetDXCoils: Coil:Cooling:DX:SingleSpeed=\"COIL COOLING DX SINGLE SPEED 28 19KBTU/HR 14.0SEER\", invalid\n   **   ~~~   ** ...Part Load Fraction Correlation Curve Name = DXCOOL-NECB2011-REF-COOLPLFFPLR 20 has out of range value.\n   **   ~~~   ** ...Curve maximum must be <= 1.0, curve max at PLR = 0.99 is 1.015\n   **   ~~~   ** ...Setting curve maximum to 1.0 and simulation continues.\n   ************* Beginning Plant Sizing Calculations\n   ** Warning ** The Standard Ratings is calculated for Coil:Cooling:DX:SingleSpeed = COIL COOLING DX SINGLE SPEED 24 7KBTU/HR 11.0EER but not at the AHRI test condition due to curve out of bound.\n   **   ~~~   **  Review the Standard Ratings calculations in the Engineering Reference for this coil type. Also, use Output:Diagnostics, DisplayExtraWarnings for further guidance.\n   ** Warning ** The Standard Ratings is calculated for Coil:Cooling:DX:SingleSpeed = COIL COOLING DX SINGLE SPEED 22 5KBTU/HR 11.0EER but not at the AHRI test condition due to curve out of bound.\n   **   ~~~   **  Review the Standard Ratings calculations in the Engineering Reference for this coil type. Also, use Output:Diagnostics, DisplayExtraWarnings for further guidance.\n   ** Warning ** The Standard Ratings is calculated for Coil:Cooling:DX:SingleSpeed = COIL COOLING DX SINGLE SPEED 21 5KBTU/HR 11.0EER but not at the AHRI test condition due to curve out of bound.\n   **   ~~~   **  Review the Standard Ratings calculations in the Engineering Reference for this coil type. Also, use Output:Diagnostics, DisplayExtraWarnings for further guidance.\n   ** Warning ** The Standard Ratings is calculated for Coil:Cooling:DX:SingleSpeed = COIL COOLING DX SINGLE SPEED 23 9KBTU/HR 10.5EER but not at the AHRI test condition due to curve out of bound.\n   **   ~~~   **  Review the Standard Ratings calculations in the Engineering Reference for this coil type. Also, use Output:Diagnostics, DisplayExtraWarnings for further guidance.\n   ** Warning ** The Standard Ratings is calculated for Coil:Cooling:DX:SingleSpeed = COIL COOLING DX SINGLE SPEED 20 9KBTU/HR 10.6EER but not at the AHRI test condition due to curve out of bound.\n   **   ~~~   **  Review the Standard Ratings calculations in the Engineering Reference for this coil type. Also, use Output:Diagnostics, DisplayExtraWarnings for further guidance.\n   ** Warning ** The Standard Ratings is calculated for Coil:Cooling:DX:SingleSpeed = COIL COOLING DX SINGLE SPEED 25 7KBTU/HR 11.0EER but not at the AHRI test condition due to curve out of bound.\n   **   ~~~   **  Review the Standard Ratings calculations in the Engineering Reference for this coil type. Also, use Output:Diagnostics, DisplayExtraWarnings for further guidance.\n   ** Warning ** The Standard Ratings is calculated for Coil:Cooling:DX:SingleSpeed = COIL COOLING DX SINGLE SPEED 26 7KBTU/HR 11.0EER but not at the AHRI test condition due to curve out of bound.\n   **   ~~~   **  Review the Standard Ratings calculations in the Engineering Reference for this coil type. Also, use Output:Diagnostics, DisplayExtraWarnings for further guidance.\n   ** Warning ** The Standard Ratings is calculated for Coil:Cooling:DX:SingleSpeed = COIL COOLING DX SINGLE SPEED 27 10KBTU/HR 10.4EER but not at the AHRI test condition due to curve out of bound.\n   **   ~~~   **  Review the Standard Ratings calculations in the Engineering Reference for this coil type. Also, use Output:Diagnostics, DisplayExtraWarnings for further guidance.\n   ** Warning ** The Standard Ratings is calculated for Coil:Cooling:DX:SingleSpeed = COIL COOLING DX SINGLE SPEED 6 7KBTU/HR 11.0EER but not at the AHRI test condition due to curve out of bound.\n   **   ~~~   **  Review the Standard Ratings calculations in the Engineering Reference for this coil type. Also, use Output:Diagnostics, DisplayExtraWarnings for further guidance.\n   ** Warning ** The Standard Ratings is calculated for Coil:Cooling:DX:SingleSpeed = COIL COOLING DX SINGLE SPEED 4 6KBTU/HR 11.0EER but not at the AHRI test condition due to curve out of bound.\n   **   ~~~   **  Review the Standard Ratings calculations in the Engineering Reference for this coil type. Also, use Output:Diagnostics, DisplayExtraWarnings for further guidance.\n   ** Warning ** The Standard Ratings is calculated for Coil:Cooling:DX:SingleSpeed = COIL COOLING DX SINGLE SPEED 3 6KBTU/HR 11.0EER but not at the AHRI test condition due to curve out of bound.\n   **   ~~~   **  Review the Standard Ratings calculations in the Engineering Reference for this coil type. Also, use Output:Diagnostics, DisplayExtraWarnings for further guidance.\n   ** Warning ** The Standard Ratings is calculated for Coil:Cooling:DX:SingleSpeed = COIL COOLING DX SINGLE SPEED 2 10KBTU/HR 10.4EER but not at the AHRI test condition due to curve out of bound.\n   **   ~~~   **  Review the Standard Ratings calculations in the Engineering Reference for this coil type. Also, use Output:Diagnostics, DisplayExtraWarnings for further guidance.\n   ** Warning ** The Standard Ratings is calculated for Coil:Cooling:DX:SingleSpeed = COIL COOLING DX SINGLE SPEED 5 10KBTU/HR 10.3EER but not at the AHRI test condition due to curve out of bound.\n   **   ~~~   **  Review the Standard Ratings calculations in the Engineering Reference for this coil type. Also, use Output:Diagnostics, DisplayExtraWarnings for further guidance.\n   ** Warning ** The Standard Ratings is calculated for Coil:Cooling:DX:SingleSpeed = COIL COOLING DX SINGLE SPEED 7 8KBTU/HR 10.8EER but not at the AHRI test condition due to curve out of bound.\n   **   ~~~   **  Review the Standard Ratings calculations in the Engineering Reference for this coil type. Also, use Output:Diagnostics, DisplayExtraWarnings for further guidance.\n   ** Warning ** The Standard Ratings is calculated for Coil:Cooling:DX:SingleSpeed = COIL COOLING DX SINGLE SPEED 9 8KBTU/HR 10.8EER but not at the AHRI test condition due to curve out of bound.\n   **   ~~~   **  Review the Standard Ratings calculations in the Engineering Reference for this coil type. Also, use Output:Diagnostics, DisplayExtraWarnings for further guidance.\n   ** Warning ** The Standard Ratings is calculated for Coil:Cooling:DX:SingleSpeed = COIL COOLING DX SINGLE SPEED 8 10KBTU/HR 10.3EER but not at the AHRI test condition due to curve out of bound.\n   **   ~~~   **  Review the Standard Ratings calculations in the Engineering Reference for this coil type. Also, use Output:Diagnostics, DisplayExtraWarnings for further guidance.\n   ** Warning ** The Standard Ratings is calculated for Coil:Cooling:DX:SingleSpeed = COIL COOLING DX SINGLE SPEED 10 12KBTU/HR 10.0EER but not at the AHRI test condition due to curve out of bound.\n   **   ~~~   **  Review the Standard Ratings calculations in the Engineering Reference for this coil type. Also, use Output:Diagnostics, DisplayExtraWarnings for further guidance.\n   ** Warning ** The Standard Ratings is calculated for Coil:Cooling:DX:SingleSpeed = COIL COOLING DX SINGLE SPEED 15 11KBTU/HR 10.3EER but not at the AHRI test condition due to curve out of bound.\n   **   ~~~   **  Review the Standard Ratings calculations in the Engineering Reference for this coil type. Also, use Output:Diagnostics, DisplayExtraWarnings for further guidance.\n   ** Warning ** The Standard Ratings is calculated for Coil:Cooling:DX:SingleSpeed = COIL COOLING DX SINGLE SPEED 12 9KBTU/HR 10.5EER but not at the AHRI test condition due to curve out of bound.\n   **   ~~~   **  Review the Standard Ratings calculations in the Engineering Reference for this coil type. Also, use Output:Diagnostics, DisplayExtraWarnings for further guidance.\n   ** Warning ** The Standard Ratings is calculated for Coil:Cooling:DX:SingleSpeed = COIL COOLING DX SINGLE SPEED 13 9KBTU/HR 10.6EER but not at the AHRI test condition due to curve out of bound.\n   **   ~~~   **  Review the Standard Ratings calculations in the Engineering Reference for this coil type. Also, use Output:Diagnostics, DisplayExtraWarnings for further guidance.\n   ** Warning ** The Standard Ratings is calculated for Coil:Cooling:DX:SingleSpeed = COIL COOLING DX SINGLE SPEED 14 11KBTU/HR 10.1EER but not at the AHRI test condition due to curve out of bound.\n   **   ~~~   **  Review the Standard Ratings calculations in the Engineering Reference for this coil type. Also, use Output:Diagnostics, DisplayExtraWarnings for further guidance.\n   ** Warning ** The Standard Ratings is calculated for Coil:Cooling:DX:SingleSpeed = COIL COOLING DX SINGLE SPEED 11 12KBTU/HR 9.9EER but not at the AHRI test condition due to curve out of bound.\n   **   ~~~   **  Review the Standard Ratings calculations in the Engineering Reference for this coil type. Also, use Output:Diagnostics, DisplayExtraWarnings for further guidance.\n   ** Warning ** The Standard Ratings is calculated for Coil:Cooling:DX:SingleSpeed = COIL COOLING DX SINGLE SPEED 16 11KBTU/HR 10.1EER but not at the AHRI test condition due to curve out of bound.\n   **   ~~~   **  Review the Standard Ratings calculations in the Engineering Reference for this coil type. Also, use Output:Diagnostics, DisplayExtraWarnings for further guidance.\n   ** Warning ** The Standard Ratings is calculated for Coil:Cooling:DX:SingleSpeed = COIL COOLING DX SINGLE SPEED 19 11KBTU/HR 10.1EER but not at the AHRI test condition due to curve out of bound.\n   **   ~~~   **  Review the Standard Ratings calculations in the Engineering Reference for this coil type. Also, use Output:Diagnostics, DisplayExtraWarnings for further guidance.\n   ** Warning ** The Standard Ratings is calculated for Coil:Cooling:DX:SingleSpeed = COIL COOLING DX SINGLE SPEED 18 13KBTU/HR 9.8EER but not at the AHRI test condition due to curve out of bound.\n   **   ~~~   **  Review the Standard Ratings calculations in the Engineering Reference for this coil type. Also, use Output:Diagnostics, DisplayExtraWarnings for further guidance.\n   ** Warning ** The Standard Ratings is calculated for Coil:Cooling:DX:SingleSpeed = COIL COOLING DX SINGLE SPEED 17 14KBTU/HR 9.6EER but not at the AHRI test condition due to curve out of bound.\n   **   ~~~   **  Review the Standard Ratings calculations in the Engineering Reference for this coil type. Also, use Output:Diagnostics, DisplayExtraWarnings for further guidance.\n   ** Warning ** The Standard Ratings is calculated for Coil:Cooling:DX:SingleSpeed = COIL COOLING DX SINGLE SPEED 1 78KBTU/HR 9.7EER but not at the AHRI test condition due to curve out of bound.\n   **   ~~~   **  Review the Standard Ratings calculations in the Engineering Reference for this coil type. Also, use Output:Diagnostics, DisplayExtraWarnings for further guidance.\n   ** Warning ** The Standard Ratings is calculated for Coil:Cooling:DX:SingleSpeed = COIL COOLING DX SINGLE SPEED 28 19KBTU/HR 14.0SEER but not at the AHRI test condition due to curve out of bound.\n   **   ~~~   **  Review the Standard Ratings calculations in the Engineering Reference for this coil type. Also, use Output:Diagnostics, DisplayExtraWarnings for further guidance.\n   ** Warning ** Output:Meter: invalid Name=\"DISTRICTCOOLING:FACILITY\" - not found.\n   ** Warning ** Output:Meter: invalid Name=\"DISTRICTHEATING:FACILITY\" - not found.\n   ** Warning ** Output:Meter:MeterFileOnly requested for \"Electricity:Facility\" (TimeStep), already on \"Output:Meter\". Will report to both eplusout.eso and eplusout.mtr\n   ************* Testing Individual Branch Integrity\n   ************* All Branches passed integrity testing\n   ************* Testing Individual Supply Air Path Integrity\n   ************* All Supply Air Paths passed integrity testing\n   ************* Testing Individual Return Air Path Integrity\n   ************* All Return Air Paths passed integrity testing\n   ************* No node connection errors were found.\n   ************* Beginning Simulation\n   ** Warning ** CalcDoe2DXCoil: Coil:Cooling:DX:SingleSpeed \"COIL COOLING DX SINGLE SPEED 26 7KBTU/HR 11.0EER\" - Air-cooled condenser inlet dry-bulb temperature below 0 C. Outdoor dry-bulb temperature = -14.93\n   **   ~~~   **  ... Occurrence info = RUN PERIOD 1, 01/04 12:10 - 12:15\n   **   ~~~   ** ... Operation at low ambient temperatures may require special performance curves.\n   ** Warning ** CalcDoe2DXCoil: Coil:Cooling:DX:SingleSpeed \"COIL COOLING DX SINGLE SPEED 26 7KBTU/HR 11.0EER\" - Full load outlet air dry-bulb temperature < 2C. This indicates the possibility of coil frost/freeze. Outlet temperature = 1.50 C.\n   **   ~~~   **  ...Occurrence info = RUN PERIOD 1, 01/04 12:10 - 12:15\n   **   ~~~   ** ... Possible reasons for low outlet air dry-bulb temperatures are: This DX coil\n   **   ~~~   **    1) may have a low inlet air dry-bulb temperature. Inlet air temperature = 14.537 C.\n   **   ~~~   **    2) may have a low air flow rate per watt of cooling capacity. Check inputs.\n   **   ~~~   **    3) is used as part of a HX assisted cooling coil which uses a high sensible effectiveness. Check inputs.\n   ** Warning ** CalcDoe2DXCoil: Coil:Cooling:DX:SingleSpeed \"COIL COOLING DX SINGLE SPEED 25 7KBTU/HR 11.0EER\" - Air-cooled condenser inlet dry-bulb temperature below 0 C. Outdoor dry-bulb temperature = -14.85\n   **   ~~~   **  ... Occurrence info = RUN PERIOD 1, 01/04 12:15 - 12:20\n   **   ~~~   ** ... Operation at low ambient temperatures may require special performance curves.\n   ** Warning ** CalcDoe2DXCoil: Coil:Cooling:DX:SingleSpeed \"COIL COOLING DX SINGLE SPEED 25 7KBTU/HR 11.0EER\" - Full load outlet air dry-bulb temperature < 2C. This indicates the possibility of coil frost/freeze. Outlet temperature = 1.08 C.\n   **   ~~~   **  ...Occurrence info = RUN PERIOD 1, 01/04 12:15 - 12:20\n   **   ~~~   ** ... Possible reasons for low outlet air dry-bulb temperatures are: This DX coil\n   **   ~~~   **    1) may have a low inlet air dry-bulb temperature. Inlet air temperature = 14.118 C.\n   **   ~~~   **    2) may have a low air flow rate per watt of cooling capacity. Check inputs.\n   **   ~~~   **    3) is used as part of a HX assisted cooling coil which uses a high sensible effectiveness. Check inputs.\n   ** Warning ** CalcDoe2DXCoil: Coil:Cooling:DX:SingleSpeed \"COIL COOLING DX SINGLE SPEED 27 10KBTU/HR 10.4EER\" - Air-cooled condenser inlet dry-bulb temperature below 0 C. Outdoor dry-bulb temperature = -14.78\n   **   ~~~   **  ... Occurrence info = RUN PERIOD 1, 01/04 12:38 - 12:45\n   **   ~~~   ** ... Operation at low ambient temperatures may require special performance curves.\n   ** Warning ** CalcDoe2DXCoil: Coil:Cooling:DX:SingleSpeed \"COIL COOLING DX SINGLE SPEED 7 8KBTU/HR 10.8EER\" - Air-cooled condenser inlet dry-bulb temperature below 0 C. Outdoor dry-bulb temperature = -14.70\n   **   ~~~   **  ... Occurrence info = RUN PERIOD 1, 01/04 12:45 - 12:52\n   **   ~~~   ** ... Operation at low ambient temperatures may require special performance curves.\n   ** Warning ** CalcDoe2DXCoil: Coil:Cooling:DX:SingleSpeed \"COIL COOLING DX SINGLE SPEED 9 8KBTU/HR 10.8EER\" - Air-cooled condenser inlet dry-bulb temperature below 0 C. Outdoor dry-bulb temperature = -14.70\n   **   ~~~   **  ... Occurrence info = RUN PERIOD 1, 01/04 12:45 - 12:52\n   **   ~~~   ** ... Operation at low ambient temperatures may require special performance curves.\n   ** Warning ** CalcDoe2DXCoil: Coil:Cooling:DX:SingleSpeed \"COIL COOLING DX SINGLE SPEED 8 10KBTU/HR 10.3EER\" - Air-cooled condenser inlet dry-bulb temperature below 0 C. Outdoor dry-bulb temperature = -14.63\n   **   ~~~   **  ... Occurrence info = RUN PERIOD 1, 01/04 13:00 - 13:08\n   **   ~~~   ** ... Operation at low ambient temperatures may require special performance curves.\n   ** Warning ** CalcDoe2DXCoil: Coil:Cooling:DX:SingleSpeed \"COIL COOLING DX SINGLE SPEED 10 12KBTU/HR 10.0EER\" - Air-cooled condenser inlet dry-bulb temperature below 0 C. Outdoor dry-bulb temperature = -14.63\n   **   ~~~   **  ... Occurrence info = RUN PERIOD 1, 01/04 13:08 - 13:15\n   **   ~~~   ** ... Operation at low ambient temperatures may require special performance curves.\n   ** Warning ** CalcDoe2DXCoil: Coil:Cooling:DX:SingleSpeed \"COIL COOLING DX SINGLE SPEED 16 11KBTU/HR 10.1EER\" - Air-cooled condenser inlet dry-bulb temperature below 0 C. Outdoor dry-bulb temperature = -14.48\n   **   ~~~   **  ... Occurrence info = RUN PERIOD 1, 01/04 13:30 - 13:45\n   **   ~~~   ** ... Operation at low ambient temperatures may require special performance curves.\n   ** Warning ** CalcDoe2DXCoil: Coil:Cooling:DX:SingleSpeed \"COIL COOLING DX SINGLE SPEED 19 11KBTU/HR 10.1EER\" - Air-cooled condenser inlet dry-bulb temperature below 0 C. Outdoor dry-bulb temperature = -14.48\n   **   ~~~   **  ... Occurrence info = RUN PERIOD 1, 01/04 13:30 - 13:45\n   **   ~~~   ** ... Operation at low ambient temperatures may require special performance curves.\n   ** Warning ** CalcDoe2DXCoil: Coil:Cooling:DX:SingleSpeed \"COIL COOLING DX SINGLE SPEED 17 14KBTU/HR 9.6EER\" - Air-cooled condenser inlet dry-bulb temperature below 0 C. Outdoor dry-bulb temperature = -14.55\n   **   ~~~   **  ... Occurrence info = RUN PERIOD 1, 01/04 14:30 - 14:45\n   **   ~~~   ** ... Operation at low ambient temperatures may require special performance curves.\n   ** Warning ** CalcDoe2DXCoil: Coil:Cooling:DX:SingleSpeed \"COIL COOLING DX SINGLE SPEED 7 8KBTU/HR 10.8EER\" - Full load outlet air dry-bulb temperature < 2C. This indicates the possibility of coil frost/freeze. Outlet temperature = 1.97 C.\n   **   ~~~   **  ...Occurrence info = RUN PERIOD 1, 01/04 17:00 - 17:08\n   **   ~~~   ** ... Possible reasons for low outlet air dry-bulb temperatures are: This DX coil\n   **   ~~~   **    1) may have a low inlet air dry-bulb temperature. Inlet air temperature = 15.022 C.\n   **   ~~~   **    2) may have a low air flow rate per watt of cooling capacity. Check inputs.\n   **   ~~~   **    3) is used as part of a HX assisted cooling coil which uses a high sensible effectiveness. Check inputs.\n   ** Warning ** CalcDoe2DXCoil: Coil:Cooling:DX:SingleSpeed \"COIL COOLING DX SINGLE SPEED 9 8KBTU/HR 10.8EER\" - Full load outlet air dry-bulb temperature < 2C. This indicates the possibility of coil frost/freeze. Outlet temperature = 0.47 C.\n   **   ~~~   **  ...Occurrence info = RUN PERIOD 1, 01/05 12:30 - 12:38\n   **   ~~~   ** ... Possible reasons for low outlet air dry-bulb temperatures are: This DX coil\n   **   ~~~   **    1) may have a low inlet air dry-bulb temperature. Inlet air temperature = 13.529 C.\n   **   ~~~   **    2) may have a low air flow rate per watt of cooling capacity. Check inputs.\n   **   ~~~   **    3) is used as part of a HX assisted cooling coil which uses a high sensible effectiveness. Check inputs.\n   ** Warning ** CalcDoe2DXCoil: Coil:Cooling:DX:SingleSpeed \"COIL COOLING DX SINGLE SPEED 27 10KBTU/HR 10.4EER\" - Full load outlet air dry-bulb temperature < 2C. This indicates the possibility of coil frost/freeze. Outlet temperature = 1.95 C.\n   **   ~~~   **  ...Occurrence info = RUN PERIOD 1, 01/06 11:30 - 11:38\n   **   ~~~   ** ... Possible reasons for low outlet air dry-bulb temperatures are: This DX coil\n   **   ~~~   **    1) may have a low inlet air dry-bulb temperature. Inlet air temperature = 15.004 C.\n   **   ~~~   **    2) may have a low air flow rate per watt of cooling capacity. Check inputs.\n   **   ~~~   **    3) is used as part of a HX assisted cooling coil which uses a high sensible effectiveness. Check inputs.\n   ** Warning ** CalcDoe2DXCoil: Coil:Cooling:DX:SingleSpeed \"COIL COOLING DX SINGLE SPEED 18 13KBTU/HR 9.8EER\" - Air-cooled condenser inlet dry-bulb temperature below 0 C. Outdoor dry-bulb temperature = -24.10\n   **   ~~~   **  ... Occurrence info = RUN PERIOD 1, 01/06 14:15 - 14:30\n   **   ~~~   ** ... Operation at low ambient temperatures may require special performance curves.\n   ** Warning ** CalcDoe2DXCoil: Coil:Cooling:DX:SingleSpeed \"COIL COOLING DX SINGLE SPEED 8 10KBTU/HR 10.3EER\" - Full load outlet air dry-bulb temperature < 2C. This indicates the possibility of coil frost/freeze. Outlet temperature = 1.50 C.\n   **   ~~~   **  ...Occurrence info = RUN PERIOD 1, 01/13 12:00 - 12:15\n   **   ~~~   ** ... Possible reasons for low outlet air dry-bulb temperatures are: This DX coil\n   **   ~~~   **    1) may have a low inlet air dry-bulb temperature. Inlet air temperature = 14.557 C.\n   **   ~~~   **    2) may have a low air flow rate per watt of cooling capacity. Check inputs.\n   **   ~~~   **    3) is used as part of a HX assisted cooling coil which uses a high sensible effectiveness. Check inputs.\n   ** Warning ** CalcDoe2DXCoil: Coil:Cooling:DX:SingleSpeed \"COIL COOLING DX SINGLE SPEED 28 19KBTU/HR 14.0SEER\" - Full load outlet air dry-bulb temperature < 2C. This indicates the possibility of coil frost/freeze. Outlet temperature = -2.24 C.\n   **   ~~~   **  ...Occurrence info = RUN PERIOD 1, 01/17 11:45 - 12:00\n   **   ~~~   ** ... Possible reasons for low outlet air dry-bulb temperatures are: This DX coil\n   **   ~~~   **    1) may have a low inlet air dry-bulb temperature. Inlet air temperature = 12.507 C.\n   **   ~~~   **    2) may have a low air flow rate per watt of cooling capacity. Check inputs.\n   **   ~~~   **    3) is used as part of a HX assisted cooling coil which uses a high sensible effectiveness. Check inputs.\n   ** Warning ** CalcDoe2DXCoil: Coil:Cooling:DX:SingleSpeed \"COIL COOLING DX SINGLE SPEED 6 7KBTU/HR 11.0EER\" - Air-cooled condenser inlet dry-bulb temperature below 0 C. Outdoor dry-bulb temperature = -0.40\n   **   ~~~   **  ... Occurrence info = RUN PERIOD 1, 01/17 19:15 - 19:30\n   **   ~~~   ** ... Operation at low ambient temperatures may require special performance curves.\n   ** Warning ** CalcDoe2DXCoil: Coil:Cooling:DX:SingleSpeed \"COIL COOLING DX SINGLE SPEED 24 7KBTU/HR 11.0EER\" - Air-cooled condenser inlet dry-bulb temperature below 0 C. Outdoor dry-bulb temperature = -6.53\n   **   ~~~   **  ... Occurrence info = RUN PERIOD 1, 02/21 13:30 - 13:45\n   **   ~~~   ** ... Operation at low ambient temperatures may require special performance curves.\n   ** Warning ** CalcDoe2DXCoil: Coil:Cooling:DX:SingleSpeed \"COIL COOLING DX SINGLE SPEED 15 11KBTU/HR 10.3EER\" - Air-cooled condenser inlet dry-bulb temperature below 0 C. Outdoor dry-bulb temperature = -5.28\n   **   ~~~   **  ... Occurrence info = RUN PERIOD 1, 02/21 14:30 - 14:38\n   **   ~~~   ** ... Operation at low ambient temperatures may require special performance curves.\n   ** Warning ** CalcDoe2DXCoil: Coil:Cooling:DX:SingleSpeed \"COIL COOLING DX SINGLE SPEED 20 9KBTU/HR 10.6EER\" - Air-cooled condenser inlet dry-bulb temperature below 0 C. Outdoor dry-bulb temperature = -5.00\n   **   ~~~   **  ... Occurrence info = RUN PERIOD 1, 02/21 15:45 - 16:00\n   **   ~~~   ** ... Operation at low ambient temperatures may require special performance curves.\n   ** Warning ** CalcDoe2DXCoil: Coil:Cooling:DX:SingleSpeed \"COIL COOLING DX SINGLE SPEED 11 12KBTU/HR 9.9EER\" - Air-cooled condenser inlet dry-bulb temperature below 0 C. Outdoor dry-bulb temperature = -5.00\n   **   ~~~   **  ... Occurrence info = RUN PERIOD 1, 02/21 15:45 - 16:00\n   **   ~~~   ** ... Operation at low ambient temperatures may require special performance curves.\n   ** Warning ** CalcDoe2DXCoil: Coil:Cooling:DX:SingleSpeed \"COIL COOLING DX SINGLE SPEED 5 10KBTU/HR 10.3EER\" - Air-cooled condenser inlet dry-bulb temperature below 0 C. Outdoor dry-bulb temperature = -5.15\n   **   ~~~   **  ... Occurrence info = RUN PERIOD 1, 02/21 16:00 - 16:15\n   **   ~~~   ** ... Operation at low ambient temperatures may require special performance curves.\n   ** Warning ** CalcDoe2DXCoil: Coil:Cooling:DX:SingleSpeed \"COIL COOLING DX SINGLE SPEED 4 6KBTU/HR 11.0EER\" - Air-cooled condenser inlet dry-bulb temperature below 0 C. Outdoor dry-bulb temperature = -3.53\n   **   ~~~   **  ... Occurrence info = RUN PERIOD 1, 03/12 20:00 - 20:15\n   **   ~~~   ** ... Operation at low ambient temperatures may require special performance curves.\n   ** Warning ** CalcDoe2DXCoil: Coil:Cooling:DX:SingleSpeed \"COIL COOLING DX SINGLE SPEED 4 6KBTU/HR 11.0EER\" - Full load outlet air dry-bulb temperature < 2C. This indicates the possibility of coil frost/freeze. Outlet temperature = 1.76 C.\n   **   ~~~   **  ...Occurrence info = RUN PERIOD 1, 03/12 21:15 - 21:30\n   **   ~~~   ** ... Possible reasons for low outlet air dry-bulb temperatures are: This DX coil\n   **   ~~~   **    1) may have a low inlet air dry-bulb temperature. Inlet air temperature = 14.777 C.\n   **   ~~~   **    2) may have a low air flow rate per watt of cooling capacity. Check inputs.\n   **   ~~~   **    3) is used as part of a HX assisted cooling coil which uses a high sensible effectiveness. Check inputs.\n   ** Warning ** CalcDoe2DXCoil: Coil:Cooling:DX:SingleSpeed \"COIL COOLING DX SINGLE SPEED 2 10KBTU/HR 10.4EER\" - Air-cooled condenser inlet dry-bulb temperature below 0 C. Outdoor dry-bulb temperature = -1.35\n   **   ~~~   **  ... Occurrence info = RUN PERIOD 1, 03/13 10:15 - 10:20\n   **   ~~~   ** ... Operation at low ambient temperatures may require special performance curves.\n   ** Warning ** CalcDoe2DXCoil: Coil:Cooling:DX:SingleSpeed \"COIL COOLING DX SINGLE SPEED 3 6KBTU/HR 11.0EER\" - Air-cooled condenser inlet dry-bulb temperature below 0 C. Outdoor dry-bulb temperature = -0.40\n   **   ~~~   **  ... Occurrence info = RUN PERIOD 1, 03/13 21:45 - 22:00\n   **   ~~~   ** ... Operation at low ambient temperatures may require special performance curves.\n   ** Warning ** CalcDoe2DXCoil: Coil:Cooling:DX:SingleSpeed \"COIL COOLING DX SINGLE SPEED 23 9KBTU/HR 10.5EER\" - Air-cooled condenser inlet dry-bulb temperature below 0 C. Outdoor dry-bulb temperature = -8.70\n   **   ~~~   **  ... Occurrence info = RUN PERIOD 1, 03/16 09:50 - 09:55\n   **   ~~~   ** ... Operation at low ambient temperatures may require special performance curves.\n   ** Warning ** CalcDoe2DXCoil: Coil:Cooling:DX:SingleSpeed \"COIL COOLING DX SINGLE SPEED 14 11KBTU/HR 10.1EER\" - Air-cooled condenser inlet dry-bulb temperature below 0 C. Outdoor dry-bulb temperature = -8.70\n   **   ~~~   **  ... Occurrence info = RUN PERIOD 1, 03/16 09:50 - 09:55\n   **   ~~~   ** ... Operation at low ambient temperatures may require special performance curves.\n   ** Warning ** CalcDoe2DXCoil: Coil:Cooling:DX:SingleSpeed \"COIL COOLING DX SINGLE SPEED 13 9KBTU/HR 10.6EER\" - Air-cooled condenser inlet dry-bulb temperature below 0 C. Outdoor dry-bulb temperature = -0.55\n   **   ~~~   **  ... Occurrence info = RUN PERIOD 1, 03/16 13:30 - 13:45\n   **   ~~~   ** ... Operation at low ambient temperatures may require special performance curves.\n   ** Warning ** CalcDoe2DXCoil: Coil:Cooling:DX:SingleSpeed \"COIL COOLING DX SINGLE SPEED 28 19KBTU/HR 14.0SEER\" - Air-cooled condenser inlet dry-bulb temperature below 0 C. Outdoor dry-bulb temperature = -0.20\n   **   ~~~   **  ... Occurrence info = RUN PERIOD 1, 03/16 13:45 - 14:00\n   **   ~~~   ** ... Operation at low ambient temperatures may require special performance curves.\n   ** Warning ** CalcDoe2DXCoil: Coil:Cooling:DX:SingleSpeed \"COIL COOLING DX SINGLE SPEED 12 9KBTU/HR 10.5EER\" - Air-cooled condenser inlet dry-bulb temperature below 0 C. Outdoor dry-bulb temperature = -0.20\n   **   ~~~   **  ... Occurrence info = RUN PERIOD 1, 03/16 13:45 - 14:00\n   **   ~~~   ** ... Operation at low ambient temperatures may require special performance curves.\n   ** Warning ** CalcDoe2DXCoil: Coil:Cooling:DX:SingleSpeed \"COIL COOLING DX SINGLE SPEED 3 6KBTU/HR 11.0EER\" - Full load outlet air dry-bulb temperature < 2C. This indicates the possibility of coil frost/freeze. Outlet temperature = 1.91 C.\n   **   ~~~   **  ...Occurrence info = RUN PERIOD 1, 03/26 20:45 - 21:00\n   **   ~~~   ** ... Possible reasons for low outlet air dry-bulb temperatures are: This DX coil\n   **   ~~~   **    1) may have a low inlet air dry-bulb temperature. Inlet air temperature = 14.934 C.\n   **   ~~~   **    2) may have a low air flow rate per watt of cooling capacity. Check inputs.\n   **   ~~~   **    3) is used as part of a HX assisted cooling coil which uses a high sensible effectiveness. Check inputs.\n   ** Warning ** CalcDoe2DXCoil: Coil:Cooling:DX:SingleSpeed \"COIL COOLING DX SINGLE SPEED 22 5KBTU/HR 11.0EER\" - Air-cooled condenser inlet dry-bulb temperature below 0 C. Outdoor dry-bulb temperature = -0.33\n   **   ~~~   **  ... Occurrence info = RUN PERIOD 1, 03/30 19:00 - 19:15\n   **   ~~~   ** ... Operation at low ambient temperatures may require special performance curves.\n   ** Warning ** CalcDoe2DXCoil: Coil:Cooling:DX:SingleSpeed \"COIL COOLING DX SINGLE SPEED 22 5KBTU/HR 11.0EER\" - Full load outlet air dry-bulb temperature < 2C. This indicates the possibility of coil frost/freeze. Outlet temperature = 1.93 C.\n   **   ~~~   **  ...Occurrence info = RUN PERIOD 1, 03/30 19:30 - 19:45\n   **   ~~~   ** ... Possible reasons for low outlet air dry-bulb temperatures are: This DX coil\n   **   ~~~   **    1) may have a low inlet air dry-bulb temperature. Inlet air temperature = 14.951 C.\n   **   ~~~   **    2) may have a low air flow rate per watt of cooling capacity. Check inputs.\n   **   ~~~   **    3) is used as part of a HX assisted cooling coil which uses a high sensible effectiveness. Check inputs.\n   ** Warning ** CalcDoe2DXCoil: Coil:Cooling:DX:SingleSpeed \"COIL COOLING DX SINGLE SPEED 1 78KBTU/HR 9.7EER\" - Full load outlet air dry-bulb temperature < 2C. This indicates the possibility of coil frost/freeze. Outlet temperature = 1.99 C.\n   **   ~~~   **  ...Occurrence info = RUN PERIOD 1, 05/13 09:15 - 09:22\n   **   ~~~   ** ... Possible reasons for low outlet air dry-bulb temperatures are: This DX coil\n   **   ~~~   **    1) may have a low inlet air dry-bulb temperature. Inlet air temperature = 18.900 C.\n   **   ~~~   **    2) may have a low air flow rate per watt of cooling capacity. Check inputs.\n   **   ~~~   **    3) is used as part of a HX assisted cooling coil which uses a high sensible effectiveness. Check inputs.\n   ************* Simulation Error Summary *************\n   ************* There are 9 unused schedules in input.\n   ************* There are 9 unused week schedules in input.\n   ************* There are 17 unused day schedules in input.\n   ************* Use Output:Diagnostics,DisplayUnusedSchedules; to see them.\n   *************\n   ************* ===== Recurring Error Summary =====\n   ************* The following recurring error messages occurred.\n   *************\n   *************  ** Warning ** CalcDoe2DXCoil: Coil:Cooling:DX:SingleSpeed=\"COIL COOLING DX SINGLE SPEED 26 7KBTU/HR 11.0EER\" - Low condenser dry-bulb temperature error continues...\n   *************  **   ~~~   **   This error occurred 2231 total times;\n   *************  **   ~~~   **   during Warmup 0 times;\n   *************  **   ~~~   **   during Sizing 0 times.\n   *************  **   ~~~   **   Max=-1.387779E-017 [C]  Min=-32. [C]\n   *************\n   *************  ** Warning ** CalcDoe2DXCoil: Coil:Cooling:DX:SingleSpeed=\"COIL COOLING DX SINGLE SPEED 26 7KBTU/HR 11.0EER\" - Full load outlet temperature indicates a possibility of frost/freeze error continues. Outlet air temperature statistics follow:\n   *************  **   ~~~   **   This error occurred 876 total times;\n   *************  **   ~~~   **   during Warmup 0 times;\n   *************  **   ~~~   **   during Sizing 0 times.\n   *************  **   ~~~   **   Max=1.993569  Min=-2.421872\n   *************\n   *************  ** Warning ** CalcDoe2DXCoil: Coil:Cooling:DX:SingleSpeed=\"COIL COOLING DX SINGLE SPEED 25 7KBTU/HR 11.0EER\" - Low condenser dry-bulb temperature error continues...\n   *************  **   ~~~   **   This error occurred 2243 total times;\n   *************  **   ~~~   **   during Warmup 0 times;\n   *************  **   ~~~   **   during Sizing 0 times.\n   *************  **   ~~~   **   Max=-1.387779E-017 [C]  Min=-32. [C]\n   *************\n   *************  ** Warning ** CalcDoe2DXCoil: Coil:Cooling:DX:SingleSpeed=\"COIL COOLING DX SINGLE SPEED 25 7KBTU/HR 11.0EER\" - Full load outlet temperature indicates a possibility of frost/freeze error continues. Outlet air temperature statistics follow:\n   *************  **   ~~~   **   This error occurred 971 total times;\n   *************  **   ~~~   **   during Warmup 0 times;\n   *************  **   ~~~   **   during Sizing 0 times.\n   *************  **   ~~~   **   Max=1.998734  Min=-3.010971\n   *************\n   *************  ** Warning ** CalcDoe2DXCoil: Coil:Cooling:DX:SingleSpeed=\"COIL COOLING DX SINGLE SPEED 27 10KBTU/HR 10.4EER\" - Low condenser dry-bulb temperature error continues...\n   *************  **   ~~~   **   This error occurred 1829 total times;\n   *************  **   ~~~   **   during Warmup 0 times;\n   *************  **   ~~~   **   during Sizing 0 times.\n   *************  **   ~~~   **   Max=-1.387779E-017 [C]  Min=-31.075 [C]\n   *************\n   *************  ** Warning ** CalcDoe2DXCoil: Coil:Cooling:DX:SingleSpeed=\"COIL COOLING DX SINGLE SPEED 7 8KBTU/HR 10.8EER\" - Low condenser dry-bulb temperature error continues...\n   *************  **   ~~~   **   This error occurred 3320 total times;\n   *************  **   ~~~   **   during Warmup 0 times;\n   *************  **   ~~~   **   during Sizing 0 times.\n   *************  **   ~~~   **   Max=-1.387779E-017 [C]  Min=-31.475 [C]\n   *************\n   *************  ** Warning ** CalcDoe2DXCoil: Coil:Cooling:DX:SingleSpeed=\"COIL COOLING DX SINGLE SPEED 9 8KBTU/HR 10.8EER\" - Low condenser dry-bulb temperature error continues...\n   *************  **   ~~~   **   This error occurred 3301 total times;\n   *************  **   ~~~   **   during Warmup 0 times;\n   *************  **   ~~~   **   during Sizing 0 times.\n   *************  **   ~~~   **   Max=-1.387779E-017 [C]  Min=-31.475 [C]\n   *************\n   *************  ** Warning ** CalcDoe2DXCoil: Coil:Cooling:DX:SingleSpeed=\"COIL COOLING DX SINGLE SPEED 8 10KBTU/HR 10.3EER\" - Low condenser dry-bulb temperature error continues...\n   *************  **   ~~~   **   This error occurred 2369 total times;\n   *************  **   ~~~   **   during Warmup 0 times;\n   *************  **   ~~~   **   during Sizing 0 times.\n   *************  **   ~~~   **   Max=-1.387779E-017 [C]  Min=-31.075 [C]\n   *************\n   *************  ** Warning ** CalcDoe2DXCoil: Coil:Cooling:DX:SingleSpeed=\"COIL COOLING DX SINGLE SPEED 10 12KBTU/HR 10.0EER\" - Low condenser dry-bulb temperature error continues...\n   *************  **   ~~~   **   This error occurred 2200 total times;\n   *************  **   ~~~   **   during Warmup 0 times;\n   *************  **   ~~~   **   during Sizing 0 times.\n   *************  **   ~~~   **   Max=-1.387779E-017 [C]  Min=-30.05 [C]\n   *************\n   *************  ** Warning ** CalcDoe2DXCoil: Coil:Cooling:DX:SingleSpeed=\"COIL COOLING DX SINGLE SPEED 16 11KBTU/HR 10.1EER\" - Low condenser dry-bulb temperature error continues...\n   *************  **   ~~~   **   This error occurred 1121 total times;\n   *************  **   ~~~   **   during Warmup 0 times;\n   *************  **   ~~~   **   during Sizing 0 times.\n   *************  **   ~~~   **   Max=-1.387779E-017 [C]  Min=-27.15 [C]\n   *************\n   *************  ** Warning ** CalcDoe2DXCoil: Coil:Cooling:DX:SingleSpeed=\"COIL COOLING DX SINGLE SPEED 19 11KBTU/HR 10.1EER\" - Low condenser dry-bulb temperature error continues...\n   *************  **   ~~~   **   This error occurred 1141 total times;\n   *************  **   ~~~   **   during Warmup 0 times;\n   *************  **   ~~~   **   during Sizing 0 times.\n   *************  **   ~~~   **   Max=-1.387779E-017 [C]  Min=-27.15 [C]\n   *************\n   *************  ** Warning ** CalcDoe2DXCoil: Coil:Cooling:DX:SingleSpeed=\"COIL COOLING DX SINGLE SPEED 17 14KBTU/HR 9.6EER\" - Low condenser dry-bulb temperature error continues...\n   *************  **   ~~~   **   This error occurred 1063 total times;\n   *************  **   ~~~   **   during Warmup 0 times;\n   *************  **   ~~~   **   during Sizing 0 times.\n   *************  **   ~~~   **   Max=-2.500000E-002 [C]  Min=-26.025 [C]\n   *************\n   *************  ** Warning ** CalcDoe2DXCoil: Coil:Cooling:DX:SingleSpeed=\"COIL COOLING DX SINGLE SPEED 7 8KBTU/HR 10.8EER\" - Full load outlet temperature indicates a possibility of frost/freeze error continues. Outlet air temperature statistics follow:\n   *************  **   ~~~   **   This error occurred 703 total times;\n   *************  **   ~~~   **   during Warmup 0 times;\n   *************  **   ~~~   **   during Sizing 0 times.\n   *************  **   ~~~   **   Max=1.997662  Min=-1.302867\n   *************\n   *************  ** Warning ** CalcDoe2DXCoil: Coil:Cooling:DX:SingleSpeed=\"COIL COOLING DX SINGLE SPEED 9 8KBTU/HR 10.8EER\" - Full load outlet temperature indicates a possibility of frost/freeze error continues. Outlet air temperature statistics follow:\n   *************  **   ~~~   **   This error occurred 634 total times;\n   *************  **   ~~~   **   during Warmup 0 times;\n   *************  **   ~~~   **   during Sizing 0 times.\n   *************  **   ~~~   **   Max=1.997032  Min=-1.078525\n   *************\n   *************  ** Warning ** CalcDoe2DXCoil: Coil:Cooling:DX:SingleSpeed=\"COIL COOLING DX SINGLE SPEED 27 10KBTU/HR 10.4EER\" - Full load outlet temperature indicates a possibility of frost/freeze error continues. Outlet air temperature statistics follow:\n   *************  **   ~~~   **   This error occurred 24 total times;\n   *************  **   ~~~   **   during Warmup 0 times;\n   *************  **   ~~~   **   during Sizing 0 times.\n   *************  **   ~~~   **   Max=1.997228  Min=1.326821\n   *************\n   *************  ** Warning ** CalcDoe2DXCoil: Coil:Cooling:DX:SingleSpeed=\"COIL COOLING DX SINGLE SPEED 18 13KBTU/HR 9.8EER\" - Low condenser dry-bulb temperature error continues...\n   *************  **   ~~~   **   This error occurred 1222 total times;\n   *************  **   ~~~   **   during Warmup 0 times;\n   *************  **   ~~~   **   during Sizing 0 times.\n   *************  **   ~~~   **   Max=-2.500000E-002 [C]  Min=-28.3 [C]\n   *************\n   *************  ** Warning ** CalcDoe2DXCoil: Coil:Cooling:DX:SingleSpeed=\"COIL COOLING DX SINGLE SPEED 8 10KBTU/HR 10.3EER\" - Full load outlet temperature indicates a possibility of frost/freeze error continues. Outlet air temperature statistics follow:\n   *************  **   ~~~   **   This error occurred 19 total times;\n   *************  **   ~~~   **   during Warmup 0 times;\n   *************  **   ~~~   **   during Sizing 0 times.\n   *************  **   ~~~   **   Max=1.936643  Min=1.496109\n   *************\n   *************  ** Warning ** CalcDoe2DXCoil: Coil:Cooling:DX:SingleSpeed=\"COIL COOLING DX SINGLE SPEED 28 19KBTU/HR 14.0SEER\" - Full load outlet temperature indicates a possibility of frost/freeze error continues. Outlet air temperature statistics follow:\n   *************  **   ~~~   **   This error occurred 788 total times;\n   *************  **   ~~~   **   during Warmup 0 times;\n   *************  **   ~~~   **   during Sizing 0 times.\n   *************  **   ~~~   **   Max=1.999916  Min=-5.11182\n   *************\n   *************  ** Warning ** CalcDoe2DXCoil: Coil:Cooling:DX:SingleSpeed=\"COIL COOLING DX SINGLE SPEED 6 7KBTU/HR 11.0EER\" - Low condenser dry-bulb temperature error continues...\n   *************  **   ~~~   **   This error occurred 1140 total times;\n   *************  **   ~~~   **   during Warmup 0 times;\n   *************  **   ~~~   **   during Sizing 0 times.\n   *************  **   ~~~   **   Max=-1.387779E-017 [C]  Min=-18.9 [C]\n   *************\n   *************  ** Warning ** CalcDoe2DXCoil: Coil:Cooling:DX:SingleSpeed=\"COIL COOLING DX SINGLE SPEED 24 7KBTU/HR 11.0EER\" - Low condenser dry-bulb temperature error continues...\n   *************  **   ~~~   **   This error occurred 179 total times;\n   *************  **   ~~~   **   during Warmup 0 times;\n   *************  **   ~~~   **   during Sizing 0 times.\n   *************  **   ~~~   **   Max=-5.000000E-002 [C]  Min=-14.4 [C]\n   *************\n   *************  ** Warning ** CalcDoe2DXCoil: Coil:Cooling:DX:SingleSpeed=\"COIL COOLING DX SINGLE SPEED 15 11KBTU/HR 10.3EER\" - Low condenser dry-bulb temperature error continues...\n   *************  **   ~~~   **   This error occurred 98 total times;\n   *************  **   ~~~   **   during Warmup 0 times;\n   *************  **   ~~~   **   during Sizing 0 times.\n   *************  **   ~~~   **   Max=-5.000000E-002 [C]  Min=-11.6 [C]\n   *************\n   *************  ** Warning ** CalcDoe2DXCoil: Coil:Cooling:DX:SingleSpeed=\"COIL COOLING DX SINGLE SPEED 20 9KBTU/HR 10.6EER\" - Low condenser dry-bulb temperature error continues...\n   *************  **   ~~~   **   This error occurred 194 total times;\n   *************  **   ~~~   **   during Warmup 0 times;\n   *************  **   ~~~   **   during Sizing 0 times.\n   *************  **   ~~~   **   Max=-5.000000E-002 [C]  Min=-13.1 [C]\n   *************\n   *************  ** Warning ** CalcDoe2DXCoil: Coil:Cooling:DX:SingleSpeed=\"COIL COOLING DX SINGLE SPEED 11 12KBTU/HR 9.9EER\" - Low condenser dry-bulb temperature error continues...\n   *************  **   ~~~   **   This error occurred 91 total times;\n   *************  **   ~~~   **   during Warmup 0 times;\n   *************  **   ~~~   **   during Sizing 0 times.\n   *************  **   ~~~   **   Max=-5.000000E-002 [C]  Min=-10.65 [C]\n   *************\n   *************  ** Warning ** CalcDoe2DXCoil: Coil:Cooling:DX:SingleSpeed=\"COIL COOLING DX SINGLE SPEED 5 10KBTU/HR 10.3EER\" - Low condenser dry-bulb temperature error continues...\n   *************  **   ~~~   **   This error occurred 321 total times;\n   *************  **   ~~~   **   during Warmup 0 times;\n   *************  **   ~~~   **   during Sizing 0 times.\n   *************  **   ~~~   **   Max=-1.387779E-017 [C]  Min=-14.125 [C]\n   *************\n   *************  ** Warning ** CalcDoe2DXCoil: Coil:Cooling:DX:SingleSpeed=\"COIL COOLING DX SINGLE SPEED 4 6KBTU/HR 11.0EER\" - Low condenser dry-bulb temperature error continues...\n   *************  **   ~~~   **   This error occurred 187 total times;\n   *************  **   ~~~   **   during Warmup 0 times;\n   *************  **   ~~~   **   during Sizing 0 times.\n   *************  **   ~~~   **   Max=-1.387779E-017 [C]  Min=-7.5 [C]\n   *************\n   *************  ** Warning ** CalcDoe2DXCoil: Coil:Cooling:DX:SingleSpeed=\"COIL COOLING DX SINGLE SPEED 4 6KBTU/HR 11.0EER\" - Full load outlet temperature indicates a possibility of frost/freeze error continues. Outlet air temperature statistics follow:\n   *************  **   ~~~   **   This error occurred 20 total times;\n   *************  **   ~~~   **   during Warmup 0 times;\n   *************  **   ~~~   **   during Sizing 0 times.\n   *************  **   ~~~   **   Max=1.999735  Min=1.200182\n   *************\n   *************  ** Warning ** CalcDoe2DXCoil: Coil:Cooling:DX:SingleSpeed=\"COIL COOLING DX SINGLE SPEED 2 10KBTU/HR 10.4EER\" - Low condenser dry-bulb temperature error continues...\n   *************  **   ~~~   **   This error occurred 185 total times;\n   *************  **   ~~~   **   during Warmup 0 times;\n   *************  **   ~~~   **   during Sizing 0 times.\n   *************  **   ~~~   **   Max=-1.387779E-017 [C]  Min=-7.8 [C]\n   *************\n   *************  ** Warning ** CalcDoe2DXCoil: Coil:Cooling:DX:SingleSpeed=\"COIL COOLING DX SINGLE SPEED 3 6KBTU/HR 11.0EER\" - Low condenser dry-bulb temperature error continues...\n   *************  **   ~~~   **   This error occurred 151 total times;\n   *************  **   ~~~   **   during Warmup 0 times;\n   *************  **   ~~~   **   during Sizing 0 times.\n   *************  **   ~~~   **   Max=-1.387779E-017 [C]  Min=-6.1 [C]\n   *************\n   *************  ** Warning ** CalcDoe2DXCoil: Coil:Cooling:DX:SingleSpeed=\"COIL COOLING DX SINGLE SPEED 23 9KBTU/HR 10.5EER\" - Low condenser dry-bulb temperature error continues...\n   *************  **   ~~~   **   This error occurred 150 total times;\n   *************  **   ~~~   **   during Warmup 0 times;\n   *************  **   ~~~   **   during Sizing 0 times.\n   *************  **   ~~~   **   Max=-2.500000E-002 [C]  Min=-8.7 [C]\n   *************\n   *************  ** Warning ** CalcDoe2DXCoil: Coil:Cooling:DX:SingleSpeed=\"COIL COOLING DX SINGLE SPEED 14 11KBTU/HR 10.1EER\" - Low condenser dry-bulb temperature error continues...\n   *************  **   ~~~   **   This error occurred 46 total times;\n   *************  **   ~~~   **   during Warmup 0 times;\n   *************  **   ~~~   **   during Sizing 0 times.\n   *************  **   ~~~   **   Max=-2.500000E-002 [C]  Min=-8.7 [C]\n   *************\n   *************  ** Warning ** CalcDoe2DXCoil: Coil:Cooling:DX:SingleSpeed=\"COIL COOLING DX SINGLE SPEED 13 9KBTU/HR 10.6EER\" - Low condenser dry-bulb temperature error continues...\n   *************  **   ~~~   **   This error occurred 3 total times;\n   *************  **   ~~~   **   during Warmup 0 times;\n   *************  **   ~~~   **   during Sizin
[...]
j3YbUCbhoJSvR4sNqBNQzdjqtmDrQa0aSgo1ezBSpvXpi1zgDYNBdWvCGjTUFB9+IE2DQXVhx9o01BQffiJNo0lxbo92GxEm8aSYvUeLDeiTWNJsYYP9hvRprG7MtbxwYoj2jSWFOv4YMupTVObpjbtE6HatPdRm6Y2TW3aYNSmqU1b9VepTVs8f8Xn1aY9jtq0+7zgW1obswuII4444ogjjjjiiCOOOOLsHmdj0gFppJFGGmmkkUYaaaSRRpr90Hwb2YE44ogjjjjiiCOOOOKII87889SmfYzatLs2re1Dm3begTbt/GXatLcfPWJNIzmHUM4xlHMK5ZxDOZdQzjWUcwvlLH50j4JSjW6pSrdUp1uq1C3V6paqdUv1uqWK3VLN7qlm99hdnWp2TzW7r2r283q0RdS8HQ3ElG9o3o0GYspzP29GAzHlmZ/3ooGY8rwDKxrJCfW4XmNAiUZyQlWudxjwoZGcUJvrBQZkaOQeDPW53l7AhEZyQn2uV9e8Bm0RAyxoJKd8PcCBRnLK4w4MaCSnPO7Af0ZyyuNO7GcoKNXoeoMR9RkKSpW6XmLEe4aCUr2u9xiRnqGbMdXsepUR4xkKSjW73mbqztSdqTv7RKju7H3Unak7U3c2GHVn6s5W/VXqzhbPX/F5dWePo+7sPi/4dtXGrADiiCOOOOKII4444ogjjji7x9mYLEAaaaSRRhpppJFGGmmkkWY/NN9GUiCOOOKII4444ogjjjjiiDP/PHVnH6Pu7K476/vQnV12oDu7fKHu7O0U8p2BoEMq6JgKOqWCzqmgSyromgq6pYJ++bk9SYp1u8XK3WLtbrF6t1i/W6zgLdbwFqt4i3W8xzrec/d3rOM91vG+ruNrNGiPWcSDNp9TvyViQpvPqW8B4kKbz6lvAGJDm8+pTz/yoYGgVKMH6w0p0UBQqtSD3YasaCAo1evBYkNiNHAzppo92GrIjQaCUs0erDSiR3vMQX40EFS/ImRIA0H14UeONBBUH35kSQNB9eFnnjSSFOv2YLMxVRpJitV7sNyYLY0kxRo+2G9MmEbuyljHByuOOdNIUqzjgy2nNk1tmtq0T4Rq095HbZraNLVpg1GbpjZt1V+lNm3x/BWfV5v2OGrT7vOCb2ltzC4gjjjiiCOOOOKII4444oize5yNSQekkUYaaaSRRhpppJFGGmn2Q/NtZAfiiCOOOOKII4444ogjjjjzz1Ob9jFq0+7atMM+tGnXHWjTrl+mTTv//FHorOImFXRIBR1TQadU0DkVdEkFXVNBt1TQ4tf3LCnW7RYrd4u1u8Xq3WL9brGCt1jDW6ziLdbxHut4z93fsY73WMf7uo4/r01bZs1r00hO/ZbmtWkkp74F5rVpJKe+Aea1aSSnPv1Am4aCUo0erDegTUNBqVIPdhvQpqGgVK8Hiw1o09DNmGr2YKsBbRoKSjV7sNLmtWnLHKBNQ0H1KwLaNBRUH36gTUNB9eEH2jQUVB9+ok1jSbFuDzYb0aaxpFi9B8uNaNNYUqzhg/1GtGnsrox1fLDiiDaNJcU6PthyatPUpqlN+0SoNu191KapTVObNhi1aWrTVv1VatMWz1/xebVpj6M27T4v+JbWxuwC4ogjjjjiiCOOOOKII444u8fZmHRAGmmkkUYaaaSRRhpppJFmPzTfRnYgjjjiiCOOOOKII4444ogz/zy1aR+jNu2uTTvuQ5t224E27fZl2rS3Hz1iTSM5h1DOMZRzCuWcQzmXUM41lHML5Sx+dI+CUo1uqUq3VKdbqtQt1eqWqnVL9bqlit1Sze6pZvfYXZ1qdk81u69q9vN6tEXUvB0NxJRvaN6NBmLKcz9vRgMx5Zmf96KBmPK8AysayQn1uF5jQIlGckJVrncY8KGRnFCb6wUGZGjkHgz1ud5ewIRGckJ9rlfXvAZtEQMsaCSnfD3AgUZyyuMODGgkpzzuwH9GcsrjTuxnKCjV6HqDEfUZCkqVul5ixHuGglK9rvcYkZ6hmzHV7HqVEeMZCko1u95m6s7Unak7+0So7ux91J2pO1N3Nhh1Z+rOVv1V6s4Wz1/xeXVnj6Pu7D4v+HbVxqwA4ogjjjjiiCOOOOKII444u8fZmCxAGmmkkUYaaaSRRhpppJFmPzTfRlIgjjjiiCOOOOKII4444ogz/zx1Zx+j7uyuOzvtQnd2edu+7uyvjF+nO3s7hXxnIOiQCjqmgk6poHMq6JIKuqaCbqmgX35uT5Ji3W6xcrdYu1us3i3W7xYreIs1vMUq3mId77GO99z9Het4j3W8r+v4Gg3aYxbxoM3n1G+JmNDmc+pbgLjQ5nPqG4DY0OZz6tOPfGggKNXowXpDSjQQlCr1YLchKxoISvV6sNiQGA3cjKlmD7YacqOBoFSzByuN6NEec5AfDQTVrwgZ0kBQffiRIw0E1YcfWdJAUH34mSeNJMW6PdhsTJVGkmL1Hiw3ZksjSbGGD/YbE6aRuzLW8cGKY840khTr+GDLqU1Tm6Y27ROh2rT3UZumNk1t2mDUpqlNW/VXqU1bPH/F59WmPY7atPu84FtaG7MLiCOOOOKII4444ogjjjji7B5nY9IBaaSRRhpppJFGGmmkkUaa/dB8G9mBOOKII4444ogjjjjiiCPO/PPUpn2M2rS7Nu28D21a24E2rX2ZNu3880ehs4qbVNAhFXRMBZ1SQedU0CUVdE0F3VJBi1/fs6RYt1us3C3W7hard4v1u8UK3mINb7GKt1jHe6zjPXd/xzreYx3v6zr+vDZtmTWvTSM59Vua16aRnPoWmNemkZz6BpjXppGc+vQDbRoKSjV6sN6ANg0FpUo92G1Am4aCUr0eLDagTUM3Y6rZg60GtGkoKNXswUqb16Ytc4A2DQXVrwho01BQffiBNg0F1YcfaNNQUH34iTaNJcW6PdhsRJvGkmL1Hiw3ok1jSbGGD/Yb0aaxuzLW8cGKI9o0lhTr+GDLqU1Tm6Y27ROh2rT3UZumNk1t2mDUpqlNW/VXqU1bPH/F59WmPY7atPu84FtaG7MLiCOOOOKII4444ogjjjji7B5nY9IBaaSRRhpppJFGGmmkkUaa/dB8G9mBOOKII4444ogjjjjiiCPO/PPUpn2M2rS7Nu2yD21a34E2rX+ZNu3tR49Y00jOIZRzDOWcQjnnUM4llHMN5dxCOYsf3aOgVKNbqtIt1emWKnVLtbqlat1SvW6pYrdUs3uq2T12V6ea3VPN7qua/bwebRE1b0cDMeUbmnejgZjy3M+b0UBMeebnvWggpjzvwIpGckI9rtcYUKKRnFCV6x0GfGgkJ9TmeoEBGRq5B0N9rrcXMKGRnFCf69U1r0FbxAALGskpXw9woJGc8rgDAxrJKY878J+RnPK4E/sZCko1ut5gRH2GglKlrpcY8Z6hoFSv6z1GpGfoZkw1u15lxHiGglLNrreZujN1Z+rOPhGqO3sfdWfqztSdDUbdmbqzVX+VurPF81d8Xt3Z46g7u88Lvl21MSuAOOKII4444ogjjjjiiCPO7nE2JguQRhpppJFGGmmkkUYaaaTZD823kRSII4444ogjjjjiiCOOOOLMP0/d2ceoO7vrzq770J0ddqA7O3yh7uztFPKdgaBDKuiYCjqlgs6poEsq6JoKuqWCfvm5PUmKdbvFyt1i7W6xerdYv1us4C3W8BareIt1vMc63nP3d6zjPdbxvq7jazRoj1nEgzafU78lYkKbz6lvAeJCm8+pbwBiQ5vPqU8/8qGBoFSjB+sNKdFAUKrUg92GrGggKNXrwWJDYjRwM6aaPdhqyI0GglLNHqw0okd7zEF+NBBUvyJkSANB9eFHjjQQVB9+ZEkDQfXhZ540khTr9mCzMVUaSYrVe7DcmC2NJMUaPthvTJhG7spYxwcrjjnTSFKs44MtpzZNbZratE+EatPeR22a2jS1aYNRm6Y2bdVfpTZt8fwVn1eb9jhq0+7zgm9pbcwuII444ogjjjjiiCOOOOKIs3ucjUkHpJFGGmmkkUYaaaSRRhpp9kPzbWQH4ogjjjjiiCOOOOKII444889Tm/YxatPu2rTbPrRpxx1o045fpk07//xR6KziJhV0SAUdU0GnVNA5FXRJBV1TQbdU0OLX9ywp1u0WK3eLtbvF6t1i/W6xgrdYw1us4i3W8R7reM/d37GO91jH+7qOP69NW2bNa9NITv2W5rVpJKe+Bea1aSSnvgHmtWkkpz79QJuGglKNHqw3oE1DQalSD3Yb0KahoFSvB4sNaNPQzZhq9mCrAW0aCko1e7DS5rVpyxygTUNB9SsC2jQUVB9+oE1DQfXhB9o0FFQffqJNY0mxbg82G9GmsaRYvQfLjWjTWFKs4YP9RrRp7K6MdXyw4og2jSXFOj7YcmrT1KapTftEqDbtfdSmqU1TmzYYtWlq01b9VWrTFs9f8Xm1aY+jNu0+L/iW1sbsAuKII4444ogjjjjiiCOOOLvH2Zh0QBpppJFGGmmkkUYaaaSRZj8030Z2II444ogjjjjiiCOOOOKIM/88tWkfozbtd23aaR/WtNMOrGknrWlzQVrT/jhIa9pTSVrTtKZpTdOapjVNa5rWNK1pWtP+5s2oNe2Pg7Sm/WGQ1jStaVrTtKbFkrSmPZekNa2G0ZqmNe3X0Zr2O77WtF9Ha9ozozVt3ee1pmlNW/VXaU1bPH/F57WmPY7WtPu84EtaG5MLiCOOOOKII4444ogjjjji7B5nY84BaaSRRhpppJFGGmmkkUaa/dB8G9eBOOKII4444ogjjjjiiCPO/PO0pn2M1rS7Ne1tH9q08w60aecv06a9/egRaxrJOYRyjqGcUyjnHMq5hHKuoZxbKGfxo3sUlGp0S1W6pTrdUqVuqVa3VK1bqtctVeyWanZPNbvH7upUs3uq2X1Vs5/Xoy2i5u1oIKZ8Q/NuNBBTnvt5MxqIKc/8vBcNxJTnHVjRSE6ox/UaA0o0khOqcr3DgA+N5ITaXC8wIEMj92Coz/X2AiY0khPqc7265jVoixhgQSM55esBDjSSUx53YEAjOeVxB/4zklMed2I/Q0GpRtcbjKjPUFCq1PUSI94zFJTqdb3HiPQM3YypZterjBjPUFCq2fU2U3em7kzd2SdCdWfvo+5M3Zm6s8GoO1N3tuqvUne2eP6Kz6s7exx1Z/d5wberNmYFEEccccQRRxxxxBFHHHHE2T3OxmQB0kgjjTTSSCONNNJII400+6H5NpICccQRRxxxxBFHHHHEEUec+eepO/sYdWd33Vnbh+7ssgPd2eULdWdvp5DvDAQdUkHHVNApFXROBV1SQddU0C0V9MvP7UlSrNstVu4Wa3eL1bvF+t1iBW+xhrdYxVus4z3W8Z67v2Md77GO93UdX6NBe8wiHrT5nPotERPafE59CxAX2nxOfQMQG9p8Tn36kQ8NBKUaPVhvSIkGglKlHuw2ZEUDQaleDxYbEqOBmzHV7MFWQ240EJRq9mClET3aYw7yo4Gg+hUhQxoIqg8/cqSBoPrwI0saCKoPP/OkkaRYtwebjanSSFKs3oPlxmxpJCnW8MF+Y8I0clfGOj5YccyZRpJiHR9sObVpatPUpn0iVJv2PmrT1KapTRuM2jS1aav+KrVpi+ev+LzatMdRm3afF3xLa2N2AXHEEUccccQRRxxxxBFHnN3jbEw6II000kgjjTTSSCONNNJIsx+abyM7EEccccQRRxxxxBFHHHHEmX+e2rSPUZt216b1fWjTrjvQpl2/TJt2/vmj0FnFTSrokAo6poJOqaBzKuiSCrqmgm6poMWv71lSrNstVu4Wa3eL1bvF+t1iBW+xhrdYxVus4z3W8Z67v2Md77GO93Udf16btsya16aRnPotzWvTSE59C8xr00hOfQPMa9NITn36gTYNBaUaPVhvQJuGglKlHuw2oE1DQaleDxYb0KahmzHV7MFWA9o0FJRq9mClzWvTljlAm4aC6lcEtGkoqD78QJuGgurDD7RpKKg+/ESbxpJi3R5sNqJNY0mxeg+WG9GmsaRYwwf7jWjT2F0Z6/hgxRFtGkuKdXyw5dSmqU1Tm/aJUG3a+6hNU5umNm0watPUpq36q9SmLZ6/4vNq0x5Hbdp9XvAtrY3ZBcQRRxxxxBFHHHHEEUcccXaPszHpgDTSSCONNNJII4000kgjzX5ovo3sQBxxxBFHHHHEEUccccQRZ/55atM+Rm3aXZt22Ic27bYDbdrty7Rpbz96xJpGcg6hnGMo5xTKOYdyLqGcayjnFspZ/OgeBaUa3VKVbqlOt1SpW6rVLVXrlup1SxW7pZrdU83usbs61eyeanZf1ezn9WiLqHk7Gogp39C8Gw3ElOd+3owGYsozP+9FAzHleQdWNJIT6nG9xoASjeSEqlzvMOBDIzmhNtcLDMjQyD0Y6nO9vYAJjeSE+lyvrnkN2iIGWNBITvl6gAON5JTHHRjQSE553IH/jOSUx53Yz1BQqtH1BiPqMxSUKnW9xIj3DAWlel3vMSI9Qzdjqtn1KiPGMxSUana9zdSdqTtTd/aJUN3Z+6g7U3em7mww6s7Una36q9SdLZ6/4vPqzh5H3dl9XvDtqo1ZAcQRRxxxxBFHHHHEEUcccXaPszFZgDTSSCONNNJII4000kgjzX5ovo2kQBxxxBFHHHHEEUccccQRZ/556s4+Rt3ZXXd23IXu7Pq2fd3ZXxm/Tnf2dgr5zkDQIRV0TAWdUkHnVNAlFXRNBd1SQb/83J4kxbrdYuVusXa3WL1brN8tVvAWa3iLVbzFOt5jHe+5+zvW8R7reF/X8TUatMcs4kGbz6nfEjGhzefUtwBxoc3n1DcAsaHN59SnH/nQQFCq0YP1hpRoIChV6sFuQ1Y0EJTq9WCxITEauBlTzR5sNeRGA0GpZg9WGtGjPeYgPxoIql8RMqSBoPrwI0caCKoPP7KkgaD68DNPGkmKdXuw2ZgqjSTF6j1YbsyWRpJiDR/sNyZMI3dlrOODFcecaSQp1vHBllObpjZNbdonQrVp76M2TW2a2rTBqE1Tm7bqr1Kbtnj+is+rTXsctWn3ecG3tDZmFxBHHHHEEUccccQRRxxxxNk9zsakA9JII4000kgjjTTSSCONNPuh+TayA3HEEUccccQRRxxxxBFHnPnnqU37GLVpd23aaR/atLYDbVr7Mm3a+eePQmcVN6mgQyromAo6pYLOqaBLKuiaCrqlgha/vmdJsW63WLlbrN0tVu8W63eLFbzFGt5iFW+xjvdYx3vu/o51vMc63td1/Hlt2jJrXptGcuq3NK9NIzn1LTCvTSM59Q0wr00jOfXpB9o0FJRq9GC9AW0aCkqVerDbgDYNBaV6PVhsQJuGbsZUswdbDWjTUFCq2YOVNq9NW+YAbRoKql8R0KahoPrwA20aCqoPP9CmoaD68BNtGkuKdXuw2Yg2jSXF6j1YbkSbxpJiDR/sN6JNY3dlrOODFUe0aSwp1vHBllObpjZNbdonQrVp76M2TW2a2rTBqE1Tm7bqr1Kbtnj+is+rTXsctWn3ecG3tDZmFxBHHHHEEUccccQRRxxxxNk9zsakA9JII4000kgjjTTSSCONNPuh+TayA3HEEUccccQRRxxxxBFHnPnnqU37GLVpd23aeR/atL4DbVr/Mm3a248esaaRnEMo5xjKOYVyzqGcSyjnGsq5hXIWP7pHQalGt1SlW6rTLVXqlmp1S9W6pXrdUsVuqWb3VLN77K5ONbunmt1XNft5Pdoiat6OBmLKNzTvRgMx5bmfN6OBmPLMz3vRQEx53oEVjeSEelyvMaBEIzmhKtc7DPjQSE6ozfUCAzI0cg+G+lxvL2BCIzmhPtera16DtogBFjSSU74e4EAjOeVxBwY0klMed+A/IznlcSf2MxSUanS9wYj6DAWlSl0vMeI9Q0GpXtd7jEjP0M2Yana9yojxDAWlml1vM3Vn6s7UnX0iVHf2PurO1J2pOxuMujN1Z6v+KnVni+ev+Ly6s8dRd3afF3y7amNWAHHEEUccccQRRxxxxBFHnN3jbEwWII000kgjjTTSSCONNNJIsx+abyMpEEccccQRRxxxxBFHHHHEmX+eurOPUXd2151d9qE7O+xAd3b4Qt3Z2ynkOwNBh1TQMRV0SgWdU0GXVNA1FXRLBf3yc3uSFOt2i5W7xdrdYvVusX63WMFbrOEtVvEW63iPdbzn7u9Yx3us431dx9do0B6ziAdtPqd+S8SENp9T3wLEhTafU98AxIY2n1OffuRDA0GpRg/WG1KigaBUqQe7DVnRQFCq14PFhsRo4GZMNXuw1ZAbDQSlmj1YaUSP9piD/GggqH5FyJAGgurDjxxpIKg+/MiSBoLqw888aSQp1u3BZmOqNJIUq/dguTFbGkmKNXyw35gwjdyVsY4PVhxzppGkWMcHW05tmto0tWmfCNWmvY/aNLVpatMGozZNbdqqv0pt2uL5Kz6vNu1x1Kbd5wXf0tqYXUAcccQRRxxxxBFHHHHEEWf3OBuTDkgjjTTSSCONNNJII4000uyH5tvIDsQRRxxxxBFHHHHEEUccceafpzbtY9Sm3bVp131o04470KYdv0ybdv75o9BZxU0q6JAKOqaCTqmgcyrokgq6poJuqaDFr+9ZUqzbLVbuFmt3i9W7xfrdYgVvsYa3WMVbrOM91vGeu79jHe+xjvd1HX9em7bMmtemkZz6Lc1r00hOfQvMa9NITn0DzGvTSE59+oE2DQWlGj1Yb0CbhoJSpR7sNqBNQ0GpXg8WG9CmoZsx1ezBVgPaNBSUavZgpc1r05Y5QJuGgupXBLRpKKg+/ECbhoLqww+0aSioPvxEm8aSYt0ebDaiTWNJsXoPlhvRprGkWMMH+41o09hdGev4YMURbRpLinV8sOXUpqlNU5v2iVBt2vuoTVObpjZtMGrT1Kat+qvUpi2ev+LzatMeR23afV7wLa2N2QXEEUccccQRRxxxxBFHHHF2j7Mx6YA00kgjjTTSSCONNNJII81+aL6N7EAcccQRRxxxxBFHHHHEEWf+eWrTPkZt2l2bdtuHNu20A23a6cu0aW8/esSaRnIOoZxjKOcUyjmHci6hnGso5xbKWfzoHgWlGt1SlW6pTrdUqVuq1S1V65bqdUsVu6Wa3VPN7rG7OtXsnmp2X9Xs5/Voi6h5OxqIKd/QvBsNxJTnft6MBmLKMz/vRQMx5XkHVjSSE+pxvcaAEo3khKpc7zDgQyM5oTbXCwzI0Mg9GOpzvb2ACY3khPpcr655DdoiBljQSE75eoADjeSUxx0Y0EhOedyB/4zklMed2M9QUKrR9QYj6jMUlCp1vcSI9wwFpXpd7zEiPUM3Y6rZ9SojxjMUlGp2vc3Unak7U3f2iVDd2fuoO1N3pu5sMOrO1J2t+qvUnS2ev+Lz6s4eR93ZfV7w7aqNWQHEEUccccQRRxxxxBFHHHF2j7MxWYA00kgjjTTSSCONNNJII81+aL6NpEAcccQRRxxxxBFHHHHEEWf+eerOPkbd2e+6s/M+bGfnHdjOztrOtJ398Y/stZ1pO9N2pu3smSBtZ9rOtJ1pO9N2pu1M25m2s1WLS9uZtrOngrSd/XGQtrM/DtJ29sdB2s4qGG1n2s5+HW1nv+NrO/t1tJ09M9rO1n1e25m2s1V/lbazxfNXfF7b2eNoO7vPC75ctTEpgDjiiCOOOOKII4444ogjzu5xNuYKkEYaaaSRRhpppJFGGmmk2Q/Nt3EUiCOOOOKII4444ogjjjjizD9P29nHaDu7287e9qE7u+xAd3b5Qt3Z2ynkOwNBh1TQMRV0SgWdU0GXVNA1FXRLBf3yc3uSFOt2i5W7xdrdYvVusX63WMFbrOEtVvEW63iPdbzn7u9Yx3us431dx9do0B6ziAdtPqd+S8SENp9T3wLEhTafU98AxIY2n1OffuRDA0GpRg/WG1KigaBUqQe7DVnRQFCq14PFhsRo4GZMNXuw1ZAbDQSlmj1YaUSP9piD/GggqH5FyJAGgurDjxxpIKg+/MiSBoLqw888aSQp1u3BZmOqNJIUq/dguTFbGkmKNXyw35gwjdyVsY4PVhxzppGkWMcHW05tmto0tWmfCNWmvY/aNLVpatMGozZNbdqqv0pt2uL5Kz6vNu1x1Kbd5wXf0tqYXUAcccQRRxxxxBFHHHHEEWf3OBuTDkgjjTTSSCONNNJII4000uyH5tvIDsQRRxxxxBFHHHHEEUccceafpzbtY9Sm3bVpbR/atOsOtGnXL9OmnX/+KHRWcZMKOqSCjqmgUyronAq6pIKuqaBbKmjx63uWFOt2i5W7xdrdYvVusX63WMFbrOEtVvEW63iPdbzn7u9Yx3us431dx5/Xpi2z5rVpJKd+S/PaNJJT3wLz2jSSU98A89o0klOffqBNQ0GpRg/WG9CmoaBUqQe7DWjTUFCq14PFBrRp6GZMNXuw1YA2DQWlmj1YafPatGUO0KahoPoVAW0aCqoPP9CmoaD68ANtGgqqDz/RprGkWLcHm41o01hSrN6D5Ua0aSwp1vDBfiPaNHZXxjo+WHFEm8aSYh0fbDm1aWrT1KZ9IlSb9j5q09SmqU0bjNo0tWmr/iq1aYvnr/i82rTHUZt2nxd8S2tjdgFxxBFHHHHEEUccccQRR5zd42xMOiCNNNJII4000kgjjTTSSLMfmm8jOxBHHHHEEUccccQRRxxxxJl/ntq0j1Gbdtem9X1o02470Kbdvkyb9vajR6xpJOcQyjmGck6hnHMo5xLKuYZybqGcxY/uUVCq0S1V6ZbqdEuVuqVa3VK1bqlet1SxW6rZPdXsHrurU83uqWb3Vc1+Xo+2iJq3o4GY8g3Nu9FATHnu581oIKY88/NeNBBTnndgRSM5oR7Xawwo0UhOqMr1DgM+NJITanO9wIAMjdyDoT7X2wuY0EhOqM/16prXoC1igAWN5JSvBzjQSE553IEBjeSUxx34z0hOedyJ/QwFpRpdbzCiPkNBqVLXS4x4z1BQqtf1HiPSM3QzpppdrzJiPENBqWbX20zdmbozdWefCNWdvY+6M3Vn6s4Go+5M3dmqv0rd2eL5Kz6v7uxx1J3d5wXfrtqYFUAcccQRRxxxxBFHHHHEEWf3OBuTBUgjjTTSSCONNNJII4000uyH5ttICsQRRxxxxBFHHHHEEUccceafp+7sY9Sd3XVnh13ozm5v29ed/ZXx63Rnb6eQ7wwEHVJBx1TQKRV0TgVdUkHXVNAtFfTLz+1JUqzbLVbuFmt3i9W7xfrdYgVvsYa3WMVbrOM91vGeu79jHe+xjvd1HV+jQXvMIh60+Zz6LRET2nxOfQsQF9p8Tn0DEBvafE59+pEPDQSlGj1Yb0iJBoJSpR7sNmRFA0GpXg8WGxKjgZsx1ezBVkNuNBCUavZgpRE92mMO8qOBoPoVIUMaCKoPP3KkgaD68CNLGgiqDz/zpJGkWLcHm42p0khSrN6D5cZsaSQp1vDBfmPCNHJXxjo+WHHMmUaSYh0fbDm1aWrT1KZ9IlSb9j5q09SmqU0bjNo0tWmr/iq1aYvnr/i82rTHUZt2nxd8S2tjdgFxxBFHHHHEEUccccQRR5zd42xMOiCNNNJII4000kgjjTTSSLMfmm8jOxBHHHHEEUccccQRRxxxxJl/ntq0j1GbdtemHfehTWs70Ka1L9OmnX/+KHRWcZMKOqSCjqmgUyronAq6pIKuqaBbKmjx63uWFOt2i5W7xdrdYvVusX63WMFbrOEtVvEW63iPdbzn7u9Yx3us431dx5/Xpi2z5rVpJKd+S/PaNJJT3wLz2jSSU98A89o0klOffqBNQ0GpRg/WG9CmoaBUqQe7DWjTUFCq14PFBrRp6GZMNXuw1YA2DQWlmj1YafPatGUO0KahoPoVAW0aCqoPP9CmoaD68ANtGgqqDz/RprGkWLcHm41o01hSrN6D5Ua0aSwp1vDBfiPaNHZXxjo+WHFEm8aSYh0fbDm1aWrT1KZ9IlSb9j5q09SmqU0bjNo0tWmr/iq1aYvnr/i82rTHUZt2nxd8S2tjdgFxxBFHHHHEEUccccQRR5zd42xMOiCNNNJII4000kgjjTTSSLMfmm8jOxBHHHHEEUccccQRRxxxxJl/ntq0j1GbdtemnfahTes70Kb1L9Omvf3oEWsayTmEco6hnFMo5xzKuYRyrqGcWyhn8aN7FJRqdEtVuqU63VKlbqlWt1StW6rXLVXslmp2TzW7x+7qVLN7qtl9VbOf16MtoubtaCCmfEPzbjQQU577eTMaiCnP/LwXDcSU5x1Y0UhOqMf1GgNKNJITqnK9w4APjeSE2lwvMCBDI/dgqM/19gImNJIT6nO9uuY1aIsYYEEjOeXrAQ40klMed2BAIznlcQf+M5JTHndiP0NBqUbXG4yoz1BQqtT1EiPeMxSU6nW9x4j0DN2MqWbXq4wYz1BQqtn1NlN3pu5M3dknQnVn76PuTN2ZurPBqDtTd7bqr1J3tnj+is+rO3scdWf3ecG3qzZmBRBHHHHEEUccccQRRxxxxNk9zsZkAdJII4000kgjjTTSSCONNPuh+TaSAnHEEUccccQRRxxxxBFHnPnnqTv7GHVnd93ZeR+6s8MOdGeHL9SdvZ1CvjMQdEgFHVNBp1TQORV0SQVdU0G3VNAvP7cnSbFut1i5W6zdLVbvFut3ixW8xRreYhVvsY73WMd77v6OdbzHOt7XdXyNBu0xi3jQ5nPqt0RMaPM59S1AXGjzOfUNQGxo8zn16Uc+NBCUavRgvSElGghKlXqw25AVDQSlej1YbEiMBm7GVLMHWw250UBQqtmDlUb0aI85yI8GgupXhAxpIKg+/MiRBoLqw48saSCoPvzMk0aSYt0ebDamSiNJsXoPlhuzpZGkWMMH+40J08hdGev4YMUxZxpJinV8sOXUpqlNU5v2iVBt2vuoTVObpjZtMGrT1Kat+qvUpi2ev+LzatMeR23afV7wLa2N2QXEEUccccQRRxxxxBFHHHF2j7Mx6YA00kgjjTTSSCONNNJII81+aL6N7EAcccQRRxxxxBFHHHHEEWf+eWrTPkZt2l2bdtmHNu24A23a8cu0aeefPwqdVdykgg6poGMq6JQKOqeCLqmgayrolgpa/PqeJcW63WLlbrF2t1i9W6zfLVbwFmt4i1W8xTreYx3vufs71vEe63hf1/HntWnLrHltGsmp39K8No3k1LfAvDaN5NQ3wLw2jeTUpx9o01BQqtGD9Qa0aSgoVerBbgPaNBSU6vVgsQFtGroZU80ebDWgTUNBqWYPVtq8Nm2ZA7RpKKh+RUCbhoLqww+0aSioPvxAm4aC6sNPtGksKdbtwWYj2jSWFKv3YLkRbRpLijV8sN+INo3dlbGOD1Yc0aaxpFjHB1tObZraNLVpnwjVpr2P2jS1aWrTBqM2TW3aqr9Kbdri+Ss+rzbtcdSm3ecF39LamF1AHHHEEUccccQRRxxxxBFn9zgbkw5II4000kgjjTTSSCONNNLsh+bbyA7EEUccccQRRxxxxBFHHHHmn6c27WPUpt21add9aNNOO9Cmnb5Mm/b2o0esaSTnEMo5hnJOoZxzKOcSyrmGcm6hnMWP7lFQqtEtVemW6nRLlbqlWt1StW6pXrdUsVuq2T3V7B67q1PN7qlm91XNfl6Ptoiat6OBmPINzbvRQEx57ufNaCCmPPPzXjQQU553YEUjOaEe12sMKNFITqjK9Q4DPjSSE2pzvcCADI3cg6E+19sLmNBITqjP9eqa16AtYoAFjeSUrwc40EhOedyBAY3klMcd+M9ITnncif0MBaUaXW8woj5DQalS10uMeM9QUKrX9R4j0jN0M6aaXa8yYjxDQalm19tM3Zm6M3VnnwjVnb2PujN1Z+rOBqPuTN3Zqr9K3dni+Ss+r+7scdSd3ecF367amBVAHHHEEUccccQRRxxxxBFn9zgbkwVII4000kgjjTTSSCONNNLsh+bbSArEEUccccQRRxxxxBFHHHHmn6fu7GPUnd11Z7d96M7OO9Cdnb9Qd/Z2CvnOQNAhFXRMBZ1SQedU0CUVdE0F3VJBv/zcniTFut1i5W6xdrdYvVus3y1W8BZreItVvMU63mMd77n7O9bxHut4X9fxNRq0xyziQZvPqd8SMaHN59S3AHGhzefUNwCxoc3n1Kcf+dBAUKrRg/WGlGggKFXqwW5DVjQQlOr1YLEhMRq4GVPNHmw15EYDQalmD1Ya0aM95iA/GgiqXxEypIGg+vAjRxoIqg8/sqSBoPrwM08aSYp1e7DZmCqNJMXqPVhuzJZGkmINH+w3Jkwjd2Ws44MVx5xpJCnW8cGWU5umNk1t2idCtWnvozZNbZratMGoTVObtuqvUpu2eP6Kz6tNexy1afd5wbe0NmYXEEccccQRRxxxxBFHHHHE2T3OxqQD0kgjjTTSSCONNNJII400+6H5NrIDccQRRxxxxBFHHHHEEUec+eepTfsYtWm/a9Mu+7CmXXZgTbtoTZsL0pr2x0Fa055K0pqmNU1rmtY0rWla07SmaU3TmvY3b0ataX8cpDXtD4O0pmlN05qmNU1r2lNJWtNGozXtb88z//dprWnjaK1pv+NrTft1tKY9M1rT1n1ea5rWtFV/lda0xfNXfF5r2uNoTbvPC76ktTG5gDjiiCOOOOKII4444ogjzu5xNuYckEYaaaSRRhpppJFGGmmk2Q/Nt3EdiCOOOOKII4444ogjjjjizD9Pa9rHaE27W9Pe9qFNu+5Am3b9Mm3a+eePQmcVN6mgQyromAo6pYLOqaBLKuiaCrqlgha/vmdJsW63WLlbrN0tVu8W63eLFbzFGt5iFW+xjvdYx3vu/o51vMc63td1/Hlt2jJrXptGcuq3NK9NIzn1LTCvTSM59Q0wr00jOfXpB9o0FJRq9GC9AW0aCkqVerDbgDYNBaV6PVhsQJuGbsZUswdbDWjTUFCq2YOVNq9NW+YAbRoKql8R0KahoPrwA20aCqoPP9CmoaD68BNtGkuKdXuw2Yg2jSXF6j1YbkSbxpJiDR/sN6JNY3dlrOODFUe0aSwp1vHBllObpjZNbdonQrVp76M2TW2a2rTBqE1Tm7bqr1Kbtnj+is+rTXsctWn3ecG3tDZmFxBHHHHEEUccccQRRxxxxNk9zsakA9JII4000kgjjTTSSCONNPuh+TayA3HEEUccccQRRxxxxBFHnPnnqU37GLVpd21a24c27bYDbdrty7Rpbz96xJpGcg6hnGMo5xTKOYdyLqGcayjnFspZ/OgeBaUa3VKVbqlOt1SpW6rVLVXrlup1SxW7pZrdU83usbs61eyeanZf1ezn9WiLqHk7Gogp39C8Gw3ElOd+3owGYsozP+9FAzHleQdWNJIT6nG9xoASjeSEqlzvMOBDIzmhNtcLDMjQyD0Y6nO9vYAJjeSE+lyvrnkN2iIGWNBITvl6gAON5JTHHRjQSE553IH/jOSUx53Yz1BQqtH1BiPqMxSUKnW9xIj3DAWlel3vMSI9Qzdjqtn1KiPGMxSUana9zdSdqTtTd/aJUN3Z+6g7U3em7mww6s7Una36q9SdLZ6/4vPqzh5H3dl9XvDtqo1ZAcQRRxxxxBFHHHHEEUcccXaPszFZgDTSSCONNNJII4000kgjzX5ovo2kQBxxxBFHHHHEEUccccQRZ/556s4+Rt3ZXXfWd6E7a29v2/edvUN+nfDs7RQynoGgQyromAo6pYLOqaBLKuiaCrqlgn75wT1JinW7xcrdYu1usXq3WL9brOAt1vAWq3iLdbzHOt5z93es4z3W8b6u42tEaI9ZxIQ2n1O/JeJCm8+pbwFiQ5vPqW8A4kObz6lPPzKigaBUowfrDUnRQFCq1IPdhrxoICjV68FiQ2o0cDOmmj3YasiOBoJSzR6sNCJIe8xBhjQQVL8i5EgDQfXhR5Y0EFQffuRJA0H14WemNJIU6/ZgszFZGkmK1Xuw3JgvjSTFGj7Yb0yZRu7KWMcHK45Z00hSrOODLac4TXGa4rRPhIrT3kdxmuI0xWmDUZymOG3VX6U4bfH8FZ9XnPY4itPu84LvaW3MLyCOOOKII4444ogjjjjiiLN7nI1pB6SRRhpppJFGGmmkkUYaafZD8210B+KII4444ogjjjjiiCOOOPPPU5z2MYrT7uK0w07EaW0P4rT2ZeK088+fhc5KblJBh1TQMRV0SgWdU0GXVNA1FXRLBS1+f8+SYt1usXK3WLtbrN4t1u8WK3iLNbzFKt5iHe+xjvfc/R3reI91vK/r+PPitGXWvDiN5NRvaV6cRnLqW2BenEZy6htgXpxGcurTD8RpKCjV6MF6A+I0FJQq9WC3AXEaCkr1erDYgDgN3YypZg+2GhCnoaBUswcrbV6ctswB4jQUVL8iIE5DQfXhB+I0FFQffiBOQ0H14SfiNJYU6/ZgsxFxGkuK1Xuw3Ig4jSXFGj7Yb0Scxu7KWMcHK46I01hSrOODLac4TXGa4rRPhIrT3kdxmuI0xWmDUZymOG3VX6U4bfH8FZ9XnPY4itPu84LvaW3MLyCOOOKII4444ogjjjjiiLN7nI1pB6SRRhpppJFGGmmkkUYaafZD8210B+KII4444ogjjjjiiCOOOPPPU5z2MYrT7uK0407EaX0P4rSuOG0uSHHaHwcpTnsqSXGa4jTFaYrTFKcpTlOcpjhNcdrfvBkVp/1xkOK0PwxSnKY4TXGa4rRYkuK055IUp9UwitMUp/06itN+x1ec9usoTntmFKet+7ziNMVpq/4qxWmL56/4vOK0x1Gcdp8XfE9rY34BccQRRxxxxBFHHHHEEUec3eNsTDsgjTTSSCONNNJII4000kizH5pvozsQRxxxxBFHHHHEEUccccSZf57itI9RnPa7OO26E2/aYQ/etMOXedPefvSINo3kHEI5x1DOKZRzDuVcQjnXUM4tlLP41T0KSjW6pSrdUp1uqVK3VKtbqtYt1euWKnZLNbunmt1jd3Wq2T3V7L6q2c/70RZR83o0EFO+oXk5Gogpz/28Gg3ElGd+XowGYsrzDrRoJCfU43qNAScayQlVud5hQIhGckJtrhcYsKGRezDU53p7ARUayQn1uV5d8x60RQzQoJGc8vUACRrJKY87UKCRnPK4AwEaySmPO9GfoaBUo+sNRtxnKChV6nqJEfEZCkr1ut5jxHqGbsZUs+tVRpRnKCjV7Hqb6TvTd6bv7BOhvrP30Xem70zf2WD0nek7W/VX6TtbPH/F5/WdPY6+s/u84OtVG9MCiCOOOOKII4444ogjjjji7B5nY7YAaaSRRhpppJFGGmmkkUaa/dB8G0uBOOKII4444ogjjjjiiCPO/PP0nX2MvrPffWe3nfjOjnvwnR2/zHfWjm8/3h6mHSP6s2Ds4TWxx9fEnl4Te35N7OU1sdfXxN5eE7v4tX8y90XnrL3ooLUXnbT2oqPWXnTW2osOW3vRaWsvOm7tReetv+i89VfttRedt/6i89bJeXveKzdKntfM5VKffbvzErpc6rM32byiLpf67C02L7DLpT57gwG9XTD2Nafr6X8uABdeMPY1B+zpfysAcV4w9jVn7Ol/KADLXnArvOaUPf2vBKDkC8a+5pQ9/U+EeX/fKBXo/IKxz75aIPsLxj57gQEVYDD22QsMiAKDsc9eYEQjmMx90Tl7+l8KxDmYzH3RUXv6HwtEUJjMfdFpe/rfC8RmmNwTLzpvT/+TgagPk7kvOm9P/6tBT6KeRD2Jnwj1JL6PnkQ9iXoSB6MnUU/iqr9KT+Li+Ss+ryfxcfQk3ucFX8vcmE5EHHHEEUccccQRRxxxxBFn9zgbs4xII4000kgjjTTSSCONNNLsh+bb2E3EEUccccQRRxxxxBFHHHHmn/ffwZP4//z2j//lt7/8/b/817/89nf/47/7n9Qmbkub+Ntf/tuf/uG3v/t///69ef/nn//8X/7u/f/D3r/nfHz7dztRKJ72oFA8fZlC8Xz7cXuY6y1iUMylHl6SenxJ6uklqeeXpF5eknp9SertJakLwUEw9jWnq73meLXXnK/2mgPWXnPC2muOWHvNGWuvOWTtNaesv+aU9RftsNecsv6aU9bBKXtelTgInjclxkKffLPznsRY6JN317wlMRb65L0170iMhT55ZwFDYi71JWfq2X8WAD1iLvUlx+rZfxMAN2Iu9SUn69l/EAAxYm4HvORsPfuvAWBFzKW+5Gw9+0+BeSXiIBQYEXOpT75W4EPMpT55ZQEbYi71ySsLuBBzqU9eWcSEGIx9zel69l8ERIMYjH3NAXv2HwXEgRiMfc0Ze/bfBUSAGNwKrzllz/7TgNgPg7GvOWXP/utA9aHqQ9WHnwhVH76P6kPVh6oPB6P6UPXhqr9K9eHi+Ss+r/rwcVQf3ucF37TcmCFEHHHEEUccccQRRxxxxBFn9zgbE4dII4000kgjjTTSSCONNNLsh+bbCEvEEUccccQRRxxxxBFHHHHmn6f68G/Pt1Uf/pvy8P/47ef/+F//8d//6bd/+pd/kx/+3//wn377D//1r+//f/67y24kiOc9SBDPXyZB/PnT01kJUyjnEMo5hnJOoZxzKOcSyrmGcm6hnIVdAAWlGt1SlW6pTrdUqVuq1S1V65bqdUsVu6Wa3VPN7rG7OtXsnmp2X9Xs56V9i6h5TR+IKd/QvIoPxJTnfl63B2LKMz+v1AMx5XkH2jySE+pxvcaADI/khKpc7zCguCM5oTbXCwyI68g9GOpzvb2Ajo7khPpcr655ydwiBmjlSE75eoA6juSUxx3o4UhOedyBAo7klMedaN5QUKrR9QYj8jYUlCp1vcSIkg0FpXpd7zEiWkM3Y6rZ9Soj+jQUlGp2vc2Uou1CiuZ/9j/7n/3P/mf/s//Z/+x/9j/7n/3P/mf/s//Z/+x/3tJ//tcff/5vv/3lL3/6D7/9X3///n+oaj/elOI//CVK8e+jFH/VKMVXir9ilOL/Okrxfx2l+CtHKb5S/L85SvHFEUccccQRRxxxxBFHHHHE2YNSUhpppJFGGmmkkUYaaaSRZj8030ZlKY444ogjjjjiiCOOOOKIM/+8/w5S/P/tT//42z/985/+/E//+bd//meV+NtS4v/5L//f3/3v//E//ukf/vTbP/3Dv95F+F+rwP/49C//5fH//fv//m//857+8b/c/8e///N/+Nf3//mf/uUf//P/8j/8/6G+SCY="
               },
               {
                  "name" : "annual_peak_electric_demand",
                  "units" : "kW",
                  "value" : 58.236060000000002
               },
               {
                  "name" : "first_year_capital_cost",
                  "units" : "$",
                  "value" : 0
               },
               {
                  "name" : "annual_utility_cost",
                  "units" : "$",
                  "value" : 31708.649999999998
               },
               {
                  "name" : "total_lifecycle_cost",
                  "units" : "$",
                  "value" : 546177.07999999996
               }
            ],
            "step_warnings" : []
         }
      }
   ],
   "updated_at" : "20170710T182804Z",
   "weather_file" : "USA_CO_Denver.Intl.AP.725650_TMY3.epw"
}
