{
   "completed_at" : "20170710T193617Z",
   "completed_status" : "Success",
   "created_at" : "2017-07-10 19:34:00 +0000",
   "current_step" : 5,
   "description" : "",
   "eplusout_err" : "Program Version,EnergyPlus, Version 8.7.0-78a111df4a, YMD=2017.07.10 19:35,IDD_Version 8.7.0\n   ************* IDF Context for following error/warning message:\n   ************* Note -- lines truncated at 300 characters, if necessary...\n   *************      5 Building,\n   ************* indicated Name=NECB 2011-RetailStandalone-NECB HDD Method-CAN_NS_Greenwood.713970_CWEC.epw created: 2017-07-10 19:34:06 +0000\n   ************* Only last 1 lines before error line shown.....\n   *************      6   NECB 2011-RetailStandalone-NECB HDD Method-CAN_NS_Greenwood.713970_CWEC.epw created: 2017-07-10 19:34:06 +0000, !- Name\n   ** Warning ** IP: IDF line~6 Alpha Argument length exceeds maximum, will be truncated=  NECB 2011-RetailStandalone-NECB HDD Method-CAN_NS_Greenwood.713970_CWEC.epw created: 2017-07-10 19:34:06 +000\n   **   ~~~   ** Will be processed as Alpha=NECB 2011-RETAILSTANDALONE-NECB HDD METHOD-CAN_NS_GREENWOOD.713970_CWEC.EPW CREATED: 2017-07-10 19:34:06 +0000\n   ************* Beginning Zone Sizing Calculations\n   ** Warning ** ProcessScheduleInput: Schedule:Day:Interval=\"ECONOMIZER MAX OA FRACTION 100 PCT DEFAULT\", Blank Schedule Type Limits Name input -- will not be validated.\n   ** Warning ** ProcessScheduleInput: Schedule:Day:Interval=\"SCHEDULE DAY 1\", Blank Schedule Type Limits Name input -- will not be validated.\n   ** Warning ** ProcessScheduleInput: Schedule:Day:Interval=\"SCHEDULE DAY 10\", Blank Schedule Type Limits Name input -- will not be validated.\n   ** Warning ** ProcessScheduleInput: Schedule:Day:Interval=\"SCHEDULE DAY 11\", Blank Schedule Type Limits Name input -- will not be validated.\n   ** Warning ** ProcessScheduleInput: Schedule:Day:Interval=\"SCHEDULE DAY 12\", Blank Schedule Type Limits Name input -- will not be validated.\n   ** Warning ** ProcessScheduleInput: Schedule:Day:Interval=\"SCHEDULE DAY 13\", Blank Schedule Type Limits Name input -- will not be validated.\n   ** Warning ** ProcessScheduleInput: Schedule:Day:Interval=\"SCHEDULE DAY 14\", Blank Schedule Type Limits Name input -- will not be validated.\n   ** Warning ** ProcessScheduleInput: Schedule:Day:Interval=\"SCHEDULE DAY 15\", Blank Schedule Type Limits Name input -- will not be validated.\n   ** Warning ** ProcessScheduleInput: Schedule:Day:Interval=\"SCHEDULE DAY 16\", Blank Schedule Type Limits Name input -- will not be validated.\n   ** Warning ** ProcessScheduleInput: Schedule:Day:Interval=\"SCHEDULE DAY 17\", Blank Schedule Type Limits Name input -- will not be validated.\n   ** Warning ** ProcessScheduleInput: Schedule:Day:Interval=\"SCHEDULE DAY 18\", Blank Schedule Type Limits Name input -- will not be validated.\n   ** Warning ** ProcessScheduleInput: Schedule:Day:Interval=\"SCHEDULE DAY 19\", Blank Schedule Type Limits Name input -- will not be validated.\n   ** Warning ** ProcessScheduleInput: Schedule:Day:Interval=\"SCHEDULE DAY 2\", Blank Schedule Type Limits Name input -- will not be validated.\n   ** Warning ** ProcessScheduleInput: Schedule:Day:Interval=\"SCHEDULE DAY 20\", Blank Schedule Type Limits Name input -- will not be validated.\n   ** Warning ** ProcessScheduleInput: Schedule:Day:Interval=\"SCHEDULE DAY 21\", Blank Schedule Type Limits Name input -- will not be validated.\n   ** Warning ** ProcessScheduleInput: Schedule:Day:Interval=\"SCHEDULE DAY 22\", Blank Schedule Type Limits Name input -- will not be validated.\n   ** Warning ** ProcessScheduleInput: Schedule:Day:Interval=\"SCHEDULE DAY 23\", Blank Schedule Type Limits Name input -- will not be validated.\n   ** Warning ** ProcessScheduleInput: Schedule:Day:Interval=\"SCHEDULE DAY 24\", Blank Schedule Type Limits Name input -- will not be validated.\n   ** Warning ** ProcessScheduleInput: Schedule:Day:Interval=\"SCHEDULE DAY 5\", Blank Schedule Type Limits Name input -- will not be validated.\n   ** Warning ** ProcessScheduleInput: Schedule:Day:Interval=\"SCHEDULE DAY 6\", Blank Schedule Type Limits Name input -- will not be validated.\n   ** Warning ** ProcessScheduleInput: Schedule:Day:Interval=\"SCHEDULE DAY 7\", Blank Schedule Type Limits Name input -- will not be validated.\n   ** Warning ** ProcessScheduleInput: Schedule:Day:Interval=\"SCHEDULE DAY 8\", Blank Schedule Type Limits Name input -- will not be validated.\n   ** Warning ** ProcessScheduleInput: Schedule:Day:Interval=\"SCHEDULE DAY 9\", Blank Schedule Type Limits Name input -- will not be validated.\n   ** Warning ** ProcessScheduleInput: Schedule:Year=\"ECONOMIZER MAX OA FRACTION 100 PCT\", Blank Schedule Type Limits Name input -- will not be validated.\n   ** Warning ** ProcessScheduleInput: Schedule:Year=\"SCHEDULE RULESET 10\", Blank Schedule Type Limits Name input -- will not be validated.\n   ** Warning ** ProcessScheduleInput: Schedule:Year=\"SCHEDULE RULESET 11\", Blank Schedule Type Limits Name input -- will not be validated.\n   ** Warning ** ProcessScheduleInput: Schedule:Year=\"SCHEDULE RULESET 12\", Blank Schedule Type Limits Name input -- will not be validated.\n   ** Warning ** ProcessScheduleInput: Schedule:Year=\"SCHEDULE RULESET 13\", Blank Schedule Type Limits Name input -- will not be validated.\n   ** Warning ** ProcessScheduleInput: Schedule:Year=\"SCHEDULE RULESET 14\", Blank Schedule Type Limits Name input -- will not be validated.\n   ** Warning ** ProcessScheduleInput: Schedule:Year=\"SCHEDULE RULESET 3\", Blank Schedule Type Limits Name input -- will not be validated.\n   ** Warning ** ProcessScheduleInput: Schedule:Year=\"SCHEDULE RULESET 4\", Blank Schedule Type Limits Name input -- will not be validated.\n   ** Warning ** ProcessScheduleInput: Schedule:Year=\"SCHEDULE RULESET 5\", Blank Schedule Type Limits Name input -- will not be validated.\n   ** Warning ** ProcessScheduleInput: Schedule:Year=\"SCHEDULE RULESET 6\", Blank Schedule Type Limits Name input -- will not be validated.\n   ** Warning ** ProcessScheduleInput: Schedule:Year=\"SCHEDULE RULESET 7\", Blank Schedule Type Limits Name input -- will not be validated.\n   ** Warning ** ProcessScheduleInput: Schedule:Year=\"SCHEDULE RULESET 8\", Blank Schedule Type Limits Name input -- will not be validated.\n   ** Warning ** ProcessScheduleInput: Schedule:Year=\"SCHEDULE RULESET 9\", Blank Schedule Type Limits Name input -- will not be validated.\n   ** Warning ** ProcessScheduleInput: Schedule:Constant=\"ALWAYS OFF DISCRETE\", Blank Schedule Type Limits Name input -- will not be validated.\n   ** Warning ** ProcessScheduleInput: Schedule:Constant=\"ALWAYS ON CONTINUOUS\", Blank Schedule Type Limits Name input -- will not be validated.\n   ** Warning ** CheckUsedConstructions: There are 25 nominally unused constructions in input.\n   **   ~~~   ** For explicit details on each unused construction, use Output:Diagnostics,DisplayExtraWarnings;\n   ** Severe  ** Problem in interior solar distribution calculation (CHKBKS)\n   **   ~~~   **    Solar Distribution = FullInteriorExterior will not work in Zone=SP-CORE_RETAIL SYS-3 FLR-1 SCH-C HPLCMT-EAST ZN\n   **   ~~~   **    because vertex 2 of back surface=CORE_RETAIL_WALL_EAST_1 is in front of receiving surface=CORE_RETAIL_ROOF\n   **   ~~~   **    (Dot Product indicator=459.6689)\n   **   ~~~   **    Check surface geometry; if OK, use Solar Distribution = FullExterior instead.\n   ** Severe  ** Problem in interior solar distribution calculation (CHKBKS)\n   **   ~~~   **    Solar Distribution = FullInteriorExterior will not work in Zone=SP-CORE_RETAIL SYS-3 FLR-1 SCH-C HPLCMT-EAST ZN\n   **   ~~~   **    because vertex 3 of back surface=CORE_RETAIL_WALL_EAST_1 is in front of receiving surface=CORE_RETAIL_ROOF\n   **   ~~~   **    (Dot Product indicator=459.6689)\n   **   ~~~   **    Check surface geometry; if OK, use Solar Distribution = FullExterior instead.\n   ** Severe  ** Problem in interior solar distribution calculation (CHKBKS)\n   **   ~~~   **    Solar Distribution = FullInteriorExterior will not work in Zone=SP-CORE_RETAIL SYS-3 FLR-1 SCH-C HPLCMT-EAST ZN\n   **   ~~~   **    because vertex 2 of back surface=CORE_RETAIL_WALL_EAST_2 is in front of receiving surface=CORE_RETAIL_ROOF\n   **   ~~~   **    (Dot Product indicator=459.6689)\n   **   ~~~   **    Check surface geometry; if OK, use Solar Distribution = FullExterior instead.\n   ** Severe  ** Problem in interior solar distribution calculation (CHKBKS)\n   **   ~~~   **    Solar Distribution = FullInteriorExterior will not work in Zone=SP-CORE_RETAIL SYS-3 FLR-1 SCH-C HPLCMT-EAST ZN\n   **   ~~~   **    because vertex 3 of back surface=CORE_RETAIL_WALL_EAST_2 is in front of receiving surface=CORE_RETAIL_ROOF\n   **   ~~~   **    (Dot Product indicator=459.6689)\n   **   ~~~   **    Check surface geometry; if OK, use Solar Distribution = FullExterior instead.\n   ** Severe  ** Problem in interior solar distribution calculation (CHKBKS)\n   **   ~~~   **    Solar Distribution = FullInteriorExterior will not work in Zone=SP-CORE_RETAIL SYS-3 FLR-1 SCH-C HPLCMT-EAST ZN\n   **   ~~~   **    because vertex 2 of back surface=CORE_RETAIL_WALL_NORTH is in front of receiving surface=CORE_RETAIL_ROOF\n   **   ~~~   **    (Dot Product indicator=459.6689)\n   **   ~~~   **    Check surface geometry; if OK, use Solar Distribution = FullExterior instead.\n   ** Severe  ** Problem in interior solar distribution calculation (CHKBKS)\n   **   ~~~   **    Solar Distribution = FullInteriorExterior will not work in Zone=SP-CORE_RETAIL SYS-3 FLR-1 SCH-C HPLCMT-EAST ZN\n   **   ~~~   **    because vertex 3 of back surface=CORE_RETAIL_WALL_NORTH is in front of receiving surface=CORE_RETAIL_ROOF\n   **   ~~~   **    (Dot Product indicator=459.6689)\n   **   ~~~   **    Check surface geometry; if OK, use Solar Distribution = FullExterior instead.\n   ** Severe  ** Problem in interior solar distribution calculation (CHKBKS)\n   **   ~~~   **    Solar Distribution = FullInteriorExterior will not work in Zone=SP-CORE_RETAIL SYS-3 FLR-1 SCH-C HPLCMT-EAST ZN\n   **   ~~~   **    because vertex 2 of back surface=CORE_RETAIL_WALL_SOUTH_1 is in front of receiving surface=CORE_RETAIL_ROOF\n   **   ~~~   **    (Dot Product indicator=459.6689)\n   **   ~~~   **    Check surface geometry; if OK, use Solar Distribution = FullExterior instead.\n   ** Severe  ** Problem in interior solar distribution calculation (CHKBKS)\n   **   ~~~   **    Solar Distribution = FullInteriorExterior will not work in Zone=SP-CORE_RETAIL SYS-3 FLR-1 SCH-C HPLCMT-EAST ZN\n   **   ~~~   **    because vertex 3 of back surface=CORE_RETAIL_WALL_SOUTH_1 is in front of receiving surface=CORE_RETAIL_ROOF\n   **   ~~~   **    (Dot Product indicator=459.6689)\n   **   ~~~   **    Check surface geometry; if OK, use Solar Distribution = FullExterior instead.\n   ** Severe  ** Problem in interior solar distribution calculation (CHKBKS)\n   **   ~~~   **    Solar Distribution = FullInteriorExterior will not work in Zone=SP-CORE_RETAIL SYS-3 FLR-1 SCH-C HPLCMT-EAST ZN\n   **   ~~~   **    because vertex 2 of back surface=CORE_RETAIL_WALL_SOUTH_2 is in front of receiving surface=CORE_RETAIL_ROOF\n   **   ~~~   **    (Dot Product indicator=459.6689)\n   **   ~~~   **    Check surface geometry; if OK, use Solar Distribution = FullExterior instead.\n   ** Severe  ** Problem in interior solar distribution calculation (CHKBKS)\n   **   ~~~   **    Solar Distribution = FullInteriorExterior will not work in Zone=SP-CORE_RETAIL SYS-3 FLR-1 SCH-C HPLCMT-EAST ZN\n   **   ~~~   **    because vertex 3 of back surface=CORE_RETAIL_WALL_SOUTH_2 is in front of receiving surface=CORE_RETAIL_ROOF\n   **   ~~~   **    (Dot Product indicator=459.6689)\n   **   ~~~   **    Check surface geometry; if OK, use Solar Distribution = FullExterior instead.\n   ** Severe  ** Problem in interior solar distribution calculation (CHKBKS)\n   **   ~~~   **    Solar Distribution = FullInteriorExterior will not work in Zone=SP-CORE_RETAIL SYS-3 FLR-1 SCH-C HPLCMT-EAST ZN\n   **   ~~~   **    because vertex 2 of back surface=CORE_RETAIL_WALL_SOUTH_3 is in front of receiving surface=CORE_RETAIL_ROOF\n   **   ~~~   **    (Dot Product indicator=459.6689)\n   **   ~~~   **    Check surface geometry; if OK, use Solar Distribution = FullExterior instead.\n   ** Severe  ** Problem in interior solar distribution calculation (CHKBKS)\n   **   ~~~   **    Solar Distribution = FullInteriorExterior will not work in Zone=SP-CORE_RETAIL SYS-3 FLR-1 SCH-C HPLCMT-EAST ZN\n   **   ~~~   **    because vertex 3 of back surface=CORE_RETAIL_WALL_SOUTH_3 is in front of receiving surface=CORE_RETAIL_ROOF\n   **   ~~~   **    (Dot Product indicator=459.6689)\n   **   ~~~   **    Check surface geometry; if OK, use Solar Distribution = FullExterior instead.\n   ** Severe  ** Problem in interior solar distribution calculation (CHKBKS)\n   **   ~~~   **    Solar Distribution = FullInteriorExterior will not work in Zone=SP-CORE_RETAIL SYS-3 FLR-1 SCH-C HPLCMT-EAST ZN\n   **   ~~~   **    because vertex 2 of back surface=CORE_RETAIL_WALL_WEST_1 is in front of receiving surface=CORE_RETAIL_ROOF\n   **   ~~~   **    (Dot Product indicator=459.6689)\n   **   ~~~   **    Check surface geometry; if OK, use Solar Distribution = FullExterior instead.\n   ** Severe  ** Problem in interior solar distribution calculation (CHKBKS)\n   **   ~~~   **    Solar Distribution = FullInteriorExterior will not work in Zone=SP-CORE_RETAIL SYS-3 FLR-1 SCH-C HPLCMT-EAST ZN\n   **   ~~~   **    because vertex 3 of back surface=CORE_RETAIL_WALL_WEST_1 is in front of receiving surface=CORE_RETAIL_ROOF\n   **   ~~~   **    (Dot Product indicator=459.6689)\n   **   ~~~   **    Check surface geometry; if OK, use Solar Distribution = FullExterior instead.\n   ** Severe  ** Problem in interior solar distribution calculation (CHKBKS)\n   **   ~~~   **    Solar Distribution = FullInteriorExterior will not work in Zone=SP-CORE_RETAIL SYS-3 FLR-1 SCH-C HPLCMT-EAST ZN\n   **   ~~~   **    because vertex 2 of back surface=CORE_RETAIL_WALL_WEST_2 is in front of receiving surface=CORE_RETAIL_ROOF\n   **   ~~~   **    (Dot Product indicator=459.6689)\n   **   ~~~   **    Check surface geometry; if OK, use Solar Distribution = FullExterior instead.\n   ** Severe  ** Problem in interior solar distribution calculation (CHKBKS)\n   **   ~~~   **    Solar Distribution = FullInteriorExterior will not work in Zone=SP-CORE_RETAIL SYS-3 FLR-1 SCH-C HPLCMT-EAST ZN\n   **   ~~~   **    because vertex 3 of back surface=CORE_RETAIL_WALL_WEST_2 is in front of receiving surface=CORE_RETAIL_ROOF\n   **   ~~~   **    (Dot Product indicator=459.6689)\n   **   ~~~   **    Check surface geometry; if OK, use Solar Distribution = FullExterior instead.\n   ** Severe  ** Problem in interior solar distribution calculation (CHKBKS)\n   **   ~~~   **    Solar Distribution = FullInteriorExterior will not work in Zone=SP-CORE_RETAIL SYS-3 FLR-1 SCH-C HPLCMT-EAST ZN\n   **   ~~~   **    because vertex 1 of back surface=CORE_RETAIL_FLOOR is in front of receiving surface=CORE_RETAIL_ROOF\n   **   ~~~   **    (Dot Product indicator=459.6689)\n   **   ~~~   **    Check surface geometry; if OK, use Solar Distribution = FullExterior instead.\n   ** Severe  ** Problem in interior solar distribution calculation (CHKBKS)\n   **   ~~~   **    Solar Distribution = FullInteriorExterior will not work in Zone=SP-CORE_RETAIL SYS-3 FLR-1 SCH-C HPLCMT-EAST ZN\n   **   ~~~   **    because vertex 2 of back surface=CORE_RETAIL_FLOOR is in front of receiving surface=CORE_RETAIL_ROOF\n   **   ~~~   **    (Dot Product indicator=459.6689)\n   **   ~~~   **    Check surface geometry; if OK, use Solar Distribution = FullExterior instead.\n   ** Severe  ** Problem in interior solar distribution calculation (CHKBKS)\n   **   ~~~   **    Solar Distribution = FullInteriorExterior will not work in Zone=SP-CORE_RETAIL SYS-3 FLR-1 SCH-C HPLCMT-EAST ZN\n   **   ~~~   **    because vertex 3 of back surface=CORE_RETAIL_FLOOR is in front of receiving surface=CORE_RETAIL_ROOF\n   **   ~~~   **    (Dot Product indicator=459.6689)\n   **   ~~~   **    Check surface geometry; if OK, use Solar Distribution = FullExterior instead.\n   ** Severe  ** Problem in interior solar distribution calculation (CHKBKS)\n   **   ~~~   **    Solar Distribution = FullInteriorExterior will not work in Zone=SP-CORE_RETAIL SYS-3 FLR-1 SCH-C HPLCMT-EAST ZN\n   **   ~~~   **    because vertex 4 of back surface=CORE_RETAIL_FLOOR is in front of receiving surface=CORE_RETAIL_ROOF\n   **   ~~~   **    (Dot Product indicator=459.6689)\n   **   ~~~   **    Check surface geometry; if OK, use Solar Distribution = FullExterior instead.\n   ** Severe  ** Problem in interior solar distribution calculation (CHKBKS)\n   **   ~~~   **    Solar Distribution = FullInteriorExterior will not work in Zone=SP-CORE_RETAIL SYS-3 FLR-1 SCH-C HPLCMT-EAST ZN\n   **   ~~~   **    because vertex 5 of back surface=CORE_RETAIL_FLOOR is in front of receiving surface=CORE_RETAIL_ROOF\n   **   ~~~   **    (Dot Product indicator=459.6689)\n   **   ~~~   **    Check surface geometry; if OK, use Solar Distribution = FullExterior instead.\n   ** Severe  ** Problem in interior solar distribution calculation (CHKBKS)\n   **   ~~~   **    Solar Distribution = FullInteriorExterior will not work in Zone=SP-CORE_RETAIL SYS-3 FLR-1 SCH-C HPLCMT-EAST ZN\n   **   ~~~   **    because vertex 6 of back surface=CORE_RETAIL_FLOOR is in front of receiving surface=CORE_RETAIL_ROOF\n   **   ~~~   **    (Dot Product indicator=459.6689)\n   **   ~~~   **    Check surface geometry; if OK, use Solar Distribution = FullExterior instead.\n   ** Severe  ** Problem in interior solar distribution calculation (CHKBKS)\n   **   ~~~   **    Solar Distribution = FullInteriorExterior will not work in Zone=SP-CORE_RETAIL SYS-3 FLR-1 SCH-C HPLCMT-EAST ZN\n   **   ~~~   **    because vertex 7 of back surface=CORE_RETAIL_FLOOR is in front of receiving surface=CORE_RETAIL_ROOF\n   **   ~~~   **    (Dot Product indicator=459.6689)\n   **   ~~~   **    Check surface geometry; if OK, use Solar Distribution = FullExterior instead.\n   ** Severe  ** Problem in interior solar distribution calculation (CHKBKS)\n   **   ~~~   **    Solar Distribution = FullInteriorExterior will not work in Zone=SP-CORE_RETAIL SYS-3 FLR-1 SCH-C HPLCMT-EAST ZN\n   **   ~~~   **    because vertex 8 of back surface=CORE_RETAIL_FLOOR is in front of receiving surface=CORE_RETAIL_ROOF\n   **   ~~~   **    (Dot Product indicator=459.6689)\n   **   ~~~   **    Check surface geometry; if OK, use Solar Distribution = FullExterior instead.\n   ************* Beginning System Sizing Calculations\n   ************* Beginning Plant Sizing Calculations\n   ** Warning ** GetDXCoils: Coil:Cooling:DX:SingleSpeed=\"COIL COOLING DX SINGLE SPEED 5 45KBTU/HR 14.0SEER\", invalid\n   **   ~~~   ** ...Part Load Fraction Correlation Curve Name = DXCOOL-NECB2011-REF-COOLPLFFPLR 4 has out of range value.\n   **   ~~~   ** ...Curve maximum must be <= 1.0, curve max at PLR = 0.99 is 1.015\n   **   ~~~   ** ...Setting curve maximum to 1.0 and simulation continues.\n   ** Warning ** GetDXCoils: Coil:Cooling:DX:SingleSpeed=\"COIL COOLING DX SINGLE SPEED 1 279KBTU/HR 8.21EER\", invalid\n   **   ~~~   ** ...Part Load Fraction Correlation Curve Name = DXCOOL-NECB2011-REF-COOLPLFFPLR has out of range value.\n   **   ~~~   ** ...Curve maximum must be <= 1.0, curve max at PLR = 0.99 is 1.015\n   **   ~~~   ** ...Setting curve maximum to 1.0 and simulation continues.\n   ** Warning ** GetDXCoils: Coil:Cooling:DX:SingleSpeed=\"COIL COOLING DX SINGLE SPEED 2 8KBTU/HR 14.0SEER\", invalid\n   **   ~~~   ** ...Part Load Fraction Correlation Curve Name = DXCOOL-NECB2011-REF-COOLPLFFPLR 1 has out of range value.\n   **   ~~~   ** ...Curve maximum must be <= 1.0, curve max at PLR = 0.99 is 1.015\n   **   ~~~   ** ...Setting curve maximum to 1.0 and simulation continues.\n   ** Warning ** GetDXCoils: Coil:Cooling:DX:SingleSpeed=\"COIL COOLING DX SINGLE SPEED 4 48KBTU/HR 14.0SEER\", invalid\n   **   ~~~   ** ...Part Load Fraction Correlation Curve Name = DXCOOL-NECB2011-REF-COOLPLFFPLR 3 has out of range value.\n   **   ~~~   ** ...Curve maximum must be <= 1.0, curve max at PLR = 0.99 is 1.015\n   **   ~~~   ** ...Setting curve maximum to 1.0 and simulation continues.\n   ** Warning ** GetDXCoils: Coil:Cooling:DX:SingleSpeed=\"COIL COOLING DX SINGLE SPEED 3 48KBTU/HR 14.0SEER\", invalid\n   **   ~~~   ** ...Part Load Fraction Correlation Curve Name = DXCOOL-NECB2011-REF-COOLPLFFPLR 2 has out of range value.\n   **   ~~~   ** ...Curve maximum must be <= 1.0, curve max at PLR = 0.99 is 1.015\n   **   ~~~   ** ...Setting curve maximum to 1.0 and simulation continues.\n   ** Warning ** The Standard Ratings is calculated for Coil:Cooling:DX:SingleSpeed = COIL COOLING DX SINGLE SPEED 5 45KBTU/HR 14.0SEER but not at the AHRI test condition due to curve out of bound.\n   **   ~~~   **  Review the Standard Ratings calculations in the Engineering Reference for this coil type. Also, use Output:Diagnostics, DisplayExtraWarnings for further guidance.\n   ** Warning ** The Standard Ratings is calculated for Coil:Cooling:DX:SingleSpeed = COIL COOLING DX SINGLE SPEED 1 279KBTU/HR 8.21EER but not at the AHRI test condition due to curve out of bound.\n   **   ~~~   **  Review the Standard Ratings calculations in the Engineering Reference for this coil type. Also, use Output:Diagnostics, DisplayExtraWarnings for further guidance.\n   ** Warning ** The Standard Ratings is calculated for Coil:Cooling:DX:SingleSpeed = COIL COOLING DX SINGLE SPEED 2 8KBTU/HR 14.0SEER but not at the AHRI test condition due to curve out of bound.\n   **   ~~~   **  Review the Standard Ratings calculations in the Engineering Reference for this coil type. Also, use Output:Diagnostics, DisplayExtraWarnings for further guidance.\n   ** Warning ** The Standard Ratings is calculated for Coil:Cooling:DX:SingleSpeed = COIL COOLING DX SINGLE SPEED 4 48KBTU/HR 14.0SEER but not at the AHRI test condition due to curve out of bound.\n   **   ~~~   **  Review the Standard Ratings calculations in the Engineering Reference for this coil type. Also, use Output:Diagnostics, DisplayExtraWarnings for further guidance.\n   ** Warning ** The Standard Ratings is calculated for Coil:Cooling:DX:SingleSpeed = COIL COOLING DX SINGLE SPEED 3 48KBTU/HR 14.0SEER but not at the AHRI test condition due to curve out of bound.\n   **   ~~~   **  Review the Standard Ratings calculations in the Engineering Reference for this coil type. Also, use Output:Diagnostics, DisplayExtraWarnings for further guidance.\n   ** Warning ** Check input. Pump nominal power or motor efficiency is set to 0, for pump=SERVICE WATER LOOP PUMP\n   ** Warning ** Output:Meter: invalid Name=\"DISTRICTCOOLING:FACILITY\" - not found.\n   ** Warning ** Output:Meter: invalid Name=\"DISTRICTHEATING:FACILITY\" - not found.\n   ** Warning ** Output:Meter:MeterFileOnly requested for \"Electricity:Facility\" (TimeStep), already on \"Output:Meter\". Will report to both eplusout.eso and eplusout.mtr\n   ************* Testing Individual Branch Integrity\n   ************* All Branches passed integrity testing\n   ************* Testing Individual Supply Air Path Integrity\n   ************* All Supply Air Paths passed integrity testing\n   ************* Testing Individual Return Air Path Integrity\n   ************* All Return Air Paths passed integrity testing\n   ************* No node connection errors were found.\n   ************* Beginning Simulation\n   ** Warning ** CalcDoe2DXCoil: Coil:Cooling:DX:SingleSpeed \"COIL COOLING DX SINGLE SPEED 4 48KBTU/HR 14.0SEER\" - Air-cooled condenser inlet dry-bulb temperature below 0 C. Outdoor dry-bulb temperature = -24.03\n   **   ~~~   **  ... Occurrence info = RUN PERIOD 1, 01/01 09:02 - 09:05\n   **   ~~~   ** ... Operation at low ambient temperatures may require special performance curves.\n   ** Warning ** CalcDoe2DXCoil: Coil:Cooling:DX:SingleSpeed \"COIL COOLING DX SINGLE SPEED 3 48KBTU/HR 14.0SEER\" - Air-cooled condenser inlet dry-bulb temperature below 0 C. Outdoor dry-bulb temperature = -24.03\n   **   ~~~   **  ... Occurrence info = RUN PERIOD 1, 01/01 09:02 - 09:05\n   **   ~~~   ** ... Operation at low ambient temperatures may require special performance curves.\n   ** Warning ** CalcDoe2DXCoil: Coil:Cooling:DX:SingleSpeed \"COIL COOLING DX SINGLE SPEED 4 48KBTU/HR 14.0SEER\" - Full load outlet air dry-bulb temperature < 2C. This indicates the possibility of coil frost/freeze. Outlet temperature = 0.72 C.\n   **   ~~~   **  ...Occurrence info = RUN PERIOD 1, 01/01 11:00 - 11:05\n   **   ~~~   ** ... Possible reasons for low outlet air dry-bulb temperatures are: This DX coil\n   **   ~~~   **    1) may have a low inlet air dry-bulb temperature. Inlet air temperature = 14.874 C.\n   **   ~~~   **    2) may have a low air flow rate per watt of cooling capacity. Check inputs.\n   **   ~~~   **    3) is used as part of a HX assisted cooling coil which uses a high sensible effectiveness. Check inputs.\n   ** Warning ** CalcDoe2DXCoil: Coil:Cooling:DX:SingleSpeed \"COIL COOLING DX SINGLE SPEED 3 48KBTU/HR 14.0SEER\" - Full load outlet air dry-bulb temperature < 2C. This indicates the possibility of coil frost/freeze. Outlet temperature = 0.68 C.\n   **   ~~~   **  ...Occurrence info = RUN PERIOD 1, 01/01 11:00 - 11:05\n   **   ~~~   ** ... Possible reasons for low outlet air dry-bulb temperatures are: This DX coil\n   **   ~~~   **    1) may have a low inlet air dry-bulb temperature. Inlet air temperature = 14.839 C.\n   **   ~~~   **    2) may have a low air flow rate per watt of cooling capacity. Check inputs.\n   **   ~~~   **    3) is used as part of a HX assisted cooling coil which uses a high sensible effectiveness. Check inputs.\n   ** Warning ** CalcDoe2DXCoil: Coil:Cooling:DX:SingleSpeed \"COIL COOLING DX SINGLE SPEED 5 45KBTU/HR 14.0SEER\" - Air-cooled condenser inlet dry-bulb temperature below 0 C. Outdoor dry-bulb temperature = -0.45\n   **   ~~~   **  ... Occurrence info = RUN PERIOD 1, 01/02 07:06 - 07:09\n   **   ~~~   ** ... Operation at low ambient temperatures may require special performance curves.\n   ** Warning ** CalcDoe2DXCoil: Coil:Cooling:DX:SingleSpeed \"COIL COOLING DX SINGLE SPEED 2 8KBTU/HR 14.0SEER\" - Full load outlet air dry-bulb temperature < 2C. This indicates the possibility of coil frost/freeze. Outlet temperature = -0.14 C.\n   **   ~~~   **  ...Occurrence info = RUN PERIOD 1, 01/02 21:15 - 21:19\n   **   ~~~   ** ... Possible reasons for low outlet air dry-bulb temperatures are: This DX coil\n   **   ~~~   **    1) may have a low inlet air dry-bulb temperature. Inlet air temperature = 12.720 C.\n   **   ~~~   **    2) may have a low air flow rate per watt of cooling capacity. Check inputs.\n   **   ~~~   **    3) is used as part of a HX assisted cooling coil which uses a high sensible effectiveness. Check inputs.\n   ** Warning ** CalcDoe2DXCoil: Coil:Cooling:DX:SingleSpeed \"COIL COOLING DX SINGLE SPEED 5 45KBTU/HR 14.0SEER\" - Full load outlet air dry-bulb temperature < 2C. This indicates the possibility of coil frost/freeze. Outlet temperature = -0.11 C.\n   **   ~~~   **  ...Occurrence info = RUN PERIOD 1, 01/06 08:04 - 08:06\n   **   ~~~   ** ... Possible reasons for low outlet air dry-bulb temperatures are: This DX coil\n   **   ~~~   **    1) may have a low inlet air dry-bulb temperature. Inlet air temperature = 14.774 C.\n   **   ~~~   **    2) may have a low air flow rate per watt of cooling capacity. Check inputs.\n   **   ~~~   **    3) is used as part of a HX assisted cooling coil which uses a high sensible effectiveness. Check inputs.\n   ** Warning ** CalcDoe2DXCoil: Coil:Cooling:DX:SingleSpeed \"COIL COOLING DX SINGLE SPEED 2 8KBTU/HR 14.0SEER\" - Air-cooled condenser inlet dry-bulb temperature below 0 C. Outdoor dry-bulb temperature = -5.70\n   **   ~~~   **  ... Occurrence info = RUN PERIOD 1, 01/18 10:40 - 10:45\n   **   ~~~   ** ... Operation at low ambient temperatures may require special performance curves.\n   ** Warning ** CalcDoe2DXCoil: Coil:Cooling:DX:SingleSpeed \"COIL COOLING DX SINGLE SPEED 1 279KBTU/HR 8.21EER\" - Full load outlet air dry-bulb temperature < 2C. This indicates the possibility of coil frost/freeze. Outlet temperature = 1.01 C.\n   **   ~~~   **  ...Occurrence info = RUN PERIOD 1, 05/07 11:00 - 11:08\n   **   ~~~   ** ... Possible reasons for low outlet air dry-bulb temperatures are: This DX coil\n   **   ~~~   **    1) may have a low inlet air dry-bulb temperature. Inlet air temperature = 16.825 C.\n   **   ~~~   **    2) may have a low air flow rate per watt of cooling capacity. Check inputs.\n   **   ~~~   **    3) is used as part of a HX assisted cooling coil which uses a high sensible effectiveness. Check inputs.\n   ************* Simulation Error Summary *************\n   ************* There are 9 unused schedules in input.\n   ************* There are 9 unused week schedules in input.\n   ************* There are 20 unused day schedules in input.\n   ************* Use Output:Diagnostics,DisplayUnusedSchedules; to see them.\n   *************\n   ************* ===== Recurring Error Summary =====\n   ************* The following recurring error messages occurred.\n   *************\n   *************  ** Warning ** CalcDoe2DXCoil: Coil:Cooling:DX:SingleSpeed=\"COIL COOLING DX SINGLE SPEED 4 48KBTU/HR 14.0SEER\" - Low condenser dry-bulb temperature error continues...\n   *************  **   ~~~   **   This error occurred 1300 total times;\n   *************  **   ~~~   **   during Warmup 0 times;\n   *************  **   ~~~   **   during Sizing 0 times.\n   *************  **   ~~~   **   Max=-5.000000E-002 [C]  Min=-24.025 [C]\n   *************\n   *************  ** Warning ** CalcDoe2DXCoil: Coil:Cooling:DX:SingleSpeed=\"COIL COOLING DX SINGLE SPEED 3 48KBTU/HR 14.0SEER\" - Low condenser dry-bulb temperature error continues...\n   *************  **   ~~~   **   This error occurred 1287 total times;\n   *************  **   ~~~   **   during Warmup 0 times;\n   *************  **   ~~~   **   during Sizing 0 times.\n   *************  **   ~~~   **   Max=-5.000000E-002 [C]  Min=-24.025 [C]\n   *************\n   *************  ** Warning ** CalcDoe2DXCoil: Coil:Cooling:DX:SingleSpeed=\"COIL COOLING DX SINGLE SPEED 4 48KBTU/HR 14.0SEER\" - Full load outlet temperature indicates a possibility of frost/freeze error continues. Outlet air temperature statistics follow:\n   *************  **   ~~~   **   This error occurred 75 total times;\n   *************  **   ~~~   **   during Warmup 0 times;\n   *************  **   ~~~   **   during Sizing 0 times.\n   *************  **   ~~~   **   Max=1.974753  Min=-0.689807\n   *************\n   *************  ** Warning ** CalcDoe2DXCoil: Coil:Cooling:DX:SingleSpeed=\"COIL COOLING DX SINGLE SPEED 3 48KBTU/HR 14.0SEER\" - Full load outlet temperature indicates a possibility of frost/freeze error continues. Outlet air temperature statistics follow:\n   *************  **   ~~~   **   This error occurred 77 total times;\n   *************  **   ~~~   **   during Warmup 0 times;\n   *************  **   ~~~   **   during Sizing 0 times.\n   *************  **   ~~~   **   Max=1.998078  Min=-0.690076\n   *************\n   *************  ** Warning ** CalcDoe2DXCoil: Coil:Cooling:DX:SingleSpeed=\"COIL COOLING DX SINGLE SPEED 5 45KBTU/HR 14.0SEER\" - Low condenser dry-bulb temperature error continues...\n   *************  **   ~~~   **   This error occurred 211 total times;\n   *************  **   ~~~   **   during Warmup 0 times;\n   *************  **   ~~~   **   during Sizing 0 times.\n   *************  **   ~~~   **   Max=-5.000000E-002 [C]  Min=-22.925 [C]\n   *************\n   *************  ** Warning ** CalcDoe2DXCoil: Coil:Cooling:DX:SingleSpeed=\"COIL COOLING DX SINGLE SPEED 2 8KBTU/HR 14.0SEER\" - Full load outlet temperature indicates a possibility of frost/freeze error continues. Outlet air temperature statistics follow:\n   *************  **   ~~~   **   This error occurred 1447 total times;\n   *************  **   ~~~   **   during Warmup 0 times;\n   *************  **   ~~~   **   during Sizing 0 times.\n   *************  **   ~~~   **   Max=1.997886  Min=-3.907013\n   *************\n   *************  ** Warning ** CalcDoe2DXCoil: Coil:Cooling:DX:SingleSpeed=\"COIL COOLING DX SINGLE SPEED 5 45KBTU/HR 14.0SEER\" - Full load outlet temperature indicates a possibility of frost/freeze error continues. Outlet air temperature statistics follow:\n   *************  **   ~~~   **   This error occurred 25 total times;\n   *************  **   ~~~   **   during Warmup 0 times;\n   *************  **   ~~~   **   during Sizing 0 times.\n   *************  **   ~~~   **   Max=1.799634  Min=-0.433\n   *************\n   *************  ** Warning ** CalcDoe2DXCoil: Coil:Cooling:DX:SingleSpeed=\"COIL COOLING DX SINGLE SPEED 2 8KBTU/HR 14.0SEER\" - Low condenser dry-bulb temperature error continues...\n   *************  **   ~~~   **   This error occurred 452 total times;\n   *************  **   ~~~   **   during Warmup 0 times;\n   *************  **   ~~~   **   during Sizing 0 times.\n   *************  **   ~~~   **   Max=-0.15 [C]  Min=-9.45 [C]\n   *************\n   *************  ** Warning ** CalcDoe2DXCoil: Coil:Cooling:DX:SingleSpeed=\"COIL COOLING DX SINGLE SPEED 1 279KBTU/HR 8.21EER\" - Full load outlet temperature indicates a possibility of frost/freeze error continues. Outlet air temperature statistics follow:\n   *************  **   ~~~   **   This error occurred 109 total times;\n   *************  **   ~~~   **   during Warmup 0 times;\n   *************  **   ~~~   **   during Sizing 0 times.\n   *************  **   ~~~   **   Max=1.991809  Min=-1.207309\n   *************\n   *************\n   ************* ===== Final Error Summary =====\n   ************* The following error categories occurred.  Consider correcting or noting.\n   ************* Nominally Unused Constructions\n   ************* ..The nominally unused constructions warning is provided to alert you to potential conditions that can cause\n   ************* ..extra time during simulation. Each construction is calculated by the algorithm indicated in the HeatBalanceAlgorithm\n   ************* ..object. You may remove the constructions indicated (when you use the DisplayExtraWarnings option).\n   *************\n   ************* EnergyPlus Warmup Error Summary. During Warmup: 0 Warning; 0 Severe Errors.\n   ************* EnergyPlus Sizing Error Summary. During Sizing: 39 Warning; 24 Severe Errors.\n   ************* EnergyPlus Completed Successfully-- 5037 Warning; 24 Severe Errors; Elapsed Time=00hr 00min 45.43sec\n",
   "file_format_version" : "0.0.1",
   "file_paths" : [ "../weather", "../seeds", "../seed" ],
   "hash" : "1C6A819E",
   "measure_paths" : [ "../measures" ],
   "name" : "LHS Autogenerated 1076",
   "osa_id" : "4fef0e0f-5396-4c55-a6e1-2cd6803db3ab",
   "osd_id" : "a9b65d22-0c09-4e19-8805-07771a475549",
   "run_directory" : "./run",
   "seed_file" : "seed.osm",
   "started_at" : "20170710T193403Z",
   "steps" : [
      {
         "arguments" : {
            "__SKIP__" : false,
            "building_type" : "RetailStandalone",
            "climate_zone" : "NECB HDD Method",
            "epw_file" : "CAN_NS_Greenwood.713970_CWEC.epw",
            "template" : "NECB 2011"
         },
         "measure_dir_name" : "create_prototype_building",
         "name" : "create_prototype_building",
         "result" : {
            "completed_at" : "20170710T193458Z",
            "measure_class_name" : "CreatePrototypeBuilding",
            "measure_display_name" : "Create Prototype Building",
            "measure_name" : "create_prototype_building",
            "measure_taxonomy" : "Whole Building.Space Types",
            "measure_type" : "ModelMeasure",
            "measure_uid" : "ae90fsd7-a651-467a-bc8d-29d310b0f937",
            "measure_version_id" : "c6ec5c18-5595-459f-a082-09a19c8c869c",
            "measure_version_modified" : "20170519T182315Z",
            "measure_xml_checksum" : "057E8D9D",
            "started_at" : "20170710T193405Z",
            "stderr" : "",
            "stdout" : "[OpenStudio.Measure] <0> OSArgumentVector is deprecated, use OpenStudio::Measure::OSArgumentVector instead.\n[openstudio.EpwFile] <0> Successive data points (1972-Jan-31 to 1970-Feb-01, ending on line 753) are greater than 1 day apart in EPW file '/usr/local/bundle/bundler/gems/openstudio-standards-f448df66933d/openstudio-standards/data/weather/CAN_NS_Greenwood.713970_CWEC.epw'. Data will be treated as typical (TMY)\n[openstudio.setFileExtension] <0> Path p, '/usr/local/bundle/bundler/gems/openstudio-standards-f448df66933d/openstudio-standards/data/weather/CAN_NS_Greenwood.713970_CWEC.ddy', has an unexpected file extension. Was expecting 'idf'.\n[openstudio.model.YearDescription] <1> 'UseWeatherFile' is not yet a supported option for YearDescription\n[openstudio.model.YearDescription] <1> 'UseWeatherFile' is not yet a supported option for YearDescription\n[openstudio.setFileExtension] <0> Path p, '/usr/local/bundle/bundler/gems/openstudio-standards-f448df66933d/openstudio-standards/data/weather/CAN_NS_Greenwood.713970_CWEC.ddy', has an unexpected file extension. Was expecting 'idf'.\n[openstudio.model.YearDescription] <1> 'UseWeatherFile' is not yet a supported option for YearDescription\n[openstudio.model.YearDescription] <1> 'UseWeatherFile' is not yet a supported option for YearDescription\n[openstudio.EpwFile] <0> Successive data points (1972-Jan-31 to 1970-Feb-01, ending on line 753) are greater than 1 day apart in EPW file '/usr/local/bundle/bundler/gems/openstudio-standards-f448df66933d/openstudio-standards/data/weather/CAN_NS_Greenwood.713970_CWEC.epw'. Data will be treated as typical (TMY)\n[openstudio.weather.Model] <0> Could not find ground temperatures; will use generic temperatures, which will skew results.\n[openstudio.setFileExtension] <0> Path p, '/usr/local/bundle/bundler/gems/openstudio-standards-f448df66933d/openstudio-standards/data/weather/CAN_NS_Greenwood.713970_CWEC.ddy', has an unexpected file extension. Was expecting 'idf'.\n[openstudio.model.YearDescription] <1> 'UseWeatherFile' is not yet a supported option for YearDescription\n[openstudio.model.YearDescription] <1> 'UseWeatherFile' is not yet a supported option for YearDescription\n[openstudio.EpwFile] <0> Successive data points (1972-Jan-31 to 1970-Feb-01, ending on line 753) are greater than 1 day apart in EPW file '/usr/local/bundle/bundler/gems/openstudio-standards-f448df66933d/openstudio-standards/data/weather/CAN_NS_Greenwood.713970_CWEC.epw'. Data will be treated as typical (TMY)\n[openstudio.setFileExtension] <0> Path p, '/usr/local/bundle/bundler/gems/openstudio-standards-f448df66933d/openstudio-standards/data/weather/CAN_NS_Greenwood.713970_CWEC.ddy', has an unexpected file extension. Was expecting 'idf'.\n[openstudio.model.YearDescription] <1> 'UseWeatherFile' is not yet a supported option for YearDescription\n[openstudio.model.YearDescription] <1> 'UseWeatherFile' is not yet a supported option for YearDescription\n[openstudio.setFileExtension] <0> Path p, '/usr/local/bundle/bundler/gems/openstudio-standards-f448df66933d/openstudio-standards/data/weather/CAN_NS_Greenwood.713970_CWEC.ddy', has an unexpected file extension. Was expecting 'idf'.\n[openstudio.model.YearDescription] <1> 'UseWeatherFile' is not yet a supported option for YearDescription\n[openstudio.model.YearDescription] <1> 'UseWeatherFile' is not yet a supported option for YearDescription\n[openstudio.EpwFile] <0> Successive data points (1972-Jan-31 to 1970-Feb-01, ending on line 753) are greater than 1 day apart in EPW file '/usr/local/bundle/bundler/gems/openstudio-standards-f448df66933d/openstudio-standards/data/weather/CAN_NS_Greenwood.713970_CWEC.epw'. Data will be treated as typical (TMY)\n[openstudio.setFileExtension] <0> Path p, '/usr/local/bundle/bundler/gems/openstudio-standards-f448df66933d/openstudio-standards/data/weather/CAN_NS_Greenwood.713970_CWEC.ddy', has an unexpected file extension. Was expecting 'idf'.\n[openstudio.model.YearDescription] <1> 'UseWeatherFile' is not yet a supported option for YearDescription\n[openstudio.model.YearDescription] <1> 'UseWeatherFile' is not yet a supported option for YearDescription\n[openstudio.setFileExtension] <0> Path p, '/usr/local/bundle/bundler/gems/openstudio-standards-f448df66933d/openstudio-standards/data/weather/CAN_NS_Greenwood.713970_CWEC.ddy', has an unexpected file extension. Was expecting 'idf'.\n[openstudio.model.YearDescription] <1> 'UseWeatherFile' is not yet a supported option for YearDescription\n[openstudio.model.YearDescription] <1> 'UseWeatherFile' is not yet a supported option for YearDescription\n[utilities.idf.WorkspaceObject] <0> Object of type 'Schedule:Constant' and named 'Always Off Discrete', points to an object named OnOff 1 from field 1, but that object cannot be located.\n[utilities.idf.WorkspaceObject] <0> Object of type 'Schedule:Constant' and named 'Always On Continuous', points to an object named Fractional 1 from field 1, but that object cannot be located.\n[openstudio.model.Model] <0> The run completed but had the following severe errors: Problem in interior solar distribution calculation (CHKBKS)     Solar Distribution = FullInteriorExterior will not work in Zone=CORE_RETAIL ZN     because vertex 2 of back surface=CORE_RETAIL_WALL_EAST_1 is in front of receiving surface=CORE_RETAIL_ROOF     (Dot Product indicator=459.6689)     Check surface geometry; if OK, use Solar Distribution = FullExterior instead.\\nProblem in interior solar distribution calculation (CHKBKS)     Solar Distribution = FullInteriorExterior will not work in Zone=CORE_RETAIL ZN     because vertex 3 of back surface=CORE_RETAIL_WALL_EAST_1 is in front of receiving surface=CORE_RETAIL_ROOF     (Dot Product indicator=459.6689)     Check surface geometry; if OK, use Solar Distribution = FullExterior instead.\\nProblem in interior solar distribution calculation (CHKBKS)     Solar Distribution = FullInteriorExterior will not work in Zone=CORE_RETAIL ZN     because vertex 2 of back surface=CORE_RETAIL_WALL_EAST_2 is in front of receiving surface=CORE_RETAIL_ROOF     (Dot Product indicator=459.6689)     Check surface geometry; if OK, use Solar Distribution = FullExterior instead.\\nProblem in interior solar distribution calculation (CHKBKS)     Solar Distribution = FullInteriorExterior will not work in Zone=CORE_RETAIL ZN     because vertex 3 of back surface=CORE_RETAIL_WALL_EAST_2 is in front of receiving surface=CORE_RETAIL_ROOF     (Dot Product indicator=459.6689)     Check surface geometry; if OK, use Solar Distribution = FullExterior instead.\\nProblem in interior solar distribution calculation (CHKBKS)     Solar Distribution = FullInteriorExterior will not work in Zone=CORE_RETAIL ZN     because vertex 2 of back surface=CORE_RETAIL_WALL_NORTH is in front of receiving surface=CORE_RETAIL_ROOF     (Dot Product indicator=459.6689)     Check surface geometry; if OK, use Solar Distribution = FullExterior instead.\\nProblem in interior solar distribution calculation (CHKBKS)     Solar Distribution = FullInteriorExterior will not work in Zone=CORE_RETAIL ZN     because vertex 3 of back surface=CORE_RETAIL_WALL_NORTH is in front of receiving surface=CORE_RETAIL_ROOF     (Dot Product indicator=459.6689)     Check surface geometry; if OK, use Solar Distribution = FullExterior instead.\\nProblem in interior solar distribution calculation (CHKBKS)     Solar Distribution = FullInteriorExterior will not work in Zone=CORE_RETAIL ZN     because vertex 2 of back surface=CORE_RETAIL_WALL_SOUTH_1 is in front of receiving surface=CORE_RETAIL_ROOF     (Dot Product indicator=459.6689)     Check surface geometry; if OK, use Solar Distribution = FullExterior instead.\\nProblem in interior solar distribution calculation (CHKBKS)     Solar Distribution = FullInteriorExterior will not work in Zone=CORE_RETAIL ZN     because vertex 3 of back surface=CORE_RETAIL_WALL_SOUTH_1 is in front of receiving surface=CORE_RETAIL_ROOF     (Dot Product indicator=459.6689)     Check surface geometry; if OK, use Solar Distribution = FullExterior instead.\\nProblem in interior solar distribution calculation (CHKBKS)     Solar Distribution = FullInteriorExterior will not work in Zone=CORE_RETAIL ZN     because vertex 2 of back surface=CORE_RETAIL_WALL_SOUTH_2 is in front of receiving surface=CORE_RETAIL_ROOF     (Dot Product indicator=459.6689)     Check surface geometry; if OK, use Solar Distribution = FullExterior instead.\\nProblem in interior solar distribution calculation (CHKBKS)     Solar Distribution = FullInteriorExterior will not work in Zone=CORE_RETAIL ZN     because vertex 3 of back surface=CORE_RETAIL_WALL_SOUTH_2 is in front of receiving surface=CORE_RETAIL_ROOF     (Dot Product indicator=459.6689)     Check surface geometry; if OK, use Solar Distribution = FullExterior instead.\\nProblem in interior solar distribution calculation (CHKBKS)     Solar Distribution = FullInteriorExterior will not work in Zone=CORE_RETAIL ZN     because vertex 2 of back surface=CORE_RETAIL_WALL_SOUTH_3 is in front of receiving surface=CORE_RETAIL_ROOF     (Dot Product indicator=459.6689)     Check surface geometry; if OK, use Solar Distribution = FullExterior instead.\\nProblem in interior solar distribution calculation (CHKBKS)     Solar Distribution = FullInteriorExterior will not work in Zone=CORE_RETAIL ZN     because vertex 3 of back surface=CORE_RETAIL_WALL_SOUTH_3 is in front of receiving surface=CORE_RETAIL_ROOF     (Dot Product indicator=459.6689)     Check surface geometry; if OK, use Solar Distribution = FullExterior instead.\\nProblem in interior solar distribution calculation (CHKBKS)     Solar Distribution = FullInteriorExterior will not work in Zone=CORE_RETAIL ZN     because vertex 2 of back surface=CORE_RETAIL_WALL_WEST_1 is in front of receiving surface=CORE_RETAIL_ROOF     (Dot Product indicator=459.6689)     Check surface geometry; if OK, use Solar Distribution = FullExterior instead.\\nProblem in interior solar distribution calculation (CHKBKS)     Solar Distribution = FullInteriorExterior will not work in Zone=CORE_RETAIL ZN     because vertex 3 of back surface=CORE_RETAIL_WALL_WEST_1 is in front of receiving surface=CORE_RETAIL_ROOF     (Dot Product indicator=459.6689)     Check surface geometry; if OK, use Solar Distribution = FullExterior instead.\\nProblem in interior solar distribution calculation (CHKBKS)     Solar Distribution = FullInteriorExterior will not work in Zone=CORE_RETAIL ZN     because vertex 2 of back surface=CORE_RETAIL_WALL_WEST_2 is in front of receiving surface=CORE_RETAIL_ROOF     (Dot Product indicator=459.6689)     Check surface geometry; if OK, use Solar Distribution = FullExterior instead.\\nProblem in interior solar distribution calculation (CHKBKS)     Solar Distribution = FullInteriorExterior will not work in Zone=CORE_RETAIL ZN     because vertex 3 of back surface=CORE_RETAIL_WALL_WEST_2 is in front of receiving surface=CORE_RETAIL_ROOF     (Dot Product indicator=459.6689)     Check surface geometry; if OK, use Solar Distribution = FullExterior instead.\\nProblem in interior solar distribution calculation (CHKBKS)     Solar Distribution = FullInteriorExterior will not work in Zone=CORE_RETAIL ZN     because vertex 1 of back surface=CORE_RETAIL_FLOOR is in front of receiving surface=CORE_RETAIL_ROOF     (Dot Product indicator=459.6689)     Check surface geometry; if OK, use Solar Distribution = FullExterior instead.\\nProblem in interior solar distribution calculation (CHKBKS)     Solar Distribution = FullInteriorExterior will not work in Zone=CORE_RETAIL ZN     because vertex 2 of back surface=CORE_RETAIL_FLOOR is in front of receiving surface=CORE_RETAIL_ROOF     (Dot Product indicator=459.6689)     Check surface geometry; if OK, use Solar Distribution = FullExterior instead.\\nProblem in interior solar distribution calculation (CHKBKS)     Solar Distribution = FullInteriorExterior will not work in Zone=CORE_RETAIL ZN     because vertex 3 of back surface=CORE_RETAIL_FLOOR is in front of receiving surface=CORE_RETAIL_ROOF     (Dot Product indicator=459.6689)     Check surface geometry; if OK, use Solar Distribution = FullExterior instead.\\nProblem in interior solar distribution calculation (CHKBKS)     Solar Distribution = FullInteriorExterior will not work in Zone=CORE_RETAIL ZN     because vertex 4 of back surface=CORE_RETAIL_FLOOR is in front of receiving surface=CORE_RETAIL_ROOF     (Dot Product indicator=459.6689)     Check surface geometry; if OK, use Solar Distribution = FullExterior instead.\\nProblem in interior solar distribution calculation (CHKBKS)     Solar Distribution = FullInteriorExterior will not work in Zone=CORE_RETAIL ZN     because vertex 5 of back surface=CORE_RETAIL_FLOOR is in front of receiving surface=CORE_RETAIL_ROOF     (Dot Product indicator=459.6689)     Check surface geometry; if OK, use Solar Distribution = FullExterior instead.\\nProblem in interior solar distribution calculation (CHKBKS)     Solar Distribution = FullInteriorExterior will not work in Zone=CORE_RETAIL ZN     because vertex 6 of back surface=CORE_RETAIL_FLOOR is in front of receiving surface=CORE_RETAIL_ROOF     (Dot Product indicator=459.6689)     Check surface geometry; if OK, use Solar Distribution = FullExterior instead.\\nProblem in interior solar distribution calculation (CHKBKS)     Solar Distribution = FullInteriorExterior will not work in Zone=CORE_RETAIL ZN     because vertex 7 of back surface=CORE_RETAIL_FLOOR is in front of receiving surface=CORE_RETAIL_ROOF     (Dot Product indicator=459.6689)     Check surface geometry; if OK, use Solar Distribution = FullExterior instead.\\nProblem in interior solar distribution calculation (CHKBKS)     Solar Distribution = FullInteriorExterior will not work in Zone=CORE_RETAIL ZN     because vertex 8 of back surface=CORE_RETAIL_FLOOR is in front of receiving surface=CORE_RETAIL_ROOF     (Dot Product indicator=459.6689)     Check surface geometry; if OK, use Solar Distribution = FullExterior instead.\n[utilities.idf.WorkspaceObject] <0> Object of type 'Schedule:Constant' and named 'Always Off Discrete', points to an object named OnOff 1 from field 1, but that object cannot be located.\n[utilities.idf.WorkspaceObject] <0> Object of type 'Schedule:Constant' and named 'Always On Continuous', points to an object named Fractional 1 from field 1, but that object cannot be located.\n[openstudio.model.Model] <0> The run completed but had the following severe errors: Problem in interior solar distribution calculation (CHKBKS)     Solar Distribution = FullInteriorExterior will not work in Zone=SP-CORE_RETAIL SYS-3 FLR-1 SCH-C HPLCMT-EAST ZN     because vertex 2 of back surface=CORE_RETAIL_WALL_EAST_1 is in front of receiving surface=CORE_RETAIL_ROOF     (Dot Product indicator=459.6689)     Check surface geometry; if OK, use Solar Distribution = FullExterior instead.\\nProblem in interior solar distribution calculation (CHKBKS)     Solar Distribution = FullInteriorExterior will not work in Zone=SP-CORE_RETAIL SYS-3 FLR-1 SCH-C HPLCMT-EAST ZN     because vertex 3 of back surface=CORE_RETAIL_WALL_EAST_1 is in front of receiving surface=CORE_RETAIL_ROOF     (Dot Product indicator=459.6689)     Check surface geometry; if OK, use Solar Distribution = FullExterior instead.\\nProblem in interior solar distribution calculation (CHKBKS)     Solar Distribution = FullInteriorExterior will not work in Zone=SP-CORE_RETAIL SYS-3 FLR-1 SCH-C HPLCMT-EAST ZN     because vertex 2 of back surface=CORE_RETAIL_WALL_EAST_2 is in front of receiving surface=CORE_RETAIL_ROOF     (Dot Product indicator=459.6689)     Check surface geometry; if OK, use Solar Distribution = FullExterior instead.\\nProblem in interior solar distribution calculation (CHKBKS)     Solar Distribution = FullInteriorExterior will not work in Zone=SP-CORE_RETAIL SYS-3 FLR-1 SCH-C HPLCMT-EAST ZN     because vertex 3 of back surface=CORE_RETAIL_WALL_EAST_2 is in front of receiving surface=CORE_RETAIL_ROOF     (Dot Product indicator=459.6689)     Check surface geometry; if OK, use Solar Distribution = FullExterior instead.\\nProblem in interior solar distribution calculation (CHKBKS)     Solar Distribution = FullInteriorExterior will not work in Zone=SP-CORE_RETAIL SYS-3 FLR-1 SCH-C HPLCMT-EAST ZN     because vertex 2 of back surface=CORE_RETAIL_WALL_NORTH is in front of receiving surface=CORE_RETAIL_ROOF     (Dot Product indicator=459.6689)     Check surface geometry; if OK, use Solar Distribution = FullExterior instead.\\nProblem in interior solar distribution calculation (CHKBKS)     Solar Distribution = FullInteriorExterior will not work in Zone=SP-CORE_RETAIL SYS-3 FLR-1 SCH-C HPLCMT-EAST ZN     because vertex 3 of back surface=CORE_RETAIL_WALL_NORTH is in front of receiving surface=CORE_RETAIL_ROOF     (Dot Product indicator=459.6689)     Check surface geometry; if OK, use Solar Distribution = FullExterior instead.\\nProblem in interior solar distribution calculation (CHKBKS)     Solar Distribution = FullInteriorExterior will not work in Zone=SP-CORE_RETAIL SYS-3 FLR-1 SCH-C HPLCMT-EAST ZN     because vertex 2 of back surface=CORE_RETAIL_WALL_SOUTH_1 is in front of receiving surface=CORE_RETAIL_ROOF     (Dot Product indicator=459.6689)     Check surface geometry; if OK, use Solar Distribution = FullExterior instead.\\nProblem in interior solar distribution calculation (CHKBKS)     Solar Distribution = FullInteriorExterior will not work in Zone=SP-CORE_RETAIL SYS-3 FLR-1 SCH-C HPLCMT-EAST ZN     because vertex 3 of back surface=CORE_RETAIL_WALL_SOUTH_1 is in front of receiving surface=CORE_RETAIL_ROOF     (Dot Product indicator=459.6689)     Check surface geometry; if OK, use Solar Distribution = FullExterior instead.\\nProblem in interior solar distribution calculation (CHKBKS)     Solar Distribution = FullInteriorExterior will not work in Zone=SP-CORE_RETAIL SYS-3 FLR-1 SCH-C HPLCMT-EAST ZN     because vertex 2 of back surface=CORE_RETAIL_WALL_SOUTH_2 is in front of receiving surface=CORE_RETAIL_ROOF     (Dot Product indicator=459.6689)     Check surface geometry; if OK, use Solar Distribution = FullExterior instead.\\nProblem in interior solar distribution calculation (CHKBKS)     Solar Distribution = FullInteriorExterior will not work in Zone=SP-CORE_RETAIL SYS-3 FLR-1 SCH-C HPLCMT-EAST ZN     because vertex 3 of back surface=CORE_RETAIL_WALL_SOUTH_2 is in front of receiving surface=CORE_RETAIL_ROOF     (Dot Product indicator=459.6689)     Check surface geometry; if OK, use Solar Distribution = FullExterior instead.\\nProblem in interior solar distribution calculation (CHKBKS)     Solar Distribution = FullInteriorExterior will not work in Zone=SP-CORE_RETAIL SYS-3 FLR-1 SCH-C HPLCMT-EAST ZN     because vertex 2 of back surface=CORE_RETAIL_WALL_SOUTH_3 is in front of receiving surface=CORE_RETAIL_ROOF     (Dot Product indicator=459.6689)     Check surface geometry; if OK, use Solar Distribution = FullExterior instead.\\nProblem in interior solar distribution calculation (CHKBKS)     Solar Distribution = FullInteriorExterior will not work in Zone=SP-CORE_RETAIL SYS-3 FLR-1 SCH-C HPLCMT-EAST ZN     because vertex 3 of back surface=CORE_RETAIL_WALL_SOUTH_3 is in front of receiving surface=CORE_RETAIL_ROOF     (Dot Product indicator=459.6689)     Check surface geometry; if OK, use Solar Distribution = FullExterior instead.\\nProblem in interior solar distribution calculation (CHKBKS)     Solar Distribution = FullInteriorExterior will not work in Zone=SP-CORE_RETAIL SYS-3 FLR-1 SCH-C HPLCMT-EAST ZN     because vertex 2 of back surface=CORE_RETAIL_WALL_WEST_1 is in front of receiving surface=CORE_RETAIL_ROOF     (Dot Product indicator=459.6689)     Check surface geometry; if OK, use Solar Distribution = FullExterior instead.\\nProblem in interior solar distribution calculation (CHKBKS)     Solar Distribution = FullInteriorExterior will not work in Zone=SP-CORE_RETAIL SYS-3 FLR-1 SCH-C HPLCMT-EAST ZN     because vertex 3 of back surface=CORE_RETAIL_WALL_WEST_1 is in front of receiving surface=CORE_RETAIL_ROOF     (Dot Product indicator=459.6689)     Check surface geometry; if OK, use Solar Distribution = FullExterior instead.\\nProblem in interior solar distribution calculation (CHKBKS)     Solar Distribution = FullInteriorExterior will not work in Zone=SP-CORE_RETAIL SYS-3 FLR-1 SCH-C HPLCMT-EAST ZN     because vertex 2 of back surface=CORE_RETAIL_WALL_WEST_2 is in front of receiving surface=CORE_RETAIL_ROOF     (Dot Product indicator=459.6689)     Check surface geometry; if OK, use Solar Distribution = FullExterior instead.\\nProblem in interior solar distribution calculation (CHKBKS)     Solar Distribution = FullInteriorExterior will not work in Zone=SP-CORE_RETAIL SYS-3 FLR-1 SCH-C HPLCMT-EAST ZN     because vertex 3 of back surface=CORE_RETAIL_WALL_WEST_2 is in front of receiving surface=CORE_RETAIL_ROOF     (Dot Product indicator=459.6689)     Check surface geometry; if OK, use Solar Distribution = FullExterior instead.\\nProblem in interior solar distribution calculation (CHKBKS)     Solar Distribution = FullInteriorExterior will not work in Zone=SP-CORE_RETAIL SYS-3 FLR-1 SCH-C HPLCMT-EAST ZN     because vertex 1 of back surface=CORE_RETAIL_FLOOR is in front of receiving surface=CORE_RETAIL_ROOF     (Dot Product indicator=459.6689)     Check surface geometry; if OK, use Solar Distribution = FullExterior instead.\\nProblem in interior solar distribution calculation (CHKBKS)     Solar Distribution = FullInteriorExterior will not work in Zone=SP-CORE_RETAIL SYS-3 FLR-1 SCH-C HPLCMT-EAST ZN     because vertex 2 of back surface=CORE_RETAIL_FLOOR is in front of receiving surface=CORE_RETAIL_ROOF     (Dot Product indicator=459.6689)     Check surface geometry; if OK, use Solar Distribution = FullExterior instead.\\nProblem in interior solar distribution calculation (CHKBKS)     Solar Distribution = FullInteriorExterior will not work in Zone=SP-CORE_RETAIL SYS-3 FLR-1 SCH-C HPLCMT-EAST ZN     because vertex 3 of back surface=CORE_RETAIL_FLOOR is in front of receiving surface=CORE_RETAIL_ROOF     (Dot Product indicator=459.6689)     Check surface geometry; if OK, use Solar Distribution = FullExterior instead.\\nProblem in interior solar distribution calculation (CHKBKS)     Solar Distribution = FullInteriorExterior will not work in Zone=SP-CORE_RETAIL SYS-3 FLR-1 SCH-C HPLCMT-EAST ZN     because vertex 4 of back surface=CORE_RETAIL_FLOOR is in front of receiving surface=CORE_RETAIL_ROOF     (Dot Product indicator=459.6689)     Check surface geometry; if OK, use Solar Distribution = FullExterior instead.\\nProblem in interior solar distribution calculation (CHKBKS)     Solar Distribution = FullInteriorExterior will not work in Zone=SP-CORE_RETAIL SYS-3 FLR-1 SCH-C HPLCMT-EAST ZN     because vertex 5 of back surface=CORE_RETAIL_FLOOR is in front of receiving surface=CORE_RETAIL_ROOF     (Dot Product indicator=459.6689)     Check surface geometry; if OK, use Solar Distribution = FullExterior instead.\\nProblem in interior solar distribution calculation (CHKBKS)     Solar Distribution = FullInteriorExterior will not work in Zone=SP-CORE_RETAIL SYS-3 FLR-1 SCH-C HPLCMT-EAST ZN     because vertex 6 of back surface=CORE_RETAIL_FLOOR is in front of receiving surface=CORE_RETAIL_ROOF     (Dot Product indicator=459.6689)     Check surface geometry; if OK, use Solar Distribution = FullExterior instead.\\nProblem in interior solar distribution calculation (CHKBKS)     Solar Distribution = FullInteriorExterior will not work in Zone=SP-CORE_RETAIL SYS-3 FLR-1 SCH-C HPLCMT-EAST ZN     because vertex 7 of back surface=CORE_RETAIL_FLOOR is in front of receiving surface=CORE_RETAIL_ROOF     (Dot Product indicator=459.6689)     Check surface geometry; if OK, use Solar Distribution = FullExterior instead.\\nProblem in interior solar distribution calculation (CHKBKS)     Solar Distribution = FullInteriorExterior will not work in Zone=SP-CORE_RETAIL SYS-3 FLR-1 SCH-C HPLCMT-EAST ZN     because vertex 8 of back surface=CORE_RETAIL_FLOOR is in front of receiving surface=CORE_RETAIL_ROOF     (Dot Product indicator=459.6689)     Check surface geometry; if OK, use Solar Distribution = FullExterior instead.\n[openstudio.standards.Fan] <0> For Fan Constant Volume 1, there is no greater nominal HP.  Use the efficiency of the largest motor category.\n[openstudio.standards.Fan] <0> For Fan Constant Volume 2, there is no greater nominal HP.  Use the efficiency of the largest motor category.\n[openstudio.standards.Fan] <0> For Fan Constant Volume 3, there is no greater nominal HP.  Use the efficiency of the largest motor category.\n[openstudio.standards.Fan] <0> For Fan Constant Volume 4, there is no greater nominal HP.  Use the efficiency of the largest motor category.\n[openstudio.standards.Fan] <0> For Fan Constant Volume 5, there is no greater nominal HP.  Use the efficiency of the largest motor category.\n[openstudio.EpwFile] <0> Successive data points (1972-Jan-31 to 1970-Feb-01, ending on line 753) are greater than 1 day apart in EPW file '/usr/local/bundle/bundler/gems/openstudio-standards-f448df66933d/openstudio-standards/data/weather/CAN_NS_Greenwood.713970_CWEC.epw'. Data will be treated as typical (TMY)\n[openstudio.setFileExtension] <0> Path p, '/usr/local/bundle/bundler/gems/openstudio-standards-f448df66933d/openstudio-standards/data/weather/CAN_NS_Greenwood.713970_CWEC.ddy', has an unexpected file extension. Was expecting 'idf'.\n[openstudio.model.YearDescription] <1> 'UseWeatherFile' is not yet a supported option for YearDescription\n[openstudio.model.YearDescription] <1> 'UseWeatherFile' is not yet a supported option for YearDescription\n[openstudio.setFileExtension] <0> Path p, '/usr/local/bundle/bundler/gems/openstudio-standards-f448df66933d/openstudio-standards/data/weather/CAN_NS_Greenwood.713970_CWEC.ddy', has an unexpected file extension. Was expecting 'idf'.\n[openstudio.model.YearDescription] <1> 'UseWeatherFile' is not yet a supported option for YearDescription\n[openstudio.model.YearDescription] <1> 'UseWeatherFile' is not yet a supported option for YearDescription\n[openstudio.EpwFile] <0> Successive data points (1972-Jan-31 to 1970-Feb-01, ending on line 753) are greater than 1 day apart in EPW file '/usr/local/bundle/bundler/gems/openstudio-standards-f448df66933d/openstudio-standards/data/weather/CAN_NS_Greenwood.713970_CWEC.epw'. Data will be treated as typical (TMY)\n[openstudio.setFileExtension] <0> Path p, '/usr/local/bundle/bundler/gems/openstudio-standards-f448df66933d/openstudio-standards/data/weather/CAN_NS_Greenwood.713970_CWEC.ddy', has an unexpected file extension. Was expecting 'idf'.\n[openstudio.model.YearDescription] <1> 'UseWeatherFile' is not yet a supported option for YearDescription\n[openstudio.model.YearDescription] <1> 'UseWeatherFile' is not yet a supported option for YearDescription\n[openstudio.setFileExtension] <0> Path p, '/usr/local/bundle/bundler/gems/openstudio-standards-f448df66933d/openstudio-standards/data/weather/CAN_NS_Greenwood.713970_CWEC.ddy', has an unexpected file extension. Was expecting 'idf'.\n[openstudio.model.YearDescription] <1> 'UseWeatherFile' is not yet a supported option for YearDescription\n[openstudio.model.YearDescription] <1> 'UseWeatherFile' is not yet a supported option for YearDescription\n[openstudio.EpwFile] <0> Successive data points (1972-Jan-31 to 1970-Feb-01, ending on line 753) are greater than 1 day apart in EPW file '/usr/local/bundle/bundler/gems/openstudio-standards-f448df66933d/openstudio-standards/data/weather/CAN_NS_Greenwood.713970_CWEC.epw'. Data will be treated as typical (TMY)\n[openstudio.setFileExtension] <0> Path p, '/usr/local/bundle/bundler/gems/openstudio-standards-f448df66933d/openstudio-standards/data/weather/CAN_NS_Greenwood.713970_CWEC.ddy', has an unexpected file extension. Was expecting 'idf'.\n[openstudio.model.YearDescription] <1> 'UseWeatherFile' is not yet a supported option for YearDescription\n[openstudio.model.YearDescription] <1> 'UseWeatherFile' is not yet a supported option for YearDescription\n[openstudio.setFileExtension] <0> Path p, '/usr/local/bundle/bundler/gems/openstudio-standards-f448df66933d/openstudio-standards/data/weather/CAN_NS_Greenwood.713970_CWEC.ddy', has an unexpected file extension. Was expecting 'idf'.\n[openstudio.model.YearDescription] <1> 'UseWeatherFile' is not yet a supported option for YearDescription\n[openstudio.model.YearDescription] <1> 'UseWeatherFile' is not yet a supported option for YearDescription\n[openstudio.EpwFile] <0> Successive data points (1972-Jan-31 to 1970-Feb-01, ending on line 753) are greater than 1 day apart in EPW file '/usr/local/bundle/bundler/gems/openstudio-standards-f448df66933d/openstudio-standards/data/weather/CAN_NS_Greenwood.713970_CWEC.epw'. Data will be treated as typical (TMY)\n[openstudio.setFileExtension] <0> Path p, '/usr/local/bundle/bundler/gems/openstudio-standards-f448df66933d/openstudio-standards/data/weather/CAN_NS_Greenwood.713970_CWEC.ddy', has an unexpected file extension. Was expecting 'idf'.\n[openstudio.model.YearDescription] <1> 'UseWeatherFile' is not yet a supported option for YearDescription\n[openstudio.model.YearDescription] <1> 'UseWeatherFile' is not yet a supported option for YearDescription\n[openstudio.setFileExtension] <0> Path p, '/usr/local/bundle/bundler/gems/openstudio-standards-f448df66933d/openstudio-standards/data/weather/CAN_NS_Greenwood.713970_CWEC.ddy', has an unexpected file extension. Was expecting 'idf'.\n[openstudio.model.YearDescription] <1> 'UseWeatherFile' is not yet a supported option for YearDescription\n[openstudio.model.YearDescription] <1> 'UseWeatherFile' is not yet a supported option for YearDescription\n[openstudio.EpwFile] <0> Successive data points (1972-Jan-31 to 1970-Feb-01, ending on line 753) are greater than 1 day apart in EPW file '/usr/local/bundle/bundler/gems/openstudio-standards-f448df66933d/openstudio-standards/data/weather/CAN_NS_Greenwood.713970_CWEC.epw'. Data will be treated as typical (TMY)\n[openstudio.setFileExtension] <0> Path p, '/usr/local/bundle/bundler/gems/openstudio-standards-f448df66933d/openstudio-standards/data/weather/CAN_NS_Greenwood.713970_CWEC.ddy', has an unexpected file extension. Was expecting 'idf'.\n[openstudio.model.YearDescription] <1> 'UseWeatherFile' is not yet a supported option for YearDescription\n[openstudio.model.YearDescription] <1> 'UseWeatherFile' is not yet a supported option for YearDescription\n[openstudio.setFileExtension] <0> Path p, '/usr/local/bundle/bundler/gems/openstudio-standards-f448df66933d/openstudio-standards/data/weather/CAN_NS_Greenwood.713970_CWEC.ddy', has an unexpected file extension. Was expecting 'idf'.\n[openstudio.model.YearDescription] <1> 'UseWeatherFile' is not yet a supported option for YearDescription\n[openstudio.model.YearDescription] <1> 'UseWeatherFile' is not yet a supported option for YearDescription\n[openstudio.standards.Fan] <0> For Fan Constant Volume 1, there is no greater nominal HP.  Use the efficiency of the largest motor category.\n[openstudio.standards.Fan] <0> For Fan Constant Volume 2, there is no greater nominal HP.  Use the efficiency of the largest motor category.\n[openstudio.standards.Fan] <0> For Fan Constant Volume 3, there is no greater nominal HP.  Use the efficiency of the largest motor category.\n[openstudio.standards.Fan] <0> For Fan Constant Volume 4, there is no greater nominal HP.  Use the efficiency of the largest motor category.\n[openstudio.standards.Fan] <0> For Fan Constant Volume 5, there is no greater nominal HP.  Use the efficiency of the largest motor category.\n",
            "step_errors" : [],
            "step_files" : [],
            "step_info" : [
               "Started adding geometry",
               "Finished adding geometry",
               "Started adding weather file for climate zone: NECB HDD Method.",
               "Template =",
               "Setting Back_Space to Space Function.Storage area",
               "Setting Core_Retail to Space Function.Retail - sales",
               "Setting Front_Retail to Space Function.Retail - sales",
               "Setting Point_Of_Sale to Space Function.Retail - sales",
               "Setting Front_Entry to Space Function.Lobby - elevator",
               "Started applying space types (loads)",
               "Space Function Lobby - elevator had no people, one has been created.",
               "Space Function Lobby - elevator set occupancy to 9.29 people/1000 ft^2.",
               "Space Function Lobby - elevator had no lights, one has been created.",
               "Space Function Lobby - elevator set LPD to 0.641025641 W/ft^2.",
               "Space Function Lobby - elevator had no electric equipment, one has been created.",
               "Space Function Lobby - elevator set electric EPD to 0.092902267 W/ft^2.",
               "Space Function Lobby - elevator had no ventilation specification, one has been created.",
               "Space Function Lobby - elevator set ventilation per area to 0.81 cfm/ft^2.",
               "Space Function Lobby - elevator had no infiltration objects, one has been created.",
               "Space Function Lobby - elevator set infiltration to 0.0 per ft^2 exterior surface area.",
               "Space Function Lobby - elevator set occupancy schedule to NECB-C-Occupancy.",
               "Space Function Lobby - elevator set occupant activity schedule to NECB-Activity.",
               "Space Function Lobby - elevator set lighting schedule to NECB-C-Lighting.",
               "Space Function Lobby - elevator set electric equipment schedule to NECB-C-Electric-Equipment.",
               "Space Function Lobby - elevator set infiltration schedule to Always On.",
               "Space Function Lobby - elevator set heating setpoint schedule to NECB-C-Thermostat Setpoint-Heating.",
               "Space Function Lobby - elevator set cooling setpoint schedule to NECB-C-Thermostat Setpoint-Cooling.",
               "Space Function Retail - sales had no people, one has been created.",
               "Space Function Retail - sales set occupancy to 3.1 people/1000 ft^2.",
               "Space Function Retail - sales had no lights, one has been created.",
               "Space Function Retail - sales set LPD to 1.681531029 W/ft^2.",
               "Space Function Retail - sales had no electric equipment, one has been created.",
               "Space Function Retail - sales set electric EPD to 0.232255667 W/ft^2.",
               "Space Function Retail - sales had no ventilation specification, one has been created.",
               "Space Function Retail - sales set ventilation per area to 0.233 cfm/ft^2.",
               "Space Function Retail - sales had no infiltration objects, one has been created.",
               "Space Function Retail - sales set infiltration to 0.0 per ft^2 exterior surface area.",
               "Space Function Retail - sales set occupancy schedule to NECB-C-Occupancy.",
               "Space Function Retail - sales set occupant activity schedule to NECB-Activity.",
               "Space Function Retail - sales set lighting schedule to NECB-C-Lighting.",
               "Space Function Retail - sales set electric equipment schedule to NECB-C-Electric-Equipment.",
               "Space Function Retail - sales set infiltration schedule to Always On.",
               "Space Function Retail - sales set heating setpoint schedule to NECB-C-Thermostat Setpoint-Heating.",
               "Space Function Retail - sales set cooling setpoint schedule to NECB-C-Thermostat Setpoint-Cooling.",
               "Space Function Storage area had no people, one has been created.",
               "Space Function Storage area set occupancy to 0.93 people/1000 ft^2.",
               "Space Function Storage area had no lights, one has been created.",
               "Space Function Storage area set LPD to 0.631735414 W/ft^2.",
               "Space Function Storage area had no electric equipment, one has been created.",
               "Space Function Storage area set electric EPD to 0.092902267 W/ft^2.",
               "Space Function Storage area had no ventilation specification, one has been created.",
               "Space Function Storage area set ventilation per area to 0.07 cfm/ft^2.",
               "Space Function Storage area had no infiltration objects, one has been created.",
               "Space Function Storage area set infiltration to 0.0 per ft^2 exterior surface area.",
               "Space Function Storage area set occupancy schedule to NECB-E-Occupancy.",
               "Space Function Storage area set occupant activity schedule to NECB-Activity.",
               "Space Function Storage area set lighting schedule to NECB-E-Lighting.",
               "Space Function Storage area set electric equipment schedule to NECB-E-Electric-Equipment.",
               "Space Function Storage area set infiltration schedule to Always On.",
               "Space Function Storage area set heating setpoint schedule to NECB-E-Thermostat Setpoint-Heating.",
               "Space Function Storage area set cooling setpoint schedule to NECB-E-Thermostat Setpoint-Cooling.",
               "Finished applying space types (loads)",
               "Started applying constructions",
               "Adding construction set: NECB 2011-NECB HDD Method-Retail--is_residentialNo",
               "Adding construction Typical Insulated Exterior Mass Floor R-15.63.",
               "Adding construction Typical Insulated Exterior Mass Wall R-12.5.",
               "Adding construction Typical Insulated Metal Building Roof R-20.41.",
               "Adding construction Typical Interior Floor.",
               "Adding construction Typical Interior Wall.",
               "Adding construction Typical Interior Ceiling.",
               "Adding construction Typical Insulated Carpeted 6in Slab Floor.",
               "Adding construction U 0.55 SHGC 0.31 Dbl Ref-D Tint 6mm/6mm Air.",
               "Adding construction Typical Insulated Metal Door R-1.43.",
               "Adding construction U 0.35 SHGC 0.35 Dbl LoE (e2-.1) Tint 6mm/13mm Air.",
               "Adding construction Typical Overhead Door R-2.0.",
               "Adding construction U 0.48 SHGC 0.40 Dbl Ref-D Clr 6mm/13mm.",
               "Adding construction Typical Interior Window.",
               "Adding construction Typical Interior Door.",
               "Adding construction Typical Interior Partition.",
               "Finished applying constructions",
               "WWR NonRes = 0%; window = 0 ft2, wall = 0 ft2.",
               "WWR Res = 0%; window = 0 ft2, wall = 0 ft2.",
               "WWR Semiheated = 0%; window = 0 ft2, wall = 0 ft2.",
               "The skylight to roof ratios (SRRs) are: NonRes: 1%, Res: 0%.",
               "Started creating thermal zones",
               "Finished creating thermal zones",
               "Running simulation /mnt/openstudio/analysis_4fef0e0f-5396-4c55-a6e1-2cd6803db3ab/data_point_a9b65d22-0c09-4e19-8805-07771a475549/run/000_create_prototype_building/output/RetailStandalone-NECB 2011-NECB HDD Method-CAN_NS_Greenwood.713970_CWEC.epw/SR0.",
               "Finished run.",
               "Started Adding HVAC",
               "Finished adding HVAC",
               "Started Adding Service Water Heating",
               "Adding service water loop.",
               "Adding water heater.",
               "Template =",
               "Finished adding Service Water Heating",
               "Set sizing factors to 1.3 for heating and 1.3 for cooling.",
               "Running simulation /mnt/openstudio/analysis_4fef0e0f-5396-4c55-a6e1-2cd6803db3ab/data_point_a9b65d22-0c09-4e19-8805-07771a475549/run/000_create_prototype_building/output/RetailStandalone-NECB 2011-NECB HDD Method-CAN_NS_Greenwood.713970_CWEC.epw/SR1.",
               "Finished run.",
               "Started applying multizone vav OA sizing.",
               "Finished applying multizone vav OA sizing.",
               "Started applying prototype HVAC assumptions.",
               "For Fan Constant Volume 1: allowed_hp = 5.82HP; motor eff = 61.5%; total fan eff = 40% based on 8502 cfm.",
               "For Fan Constant Volume 2: allowed_hp = 1.01HP; motor eff = 61.5%; total fan eff = 40% based on 268 cfm.",
               "For Fan Constant Volume 3: allowed_hp = 1.18HP; motor eff = 61.5%; total fan eff = 40% based on 1724 cfm.",
               "For Fan Constant Volume 4: allowed_hp = 1.18HP; motor eff = 61.5%; total fan eff = 40% based on 1730 cfm.",
               "For Fan Constant Volume 5: allowed_hp = 1.05HP; motor eff = 61.5%; total fan eff = 40% based on 1532 cfm.",
               "Sp-Front_Entry Sys-3 Flr-1 Sch-C HPlcmt-south ZN NECB System 3 PSZ does not require an economizer because the total cooling capacity of 8331 Btu/hr is less than the minimum capacity of 68243 Btu/hr.",
               "Sp-Core_Retail Sys-3 Flr-1 Sch-C HPlcmt-east ZN NECB System 3 PSZ requires an economizer because the total cooling capacity of 279147 Btu/hr exceeds the minimum capacity of 68243 Btu/hr.",
               "Sp-Point_Of_Sale Sys-3 Flr-1 Sch-C HPlcmt-south ZN NECB System 3 PSZ does not require an economizer because the total cooling capacity of 47877 Btu/hr is less than the minimum capacity of 68243 Btu/hr.",
               "Sp-Back_Space Sys-4 Flr-1 Sch-E HPlcmt-north ZN NECB System 4 PSZ does not require an economizer because the total cooling capacity of 44957 Btu/hr is less than the minimum capacity of 68243 Btu/hr.",
               "Sp-Front_Retail Sys-3 Flr-1 Sch-C HPlcmt-south ZN NECB System 3 PSZ does not require an economizer because the total cooling capacity of 48022 Btu/hr is less than the minimum capacity of 68243 Btu/hr.",
               "Finished applying prototype HVAC assumptions.",
               "Started applying HVAC efficiency standards.",
               "For Sp-Back_Space Sys-4 Flr-1 Sch-E HPlcmt-north ZN NECB System 4 PSZ, ERV not required based on 0% OA flow, design supply air flow of 1532cfm, and climate zone NECB HDD Method.",
               "For Sp-Back_Space Sys-4 Flr-1 Sch-E HPlcmt-north ZN NECB System 4 PSZ, ERV not required based on exhaust heat content.",
               "For NECB 2011 NECB HDD Method:  Sp-Back_Space Sys-4 Flr-1 Sch-E HPlcmt-north ZN NECB System 4 PSZ: DCV is not required for any system.",
               "For Sp-Back_Space Sys-4 Flr-1 Sch-E HPlcmt-north ZN NECB System 4 PSZ: Annual occupied hours = 3068 hr/yr, assuming a 0.15 occupancy threshold.  This schedule will be used as the HVAC operation schedule.",
               "For Sp-Back_Space Sys-4 Flr-1 Sch-E HPlcmt-north ZN NECB System 4 PSZ: Setting motorized OA damper schedule to Sp-Back_Space Sys-4 Flr-1 Sch-E HPlcmt-north ZN NECB System 4 PSZ Occ Sch.",
               "For Sp-Core_Retail Sys-3 Flr-1 Sch-C HPlcmt-east ZN NECB System 3 PSZ, ERV not required based on 0% OA flow, design supply air flow of 8502cfm, and climate zone NECB HDD Method.",
               "For Sp-Core_Retail Sys-3 Flr-1 Sch-C HPlcmt-east ZN NECB System 3 PSZ, ERV not required based on exhaust heat content.",
               "For NECB 2011 NECB HDD Method:  Sp-Core_Retail Sys-3 Flr-1 Sch-C HPlcmt-east ZN NECB System 3 PSZ: DCV is not required for any system.",
[...]
mJD17Rl17T+dnRN29+Crmn7G+ua1u24LE3TbHR6TDp7TDp9Jp0Bk84+k84Bk84hk87KPfdWQlwR7XCFtMMV0w5XUDtcUe1whbXDFdcOV2A7XJHtckW2y7ZWc0W2yxXZrlFk63dHW5Gq3hzNQoY8Q9Vbo1nIkPO+emM0Cxlyzldvi2YhQ853i6ZoNjpMcUynMYuOaDY6TKFM5zCLdmg2OkzRTCcwi15oNusgUzzT2cuiEZqNDlM806mrehe0FRmLJmg2OuTpsWiBZqNDTneLBmg2OuR0t2h/ZqNDTneb5mdWQlwRTWcwm85nVkJcQU0nMZu2Z1ZCXHFN5zGbnmdWKyNXZNOpzKbhmZUQV2TT2QzdztDtDN3OnhGi25na0O0M3c7Q7axkQ7czdDszOip0O1vxN3g/up093dDt7HGr4cdV31hTAOAABzjAAQ5wgAMc4AAHOMDZepxvrFcAaEADGtCABjSgAQ1oQAMa0GwPzV+mRwFwgAMc4AAHOMABDnCAAxzgVPdDt7PFhm5ny25ng+3odnawBd3ODjbY7azbZ2p3ZiHU4xLa4xLqcwkNuIT2uYQOuIQOuYT+dLe9jRJbbDtswe2wRbfDFt4OW3w7bAHusEW4wxbiDluMu2wx7vKt32wx7rLFuGsW4yZd0J5q2bRBq65DnyWbRmjVdehVwKYVWnUdegWwaYZWXYee/Vbt0CyEuCK6JL1ZdUSzEOIK6pLcZtUUzUKIK65LEptVXzSLlZErskuymlVrNAshrsguSWk23dGe6li1R7MQok+RVYM0CyF68lu1SLMQoie/VZM0CyF68tu1SbNRYovtksxm1ynNRoktvEuSm12zNBsltggvyW92/dJs1kq2GC9JcXYt02yU2GK8JMuhaxq6pqFr2jNCdE1TG7qmoWsauqaVbOiahq5pRkeFrmkr/gbvR9e0pxu6pj1uNfxI6xtrLgAc4AAHOMABDnCAAxzgAAc4W4/zjfUcAA1oQAMa0IAGNKABDWhAA5rtofnL9DoADnCAAxzgAAc4wAEOcIADnOp+6Jq22NA1bdk1bX87uqYdbkHXtMONdU0bFPeEVu1wwyXU4xLa4xLqcwkNuIT2uYQOuIQOuYRWbr63U2KLbYctuB226HbYwtthi2+HLcAdtgh32ELcYYtxly3GXb71my3GXbYYd81iXL9r2qpW9a5pNjr0WareNc1Gh14FqndNs9GhV4DqXdNsdOjZb9E1zUqIK6JL0ptF1zQrIa6gLsltFl3TrIS44roksVl0TbNaGbkiuySrWXRNsxLiiuySlFa9a9qqjkXXNCsh+hRZdE2zEqInv0XXNCshevJbdE2zEqInv03XNDslttguyWw2XdPslNjCuyS52XRNs1Nii/CS/GbTNc1urWSL8ZIUZ9M1zU6JLcZLshy6pqFrGrqmPSNE1zS1oWsauqaha1rJhq5p6JpmdFTomrbib/B+dE17uqFr2uNWw4+0vrHmAsABDnCAAxzgAAc4wAEOcICz9TjfWM8B0IAGNKABDWhAAxrQgAY0oNkemr9MrwPgAAc4wAEOcIADHOAABzjAqe6HrmmLDV3Tll3TDraia9pe99vvmpYzbqprWrfjsjRNs9HpMensMen0mXQGTDr7TDoHTDqHTDor99xbCXFFtMMV0g5XTDtcQe1wRbXDFdYOV1w7XIHtcEW2yxXZLttazRXZLldku0aRrd8dbUWqenM0CxnyDFVvjWYhQ8776o3RLGTIOV+9LZqFDDnfLZqi2egwxTGdxiw6otnoMIUyncMs2qHZ6DBFM53ALHqh2ayDTPFMZy+LRmg2OkzxTKeu6l3QVmQsmqDZ6JCnx6IFmo0OOd0tGqDZ6JDT3aL9mY0OOd1tmp9ZCXFFNJ3BbDqfWQlxBTWdxGzanlkJccU1ncdsep5ZrYxckU2nMpuGZ1ZCXJFNZzN0O0O3M3Q7e0aIbmdqQ7czdDtDt7OSDd3O0O3M6KjQ7WzF3+D96Hb2dEO3s8ethh9XfWNNAYADHOAABzjAAQ5wgAMc4ABn63G+sV4BoAENaEADGtCABjSgAQ1oQLM9NH+ZHgXAAQ5wgAMc4AAHOMABDnCAU90P3c4WG7qdLbudHW5HtzNnC7qdORvrdubsdTvdJ5uzx9L8jFG2V4/sXj2y/XpkB/XI7tcje1CP7GE9siv3+nPq1jTPnJommlPTTHNqmmpOTXPNqWmyOTXNNqem6ebUNN/cmuabW1deq2m+uTXNN9dmvul3lStTrt5kjk9V9+xWb0HHp6q7klVvUMenqruKVW9fx6equ4JZNLdjlK1ndmmXCxad8Bhl65lg2rWCRds8Rtl65ph2oWDRY48xK9Qzy7SrBIuGfIyy9cwy7RKheve+MlWLZn6Msrqn1qLVH6Os7gJm0QiQUVZ3AbNoE8goq7uA2TQR5NStaZ5pVwo2HQc5dWuaatrFgk17Qk7dmmabdr1g08uQM0/UNN+0SwabxoecujXNN+2qAV0S0SURXRKfEaJLotrQJRFdEtElsWRDl0R0STQ6KnRJXPE3eD+6JD7d0CXxcavhR5nfWDMR4AAHOMABDnCAAxzgAAc4wNl6nG+sxwhoQAMa0IAGNKABDWhAAxrQbA/NX6a3CXCAAxzgAAc4wAEOcIADHOBU9/sKXRI/yNuJTLxsmkjRPNtB08Rvq2miTO6CoRT/8lTk/RzHE6EumPqd8173bDsaKLpb0EDR3VwDRfX3qp2amHR6TDp7TDp9Jp0Bk84+k84Bk84hk85qgwEbIa6IdrhC2uGKaYcrqB2uqHa4wtrhimuHK7Adrsh2uSLbZVuruSLb5Yps1yiyDRr7PZWy6ORXXYY8Qxa9+qrLkPPeohtfdRlyzlv026suQ853m456FjpMcUynMZsmeRY6TKFM5zCbvncWOkzRTCcwm1Z2FusgUzzT2cumO52FDlM806nLouHcUxmbDnMWOuTpsekhZ6FDTnebLnEWOuR0t+kDZ6FDTnerTm82QlwRTWcwq+ZtNkJcQU0nMat+bDZCXHFN5zGrFms2KyNXZNOpzKprmo0QV2TT2eyZ0G9JECdBNhOOaIvm+TTaUS2pBu3/86J212kXf38jh+2eQ6W57so/9F692ts7PGSwcOu36NVvsVe/Rb9+i0H9Fvv1WxzUb3FYv8VKZq/LYwPz29nABHc2MMOdDUxxZwNz3NnAJHc2MMudDUxzZwPz3N3APHc3kcc3MM/dDcxzt9o8dwsPL6M8unplVa/nugcDBgv6arBZ0BeDzYK+FmwW9JLLZkGvuGwW9ILLZkGvt2wW9HLLZlHyzTWfB/3VH58H/a0gnwf9hSGfxwameElZxeexgUleUlbxeWxgmpeUVXz5jy6r+Dw2kcc3kMhLyio+j2rzvKc8zpKA8HAP9coqx9nf7/UYLOirwWZBXww2C/pasFnQSy6bBb3islnQCy6bBb3eslnQv41isygpq/g86LKKz4Muq/g86LKKz4P+iRafB/27RD4P+ieLfB70rxn5POgfOvJ5bGCel5RVfB6byOMbSOQlZRWfR7VUvqc8PoynlMeBXll1mG/91wwW9NVgs6AvBpsFfS3YLOiyis2CLqvYLOiyis2CLqvYLOjlls2ipKzi86DLKj4Puqzi86DLKj4Puqzi86DLKj4Puqzi86DLKj4Puqzi89jAPC8pq/g8NpHHN5DIS8oqPo9qqbyvPP4lfcpjX6+sevPm5GR/n8GCvhpsFvTFYLOgrwWbBV1WsVnQZRWbBV1WsVnQZRWbBb3cslmUlFV8HnRZxedBl1V8HnRZxedBl1V8HnRZxedBl1V8HnRZxedBl1V8HhuY5yVlFZ/HJvL4BhJ5SVnF51EtlQ+K0m0qKY+BXll1cjIYsFjQV4PNgr4YbBb0tWCzoMsqNgu6rGKzoMsqNgu6rGKzoJdbNouSsorPgy6r+DzosorPgy6r+DzosorPgy6r+DzosorPgy6r+DzosorPYwPzvKSs4vPYRB7fQCIvKav4PKql8n3l8UtM/Sze7euVVQcHrtvvM1jQV4PNgr4YbBb0tWCzoMsqNgu6rGKzoMsqNgu6rGKzKOs7xWRR2myNy6OsWxWXR1kjKy6Psh5XXB5l7a+4PMp6vnF5lLWD4/Io6xTH5VHWRI7LYwPzvKSs4vPYRB7fQCIvKav4PNan8o86HV4XPZnFsYjk/bKBbNE3tpnejVpFB9i1rWKXjZ1Tmb2Op5GfNvvdlnCcfkv01N/cvl672Ycc47Epte+feJkcxcns1UOQztsiPx6/RvfoXOBd4svk/VR1KdbeUXHMVjl+kV46TeQcQzVaXpz3mttzYxjDGMYwhjGMYQxjGMMYxjCGMYxhDGMYwxjGMIYxjGEMYxjDGMYwhjGMYQxjGMMYxjCGMYxhDGMYwxjGMIYxjGEMYxjDGMYwhjGMYQxj+H9qeNaJ72SSBL78xVM31jqdruX9qurW2HT11thzmQQyXdxe22gtbyCehHHWCYNIrr1FNv3Sfbrr76xNO8Wj5ydx6GVBHOVQjTSTk/aVvI4T2dC78/lnOZKRv3pA89eag25L9NSdy111I7P6oxHK60yBrZFeynYuRzI7jTJ1fnKL62k0LEibO+KPNRJLQvm498Xae7nVFlyLZjYO0k5aXBU9I7U92amTn79Tbzhu/hfYVG2Jr24dz9kXupeTOA2U4Jv8ZZ2jWW5K5gtUSXxvhrTECiJfqvnQdlqGey+3m6o7XgcyVPHWXJzT+TwZJfF0In3x/ffib4vXHzqXYy9d3P+uJtjO09HZF0fzE9LxRqMz5dEJZTTKxuKlcMU/ReNVGDbE0eo70jAYymbb2bnoftxZO9+eHUmciOZNfijdH8RNbrMI1YWveu3v+YpjfoHUpsJ4oXdx87HzSc7E8fHx/ORVUyxUF5f9xvRQl9tVIr1PVXb+bLiP6fvV+Voc3bEKaxUMi0gpGjl0Lr00DUaR9E9Ui4j0ojiTH6udyuWFnkzTcbPqtcgv6dH8elafSWF4pHOUHfXOqi5plsSfpJ7P/L1VneKJNwyymZ7V4s2Vj6qwWFpVVVkuJKvLSpXpYbz4qG05nVcXHtEWjqmayXTTZ/3cKrKq1vs/r6sp1La7K377/YP497vf34vzd+8//PTrj+Lndz/+dCLenr4/1RM4y1dt+eCpEk1ksUjjJBPR9DaPg6EoWpqkwkuHefESRCMNxeW5VzpPMrPXElf6i0sis2kSiYmXpPIsjL2s6aklfye/lE9euype0zqZ60u0J7aLQ1gn/LneTi+P9Wcx3YvJ3nzhy2tvGmZiksT5GiZftMSL7w4OTk5OT1/U3HgGOMABDnCAAxzgAAc4wAEOcP43cUQ6vc3/CSx8qV4UvjdTRIn0QQMa0IAGNKABDWhAAxrQgAY05TT3xU+z/kRzFU4lcIADHOAABzjAAQ5wgAMc4ACnCs7jcwMd9dzA8yn13MCeU3zD9urV3t7hIUhBClKQghSkIAUpSEEKUpCCFKQg3Q5StyD1Moq0W5D2eq57MAApSEEKUpCCFKQgBSlIQQpSkIIUpNtB2lOkZ0lAkLqHBanj7O/3eiAFKUhBClKQghSkIAUpSEEKUpCCdDtI9xTph/GUIj0oSA/zrf8apCAFKUhBClKQghSkIAUpSEEKUpBuB2lfkf5L+hTpfkH65s3Jyf4+SEEKUpCCFKQgBSlIQQpSkIIUpCDdDtJB8cnEVFKkg4L05GQwAClIQQpSkIIUpCAFKUhBClKQghSk20K6r0h/ianOgm6/ID04cN1+H6QgBSlIQQpSkIIUpCAFKUhBClKQbox0ieIn3n1zrdhDJwuyUJ6PvYnsZPIha754G0+TdD3G7Pmeb4JbGaVBHIUyLRTWSOzuile+LzxRKIn7IBuLNL6Vwu+t2TO9G3W8yURGfrOhvBs7a3ZYbh0vy5Jm46HREoOu4U6zfCdXf6c0m4Vyjtf2ouE4TvL9G6G8NqBdaFzHUda+l8FonCmNqzj09TXm1+Z80n7tDT9dnk+8oRTns7S9J87CpO2I8+G4fSre/hYOb7N2FCf5RfjPr+LX05PX6m2ZvBV74rfz/4h3w6F674udssv6cjcdJsEk+wf5npe7fnD35WFyH1os1xKBf9wYqpg/yU+TF0QyudzrNURx7o4bfpBOQm92FERhPtS+CuPhpx8aNF8uOj8Ekc0m+f7q9O3eeHfe/NXSPdV25yUqPMWx8IPbSSg7kbw/vxs1G989Z2yJvW63+GPtdFOyvpd5ue7FH43Qu5Jh46jhy2tvGmZiksTXQSgbrfnI5UPjyOl0W407L5zKxd+HalXK98kXmpOT09PG55aWjsuk02PS2WPS6TPpDJh09pl0Dph0Dpl0nC6XEFdEO1wh7XDFtMMV1A5XVDtcYe1wxbXDFdgOV2S7XJHtsq3VXJHtckW2axTZIp3e3q48ploroyXSN5Ahz5GZDHmGzGTI82MmQ857Mxly1pvJkHPeTIac8WYy5Hw3k6ETmaEOUxzTacxQhymS6SRmqMMUy3QKM9RhimY6gRnqMMUznb4MdbjWZaZ4pnOXoY5+PN8HUWaetq7US/o65Okx1CFPj6EOeXoMdcjpbqhDTndDHXK6G+qQ091Qh5zuhjp0/jIV4opoOoOZCnHFNJ3DTIW4oprOYqZCXHFN5zFTIa7IpjOZqRDbWs0V2XQyMxXSj+zH7y3WPleYSnPdlX/ozR88zGDh1m/Rq99ir36Lfv0Wg/ot9uu3OKjf4rB+i5XMXpfHBuZ3yQezfB70J1t8HvSHXnwe9Ce9fB70h8B8HvTnw3we9EfHfB70p8p8+W8D89zdRB7fQCJ3N5DJ3WqpfO3jG/XKqvnzHRks6KvBZkFfDDYL+lqwWdBlFZsFXVaxWdBlFZsFXVaxWdBlFZtFyTfXfB70V398HnRZxedBl1V8HnRZxedBl1V8HnRZxedBl1V8HnRZxedBl1V8+W8D87zkK34+jw0k8pKyis+jWipf+5QsvbJq/hgtBgv6arBZ0BeDzYK+FmwWdFnFZkGXVWwWdFnFZkGXVWwWdFnFZlFSVvF50MstnwddVvF50GUVnwddVvF50GUVnwddVvF50GUVnwddVvF50GUVX/7bwDwvKav4PDaQyEvKKj6Paql87cNI9Mqq+dNKGCzoq8FmQV8MNgv6WrBZ0GUVmwVdVrFZ0GUVmwVdVrFZ0GUVm0VJWcXnQS+3fB50WcXnQZdVfB50WcXnQZdVfB50WcXnQZdVfB50WcXnQZdVfPlvA/O8pKzi89hAIi8pq/g8qqXytT3f9cqqeVN4Bgv6arBZ0BeDzYK+FmwWdFnFZkGXVWwWdFnFZkGXVWwWdFnFZlFSVvF50MstnwddVvF50GUVnwddVvF50GUVnwddVvF50GUVnwddVvF50GUVX/7bwDwvKav4PDaQyEvKKj6Paql8bWtdvbJq3nuXwYK+GmwW9MVgs6CvBZsFXVaxWdBlFZsFXVaxWdBlFZsFXVaxWZSUVXwe9HLL50GXVXwedFnF50GXVXwedFnF50GXVXwedFnF50GXVXwedFnFl/82MM9Lyio+jw0k8pKyis+jWipf28FQr6yatzhksKCvBpsFfTHYLOhrwWZBl1VsFnRZxWZBl1VsFnRZxWZBl1VsFqXN1rg86OWWz6OskRWXR1mPKy6PsvZXXB5lPd+4PMrawXF5lHWK4/IoayLH5VHWX44r/21gnpd2pePy2EAiLymr+DzWp/KPOh1eF82bxbGI5P2ygWzRN7aZ3o1aRQfYta1ilx2gU5m9jqeRnzb73ZZwnH5L9NTf3L5eu9mHHOOxsbXvn3iZHMXJ7NVDkM47KD8ev0ab6VzgXeLL5P1UNTTW3lFxzFY5fpFeOk3kHEP1ZF6c95pbfGMYwxjGMIYxjGEMYxjDGMYwhjGMYQxjGMMYxjCGMYxhDGMYwxjGMIYxjGEMYxjDGMYwhjGMYQxjGMMYxjCGMYxhDGMYwxjGMIYxjGEMY/h/anjWie9kkgS+/MVTN9Y6na7l/arq1th09dbYc5kEMl3cXttoLW8gnoRx1gmDSK69RTb90n266++sTTvFo+cncehlQRzlUI00k5P2lbyOE9nQu/P5ZzmSkb96QPPXmoNuS/TUnctddSOz+qMRyutMga2RXsp2LkcyO40ydX5yi+tpNCxImzvijzUSS0L5uPfF2nu51RZci2Y2DtJOWlwVPSO1Pdmpk5+/U284bv4X2FRtia9uHc/ZF7qXkzgNlOCb/GWdo1luSuYLVEl8b4a0xAoiX6r50HZahnsvt5uqO14HMlTx1lyc0/k8GSXxdCJ98f334m+L1x86l2MvXdz/ribYztPR2RdH8xPS8UajM+XRCWU0ysbipXDFP0XjVRg2xNHqO9IwGMpm29m56H7cWTvfnh1JnIjmTX4o3R/ETW6zCNWFr3rt7/mKY36B1KbCeKF3cfOx80nOxPHx8fzkVVMsVBeX/cb0UJfbVSK9T1V2/my4j+n71flaHN2xCmsVDItIKRo5dC69NA1GkfRPVIuI9KI4kx+rncrlhZ5M03Gz6rXIL+nR/HpWn0lheKRzlB31zqouaZbEn6Sez/y9VZ3iiTcMspme1eLNlY+qsFhaVVVZLiSry0qV6WG8+KhtOZ1XFx7RFo6pmsl002f93Cqyqtb7P6+rKdS2uyt++/2D+Pe739+L83fvP/z064/i53c//nQi3p6+P9UTOMtXbfngqRJNZLFI4yQT0fQ2j4OhKFqapMJLh3nxEkQjDcXluVc6TzKz1xJX+otLIrNpEomJl6TyLIy9rOmpJX8nv5RPXrsqXtM6metLtCe2i0NYJ/y53k4vj/VnMd2Lyd584ctrbxpmYpLE+RomX7TEi+8ODk5OTk9f1Nx4BjjAAQ5wgAMc4AAHOMABDnD+N3FEOr3N/wksfKleFL43U0SJ9EEDGtCABjSgAQ1oQAMa0IAGNOU098VPs/5EcxVOJXCAAxzgAAc4wAEOcIADHOAApwrO43MDHfXcwPMp9dzAnlN8w/bq1d7e4SFIQQpSkIIUpCAFKUhBClKQghSkIN0OUrcg9TKKtFuQ9nquezAAKUhBClKQghSkIAUpSEEKUpCCFKTbQdpTpGdJQJC6hwWp4+zv93ogBSlIQQpSkIIUpCAFKUhBClKQgnQ7SPcU6YfxlCI9KEgP863/GqQgBSlIQQpSkIIUpCAFKUhBClKQbgdpX5H+S/oU6X5B+ubNycn+PkhBClKQghSkIAUpSEEKUpCCFKQg3Q7SQfHJxFRSpIOC9ORkMAApSEEKUpCCFKQgBSlIQQpSkIIUpNtCuq9If4mpzoJuvyA9OHDdfh+kIAUpSEEKUpCCFKQgBSlIQQpSkG6MdIniJ959c63YQycLslCej72J7GTyIWu+eBtPk3Q9xuz5nm+CWxmlQRyFMi0U1kjs7opXvi88USiJ+yAbizS+lcLvrdkzvRt1vMlERn6zobwbO2t2WG4dL8uSZuOh0RKDruFOs3wnV3+nNJuFco7X9qLhOE7y/RuhvDagXWhcx1HWvpfBaJwpjas49PU15tfmfNI+iRN5+V5mXhCK81na7omzMGk74nw4bp+It7+Fw9usLb00E//5Vfx6evJavSuTt6Infjv/j3g3HKq3vtgpu6wvd9NhEkyyf5DvebnrB3dfHib3ocVyLRH4x42hivmT/DR5QSSTy729hijO3XHDD9JJ6M2OgijMh9pXYTz89EOD5stF54cgstkk31+dvt0b786bv1q6p9ruvESFpzgWfnA7CWUnkvfnd6Nm47vnjC2x1+0Wf6ydbkrW9zIv1734oxF6VzJsHDV8ee1Nw0xMkvg6CGWjNR+5fGgcOZ1uq3HnhVO5+PtQrUr5PvlCc3Jyetr43NLScZl0ekw6e0w6fSadAZPOPpPOAZPOIZOO0+US4opohyukHa6YdriC2uGKaocrrB2uuHa4AtvhimyXK7JdtrWaK7Jdrsh2jSJbpNPb25XHVGtltET6BjLkOTKTIc+QmQx5fsxkyHlvJkPOejMZcs6byZAz3kyGnO9mMnQiM9RhimM6jRnqMEUyncQMdZhimU5hhjpM0UwnMEMdpnim05ehDte6zBTPdO4y1NGP5/sgyszT1pV6SV+HPD2GOuTpMdQhT4+hDjndDXXI6W6oQ053Qx1yuhvqkNPdUIfOX6ZCXBFNZzBTIa6YpnOYqRBXVNNZzFSIK67pPGYqxBXZdCYzFWJbq7kim05mpkL6kf34vcXa5wpTaa678g+9+YOHGSzc+i169Vvs1W/Rr99iUL/Ffv0WB/VbHNZvsZLZ6/LYwPwu+WCWz4P+ZIvPg/7Qi8+D/qSXz4P+EJjPg/58mM+D/uiYz4P+VJkv/21gnrubyOMbSOTuBjK5Wy2Vr318o15ZNX++I4MFfTXYLOiLwWZBXws2C7qsYrOgyyo2C7qsYrOgyyo2C7qsYrMo+eaaz4P+6o/Pgy6r+DzosorPgy6r+DzosorPgy6r+DzosorPgy6r+Dzosoov/21gnpd8xc/nsYFEXlJW8XlUS+Vrn5KlV1bNH6PFYEFfDTYL+mKwWdDXgs2CLqvYLOiyis2CLqvYLOiyis2CLqvYLErKKj4Pernl86DLKj4Puqzi86DLKj4Puqzi86DLKj4Puqzi86DLKj4Puqziy38bmOclZRWfxwYSeUlZxedRLZWvfRiJXlk1f1oJgwV9Ndgs6IvBZkFfCzYLuqxis6DLKjYLuqxis6DLKjYLuqxisygpq/g86OWWz4Muq/g86LKKz4Muq/g86LKKz4Muq/g86LKKz4Muq/g86LKKL/9tYJ6XlFV8HhtI5CVlFZ9HtVS+tue7Xlk1bwrPYEFfDTYL+mKwWdDXgs2CLqvYLOiyis2CLqvYLOiyis2CLqvYLErKKj4Pernl86DLKj4Puqzi86DLKj4Puqzi86DLKj4Puqzi86DLKj4Puqziy38bmOclZRWfxwYSeUlZxedRLZWvba2rV1bNe+8yWNBXg82CvhhsFvS1YLOgyyo2C7qsYrOgyyo2C7qsYrOgyyo2i5Kyis+DXm75POiyis+DLqv4POiyis+DLqv4POiyis+DLqv4POiyis+DLqv48t8G5nlJWcXnsYFEXlJW8XlUS+VrOxjqlVXzFocMFvTVYLOgLwabBX0t2CzosorNgi6r2CzosorNgi6r2CzosorNorTZGpcHvdzyeZQ1suLyKOtxxeVR1v6Ky6Os5xuXR1k7OC6Psk5xXB5lTeS4PMr6y3Hlvw3M89KudFweG0jkJWUVn8f6VP5Rp8PronmzOBaRvF82kC36xjbTu1Gr6AC7tlXssgN0KrPX8TTy02a/2xKO02+Jnvqb29drN/uQYzw2tvb9Ey+ToziZvXoI0nkH5cfj12gznQu8S3yZvJ+qhsbaOyqO2SrHL9JLp4mcY6iezIvzXnOLbwxjGMMYxjCGMYxhDGMYwxjGMIYxjGEMYxjDGMYwhjGMYQxjGMMYxjCGMYxhDGMYwxjGMIYxjGEMYxjDGMYwhjGMYQxjGMMYxjCGMYxhDP9PDc868Z1MksCXv3jqxlqn07W8X1XdGpuu3hp7LpNApovbaxut5Q3EkzDOOmEQybW3yKZfuk93/Z21aad49PwkDr0siKMcqpFmctK+ktdxIht6dz7/LEcy8lcPaP5ac9BtiZ66c7mrbmRWfzRCeZ0psDXSS9nO5Uhmp1Gmzk9ucT2NhgVpc0f8sUZiSSgf975Yey+32oJr0czGQdpJi6uiZ6S2Jzt18vN36g3Hzf8Cm6ot8dWt4zn7QvdyEqeBEnyTv6xzNMtNyXyBKonvzZCWWEHkSzUf2k7LcO/ldlN1x+tAhiremotzOp8noySeTqQvvv9e/G3x+kPncuyli/vf1QTbeTo6++JofkI63mh0pjw6oYxG2Vi8FK74p2i8CsOGOFp9RxoGQ9lsOzsX3Y87a+fbsyOJE9G8yQ+l+4O4yW0WobrwVa/9PV9xzC+Q2lQYL/Qubj52PsmZOD4+np+8aoqF6uKy35ge6nK7SqT3qcrOnw33MX2/Ol+LoztWYa2CYREpRSOHzqWXpsEokv6JahGRXhRn8mO1U7m80JNpOm5WvRb5JT2aX8/qMykMj3SOsqPeWdUlzZL4k9Tzmb+3qlM88YZBNtOzWry58lEVFkurqirLhWR1WakyPYwXH7Utp/PqwiPawjFVM5lu+qyfW0VW1Xr/53U1hdp2d8Vvv38Q/373+3tx/u79h59+/VH8/O7Hn07E29P3p3oCZ/mqLR88VaKJLBZpnGQimt7mcTAURUuTVHjpMC9egmikobg890rnSWb2WuJKf3FJZDZNIjHxklSehbGXNT215O/kl/LJa1fFa1onc32J9sR2cQjrhD/X2+nlsf4spnsx2ZsvfHntTcNMTJI4X8Pki5Z48d3BwcnJ6emLmhvPAAc4wAEOcIADHOAABzjAAc7/Jo5Ip7f5P4GFL9WLwvdmiiiRPmhAAxrQgAY0oAENaEADGtCAppzmvvhp1p9orsKpBA5wgAMc4AAHOMABDnCAAxzgVMF5fG6go54beD6lnhvYc4pv2F692ts7PAQpSEEKUpCCFKQgBSlIQQpSkIIUpNtB6hakXkaRdgvSXs91DwYgBSlIQQpSkIIUpCAFKUhBClKQgnQ7SHuK9CwJCFL3sCB1nP39Xg+kIAUpSEEKUpCCFKQgBSlIQQpSkG4H6Z4i/TCeUqQHBelhvvVfgxSkIAUpSEEKUpCCFKQgBSlIQQrS7SDtK9J/SZ8i3S9I37w5OdnfBylIQQpSkIIUpCAFKUhBClKQghSk20E6KD6ZmEqKdFCQnpwMBiAFKUhBClKQghSkIAUpSEEKUpCCdFtI9xXpLzHVWdDtF6QHB67b74MUpCAFKUhBClKQghSkIAUpSEEK0o2RLlH8xLtvrhV76GRBFsrzsTeRnUw+ZM0Xb+Npkq7HmD3f801wK6M0iKNQpoXCGondXfHK94UnCiVxH2Rjkca3Uvi9NXumd6OON5nIyG82lHdjZ80Oy63jZVnSbDw0WmLQNdxplu/k6u+UZrNQzvHaXjQcx0m+fyOU1wa0C43rOMra9zIYjTOlcRWHvr7G/NqcT9pnSS5z+V5mXhCK81na7omzMGk74nw4bp+It7+Fw9usncbT/DL851fx6+nJa/W2TN6Knvjt/D/i3XCo3vtip+zCvtxNh0kwyf5Bvuflrh/cfXmY3IcWy7VE4B83hirqT/Ij9IJIJpd7/YYozt5xww/SSejNjoIozIfaV2E8/PRDg+bLReeHILLZJN9fncDdG+/Om79auqfa7rxEBag4Fn5wOwllJ5L353ejZuO754wtsdftFn+snXBK1vcyL9e9+KMRelcybBw1fHntTcNMTJL4OghlozUfuXxoHDmdbqtx54VTufj7UK1L+T75UnNycnra+NzS0nGZdHpMOntMOn0mnQGTzj6TzgGTziGTjtPlEuKKaIcrpB2umHa4gtrhimqHK6wdrrh2uALb4YpslyuyXba1miuyXa7Ido0iW6TT29uVB1VrZbRE+gYy5DkykyHPkJkMeX7MZMh5byZDznozGXLOm8mQM95MhpzvZjJ0IjPUYYpjOo0Z6jBFMp3EDHWYYplOYYY6TNFMJzBDHaZ4ptOXoQ7XuswUz3TuMtTRj+f7IMrM09aVeklfhzw9hjrk6THUIU+PoQ453Q11yOluqENOd0Mdcrob6pDT3VCHzl+mQlwRTWcwUyGumKZzmKkQV1TTWcxUiCuu6TxmKsQV2XQmMxViW6u5IptOZqZC+pH9+M3F2icLU2muu/IPvfmjhxks3PotevVb7NVv0a/fYlC/xX79Fgf1WxzWb7GS2evy2MD8Lvlgls+D/mSLz4P+0IvPg/6kl8+D/hCYz4P+fJjPg/7omM+D/lSZL/9tYJ67m8jjG0jk7gYyuVstla99gKNeWTV/wiODBX012Czoi8FmQV8LNgu6rGKzoMsqNgu6rGKzoMsqNgu6rGKzKPnmms+D/uqPz4Muq/g86LKKz4Muq/g86LKKz4Muq/g86LKKz4Muq/g86LKKL/9tYJ6XfMXP57GBRF5SVvF5VEvla5+TpVdWzR+kxWBBXw02C/pisFnQ14LNgi6r2CzosorNgi6r2CzosorNgi6r2CxKyio+D3q55fOgyyo+D7qs4vOgyyo+D7qs4vOgyyo+D7qs4vOgyyo+D7qs4st/G5jnJWUVn8cGEnlJWcXnUS2Vr30ciV5ZNX9eCYMFfTXYLOiLwWZBXws2C7qsYrOgyyo2C7qsYrOgyyo2C7qsYrMoKav4POjlls+DLqv4POiyis+DLqv4POiyis+DLqv4POiyis+DLqv4POiyii//bWCel5RVfB4bSOQlZRWfR7VUvrbru15ZNW8Lz2BBXw02C/pisFnQ14LNgi6r2CzosorNgi6r2CzosorNgi6r2CxKyio+D3q55fOgyyo+D7qs4vOgyyo+D7qs4vOgyyo+D7qs4vOgyyo+D7qs4st/G5jnJWUVn8cGEnlJWcXnUS2Vr22uq1dWzbvvMljQV4PNgr4YbBb0tWCzoMsqNgu6rGKzoMsqNgu6rGKzoMsqNouSsorPg15u+TzosorPgy6r+DzosorPgy6r+DzosorPgy6r+DzosorPgy6r+PLfBuZ5SVnF57GBRF5SVvF5VEvla3sY6pVV8yaHDBb01WCzoC8GmwV9Ldgs6LKKzYIuq9gs6LKKzYIuq9gs6LKKzaK02RqXB73c8nmUNbLi8ijrccXlUdb+isujrOcbl0dZOzguj7JOcVweZU3kuDzK+stx5b8NzPPSrnRcHhtI5CVlFZ/H+lT+UafD66J9szgWkbxfNpAt+sY207tRq+gAu7ZV7LIHdCqz1/E08tNmv9sSjtNviZ76m9vXazf7kGM8trb2/RMvk6M4mb16CNJ5D+XH49doNJ0LvEt8mbyfqpbG2jsqjtkqxy/SS6eJnGOorsyL815zk28MYxjDGMYwhjGMYQxjGMMYxjCGMYxhDGMYwxjGMIYxjGEMYxjDGMYwhjGMYQxjGMMYxjCGMYxhDGMYwxjGMIYxjGEMYxjDGMYwhjGMYQz/Tw3POvGdTJLAl7946sZap9O1vF9V3Rqbrt4aey6TQKaL22sbreUNxJMwzjphEMm1t8imX7pPd/2dtWmnePT8JA69LIijHKqRZnLSvpLXcSIbenc+/yxHMvJXD2j+WnPQbYmeunO5q25kVn80QnmdKbA10kvZzuVIZqdRps5PbnE9jYYFaXNH/LFGYkkoH/e+WHsvt9qCa9HMxkHaSYuromektic7dfLzd+oNx83/ApuqLfHVreM5+0L3chKngRJ8k7+sczTLTcl8gSqJ782QllhB5Es1H9pOy3Dv5XZTdcfrQIYq3pqLczqfJ6Mknk6kL77/Xvxt8fpD53LspYv739UE23k6OvviaH5COt5odKY8OqGMRtlYvBSu+KdovArDhjhafUcaBkPZbDs7F92PO2vn27MjiRPRvMkPpfuDuMltFqG68FWv/T1fccwvkNpUGC/0Lm4+dj7JmTg+Pp6fvGqKherist+YHupyu0qk96nKzp8N9zF9vzpfi6M7VmGtgmERKUUjh86ll6bBKJL+iWoRkV4UZ/JjtVO5vNCTaTpuVr0W+SU9ml/P6jMpDI90jrKj3lnVJc2S+JPU85m/t6pTPPGGQTbTs1q8ufJRFRZLq6oqy4VkdVmpMj2MFx+1Lafz6sIj2sIxVTOZbvqsn1tFVtV6/+d1NYXadnfFb79/EP9+9/t7cf7u/Yeffv1R/Pzux59OxNvT96d6Amf5qi0fPFWiiSwWaZxkIpre5nEwFEVLk1R46TAvXoJopKG4PPdK50lm9lriSn9xSWQ2TSIx8ZJUnoWxlzU9teTv5JfyyWtXxWtaJ3N9ifbEdnEI64Q/19vp5bH+LKZ7MdmbL3x57U3DTEySOF/D5IuWePHdwcHJyenpi5obzwAHOMABDnCAAxzgAAc4wAHO/yaOSKe3+T+BhS/Vi8L3ZoookT5oQAMa0IAGNKABDWhAAxrQgKac5r74adafaK7CqQQOcIADHOAABzjAAQ5wgAMc4FTBeXxuoKOeG3g+pZ4b2HOKb9hevdrbOzwEKUhBClKQghSkIAUpSEEKUpCCFKTbQeoWpF5GkXYL0l7PdQ8GIAUpSEEKUpCCFKQgBSlIQQpSkIJ0O0h7ivQsCQhS97AgdZz9/V4PpCAFKUhBClKQghSkIAUpSEEKUpBuB+meIv0wnlKkBwXpYb71X4MUpCAFKUhBClKQghSkIAUpSEEK0u0g7SvSf0mfIt0vSN+8OTnZ3wcpSEEKUpCCFKQgBSlIQQpSkIIUpNtBOig+mZhKinRQkJ6cDAYgBSlIQQpSkIIUpCAFKUhBClKQgnRbSPcV6S8x1VnQ7RekBweu2++DFKQgBSlIQQpSkIIUpCAFKUhBCtKNkS5R/MS7b64Ve+hkQRbK87E3kZ1MPmTNF2/jaZKux5g93/NNcCujNIijUKaFwhqJ3V3xyveFJwolcR9kY5HGt1L4vTV7pnejjjeZyMhvNpR3Y2fNDsut42VZ0mw8NFpi0DXcaZbv5OrvlGazUM7x2l40HMdJvn8jlNcGtAuN6zjK2vcyGI0zpXEVh76+xvzanE/av8VBlF2+u7489/KzfT5L2z1xFiZtR5wPx+0T8fa3cHibtdN4ml+H//wqfj09ea3elslb0RO/nf9HvBsO1Xtf7JRd2Ze76TAJJtk/yPe83PWDuy8Pk/vQYrmWCPzjxlCF/Ul+prwgksnl3qAhitN33PCDdBJ6s6MgCvOh9lUYDz/90KD5ctH5IYhsNsn3V2dw98a78+avlu6ptjsvUREqjoUf3E5C2Ynk/fndqNn47jljS+x1u8Ufa2eckvW9zMt1L/5ohN6VDBtHDV9ee9MwE5Mkvg5C2WjNRy4fGkdOp9tq3HnhVDaOBoedwyfbwWGrMVTLVK6QrzwnJ6enjc8tLVW3FtVeLap7taj2a1Ed1KK6X4vqQS2qh7WoOt16ZOuZXU4908upZ3459Uwwp54Z5tQzxZx65phTzyRz6pllbj2zzK0ph9Uzy9x6ZplrMctEOr29XXnyd4UKIZG+gajmuTUT1TyzZqKa59VMVHPtMhPVXLnMRDXXLTNRzVXLTFRzzTIT1S0MDFVrmVO6ZYGhai2zSrcoMFStZV7plgSGqrXMLN2CwFC1lrmlWw4YqtaTr2qZW7q1gKFq1bl1H0SZbRlwpd6gr6p5Wg1VNU+roarmaTVU1VyyDFU1lyxDVc0ly1BVc8kyVNVcsgxVdesBU9l6ZpduRWAqW8/80q0JTGXrmWG6VYGpbD1zTLcuMJWtZ5bpVgamsjXlsHpmmW5xYCprNMs+6nzhsPg6URyLSN4vv88ovsZopnejVvGFxNpvLpbfSaYyex1PIz9t9rst4Tj9luipv7l9vW8/HnKMx69aff/Ey+QoTmavHoJ0/p3e46nQ+OIzF3iX+DJ5P1VfsWnvqDhmqxy/SC+dJnKOob4lXFwC269yi++RVq3OZRLIdIGbOy0uyCSMs476cmutZfql415PmnaKuJvEoZcFcZRDNdJMTtpX8jpOZEMvkn6WIxn5qwc0f605yKOgpyJBfRnmqD8W35Su/RJ5Kdu5HMnsNMrU+cktrqfRsCBt7og/NL4qVYTyce+LtXNDbcG1aGbjIM3jWu2nZ6S2Jzt18vN36g3Hzf8Cm6ot8RffDS50LydxGijBN/nLOkez3JTMF6iS+N4MaYkVRL5UE7fttAz3Xm43VXe8DmSo4q25OKfzeTJK4ulE+uL778XfFq8/dC7HXrpYT9QE23k6OvviaH5COt5odKY8OqGMRtlYvBSu+KdovArDhjhafUcaBkPZbDs7F92PO2vn27MjiRPRvMkPpfuDuMltFqG68FWv/f1YOOYXSG0qjBd6FzcfO59kvrwdH89PXjXFQnVx2W9MD3W5XSXS+1Rl58+G+5i+X52vxdEdq7BWwbCIlCIxdi7nPwOSfvFDoPSiOJMfq53K5YWeTNNxs+q1yC/p0fx6Vp9JYXikc5Qd9c6qLmmWxJ+kns/8vVWd4ok3DLKZntXizZWPqrBYWlVVWS4kq8tKlelhvPiobTmdVxce0RaOqZrJdNNn/dwqsqrW+z+vqynUtrsrfvv9g/j3u9/fi/N37z/89OuP4ud3P/50It6evj/VEzjLV2354KkSTWSxSOO8kI6mt3kcDEVRIqbCS4d58RJEIw3F5blXOk8ys9cSV/qLSyKzaRKJiZek8iyMvazpqSV/J7+UT167Kl7TOpnrS7QntotDWCf8+Sv8XPNPX8AufpOpvlD9Kr8eBQ5wgAMc4AAHOMABDnCAA5ytx3n+AxdFlEgfNKABDWhAAxrQgAY0oAENaEBTTvPsJ4GKRv3EDzjAAQ5wgAMc4AAHOMABDnCA8xWbJH6QtxOZeNk0kaJ5toM2id9Um8R/eSri3sriP69urwIZZUJdMtX3UPrT/Py3xX73bDtaIO5vQQvE/Y21QCxuPK3agolJp8eks8ek02fSGTDp7DPpHDDpHDLprPQWsBLiimiHK6Qdrph2uILa4YpqhyusHa64drgC2+GKbJcrsl22tZorsl2uyHaNIlu/Zd+KVPUmfRYy5Bmq3ojPQoac99Wb7VnIkHO+ekM9Cxlyvls0zbPRYYpjOo1ZtMKz0WEKZTqHWTS4s9FhimY6gVm0rbNZB5nimc5eFs3obHSY4plOXdVbzK3IWDSVs9EhT49F4zgbHXK6WzSHs9Ehp7tFAzgbHXK62zR5sxLiimg6g9m0brMS4gpqOonZNGSzEuKKazqP2bRZs1oZuSKbTmU2zdOshLgim85maIm2FS3RMIxhDGMYwxjGMIYxjGEMYxjDGMYwhjH8LQ3POvGdTJLAl7946oMqp9NFS/wnR4KW+I8bWuIbbWiJj5b4Bhta4v95Q0v8P29oiW+4oSU+WuJ/cUNLfOAABzjAAQ5wgAMc4AAHOMABzjY0lAQNaEADGtCABjSgAQ1oQAOa7aH5yzSyBA5wgAMc4AAHOMABDnCAA5zqfl+hJf6b4FZGaRBHoUxTNMT/thrix8kncXp9HQwDGQ1nj23wN9sAf/HuP408/f/l3+f/fVRf/OXxP1exP1P/HWe34T/+3/8HtWHj6w=="
               },
               {
                  "name" : "annual_peak_electric_demand",
                  "units" : "kW",
                  "value" : 89.086269999999999
               },
               {
                  "name" : "first_year_capital_cost",
                  "units" : "$",
                  "value" : 0
               },
               {
                  "name" : "annual_utility_cost",
                  "units" : "$",
                  "value" : 38087.880000000005
               },
               {
                  "name" : "total_lifecycle_cost",
                  "units" : "$",
                  "value" : 650876.71999999997
               }
            ],
            "step_warnings" : []
         }
      }
   ],
   "updated_at" : "20170710T193617Z",
   "weather_file" : "USA_CO_Denver.Intl.AP.725650_TMY3.epw"
}
