{
   "completed_at" : "20170710T190309Z",
   "completed_status" : "Success",
   "created_at" : "2017-07-10 18:49:39 +0000",
   "current_step" : 5,
   "description" : "",
   "eplusout_err" : "Program Version,EnergyPlus, Version 8.7.0-78a111df4a, YMD=2017.07.10 18:57,IDD_Version 8.7.0\n   ************* IDF Context for following error/warning message:\n   ************* Note -- lines truncated at 300 characters, if necessary...\n   *************      5 Building,\n   ************* indicated Name=NECB 2011-SecondarySchool-NECB HDD Method-CAN_NF_Goose.718160_CWEC.epw created: 2017-07-10 18:49:46 +0000\n   ************* Only last 1 lines before error line shown.....\n   *************      6   NECB 2011-SecondarySchool-NECB HDD Method-CAN_NF_Goose.718160_CWEC.epw created: 2017-07-10 18:49:46 +0000, !- Name\n   ** Warning ** IP: IDF line~6 Alpha Argument length exceeds maximum, will be truncated=  NECB 2011-SecondarySchool-NECB HDD Method-CAN_NF_Goose.718160_CWEC.epw created: 2017-07-10 18:49:46 +000\n   **   ~~~   ** Will be processed as Alpha=NECB 2011-SECONDARYSCHOOL-NECB HDD METHOD-CAN_NF_GOOSE.718160_CWEC.EPW CREATED: 2017-07-10 18:49:46 +0000\n   ************* IDF Context for following error/warning message:\n   ************* Note -- lines truncated at 300 characters, if necessary...\n   *************    602 Schedule:Week:Daily,\n   ************* indicated Name=Schedule:Week:Daily {7fa1a681-9671-44c1-9c8d-6582558a89f2}\n   ************* Only last 10 lines before error line shown.....\n   *************    603   Schedule:Week:Daily {7fa1a681-9671-44c1-9c8d-6582558a89f2}, !- Name\n   *************    604   Sp-Auditorium_ZN_1_FLR_1 Sys-3 Flr-2 Sch-C HPlcmt-north ZN NECB System 3 PSZ Occ Sch Sunday, !- Sunday Schedule:Day Name\n   *************    605   Sp-Auditorium_ZN_1_FLR_1 Sys-3 Flr-2 Sch-C HPlcmt-north ZN NECB System 3 PSZ Occ Sch Monday, !- Monday Schedule:Day Name\n   *************    606   Sp-Auditorium_ZN_1_FLR_1 Sys-3 Flr-2 Sch-C HPlcmt-north ZN NECB System 3 PSZ Occ Sch Tuesday, !- Tuesday Schedule:Day Name\n   *************    607   Sp-Auditorium_ZN_1_FLR_1 Sys-3 Flr-2 Sch-C HPlcmt-north ZN NECB System 3 PSZ Occ Sch Wednesday, !- Wednesday Schedule:Day Name\n   *************    608   Sp-Auditorium_ZN_1_FLR_1 Sys-3 Flr-2 Sch-C HPlcmt-north ZN NECB System 3 PSZ Occ Sch Thursday, !- Thursday Schedule:Day Name\n   *************    609   Sp-Auditorium_ZN_1_FLR_1 Sys-3 Flr-2 Sch-C HPlcmt-north ZN NECB System 3 PSZ Occ Sch Friday, !- Friday Schedule:Day Name\n   *************    610   Sp-Auditorium_ZN_1_FLR_1 Sys-3 Flr-2 Sch-C HPlcmt-north ZN NECB System 3 PSZ Occ Sch Saturday, !- Saturday Schedule:Day Name\n   *************    611   Sp-Auditorium_ZN_1_FLR_1 Sys-3 Flr-2 Sch-C HPlcmt-north ZN NECB System 3 PSZ Occ Sch Default, !- Holiday Schedule:Day Name\n   *************    612   Sp-Auditorium_ZN_1_FLR_1 Sys-3 Flr-2 Sch-C HPlcmt-north ZN NECB System 3 PSZ Occ Sch Summer Design Day, !- SummerDesignDay Schedule:Day Name\n   ** Warning ** IP: IDF line~612 Alpha Argument length exceeds maximum, will be truncated=  Sp-Auditorium_ZN_1_FLR_1 Sys-3 Flr-2 Sch-C HPlcmt-north ZN NECB System 3 PSZ Occ Sch Summer Design Da\n   **   ~~~   ** Will be processed as Alpha=SP-AUDITORIUM_ZN_1_FLR_1 SYS-3 FLR-2 SCH-C HPLCMT-NORTH ZN NECB SYSTEM 3 PSZ OCC SCH SUMMER DESIGN DAY\n   ************* IDF Context for following error/warning message:\n   ************* Note -- lines truncated at 300 characters, if necessary...\n   *************    602 Schedule:Week:Daily,\n   ************* indicated Name=Schedule:Week:Daily {7fa1a681-9671-44c1-9c8d-6582558a89f2}\n   ************* Only last 10 lines before error line shown.....\n   *************    604   Sp-Auditorium_ZN_1_FLR_1 Sys-3 Flr-2 Sch-C HPlcmt-north ZN NECB System 3 PSZ Occ Sch Sunday, !- Sunday Schedule:Day Name\n   *************    605   Sp-Auditorium_ZN_1_FLR_1 Sys-3 Flr-2 Sch-C HPlcmt-north ZN NECB System 3 PSZ Occ Sch Monday, !- Monday Schedule:Day Name\n   *************    606   Sp-Auditorium_ZN_1_FLR_1 Sys-3 Flr-2 Sch-C HPlcmt-north ZN NECB System 3 PSZ Occ Sch Tuesday, !- Tuesday Schedule:Day Name\n   *************    607   Sp-Auditorium_ZN_1_FLR_1 Sys-3 Flr-2 Sch-C HPlcmt-north ZN NECB System 3 PSZ Occ Sch Wednesday, !- Wednesday Schedule:Day Name\n   *************    608   Sp-Auditorium_ZN_1_FLR_1 Sys-3 Flr-2 Sch-C HPlcmt-north ZN NECB System 3 PSZ Occ Sch Thursday, !- Thursday Schedule:Day Name\n   *************    609   Sp-Auditorium_ZN_1_FLR_1 Sys-3 Flr-2 Sch-C HPlcmt-north ZN NECB System 3 PSZ Occ Sch Friday, !- Friday Schedule:Day Name\n   *************    610   Sp-Auditorium_ZN_1_FLR_1 Sys-3 Flr-2 Sch-C HPlcmt-north ZN NECB System 3 PSZ Occ Sch Saturday, !- Saturday Schedule:Day Name\n   *************    611   Sp-Auditorium_ZN_1_FLR_1 Sys-3 Flr-2 Sch-C HPlcmt-north ZN NECB System 3 PSZ Occ Sch Default, !- Holiday Schedule:Day Name\n   *************    612   Sp-Auditorium_ZN_1_FLR_1 Sys-3 Flr-2 Sch-C HPlcmt-north ZN NECB System 3 PSZ Occ Sch Summer Design Day, !- SummerDesignDay Schedule:Day Name\n   *************    613   Sp-Auditorium_ZN_1_FLR_1 Sys-3 Flr-2 Sch-C HPlcmt-north ZN NECB System 3 PSZ Occ Sch Winter Design Day, !- WinterDesignDay Schedule:Day Name\n   ** Warning ** IP: IDF line~613 Alpha Argument length exceeds maximum, will be truncated=  Sp-Auditorium_ZN_1_FLR_1 Sys-3 Flr-2 Sch-C HPlcmt-north ZN NECB System 3 PSZ Occ Sch Winter Design Da\n   **   ~~~   ** Will be processed as Alpha=SP-AUDITORIUM_ZN_1_FLR_1 SYS-3 FLR-2 SCH-C HPLCMT-NORTH ZN NECB SYSTEM 3 PSZ OCC SCH WINTER DESIGN DAY\n   ************* IDF Context for following error/warning message:\n   ************* Note -- lines truncated at 300 characters, if necessary...\n   *************    633 Schedule:Day:Interval,\n   ************* indicated Name=Sp-Auditorium_ZN_1_FLR_1 Sys-3 Flr-2 Sch-C HPlcmt-north ZN NECB System 3 PSZ Occ Sch Summer Design Day\n   ************* Only last 1 lines before error line shown.....\n   *************    634   Sp-Auditorium_ZN_1_FLR_1 Sys-3 Flr-2 Sch-C HPlcmt-north ZN NECB System 3 PSZ Occ Sch Summer Design Day, !- Name\n   ** Warning ** IP: IDF line~634 Alpha Argument length exceeds maximum, will be truncated=  Sp-Auditorium_ZN_1_FLR_1 Sys-3 Flr-2 Sch-C HPlcmt-north ZN NECB System 3 PSZ Occ Sch Summer Design Da\n   **   ~~~   ** Will be processed as Alpha=SP-AUDITORIUM_ZN_1_FLR_1 SYS-3 FLR-2 SCH-C HPLCMT-NORTH ZN NECB SYSTEM 3 PSZ OCC SCH SUMMER DESIGN DAY\n   ************* IDF Context for following error/warning message:\n   ************* Note -- lines truncated at 300 characters, if necessary...\n   *************    640 Schedule:Day:Interval,\n   ************* indicated Name=Sp-Auditorium_ZN_1_FLR_1 Sys-3 Flr-2 Sch-C HPlcmt-north ZN NECB System 3 PSZ Occ Sch Winter Design Day\n   ************* Only last 1 lines before error line shown.....\n   *************    641   Sp-Auditorium_ZN_1_FLR_1 Sys-3 Flr-2 Sch-C HPlcmt-north ZN NECB System 3 PSZ Occ Sch Winter Design Day, !- Name\n   ** Warning ** IP: IDF line~641 Alpha Argument length exceeds maximum, will be truncated=  Sp-Auditorium_ZN_1_FLR_1 Sys-3 Flr-2 Sch-C HPlcmt-north ZN NECB System 3 PSZ Occ Sch Winter Design Da\n   **   ~~~   ** Will be processed as Alpha=SP-AUDITORIUM_ZN_1_FLR_1 SYS-3 FLR-2 SCH-C HPLCMT-NORTH ZN NECB SYSTEM 3 PSZ OCC SCH WINTER DESIGN DAY\n   ************* IDF Context for following error/warning message:\n   ************* Note -- lines truncated at 300 characters, if necessary...\n   *************   2680 Schedule:Week:Daily,\n   ************* indicated Name=Schedule:Week:Daily {850d57a4-b2f9-4642-880f-05e42666b98f}\n   ************* Only last 10 lines before error line shown.....\n   *************   2681   Schedule:Week:Daily {850d57a4-b2f9-4642-880f-05e42666b98f}, !- Name\n   *************   2682   Sp-Bathrooms_ZN_1_FLR_2 Sys-3 Flr-1 Sch-D HPlcmt-north ZN NECB System 3 PSZ Occ Sch Sunday, !- Sunday Schedule:Day Name\n   *************   2683   Sp-Bathrooms_ZN_1_FLR_2 Sys-3 Flr-1 Sch-D HPlcmt-north ZN NECB System 3 PSZ Occ Sch Monday, !- Monday Schedule:Day Name\n   *************   2684   Sp-Bathrooms_ZN_1_FLR_2 Sys-3 Flr-1 Sch-D HPlcmt-north ZN NECB System 3 PSZ Occ Sch Tuesday, !- Tuesday Schedule:Day Name\n   *************   2685   Sp-Bathrooms_ZN_1_FLR_2 Sys-3 Flr-1 Sch-D HPlcmt-north ZN NECB System 3 PSZ Occ Sch Wednesday, !- Wednesday Schedule:Day Name\n   *************   2686   Sp-Bathrooms_ZN_1_FLR_2 Sys-3 Flr-1 Sch-D HPlcmt-north ZN NECB System 3 PSZ Occ Sch Thursday, !- Thursday Schedule:Day Name\n   *************   2687   Sp-Bathrooms_ZN_1_FLR_2 Sys-3 Flr-1 Sch-D HPlcmt-north ZN NECB System 3 PSZ Occ Sch Friday, !- Friday Schedule:Day Name\n   *************   2688   Sp-Bathrooms_ZN_1_FLR_2 Sys-3 Flr-1 Sch-D HPlcmt-north ZN NECB System 3 PSZ Occ Sch Saturday, !- Saturday Schedule:Day Name\n   *************   2689   Sp-Bathrooms_ZN_1_FLR_2 Sys-3 Flr-1 Sch-D HPlcmt-north ZN NECB System 3 PSZ Occ Sch Default, !- Holiday Schedule:Day Name\n   *************   2690   Sp-Bathrooms_ZN_1_FLR_2 Sys-3 Flr-1 Sch-D HPlcmt-north ZN NECB System 3 PSZ Occ Sch Summer Design Day, !- SummerDesignDay Schedule:Day Name\n   ** Warning ** IP: IDF line~2690 Alpha Argument length exceeds maximum, will be truncated=  Sp-Bathrooms_ZN_1_FLR_2 Sys-3 Flr-1 Sch-D HPlcmt-north ZN NECB System 3 PSZ Occ Sch Summer Design Da\n   **   ~~~   ** Will be processed as Alpha=SP-BATHROOMS_ZN_1_FLR_2 SYS-3 FLR-1 SCH-D HPLCMT-NORTH ZN NECB SYSTEM 3 PSZ OCC SCH SUMMER DESIGN DAY\n   ************* IDF Context for following error/warning message:\n   ************* Note -- lines truncated at 300 characters, if necessary...\n   *************   2680 Schedule:Week:Daily,\n   ************* indicated Name=Schedule:Week:Daily {850d57a4-b2f9-4642-880f-05e42666b98f}\n   ************* Only last 10 lines before error line shown.....\n   *************   2682   Sp-Bathrooms_ZN_1_FLR_2 Sys-3 Flr-1 Sch-D HPlcmt-north ZN NECB System 3 PSZ Occ Sch Sunday, !- Sunday Schedule:Day Name\n   *************   2683   Sp-Bathrooms_ZN_1_FLR_2 Sys-3 Flr-1 Sch-D HPlcmt-north ZN NECB System 3 PSZ Occ Sch Monday, !- Monday Schedule:Day Name\n   *************   2684   Sp-Bathrooms_ZN_1_FLR_2 Sys-3 Flr-1 Sch-D HPlcmt-north ZN NECB System 3 PSZ Occ Sch Tuesday, !- Tuesday Schedule:Day Name\n   *************   2685   Sp-Bathrooms_ZN_1_FLR_2 Sys-3 Flr-1 Sch-D HPlcmt-north ZN NECB System 3 PSZ Occ Sch Wednesday, !- Wednesday Schedule:Day Name\n   *************   2686   Sp-Bathrooms_ZN_1_FLR_2 Sys-3 Flr-1 Sch-D HPlcmt-north ZN NECB System 3 PSZ Occ Sch Thursday, !- Thursday Schedule:Day Name\n   *************   2687   Sp-Bathrooms_ZN_1_FLR_2 Sys-3 Flr-1 Sch-D HPlcmt-north ZN NECB System 3 PSZ Occ Sch Friday, !- Friday Schedule:Day Name\n   *************   2688   Sp-Bathrooms_ZN_1_FLR_2 Sys-3 Flr-1 Sch-D HPlcmt-north ZN NECB System 3 PSZ Occ Sch Saturday, !- Saturday Schedule:Day Name\n   *************   2689   Sp-Bathrooms_ZN_1_FLR_2 Sys-3 Flr-1 Sch-D HPlcmt-north ZN NECB System 3 PSZ Occ Sch Default, !- Holiday Schedule:Day Name\n   *************   2690   Sp-Bathrooms_ZN_1_FLR_2 Sys-3 Flr-1 Sch-D HPlcmt-north ZN NECB System 3 PSZ Occ Sch Summer Design Day, !- SummerDesignDay Schedule:Day Name\n   *************   2691   Sp-Bathrooms_ZN_1_FLR_2 Sys-3 Flr-1 Sch-D HPlcmt-north ZN NECB System 3 PSZ Occ Sch Winter Design Day, !- WinterDesignDay Schedule:Day Name\n   ** Warning ** IP: IDF line~2691 Alpha Argument length exceeds maximum, will be truncated=  Sp-Bathrooms_ZN_1_FLR_2 Sys-3 Flr-1 Sch-D HPlcmt-north ZN NECB System 3 PSZ Occ Sch Winter Design Da\n   **   ~~~   ** Will be processed as Alpha=SP-BATHROOMS_ZN_1_FLR_2 SYS-3 FLR-1 SCH-D HPLCMT-NORTH ZN NECB SYSTEM 3 PSZ OCC SCH WINTER DESIGN DAY\n   ************* IDF Context for following error/warning message:\n   ************* Note -- lines truncated at 300 characters, if necessary...\n   *************   2711 Schedule:Day:Interval,\n   ************* indicated Name=Sp-Bathrooms_ZN_1_FLR_2 Sys-3 Flr-1 Sch-D HPlcmt-north ZN NECB System 3 PSZ Occ Sch Summer Design Day\n   ************* Only last 1 lines before error line shown.....\n   *************   2712   Sp-Bathrooms_ZN_1_FLR_2 Sys-3 Flr-1 Sch-D HPlcmt-north ZN NECB System 3 PSZ Occ Sch Summer Design Day, !- Name\n   ** Warning ** IP: IDF line~2712 Alpha Argument length exceeds maximum, will be truncated=  Sp-Bathrooms_ZN_1_FLR_2 Sys-3 Flr-1 Sch-D HPlcmt-north ZN NECB System 3 PSZ Occ Sch Summer Design Da\n   **   ~~~   ** Will be processed as Alpha=SP-BATHROOMS_ZN_1_FLR_2 SYS-3 FLR-1 SCH-D HPLCMT-NORTH ZN NECB SYSTEM 3 PSZ OCC SCH SUMMER DESIGN DAY\n   ************* IDF Context for following error/warning message:\n   ************* Note -- lines truncated at 300 characters, if necessary...\n   *************   2718 Schedule:Day:Interval,\n   ************* indicated Name=Sp-Bathrooms_ZN_1_FLR_2 Sys-3 Flr-1 Sch-D HPlcmt-north ZN NECB System 3 PSZ Occ Sch Winter Design Day\n   ************* Only last 1 lines before error line shown.....\n   *************   2719   Sp-Bathrooms_ZN_1_FLR_2 Sys-3 Flr-1 Sch-D HPlcmt-north ZN NECB System 3 PSZ Occ Sch Winter Design Day, !- Name\n   ** Warning ** IP: IDF line~2719 Alpha Argument length exceeds maximum, will be truncated=  Sp-Bathrooms_ZN_1_FLR_2 Sys-3 Flr-1 Sch-D HPlcmt-north ZN NECB System 3 PSZ Occ Sch Winter Design Da\n   **   ~~~   ** Will be processed as Alpha=SP-BATHROOMS_ZN_1_FLR_2 SYS-3 FLR-1 SCH-D HPLCMT-NORTH ZN NECB SYSTEM 3 PSZ OCC SCH WINTER DESIGN DAY\n   ************* IDF Context for following error/warning message:\n   ************* Note -- lines truncated at 300 characters, if necessary...\n   *************   3379 Schedule:Day:Interval,\n   ************* indicated Name=Sp-Corner_Class_1_Pod_1_ZN_1_FLR_1 Sys-3 Flr-2 Sch-D HPlcmt-south ZN NECB System 3 PSZ Occ Sch Sunday\n   ************* Only last 1 lines before error line shown.....\n   *************   3380   Sp-Corner_Class_1_Pod_1_ZN_1_FLR_1 Sys-3 Flr-2 Sch-D HPlcmt-south ZN NECB System 3 PSZ Occ Sch Sunday, !- Name\n   ** Warning ** IP: IDF line~3380 Alpha Argument length exceeds maximum, will be truncated=  Sp-Corner_Class_1_Pod_1_ZN_1_FLR_1 Sys-3 Flr-2 Sch-D HPlcmt-south ZN NECB System 3 PSZ Occ Sch Sunda\n   **   ~~~   ** Will be processed as Alpha=SP-CORNER_CLASS_1_POD_1_ZN_1_FLR_1 SYS-3 FLR-2 SCH-D HPLCMT-SOUTH ZN NECB SYSTEM 3 PSZ OCC SCH SUNDAY\n   ************* IDF Context for following error/warning message:\n   ************* Note -- lines truncated at 300 characters, if necessary...\n   *************   3386 Schedule:Day:Interval,\n   ************* indicated Name=Sp-Corner_Class_1_Pod_1_ZN_1_FLR_1 Sys-3 Flr-2 Sch-D HPlcmt-south ZN NECB System 3 PSZ Occ Sch Monday\n   ************* Only last 1 lines before error line shown.....\n   *************   3387   Sp-Corner_Class_1_Pod_1_ZN_1_FLR_1 Sys-3 Flr-2 Sch-D HPlcmt-south ZN NECB System 3 PSZ Occ Sch Monday, !- Name\n   ** Warning ** IP: IDF line~3387 Alpha Argument length exceeds maximum, will be truncated=  Sp-Corner_Class_1_Pod_1_ZN_1_FLR_1 Sys-3 Flr-2 Sch-D HPlcmt-south ZN NECB System 3 PSZ Occ Sch Monda\n   **   ~~~   ** Will be processed as Alpha=SP-CORNER_CLASS_1_POD_1_ZN_1_FLR_1 SYS-3 FLR-2 SCH-D HPLCMT-SOUTH ZN NECB SYSTEM 3 PSZ OCC SCH MONDAY\n   ************* IDF Context for following error/warning message:\n   ************* Note -- lines truncated at 300 characters, if necessary...\n   *************   3401 Schedule:Day:Interval,\n   ************* indicated Name=Sp-Corner_Class_1_Pod_1_ZN_1_FLR_1 Sys-3 Flr-2 Sch-D HPlcmt-south ZN NECB System 3 PSZ Occ Sch Tuesday\n   ************* Only last 1 lines before error line shown.....\n   *************   3402   Sp-Corner_Class_1_Pod_1_ZN_1_FLR_1 Sys-3 Flr-2 Sch-D HPlcmt-south ZN NECB System 3 PSZ Occ Sch Tuesday, !- Name\n   ** Warning ** IP: IDF line~3402 Alpha Argument length exceeds maximum, will be truncated=  Sp-Corner_Class_1_Pod_1_ZN_1_FLR_1 Sys-3 Flr-2 Sch-D HPlcmt-south ZN NECB System 3 PSZ Occ Sch Tuesda\n   **   ~~~   ** Will be processed as Alpha=SP-CORNER_CLASS_1_POD_1_ZN_1_FLR_1 SYS-3 FLR-2 SCH-D HPLCMT-SOUTH ZN NECB SYSTEM 3 PSZ OCC SCH TUESDAY\n   ************* IDF Context for following error/warning message:\n   ************* Note -- lines truncated at 300 characters, if necessary...\n   *************   3416 Schedule:Day:Interval,\n   ************* indicated Name=Sp-Corner_Class_1_Pod_1_ZN_1_FLR_1 Sys-3 Flr-2 Sch-D HPlcmt-south ZN NECB System 3 PSZ Occ Sch Wednesday\n   ************* Only last 1 lines before error line shown.....\n   *************   3417   Sp-Corner_Class_1_Pod_1_ZN_1_FLR_1 Sys-3 Flr-2 Sch-D HPlcmt-south ZN NECB System 3 PSZ Occ Sch Wednesday, !- Name\n   ** Warning ** IP: IDF line~3417 Alpha Argument length exceeds maximum, will be truncated=  Sp-Corner_Class_1_Pod_1_ZN_1_FLR_1 Sys-3 Flr-2 Sch-D HPlcmt-south ZN NECB System 3 PSZ Occ Sch Wednesda\n   **   ~~~   ** Will be processed as Alpha=SP-CORNER_CLASS_1_POD_1_ZN_1_FLR_1 SYS-3 FLR-2 SCH-D HPLCMT-SOUTH ZN NECB SYSTEM 3 PSZ OCC SCH WEDNESDAY\n   ************* IDF Context for following error/warning message:\n   ************* Note -- lines truncated at 300 characters, if necessary...\n   *************   3431 Schedule:Day:Interval,\n   ************* indicated Name=Sp-Corner_Class_1_Pod_1_ZN_1_FLR_1 Sys-3 Flr-2 Sch-D HPlcmt-south ZN NECB System 3 PSZ Occ Sch Thursday\n   ************* Only last 1 lines before error line shown.....\n   *************   3432   Sp-Corner_Class_1_Pod_1_ZN_1_FLR_1 Sys-3 Flr-2 Sch-D HPlcmt-south ZN NECB System 3 PSZ Occ Sch Thursday, !- Name\n   ** Warning ** IP: IDF line~3432 Alpha Argument length exceeds maximum, will be truncated=  Sp-Corner_Class_1_Pod_1_ZN_1_FLR_1 Sys-3 Flr-2 Sch-D HPlcmt-south ZN NECB System 3 PSZ Occ Sch Thursda\n   **   ~~~   ** Will be processed as Alpha=SP-CORNER_CLASS_1_POD_1_ZN_1_FLR_1 SYS-3 FLR-2 SCH-D HPLCMT-SOUTH ZN NECB SYSTEM 3 PSZ OCC SCH THURSDAY\n   ************* IDF Context for following error/warning message:\n   ************* Note -- lines truncated at 300 characters, if necessary...\n   *************   3446 Schedule:Day:Interval,\n   ************* indicated Name=Sp-Corner_Class_1_Pod_1_ZN_1_FLR_1 Sys-3 Flr-2 Sch-D HPlcmt-south ZN NECB System 3 PSZ Occ Sch Friday\n   ************* Only last 1 lines before error line shown.....\n   *************   3447   Sp-Corner_Class_1_Pod_1_ZN_1_FLR_1 Sys-3 Flr-2 Sch-D HPlcmt-south ZN NECB System 3 PSZ Occ Sch Friday, !- Name\n   ** Warning ** IP: IDF line~3447 Alpha Argument length exceeds maximum, will be truncated=  Sp-Corner_Class_1_Pod_1_ZN_1_FLR_1 Sys-3 Flr-2 Sch-D HPlcmt-south ZN NECB System 3 PSZ Occ Sch Frida\n   **   ~~~   ** Will be processed as Alpha=SP-CORNER_CLASS_1_POD_1_ZN_1_FLR_1 SYS-3 FLR-2 SCH-D HPLCMT-SOUTH ZN NECB SYSTEM 3 PSZ OCC SCH FRIDAY\n   ************* IDF Context for following error/warning message:\n   ************* Note -- lines truncated at 300 characters, if necessary...\n   *************   3461 Schedule:Day:Interval,\n   ************* indicated Name=Sp-Corner_Class_1_Pod_1_ZN_1_FLR_1 Sys-3 Flr-2 Sch-D HPlcmt-south ZN NECB System 3 PSZ Occ Sch Saturday\n   ************* Only last 1 lines before error line shown.....\n   *************   3462   Sp-Corner_Class_1_Pod_1_ZN_1_FLR_1 Sys-3 Flr-2 Sch-D HPlcmt-south ZN NECB System 3 PSZ Occ Sch Saturday, !- Name\n   ** Warning ** IP: IDF line~3462 Alpha Argument length exceeds maximum, will be truncated=  Sp-Corner_Class_1_Pod_1_ZN_1_FLR_1 Sys-3 Flr-2 Sch-D HPlcmt-south ZN NECB System 3 PSZ Occ Sch Saturda\n   **   ~~~   ** Will be processed as Alpha=SP-CORNER_CLASS_1_POD_1_ZN_1_FLR_1 SYS-3 FLR-2 SCH-D HPLCMT-SOUTH ZN NECB SYSTEM 3 PSZ OCC SCH SATURDAY\n   ************* IDF Context for following error/warning message:\n   ************* Note -- lines truncated at 300 characters, if necessary...\n   *************   3468 Schedule:Week:Daily,\n   ************* indicated Name=Schedule:Week:Daily {72ebce29-9e79-4873-bd73-457ce47fabc4}\n   ************* Only last 2 lines before error line shown.....\n   *************   3469   Schedule:Week:Daily {72ebce29-9e79-4873-bd73-457ce47fabc4}, !- Name\n   *************   3470   Sp-Corner_Class_1_Pod_1_ZN_1_FLR_1 Sys-3 Flr-2 Sch-D HPlcmt-south ZN NECB System 3 PSZ Occ Sch Sunday, !- Sunday Schedule:Day Name\n   ** Warning ** IP: IDF line~3470 Alpha Argument length exceeds maximum, will be truncated=  Sp-Corner_Class_1_Pod_1_ZN_1_FLR_1 Sys-3 Flr-2 Sch-D HPlcmt-south ZN NECB System 3 PSZ Occ Sch Sunda\n   **   ~~~   ** Will be processed as Alpha=SP-CORNER_CLASS_1_POD_1_ZN_1_FLR_1 SYS-3 FLR-2 SCH-D HPLCMT-SOUTH ZN NECB SYSTEM 3 PSZ OCC SCH SUNDAY\n   ************* IDF Context for following error/warning message:\n   ************* Note -- lines truncated at 300 characters, if necessary...\n   *************   3468 Schedule:Week:Daily,\n   ************* indicated Name=Schedule:Week:Daily {72ebce29-9e79-4873-bd73-457ce47fabc4}\n   ************* Only last 3 lines before error line shown.....\n   *************   3469   Schedule:Week:Daily {72ebce29-9e79-4873-bd73-457ce47fabc4}, !- Name\n   *************   3470   Sp-Corner_Class_1_Pod_1_ZN_1_FLR_1 Sys-3 Flr-2 Sch-D HPlcmt-south ZN NECB System 3 PSZ Occ Sch Sunday, !- Sunday Schedule:Day Name\n   *************   3471   Sp-Corner_Class_1_Pod_1_ZN_1_FLR_1 Sys-3 Flr-2 Sch-D HPlcmt-south ZN NECB System 3 PSZ Occ Sch Monday, !- Monday Schedule:Day Name\n   ** Warning ** IP: IDF line~3471 Alpha Argument length exceeds maximum, will be truncated=  Sp-Corner_Class_1_Pod_1_ZN_1_FLR_1 Sys-3 Flr-2 Sch-D HPlcmt-south ZN NECB System 3 PSZ Occ Sch Monda\n   **   ~~~   ** Will be processed as Alpha=SP-CORNER_CLASS_1_POD_1_ZN_1_FLR_1 SYS-3 FLR-2 SCH-D HPLCMT-SOUTH ZN NECB SYSTEM 3 PSZ OCC SCH MONDAY\n   ************* IDF Context for following error/warning message:\n   ************* Note -- lines truncated at 300 characters, if necessary...\n   *************   3468 Schedule:Week:Daily,\n   ************* indicated Name=Schedule:Week:Daily {72ebce29-9e79-4873-bd73-457ce47fabc4}\n   ************* Only last 4 lines before error line shown.....\n   *************   3469   Schedule:Week:Daily {72ebce29-9e79-4873-bd73-457ce47fabc4}, !- Name\n   *************   3470   Sp-Corner_Class_1_Pod_1_ZN_1_FLR_1 Sys-3 Flr-2 Sch-D HPlcmt-south ZN NECB System 3 PSZ Occ Sch Sunday, !- Sunday Schedule:Day Name\n   *************   3471   Sp-Corner_Class_1_Pod_1_ZN_1_FLR_1 Sys-3 Flr-2 Sch-D HPlcmt-south ZN NECB System 3 PSZ Occ Sch Monday, !- Monday Schedule:Day Name\n   *************   3472   Sp-Corner_Class_1_Pod_1_ZN_1_FLR_1 Sys-3 Flr-2 Sch-D HPlcmt-south ZN NECB System 3 PSZ Occ Sch Tuesday, !- Tuesday Schedule:Day Name\n   ** Warning ** IP: IDF line~3472 Alpha Argument length exceeds maximum, will be truncated=  Sp-Corner_Class_1_Pod_1_ZN_1_FLR_1 Sys-3 Flr-2 Sch-D HPlcmt-south ZN NECB System 3 PSZ Occ Sch Tuesda\n   **   ~~~   ** Will be processed as Alpha=SP-CORNER_CLASS_1_POD_1_ZN_1_FLR_1 SYS-3 FLR-2 SCH-D HPLCMT-SOUTH ZN NECB SYSTEM 3 PSZ OCC SCH TUESDAY\n   ************* IDF Context for following error/warning message:\n   ************* Note -- lines truncated at 300 characters, if necessary...\n   *************   3468 Schedule:Week:Daily,\n   ************* indicated Name=Schedule:Week:Daily {72ebce29-9e79-4873-bd73-457ce47fabc4}\n   ************* Only last 5 lines before error line shown.....\n   *************   3469   Schedule:Week:Daily {72ebce29-9e79-4873-bd73-457ce47fabc4}, !- Name\n   *************   3470   Sp-Corner_Class_1_Pod_1_ZN_1_FLR_1 Sys-3 Flr-2 Sch-D HPlcmt-south ZN NECB System 3 PSZ Occ Sch Sunday, !- Sunday Schedule:Day Name\n   *************   3471   Sp-Corner_Class_1_Pod_1_ZN_1_FLR_1 Sys-3 Flr-2 Sch-D HPlcmt-south ZN NECB System 3 PSZ Occ Sch Monday, !- Monday Schedule:Day Name\n   *************   3472   Sp-Corner_Class_1_Pod_1_ZN_1_FLR_1 Sys-3 Flr-2 Sch-D HPlcmt-south ZN NECB System 3 PSZ Occ Sch Tuesday, !- Tuesday Schedule:Day Name\n   *************   3473   Sp-Corner_Class_1_Pod_1_ZN_1_FLR_1 Sys-3 Flr-2 Sch-D HPlcmt-south ZN NECB System 3 PSZ Occ Sch Wednesday, !- Wednesday Schedule:Day Name\n   ** Warning ** IP: IDF line~3473 Alpha Argument length exceeds maximum, will be truncated=  Sp-Corner_Class_1_Pod_1_ZN_1_FLR_1 Sys-3 Flr-2 Sch-D HPlcmt-south ZN NECB System 3 PSZ Occ Sch Wednesda\n   **   ~~~   ** Will be processed as Alpha=SP-CORNER_CLASS_1_POD_1_ZN_1_FLR_1 SYS-3 FLR-2 SCH-D HPLCMT-SOUTH ZN NECB SYSTEM 3 PSZ OCC SCH WEDNESDAY\n   ************* IDF Context for following error/warning message:\n   ************* Note -- lines truncated at 300 characters, if necessary...\n   *************   3468 Schedule:Week:Daily,\n   ************* indicated Name=Schedule:Week:Daily {72ebce29-9e79-4873-bd73-457ce47fabc4}\n   ************* Only last 6 lines before error line shown.....\n   *************   3469   Schedule:Week:Daily {72ebce29-9e79-4873-bd73-457ce47fabc4}, !- Name\n   *************   3470   Sp-Corner_Class_1_Pod_1_ZN_1_FLR_1 Sys-3 Flr-2 Sch-D HPlcmt-south ZN NECB System 3 PSZ Occ Sch Sunday, !- Sunday Schedule:Day Name\n   *************   3471   Sp-Corner_Class_1_Pod_1_ZN_1_FLR_1 Sys-3 Flr-2 Sch-D HPlcmt-south ZN NECB System 3 PSZ Occ Sch Monday, !- Monday Schedule:Day Name\n   *************   3472   Sp-Corner_Class_1_Pod_1_ZN_1_FLR_1 Sys-3 Flr-2 Sch-D HPlcmt-south ZN NECB System 3 PSZ Occ Sch Tuesday, !- Tuesday Schedule:Day Name\n   *************   3473   Sp-Corner_Class_1_Pod_1_ZN_1_FLR_1 Sys-3 Flr-2 Sch-D HPlcmt-south ZN NECB System 3 PSZ Occ Sch Wednesday, !- Wednesday Schedule:Day Name\n   *************   3474   Sp-Corner_Class_1_Pod_1_ZN_1_FLR_1 Sys-3 Flr-2 Sch-D HPlcmt-south ZN NECB System 3 PSZ Occ Sch Thursday, !- Thursday Schedule:Day Name\n   ** Warning ** IP: IDF line~3474 Alpha Argument length exceeds maximum, will be truncated=  Sp-Corner_Class_1_Pod_1_ZN_1_FLR_1 Sys-3 Flr-2 Sch-D HPlcmt-south ZN NECB System 3 PSZ Occ Sch Thursda\n   **   ~~~   ** Will be processed as Alpha=SP-CORNER_CLASS_1_POD_1_ZN_1_FLR_1 SYS-3 FLR-2 SCH-D HPLCMT-SOUTH ZN NECB SYSTEM 3 PSZ OCC SCH THURSDAY\n   ************* IDF Context for following error/warning message:\n   ************* Note -- lines truncated at 300 characters, if necessary...\n   *************   3468 Schedule:Week:Daily,\n   ************* indicated Name=Schedule:Week:Daily {72ebce29-9e79-4873-bd73-457ce47fabc4}\n   ************* Only last 7 lines before error line shown.....\n   *************   3469   Schedule:Week:Daily {72ebce29-9e79-4873-bd73-457ce47fabc4}, !- Name\n   *************   3470   Sp-Corner_Class_1_Pod_1_ZN_1_FLR_1 Sys-3 Flr-2 Sch-D HPlcmt-south ZN NECB System 3 PSZ Occ Sch Sunday, !- Sunday Schedule:Day Name\n   *************   3471   Sp-Corner_Class_1_Pod_1_ZN_1_FLR_1 Sys-3 Flr-2 Sch-D HPlcmt-south ZN NECB System 3 PSZ Occ Sch Monday, !- Monday Schedule:Day Name\n   *************   3472   Sp-Corner_Class_1_Pod_1_ZN_1_FLR_1 Sys-3 Flr-2 Sch-D HPlcmt-south ZN NECB System 3 PSZ Occ Sch Tuesday, !- Tuesday Schedule:Day Name\n   *************   3473   Sp-Corner_Class_1_Pod_1_ZN_1_FLR_1 Sys-3 Flr-2 Sch-D HPlcmt-south ZN NECB System 3 PSZ Occ Sch Wednesday, !- Wednesday Schedule:Day Name\n   *************   3474   Sp-Corner_Class_1_Pod_1_ZN_1_FLR_1 Sys-3 Flr-2 Sch-D HPlcmt-south ZN NECB System 3 PSZ Occ Sch Thursday, !- Thursday Schedule:Day Name\n   *************   3475   Sp-Corner_Class_1_Pod_1_ZN_1_FLR_1 Sys-3 Flr-2 Sch-D HPlcmt-south ZN NECB System 3 PSZ Occ Sch Friday, !- Friday Schedule:Day Name\n   ** Warning ** IP: IDF line~3475 Alpha Argument length exceeds maximum, will be truncated=  Sp-Corner_Class_1_Pod_1_ZN_1_FLR_1 Sys-3 Flr-2 Sch-D HPlcmt-south ZN NECB System 3 PSZ Occ Sch Frida\n   **   ~~~   ** Will be processed as Alpha=SP-CORNER_CLASS_1_POD_1_ZN_1_FLR_1 SYS-3 FLR-2 SCH-D HPLCMT-SOUTH ZN NECB SYSTEM 3 PSZ OCC SCH FRIDAY\n   ************* IDF Context for following error/warning message:\n   ************* Note -- lines truncated at 300 characters, if necessary...\n   *************   3468 Schedule:Week:Daily,\n   ************* indicated Name=Schedule:Week:Daily {72ebce29-9e79-4873-bd73-457ce47fabc4}\n   ************* Only last 8 lines before error line shown.....\n   *************   3469   Schedule:Week:Daily {72ebce29-9e79-4873-bd73-457ce47fabc4}, !- Name\n   *************   3470   Sp-Corner_Class_1_Pod_1_ZN_1_FLR_1 Sys-3 Flr-2 Sch-D HPlcmt-south ZN NECB System 3 PSZ Occ Sch Sunday, !- Sunday Schedule:Day Name\n   *************   3471   Sp-Corner_Class_1_Pod_1_ZN_1_FLR_1 Sys-3 Flr-2 Sch-D HPlcmt-south ZN NECB System 3 PSZ Occ Sch Monday, !- Monday Schedule:Day Name\n   *************   3472   Sp-Corner_Class_1_Pod_1_ZN_1_FLR_1 Sys-3 Flr-2 Sch-D HPlcmt-south ZN NECB System 3 PSZ Occ Sch Tuesday, !- Tuesday Schedule:Day Name\n   *************   3473   Sp-Corner_Class_1_Pod_1_ZN_1_FLR_1 Sys-3 Flr-2 Sch-D HPlcmt-south ZN NECB System 3 PSZ Occ Sch Wednesday, !- Wednesday Schedule:Day Name\n   *************   3474   Sp-Corner_Class_1_Pod_1_ZN_1_FLR_1 Sys-3 Flr-2 Sch-D HPlcmt-south ZN NECB System 3 PSZ Occ Sch Thursday, !- Thursday Schedule:Day Name\n   *************   3475   Sp-Corner_Class_1_Pod_1_ZN_1_FLR_1 Sys-3 Flr-2 Sch-D HPlcmt-south ZN NECB System 3 PSZ Occ Sch Friday, !- Friday Schedule:Day Name\n   *************   3476   Sp-Corner_Class_1_Pod_1_ZN_1_FLR_1 Sys-3 Flr-2 Sch-D HPlcmt-south ZN NECB System 3 PSZ Occ Sch Saturday, !- Saturday Schedule:Day Name\n   ** Warning ** IP: IDF line~3476 Alpha Argument length exceeds maximum, will be truncated=  Sp-Corner_Class_1_Pod_1_ZN_1_FLR_1 Sys-3 Flr-2 Sch-D HPlcmt-south ZN NECB System 3 PSZ Occ Sch Saturda\n   **   ~~~   ** Will be processed as Alpha=SP-CORNER_CLASS_1_POD_1_ZN_1_FLR_1 SYS-3 FLR-2 SCH-D HPLCMT-SOUTH ZN NECB SYSTEM 3 PSZ OCC SCH SATURDAY\n   ************* IDF Context for following error/warning message:\n   ************* Note -- lines truncated at 300 characters, if necessary...\n   *************   3468 Schedule:Week:Daily,\n   ************* indicated Name=Schedule:Week:Daily {72ebce29-9e79-4873-bd73-457ce47fabc4}\n   ************* Only last 9 lines before error line shown.....\n   *************   3469   Schedule:Week:Daily {72ebce29-9e79-4873-bd73-457ce47fabc4}, !- Name\n   *************   3470   Sp-Corner_Class_1_Pod_1_ZN_1_FLR_1 Sys-3 Flr-2 Sch-D HPlcmt-south ZN NECB System 3 PSZ Occ Sch Sunday, !- Sunday Schedule:Day Name\n   *************   3471   Sp-Corner_Class_1_Pod_1_ZN_1_FLR_1 Sys-3 Flr-2 Sch-D HPlcmt-south ZN NECB System 3 PSZ Occ Sch Monday, !- Monday Schedule:Day Name\n   *************   3472   Sp-Corner_Class_1_Pod_1_ZN_1_FLR_1 Sys-3 Flr-2 Sch-D HPlcmt-south ZN NECB System 3 PSZ Occ Sch Tuesday, !- Tuesday Schedule:Day Name\n   *************   3473   Sp-Corner_Class_1_Pod_1_ZN_1_FLR_1 Sys-3 Flr-2 Sch-D HPlcmt-south ZN NECB System 3 PSZ Occ Sch Wednesday, !- Wednesday Schedule:Day Name\n   *************   3474   Sp-Corner_Class_1_Pod_1_ZN_1_FLR_1 Sys-3 Flr-2 Sch-D HPlcmt-south ZN NECB System 3 PSZ Occ Sch Thursday, !- Thursday Schedule:Day Name\n   *************   3475   Sp-Corner_Class_1_Pod_1_ZN_1_FLR_1 Sys-3 Flr-2 Sch-D HPlcmt-south ZN NECB System 3 PSZ Occ Sch Friday, !- Friday Schedule:Day Name\n   *************   3476   Sp-Corner_Class_1_Pod_1_ZN_1_FLR_1 Sys-3 Flr-2 Sch-D HPlcmt-south ZN NECB System 3 PSZ Occ Sch Saturday, !- Saturday Schedule:Day Name\n   *************   3477   Sp-Corner_Class_1_Pod_1_ZN_1_FLR_1 Sys-3 Flr-2 Sch-D HPlcmt-south ZN NECB System 3 PSZ Occ Sch Default, !- Holiday Schedule:Day Name\n   ** Warning ** IP: IDF line~3477 Alpha Argument length exceeds maximum, will be truncated=  Sp-Corner_Class_1_Pod_1_ZN_1_FLR_1 Sys-3 Flr-2 Sch-D HPlcmt-south ZN NECB System 3 PSZ Occ Sch Defaul\n   **   ~~~   ** Will be processed as Alpha=SP-CORNER_CLASS_1_POD_1_ZN_1_FLR_1 SYS-3 FLR-2 SCH-D HPLCMT-SOUTH ZN NECB SYSTEM 3 PSZ OCC SCH DEFAULT\n   ************* IDF Context for following error/warning message:\n   ************* Note -- lines truncated at 300 characters, if necessary...\n   *************   3468 Schedule:Week:Daily,\n   ************* indicated Name=Schedule:Week:Daily {72ebce29-9e79-4873-bd73-457ce47fabc4}\n   ************* Only last 10 lines before error line shown.....\n   *************   3469   Schedule:Week:Daily {72ebce29-9e79-4873-bd73-457ce47fabc4}, !- Name\n   *************   3470   Sp-Corner_Class_1_Pod_1_ZN_1_FLR_1 Sys-3 Flr-2 Sch-D HPlcmt-south ZN NECB System 3 PSZ Occ Sch Sunday, !- Sunday Schedule:Day Name\n   *************   3471   Sp-Corner_Class_1_Pod_1_ZN_1_FLR_1 Sys-3 Flr-2 Sch-D HPlcmt-south ZN NECB System 3 PSZ Occ Sch Monday, !- Monday Schedule:Day Name\n   *************   3472   Sp-Corner_Class_1_Pod_1_ZN_1_FLR_1 Sys-3 Flr-2 Sch-D HPlcmt-south ZN NECB System 3 PSZ Occ Sch Tuesday, !- Tuesday Schedule:Day Name\n   *************   3473   Sp-Corner_Class_1_Pod_1_ZN_1_FLR_1 Sys-3 Flr-2 Sch-D HPlcmt-south ZN NECB System 3 PSZ Occ Sch Wednesday, !- Wednesday Schedule:Day Name\n   *************   3474   Sp-Corner_Class_1_Pod_1_ZN_1_FLR_1 Sys-3 Flr-2 Sch-D HPlcmt-south ZN NECB System 3 PSZ Occ Sch Thursday, !- Thursday Schedule:Day Name\n   *************   3475   Sp-Corner_Class_1_Pod_1_ZN_1_FLR_1 Sys-3 Flr-2 Sch-D HPlcmt-south ZN NECB System 3 PSZ Occ Sch Friday, !- Friday Schedule:Day Name\n   *************   3476   Sp-Corner_Class_1_Pod_1_ZN_1_FLR_1 Sys-3 Flr-2 Sch-D HPlcmt-south ZN NECB System 3 PSZ Occ Sch Saturday, !- Saturday Schedule:Day Name\n   *************   3477   Sp-Corner_Class_1_Pod_1_ZN_1_FLR_1 Sys-3 Flr-2 Sch-D HPlcmt-south ZN NECB System 3 PSZ Occ Sch Default, !- Holiday Schedule:Day Name\n   *************   3478   Sp-Corner_Class_1_Pod_1_ZN_1_FLR_1 Sys-3 Flr-2 Sch-D HPlcmt-south ZN NECB System 3 PSZ Occ Sch Summer Design Day, !- SummerDesignDay Schedule:Day Name\n   ** Warning ** IP: IDF line~3478 Alpha Argument length exceeds maximum, will be truncated=  Sp-Corner_Class_1_Pod_1_ZN_1_FLR_1 Sys-3 Flr-2 Sch-D HPlcmt-south ZN NECB System 3 PSZ Occ Sch Summer Design Da\n   **   ~~~   ** Will be processed as Alpha=SP-CORNER_CLASS_1_POD_1_ZN_1_FLR_1 SYS-3 FLR-2 SCH-D HPLCMT-SOUTH ZN NECB SYSTEM 3 PSZ OCC SCH SUMMER DESIGN DAY\n   ************* IDF Context for following error/warning message:\n   ************* Note -- lines truncated at 300 characters, if necessary...\n   *************   3468 Schedule:Week:Daily,\n   ************* indicated Name=Schedule:Week:Daily {72ebce29-9e79-4873-bd73-457ce47fabc4}\n   ************* Only last 10 lines before error line shown.....\n   *************   3470   Sp-Corner_Class_1_Pod_1_ZN_1_FLR_1 Sys-3 Flr-2 Sch-D HPlcmt-south ZN NECB System 3 PSZ Occ Sch Sunday, !- Sunday Schedule:Day Name\n   *************   3471   Sp-Corner_Class_1_Pod_1_ZN_1_FLR_1 Sys-3 Flr-2 Sch-D HPlcmt-south ZN NECB System 3 PSZ Occ Sch Monday, !- Monday Schedule:Day Name\n   *************   3472   Sp-Corner_Class_1_Pod_1_ZN_1_FLR_1 Sys-3 Flr-2 Sch-D HPlcmt-south ZN NECB System 3 PSZ Occ Sch Tuesday, !- Tuesday Schedule:Day Name\n   *************   3473   Sp-Corner_Class_1_Pod_1_ZN_1_FLR_1 Sys-3 Flr-2 Sch-D HPlcmt-south ZN NECB System 3 PSZ Occ Sch Wednesday, !- Wednesday Schedule:Day Name\n   *************   3474   Sp-Corner_Class_1_Pod_1_ZN_1_FLR_1 Sys-3 Flr-2 Sch-D HPlcmt-south ZN NECB System 3 PSZ Occ Sch Thursday, !- Thursday Schedule:Day Name\n   *************   3475   Sp-Corner_Class_1_Pod_1_ZN_1_FLR_1 Sys-3 Flr-2 Sch-D HPlcmt-south ZN NECB System 3 PSZ Occ Sch Friday, !- Friday Schedule:Day Name\n   *************   3476   Sp-Corner_Class_1_Pod_1_ZN_1_FLR_1 Sys-3 Flr-2 Sch-D HPlcmt-south ZN NECB System 3 PSZ Occ Sch Saturday, !- Saturday Schedule:Day Name\n   *************   3477   Sp-Corner_Class_1_Pod_1_ZN_1_FLR_1 Sys-3 Flr-2 Sch-D HPlcmt-south ZN NECB System 3 PSZ Occ Sch Default, !- Holiday Schedule:Day Name\n   *************   3478   Sp-Corner_Class_1_Pod_1_ZN_1_FLR_1 Sys-3 Flr-2 Sch-D HPlcmt-south ZN NECB System 3 PSZ Occ Sch Summer Design Day, !- SummerDesignDay Schedule:Day Name\n   *************   3479   Sp-Corner_Class_1_Pod_1_ZN_1_FLR_1 Sys-3 Flr-2 Sch-D HPlcmt-south ZN NECB System 3 PSZ Occ Sch Winter Design Day, !- WinterDesignDay Schedule:Day Name\n   ** Warning ** IP: IDF line~3479 Alpha Argument length exceeds maximum, will be truncated=  Sp-Corner_Class_1_Pod_1_ZN_1_FLR_1 Sys-3 Flr-2 Sch-D HPlcmt-south ZN NECB System 3 PSZ Occ Sch Winter Design Da\n   **   ~~~   ** Will be processed as Alpha=SP-CORNER_CLASS_1_POD_1_ZN_1_FLR_1 SYS-3 FLR-2 SCH-D HPLCMT-SOUTH ZN NECB SYSTEM 3 PSZ OCC SCH WINTER DESIGN DAY\n   ************* IDF Context for following error/warning message:\n   ************* Note -- lines truncated at 300 characters, if necessary...\n   *************   3468 Schedule:Week:Daily,\n   ************* indicated Name=Schedule:Week:Daily {72ebce29-9e79-4873-bd73-457ce47fabc4}\n   ************* Only last 10 lines before error line shown.....\n   *************   3471   Sp-Corner_Class_1_Pod_1_ZN_1_FLR_1 Sys-3 Flr-2 Sch-D HPlcmt-south ZN NECB System 3 PSZ Occ Sch Monday, !- Monday Schedule:Day Name\n   *************   3472   Sp-Corner_Class_1_Pod_1_ZN_1_FLR_1 Sys-3 Flr-2 Sch-D HPlcmt-south ZN NECB System 3 PSZ Occ Sch Tuesday, !- Tuesday Schedule:Day Name\n   *************   3473   Sp-Corner_Class_1_Pod_1_ZN_1_FLR_1 Sys-3 Flr-2 Sch-D HPlcmt-south ZN NECB System 3 PSZ Occ Sch Wednesday, !- Wednesday Schedule:Day Name\n   *************   3474   Sp-Corner_Class_1_Pod_1_ZN_1_FLR_1 Sys-3 Flr-2 Sch-D HPlcmt-south ZN NECB System 3 PSZ Occ Sch Thursday, !- Thursday Schedule:Day Name\n   *************   3475   Sp-Corner_Class_1_Pod_1_ZN_1_FLR_1 Sys-3 Flr-2 Sch-D HPlcmt-south ZN NECB System 3 PSZ Occ Sch Friday, !- Friday Schedule:Day Name\n   *************   3476   Sp-Corner_Class_1_Pod_1_ZN_1_FLR_1 Sys-3 Flr-2 Sch-D HPlcmt-south ZN NECB System 3 PSZ Occ Sch Saturday, !- Saturday Schedule:Day Name\n   *************   3477   Sp-Corner_Class_1_Pod_1_ZN_1_FLR_1 Sys-3 Flr-2 Sch-D HPlcmt-south ZN NECB System 3 PSZ Occ Sch Default, !- Holiday Schedule:Day Name\n   *************   3478   Sp-Corner_Class_1_Pod_1_ZN_1_FLR_1 Sys-3 Flr-2 Sch-D HPlcmt-south ZN NECB System 3 PSZ Occ Sch Summer Design Day, !- SummerDesignDay Schedule:Day Name\n   *************   3479   Sp-Corner_Class_1_Pod_1_ZN_1_FLR_1 Sys-3 Flr-2 Sch-D HPlcmt-south ZN NECB System 3 PSZ Occ Sch Winter Design Day, !- WinterDesignDay Schedule:Day Name\n   *************   3480   Sp-Corner_Class_1_Pod_1_ZN_1_FLR_1 Sys-3 Flr-2 Sch-D HPlcmt-south ZN NECB System 3 PSZ Occ Sch Default, !- CustomDay1 Schedule:Day Name\n   ** Warning ** IP: IDF line~3480 Alpha Argument length exceeds maximum, will be truncated=  Sp-Corner_Class_1_Pod_1_ZN_1_FLR_1 Sys-3 Flr-2 Sch-D HPlcmt-south ZN NECB System 3 PSZ Occ Sch Defaul\n   **   ~~~   ** Will be processed as Alpha=SP-CORNER_CLASS_1_POD_1_ZN_1_FLR_1 SYS-3 FLR-2 SCH-D HPLCMT-SOUTH ZN NECB SYSTEM 3 PSZ OCC SCH DEFAULT\n   ************* IDF Context for following error/warning message:\n   ************* Note -- lines truncated at 300 characters, if necessary...\n   *************   3468 Schedule:Week:Daily,\n   ************* indicated Name=Schedule:Week:Daily {72ebce29-9e79-4873-bd73-457ce47fabc4}\n   ************* Only last 10 lines before error line shown.....\n   *************   3472   Sp-Corner_Class_1_Pod_1_ZN_1_FLR_1 Sys-3 Flr-2 Sch-D HPlcmt-south ZN NECB System 3 PSZ Occ Sch Tuesday, !- Tuesday Schedule:Day Name\n   *************   3473   Sp-Corner_Class_1_Pod_1_ZN_1_FLR_1 Sys-3 Flr-2 Sch-D HPlcmt-south ZN NECB System 3 PSZ Occ Sch Wednesday, !- Wednesday Schedule:Day Name\n   *************   3474   Sp-Corner_Class_1_Pod_1_ZN_1_FLR_1 Sys-3 Flr-2 Sch-D HPlcmt-south ZN NECB System 3 PSZ Occ Sch Thursday, !- Thursday Schedule:Day Name\n   *************   3475   Sp-Corner_Class_1_Pod_1_ZN_1_FLR_1 Sys-3 Flr-2 Sch-D HPlcmt-south ZN NECB System 3 PSZ Occ Sch Friday, !- Friday Schedule:Day Name\n   *************   3476   Sp-Corner_Class_1_Pod_1_ZN_1_FLR_1 Sys-3 Flr-2 Sch-D HPlcmt-south ZN NECB System 3 PSZ Occ Sch Saturday, !- Saturday Schedule:Day Name\n   *************   3477   Sp-Corner_Class_1_Pod_1_ZN_1_FLR_1 Sys-3 Flr-2 Sch-D HPlcmt-south ZN NECB System 3 PSZ Occ Sch Default, !- Holiday Schedule:Day Name\n   *************   3478   Sp-Corner_Class_1_Pod_1_ZN_1_FLR_1 Sys-3 Flr-2 Sch-D HPlcmt-south ZN NECB System 3 PSZ Occ Sch Summer Design Day, !- SummerDesignDay Schedule:Day Name\n   *************   3479   Sp-Corner_Class_1_Pod_1_ZN_1_FLR_1 Sys-3 Flr-2 Sch-D HPlcmt-south ZN NECB System 3 PSZ Occ Sch Winter Design Day, !- WinterDesignDay Schedule:Day Name\n   *************   3480   Sp-Corner_Class_1_Pod_1_ZN_1_FLR_1 Sys-3 Flr-2 Sch-D HPlcmt-south ZN NECB System 3 PSZ Occ Sch Default, !- CustomDay1 Schedule:Day Name\n   *************   3481   Sp-Corner_Class_1_Pod_1_ZN_1_FLR_1 Sys-3 Flr-2 Sch-D HPlcmt-south ZN NECB System 3 PSZ Occ Sch Default; !- CustomDay2 Schedule:Day Name\n   ** Warning ** IP: IDF line~3481 Alpha Argument length exceeds maximum, will be truncated=  Sp-Corner_Class_1_Pod_1_ZN_1_FLR_1 Sys-3 Flr-2 Sch-D HPlcmt-south ZN NECB System 3 PSZ Occ Sch Defaul\n   **   ~~~   ** Will be processed as Alpha=SP-CORNER_CLASS_1_POD_1_ZN_1_FLR_1 SYS-3 FLR-2 SCH-D HPLCMT-SOUTH ZN NECB SYSTEM 3 PSZ OCC SCH DEFAULT\n   ************* IDF Context for following error/warning message:\n   ************* Note -- lines truncated at 300 characters, if necessary...\n   *************   3492 Schedule:Day:Interval,\n   ************* indicated Name=Sp-Corner_Class_1_Pod_1_ZN_1_FLR_1 Sys-3 Flr-2 Sch-D HPlcmt-south ZN NECB System 3 PSZ Occ Sch Default\n   ************* Only last 1 lines before error line shown.....\n   *************   3493   Sp-Corner_Class_1_Pod_1_ZN_1_FLR_1 Sys-3 Flr-2 Sch-D HPlcmt-south ZN NECB System 3 PSZ Occ Sch Default, !- Name\n   ** Warning ** IP: IDF line~3493 Alpha Argument length exceeds maximum, will be truncated=  Sp-Corner_Class_1_Pod_1_ZN_1_FLR_1 Sys-3 Flr-2 Sch-D HPlcmt-south ZN NECB System 3 PSZ Occ Sch Defaul\n   **   ~~~   ** Will be processed as Alpha=SP-CORNER_CLASS_1_POD_1_ZN_1_FLR_1 SYS-3 FLR-2 SCH-D HPLCMT-SOUTH ZN NECB SYSTEM 3 PSZ OCC SCH DEFAULT\n   ************* IDF Context for following error/warning message:\n   ************* Note -- lines truncated at 300 characters, if necessary...\n   *************   3499 Schedule:Day:Interval,\n   ************* indicated Name=Sp-Corner_Class_1_Pod_1_ZN_1_FLR_1 Sys-3 Flr-2 Sch-D HPlcmt-south ZN NECB System 3 PSZ Occ Sch Summer Design Day\n   ************* Only last 1 lines before error line shown.....\n   *************   3500   Sp-Corner_Class_1_Pod_1_ZN_1_FLR_1 Sys-3 Flr-2 Sch-D HPlcmt-south ZN NECB System 3 PSZ Occ Sch Summer Design Day, !- Name\n   ** Warning ** IP: IDF line~3500 Alpha Argument length exceeds maximum, will be truncated=  Sp-Corner_Class_1_Pod_1_ZN_1_FLR_1 Sys-3 Flr-2 Sch-D HPlcmt-south ZN NECB System 3 PSZ Occ Sch Summer Design Da\n   **   ~~~   ** Will be processed as Alpha=SP-CORNER_CLASS_1_POD_1_ZN_1_FLR_1 SYS-3 FLR-2 SCH-D HPLCMT-SOUTH ZN NECB SYSTEM 3 PSZ OCC SCH SUMMER DESIGN DAY\n   ************* IDF Context for following error/warning message:\n   ************* Note -- lines truncated at 300 characters, if necessary...\n   *************   3506 Schedule:Day:Interval,\n   ************* indicated Name=Sp-Corner_Class_1_Pod_1_ZN_1_FLR_1 Sys-3 Flr-2 Sch-D HPlcmt-south ZN NECB System 3 PSZ Occ Sch Winter Design Day\n   ************* Only last 1 lines before error line shown.....\n   *************   3507   Sp-Corner_Class_1_Pod_1_ZN_1_FLR_1 Sys-3 Flr-2 Sch-D HPlcmt-south ZN NECB System 3 PSZ Occ Sch Winter Design Day, !- Name\n   ** Warning ** IP: IDF line~3507 Alpha Argument length exceeds maximum, will be truncated=  Sp-Corner_Class_1_Pod_1_ZN_1_FLR_1 Sys-3 Flr-2 Sch-D HPlcmt-south ZN NECB System 3 PSZ Occ Sch Winter Design Da\n   **   ~~~   ** Will be processed as Alpha=SP-CORNER_CLASS_1_POD_1_ZN_1_FLR_1 SYS-3 FLR-2 SCH-D HPLCMT-SOUTH ZN NECB SYSTEM 3 PSZ OCC SCH WINTER DESIGN DAY\n   ************* IDF Context for following error/warning message:\n   ************* Note -- lines truncated at 300 characters, if necessary...\n   *************   3783 Schedule:Day:Interval,\n   ************* indicated Name=Sp-Corner_Class_1_Pod_1_ZN_1_FLR_2 Sys-3 Flr-1 Sch-D HPlcmt-south ZN NECB System 3 PSZ Occ Sch Sunday\n   ************* Only last 1 lines before error line shown.....\n   *************   3784   Sp-Corner_Class_1_Pod_1_ZN_1_FLR_2 Sys-3 Flr-1 Sch-D HPlcmt-south ZN NECB System 3 PSZ Occ Sch Sunday, !- Name\n   ** Warning ** IP: IDF line~3784 Alpha Argument length exceeds maximum, will be truncated=  Sp-Corner_Class_1_Pod_1_ZN_1_FLR_2 Sys-3 Flr-1 Sch-D HPlcmt-south ZN NECB System 3 PSZ Occ Sch Sunda\n   **   ~~~   ** Will be processed as Alpha=SP-CORNER_CLASS_1_POD_1_ZN_1_FLR_2 SYS-3 FLR-1 SCH-D HPLCMT-SOUTH ZN NECB SYSTEM 3 PSZ OCC SCH SUNDAY\n   ************* IDF Context for following error/warning message:\n   ************* Note -- lines truncated at 300 characters, if necessary...\n   *************   3790 Schedule:Day:Interval,\n   ************* indicated Name=Sp-Corner_Class_1_Pod_1_ZN_1_FLR_2 Sys-3 Flr-1 Sch-D HPlcmt-south ZN NECB System 3 PSZ Occ Sch Monday\n   ************* Only last 1 lines before error line shown.....\n   *************   3791   Sp-Corner_Class_1_Pod_1_ZN_1_FLR_2 Sys-3 Flr-1 Sch-D HPlcmt-south ZN NECB System 3 PSZ Occ Sch Monday, !- Name\n   ** Warning ** IP: IDF line~3791 Alpha Argument length exceeds maximum, will be truncated=  Sp-Corner_Class_1_Pod_1_ZN_1_FLR_2 Sys-3 Flr-1 Sch-D HPlcmt-south ZN NECB System 3 PSZ Occ Sch Monda\n   **   ~~~   ** Will be processed as Alpha=SP-CORNER_CLASS_1_POD_1_ZN_1_FLR_2 SYS-3 FLR-1 SCH-D HPLCMT-SOUTH ZN NECB SYSTEM 3 PSZ OCC SCH MONDAY\n   ************* IDF Context for following error/warning message:\n   ************* Note -- lines truncated at 300 characters, if necessary...\n   *************   3805 Schedule:Day:Interval,\n   ************* indicated Name=Sp-Corner_Class_1_Pod_1_ZN_1_FLR_2 Sys-3 Flr-1 Sch-D HPlcmt-south ZN NECB System 3 PSZ Occ Sch Tuesday\n   ************* Only last 1 lines before error line shown.....\n   *************   3806   Sp-Corner_Class_1_Pod_1_ZN_1_FLR_2 Sys-3 Flr-1 Sch-D HPlcmt-south ZN NECB System 3 PSZ Occ Sch Tuesday, !- Name\n   ** Warning ** IP: IDF line~3806 Alpha Argument length exceeds maximum, will be truncated=  Sp-Corner_Class_1_Pod_1_ZN_1_FLR_2 Sys-3 Flr-1 Sch-D HPlcmt-south ZN NECB System 3 PSZ Occ Sch Tuesda\n   **   ~~~   ** Will be processed as Alpha=SP-CORNER_CLASS_1_POD_1_ZN_1_FLR_2 SYS-3 FLR-1 SCH-D HPLCMT-SOUTH ZN NECB SYSTEM 3 PSZ OCC SCH TUESDAY\n   ************* IDF Context for following error/warning message:\n   ************* Note -- lines truncated at 300 characters, if necessary...\n   *************   3820 Schedule:Day:Interval,\n   ************* indicated Name=Sp-Corner_Class_1_Pod_1_ZN_1_FLR_2 Sys-3 Flr-1 Sch-D HPlcmt-south ZN NECB System 3 PSZ Occ Sch Wednesday\n   ************* Only last 1 lines before error line shown.....\n   *************   3821   Sp-Corner_Class_1_Pod_1_ZN_1_FLR_2 Sys-3 Flr-1 Sch-D HPlcmt-south ZN NECB System 3 PSZ Occ Sch Wednesday, !- Name\n   ** Warning ** IP: IDF line~3821 Alpha Argument length exceeds maximum, will be truncated=  Sp-Corner_Class_1_Pod_1_ZN_1_FLR_2 Sys-3 Flr-1 Sch-D HPlcmt-south ZN NECB System 3 PSZ Occ Sch Wednesda\n   **   ~~~   ** Will be processed as Alpha=SP-CORNER_CLASS_1_POD_1_ZN_1_FLR_2 SYS-3 FLR-1 SCH-D HPLCMT-SOUTH ZN NECB SYSTEM 3 PSZ OCC SCH WEDNESDAY\n   ************* IDF Context for following error/warning message:\n   ************* Note -- lines truncated at 300 characters, if necessary...\n   *************   3835 Schedule:Day:Interval,\n   ************* indicated Name=Sp-Corner_Class_1_Pod_1_ZN_1_FLR_2 Sys-3 Flr-1 Sch-D HPlcmt-south ZN NECB System 3 PSZ Occ Sch Thursday\n   ************* Only last 1 lines before error line shown.....\n   *************   3836   Sp-Corner_Class_1_Pod_1_ZN_1_FLR_2 Sys-3 Flr-1 Sch-D HPlcmt-south ZN NECB System 3 PSZ Occ Sch Thursday, !- Name\n   ** Warning ** IP: IDF line~3836 Alpha Argument length exceeds maximum, will be truncated=  Sp-Corner_Class_1_Pod_1_ZN_1_FLR_2 Sys-3 Flr-1 Sch-D HPlcmt-south ZN NECB System 3 PSZ Occ Sch Thursda\n   **   ~~~   ** Will be processed as Alpha=SP-CORNER_CLASS_1_POD_1_ZN_1_FLR_2 SYS-3 FLR-1 SCH-D HPLCMT-SOUTH ZN NECB SYSTEM 3 PSZ OCC SCH THURSDAY\n   ************* IDF Context for following error/warning message:\n   ************* Note -- lines truncated at 300 characters, if necessary...\n   *************   3850 Schedule:Day:Interval,\n   ************* indicated Name=Sp-Corner_Class_1_Pod_1_ZN_1_FLR_2 Sys-3 Flr-1 Sch-D HPlcmt-south ZN NECB System 3 PSZ Occ Sch Friday\n   ************* Only last 1 lines before error line shown.....\n   *************   3851   Sp-Corner_Class_1_Pod_1_ZN_1_FLR_2 Sys-3 Flr-1 Sch-D HPlcmt-south ZN NECB System 3 PSZ Occ Sch Friday, !- Name\n   ** Warning ** IP: IDF line~3851 Alpha Argument length exceeds maximum, will be truncated=  Sp-Corner_Class_1_Pod_1_ZN_1_FLR_2 Sys-3 Flr-1 Sch-D HPlcmt-south ZN NECB System 3 PSZ Occ Sch Frida\n   **   ~~~   ** Will be processed as Alpha=SP-CORNER_CLASS_1_POD_1_ZN_1_FLR_2 SYS-3 FLR-1 SCH-D HPLCMT-SOUTH ZN NECB SYSTEM 3 PSZ OCC SCH FRIDAY\n   ************* IDF Context for following error/warning message:\n   ************* Note -- lines truncated at 300 characters, if necessary...\n   *************   3865 Schedule:Day:Interval,\n   ************* indicated Name=Sp-Corner_Class_1_Pod_1_ZN_1_FLR_2 Sys-3 Flr-1 Sch-D HPlcmt-south ZN NECB System 3 PSZ Occ Sch Saturday\n   ************* Only last 1 lines before error line shown.....\n   *************   3866   Sp-Corner_Class_1_Pod_1_ZN_1_FLR_2 Sys-3 Flr-1 Sch-D HPlcmt-south ZN NECB System 3 PSZ Occ Sch Saturday, !- Name\n   ** Warning ** IP: IDF line~3866 Alpha Argument length exceeds maximum, will be truncated=  Sp-Corner_Class_1_Pod_1_ZN_1_FLR_2 Sys-3 Flr-1 Sch-D HPlcmt-south ZN NECB System 3 PSZ Occ Sch Saturda\n   **   ~~~   ** Will be processed as Alpha=SP-CORNER_CLASS_1_POD_1_ZN_1_FLR_2 SYS-3 FLR-1 SCH-D HPLCMT-SOUTH ZN NECB SYSTEM 3 PSZ OCC SCH SATURDAY\n   ************* IDF Context for following error/warning message:\n   ************* Note -- lines truncated at 300 characters, if necessary...\n   *************   3872 Schedule:Week:Daily,\n   ************* indicated Name=Schedule:Week:Daily {983fbc2e-6df7-4c24-b61d-7a0fe8c46c89}\n   ************* Only last 2 lines before error line shown.....\n   *************   3873   Schedule:Week:Daily {983fbc2e-6df7-4c24-b61d-7a0fe8c46c89}, !- Name\n   *************   3874   Sp-Corner_Class_1_Pod_1_ZN_1_FLR_2 Sys-3 Flr-1 Sch-D HPlcmt-south ZN NECB System 3 PSZ Occ Sch Sunday, !- Sunday Schedule:Day Name\n   ** Warning ** IP: IDF line~3874 Alpha Argument length exceeds maximum, will be truncated=  Sp-Corner_Class_1_Pod_1_ZN_1_FLR_2 Sys-3 Flr-1 Sch-D HPlcmt-south ZN NECB System 3 PSZ Occ Sch Sunda\n   **   ~~~   ** Will be processed as Alpha=SP-CORNER_CLASS_1_POD_1_ZN_1_FLR_2 SYS-3 FLR-1 SCH-D HPLCMT-SOUTH ZN NECB SYSTEM 3 PSZ OCC SCH SUNDAY\n   ************* IDF Context for following error/warning message:\n   ************* Note -- lines truncated at 300 characters, if necessary...\n   *************   3872 Schedule:Week:Daily,\n   ************* indicated Name=Schedule:Week:Daily {983fbc2e-6df7-4c24-b61d-7a0fe8c46c89}\n   ************* Only last 3 lines before error line shown.....\n   *************   3873   Schedule:Week:Daily {983fbc2e-6df7-4c24-b61d-7a0fe8c46c89}, !- Name\n   *************   3874   Sp-Corner_Class_1_Pod_1_ZN_1_FLR_2 Sys-3 Flr-1 Sch-D HPlcmt-south ZN NECB System 3 PSZ Occ Sch Sunday, !- Sunday Schedule:Day Name\n   *************   3875   Sp-Corner_Class_1_Pod_1_ZN_1_FLR_2 Sys-3 Flr-1 Sch-D HPlcmt-south ZN NECB System 3 PSZ Occ Sch Monday, !- Monday Schedule:Day Name\n   ** Warning ** IP: IDF line~3875 Alpha Argument length exceeds maximum, will be truncated=  Sp-Corner_Class_1_Pod_1_ZN_1_FLR_2 Sys-3 Flr-1 Sch-D HPlcmt-south ZN NECB System 3 PSZ Occ Sch Monda\n   **   ~~~   ** Will be processed as Alpha=SP-CORNER_CLASS_1_POD_1_ZN_1_FLR_2 SYS-3 FLR-1 SCH-D HPLCMT-SOUTH ZN NECB SYSTEM 3 PSZ OCC SCH MONDAY\n   ************* IDF Context for following error/warning message:\n   ************* Note -- lines truncated at 300 characters, if necessary...\n   *************   3872 Schedule:Week:Daily,\n   ************* indicated Name=Schedule:Week:Daily {983fbc2e-6df7-4c24-b61d-7a0fe8c46c89}\n   ************* Only last 4 lines before error line shown.....\n   *************   3873   Schedule:Week:Daily {983fbc2e-6df7-4c24-b61d-7a0fe8c46c89}, !- Name\n   *************   3874   Sp-Corner_Class_1_Pod_1_ZN_1_FLR_2 Sys-3 Flr-1 Sch-D HPlcmt-south ZN NECB System 3 PSZ Occ Sch Sunday, !- Sunday Schedule:Day Name\n   *************   3875   Sp-Corner_Class_1_Pod_1_ZN_1_FLR_2 Sys-3 Flr-1 Sch-D HPlcmt-south ZN NECB System 3 PSZ Occ Sch Monday, !- Monday Schedule:Day Name\n   *************   3876   Sp-Corner_Class_1_Pod_1_ZN_1_FLR_2 Sys-3 Flr-1 Sch-D HPlcmt-south ZN NECB System 3 PSZ Occ Sch Tuesday, !- Tuesday Schedule:Day Name\n   ** Warning ** IP: IDF line~3876 Alpha Argument length exceeds maximum, will be truncated=  Sp-Corner_Class_1_Pod_1_ZN_1_FLR_2 Sys-3 Flr-1 Sch-D HPlcmt-south ZN NECB System 3 PSZ Occ Sch Tuesda\n   **   ~~~   ** Will be processed as Alpha=SP-CORNER_CLASS_1_POD_1_ZN_1_FLR_2 SYS-3 FLR-1 SCH-D HPLCMT-SOUTH ZN NECB SYSTEM 3 PSZ OCC SCH TUESDAY\n   ************* IDF Context for following error/warning message:\n   ************* Note -- lines truncated at 300 characters, if necessary...\n   *************   3872 Schedule:Week:Daily,\n   ************* indicated Name=Schedule:Week:Daily {983fbc2e-6df7-4c24-b61d-7a0fe8c46c89}\n   ************* Only last 5 lines before error line shown.....\n   *************   3873   Schedule:Week:Daily {983fbc2e-6df7-4c24-b61d-7a0fe8c46c89}, !- Name\n   *************   3874   Sp-Corner_Class_1_Pod_1_ZN_1_FLR_2 Sys-3 Flr-1 Sch-D HPlcmt-south ZN NECB System 3 PSZ Occ Sch Sunday, !- Sunday Schedule:Day Name\n   *************   3875   Sp-Corner_Class_1_Pod_1_ZN_1_FLR_2 Sys-3 Flr-1 Sch-D HPlcmt-south ZN NECB System 3 PSZ Occ Sch Monday, !- Monday Schedule:Day Name\n   *************   3876   Sp-Corner_Class_1_Pod_1_ZN_1_FLR_2 Sys-3 Flr-1 Sch-D HPlcmt-south ZN NECB System 3 PSZ Occ Sch Tuesday, !- Tuesday Schedule:Day Name\n   *************   3877   Sp-Corner_Class_1_Pod_1_ZN_1_FLR_2 Sys-3 Flr-1 Sch-D HPlcmt-south ZN NECB System 3 PSZ Occ Sch Wednesday, !- Wednesday Schedule:Day Name\n   ** Warning ** IP: IDF line~3877 Alpha Argument length exceeds maximum, will be truncated=  Sp-Corner_Class_1_Pod_1_ZN_1_FLR_2 Sys-3 Flr-1 Sch-D HPlcmt-south ZN NECB System 3 PSZ Occ Sch Wednesda\n   **   ~~~   ** Will be processed as Alpha=SP-CORNER_CLASS_1_POD_1_ZN_1_FLR_2 SYS-3 FLR-1 SCH-D HPLCMT-SOUTH ZN NECB SYSTEM 3 PSZ OCC SCH WEDNESDAY\n   ************* IDF Context for following error/warning message:\n   ************* Note -- lines truncated at 300 characters, if necessary...\n   *************   3872 Schedule:Week:Daily,\n   ************* indicated Name=Schedule:Week:Daily {983fbc2e-6df7-4c24-b61d-7a0fe8c46c89}\n   ************* Only last 6 lines before error line shown.....\n   *************   3873   Schedule:Week:Daily {983fbc2e-6df7-4c24-b61d-7a0fe8c46c89}, !- Name\n   *************   3874   Sp-Corner_Class_1_Pod_1_ZN_1_FLR_2 Sys-3 Flr-1 Sch-D HPlcmt-south ZN NECB System 3 PSZ Occ Sch Sunday, !- Sunday Schedule:Day Name\n   *************   3875   Sp-Corner_Class_1_Pod_1_ZN_1_FLR_2 Sys-3 Flr-1 Sch-D HPlcmt-south ZN NECB System 3 PSZ Occ Sch Monday, !- Monday Schedule:Day Name\n   *************   3876   Sp-Corner_Class_1_Pod_1_ZN_1_FLR_2 Sys-3 Flr-1 Sch-D HPlcmt-south ZN NECB System 3 PSZ Occ Sch Tuesday, !- Tuesday Schedule:Day Name\n   *************   3877   Sp-Corner_Class_1_Pod_1_ZN_1_FLR_2 Sys-3 Flr-1 Sch-D HPlcmt-south ZN NECB System 3 PSZ Occ Sch Wednesday, !- Wednesday Schedule:Day Name\n   *************   3878   Sp-Corner_Class_1_Pod_1_ZN_1_FLR_2 Sys-3 Flr-1 Sch-D HPlcmt-south ZN NECB System 3 PSZ Occ Sch Thursday, !- Thursday Schedule:Day Name\n   ** Warning ** IP: IDF line~3878 Alpha Argument length exceeds maximum, will be truncated=  Sp-Corner_Class_1_Pod_1_ZN_1_FLR_2 Sys-3 Flr-1 Sch-D HPlcmt-south ZN NECB System 3 PSZ Occ Sch Thursda\n   **   ~~~   ** Will be processed as Alpha=SP-CORNER_CLASS_1_POD_1_ZN_1_FLR_2 SYS-3 FLR-1 SCH-D HPLCMT-SOUTH ZN NECB SYSTEM 3 PSZ OCC SCH THURSDAY\n   ************* IDF Context for following error/warning message:\n   ************* Note -- lines truncated at 300 characters, if necessary...\n   *************   3872 Schedule:Week:Daily,\n   ************* indicated Name=Schedule:Week:Daily {983fbc2e-6df7-4c24-b61d-7a0fe8c46c89}\n   ************* Only last 7 lines before error line shown.....\n   *************   3873   Schedule:Week:Daily {983fbc2e-6df7-4c24-b61d-7a0fe8c46c89}, !- Name\n   *************   3874   Sp-Corner_Class_1_Pod_1_ZN_1_FLR_2 Sys-3 Flr-1 Sch-D HPlcmt-south ZN NECB System 3 PSZ Occ Sch Sunday, !- Sunday Schedule:Day Name\n   *************   3875   Sp-Corner_Class_1_Pod_1_ZN_1_FLR_2 Sys-3 Flr-1 Sch-D HPlcmt-south ZN NECB System 3 PSZ Occ Sch Monday, !- Monday Schedule:Day Name\n   *************   3876   Sp-Corner_Class_1_Pod_1_ZN_1_FLR_2 Sys-3 Flr-1 Sch-D HPlcmt-south ZN NECB System 3 PSZ Occ Sch Tuesday, !- Tuesday Schedule:Day Name\n   *************   3877   Sp-Corner_Class_1_Pod_1_ZN_1_FLR_2 Sys-3 Flr-1 Sch-D HPlcmt-south ZN NECB System 3 PSZ Occ Sch Wednesday, !- Wednesday Schedule:Day Name\n   *************   3878   Sp-Corner_Class_1_Pod_1_ZN_1_FLR_2 Sys-3 Flr-1 Sch-D HPlcmt-south ZN NECB System 3 PSZ Occ Sch Thursday, !- Thursday Schedule:Day Name\n   *************   3879   Sp-Corner_Class_1_Pod_1_ZN_1_FLR_2 Sys-3 Flr-1 Sch-D HPlcmt-south ZN NECB System 3 PSZ Occ Sch Friday, !- Friday Schedule:Day Name\n   ** Warning ** IP: IDF line~3879 Alpha Argument length exceeds maximum, will be truncated=  Sp-Corner_Class_1_Pod_1_ZN_1_FLR_2 Sys-3 Flr-1 Sch-D HPlcmt-south ZN NECB System 3 PSZ Occ Sch Frida\n   **   ~~~   ** Will be processed as Alpha=SP-CORNER_CLASS_1_POD_1_ZN_1_FLR_2 SYS-3 FLR-1 SCH-D HPLCMT-SOUTH ZN NECB SYSTEM 3 PSZ OCC SCH FRIDAY\n   ************* IDF Context for following error/warning message:\n   ************* Note -- lines truncated at 300 characters, if necessary...\n   *************   3872 Schedule:Week:Daily,\n   ************* indicated Name=Schedule:Week:Daily {983fbc2e-6df7-4c24-b61d-7a0fe8c46c89}\n   ************* Only last 8 lines before error line shown.....\n   *************   3873   Schedule:Week:Daily {983fbc2e-6df7-4c24-b61d-7a0fe8c46c89}, !- Name\n   *************   3874   Sp-Corner_Class_1_Pod_1_ZN_1_FLR_2 Sys-3 Flr-1 Sch-D HPlcmt-south ZN NECB System 3 PSZ Occ Sch Sunday, !- Sunday Schedule:Day Name\n   *************   3875   Sp-Corner_Class_1_Pod_1_ZN_1_FLR_2 Sys-3 Flr-1 Sch-D HPlcmt-south ZN NECB System 3 PSZ Occ Sch Monday, !- Monday Schedule:Day Name\n   *************   3876   Sp-Corner_Class_1_Pod_1_ZN_1_FLR_2 Sys-3 Flr-1 Sch-D HPlcmt-south ZN NECB System 3 PSZ Occ Sch Tuesday, !- Tuesday Schedule:Day Name\n   *************   3877   Sp-Corner_Class_1_Pod_1_ZN_1_FLR_2 Sys-3 Flr-1 Sch-D HPlcmt-south ZN NECB System 3 PSZ Occ Sch Wednesday, !- Wednesday Schedule:Day Name\n   *************   3878   Sp-Corner_Class_1_Pod_1_ZN_1_FLR_2 Sys-3 Flr-1 Sch-D HPlcmt-south ZN NECB System 3 PSZ Occ Sch Thursday, !- Thursday Schedule:Day Name\n   *************   3879   Sp-Corner_Class_1_Pod_1_ZN_1_FLR_2 Sys-3 Flr-1 Sch-D HPlcmt-south ZN NECB System 3 PSZ Occ Sch Friday, !- Friday Schedule:Day Name\n   *************   3880   Sp-Corner_Class_1_Pod_1_ZN_1_FLR_2 Sys-3 Flr-1 Sch-D HPlcmt-south ZN NECB System 3 PSZ Occ Sch Saturday, !- Saturday Schedule:Day Name\n   ** Warning ** IP: IDF line~3880 Alpha Argument length exceeds maximum, will be truncated=  Sp-Corner_Class_1_Pod_1_ZN_1_FLR_2 Sys-3 Flr-1 Sch-D HPlcmt-south ZN NECB System 3 PSZ Occ Sch Saturda\n   **   ~~~   ** Will be processed as Alpha=SP-CORNER_CLASS_1_POD_1_ZN_1_FLR_2 SYS-3 FLR-1 SCH-D HPLCMT-SOUTH ZN NECB SYSTEM 3 PSZ OCC SCH SATURDAY\n   ************* IDF Context for following error/warning message:\n   ************* Note -- lines truncated at 300 characters, if necessary...\n   *************   3872 Schedule:Week:Daily,\n   ************* indicated Name=Schedule:Week:Daily {983fbc2e-6df7-4c24-b61d-7a0fe8c46c89}\n   ************* Only last 9 lines before error line shown.....\n   *************   3873   Schedule:Week:Daily {983fbc2e-6df7-4c24-b61d-7a0fe8c46c89}, !- Name\n   *************   3874   Sp-Corner_Class_1_Pod_1_ZN_1_FLR_2 Sys-3 Flr-1 Sch-D HPlcmt-south ZN NECB System 3 PSZ Occ Sch Sunday, !- Sunday Schedule:Day Name\n   *************   3875   Sp-Corner_Class_1_Pod_1_ZN_1_FLR_2 Sys-3 Flr-1 Sch-D HPlcmt-south ZN NECB System 3 PSZ Occ Sch Monday, !- Monday Schedule:Day Name\n   *************   3876   Sp-Corner_Class_1_Pod_1_ZN_1_FLR_2 Sys-3 Flr-1 Sch-D HPlcmt-south ZN NECB System 3 PSZ Occ Sch Tuesday, !- Tuesday Schedule:Day Name\n   *************   3877   Sp-Corner_Class_1_Pod_1_ZN_1_FLR_2 Sys-3 Flr-1 Sch-D HPlcmt-south ZN NECB System 3 PSZ Occ Sch Wednesday, !- Wednesday Schedule:Day Name\n   *************   3878   Sp-Corner_Class_1_Pod_1_ZN_1_FLR_2 Sys-3 Flr-1 Sch-D HPlcmt-south ZN NECB System 3 PSZ Occ Sch Thursday, !- Thursday Schedule:Day Name\n   *************   3879   Sp-Corner_Class_1_Pod_1_ZN_1_FLR_2 Sys-3 Flr-1 Sch-D HPlcmt-south ZN NECB System 3 PSZ Occ Sch Friday, !- Friday Schedule:Day Name\n   *************   3880   Sp-Corner_Class_1_Pod_1_ZN_1_FLR_2 Sys-3 Flr-1 Sch-D HPlcmt-south ZN NECB System 3 PSZ Occ Sch Saturday, !- Saturday Schedule:Day Name\n   *************   3881   Sp-Corner_Class_1_Pod_1_ZN_1_FLR_2 Sys-3 Flr-1 Sch-D HPlcmt-south ZN NECB System 3 PSZ Occ Sch Default, !- Holiday Schedule:Day Name\n   ** Warning ** IP: IDF line~3881 Alpha Argument length exceeds maximum, will be truncated=  Sp-Corner_Class_1_Pod_1_ZN_1_FLR_2 Sys-3 Flr-1 Sch-D HPlcmt-south ZN NECB System 3 PSZ Occ Sch Defaul\n   **   ~~~   ** Will be processed as Alpha=SP-CORNER_CLASS_1_POD_1_ZN_1_FLR_2 SYS-3 FLR-1 SCH-D HPLCMT-SOUTH ZN NECB SYSTEM 3 PSZ OCC SCH DEFAULT\n   ************* IDF Context for following error/warning message:\n   ************* Note -- lines truncated at 300 characters, if necessary...\n   *************   3872 Schedule:Week:Daily,\n   ************* indicated Name=Schedule:Week:Daily {983fbc2e-6df7-4c24-b61d-7a0fe8c46c89}\n   ************* Only last 10 lines before error line shown.....\n   *************   3873   Schedule:Week:Daily {983fbc2e-6df7-4c24-b61d-7a0fe8c46c89}, !- Name\n   *************   3874   Sp-Corner_Class_1_Pod_1_ZN_1_FLR_2 Sys-3 Flr-1 Sch-D HPlcmt-south ZN NECB System 3 PSZ Occ Sch Sunday, !- Sunday Schedule:Day Name\n   *************   3875   Sp-Corner_Class_1_Pod_1_ZN_1_FLR_2 Sys-3 Flr-1 Sch-D HPlcmt-south ZN NECB System 3 PSZ Occ Sch Monday, !- Monday Schedule:Day Name\n   *************   3876   Sp-Corner_Class_1_Pod_1_ZN_1_FLR_2 Sys-3 Flr-1 Sch-D HPlcmt-south ZN NECB System 3 PSZ Occ Sch Tuesday, !- Tuesday Schedule:Day Name\n   *************   3877   Sp-Corner_Class_1_Pod_1_ZN_1_FLR_2 Sys-3 Flr-1 Sch-D HPlcmt-south ZN NECB System 3 PSZ Occ Sch Wednesday, !- Wednesday Schedule:Day Name\n   *************   3878   Sp-Corner_Class_1_Pod_1_ZN_1_FLR_2 Sys-3 Flr-1 Sch-D HPlcmt-south ZN NECB System 3 PSZ Occ Sch Thursday, !- Thursday Schedule:Day Name\n   *************   3879   Sp-Corner_Class_1_Pod_1_ZN_1_FLR_2 Sys-3 Flr-1 Sch-D HPlcmt-south ZN NECB System 3 PSZ Occ Sch Friday, !- Friday Schedule:Day Name\n   *************   3880   Sp-Corner_Class_1_Pod_1_ZN_1_FLR_2 Sys-3 Flr-1 Sch-D HPlcmt-south ZN NECB System 3 PSZ Occ Sch Saturday, !- Saturday Schedule:Day Name\n   *************   3881   Sp-Corner_Class_1_Pod_1_ZN_1_FLR_2 Sys-3 Flr-1 Sch-D HPlcmt-south ZN NECB System 3 PSZ Occ Sch Default, !- Holiday Schedule:Day Name\n   *************   3882   Sp-Corner_Class_1_Pod_1_ZN_1_FLR_2 Sys-3 Flr-1 Sch-D HPlcmt-south ZN NECB System 3 PSZ Occ Sch Summer Design Day, !- SummerDesignDay Schedule:Day Name\n   ** Warning ** IP: IDF line~3882 Alpha Argument length exceeds maximum, will be truncated=  Sp-Corner_Class_1_Pod_1_ZN_1_FLR_2 Sys-3 Flr-1 Sch-D HPlcmt-south ZN NECB System 3 PSZ Occ Sch Summer Design Da\n   **   ~~~   ** Will be processed as Alpha=SP-CORNER_CLASS_1_POD_1_ZN_1_FLR_2 SYS-3 FLR-1 SCH-D HPLCMT-SOUTH ZN NECB SYSTEM 3 PSZ OCC SCH SUMMER DESIGN DAY\n   ************* IDF Context for following error/warning message:\n   ************* Note -- lines truncated at 300 characters, if necessary...\n   *************   3872 Schedule:Week:Daily,\n   ************* indicated Name=Schedule:Week:Daily {983fbc2e-6df7-4c24-b61d-7a0fe8c46c89}\n   ************* Only last 10 lines before error line shown.....\n   *************   3874   Sp-Corner_Class_1_Pod_1_ZN_1_FLR_2 Sys-3 Flr-1 Sch-D HPlcmt-south ZN NECB System 3 PSZ Occ Sch Sunday, !- Sunday Schedule:Day Name\n   *************   3875   Sp-Corner_Class_1_Pod_1_ZN_1_FLR_2 Sys-3 Flr-1 Sch-D HPlcmt-south ZN NECB System 3 PSZ Occ Sch Monday, !- Monday Schedule:Day Name\n   *************   3876   Sp-Corner_Class_1_Pod_1_ZN_1_FLR_2 Sys-3 Flr-1 Sch-D HPlcmt-south ZN NECB System 3 PSZ Occ Sch Tuesday, !- Tuesday Schedule:Day Name\n   *************   3877   Sp-Corner_Class_1_Pod_1_ZN_1_FLR_2 Sys-3 Flr-1 Sch-D HPlcmt-south ZN NECB System 3 PSZ Occ Sch Wednesday, !- Wednesday Schedule:Day Name\n   *************   3878   Sp-Corner_Class_1_Pod_1_ZN_1_FLR_2 Sys-3 Flr-1 Sch-D HPlcmt-south ZN NECB System 3 PSZ Occ Sch Thursday, !- Thursday Schedule:Day Name\n   *************   3879   Sp-Corner_Class_1_Pod_1_ZN_1_FLR_2 Sys-3 Flr-1 Sch-D HPlcmt-south ZN NECB System 3 PSZ Occ Sch Friday, !- Friday Schedule:Day Name\n   *************   3880   Sp-Corner_Class_1_Pod_1_ZN_1_FLR_2 Sys-3 Flr-1 Sch-D HPlcmt-south ZN NECB System 3 PSZ Occ Sch Saturday, !- Saturday Schedule:Day Name\n   *************   3881   Sp-Corner_Class_1_Pod_1_ZN_1_FLR_2 Sys-3 Flr-1 Sch-D HPlcmt-south ZN NECB System 3 PSZ Occ Sch Default, !- Holiday Schedule:Day Name\n   *************   3882   Sp-Corner_Class_1_Pod_1_ZN_1_FLR_2 Sys-3 Flr-1 Sch-D HPlcmt-south ZN NECB System 3 PSZ Occ Sch Summer Design Day, !- SummerDesignDay Schedule:Day Name\n   *************   3883   Sp-Corner_Class_1_Pod_1_ZN_1_FLR_2 Sys-3 Flr-1 Sch-D HPlcmt-south ZN NECB System 3 PSZ Occ Sch Winter Design Day, !- WinterDesignDay Schedule:Day Name\n   ** Warning ** IP: IDF line~3883 Alpha Argument length exceeds maximum, will be truncated=  Sp-Corner_Class_1_Pod_1_ZN_1_FLR_2 Sys-3 Flr-1 Sch-D HPlcmt-south ZN NECB System 3 PSZ Occ Sch Winter Design Da\n   **   ~~~   ** Will be processed as Alpha=SP-CORNER_CLASS_1_POD_1_ZN_1_FLR_2 SYS-3 FLR-1 SCH-D HPLCMT-SOUTH ZN NECB SYSTEM 3 PSZ OCC SCH WINTER DESIGN DAY\n   ************* IDF Context for following error/warning message:\n   ************* Note -- lines truncated at 300 characters, if necessary...\n   *************   3872 Schedule:Week:Daily,\n   ************* indicated Name=Schedule:Week:Daily {983fbc2e-6df7-4c24-b61d-7a0fe8c46c89}\n   ************* Only last 10 lines before error line shown.....\n   *************   3875   Sp-Corner_Class_1_Pod_1_ZN_1_FLR_2 Sys-3 Flr-1 Sch-D HPlcmt-south ZN NECB System 3 PSZ Occ Sch Monday, !- Monday Schedule:Day Name\n   *************   3876   Sp-Corner_Class_1_Pod_1_ZN_1_FLR_2 Sys-3 Flr-1 Sch-D HPlcmt-south ZN NECB System 3 PSZ Occ Sch Tuesday, !- Tuesday Schedule:Day Name\n   *************   3877   Sp-Corner_Class_1_Pod_1_ZN_1_FLR_2 Sys-3 Flr-1 Sch-D HPlcmt-south ZN NECB System 3 PSZ Occ Sch Wednesday, !- Wednesday Schedule:Day Name\n   *************   3878   Sp-Corner_Class_1_Pod_1_ZN_1_FLR_2 Sys-3 Flr-1 Sch-D HPlcmt-south ZN NECB System 3 PSZ Occ Sch Thursday, !- Thursday Schedule:Day Name\n   *************   3879   Sp-Corner_Class_1_Pod_1_ZN_1_FLR_2 Sys-3 Flr-1 Sch-D HPlcmt-south ZN NECB System 3 PSZ Occ Sch Friday, !- Friday Schedule:Day Name\n   *************   3880   Sp-Corner_Class_1_Pod_1_ZN_1_FLR_2 Sys-3 Flr-1 Sch-D HPlcmt-south ZN NECB System 3 PSZ Occ Sch Saturday, !- Saturday Schedule:Day Name\n   *************   3881   Sp-Corner_Class_1_Pod_1_ZN_1_FLR_2 Sys-3 Flr-1 Sch-D HPlcmt-south ZN NECB System 3 PSZ Occ Sch Default, !- Holiday Schedule:Day Name\n   *************   3882   Sp-Corner_Class_1_Pod_1_ZN_1_FLR_2 Sys-3 Flr-1 Sch-D HPlcmt-south ZN NECB System 3 PSZ Occ Sch Summer Design Day, !- SummerDesignDay Schedule:Day Name\n   *************   3883   Sp-Corner_Class_1_Pod_1_ZN_1_FLR_2 Sys-3 Flr-1 Sch-D HPlcmt-south ZN NECB System 3 PSZ Occ Sch Winter Design Day, !- WinterDesignDay Schedule:Day Name\n   *************   3884   Sp-Corner_Class_1_Pod_1_ZN_1_FLR_2 Sys-3 Flr-1 Sch-D HPlcmt-south ZN NECB System 3 PSZ Occ Sch Default, !- CustomDay1 Schedule:Day Name\n   ** Warning ** IP: IDF line~3884 Alpha Argument length exceeds maximum, will be truncated=  Sp-Corner_Class_1_Pod_1_ZN_1_FLR_2 Sys-3 Flr-1 Sch-D HPlcmt-south ZN NECB System 3 PSZ Occ Sch Defaul\n   **   ~~~   ** Will be processed as Alpha=SP-CORNER_CLASS_1_POD_1_ZN_1_FLR_2 SYS-3 FLR-1 SCH-D HPLCMT-SOUTH ZN NECB SYSTEM 3 PSZ OCC SCH DEFAULT\n   ************* IDF Context for following error/warning message:\n   ************* Note -- lines truncated at 300 characters, if necessary...\n   *************   3872 Schedule:Week:Daily,\n   ************* indicated Name=Schedule:Week:Daily {983fbc2e-6df7-4c24-b61d-7a0fe8c46c89}\n   ************* Only last 10 lines before error line shown.....\n   *************   3876   Sp-Corner_Class_1_Pod_1_ZN_1_FLR_2 Sys-3 Flr-1 Sch-D HPlcmt-south ZN NECB System 3 PSZ Occ Sch Tuesday, !- Tuesday Schedule:Day Name\n   *************   3877   Sp-Corner_Class_1_Pod_1_ZN_1_FLR_2 Sys-3 Flr-1 Sch-D HPlcmt-south ZN NECB System 3 PSZ Occ Sch Wednesday, !- Wednesday Schedule:Day Name\n   *************   3878   Sp-Corner_Class_1_Pod_1_ZN_1_FLR_2 Sys-3 Flr-1 Sch-D HPlcmt-south ZN NECB System 3 PSZ Occ Sch Thursday, !- Thursday Schedule:Day Name\n   *************   3879   Sp-Corner_Class_1_Pod_1_ZN_1_FLR_2 Sys-3 Flr-1 Sch-D HPlcmt-south ZN NECB System 3 PSZ Occ Sch Friday, !- Friday Schedule:Day Name\n   *************   3880   Sp-Corner_Class_1_Pod_1_ZN_1_FLR_2 Sys-3 Flr-1 Sch-D HPlcmt-south ZN NECB System 3 PSZ Occ Sch Saturday, !- Saturday Schedule:Day Name\n   *************   3881   Sp-Corner_Class_1_Pod_1_ZN_1_FLR_2 Sys-3 Flr-1 Sch-D HPlcmt-south ZN NECB System 3 PSZ Occ Sch Default, !- Holiday Schedule:Day Name\n   *************   3882   Sp-Corner_Class_1_Pod_1_ZN_1_FLR_2 Sys-3 Flr-1 Sch-D HPlcmt-south ZN NECB System 3 PSZ Occ Sch Summer Design Day, !- SummerDesignDay Schedule:Day Name\n   *************   3883   Sp-Corner_Class_1_Pod_1_ZN_1_FLR_2 Sys-3 Flr-1 Sch-D HPlcmt-south ZN NECB System 3 PSZ Occ Sch Winter Design Day, !- WinterDesignDay Schedule:Day Name\n   *************   3884   Sp-Corner_Class_1_Pod_1_ZN_1_FLR_2 Sys-3 Flr-1 Sch-D HPlcmt-south ZN NECB System 3 PSZ Occ Sch Default, !- CustomDay1 Schedule:Day Name\n   *************   3885   Sp-Corner_Class_1_Pod_1_ZN_1_FLR_2 Sys-3 Flr-1 Sch-D HPlcmt-south ZN NECB System 3 PSZ Occ Sch Default; !- CustomDay2 Schedule:Day Name\n   ** Warning ** IP: IDF line~3885 Alpha Argument length exceeds maximum, will be truncated=  Sp-Corner_Class_1_Pod_1_ZN_1_FLR_2 Sys-3 Flr-1 Sch-D HPlcmt-south ZN NECB System 3 PSZ Occ Sch Defaul\n   **   ~~~   ** Will be processed as Alpha=SP-CORNER_CLASS_1_POD_1_ZN_1_FLR_2 SYS-3 FLR-1 SCH-D HPLCMT-SOUTH ZN NECB SYSTEM 3 PSZ OCC SCH DEFAULT\n   ************* IDF Context for following error/warning message:\n   ************* Note -- lines truncated at 300 characters, if necessary...\n   *************   3896 Schedule:Day:Interval,\n   ************* indicated Name=Sp-Corner_Class_1_Pod_1_ZN_1_FLR_2 Sys-3 Flr-1 Sch-D HPlcmt-south ZN NECB System 3 PSZ Occ Sch Default\n   ************* Only last 1 lines before error line shown.....\n   *************   3897   Sp-Corner_Class_1_Pod_1_ZN_1_FLR_2 Sys-3 Flr-1 Sch-D HPlcmt-south ZN NECB System 3 PSZ Occ Sch Default, !- Name\n   ** Warning ** IP: IDF line~3897 Alpha Argument length exceeds maximum, will be truncated=  Sp-Corner_Class_1_Pod_1_ZN_1_FLR_2 Sys-3 Flr-1 Sch-D HPlcmt-south ZN NECB System 3 PSZ Occ Sch Defaul\n   **   ~~~   ** Will be processed as Alpha=SP-CORNER_CLASS_1_POD_1_ZN_1_FLR_2 SYS-3 FLR-1 SCH-D HPLCMT-SOUTH ZN NECB SYSTEM 3 PSZ OCC SCH DEFAULT\n   ************* IDF Context for following error/warning message:\n   ************* Note -- lines truncated at 300 characters, if necessary...\n   *************   3903 Schedule:Day:Interval,\n   ************* indicated Name=Sp-Corner_Class_1_Pod_1_ZN_1_FLR_2 Sys-3 Flr-1 Sch-D HPlcmt-south ZN NECB System 3 PSZ Occ Sch Summer Design Day\n   ************* Only last 1 lines before error line shown.....\n   *************   3904   Sp-Corner_Class_1_Pod_1_ZN_1_FLR_2 Sys-3 Flr-1 Sch-D HPlcmt-south ZN NECB System 3 PSZ Occ Sch Summer Design Day, !- Name\n   ** Warning ** IP: IDF line~3904 Alpha Argument length exceeds maximum, will be truncated=  Sp-Corner_Class_1_Pod_1_ZN_1_FLR_2 Sys-3 Flr-1 Sch-D HPlcmt-south ZN NECB System 3 PSZ Occ Sch Summer Design Da\n   **   ~~~   ** Will be processed as Alpha=SP-CORNER_CLASS_1_POD_1_ZN_1_FLR_2 SYS-3 FLR-1 SCH-D HPLCMT-SOUTH ZN NECB SYSTEM 3 PSZ OCC SCH SUMMER DESIGN DAY\n   ************* IDF Context for following error/warning message:\n   ************* Note -- lines truncated at 300 characters, if necessary...\n   *************   3910 Schedule:Day:Interval,\n   ************* indicated Name=Sp-Corner_Class_1_Pod_1_ZN_1_FLR_2 Sys-3 Flr-1 Sch-D HPlcmt-south ZN NECB System 3 PSZ Occ Sch Winter Design Day\n   ************* Only last 1 lines before error line shown.....\n   *************   3911   Sp-Corner_Class_1_Pod_1_ZN_1_FLR_2 Sys-3 Flr-1 Sch-D HPlcmt-south ZN NECB System 3 PSZ Occ Sch Winter Design Day, !- Name\n   ** Warning ** IP: IDF line~3911 Alpha Argument length exceeds maximum, will be truncated=  Sp-Corner_Class_1_Pod_1_ZN_1_FLR_2 Sys-3 Flr-1 Sch-D HPlcmt-south ZN NECB System 3 PSZ Occ Sch Winter Design Da\n   **   ~~~   ** Will be processed as Alpha=SP-CORNER_CLASS_1_POD_1_ZN_1_FLR_2 SYS-3 FLR-1 SCH-D HPLCMT-SOUTH ZN NECB SYSTEM 3 PSZ OCC SCH WINTER DESIGN DAY\n   ************* IDF Context for following error/warning message:\n   ************* Note -- lines truncated at 300 characters, if necessary...\n   *************   4179 Schedule:Day:Interval,\n   ************* indicated Name=Sp-Corner_Class_1_Pod_2_ZN_1_FLR_1 Sys-3 Flr-2 Sch-D HPlcmt-south ZN NECB System 3 PSZ Occ Sch Sunday\n   ************* Only last 1 lines before error line shown.....\n   *************   4180   Sp-Corner_Class_1_Pod_2_ZN_1_FLR_1 Sys-3 Flr-2 Sch-D HPlcmt-south ZN NECB System 3 PSZ Occ Sch Sunday, !- Name\n   ** Warning ** IP: IDF line~4180 Alpha Argument length exceeds maximum, will be truncated=  Sp-Corner_Class_1_Pod_2_ZN_1_FLR_1 Sys-3 Flr-2 Sch-D HPlcmt-south ZN NECB System 3 PSZ Occ Sch Sunda\n   **   ~~~   ** Will be processed as Alpha=SP-CORNER_CLASS_1_POD_2_ZN_1_FLR_1 SYS-3 FLR-2 SCH-D HPLCMT-SOUTH ZN NECB SYSTEM 3 PSZ OCC SCH SUNDAY\n   ************* IDF Context for following error/warning message:\n   ************* Note -- lines truncated at 300 characters, if necessary...\n   *************   4186 Schedule:Day:Interval,\n   ************* indicated Name=Sp-Corner_Class_1_Pod_2_ZN_1_FLR_1 Sys-3 Flr-2 Sch-D HPlcmt-south ZN NECB System 3 PSZ Occ Sch Monday\n   ************* Only last 1 lines before error line shown.....\n   *************   4187   Sp-Corner_Class_1_Pod_2_ZN_1_FLR_1 Sys-3 Flr-2 Sch-D HPlcmt-south ZN NECB System 3 PSZ Occ Sch Monday, !- Name\n   ** Warning ** IP: IDF line~4187 Alpha Argument length exceeds maximum, will be truncated=  Sp-Corner_Class_1_Pod_2_ZN_1_FLR_1 Sys-3 Flr-2 Sch-D HPlcmt-south ZN NECB System 3 PSZ Occ Sch Monda\n   **   ~~~   ** Will be processed as Alpha=SP-CORNER_CLASS_1_POD_2_ZN_1_FLR_1 SYS-3 FLR-2 SCH-D HPLCMT-SOUTH ZN NECB SYSTEM 3 PSZ OCC SCH MONDAY\n   ************* IDF Context for following error/warning message:\n   ************* Note -- lines truncated at 300 characters, if necessary...\n   *************   4201 Schedule:Day:Interval,\n   ************* indicated Name=Sp-Corner_Class_1_Pod_2_ZN_1_FLR_1 Sys-3 Flr-2 Sch-D HPlcmt-south ZN NECB System 3 PSZ Occ Sch Tuesday\n   ************* Only last 1 lines before error line shown.....\n   *************   4202   Sp-Corner_Class_1_Pod_2_ZN_1_FLR_1 Sys-3 Flr-2 Sch-D HPlcmt-south ZN NECB System 3 PSZ Occ Sch Tuesday, !- Name\n   ** Warning ** IP: IDF line~4202 Alpha Argument length exceeds maximum, will be truncated=  Sp-Corner_Class_1_Pod_2_ZN_1_FLR_1 Sys-3 Flr-2 Sch-D HPlcmt-south ZN NECB System 3 PSZ Occ Sch Tuesda\n   **   ~~~   ** Will be processed as Alpha=SP-CORNER_CLASS_1_POD_2_ZN_1_FLR_1 SYS-3 FLR-2 SCH-D HPLCMT-SOUTH ZN NECB SYSTEM 3 PSZ OCC SCH TUESDAY\n   ************* IDF Context for following error/warning message:\n   ************* Note -- lines truncated at 300 characters, if necessary...\n   *************   4216 Schedule:Day:Interval,\n   ************* indicated Name=Sp-Corner_Class_1_Pod_2_ZN_1_FLR_1 Sys-3 Flr-2 Sch-D HPlcmt-south ZN NECB System 3 PSZ Occ Sch Wednesday\n   ************* Only last 1 lines before error line shown.....\n   *************   4217   Sp-Corner_Class_1_Pod_2_ZN_1_FLR_1 Sys-3 Flr-2 Sch-D HPlcmt-south ZN NECB System 3 PSZ Occ Sch Wednesday, !- Name\n   ** Warning ** IP: IDF line~4217 Alpha Argument length exceeds maximum, will be truncated=  Sp-Corner_Class_1_Pod_2_ZN_1_FLR_1 Sys-3 Flr-2 Sch-D HPlcmt-south ZN NECB System 3 PSZ Occ Sch Wednesda\n   **   ~~~   ** Will be processed as Alpha=SP-CORNER_CLASS_1_POD_2_ZN_1_FLR_1 SYS-3 FLR-2 SCH-D HPLCMT-SOUTH ZN NECB SYSTEM 3 PSZ OCC SCH WEDNESDAY\n   ************* IDF Context for following error/warning message:\n   ************* Note -- lines truncated at 300 characters, if necessary...\n   *************   4231 Schedule:Day:Interval,\n   ************* indicated Name=Sp-Corner_Class_1_Pod_2_ZN_1_FLR_1 Sys-3 Flr-2 Sch-D HPlcmt-south ZN NECB System 3 PSZ Occ Sch Thursday\n   ************* Only last 1 lines before error line shown.....\n   *************   4232   Sp-Corner_Class_1_Pod_2_ZN_1_FLR_1 Sys-3 Flr-2 Sch-D HPlcmt-south ZN NECB System 3 PSZ Occ Sch Thursday, !- Name\n   ** Warning ** IP: IDF line~4232 Alpha Argument length exceeds maximum, will be truncated=  Sp-Corner_Class_1_Pod_2_ZN_1_FLR_1 Sys-3 Flr-2 Sch-D HPlcmt-south ZN NECB System 3 PSZ Occ Sch Thursda\n   **   ~~~   ** Will be processed as Alpha=SP-CORNER_CLASS_1_POD_2_ZN_1_FLR_1 SYS-3 FLR-2 SCH-D HPLCMT-SOUTH ZN NECB SYSTEM 3 PSZ OCC SCH THURSDAY\n   ************* IDF Context for following error/warning message:\n   ************* Note -- lines truncated at 300 characters, if necessary...\n   *************   4246 Schedule:Day:Interval,\n   ************* indicated Name=Sp-Corner_Class_1_Pod_2_ZN_1_FLR_1 Sys-3 Flr-2 Sch-D HPlcmt-south ZN NECB System 3 PSZ Occ Sch Friday\n   ************* Only last 1 lines before error line shown.....\n   *************   4247   Sp-Corner_Class_1_Pod_2_ZN_1_FLR_1 Sys-3 Flr-2 Sch-D HPlcmt-south ZN NECB System 3 PSZ Occ Sch Friday, !- Name\n   ** Warning ** IP: IDF line~4247 Alpha Argument length exceeds maximum, will be truncated=  Sp-Corner_Class_1_Pod_2_ZN_1_FLR_1 Sys-3 Flr-2 Sch-D HPlcmt-south ZN NECB System 3 PSZ Occ Sch Frida\n   **   ~~~   ** Will be processed as Alpha=SP-CORNER_CLASS_1_POD_2_ZN_1_FLR_1 SYS-3 FLR-2 SCH-D HPLCMT-SOUTH ZN NECB SYSTEM 3 PSZ OCC SCH FRIDAY\n   ************* IDF Context for following error/warning message:\n   ************* Note -- lines truncated at 300 characters, if necessary...\n   *************   4261 Schedule:Day:Interval,\n   ************* indicated Name=Sp-Corner_Class_1_Pod_2_ZN_1_FLR_1 Sys-3 Flr-2 Sch-D HPlcmt-south ZN NECB System 3 PSZ Occ Sch Saturday\n   ************* Only last 1 lines before error line shown.....\n   *************   4262   Sp-Corner_Class_1_Pod_2_ZN_1_FLR_1 Sys-3 Flr-2 Sch-D HPlcmt-south ZN NECB System 3 PSZ Occ Sch Saturday, !- Name\n   ** Warning ** IP: IDF line~4262 Alpha Argument length exceeds maximum, will be truncated=  Sp-Corner_Class_1_Pod_2_ZN_1_FLR_1 Sys-3 Flr-2 Sch-D HPlcmt-south ZN NECB System 3 PSZ Occ Sch Saturda\n   **   ~~~   ** Will be processed as Alpha=SP-CORNER_CLASS_1_POD_2_ZN_1_FLR_1 SYS-3 FLR-2 SCH-D HPLCMT-SOUTH ZN NECB SYSTEM 3 PSZ OCC SCH SATURDAY\n   ************* IDF Context for followi
[...]
gl6LNgk6CWXTYJecdkk6AWXTYJeb9kk6OWWTaLggUA+DfqJKj4N+mErPg36OSw+DfoRLT4N+rlEPg36kUU+DfppRj4N+kFHPo0a4rzg8Ug+jRrivOChSj6NGnbygrSqSKP0CyXV0qrFJ0wYJOi0ik2CHgw2CXos2CTotIpNgk6r2CTotIpNgk6r2CTo5ZZNoiCt4tOgl1s+DXq55dOg0yo+DTqt4tOg0yo+DTqt4tOg0yo+DTqt4tOoIc4L0io+jRrivCCt4tOoYScvSKuKNEoLwVdLqxaV4hkk6LSKTYIeDDYJeizYJOi0ik2CTqvYJOi0ik2CTqvYJOjllk2iIK3i06CXWz4Nernl06DTKj4NOq3i06DTKj4NOq3i06DTKj4NOq3i06ghzgvSKj6NGuK8IK3i06hhJy9Iq4o0SuvtVkurFgV5GSTotIpNgh4MNgl6LNgk6LSKTYJOq9gk6LSKTYJOq9gk6OWWTaIgreLToJdbPg16ueXToNMqPg06reLToNMqPg06reLToNMqPg06reLTqCHOC9IqPo0a4rwgreLTqGEnL0irijRKyxpWS6sWdQ8ZJOi0ik2CHgw2CXos2CTotIpNgk6r2CTotIpNgk6r2CTo5ZZNorDYGpdGUbUqLo2iQlZcGkU1rrg0ispfcWkU1Xzj0igqB8elUVQpjkujqIgcl0YNcV5Yeo5Lo4Y4LyxYx6VRw05ekFYtNb5VqfCaV3QWxyKQd8sKslnh2EZ8O25mFWBLS8Uuy0LHMnkbzgI3bnTbTWFZ3aboqL/Z3WrlZu9TjMdq167bcxI5DqP5yb0XL8oqP95/hdrTqYPzyJXRxUxVOa7cUHHMVzk+SieeRXKBoQo15/2+4brfMMMMM8wwwwwzzDDDDDPMMMMMM8wwwwwzzDDDDDPMMMMMM8wwwwwzzDDDDDPMMMMMM8wwwwwzzDDDDDPMMMMMM8wwwwwzzDD/rcxzM7yVUeS58qOjXqy1zPYL31dVr8bGq6/GXsrIk3H+eq3RXL5APPXDxPS9QJa+Ihs/955u+Zu1sZl9en4a+k7ihUEKZcSJnLYGchRG0qj25vMHOZaBu3pDi3ONvXZTdNSby231IrP6w/DlKFFgJa6Xbs3+WCanQaL6J5UYzYJhRtrYFn+WuFgSysfWV6XvcqvDG4lGMvFiM85GpZqQOp40MtP+O3WGk8Z/gXW9LfHVq+Mpe+63Pw1jTzl8l56ucjfLQ7l5hioK7/SQllhe4EoVDy2rqdl6eVyv23DkSV/Nt0bep4s4GUfhbCpd8fPP4h/5+XuzP3Hi/P13FWDbT63zZ61ph5jOeHymNExfBuNkIt4IW/xLGCe+b4ij1Sti3xvKRsvavmp/2y6Ntx/uJIxE4zq9lfav4jqVyadqrqvO/ZKuOPoDpA41jXN/V9ffzO9yLo6Pjxedt57HzGs+7Ne6t7o8BpF0vq/T+EGzje71qr/yuztW01pNhnymZIUczL4Tx944kG5PlYiIr7Ke/LZeVy4HejqLJ411xyId0qPFeK4fSb5/VOUuTXXluipxEoXfZTWdxbXrKoVTZ+gl82pS+cVr31UmsZRa18tyIVldVtYJD+3FRx3LcF5deERLWLredMKtOutDM9tVK13/UJZTqGNnR3z+44v4z/kfF+Ly/OLL759+Ex/Of/u9J96fXpxWc3CWrtry3lEpmkhCEYdRIoLZTToPhiIraRILJx6myYsXjCt4XPa98vNkZ3aaYlB9cYlkMosCMXWiWJ75oZM0HLXkb6dD+eTcIDtXqTPLU7QnsvktlDl+2Gyll8f8Mwv3LNgbW64cOTM/EdMoTNcwudUUWz8dHPR6p6dbGy48AxzgAAc4wAEOcIADHOAABzh/TxwRz27SfwILV6qTwnXmiiiSLmhAAxrQgAY0oAENaEADGtCAppjmLns06y80A38mgQMc4AAHOMABDnCAAxzgAAc46+A8fjfQUt8NvJxR3w3sWNkvbCcnu7uHhyAFKUhBClKQghSkIAUpSEEKUpCC9HWQ2hmpk1Ck7Yy007Htgz2QghSkIAUpSEEKUpCCFKQgBSlIQfo6SDuK9CzyCFL7MCO1rP39TgekIAUpSEEKUpCCFKQgBSlIQQpSkL4O0l1F+mUyo0gPMtLD9Oi+BSlIQQpSkIIUpCAFKUhBClKQghSkr4O0q0j/LV2KdD8jffeu19vfBylIQQpSkIIUpCAFKUhBClKQghSkr4N0L/svEzNJke5lpL3e3h5IQQpSkIIUpCAFKUhBClKQghSkIH0tpPuK9GNIVRa0uxnpwYFtd7sgBSlIQQpSkIIUpCAFKUhBClKQgrQ20iWKGzl3jVJn92biJb68nDhTaSbyPmlsvQ9nUVyOMf+x5TvvRgaxFwa+jDMPJS52dsSJ6wpHZJ7EnZdMRBzeSOF2SlrGt2PTmU5l4DYMpW1slzRYHqaTJFHDuDeaYq+t2WieNrKrN4qTuS8XeC0nGE7CKG1v+HKkQZv7GIVB0rqT3niSKB+D0Her+1iMzeW09XHmJ/2en87Rvt3/HLrpn18/9a3+2YeLvi0u53GrI878qGWJy+Gk9U68/+wPb5JWEEbpuHz9JD6d9t6qyxJ5Izri8+VXcT4cqmu3totG+s1OPIy8afJP8po3O653+7yZbEM7S30Jzz02hioMemnPOV4go761d2CIrD+PDdeLp74zP/ICP7W1Bn44/P6rQQOmXhf3IJL5NG2vunTn2rl1FmcLW6rj1onUlBXHwvVupr40A3l3eTtuGD89A9kUu+129kdpDCq/rpM4qeOrPw3fGUjfODJcOXLSoRbTKBx5vjSaC0v/3jiyzHbTuHX8mcz/PlRLVdomXX16vdNT46FZyY/N5KfD5GeXyU+Xyc8ek599Jj8HTH4OmfxYbS5HXDPa4prSFtectrgmtcU1qy2uaW1xzWuLa2JbXDPb5prZNttazTWzba6ZbWvNbBHPbm5Wvl1daUeLpKvhhuwjPTdkD+m5IftHzw0Z93puyKjXc0PGvJ4bMuL13JDxrueG3sg0/TDNY3ob0/TDNJPpTUzTD9NcprcwTT9Ms5newDT9MM1nevvS9MO1LjPNZ3rv0vRTfT7feUGiv20N1Knqfsju0fRDdo+mH7J7NP2Q4a7phwx3TT9kuGv6IcNd0w8Z7pp+6P1L1xHXjKZ3MF1HXHOa3sN0HXHNanoX03XENa/pfUzXEdfMpncyXUdsazXXzKY3M11H1Wf2448ZpR8bpra59so/9BZfI2aQsDcv0dm8xO7mJbqbl9jbvMT+5iUONi9xuHmJlZ19Uxo1xLdVQ4BbNUS4VUOIWzXEuFVDkFs1RLlVQ5hbNcS5XUOc23Xs4zXEuV1DnNvrxXnpNx2rpVWLjz4ySNCjwSZBDwabBD0WbBL0kssmQa+4bBL0gssmQa+3bBL0cssmUZBW8WnUEN8FaRWfRg0RXpBW8WnUEOMFaRWfRg1RXpBW8WnUEOcFaRWfRh37eA1xXpBW8WmsF+eln86qllYtvq3FIEGPBpsEPRhsEvRYsEnQSy6bBL3isknQCy6bBL3esknQyy2bRMEDgXwa9BNVfBr0w1Z8GvRzWHwa9CNafBr0c4l8GvQji3wa9NOMfBr0g458GjXEecHjkXwaNcR5wUOVfBo17OQFaVWRRukXSqqlVYtPmDBI0GkVmwQ9GGwS9FiwSdBpFZsEnVaxSdBpFZsEnVaxSdDLLZtEQVrFp0Evt3wa9HLLp0GnVXwadFrFp0GnVXwadFrFp0GnVXwadFrFp1FDnBekVXwaNcR5QVrFp1HDTl6QVhVplBaCr5ZWLSrFM0jQaRWbBD0YbBL0WLBJ0GkVmwSdVrFJ0GkVmwSdVrFJ0Mstm0RBWsWnQS+3fBr0csunQadVfBp0WsWnQadVfBp0WsWnQadVfBp0WsWnUUOcF6RVfBo1xHlBWsWnUcNOXpBWFWmU1tutllYtCvIySNBpFZsEPRhsEvRYsEnQaRWbBJ1WsUnQaRWbBJ1WsUnQyy2bREFaxadBL7d8GvRyy6dBp1V8GnRaxadBp1V8GnRaxadBp1V8GnRaxadRQ5wXpFV8GjXEeUFaxadRw05ekFYVaZSWNayWVi3qHjJI0GkVmwQ9GGwS9FiwSdBpFZsEnVaxSdBpFZsEnVaxSdDLLZtEYbE1Lo2ialVcGkWFrLg0impccWkUlb/i0iiq+calUVQOjkujqFIcl0ZRETkujRrivLD0HJdGDXFeWLCOS6OGnbwgrVpqfKtS4TWv6CyORSDvlhVks8Kxjfh23MwqwJaWil2WhY5l8jacBW7c6LabwrK6TdFRf7O71crN3qcYj9WuXbfnJHIcRvOTey9elFV+vP8KtadTB+eRK6OLmapyXLmh4pivcnyUTjyL5AJDFWrO+33Ddb9hhhlmmGGGGWaYYYYZZphhhhlmmGGGGWaYYYYZZphhhhlmmGGGGWaYYYYZZphhhhlmmGGGGWaYYYYZZphhhhlmmGGGGWaYYf5bmedmeCujyHPlR0e9WGuZ7Re+r6pejY1XX429lJEn4/z1WqO5fIF46oeJ6XuBLH1FNn7uPd3yN2tjM/v0/DT0ncQLgxTKiBM5bQ3kKIykUe3N5w9yLAN39YYW5xp77aboqDeX2+pFZvWH4ctRosBKXC/dmv2xTE6DRPVPKjGaBcOMtLEt/ixxsSSUj62vSt/lVoc3Eo1k4sVmnI1KNSF1PGlkpv136gwnjf8C63pb4qtXx1P23G9/GsaecvguPV3lbpaHcvMMVRTe6SEtsbzAlSoeWlZTs/XyuF634ciTvppvjbxPF3EyjsLZVLri55/FP/Lz92Z/4sT5++8qwLafWufPWtMOMZ3x+ExpmL4MxslEvBG2+JcwTnzfEEerV8S+N5SNlrV91f62XRpvP9xJGInGdXor7V/FdSqTT9VcV537JV1x9AdIHWoa5/6urr+Z3+VcHB8fLzpvPY+Z13zYr3VvdXkMIul8X6fxg2Yb3etVf+V3d6ymtZoM+UzJCjmYfSeOvXEg3Z4qERFfZT35bb2uXA70dBZPGuuORTqkR4vxXD+SfP+oyl2a6sp1VeIkCr/LajqLa9dVCqfO0Evm1aTyi9e+q0xiKbWul+VCsrqsrBMe2ouPOpbhvLrwiJawdL3phFt11odmtqtWuv6hLKdQx86O+PzHF/Gf8z8uxOX5xZffP/0mPpz/9ntPvD+9OK3m4CxdteW9o1I0kYQiDqNEBLObdB4MRVbSJBZOPEyTFy8YV/C47Hvl58nO7DTFoPriEslkFgVi6kSxPPNDJ2k4asnfTofyyblBdq5SZ5anaE9k81soc/yw2Uovj/lnFu5ZsDe2XDlyZn4iplGYrmFyqym2fjo46PVOT7c2XHgGOMABDnCAAxzgAAc4wAEOcP6eOCKe3aT/BBauVCeF68wVUSRd0IAGNKABDWhAAxrQgAY0oAFNMc1d9mjWX2gG/kwCBzjAAQ5wgAMc4AAHOMABDnDWwXn8bqClvht4OaO+G9ixsl/YTk52dw8PQQpSkIIUpCAFKUhBClKQghSkIAXp6yC1M1InoUjbGWmnY9sHeyAFKUhBClKQghSkIAUpSEEKUpCC9HWQdhTpWeQRpPZhRmpZ+/udDkhBClKQghSkIAUpSEEKUpCCFKQgfR2ku4r0y2RGkR5kpIfp0X0LUpCCFKQgBSlIQQpSkIIUpCAFKUhfB2lXkf5buhTpfkb67l2vt78PUpCCFKQgBSlIQQpSkIIUpCAFKUhfB+le9l8mZpIi3ctIe729PZCCFKQgBSlIQQpSkIIUpCAFKUhB+lpI9xXpx5CqLGh3M9KDA9vudkEKUpCCFKQgBSlIQQpSkIIUpCAFaW2kSxQ3cu4apc7uzcRLfHk5cabSTOR90th6H86iuBxj/mPLd96NDGIvDHwZZx5KXOzsiBPXFY7IPIk7L5mIOLyRwu2UtIxvx6YzncrAbRhK29guabA8TCdJooZxbzTFXluz0TxtZFdvFCdzXy7wWk4wnIRR2t7w5UiDNvcxCoOkdSe98SRRPgah71b3sRiby2nr48xP+j0/naN9u/85dPud/tdPfat/9uGib4nLedzqiDM/atnicjhpvRPvP/vDm6QVhFE6Ll8/iU+nvbfqskTeiI74fPlVnA+H6tqt7aKRfrMTDyNvmvyTvObNjuvdPm8m29DOUl/Cc4+NoQqDXtpzjhfIqG/tHRoi689jw/Xiqe/Mj7zAT22tgR8Ov/9q0ICp18U9iGQ+TdurLt25dm6dxdnCluq4dSI1ZcWxcL2bqS/NQN5d3o4bxk/PQDbFbrud/VEag8qv6yRO6vjqT8N3BtI3jgxXjpx0qMU0CkeeL43mwtK/N44ss900bh1/JvO/D9VSlbZJV59e7/TUeGhW8mMz+ekw+dll8tNl8rPH5Gefyc8Bk59DJj9Wm8sR14y2uKa0xTWnLa5JbXHNaotrWltc89rimtgW18y2uWa2zbZWc81sm2tm21ozW8Szm5uVb1dX2tEi6Wq4IftIzw3ZQ3puyP7Rc0PGvZ4bMur13JAxr+eGjHg9N2S867mhNzJNP0zzmN7GNP0wzWR6E9P0wzSX6S1M0w/TbKY3ME0/TPOZ3r40/XCty0zzmd67NP1Un893XpDob1sDdaq6H7J7NP2Q3aPph+weTT9kuGv6IcNd0w8Z7pp+yHDX9EOGu6Yfev/SdcQ1o+kdTNcR15ym9zBdR1yzmt7FdB1xzWt6H9N1xDWz6Z1M1xHbWs01s+nNTNdR9Zn9+GNG6ceGqW2uvfIPvcXXiBkk7M1LdDYvsbt5ie7mJfY2L7G/eYmDzUscbl5iZWfflEYN8W3VEOBWDRFu1RDiVg0xbtUQ5FYNUW7VEOZWDXFu1xDndh37eA1xbtcQ5/Z6cV76TcdqadXio48MEvRosEnQg8EmQY8FmwS95LJJ0CsumwS94LJJ0OstmwS93LJJFKRVfBo1xHdBWsWnUUOEF6RVfBo1xHhBWsWnUUOUF6RVfBo1xHlBWsWnUcc+XkOcF6RVfBrrxXnpp7OqpVWLb2sxSNCjwSZBDwabBD0WbBL0kssmQa+4bBL0gssmQa+3bBL0cssmUfBAIJ8G/UQVnwb9sBWfBv0cFp8G/YgWnwb9XCKfBv3IIp8G/TQjnwb9oCOfRg1xXvB4JJ9GDXFe8FAln0YNO3lBWlWkUfqFkmpp1eITJgwSdFrFJkEPBpsEPRZsEnRaxSZBp1VsEnRaxSZBp1VsEvRyyyZRkFbxadDLLZ8GvdzyadBpFZ8GnVbxadBpFZ8GnVbxadBpFZ8GnVbxadQQ5wVpFZ9GDXFekFbxadSwkxekVUUapYXgq6VVi0rxDBJ0WsUmQQ8GmwQ9FmwSdFrFJkGnVWwSdFrFJkGnVWwS9HLLJlGQVvFp0Mstnwa93PJp0GkVnwadVvFp0GkVnwadVvFp0GkVnwadVvFp1BDnBWkVn0YNcV6QVvFp1LCTF6RVRRql9XarpVWLgrwMEnRaxSZBDwabBD0WbBJ0WsUmQadVbBJ0WsUmQadVbBL0cssmUZBW8WnQyy2fBr3c8mnQaRWfBp1W8WnQaRWfBp1W8WnQaRWfBp1W8WnUEOcFaRWfRg1xXpBW8WnUsJMXpFVFGqVlDaulVYu6hwwSdFrFJkEPBpsEPRZsEnRaxSZBp1VsEnRaxSZBp1VsEvRyyyZRWGyNS6OoWhWXRlEhKy6NohpXXBpF5a+4NIpqvnFpFJWD49IoqhTHpVFURI5Lo4Y4Lyw9x6VRQ5wXFqzj0qhhJy9Iq5Ya36pUeM0rOotjEci7ZQXZrHBsI74dN7MKsKWlYpdloWOZvA1ngRs3uu2msKxuU3TU3+xutXKz9ynGY7Vr1+05iRyH0fzk3osXZZUf779C7enUwXnkyuhipqocV26oOOarHB+lE88iucBQhZrzft9w3W+YYYYZZphhhhlmmGGGGWaYYYYZZphhhhlmmGGGGWaYYYYZZphhhhlmmGGGGWaYYYYZZphhhhlmmGGGGWaYYYYZZphhhhlmmP9W5rkZ3soo8lz50VEv1lpm+4Xvq6pXY+PVV2MvZeTJOH+91mguXyCe+mFi+l4gS1+RjZ97T7f8zdrYzD49Pw19J/HCIIUy4kROWwM5CiNpVHvz+YMcy8BdvaHFucZeuyk66s3ltnqRWf1h+HKUKLAS10u3Zn8sk9MgUf2TSoxmwTAjbWyLP0tcLAnlY+ur0ne51eGNRCOZeLEZZ6NSTUgdTxqZaf+dOsNJ47/Aut6W+OrV8ZQ999ufhrGnHL5LT1e5m+Wh3DxDFYV3ekhLLC9wpYqHltXUbL08rtdtOPKkr+ZbI+/TRZyMo3A2la74+Wfxj/z8vdmfOHH+/rsKsO2n1vmz1rRDTGc8PlMapi+DcTIRb4Qt/iWME983xNHqFbHvDWWjZW1ftb9tl8bbD3cSRqJxnd5K+1dxncrkUzXXVed+SVcc/QFSh5rGub+r62/mdzkXx8fHi85bz2PmNR/2a91bXR6DSDrf12n8oNlG93rVX/ndHatprSZDPlOyQg5m34ljbxxIt6dKRMRXWU9+W68rlwM9ncWTxrpjkQ7p0WI8148k3z+qcpemunJdlTiJwu+yms7i2nWVwqkz9JJ5Nan84rXvKpNYSq3rZbmQrC4r64SH9uKjjmU4ry48oiUsXW864Vad9aGZ7aqVrn8oyynUsbMjPv/xRfzn/I8LcXl+8eX3T7+JD+e//d4T708vTqs5OEtXbXnvqBRNJKGIwygRwewmnQdDkZU0iYUTD9PkxQvGFTwu+175ebIzO00xqL64RDKZRYGYOlEsz/zQSRqOWvK306F8cm6QnavUmeUp2hPZ/BbKHD9sttLLY/6ZhXsW7I0tV46cmZ+IaRSma5jcaoqtnw4Oer3T060NF54BDnCAAxzgAAc4wAEOcIADnL8njohnN+k/gYUr1UnhOnNFFEkXNKABDWhAAxrQgAY0oAENaEBTTHOXPZr1F5qBP5PAAQ5wgAMc4AAHOMABDnCAA5x1cB6/G2ip7wZezqjvBnas7Be2k5Pd3cNDkIIUpCAFKUhBClKQghSkIAUpSEH6OkjtjNRJKNJ2Rtrp2PbBHkhBClKQghSkIAUpSEEKUpCCFKQgfR2kHUV6FnkEqX2YkVrW/n6nA1KQghSkIAUpSEEKUpCCFKQgBSlIXwfpriL9MplRpAcZ6WF6dN+CFKQgBSlIQQpSkIIUpCAFKUhBCtLXQdpVpP+WLkW6n5G+e9fr7e+DFKQgBSlIQQpSkIIUpCAFKUhBCtLXQbqX/ZeJmaRI9zLSXm9vD6QgBSlIQQpSkIIUpCAFKUhBClKQvhbSfUX6MaQqC9rdjPTgwLa7XZCCFKQgBSlIQQpSkIIUpCAFKUhBWhvpEsWNnLtGqbN7M/ESX15OnKk0E3mfNLbeh7MoLseY/9jynXcjg9gLA1/GmYcSFzs74sR1hSMyT+LOSyYiDm+kcDslLePbselMpzJwG4bSNrZLGiwP00mSqGHcG02x19ZsNE8b2dUbxcnclwu8lhMMJ2GUtjd8OdKgzX2MwiBp3UlvPEmUj0Hou9V9LMbmctr6OPOTfs9P52jf7n8O3X6n//VT3+qffbjo2+JyHrc64syPWpa4HE5a78T7z/7wJmkFYZSOy9dP4tNp7626LJE3oiM+X34V58OhunZru2ik3+zEw8ibJv8kr3mz43q3z5vJNrSz1Jfw3GNjqMKgl/ac4wUy6lv7bUNk/XlsuF489Z35kRf4qa018MPh918NGjD1urgHkcynaXvVpTvXzq2zOFvYUh23TqSmrDgWrncz9aUZyLvL23HD+OkZyKbYbbezP0pjUPl1ncRJHV/9afjOQPrGkeHKkZMOtZhG4cjzpdFcWPr3xpFltpvGrePPZP73oVqq0jbp6tPrnZ4aD81KfmwmPx0mP7tMfrpMfvaY/Owz+Tlg8nPI5MdqcznimtEW15S2uOa0xTWpLa5ZbXFNa4trXltcE9vimtk218y22dZqrpltc81sW2tmi3h2c7Py7epKO1okXQ03ZB/puSF7SM8N2T96bsi413NDRr2eGzLm9dyQEa/nhox3PTf0Rqbph2ke09uYph+mmUxvYpp+mOYyvYVp+mGazfQGpumHaT7T25emH651mWk+03uXpp/q8/nOCxL9bWugTlX3Q3aPph+yezT9kN2j6YcMd00/ZLhr+iHDXdMPGe6afshw1/RD71+6jrhmNL2D6TrimtP0HqbriGtW07uYriOueU3vY7qOuGY2vZPpOmJbq7lmNr2Z6TqqPrMff8wo/dgwtc21V/6ht/gaMYOEvXmJzuYldjcv0d28xN7mJfY3L3GweYnDzUus7Oyb0qghvq0aAtyqIcKtGkLcqiHGrRqC3Kohyq0awtyqIc7tGuLcrmMfryHO7Rri3F4vzku/6VgtrVp89JFBgh4NNgl6MNgk6LFgk6CXXDYJesVlk6AXXDYJer1lk6CXWzaJgrSKT6OG+C5Iq/g0aojwgrSKT6OGGC9Iq/g0aojygrSKT6OGOC9Iq/g06tjHa4jzgrSKT2O9OC/9dFa1tGrxbS0GCXo02CTowWCToMeCTYJectkk6BWXTYJecNkk6PWWTYJ+NopNouCBQD4N+okqPg36YSs+Dfo5LD4N+hEtPg36uUQ+DfqRRT4N+mlGPg36QUc+jRrivCCt4tOoYx+vYSMvSKv4NNbbyku/UFItrVp8woRBgh4NNgl6MNgk6LFgk6DTKjYJOq1ik6DTKjYJOq1ik6CXWzaJgrSKT4NOq/g06LSKT4NOq/g06LSKT4NOq/g06LSKT4NOq/g06LSKT6OGOC9Iq/g06tjHa9jIC9IqPo31tvLSQvDV0qpFpXgGCXo02CTowWCToMeCTYJOq9gk6LSKTYJOq9gk6LSKTYJebtkkCtIqPg06reLToNMqPg06reLToNMqPg06reLToNMqPg06reLToNMqPo0a4rwgreLTqGMfr2EjL0ir+DTW28pL6+1WS6sWBXkZJOjRYJOgB4NNgh4LNgk6rWKToNMqNgk6rWKToNMqNgl6uWWTKEir+DTotIpPg06r+DTotIpPg06r+DTotIpPg06r+DTotIpPg06r+DRqiPOCtIpPo459vIaNvCCt4tNYbysvLWtYLa1a1D1kkKBHg02CHgw2CXos2CTotIpNgk6r2CTotIpNgk6r2CSK6k4xSRQWW+PSKKpWxaVRVMiKS6OoxhWXRlH5Ky6NoppvXBpF5eC4NIoqxXFpFBWR49KoIc4L0io+jTr28Ro28oK0ik+jfCv/VqXCa17RWRyLQN4tK8hmhWMb8e24mVWALS0VuywLHcvkbTgL3LjRbTeFZXWboqP+ZnerlZu9TzEeq127bs9J5DiM5if3Xrwoq/x4/xVqT6cOziNXRhczVeW4ckPFMV/l+CideBbJBYYq1Jz3+4brfsMMM8wwwwwzzDDDDDPMMMMMM8wwwwwzzDDDDDPMMMMMM8wwwwwzzDDDDDPMMMMMM8wwwwwzzDDDDDPMMMMMM8wwwwwzzDDD/Lcyz83wVkaR58qPjnqx1jLbL3xfVb0aG6++GnspI0/G+eu1RnP5AvHUDxPT9wJZ+ops/Nx7uuVv1sZm9un5aeg7iRcGKZQRJ3LaGshRGEmj2pvPH+RYBu7qDS3ONfbaTdFRby631YvM6g/Dl6NEgZW4Xro1+2OZnAaJ6p9UYjQLhhlpY1v8WeJiSSgfW1+VvsutDm8kGsnEi804G5VqQup40shM++/UGU4a/wXW9bbEV6+Op+y53/40jD3l8F16usrdLA/l5hmqKLzTQ1pieYErVTy0rKZm6+VxvW7DkSd9Nd8aeZ8u4mQchbOpdMXPP4t/5Ofvzf7EifP331WAbT+1zp+1ph1iOuPxmdIwfRmMk4l4I2zxL2Gc+L4hjlaviH1vKBsta/uq/W27NN5+uJMwEo3r9Fbav4rrVCafqrmuOvdLuuLoD5A61DTO/V1dfzO/y7k4Pj5edN56HjOv+bBf697q8hhE0vm+TuMHzTa616v+yu/uWE1rNRnymZIVcjD7Thx740C6PVUiIr7KevLbel25HOjpLJ401h2LdEiPFuO5fiT5/lGVuzTVleuqxEkUfpfVdBbXrqsUTp2hl8yrSeUXr31XmcRSal0vy4VkdVlZJzy0Fx91LMN5deERLWHpetMJt+qsD81sV610/UNZTqGOnR3x+Y8v4j/nf1yIy/OLL79/+k18OP/t9554f3pxWs3BWbpqy3tHpWgiCUUcRokIZjfpPBiKrKRJLJx4mCYvXjCu4HHZ98rPk53ZaYpB9cUlksksCsTUiWJ55odO0nDUkr+dDuWTc4PsXKXOLE/Rnsjmt1Dm+GGzlV4e888s3LNgb2y5cuTM/ERMozBdw+RWU2z9dHDQ652ebm248AxwgAMc4AAHOMABDnCAAxzg/D1xRDy7Sf8JLFypTgrXmSuiSLqgAQ1oQAMa0IAGNKABDWhAA5pimrvs0ay/0Az8mQQOcIADHOAABzjAAQ5wgAMc4KyD8/jdQEt9N/ByRn03sGNlv7CdnOzuHh6CFKQgBSlIQQpSkIIUpCAFKUhBCtLXQWpnpE5CkbYz0k7Htg/2QApSkIIUpCAFKUhBClKQghSkIAXp6yDtKNKzyCNI7cOM1LL29zsdkIIUpCAFKUhBClKQghSkIAUpSEH6Okh3FemXyYwiPchID9Oj+xakIAUpSEEKUpCCFKQgBSlIQQpSkL4O0q4i/bd0KdL9jPTdu15vfx+kIAUpSEEKUpCCFKQgBSlIQQpSkL4O0r3sv0zMJEW6l5H2ent7IAUpSEEKUpCCFKQgBSlIQQpSkIL0tZDuK9KPIVVZ0O5mpAcHtt3tghSkIAUpSEEKUpCCFKQgBSlIQQrS2kiXKG7k3DVKnd2biZf48nLiTKWZyPuksfU+nEVxOcb8x5bvvBsZxF4Y+DLOPJS42NkRJ64rHJF5EndeMhFxeCOF2ylpGd+OTWc6lYHbMJS2sV3SYHmYTpJEDePeaIq9tmajedrIrt4oTua+XOC1nGA4CaO0veHLkQZt7mMUBknrTnrjSaJ8DELfre5jMTaX09b5aOQNZdz/+qlv9c8+XPQtcTmPWx1x5kctW1wOJ60T8f6zP7xJWnE4Swfj6yfx6bT3Vl2WyBvREZ8vv4rz4VBdu7VdNLxvduJh5E2Tf5LXvNlxvdvnzWQb2lnqS3jusTFUc7+XdpfjBTLqW/uWIbJOPDZcL576zvzIC/zU1hr44fD7rwYNmHpd3INI5tO0verHnWvn1lmcLWypjlsnUvNUHAvXu5n60gzk3eXtuGH89AxkU+y229kfpYGn/LpO4qSOr/40fGcgfePIcOXImfmJmEbhyPOl0VxY+vfGkWW2m8at489k/vehWp/SNumS0+udnhoPzUp+bCY/HSY/u0x+ukx+9pj87DP5OWDyc8jkx2pzOeKa0RbXlLa45rTFNaktrlltcU1ri2teW1wT2+Ka2TbXzLbZ1mqumW1zzWxba2aLeHZzs/LB6ko7WiRdDTdkH+m5IXtIzw3ZP3puyLjXc0NGvZ4bMub13JARr+eGjHc9N/RGpumHaR7T25imH6aZTG9imn6Y5jK9hWn6YZrN9Aam6YdpPtPbl6YfrnWZaT7Te5emn+rz+c4LEv1ta6BOVfdDdo+mH7J7NP2Q3aPphwx3TT9kuGv6IcNd0w8Z7pp+yHDX9EPvX7qOuGY0vYPpOuKa0/QepuuIa1bTu5iuI655Te9juo64Zja9k+k6YluruWY2vZnpOqo+sx9/wSj9wjC1zbVX/qG3+AQxg4S9eYnO5iV2Ny/R3bzE3uYl9jcvcbB5icPNS6zs7JvSqCG+rRoC3Kohwq0aQtyqIcatGoLcqiHKrRrC3Kohzu0a4tyuYx+vIc7tGuLcXi/OSz/kWC2tWnzpkUGCHg02CXow2CTosWCToJdcNgl6xWWToBdcNgl6vWWToJdbNomCtIpPo4b4Lkir+DRqiPCCtIpPo4YYL0ir+DRqiPKCtIpPo4Y4L0ir+DTq2MdriPOCtIpPY704L/1eVrW0avFBLQYJejTYJOjBYJOgx4JNgl5y2SToFZdNgl5w2STo9ZZNgn42ik2i4IFAPg36iSo+DfphKz4N+jksPg36ES0+Dfq5RD4N+pFFPg36aUY+DfpBRz6NGuK8IK3i06hjH69hIy9Iq/g01tvKSz9LUi2tWny3hEGCHg02CXow2CTosWCToNMqNgk6rWKToNMqNgk6rWKToJdbNomCtIpPg06r+DTotIpPg06r+DTotIpPg06r+DTotIpPg06r+DTotIpPo4Y4L0ir+DTq2Mdr2MgL0io+jfW28tLq79XSqkV5eAYJejTYJOjBYJOgx4JNgk6r2CTotIpNgk6r2CTotIpNgl5u2SQK0io+DTqt4tOg0yo+DTqt4tOg0yo+DTqt4tOg0yo+DTqt4tOg0yo+jRrivCCt4tOoYx+vYSMvSKv4NNbbykuL7FZLqxZVeBkk6NFgk6AHg02CHgs2CTqtYpOg0yo2CTqtYpOg0yo2CXq5ZZMoSKv4NOi0ik+DTqv4NOi0ik+DTqv4NOi0ik+DTqv4NOi0ik+DTqv4NGqI84K0ik+jjn28ho28IK3i01hvKy+tZVgtrVoUO2SQoEeDTYIeDDYJeizYJOi0ik2CTqvYJOi0ik2CTqvYJIrqTjFJFBZb49IoqlbFpVFUyIpLo6jGFZdGUfkrLo2imm9cGkXl4Lg0iirFcWkUFZHj0qghzgvSKj6NOvbxGjbygrSKT6N8K/9WpcJrXsZZHItA3i0ryGaFYxvx7biZVYAtLRW7rAUdy+RtOAvcuNFtN4VldZuio/5md6uVm71PMR5LXLtuz0nkOIzmJ/devKil/Hj/FQpOpw7OI1dGFzNV2rhyQ8UxX+X4KJ14FskFhqrOnPf7hot9wwwzzDDDDDPMMMMMM8wwwwwzzDDDDDPMMMMMM8wwwwwzzDDDDDPMMMMMM8wwwwwzzDDDDDPMMMMMM8wwwwwzzDDDDDPMMMP8tzLPzfBWRpHnyo+OerHWMtsvfF9VvRobr74aeykjT8b567VGc/kC8dQPE9P3Aln6imz83Hu65W/Wxmb26flp6DuJFwYplBEnctoayFEYSaPam88f5FgG7uoNLc419tpN0VFvLrfVi8zqD8OXo0SBlbheujX7Y5mcBonqn1RiNAuGGWljW/xZ4mJJKB9bX5W+y60ObyQaycSLzTgblWpC6njSyEz779QZThr/Bdb1tsRXr46n7Lnf/jSMPeXwXXq6yt0sD+XmGaoovNNDWmJ5gStVPLSspmbr5XG9bsORJ3013xp5ny7iZByFs6l0xc8/i3/k5+/N/sSJ8/ffVYBtP7XOn7WmHWI64/GZ0jB9GYyTiXgjbPEvYZz4viGOVq+IfW8oGy1r+6r9bbs03n64kzASjev0Vtq/iutUJp+qua4690u64ugPkDrUNM79XV1/M7/LuTg+Pl503noeM6/5sF/r3uryGETS+b5O4wfNNrrXq/7K7+5YTWs1GfKZkhVyMPtOHHvjQLo9VSIivsp68tt6Xbkc6OksnjTWHYt0SI8W47l+JPn+UZW7NNWV66rESRR+l9V0FteuqxROnaGXzKtJ5RevfVeZxFJqXS/LhWR1WVknPLQXH3Usw3l14REtYel60wm36qwPzWxXrXT9Q1lOoY6dHfH5jy/iP+d/XIjL84svv3/6TXw4/+33nnh/enFazcFZumrLe0elaCIJRRxGiQhmN+k8GIqspEksnHiYJi9eMK7gcdn3ys+TndlpikH1xSWSySwKxNSJYnnmh07ScNSSv50O5ZNzg+xcpc4sT9GeyOa3UOb4YbOVXh7zzyzcs2BvbLly5Mz8REyjMF3D5FZTbP10cNDrnZ5ubbjwDHCAAxzgAAc4wAEOcIADHOD8PXFEPLtJ/wksXKlOCteZK6JIuqABDWhAAxrQgAY0oAENaEADmmKau+zRrL/QDPyZBA5wgAMc4AAHOMABDnCAAxzgrIPz+N1AS3038HJGfTewY2W/sJ2c7O4eHoIUpCAFKUhBClKQghSkIAUpSEEK0tdBamekTkKRtjPSTse2D/ZAClKQghSkIAUpSEEKUpCCFKQgBenrIO0o0rPII0jtw4zUsvb3Ox2QghSkIAUpSEEKUpCCFKQgBSlIQfo6SHcV6ZfJjCI9yEgP06P7FqQgBSlIQQpSkIIUpCAFKUhBClKQvg7SriL9t3Qp0v2M9N27Xm9/H6QgBSlIQQpSkIIUpCAFKUhBClKQvg7Svey/TMwkRbqXkfZ6e3sgBSlIQQpSkIIUpCAFKUhBClKQgvS1kO4r0o8hVVnQ7makBwe23e2CFKQgBSlIQQpSkIIUpCAFKUhBCtLaSJcobuTcNUqd3ZuJl/jycuJMpZnI+6Sx9T6cRXE5xvzHlu+8GxnEXhj4Ms48lLjY2REnrisckXkSd14yEXF4I4XbKWkZ345NZzqVgdswlLaxXdJgeZhOkkQN495oir22ZqN52siu3ihO5r5c4LWcYDgJo7S94cuRBm3uYxQGSetOeuNJonwMQt+t7mMxNpfT1vlo5A1l3P/6qW/1zz5c9G1xOY9bHXHmRy1LXA4nrRPx/rM/vElacThLB+PrJ/HptPdWXZbIG9ERny+/ivPhUF27tV00vG924mHkTZN/kte82XG92+fNZBvaWepLeO6xMVRzv5d2l+MFMupb+7Yhsk48NlwvnvrO/MgL/NTWGvjh8PuvBg2Yel3cg0jm07S96seda+fWWZwtbKmOWydS81QcC9e7mfrSDOTd5e24Yfz0DGRT7Lbb2R+lgaf8uk7ipI6v/jR8ZyB948hw5ciZ+YmYRuHI86XRXFj698aRZbabxq3jz6RxtHdoHj45Dg6bxlCtVqmHdAHq9U5PjYdmJa/2Rrx2NuJ1dyNeuxvxurcRr/sb8XqwEa+HG/FqtTfjdjPRZW0mvKzNxJe1mQCzNhNh1mZCzNpMjFmbCTJrM1FmbybK7A3tYZuJMnszUWa/IMpEPLu5WfkA+BoZQiRdDacV+1bPacWe1XNasV/1nFZcu/ScVly59JxWXLf0nFZctfScVlyz9JxWTQw0vW4kpqqmBZpeNxJVVZMCTa8biauqKYGm141EVtWEQNPrRmKrajqg6XUz+9VGYqtqLqDpdd3YuvOC5KVpwEBdUN1rxW7V9FqxWzW9VuxWTa8VlyxNrxWXLE2vFZcsTa8VlyxNrxWXLE2vVfMBXbebia6qGYGu283EV9WcQNftZiKsalag63YzMVY1L9B1u5koq5oZ6Lrd0B62mSirmhzoutWKsm9VfnDIf1UUxyKQd8sfNLLfMRrx7biZ/SBR+svF8qfJWCZvw1ngxo1uuyksq9sUHfU3u1vt14/7FOPxF1fX7TmJHIfR/OTeixc/7T12RYXfP1MH55Ero4uZ+qWtckPFMV/l+CideBbJBYb6sTAfgpf+opv9kLQqdSkjT8Y5bqqUD8jUDxNT/bpVKhk/d9/lpLGZzbtp6DuJFwYplBEnctoayFEYSaPaTPogxzJwV29oca6xl86CjpoJ6scwS/2R/2Ba+lvy0q3ZH8vkNEhU/6QSo1kwzEgb2+LPCr+YKkL52PqqNDbU4Y1EI5l4cTqvVbtqQup40shM++/UGU4a/wXW9bbEz38bzP32p2HsKYfv0tNV7mZ5KDfPUEXhnR7SEssLXKkCt2U1NVsvj+t1G4486av51sj7dBEn4yicTaUrfv5Z/CM/f2/2J06crycqwLafWufPWtMOMZ3x+ExpmL4MxslEvBG2+JcwTnzfEEerV8S+N5SNlrV91f62XRpvP9xJGInGdXor7V/FdSqTT9VcV5375VhY+gOkDjWNc39X19/M7zJd3o6PF523nsfMaz7s17q3ujwGkXS+r9P4QbON7vWqv/K7O1bTWk2GfKZkG6PZXzwNJN3seaD4KuvJb+t15XKgp7N40lh3LNIhPVqM5/qR5PtHVe7SVFeuqxInUfhdVtNZXLuuUjh1hl4yryaVX7z2XWUSS6l1vSwXktVlZZ3w0F581LEM59WFR7SEpetNJ9yqsz40s1210vUPZTmFOnZ2xOc/voj/nP9xIS7PL778/uk38eH8t9974v3pxWk1B2fpqi3vHZWiiSQUcZgm0sHsJp0HQ5GliLFw4mGavHjBuILHZd8rP092ZqcpBtUXl0gmsygQUyeK5ZkfOknDUUv+djqUT84NsnOVOrM8RXsim99CmeOH/8FTm3/5ATZ/NFP9oPo/eYgUOMABDnCAAxzgAAc4wAEOcF49zo8PuCiiSLqgAQ1oQAMa0IAGNKABDWhAA5pimh8eCVQ06hE/4AAHOMABDnCAAxzgAAc4wAHO/7BW4hd5M5WRk8wiKRpn26iW+H+qWuK/HTXj3svsf05uBp4MEqGGTFU+lO4s7f+W2G+fvZIiiJ3XUASxU1sRxOzV03WLMDH56TD52WXy02Xys8fkZ5/JzwGTn0MmPyvVBV7kiGtGW1xT2uKa0xbXpLa4ZrXFNa0trnltcU1si2tm21wz22Zbq7lmts01s22tmV29aN+Kq/XL9L3ADdlD65fie4EbMu7XL7f3AjdkzK9fUu8Fbsh4f0HZvJf4YZrH9Db2gmJ4L/HDNJXpPewFJe5e4odpNtMb2AsK171kHWSaz/Tu9YJydC/xwzSf6a1r/SJzK25eUFbuJX7I7nlB6biX+CHD/QXl4V7ihwz3F5SAe4kfMtxfUubtRY64ZjS9g72keNuLHHFNanoTe0lJthc54prX9D72kkJrL1oZuWY2vZW9pHzaixxxzWx6N0NRtFdRFA1mmGGGGWaYYYYZZphhhhlmmGGGGeb/S+a5Gd7KKPJc+dFR/6HKMtsoiv/kTlAU//FAUXytA0XxURRf40BR/L8eKIr/1wNF8TUPFMVHUfxnDxTFBw5wgAMc4AAHOMABDnCAAxzgvIaSkqABDWhAAxrQgAY0oAENaEDzemj+f1PKEjjAAQ5wgAMc4AAHOMABDnDW1/sfFMV/593IIPbCwJdxjJL4/7dK4ofRd3E6GnlDTwbD+WMh/HpL4OdX/8Xy9P8v/77430fv+V8e/2cQunP1v5Pkxv/n//f/AG67TmM="
               },
               {
                  "name" : "annual_peak_electric_demand",
                  "units" : "kW",
                  "value" : 2639.42535
               },
               {
                  "name" : "first_year_capital_cost",
                  "units" : "$",
                  "value" : 0
               },
               {
                  "name" : "annual_utility_cost",
                  "units" : "$",
                  "value" : 0
               },
               {
                  "name" : "total_lifecycle_cost",
                  "units" : "$",
                  "value" : 0
               }
            ],
            "step_warnings" : [ "A table in Annual Overview section returned false and was skipped." ]
         }
      }
   ],
   "updated_at" : "20170710T190309Z",
   "weather_file" : "USA_CO_Denver.Intl.AP.725650_TMY3.epw"
}
