{
   "completed_at" : "20170710T190019Z",
   "completed_status" : "Success",
   "created_at" : "2017-07-10 18:42:42 +0000",
   "current_step" : 5,
   "description" : "",
   "eplusout_err" : "Program Version,EnergyPlus, Version 8.7.0-78a111df4a, YMD=2017.07.10 18:51,IDD_Version 8.7.0\n   ************* IDF Context for following error/warning message:\n   ************* Note -- lines truncated at 300 characters, if necessary...\n   *************      5 Building,\n   ************* indicated Name=NECB 2011-SecondarySchool-NECB HDD Method-CAN_BC_Sandspit.711010_CWEC.epw created: 2017-07-10 18:42:50 +0000\n   ************* Only last 1 lines before error line shown.....\n   *************      6   NECB 2011-SecondarySchool-NECB HDD Method-CAN_BC_Sandspit.711010_CWEC.epw created: 2017-07-10 18:42:50 +0000, !- Name\n   ** Warning ** IP: IDF line~6 Alpha Argument length exceeds maximum, will be truncated=  NECB 2011-SecondarySchool-NECB HDD Method-CAN_BC_Sandspit.711010_CWEC.epw created: 2017-07-10 18:42:50 +000\n   **   ~~~   ** Will be processed as Alpha=NECB 2011-SECONDARYSCHOOL-NECB HDD METHOD-CAN_BC_SANDSPIT.711010_CWEC.EPW CREATED: 2017-07-10 18:42:50 +0000\n   ************* IDF Context for following error/warning message:\n   ************* Note -- lines truncated at 300 characters, if necessary...\n   *************    606 Schedule:Week:Daily,\n   ************* indicated Name=Schedule:Week:Daily {adf6e607-ceb0-4e3a-ba1e-b23d1f93292c}\n   ************* Only last 10 lines before error line shown.....\n   *************    607   Schedule:Week:Daily {adf6e607-ceb0-4e3a-ba1e-b23d1f93292c}, !- Name\n   *************    608   Sp-Auditorium_ZN_1_FLR_1 Sys-3 Flr-2 Sch-C HPlcmt-north ZN NECB System 3 PSZ Occ Sch Sunday, !- Sunday Schedule:Day Name\n   *************    609   Sp-Auditorium_ZN_1_FLR_1 Sys-3 Flr-2 Sch-C HPlcmt-north ZN NECB System 3 PSZ Occ Sch Monday, !- Monday Schedule:Day Name\n   *************    610   Sp-Auditorium_ZN_1_FLR_1 Sys-3 Flr-2 Sch-C HPlcmt-north ZN NECB System 3 PSZ Occ Sch Tuesday, !- Tuesday Schedule:Day Name\n   *************    611   Sp-Auditorium_ZN_1_FLR_1 Sys-3 Flr-2 Sch-C HPlcmt-north ZN NECB System 3 PSZ Occ Sch Wednesday, !- Wednesday Schedule:Day Name\n   *************    612   Sp-Auditorium_ZN_1_FLR_1 Sys-3 Flr-2 Sch-C HPlcmt-north ZN NECB System 3 PSZ Occ Sch Thursday, !- Thursday Schedule:Day Name\n   *************    613   Sp-Auditorium_ZN_1_FLR_1 Sys-3 Flr-2 Sch-C HPlcmt-north ZN NECB System 3 PSZ Occ Sch Friday, !- Friday Schedule:Day Name\n   *************    614   Sp-Auditorium_ZN_1_FLR_1 Sys-3 Flr-2 Sch-C HPlcmt-north ZN NECB System 3 PSZ Occ Sch Saturday, !- Saturday Schedule:Day Name\n   *************    615   Sp-Auditorium_ZN_1_FLR_1 Sys-3 Flr-2 Sch-C HPlcmt-north ZN NECB System 3 PSZ Occ Sch Default, !- Holiday Schedule:Day Name\n   *************    616   Sp-Auditorium_ZN_1_FLR_1 Sys-3 Flr-2 Sch-C HPlcmt-north ZN NECB System 3 PSZ Occ Sch Summer Design Day, !- SummerDesignDay Schedule:Day Name\n   ** Warning ** IP: IDF line~616 Alpha Argument length exceeds maximum, will be truncated=  Sp-Auditorium_ZN_1_FLR_1 Sys-3 Flr-2 Sch-C HPlcmt-north ZN NECB System 3 PSZ Occ Sch Summer Design Da\n   **   ~~~   ** Will be processed as Alpha=SP-AUDITORIUM_ZN_1_FLR_1 SYS-3 FLR-2 SCH-C HPLCMT-NORTH ZN NECB SYSTEM 3 PSZ OCC SCH SUMMER DESIGN DAY\n   ************* IDF Context for following error/warning message:\n   ************* Note -- lines truncated at 300 characters, if necessary...\n   *************    606 Schedule:Week:Daily,\n   ************* indicated Name=Schedule:Week:Daily {adf6e607-ceb0-4e3a-ba1e-b23d1f93292c}\n   ************* Only last 10 lines before error line shown.....\n   *************    608   Sp-Auditorium_ZN_1_FLR_1 Sys-3 Flr-2 Sch-C HPlcmt-north ZN NECB System 3 PSZ Occ Sch Sunday, !- Sunday Schedule:Day Name\n   *************    609   Sp-Auditorium_ZN_1_FLR_1 Sys-3 Flr-2 Sch-C HPlcmt-north ZN NECB System 3 PSZ Occ Sch Monday, !- Monday Schedule:Day Name\n   *************    610   Sp-Auditorium_ZN_1_FLR_1 Sys-3 Flr-2 Sch-C HPlcmt-north ZN NECB System 3 PSZ Occ Sch Tuesday, !- Tuesday Schedule:Day Name\n   *************    611   Sp-Auditorium_ZN_1_FLR_1 Sys-3 Flr-2 Sch-C HPlcmt-north ZN NECB System 3 PSZ Occ Sch Wednesday, !- Wednesday Schedule:Day Name\n   *************    612   Sp-Auditorium_ZN_1_FLR_1 Sys-3 Flr-2 Sch-C HPlcmt-north ZN NECB System 3 PSZ Occ Sch Thursday, !- Thursday Schedule:Day Name\n   *************    613   Sp-Auditorium_ZN_1_FLR_1 Sys-3 Flr-2 Sch-C HPlcmt-north ZN NECB System 3 PSZ Occ Sch Friday, !- Friday Schedule:Day Name\n   *************    614   Sp-Auditorium_ZN_1_FLR_1 Sys-3 Flr-2 Sch-C HPlcmt-north ZN NECB System 3 PSZ Occ Sch Saturday, !- Saturday Schedule:Day Name\n   *************    615   Sp-Auditorium_ZN_1_FLR_1 Sys-3 Flr-2 Sch-C HPlcmt-north ZN NECB System 3 PSZ Occ Sch Default, !- Holiday Schedule:Day Name\n   *************    616   Sp-Auditorium_ZN_1_FLR_1 Sys-3 Flr-2 Sch-C HPlcmt-north ZN NECB System 3 PSZ Occ Sch Summer Design Day, !- SummerDesignDay Schedule:Day Name\n   *************    617   Sp-Auditorium_ZN_1_FLR_1 Sys-3 Flr-2 Sch-C HPlcmt-north ZN NECB System 3 PSZ Occ Sch Winter Design Day, !- WinterDesignDay Schedule:Day Name\n   ** Warning ** IP: IDF line~617 Alpha Argument length exceeds maximum, will be truncated=  Sp-Auditorium_ZN_1_FLR_1 Sys-3 Flr-2 Sch-C HPlcmt-north ZN NECB System 3 PSZ Occ Sch Winter Design Da\n   **   ~~~   ** Will be processed as Alpha=SP-AUDITORIUM_ZN_1_FLR_1 SYS-3 FLR-2 SCH-C HPLCMT-NORTH ZN NECB SYSTEM 3 PSZ OCC SCH WINTER DESIGN DAY\n   ************* IDF Context for following error/warning message:\n   ************* Note -- lines truncated at 300 characters, if necessary...\n   *************    637 Schedule:Day:Interval,\n   ************* indicated Name=Sp-Auditorium_ZN_1_FLR_1 Sys-3 Flr-2 Sch-C HPlcmt-north ZN NECB System 3 PSZ Occ Sch Summer Design Day\n   ************* Only last 1 lines before error line shown.....\n   *************    638   Sp-Auditorium_ZN_1_FLR_1 Sys-3 Flr-2 Sch-C HPlcmt-north ZN NECB System 3 PSZ Occ Sch Summer Design Day, !- Name\n   ** Warning ** IP: IDF line~638 Alpha Argument length exceeds maximum, will be truncated=  Sp-Auditorium_ZN_1_FLR_1 Sys-3 Flr-2 Sch-C HPlcmt-north ZN NECB System 3 PSZ Occ Sch Summer Design Da\n   **   ~~~   ** Will be processed as Alpha=SP-AUDITORIUM_ZN_1_FLR_1 SYS-3 FLR-2 SCH-C HPLCMT-NORTH ZN NECB SYSTEM 3 PSZ OCC SCH SUMMER DESIGN DAY\n   ************* IDF Context for following error/warning message:\n   ************* Note -- lines truncated at 300 characters, if necessary...\n   *************    644 Schedule:Day:Interval,\n   ************* indicated Name=Sp-Auditorium_ZN_1_FLR_1 Sys-3 Flr-2 Sch-C HPlcmt-north ZN NECB System 3 PSZ Occ Sch Winter Design Day\n   ************* Only last 1 lines before error line shown.....\n   *************    645   Sp-Auditorium_ZN_1_FLR_1 Sys-3 Flr-2 Sch-C HPlcmt-north ZN NECB System 3 PSZ Occ Sch Winter Design Day, !- Name\n   ** Warning ** IP: IDF line~645 Alpha Argument length exceeds maximum, will be truncated=  Sp-Auditorium_ZN_1_FLR_1 Sys-3 Flr-2 Sch-C HPlcmt-north ZN NECB System 3 PSZ Occ Sch Winter Design Da\n   **   ~~~   ** Will be processed as Alpha=SP-AUDITORIUM_ZN_1_FLR_1 SYS-3 FLR-2 SCH-C HPLCMT-NORTH ZN NECB SYSTEM 3 PSZ OCC SCH WINTER DESIGN DAY\n   ************* IDF Context for following error/warning message:\n   ************* Note -- lines truncated at 300 characters, if necessary...\n   *************   3269 Schedule:Day:Interval,\n   ************* indicated Name=Sp-Corner_Class_1_Pod_1_ZN_1_FLR_1 Sys-3 Flr-2 Sch-D HPlcmt-south ZN NECB System 3 PSZ Occ Sch Sunday\n   ************* Only last 1 lines before error line shown.....\n   *************   3270   Sp-Corner_Class_1_Pod_1_ZN_1_FLR_1 Sys-3 Flr-2 Sch-D HPlcmt-south ZN NECB System 3 PSZ Occ Sch Sunday, !- Name\n   ** Warning ** IP: IDF line~3270 Alpha Argument length exceeds maximum, will be truncated=  Sp-Corner_Class_1_Pod_1_ZN_1_FLR_1 Sys-3 Flr-2 Sch-D HPlcmt-south ZN NECB System 3 PSZ Occ Sch Sunda\n   **   ~~~   ** Will be processed as Alpha=SP-CORNER_CLASS_1_POD_1_ZN_1_FLR_1 SYS-3 FLR-2 SCH-D HPLCMT-SOUTH ZN NECB SYSTEM 3 PSZ OCC SCH SUNDAY\n   ************* IDF Context for following error/warning message:\n   ************* Note -- lines truncated at 300 characters, if necessary...\n   *************   3276 Schedule:Day:Interval,\n   ************* indicated Name=Sp-Corner_Class_1_Pod_1_ZN_1_FLR_1 Sys-3 Flr-2 Sch-D HPlcmt-south ZN NECB System 3 PSZ Occ Sch Monday\n   ************* Only last 1 lines before error line shown.....\n   *************   3277   Sp-Corner_Class_1_Pod_1_ZN_1_FLR_1 Sys-3 Flr-2 Sch-D HPlcmt-south ZN NECB System 3 PSZ Occ Sch Monday, !- Name\n   ** Warning ** IP: IDF line~3277 Alpha Argument length exceeds maximum, will be truncated=  Sp-Corner_Class_1_Pod_1_ZN_1_FLR_1 Sys-3 Flr-2 Sch-D HPlcmt-south ZN NECB System 3 PSZ Occ Sch Monda\n   **   ~~~   ** Will be processed as Alpha=SP-CORNER_CLASS_1_POD_1_ZN_1_FLR_1 SYS-3 FLR-2 SCH-D HPLCMT-SOUTH ZN NECB SYSTEM 3 PSZ OCC SCH MONDAY\n   ************* IDF Context for following error/warning message:\n   ************* Note -- lines truncated at 300 characters, if necessary...\n   *************   3291 Schedule:Day:Interval,\n   ************* indicated Name=Sp-Corner_Class_1_Pod_1_ZN_1_FLR_1 Sys-3 Flr-2 Sch-D HPlcmt-south ZN NECB System 3 PSZ Occ Sch Tuesday\n   ************* Only last 1 lines before error line shown.....\n   *************   3292   Sp-Corner_Class_1_Pod_1_ZN_1_FLR_1 Sys-3 Flr-2 Sch-D HPlcmt-south ZN NECB System 3 PSZ Occ Sch Tuesday, !- Name\n   ** Warning ** IP: IDF line~3292 Alpha Argument length exceeds maximum, will be truncated=  Sp-Corner_Class_1_Pod_1_ZN_1_FLR_1 Sys-3 Flr-2 Sch-D HPlcmt-south ZN NECB System 3 PSZ Occ Sch Tuesda\n   **   ~~~   ** Will be processed as Alpha=SP-CORNER_CLASS_1_POD_1_ZN_1_FLR_1 SYS-3 FLR-2 SCH-D HPLCMT-SOUTH ZN NECB SYSTEM 3 PSZ OCC SCH TUESDAY\n   ************* IDF Context for following error/warning message:\n   ************* Note -- lines truncated at 300 characters, if necessary...\n   *************   3306 Schedule:Day:Interval,\n   ************* indicated Name=Sp-Corner_Class_1_Pod_1_ZN_1_FLR_1 Sys-3 Flr-2 Sch-D HPlcmt-south ZN NECB System 3 PSZ Occ Sch Wednesday\n   ************* Only last 1 lines before error line shown.....\n   *************   3307   Sp-Corner_Class_1_Pod_1_ZN_1_FLR_1 Sys-3 Flr-2 Sch-D HPlcmt-south ZN NECB System 3 PSZ Occ Sch Wednesday, !- Name\n   ** Warning ** IP: IDF line~3307 Alpha Argument length exceeds maximum, will be truncated=  Sp-Corner_Class_1_Pod_1_ZN_1_FLR_1 Sys-3 Flr-2 Sch-D HPlcmt-south ZN NECB System 3 PSZ Occ Sch Wednesda\n   **   ~~~   ** Will be processed as Alpha=SP-CORNER_CLASS_1_POD_1_ZN_1_FLR_1 SYS-3 FLR-2 SCH-D HPLCMT-SOUTH ZN NECB SYSTEM 3 PSZ OCC SCH WEDNESDAY\n   ************* IDF Context for following error/warning message:\n   ************* Note -- lines truncated at 300 characters, if necessary...\n   *************   3321 Schedule:Day:Interval,\n   ************* indicated Name=Sp-Corner_Class_1_Pod_1_ZN_1_FLR_1 Sys-3 Flr-2 Sch-D HPlcmt-south ZN NECB System 3 PSZ Occ Sch Thursday\n   ************* Only last 1 lines before error line shown.....\n   *************   3322   Sp-Corner_Class_1_Pod_1_ZN_1_FLR_1 Sys-3 Flr-2 Sch-D HPlcmt-south ZN NECB System 3 PSZ Occ Sch Thursday, !- Name\n   ** Warning ** IP: IDF line~3322 Alpha Argument length exceeds maximum, will be truncated=  Sp-Corner_Class_1_Pod_1_ZN_1_FLR_1 Sys-3 Flr-2 Sch-D HPlcmt-south ZN NECB System 3 PSZ Occ Sch Thursda\n   **   ~~~   ** Will be processed as Alpha=SP-CORNER_CLASS_1_POD_1_ZN_1_FLR_1 SYS-3 FLR-2 SCH-D HPLCMT-SOUTH ZN NECB SYSTEM 3 PSZ OCC SCH THURSDAY\n   ************* IDF Context for following error/warning message:\n   ************* Note -- lines truncated at 300 characters, if necessary...\n   *************   3336 Schedule:Day:Interval,\n   ************* indicated Name=Sp-Corner_Class_1_Pod_1_ZN_1_FLR_1 Sys-3 Flr-2 Sch-D HPlcmt-south ZN NECB System 3 PSZ Occ Sch Friday\n   ************* Only last 1 lines before error line shown.....\n   *************   3337   Sp-Corner_Class_1_Pod_1_ZN_1_FLR_1 Sys-3 Flr-2 Sch-D HPlcmt-south ZN NECB System 3 PSZ Occ Sch Friday, !- Name\n   ** Warning ** IP: IDF line~3337 Alpha Argument length exceeds maximum, will be truncated=  Sp-Corner_Class_1_Pod_1_ZN_1_FLR_1 Sys-3 Flr-2 Sch-D HPlcmt-south ZN NECB System 3 PSZ Occ Sch Frida\n   **   ~~~   ** Will be processed as Alpha=SP-CORNER_CLASS_1_POD_1_ZN_1_FLR_1 SYS-3 FLR-2 SCH-D HPLCMT-SOUTH ZN NECB SYSTEM 3 PSZ OCC SCH FRIDAY\n   ************* IDF Context for following error/warning message:\n   ************* Note -- lines truncated at 300 characters, if necessary...\n   *************   3351 Schedule:Day:Interval,\n   ************* indicated Name=Sp-Corner_Class_1_Pod_1_ZN_1_FLR_1 Sys-3 Flr-2 Sch-D HPlcmt-south ZN NECB System 3 PSZ Occ Sch Saturday\n   ************* Only last 1 lines before error line shown.....\n   *************   3352   Sp-Corner_Class_1_Pod_1_ZN_1_FLR_1 Sys-3 Flr-2 Sch-D HPlcmt-south ZN NECB System 3 PSZ Occ Sch Saturday, !- Name\n   ** Warning ** IP: IDF line~3352 Alpha Argument length exceeds maximum, will be truncated=  Sp-Corner_Class_1_Pod_1_ZN_1_FLR_1 Sys-3 Flr-2 Sch-D HPlcmt-south ZN NECB System 3 PSZ Occ Sch Saturda\n   **   ~~~   ** Will be processed as Alpha=SP-CORNER_CLASS_1_POD_1_ZN_1_FLR_1 SYS-3 FLR-2 SCH-D HPLCMT-SOUTH ZN NECB SYSTEM 3 PSZ OCC SCH SATURDAY\n   ************* IDF Context for following error/warning message:\n   ************* Note -- lines truncated at 300 characters, if necessary...\n   *************   3358 Schedule:Week:Daily,\n   ************* indicated Name=Schedule:Week:Daily {239d4818-c0a4-46f1-92a6-8f2dd2db8aaa}\n   ************* Only last 2 lines before error line shown.....\n   *************   3359   Schedule:Week:Daily {239d4818-c0a4-46f1-92a6-8f2dd2db8aaa}, !- Name\n   *************   3360   Sp-Corner_Class_1_Pod_1_ZN_1_FLR_1 Sys-3 Flr-2 Sch-D HPlcmt-south ZN NECB System 3 PSZ Occ Sch Sunday, !- Sunday Schedule:Day Name\n   ** Warning ** IP: IDF line~3360 Alpha Argument length exceeds maximum, will be truncated=  Sp-Corner_Class_1_Pod_1_ZN_1_FLR_1 Sys-3 Flr-2 Sch-D HPlcmt-south ZN NECB System 3 PSZ Occ Sch Sunda\n   **   ~~~   ** Will be processed as Alpha=SP-CORNER_CLASS_1_POD_1_ZN_1_FLR_1 SYS-3 FLR-2 SCH-D HPLCMT-SOUTH ZN NECB SYSTEM 3 PSZ OCC SCH SUNDAY\n   ************* IDF Context for following error/warning message:\n   ************* Note -- lines truncated at 300 characters, if necessary...\n   *************   3358 Schedule:Week:Daily,\n   ************* indicated Name=Schedule:Week:Daily {239d4818-c0a4-46f1-92a6-8f2dd2db8aaa}\n   ************* Only last 3 lines before error line shown.....\n   *************   3359   Schedule:Week:Daily {239d4818-c0a4-46f1-92a6-8f2dd2db8aaa}, !- Name\n   *************   3360   Sp-Corner_Class_1_Pod_1_ZN_1_FLR_1 Sys-3 Flr-2 Sch-D HPlcmt-south ZN NECB System 3 PSZ Occ Sch Sunday, !- Sunday Schedule:Day Name\n   *************   3361   Sp-Corner_Class_1_Pod_1_ZN_1_FLR_1 Sys-3 Flr-2 Sch-D HPlcmt-south ZN NECB System 3 PSZ Occ Sch Monday, !- Monday Schedule:Day Name\n   ** Warning ** IP: IDF line~3361 Alpha Argument length exceeds maximum, will be truncated=  Sp-Corner_Class_1_Pod_1_ZN_1_FLR_1 Sys-3 Flr-2 Sch-D HPlcmt-south ZN NECB System 3 PSZ Occ Sch Monda\n   **   ~~~   ** Will be processed as Alpha=SP-CORNER_CLASS_1_POD_1_ZN_1_FLR_1 SYS-3 FLR-2 SCH-D HPLCMT-SOUTH ZN NECB SYSTEM 3 PSZ OCC SCH MONDAY\n   ************* IDF Context for following error/warning message:\n   ************* Note -- lines truncated at 300 characters, if necessary...\n   *************   3358 Schedule:Week:Daily,\n   ************* indicated Name=Schedule:Week:Daily {239d4818-c0a4-46f1-92a6-8f2dd2db8aaa}\n   ************* Only last 4 lines before error line shown.....\n   *************   3359   Schedule:Week:Daily {239d4818-c0a4-46f1-92a6-8f2dd2db8aaa}, !- Name\n   *************   3360   Sp-Corner_Class_1_Pod_1_ZN_1_FLR_1 Sys-3 Flr-2 Sch-D HPlcmt-south ZN NECB System 3 PSZ Occ Sch Sunday, !- Sunday Schedule:Day Name\n   *************   3361   Sp-Corner_Class_1_Pod_1_ZN_1_FLR_1 Sys-3 Flr-2 Sch-D HPlcmt-south ZN NECB System 3 PSZ Occ Sch Monday, !- Monday Schedule:Day Name\n   *************   3362   Sp-Corner_Class_1_Pod_1_ZN_1_FLR_1 Sys-3 Flr-2 Sch-D HPlcmt-south ZN NECB System 3 PSZ Occ Sch Tuesday, !- Tuesday Schedule:Day Name\n   ** Warning ** IP: IDF line~3362 Alpha Argument length exceeds maximum, will be truncated=  Sp-Corner_Class_1_Pod_1_ZN_1_FLR_1 Sys-3 Flr-2 Sch-D HPlcmt-south ZN NECB System 3 PSZ Occ Sch Tuesda\n   **   ~~~   ** Will be processed as Alpha=SP-CORNER_CLASS_1_POD_1_ZN_1_FLR_1 SYS-3 FLR-2 SCH-D HPLCMT-SOUTH ZN NECB SYSTEM 3 PSZ OCC SCH TUESDAY\n   ************* IDF Context for following error/warning message:\n   ************* Note -- lines truncated at 300 characters, if necessary...\n   *************   3358 Schedule:Week:Daily,\n   ************* indicated Name=Schedule:Week:Daily {239d4818-c0a4-46f1-92a6-8f2dd2db8aaa}\n   ************* Only last 5 lines before error line shown.....\n   *************   3359   Schedule:Week:Daily {239d4818-c0a4-46f1-92a6-8f2dd2db8aaa}, !- Name\n   *************   3360   Sp-Corner_Class_1_Pod_1_ZN_1_FLR_1 Sys-3 Flr-2 Sch-D HPlcmt-south ZN NECB System 3 PSZ Occ Sch Sunday, !- Sunday Schedule:Day Name\n   *************   3361   Sp-Corner_Class_1_Pod_1_ZN_1_FLR_1 Sys-3 Flr-2 Sch-D HPlcmt-south ZN NECB System 3 PSZ Occ Sch Monday, !- Monday Schedule:Day Name\n   *************   3362   Sp-Corner_Class_1_Pod_1_ZN_1_FLR_1 Sys-3 Flr-2 Sch-D HPlcmt-south ZN NECB System 3 PSZ Occ Sch Tuesday, !- Tuesday Schedule:Day Name\n   *************   3363   Sp-Corner_Class_1_Pod_1_ZN_1_FLR_1 Sys-3 Flr-2 Sch-D HPlcmt-south ZN NECB System 3 PSZ Occ Sch Wednesday, !- Wednesday Schedule:Day Name\n   ** Warning ** IP: IDF line~3363 Alpha Argument length exceeds maximum, will be truncated=  Sp-Corner_Class_1_Pod_1_ZN_1_FLR_1 Sys-3 Flr-2 Sch-D HPlcmt-south ZN NECB System 3 PSZ Occ Sch Wednesda\n   **   ~~~   ** Will be processed as Alpha=SP-CORNER_CLASS_1_POD_1_ZN_1_FLR_1 SYS-3 FLR-2 SCH-D HPLCMT-SOUTH ZN NECB SYSTEM 3 PSZ OCC SCH WEDNESDAY\n   ************* IDF Context for following error/warning message:\n   ************* Note -- lines truncated at 300 characters, if necessary...\n   *************   3358 Schedule:Week:Daily,\n   ************* indicated Name=Schedule:Week:Daily {239d4818-c0a4-46f1-92a6-8f2dd2db8aaa}\n   ************* Only last 6 lines before error line shown.....\n   *************   3359   Schedule:Week:Daily {239d4818-c0a4-46f1-92a6-8f2dd2db8aaa}, !- Name\n   *************   3360   Sp-Corner_Class_1_Pod_1_ZN_1_FLR_1 Sys-3 Flr-2 Sch-D HPlcmt-south ZN NECB System 3 PSZ Occ Sch Sunday, !- Sunday Schedule:Day Name\n   *************   3361   Sp-Corner_Class_1_Pod_1_ZN_1_FLR_1 Sys-3 Flr-2 Sch-D HPlcmt-south ZN NECB System 3 PSZ Occ Sch Monday, !- Monday Schedule:Day Name\n   *************   3362   Sp-Corner_Class_1_Pod_1_ZN_1_FLR_1 Sys-3 Flr-2 Sch-D HPlcmt-south ZN NECB System 3 PSZ Occ Sch Tuesday, !- Tuesday Schedule:Day Name\n   *************   3363   Sp-Corner_Class_1_Pod_1_ZN_1_FLR_1 Sys-3 Flr-2 Sch-D HPlcmt-south ZN NECB System 3 PSZ Occ Sch Wednesday, !- Wednesday Schedule:Day Name\n   *************   3364   Sp-Corner_Class_1_Pod_1_ZN_1_FLR_1 Sys-3 Flr-2 Sch-D HPlcmt-south ZN NECB System 3 PSZ Occ Sch Thursday, !- Thursday Schedule:Day Name\n   ** Warning ** IP: IDF line~3364 Alpha Argument length exceeds maximum, will be truncated=  Sp-Corner_Class_1_Pod_1_ZN_1_FLR_1 Sys-3 Flr-2 Sch-D HPlcmt-south ZN NECB System 3 PSZ Occ Sch Thursda\n   **   ~~~   ** Will be processed as Alpha=SP-CORNER_CLASS_1_POD_1_ZN_1_FLR_1 SYS-3 FLR-2 SCH-D HPLCMT-SOUTH ZN NECB SYSTEM 3 PSZ OCC SCH THURSDAY\n   ************* IDF Context for following error/warning message:\n   ************* Note -- lines truncated at 300 characters, if necessary...\n   *************   3358 Schedule:Week:Daily,\n   ************* indicated Name=Schedule:Week:Daily {239d4818-c0a4-46f1-92a6-8f2dd2db8aaa}\n   ************* Only last 7 lines before error line shown.....\n   *************   3359   Schedule:Week:Daily {239d4818-c0a4-46f1-92a6-8f2dd2db8aaa}, !- Name\n   *************   3360   Sp-Corner_Class_1_Pod_1_ZN_1_FLR_1 Sys-3 Flr-2 Sch-D HPlcmt-south ZN NECB System 3 PSZ Occ Sch Sunday, !- Sunday Schedule:Day Name\n   *************   3361   Sp-Corner_Class_1_Pod_1_ZN_1_FLR_1 Sys-3 Flr-2 Sch-D HPlcmt-south ZN NECB System 3 PSZ Occ Sch Monday, !- Monday Schedule:Day Name\n   *************   3362   Sp-Corner_Class_1_Pod_1_ZN_1_FLR_1 Sys-3 Flr-2 Sch-D HPlcmt-south ZN NECB System 3 PSZ Occ Sch Tuesday, !- Tuesday Schedule:Day Name\n   *************   3363   Sp-Corner_Class_1_Pod_1_ZN_1_FLR_1 Sys-3 Flr-2 Sch-D HPlcmt-south ZN NECB System 3 PSZ Occ Sch Wednesday, !- Wednesday Schedule:Day Name\n   *************   3364   Sp-Corner_Class_1_Pod_1_ZN_1_FLR_1 Sys-3 Flr-2 Sch-D HPlcmt-south ZN NECB System 3 PSZ Occ Sch Thursday, !- Thursday Schedule:Day Name\n   *************   3365   Sp-Corner_Class_1_Pod_1_ZN_1_FLR_1 Sys-3 Flr-2 Sch-D HPlcmt-south ZN NECB System 3 PSZ Occ Sch Friday, !- Friday Schedule:Day Name\n   ** Warning ** IP: IDF line~3365 Alpha Argument length exceeds maximum, will be truncated=  Sp-Corner_Class_1_Pod_1_ZN_1_FLR_1 Sys-3 Flr-2 Sch-D HPlcmt-south ZN NECB System 3 PSZ Occ Sch Frida\n   **   ~~~   ** Will be processed as Alpha=SP-CORNER_CLASS_1_POD_1_ZN_1_FLR_1 SYS-3 FLR-2 SCH-D HPLCMT-SOUTH ZN NECB SYSTEM 3 PSZ OCC SCH FRIDAY\n   ************* IDF Context for following error/warning message:\n   ************* Note -- lines truncated at 300 characters, if necessary...\n   *************   3358 Schedule:Week:Daily,\n   ************* indicated Name=Schedule:Week:Daily {239d4818-c0a4-46f1-92a6-8f2dd2db8aaa}\n   ************* Only last 8 lines before error line shown.....\n   *************   3359   Schedule:Week:Daily {239d4818-c0a4-46f1-92a6-8f2dd2db8aaa}, !- Name\n   *************   3360   Sp-Corner_Class_1_Pod_1_ZN_1_FLR_1 Sys-3 Flr-2 Sch-D HPlcmt-south ZN NECB System 3 PSZ Occ Sch Sunday, !- Sunday Schedule:Day Name\n   *************   3361   Sp-Corner_Class_1_Pod_1_ZN_1_FLR_1 Sys-3 Flr-2 Sch-D HPlcmt-south ZN NECB System 3 PSZ Occ Sch Monday, !- Monday Schedule:Day Name\n   *************   3362   Sp-Corner_Class_1_Pod_1_ZN_1_FLR_1 Sys-3 Flr-2 Sch-D HPlcmt-south ZN NECB System 3 PSZ Occ Sch Tuesday, !- Tuesday Schedule:Day Name\n   *************   3363   Sp-Corner_Class_1_Pod_1_ZN_1_FLR_1 Sys-3 Flr-2 Sch-D HPlcmt-south ZN NECB System 3 PSZ Occ Sch Wednesday, !- Wednesday Schedule:Day Name\n   *************   3364   Sp-Corner_Class_1_Pod_1_ZN_1_FLR_1 Sys-3 Flr-2 Sch-D HPlcmt-south ZN NECB System 3 PSZ Occ Sch Thursday, !- Thursday Schedule:Day Name\n   *************   3365   Sp-Corner_Class_1_Pod_1_ZN_1_FLR_1 Sys-3 Flr-2 Sch-D HPlcmt-south ZN NECB System 3 PSZ Occ Sch Friday, !- Friday Schedule:Day Name\n   *************   3366   Sp-Corner_Class_1_Pod_1_ZN_1_FLR_1 Sys-3 Flr-2 Sch-D HPlcmt-south ZN NECB System 3 PSZ Occ Sch Saturday, !- Saturday Schedule:Day Name\n   ** Warning ** IP: IDF line~3366 Alpha Argument length exceeds maximum, will be truncated=  Sp-Corner_Class_1_Pod_1_ZN_1_FLR_1 Sys-3 Flr-2 Sch-D HPlcmt-south ZN NECB System 3 PSZ Occ Sch Saturda\n   **   ~~~   ** Will be processed as Alpha=SP-CORNER_CLASS_1_POD_1_ZN_1_FLR_1 SYS-3 FLR-2 SCH-D HPLCMT-SOUTH ZN NECB SYSTEM 3 PSZ OCC SCH SATURDAY\n   ************* IDF Context for following error/warning message:\n   ************* Note -- lines truncated at 300 characters, if necessary...\n   *************   3358 Schedule:Week:Daily,\n   ************* indicated Name=Schedule:Week:Daily {239d4818-c0a4-46f1-92a6-8f2dd2db8aaa}\n   ************* Only last 9 lines before error line shown.....\n   *************   3359   Schedule:Week:Daily {239d4818-c0a4-46f1-92a6-8f2dd2db8aaa}, !- Name\n   *************   3360   Sp-Corner_Class_1_Pod_1_ZN_1_FLR_1 Sys-3 Flr-2 Sch-D HPlcmt-south ZN NECB System 3 PSZ Occ Sch Sunday, !- Sunday Schedule:Day Name\n   *************   3361   Sp-Corner_Class_1_Pod_1_ZN_1_FLR_1 Sys-3 Flr-2 Sch-D HPlcmt-south ZN NECB System 3 PSZ Occ Sch Monday, !- Monday Schedule:Day Name\n   *************   3362   Sp-Corner_Class_1_Pod_1_ZN_1_FLR_1 Sys-3 Flr-2 Sch-D HPlcmt-south ZN NECB System 3 PSZ Occ Sch Tuesday, !- Tuesday Schedule:Day Name\n   *************   3363   Sp-Corner_Class_1_Pod_1_ZN_1_FLR_1 Sys-3 Flr-2 Sch-D HPlcmt-south ZN NECB System 3 PSZ Occ Sch Wednesday, !- Wednesday Schedule:Day Name\n   *************   3364   Sp-Corner_Class_1_Pod_1_ZN_1_FLR_1 Sys-3 Flr-2 Sch-D HPlcmt-south ZN NECB System 3 PSZ Occ Sch Thursday, !- Thursday Schedule:Day Name\n   *************   3365   Sp-Corner_Class_1_Pod_1_ZN_1_FLR_1 Sys-3 Flr-2 Sch-D HPlcmt-south ZN NECB System 3 PSZ Occ Sch Friday, !- Friday Schedule:Day Name\n   *************   3366   Sp-Corner_Class_1_Pod_1_ZN_1_FLR_1 Sys-3 Flr-2 Sch-D HPlcmt-south ZN NECB System 3 PSZ Occ Sch Saturday, !- Saturday Schedule:Day Name\n   *************   3367   Sp-Corner_Class_1_Pod_1_ZN_1_FLR_1 Sys-3 Flr-2 Sch-D HPlcmt-south ZN NECB System 3 PSZ Occ Sch Default, !- Holiday Schedule:Day Name\n   ** Warning ** IP: IDF line~3367 Alpha Argument length exceeds maximum, will be truncated=  Sp-Corner_Class_1_Pod_1_ZN_1_FLR_1 Sys-3 Flr-2 Sch-D HPlcmt-south ZN NECB System 3 PSZ Occ Sch Defaul\n   **   ~~~   ** Will be processed as Alpha=SP-CORNER_CLASS_1_POD_1_ZN_1_FLR_1 SYS-3 FLR-2 SCH-D HPLCMT-SOUTH ZN NECB SYSTEM 3 PSZ OCC SCH DEFAULT\n   ************* IDF Context for following error/warning message:\n   ************* Note -- lines truncated at 300 characters, if necessary...\n   *************   3358 Schedule:Week:Daily,\n   ************* indicated Name=Schedule:Week:Daily {239d4818-c0a4-46f1-92a6-8f2dd2db8aaa}\n   ************* Only last 10 lines before error line shown.....\n   *************   3359   Schedule:Week:Daily {239d4818-c0a4-46f1-92a6-8f2dd2db8aaa}, !- Name\n   *************   3360   Sp-Corner_Class_1_Pod_1_ZN_1_FLR_1 Sys-3 Flr-2 Sch-D HPlcmt-south ZN NECB System 3 PSZ Occ Sch Sunday, !- Sunday Schedule:Day Name\n   *************   3361   Sp-Corner_Class_1_Pod_1_ZN_1_FLR_1 Sys-3 Flr-2 Sch-D HPlcmt-south ZN NECB System 3 PSZ Occ Sch Monday, !- Monday Schedule:Day Name\n   *************   3362   Sp-Corner_Class_1_Pod_1_ZN_1_FLR_1 Sys-3 Flr-2 Sch-D HPlcmt-south ZN NECB System 3 PSZ Occ Sch Tuesday, !- Tuesday Schedule:Day Name\n   *************   3363   Sp-Corner_Class_1_Pod_1_ZN_1_FLR_1 Sys-3 Flr-2 Sch-D HPlcmt-south ZN NECB System 3 PSZ Occ Sch Wednesday, !- Wednesday Schedule:Day Name\n   *************   3364   Sp-Corner_Class_1_Pod_1_ZN_1_FLR_1 Sys-3 Flr-2 Sch-D HPlcmt-south ZN NECB System 3 PSZ Occ Sch Thursday, !- Thursday Schedule:Day Name\n   *************   3365   Sp-Corner_Class_1_Pod_1_ZN_1_FLR_1 Sys-3 Flr-2 Sch-D HPlcmt-south ZN NECB System 3 PSZ Occ Sch Friday, !- Friday Schedule:Day Name\n   *************   3366   Sp-Corner_Class_1_Pod_1_ZN_1_FLR_1 Sys-3 Flr-2 Sch-D HPlcmt-south ZN NECB System 3 PSZ Occ Sch Saturday, !- Saturday Schedule:Day Name\n   *************   3367   Sp-Corner_Class_1_Pod_1_ZN_1_FLR_1 Sys-3 Flr-2 Sch-D HPlcmt-south ZN NECB System 3 PSZ Occ Sch Default, !- Holiday Schedule:Day Name\n   *************   3368   Sp-Corner_Class_1_Pod_1_ZN_1_FLR_1 Sys-3 Flr-2 Sch-D HPlcmt-south ZN NECB System 3 PSZ Occ Sch Summer Design Day, !- SummerDesignDay Schedule:Day Name\n   ** Warning ** IP: IDF line~3368 Alpha Argument length exceeds maximum, will be truncated=  Sp-Corner_Class_1_Pod_1_ZN_1_FLR_1 Sys-3 Flr-2 Sch-D HPlcmt-south ZN NECB System 3 PSZ Occ Sch Summer Design Da\n   **   ~~~   ** Will be processed as Alpha=SP-CORNER_CLASS_1_POD_1_ZN_1_FLR_1 SYS-3 FLR-2 SCH-D HPLCMT-SOUTH ZN NECB SYSTEM 3 PSZ OCC SCH SUMMER DESIGN DAY\n   ************* IDF Context for following error/warning message:\n   ************* Note -- lines truncated at 300 characters, if necessary...\n   *************   3358 Schedule:Week:Daily,\n   ************* indicated Name=Schedule:Week:Daily {239d4818-c0a4-46f1-92a6-8f2dd2db8aaa}\n   ************* Only last 10 lines before error line shown.....\n   *************   3360   Sp-Corner_Class_1_Pod_1_ZN_1_FLR_1 Sys-3 Flr-2 Sch-D HPlcmt-south ZN NECB System 3 PSZ Occ Sch Sunday, !- Sunday Schedule:Day Name\n   *************   3361   Sp-Corner_Class_1_Pod_1_ZN_1_FLR_1 Sys-3 Flr-2 Sch-D HPlcmt-south ZN NECB System 3 PSZ Occ Sch Monday, !- Monday Schedule:Day Name\n   *************   3362   Sp-Corner_Class_1_Pod_1_ZN_1_FLR_1 Sys-3 Flr-2 Sch-D HPlcmt-south ZN NECB System 3 PSZ Occ Sch Tuesday, !- Tuesday Schedule:Day Name\n   *************   3363   Sp-Corner_Class_1_Pod_1_ZN_1_FLR_1 Sys-3 Flr-2 Sch-D HPlcmt-south ZN NECB System 3 PSZ Occ Sch Wednesday, !- Wednesday Schedule:Day Name\n   *************   3364   Sp-Corner_Class_1_Pod_1_ZN_1_FLR_1 Sys-3 Flr-2 Sch-D HPlcmt-south ZN NECB System 3 PSZ Occ Sch Thursday, !- Thursday Schedule:Day Name\n   *************   3365   Sp-Corner_Class_1_Pod_1_ZN_1_FLR_1 Sys-3 Flr-2 Sch-D HPlcmt-south ZN NECB System 3 PSZ Occ Sch Friday, !- Friday Schedule:Day Name\n   *************   3366   Sp-Corner_Class_1_Pod_1_ZN_1_FLR_1 Sys-3 Flr-2 Sch-D HPlcmt-south ZN NECB System 3 PSZ Occ Sch Saturday, !- Saturday Schedule:Day Name\n   *************   3367   Sp-Corner_Class_1_Pod_1_ZN_1_FLR_1 Sys-3 Flr-2 Sch-D HPlcmt-south ZN NECB System 3 PSZ Occ Sch Default, !- Holiday Schedule:Day Name\n   *************   3368   Sp-Corner_Class_1_Pod_1_ZN_1_FLR_1 Sys-3 Flr-2 Sch-D HPlcmt-south ZN NECB System 3 PSZ Occ Sch Summer Design Day, !- SummerDesignDay Schedule:Day Name\n   *************   3369   Sp-Corner_Class_1_Pod_1_ZN_1_FLR_1 Sys-3 Flr-2 Sch-D HPlcmt-south ZN NECB System 3 PSZ Occ Sch Winter Design Day, !- WinterDesignDay Schedule:Day Name\n   ** Warning ** IP: IDF line~3369 Alpha Argument length exceeds maximum, will be truncated=  Sp-Corner_Class_1_Pod_1_ZN_1_FLR_1 Sys-3 Flr-2 Sch-D HPlcmt-south ZN NECB System 3 PSZ Occ Sch Winter Design Da\n   **   ~~~   ** Will be processed as Alpha=SP-CORNER_CLASS_1_POD_1_ZN_1_FLR_1 SYS-3 FLR-2 SCH-D HPLCMT-SOUTH ZN NECB SYSTEM 3 PSZ OCC SCH WINTER DESIGN DAY\n   ************* IDF Context for following error/warning message:\n   ************* Note -- lines truncated at 300 characters, if necessary...\n   *************   3358 Schedule:Week:Daily,\n   ************* indicated Name=Schedule:Week:Daily {239d4818-c0a4-46f1-92a6-8f2dd2db8aaa}\n   ************* Only last 10 lines before error line shown.....\n   *************   3361   Sp-Corner_Class_1_Pod_1_ZN_1_FLR_1 Sys-3 Flr-2 Sch-D HPlcmt-south ZN NECB System 3 PSZ Occ Sch Monday, !- Monday Schedule:Day Name\n   *************   3362   Sp-Corner_Class_1_Pod_1_ZN_1_FLR_1 Sys-3 Flr-2 Sch-D HPlcmt-south ZN NECB System 3 PSZ Occ Sch Tuesday, !- Tuesday Schedule:Day Name\n   *************   3363   Sp-Corner_Class_1_Pod_1_ZN_1_FLR_1 Sys-3 Flr-2 Sch-D HPlcmt-south ZN NECB System 3 PSZ Occ Sch Wednesday, !- Wednesday Schedule:Day Name\n   *************   3364   Sp-Corner_Class_1_Pod_1_ZN_1_FLR_1 Sys-3 Flr-2 Sch-D HPlcmt-south ZN NECB System 3 PSZ Occ Sch Thursday, !- Thursday Schedule:Day Name\n   *************   3365   Sp-Corner_Class_1_Pod_1_ZN_1_FLR_1 Sys-3 Flr-2 Sch-D HPlcmt-south ZN NECB System 3 PSZ Occ Sch Friday, !- Friday Schedule:Day Name\n   *************   3366   Sp-Corner_Class_1_Pod_1_ZN_1_FLR_1 Sys-3 Flr-2 Sch-D HPlcmt-south ZN NECB System 3 PSZ Occ Sch Saturday, !- Saturday Schedule:Day Name\n   *************   3367   Sp-Corner_Class_1_Pod_1_ZN_1_FLR_1 Sys-3 Flr-2 Sch-D HPlcmt-south ZN NECB System 3 PSZ Occ Sch Default, !- Holiday Schedule:Day Name\n   *************   3368   Sp-Corner_Class_1_Pod_1_ZN_1_FLR_1 Sys-3 Flr-2 Sch-D HPlcmt-south ZN NECB System 3 PSZ Occ Sch Summer Design Day, !- SummerDesignDay Schedule:Day Name\n   *************   3369   Sp-Corner_Class_1_Pod_1_ZN_1_FLR_1 Sys-3 Flr-2 Sch-D HPlcmt-south ZN NECB System 3 PSZ Occ Sch Winter Design Day, !- WinterDesignDay Schedule:Day Name\n   *************   3370   Sp-Corner_Class_1_Pod_1_ZN_1_FLR_1 Sys-3 Flr-2 Sch-D HPlcmt-south ZN NECB System 3 PSZ Occ Sch Default, !- CustomDay1 Schedule:Day Name\n   ** Warning ** IP: IDF line~3370 Alpha Argument length exceeds maximum, will be truncated=  Sp-Corner_Class_1_Pod_1_ZN_1_FLR_1 Sys-3 Flr-2 Sch-D HPlcmt-south ZN NECB System 3 PSZ Occ Sch Defaul\n   **   ~~~   ** Will be processed as Alpha=SP-CORNER_CLASS_1_POD_1_ZN_1_FLR_1 SYS-3 FLR-2 SCH-D HPLCMT-SOUTH ZN NECB SYSTEM 3 PSZ OCC SCH DEFAULT\n   ************* IDF Context for following error/warning message:\n   ************* Note -- lines truncated at 300 characters, if necessary...\n   *************   3358 Schedule:Week:Daily,\n   ************* indicated Name=Schedule:Week:Daily {239d4818-c0a4-46f1-92a6-8f2dd2db8aaa}\n   ************* Only last 10 lines before error line shown.....\n   *************   3362   Sp-Corner_Class_1_Pod_1_ZN_1_FLR_1 Sys-3 Flr-2 Sch-D HPlcmt-south ZN NECB System 3 PSZ Occ Sch Tuesday, !- Tuesday Schedule:Day Name\n   *************   3363   Sp-Corner_Class_1_Pod_1_ZN_1_FLR_1 Sys-3 Flr-2 Sch-D HPlcmt-south ZN NECB System 3 PSZ Occ Sch Wednesday, !- Wednesday Schedule:Day Name\n   *************   3364   Sp-Corner_Class_1_Pod_1_ZN_1_FLR_1 Sys-3 Flr-2 Sch-D HPlcmt-south ZN NECB System 3 PSZ Occ Sch Thursday, !- Thursday Schedule:Day Name\n   *************   3365   Sp-Corner_Class_1_Pod_1_ZN_1_FLR_1 Sys-3 Flr-2 Sch-D HPlcmt-south ZN NECB System 3 PSZ Occ Sch Friday, !- Friday Schedule:Day Name\n   *************   3366   Sp-Corner_Class_1_Pod_1_ZN_1_FLR_1 Sys-3 Flr-2 Sch-D HPlcmt-south ZN NECB System 3 PSZ Occ Sch Saturday, !- Saturday Schedule:Day Name\n   *************   3367   Sp-Corner_Class_1_Pod_1_ZN_1_FLR_1 Sys-3 Flr-2 Sch-D HPlcmt-south ZN NECB System 3 PSZ Occ Sch Default, !- Holiday Schedule:Day Name\n   *************   3368   Sp-Corner_Class_1_Pod_1_ZN_1_FLR_1 Sys-3 Flr-2 Sch-D HPlcmt-south ZN NECB System 3 PSZ Occ Sch Summer Design Day, !- SummerDesignDay Schedule:Day Name\n   *************   3369   Sp-Corner_Class_1_Pod_1_ZN_1_FLR_1 Sys-3 Flr-2 Sch-D HPlcmt-south ZN NECB System 3 PSZ Occ Sch Winter Design Day, !- WinterDesignDay Schedule:Day Name\n   *************   3370   Sp-Corner_Class_1_Pod_1_ZN_1_FLR_1 Sys-3 Flr-2 Sch-D HPlcmt-south ZN NECB System 3 PSZ Occ Sch Default, !- CustomDay1 Schedule:Day Name\n   *************   3371   Sp-Corner_Class_1_Pod_1_ZN_1_FLR_1 Sys-3 Flr-2 Sch-D HPlcmt-south ZN NECB System 3 PSZ Occ Sch Default; !- CustomDay2 Schedule:Day Name\n   ** Warning ** IP: IDF line~3371 Alpha Argument length exceeds maximum, will be truncated=  Sp-Corner_Class_1_Pod_1_ZN_1_FLR_1 Sys-3 Flr-2 Sch-D HPlcmt-south ZN NECB System 3 PSZ Occ Sch Defaul\n   **   ~~~   ** Will be processed as Alpha=SP-CORNER_CLASS_1_POD_1_ZN_1_FLR_1 SYS-3 FLR-2 SCH-D HPLCMT-SOUTH ZN NECB SYSTEM 3 PSZ OCC SCH DEFAULT\n   ************* IDF Context for following error/warning message:\n   ************* Note -- lines truncated at 300 characters, if necessary...\n   *************   3382 Schedule:Day:Interval,\n   ************* indicated Name=Sp-Corner_Class_1_Pod_1_ZN_1_FLR_1 Sys-3 Flr-2 Sch-D HPlcmt-south ZN NECB System 3 PSZ Occ Sch Default\n   ************* Only last 1 lines before error line shown.....\n   *************   3383   Sp-Corner_Class_1_Pod_1_ZN_1_FLR_1 Sys-3 Flr-2 Sch-D HPlcmt-south ZN NECB System 3 PSZ Occ Sch Default, !- Name\n   ** Warning ** IP: IDF line~3383 Alpha Argument length exceeds maximum, will be truncated=  Sp-Corner_Class_1_Pod_1_ZN_1_FLR_1 Sys-3 Flr-2 Sch-D HPlcmt-south ZN NECB System 3 PSZ Occ Sch Defaul\n   **   ~~~   ** Will be processed as Alpha=SP-CORNER_CLASS_1_POD_1_ZN_1_FLR_1 SYS-3 FLR-2 SCH-D HPLCMT-SOUTH ZN NECB SYSTEM 3 PSZ OCC SCH DEFAULT\n   ************* IDF Context for following error/warning message:\n   ************* Note -- lines truncated at 300 characters, if necessary...\n   *************   3389 Schedule:Day:Interval,\n   ************* indicated Name=Sp-Corner_Class_1_Pod_1_ZN_1_FLR_1 Sys-3 Flr-2 Sch-D HPlcmt-south ZN NECB System 3 PSZ Occ Sch Summer Design Day\n   ************* Only last 1 lines before error line shown.....\n   *************   3390   Sp-Corner_Class_1_Pod_1_ZN_1_FLR_1 Sys-3 Flr-2 Sch-D HPlcmt-south ZN NECB System 3 PSZ Occ Sch Summer Design Day, !- Name\n   ** Warning ** IP: IDF line~3390 Alpha Argument length exceeds maximum, will be truncated=  Sp-Corner_Class_1_Pod_1_ZN_1_FLR_1 Sys-3 Flr-2 Sch-D HPlcmt-south ZN NECB System 3 PSZ Occ Sch Summer Design Da\n   **   ~~~   ** Will be processed as Alpha=SP-CORNER_CLASS_1_POD_1_ZN_1_FLR_1 SYS-3 FLR-2 SCH-D HPLCMT-SOUTH ZN NECB SYSTEM 3 PSZ OCC SCH SUMMER DESIGN DAY\n   ************* IDF Context for following error/warning message:\n   ************* Note -- lines truncated at 300 characters, if necessary...\n   *************   3396 Schedule:Day:Interval,\n   ************* indicated Name=Sp-Corner_Class_1_Pod_1_ZN_1_FLR_1 Sys-3 Flr-2 Sch-D HPlcmt-south ZN NECB System 3 PSZ Occ Sch Winter Design Day\n   ************* Only last 1 lines before error line shown.....\n   *************   3397   Sp-Corner_Class_1_Pod_1_ZN_1_FLR_1 Sys-3 Flr-2 Sch-D HPlcmt-south ZN NECB System 3 PSZ Occ Sch Winter Design Day, !- Name\n   ** Warning ** IP: IDF line~3397 Alpha Argument length exceeds maximum, will be truncated=  Sp-Corner_Class_1_Pod_1_ZN_1_FLR_1 Sys-3 Flr-2 Sch-D HPlcmt-south ZN NECB System 3 PSZ Occ Sch Winter Design Da\n   **   ~~~   ** Will be processed as Alpha=SP-CORNER_CLASS_1_POD_1_ZN_1_FLR_1 SYS-3 FLR-2 SCH-D HPLCMT-SOUTH ZN NECB SYSTEM 3 PSZ OCC SCH WINTER DESIGN DAY\n   ************* IDF Context for following error/warning message:\n   ************* Note -- lines truncated at 300 characters, if necessary...\n   *************   3677 Schedule:Day:Interval,\n   ************* indicated Name=Sp-Corner_Class_1_Pod_1_ZN_1_FLR_2 Sys-3 Flr-1 Sch-D HPlcmt-south ZN NECB System 3 PSZ Occ Sch Sunday\n   ************* Only last 1 lines before error line shown.....\n   *************   3678   Sp-Corner_Class_1_Pod_1_ZN_1_FLR_2 Sys-3 Flr-1 Sch-D HPlcmt-south ZN NECB System 3 PSZ Occ Sch Sunday, !- Name\n   ** Warning ** IP: IDF line~3678 Alpha Argument length exceeds maximum, will be truncated=  Sp-Corner_Class_1_Pod_1_ZN_1_FLR_2 Sys-3 Flr-1 Sch-D HPlcmt-south ZN NECB System 3 PSZ Occ Sch Sunda\n   **   ~~~   ** Will be processed as Alpha=SP-CORNER_CLASS_1_POD_1_ZN_1_FLR_2 SYS-3 FLR-1 SCH-D HPLCMT-SOUTH ZN NECB SYSTEM 3 PSZ OCC SCH SUNDAY\n   ************* IDF Context for following error/warning message:\n   ************* Note -- lines truncated at 300 characters, if necessary...\n   *************   3684 Schedule:Day:Interval,\n   ************* indicated Name=Sp-Corner_Class_1_Pod_1_ZN_1_FLR_2 Sys-3 Flr-1 Sch-D HPlcmt-south ZN NECB System 3 PSZ Occ Sch Monday\n   ************* Only last 1 lines before error line shown.....\n   *************   3685   Sp-Corner_Class_1_Pod_1_ZN_1_FLR_2 Sys-3 Flr-1 Sch-D HPlcmt-south ZN NECB System 3 PSZ Occ Sch Monday, !- Name\n   ** Warning ** IP: IDF line~3685 Alpha Argument length exceeds maximum, will be truncated=  Sp-Corner_Class_1_Pod_1_ZN_1_FLR_2 Sys-3 Flr-1 Sch-D HPlcmt-south ZN NECB System 3 PSZ Occ Sch Monda\n   **   ~~~   ** Will be processed as Alpha=SP-CORNER_CLASS_1_POD_1_ZN_1_FLR_2 SYS-3 FLR-1 SCH-D HPLCMT-SOUTH ZN NECB SYSTEM 3 PSZ OCC SCH MONDAY\n   ************* IDF Context for following error/warning message:\n   ************* Note -- lines truncated at 300 characters, if necessary...\n   *************   3699 Schedule:Day:Interval,\n   ************* indicated Name=Sp-Corner_Class_1_Pod_1_ZN_1_FLR_2 Sys-3 Flr-1 Sch-D HPlcmt-south ZN NECB System 3 PSZ Occ Sch Tuesday\n   ************* Only last 1 lines before error line shown.....\n   *************   3700   Sp-Corner_Class_1_Pod_1_ZN_1_FLR_2 Sys-3 Flr-1 Sch-D HPlcmt-south ZN NECB System 3 PSZ Occ Sch Tuesday, !- Name\n   ** Warning ** IP: IDF line~3700 Alpha Argument length exceeds maximum, will be truncated=  Sp-Corner_Class_1_Pod_1_ZN_1_FLR_2 Sys-3 Flr-1 Sch-D HPlcmt-south ZN NECB System 3 PSZ Occ Sch Tuesda\n   **   ~~~   ** Will be processed as Alpha=SP-CORNER_CLASS_1_POD_1_ZN_1_FLR_2 SYS-3 FLR-1 SCH-D HPLCMT-SOUTH ZN NECB SYSTEM 3 PSZ OCC SCH TUESDAY\n   ************* IDF Context for following error/warning message:\n   ************* Note -- lines truncated at 300 characters, if necessary...\n   *************   3714 Schedule:Day:Interval,\n   ************* indicated Name=Sp-Corner_Class_1_Pod_1_ZN_1_FLR_2 Sys-3 Flr-1 Sch-D HPlcmt-south ZN NECB System 3 PSZ Occ Sch Wednesday\n   ************* Only last 1 lines before error line shown.....\n   *************   3715   Sp-Corner_Class_1_Pod_1_ZN_1_FLR_2 Sys-3 Flr-1 Sch-D HPlcmt-south ZN NECB System 3 PSZ Occ Sch Wednesday, !- Name\n   ** Warning ** IP: IDF line~3715 Alpha Argument length exceeds maximum, will be truncated=  Sp-Corner_Class_1_Pod_1_ZN_1_FLR_2 Sys-3 Flr-1 Sch-D HPlcmt-south ZN NECB System 3 PSZ Occ Sch Wednesda\n   **   ~~~   ** Will be processed as Alpha=SP-CORNER_CLASS_1_POD_1_ZN_1_FLR_2 SYS-3 FLR-1 SCH-D HPLCMT-SOUTH ZN NECB SYSTEM 3 PSZ OCC SCH WEDNESDAY\n   ************* IDF Context for following error/warning message:\n   ************* Note -- lines truncated at 300 characters, if necessary...\n   *************   3729 Schedule:Day:Interval,\n   ************* indicated Name=Sp-Corner_Class_1_Pod_1_ZN_1_FLR_2 Sys-3 Flr-1 Sch-D HPlcmt-south ZN NECB System 3 PSZ Occ Sch Thursday\n   ************* Only last 1 lines before error line shown.....\n   *************   3730   Sp-Corner_Class_1_Pod_1_ZN_1_FLR_2 Sys-3 Flr-1 Sch-D HPlcmt-south ZN NECB System 3 PSZ Occ Sch Thursday, !- Name\n   ** Warning ** IP: IDF line~3730 Alpha Argument length exceeds maximum, will be truncated=  Sp-Corner_Class_1_Pod_1_ZN_1_FLR_2 Sys-3 Flr-1 Sch-D HPlcmt-south ZN NECB System 3 PSZ Occ Sch Thursda\n   **   ~~~   ** Will be processed as Alpha=SP-CORNER_CLASS_1_POD_1_ZN_1_FLR_2 SYS-3 FLR-1 SCH-D HPLCMT-SOUTH ZN NECB SYSTEM 3 PSZ OCC SCH THURSDAY\n   ************* IDF Context for following error/warning message:\n   ************* Note -- lines truncated at 300 characters, if necessary...\n   *************   3744 Schedule:Day:Interval,\n   ************* indicated Name=Sp-Corner_Class_1_Pod_1_ZN_1_FLR_2 Sys-3 Flr-1 Sch-D HPlcmt-south ZN NECB System 3 PSZ Occ Sch Friday\n   ************* Only last 1 lines before error line shown.....\n   *************   3745   Sp-Corner_Class_1_Pod_1_ZN_1_FLR_2 Sys-3 Flr-1 Sch-D HPlcmt-south ZN NECB System 3 PSZ Occ Sch Friday, !- Name\n   ** Warning ** IP: IDF line~3745 Alpha Argument length exceeds maximum, will be truncated=  Sp-Corner_Class_1_Pod_1_ZN_1_FLR_2 Sys-3 Flr-1 Sch-D HPlcmt-south ZN NECB System 3 PSZ Occ Sch Frida\n   **   ~~~   ** Will be processed as Alpha=SP-CORNER_CLASS_1_POD_1_ZN_1_FLR_2 SYS-3 FLR-1 SCH-D HPLCMT-SOUTH ZN NECB SYSTEM 3 PSZ OCC SCH FRIDAY\n   ************* IDF Context for following error/warning message:\n   ************* Note -- lines truncated at 300 characters, if necessary...\n   *************   3759 Schedule:Day:Interval,\n   ************* indicated Name=Sp-Corner_Class_1_Pod_1_ZN_1_FLR_2 Sys-3 Flr-1 Sch-D HPlcmt-south ZN NECB System 3 PSZ Occ Sch Saturday\n   ************* Only last 1 lines before error line shown.....\n   *************   3760   Sp-Corner_Class_1_Pod_1_ZN_1_FLR_2 Sys-3 Flr-1 Sch-D HPlcmt-south ZN NECB System 3 PSZ Occ Sch Saturday, !- Name\n   ** Warning ** IP: IDF line~3760 Alpha Argument length exceeds maximum, will be truncated=  Sp-Corner_Class_1_Pod_1_ZN_1_FLR_2 Sys-3 Flr-1 Sch-D HPlcmt-south ZN NECB System 3 PSZ Occ Sch Saturda\n   **   ~~~   ** Will be processed as Alpha=SP-CORNER_CLASS_1_POD_1_ZN_1_FLR_2 SYS-3 FLR-1 SCH-D HPLCMT-SOUTH ZN NECB SYSTEM 3 PSZ OCC SCH SATURDAY\n   ************* IDF Context for following error/warning message:\n   ************* Note -- lines truncated at 300 characters, if necessary...\n   *************   3766 Schedule:Week:Daily,\n   ************* indicated Name=Schedule:Week:Daily {6628382d-113b-4321-95b5-0b2a1c2c2e1d}\n   ************* Only last 2 lines before error line shown.....\n   *************   3767   Schedule:Week:Daily {6628382d-113b-4321-95b5-0b2a1c2c2e1d}, !- Name\n   *************   3768   Sp-Corner_Class_1_Pod_1_ZN_1_FLR_2 Sys-3 Flr-1 Sch-D HPlcmt-south ZN NECB System 3 PSZ Occ Sch Sunday, !- Sunday Schedule:Day Name\n   ** Warning ** IP: IDF line~3768 Alpha Argument length exceeds maximum, will be truncated=  Sp-Corner_Class_1_Pod_1_ZN_1_FLR_2 Sys-3 Flr-1 Sch-D HPlcmt-south ZN NECB System 3 PSZ Occ Sch Sunda\n   **   ~~~   ** Will be processed as Alpha=SP-CORNER_CLASS_1_POD_1_ZN_1_FLR_2 SYS-3 FLR-1 SCH-D HPLCMT-SOUTH ZN NECB SYSTEM 3 PSZ OCC SCH SUNDAY\n   ************* IDF Context for following error/warning message:\n   ************* Note -- lines truncated at 300 characters, if necessary...\n   *************   3766 Schedule:Week:Daily,\n   ************* indicated Name=Schedule:Week:Daily {6628382d-113b-4321-95b5-0b2a1c2c2e1d}\n   ************* Only last 3 lines before error line shown.....\n   *************   3767   Schedule:Week:Daily {6628382d-113b-4321-95b5-0b2a1c2c2e1d}, !- Name\n   *************   3768   Sp-Corner_Class_1_Pod_1_ZN_1_FLR_2 Sys-3 Flr-1 Sch-D HPlcmt-south ZN NECB System 3 PSZ Occ Sch Sunday, !- Sunday Schedule:Day Name\n   *************   3769   Sp-Corner_Class_1_Pod_1_ZN_1_FLR_2 Sys-3 Flr-1 Sch-D HPlcmt-south ZN NECB System 3 PSZ Occ Sch Monday, !- Monday Schedule:Day Name\n   ** Warning ** IP: IDF line~3769 Alpha Argument length exceeds maximum, will be truncated=  Sp-Corner_Class_1_Pod_1_ZN_1_FLR_2 Sys-3 Flr-1 Sch-D HPlcmt-south ZN NECB System 3 PSZ Occ Sch Monda\n   **   ~~~   ** Will be processed as Alpha=SP-CORNER_CLASS_1_POD_1_ZN_1_FLR_2 SYS-3 FLR-1 SCH-D HPLCMT-SOUTH ZN NECB SYSTEM 3 PSZ OCC SCH MONDAY\n   ************* IDF Context for following error/warning message:\n   ************* Note -- lines truncated at 300 characters, if necessary...\n   *************   3766 Schedule:Week:Daily,\n   ************* indicated Name=Schedule:Week:Daily {6628382d-113b-4321-95b5-0b2a1c2c2e1d}\n   ************* Only last 4 lines before error line shown.....\n   *************   3767   Schedule:Week:Daily {6628382d-113b-4321-95b5-0b2a1c2c2e1d}, !- Name\n   *************   3768   Sp-Corner_Class_1_Pod_1_ZN_1_FLR_2 Sys-3 Flr-1 Sch-D HPlcmt-south ZN NECB System 3 PSZ Occ Sch Sunday, !- Sunday Schedule:Day Name\n   *************   3769   Sp-Corner_Class_1_Pod_1_ZN_1_FLR_2 Sys-3 Flr-1 Sch-D HPlcmt-south ZN NECB System 3 PSZ Occ Sch Monday, !- Monday Schedule:Day Name\n   *************   3770   Sp-Corner_Class_1_Pod_1_ZN_1_FLR_2 Sys-3 Flr-1 Sch-D HPlcmt-south ZN NECB System 3 PSZ Occ Sch Tuesday, !- Tuesday Schedule:Day Name\n   ** Warning ** IP: IDF line~3770 Alpha Argument length exceeds maximum, will be truncated=  Sp-Corner_Class_1_Pod_1_ZN_1_FLR_2 Sys-3 Flr-1 Sch-D HPlcmt-south ZN NECB System 3 PSZ Occ Sch Tuesda\n   **   ~~~   ** Will be processed as Alpha=SP-CORNER_CLASS_1_POD_1_ZN_1_FLR_2 SYS-3 FLR-1 SCH-D HPLCMT-SOUTH ZN NECB SYSTEM 3 PSZ OCC SCH TUESDAY\n   ************* IDF Context for following error/warning message:\n   ************* Note -- lines truncated at 300 characters, if necessary...\n   *************   3766 Schedule:Week:Daily,\n   ************* indicated Name=Schedule:Week:Daily {6628382d-113b-4321-95b5-0b2a1c2c2e1d}\n   ************* Only last 5 lines before error line shown.....\n   *************   3767   Schedule:Week:Daily {6628382d-113b-4321-95b5-0b2a1c2c2e1d}, !- Name\n   *************   3768   Sp-Corner_Class_1_Pod_1_ZN_1_FLR_2 Sys-3 Flr-1 Sch-D HPlcmt-south ZN NECB System 3 PSZ Occ Sch Sunday, !- Sunday Schedule:Day Name\n   *************   3769   Sp-Corner_Class_1_Pod_1_ZN_1_FLR_2 Sys-3 Flr-1 Sch-D HPlcmt-south ZN NECB System 3 PSZ Occ Sch Monday, !- Monday Schedule:Day Name\n   *************   3770   Sp-Corner_Class_1_Pod_1_ZN_1_FLR_2 Sys-3 Flr-1 Sch-D HPlcmt-south ZN NECB System 3 PSZ Occ Sch Tuesday, !- Tuesday Schedule:Day Name\n   *************   3771   Sp-Corner_Class_1_Pod_1_ZN_1_FLR_2 Sys-3 Flr-1 Sch-D HPlcmt-south ZN NECB System 3 PSZ Occ Sch Wednesday, !- Wednesday Schedule:Day Name\n   ** Warning ** IP: IDF line~3771 Alpha Argument length exceeds maximum, will be truncated=  Sp-Corner_Class_1_Pod_1_ZN_1_FLR_2 Sys-3 Flr-1 Sch-D HPlcmt-south ZN NECB System 3 PSZ Occ Sch Wednesda\n   **   ~~~   ** Will be processed as Alpha=SP-CORNER_CLASS_1_POD_1_ZN_1_FLR_2 SYS-3 FLR-1 SCH-D HPLCMT-SOUTH ZN NECB SYSTEM 3 PSZ OCC SCH WEDNESDAY\n   ************* IDF Context for following error/warning message:\n   ************* Note -- lines truncated at 300 characters, if necessary...\n   *************   3766 Schedule:Week:Daily,\n   ************* indicated Name=Schedule:Week:Daily {6628382d-113b-4321-95b5-0b2a1c2c2e1d}\n   ************* Only last 6 lines before error line shown.....\n   *************   3767   Schedule:Week:Daily {6628382d-113b-4321-95b5-0b2a1c2c2e1d}, !- Name\n   *************   3768   Sp-Corner_Class_1_Pod_1_ZN_1_FLR_2 Sys-3 Flr-1 Sch-D HPlcmt-south ZN NECB System 3 PSZ Occ Sch Sunday, !- Sunday Schedule:Day Name\n   *************   3769   Sp-Corner_Class_1_Pod_1_ZN_1_FLR_2 Sys-3 Flr-1 Sch-D HPlcmt-south ZN NECB System 3 PSZ Occ Sch Monday, !- Monday Schedule:Day Name\n   *************   3770   Sp-Corner_Class_1_Pod_1_ZN_1_FLR_2 Sys-3 Flr-1 Sch-D HPlcmt-south ZN NECB System 3 PSZ Occ Sch Tuesday, !- Tuesday Schedule:Day Name\n   *************   3771   Sp-Corner_Class_1_Pod_1_ZN_1_FLR_2 Sys-3 Flr-1 Sch-D HPlcmt-south ZN NECB System 3 PSZ Occ Sch Wednesday, !- Wednesday Schedule:Day Name\n   *************   3772   Sp-Corner_Class_1_Pod_1_ZN_1_FLR_2 Sys-3 Flr-1 Sch-D HPlcmt-south ZN NECB System 3 PSZ Occ Sch Thursday, !- Thursday Schedule:Day Name\n   ** Warning ** IP: IDF line~3772 Alpha Argument length exceeds maximum, will be truncated=  Sp-Corner_Class_1_Pod_1_ZN_1_FLR_2 Sys-3 Flr-1 Sch-D HPlcmt-south ZN NECB System 3 PSZ Occ Sch Thursda\n   **   ~~~   ** Will be processed as Alpha=SP-CORNER_CLASS_1_POD_1_ZN_1_FLR_2 SYS-3 FLR-1 SCH-D HPLCMT-SOUTH ZN NECB SYSTEM 3 PSZ OCC SCH THURSDAY\n   ************* IDF Context for following error/warning message:\n   ************* Note -- lines truncated at 300 characters, if necessary...\n   *************   3766 Schedule:Week:Daily,\n   ************* indicated Name=Schedule:Week:Daily {6628382d-113b-4321-95b5-0b2a1c2c2e1d}\n   ************* Only last 7 lines before error line shown.....\n   *************   3767   Schedule:Week:Daily {6628382d-113b-4321-95b5-0b2a1c2c2e1d}, !- Name\n   *************   3768   Sp-Corner_Class_1_Pod_1_ZN_1_FLR_2 Sys-3 Flr-1 Sch-D HPlcmt-south ZN NECB System 3 PSZ Occ Sch Sunday, !- Sunday Schedule:Day Name\n   *************   3769   Sp-Corner_Class_1_Pod_1_ZN_1_FLR_2 Sys-3 Flr-1 Sch-D HPlcmt-south ZN NECB System 3 PSZ Occ Sch Monday, !- Monday Schedule:Day Name\n   *************   3770   Sp-Corner_Class_1_Pod_1_ZN_1_FLR_2 Sys-3 Flr-1 Sch-D HPlcmt-south ZN NECB System 3 PSZ Occ Sch Tuesday, !- Tuesday Schedule:Day Name\n   *************   3771   Sp-Corner_Class_1_Pod_1_ZN_1_FLR_2 Sys-3 Flr-1 Sch-D HPlcmt-south ZN NECB System 3 PSZ Occ Sch Wednesday, !- Wednesday Schedule:Day Name\n   *************   3772   Sp-Corner_Class_1_Pod_1_ZN_1_FLR_2 Sys-3 Flr-1 Sch-D HPlcmt-south ZN NECB System 3 PSZ Occ Sch Thursday, !- Thursday Schedule:Day Name\n   *************   3773   Sp-Corner_Class_1_Pod_1_ZN_1_FLR_2 Sys-3 Flr-1 Sch-D HPlcmt-south ZN NECB System 3 PSZ Occ Sch Friday, !- Friday Schedule:Day Name\n   ** Warning ** IP: IDF line~3773 Alpha Argument length exceeds maximum, will be truncated=  Sp-Corner_Class_1_Pod_1_ZN_1_FLR_2 Sys-3 Flr-1 Sch-D HPlcmt-south ZN NECB System 3 PSZ Occ Sch Frida\n   **   ~~~   ** Will be processed as Alpha=SP-CORNER_CLASS_1_POD_1_ZN_1_FLR_2 SYS-3 FLR-1 SCH-D HPLCMT-SOUTH ZN NECB SYSTEM 3 PSZ OCC SCH FRIDAY\n   ************* IDF Context for following error/warning message:\n   ************* Note -- lines truncated at 300 characters, if necessary...\n   *************   3766 Schedule:Week:Daily,\n   ************* indicated Name=Schedule:Week:Daily {6628382d-113b-4321-95b5-0b2a1c2c2e1d}\n   ************* Only last 8 lines before error line shown.....\n   *************   3767   Schedule:Week:Daily {6628382d-113b-4321-95b5-0b2a1c2c2e1d}, !- Name\n   *************   3768   Sp-Corner_Class_1_Pod_1_ZN_1_FLR_2 Sys-3 Flr-1 Sch-D HPlcmt-south ZN NECB System 3 PSZ Occ Sch Sunday, !- Sunday Schedule:Day Name\n   *************   3769   Sp-Corner_Class_1_Pod_1_ZN_1_FLR_2 Sys-3 Flr-1 Sch-D HPlcmt-south ZN NECB System 3 PSZ Occ Sch Monday, !- Monday Schedule:Day Name\n   *************   3770   Sp-Corner_Class_1_Pod_1_ZN_1_FLR_2 Sys-3 Flr-1 Sch-D HPlcmt-south ZN NECB System 3 PSZ Occ Sch Tuesday, !- Tuesday Schedule:Day Name\n   *************   3771   Sp-Corner_Class_1_Pod_1_ZN_1_FLR_2 Sys-3 Flr-1 Sch-D HPlcmt-south ZN NECB System 3 PSZ Occ Sch Wednesday, !- Wednesday Schedule:Day Name\n   *************   3772   Sp-Corner_Class_1_Pod_1_ZN_1_FLR_2 Sys-3 Flr-1 Sch-D HPlcmt-south ZN NECB System 3 PSZ Occ Sch Thursday, !- Thursday Schedule:Day Name\n   *************   3773   Sp-Corner_Class_1_Pod_1_ZN_1_FLR_2 Sys-3 Flr-1 Sch-D HPlcmt-south ZN NECB System 3 PSZ Occ Sch Friday, !- Friday Schedule:Day Name\n   *************   3774   Sp-Corner_Class_1_Pod_1_ZN_1_FLR_2 Sys-3 Flr-1 Sch-D HPlcmt-south ZN NECB System 3 PSZ Occ Sch Saturday, !- Saturday Schedule:Day Name\n   ** Warning ** IP: IDF line~3774 Alpha Argument length exceeds maximum, will be truncated=  Sp-Corner_Class_1_Pod_1_ZN_1_FLR_2 Sys-3 Flr-1 Sch-D HPlcmt-south ZN NECB System 3 PSZ Occ Sch Saturda\n   **   ~~~   ** Will be processed as Alpha=SP-CORNER_CLASS_1_POD_1_ZN_1_FLR_2 SYS-3 FLR-1 SCH-D HPLCMT-SOUTH ZN NECB SYSTEM 3 PSZ OCC SCH SATURDAY\n   ************* IDF Context for following error/warning message:\n   ************* Note -- lines truncated at 300 characters, if necessary...\n   *************   3766 Schedule:Week:Daily,\n   ************* indicated Name=Schedule:Week:Daily {6628382d-113b-4321-95b5-0b2a1c2c2e1d}\n   ************* Only last 9 lines before error line shown.....\n   *************   3767   Schedule:Week:Daily {6628382d-113b-4321-95b5-0b2a1c2c2e1d}, !- Name\n   *************   3768   Sp-Corner_Class_1_Pod_1_ZN_1_FLR_2 Sys-3 Flr-1 Sch-D HPlcmt-south ZN NECB System 3 PSZ Occ Sch Sunday, !- Sunday Schedule:Day Name\n   *************   3769   Sp-Corner_Class_1_Pod_1_ZN_1_FLR_2 Sys-3 Flr-1 Sch-D HPlcmt-south ZN NECB System 3 PSZ Occ Sch Monday, !- Monday Schedule:Day Name\n   *************   3770   Sp-Corner_Class_1_Pod_1_ZN_1_FLR_2 Sys-3 Flr-1 Sch-D HPlcmt-south ZN NECB System 3 PSZ Occ Sch Tuesday, !- Tuesday Schedule:Day Name\n   *************   3771   Sp-Corner_Class_1_Pod_1_ZN_1_FLR_2 Sys-3 Flr-1 Sch-D HPlcmt-south ZN NECB System 3 PSZ Occ Sch Wednesday, !- Wednesday Schedule:Day Name\n   *************   3772   Sp-Corner_Class_1_Pod_1_ZN_1_FLR_2 Sys-3 Flr-1 Sch-D HPlcmt-south ZN NECB System 3 PSZ Occ Sch Thursday, !- Thursday Schedule:Day Name\n   *************   3773   Sp-Corner_Class_1_Pod_1_ZN_1_FLR_2 Sys-3 Flr-1 Sch-D HPlcmt-south ZN NECB System 3 PSZ Occ Sch Friday, !- Friday Schedule:Day Name\n   *************   3774   Sp-Corner_Class_1_Pod_1_ZN_1_FLR_2 Sys-3 Flr-1 Sch-D HPlcmt-south ZN NECB System 3 PSZ Occ Sch Saturday, !- Saturday Schedule:Day Name\n   *************   3775   Sp-Corner_Class_1_Pod_1_ZN_1_FLR_2 Sys-3 Flr-1 Sch-D HPlcmt-south ZN NECB System 3 PSZ Occ Sch Default, !- Holiday Schedule:Day Name\n   ** Warning ** IP: IDF line~3775 Alpha Argument length exceeds maximum, will be truncated=  Sp-Corner_Class_1_Pod_1_ZN_1_FLR_2 Sys-3 Flr-1 Sch-D HPlcmt-south ZN NECB System 3 PSZ Occ Sch Defaul\n   **   ~~~   ** Will be processed as Alpha=SP-CORNER_CLASS_1_POD_1_ZN_1_FLR_2 SYS-3 FLR-1 SCH-D HPLCMT-SOUTH ZN NECB SYSTEM 3 PSZ OCC SCH DEFAULT\n   ************* IDF Context for following error/warning message:\n   ************* Note -- lines truncated at 300 characters, if necessary...\n   *************   3766 Schedule:Week:Daily,\n   ************* indicated Name=Schedule:Week:Daily {6628382d-113b-4321-95b5-0b2a1c2c2e1d}\n   ************* Only last 10 lines before error line shown.....\n   *************   3767   Schedule:Week:Daily {6628382d-113b-4321-95b5-0b2a1c2c2e1d}, !- Name\n   *************   3768   Sp-Corner_Class_1_Pod_1_ZN_1_FLR_2 Sys-3 Flr-1 Sch-D HPlcmt-south ZN NECB System 3 PSZ Occ Sch Sunday, !- Sunday Schedule:Day Name\n   *************   3769   Sp-Corner_Class_1_Pod_1_ZN_1_FLR_2 Sys-3 Flr-1 Sch-D HPlcmt-south ZN NECB System 3 PSZ Occ Sch Monday, !- Monday Schedule:Day Name\n   *************   3770   Sp-Corner_Class_1_Pod_1_ZN_1_FLR_2 Sys-3 Flr-1 Sch-D HPlcmt-south ZN NECB System 3 PSZ Occ Sch Tuesday, !- Tuesday Schedule:Day Name\n   *************   3771   Sp-Corner_Class_1_Pod_1_ZN_1_FLR_2 Sys-3 Flr-1 Sch-D HPlcmt-south ZN NECB System 3 PSZ Occ Sch Wednesday, !- Wednesday Schedule:Day Name\n   *************   3772   Sp-Corner_Class_1_Pod_1_ZN_1_FLR_2 Sys-3 Flr-1 Sch-D HPlcmt-south ZN NECB System 3 PSZ Occ Sch Thursday, !- Thursday Schedule:Day Name\n   *************   3773   Sp-Corner_Class_1_Pod_1_ZN_1_FLR_2 Sys-3 Flr-1 Sch-D HPlcmt-south ZN NECB System 3 PSZ Occ Sch Friday, !- Friday Schedule:Day Name\n   *************   3774   Sp-Corner_Class_1_Pod_1_ZN_1_FLR_2 Sys-3 Flr-1 Sch-D HPlcmt-south ZN NECB System 3 PSZ Occ Sch Saturday, !- Saturday Schedule:Day Name\n   *************   3775   Sp-Corner_Class_1_Pod_1_ZN_1_FLR_2 Sys-3 Flr-1 Sch-D HPlcmt-south ZN NECB System 3 PSZ Occ Sch Default, !- Holiday Schedule:Day Name\n   *************   3776   Sp-Corner_Class_1_Pod_1_ZN_1_FLR_2 Sys-3 Flr-1 Sch-D HPlcmt-south ZN NECB System 3 PSZ Occ Sch Summer Design Day, !- SummerDesignDay Schedule:Day Name\n   ** Warning ** IP: IDF line~3776 Alpha Argument length exceeds maximum, will be truncated=  Sp-Corner_Class_1_Pod_1_ZN_1_FLR_2 Sys-3 Flr-1 Sch-D HPlcmt-south ZN NECB System 3 PSZ Occ Sch Summer Design Da\n   **   ~~~   ** Will be processed as Alpha=SP-CORNER_CLASS_1_POD_1_ZN_1_FLR_2 SYS-3 FLR-1 SCH-D HPLCMT-SOUTH ZN NECB SYSTEM 3 PSZ OCC SCH SUMMER DESIGN DAY\n   ************* IDF Context for following error/warning message:\n   ************* Note -- lines truncated at 300 characters, if necessary...\n   *************   3766 Schedule:Week:Daily,\n   ************* indicated Name=Schedule:Week:Daily {6628382d-113b-4321-95b5-0b2a1c2c2e1d}\n   ************* Only last 10 lines before error line shown.....\n   *************   3768   Sp-Corner_Class_1_Pod_1_ZN_1_FLR_2 Sys-3 Flr-1 Sch-D HPlcmt-south ZN NECB System 3 PSZ Occ Sch Sunday, !- Sunday Schedule:Day Name\n   *************   3769   Sp-Corner_Class_1_Pod_1_ZN_1_FLR_2 Sys-3 Flr-1 Sch-D HPlcmt-south ZN NECB System 3 PSZ Occ Sch Monday, !- Monday Schedule:Day Name\n   *************   3770   Sp-Corner_Class_1_Pod_1_ZN_1_FLR_2 Sys-3 Flr-1 Sch-D HPlcmt-south ZN NECB System 3 PSZ Occ Sch Tuesday, !- Tuesday Schedule:Day Name\n   *************   3771   Sp-Corner_Class_1_Pod_1_ZN_1_FLR_2 Sys-3 Flr-1 Sch-D HPlcmt-south ZN NECB System 3 PSZ Occ Sch Wednesday, !- Wednesday Schedule:Day Name\n   *************   3772   Sp-Corner_Class_1_Pod_1_ZN_1_FLR_2 Sys-3 Flr-1 Sch-D HPlcmt-south ZN NECB System 3 PSZ Occ Sch Thursday, !- Thursday Schedule:Day Name\n   *************   3773   Sp-Corner_Class_1_Pod_1_ZN_1_FLR_2 Sys-3 Flr-1 Sch-D HPlcmt-south ZN NECB System 3 PSZ Occ Sch Friday, !- Friday Schedule:Day Name\n   *************   3774   Sp-Corner_Class_1_Pod_1_ZN_1_FLR_2 Sys-3 Flr-1 Sch-D HPlcmt-south ZN NECB System 3 PSZ Occ Sch Saturday, !- Saturday Schedule:Day Name\n   *************   3775   Sp-Corner_Class_1_Pod_1_ZN_1_FLR_2 Sys-3 Flr-1 Sch-D HPlcmt-south ZN NECB System 3 PSZ Occ Sch Default, !- Holiday Schedule:Day Name\n   *************   3776   Sp-Corner_Class_1_Pod_1_ZN_1_FLR_2 Sys-3 Flr-1 Sch-D HPlcmt-south ZN NECB System 3 PSZ Occ Sch Summer Design Day, !- SummerDesignDay Schedule:Day Name\n   *************   3777   Sp-Corner_Class_1_Pod_1_ZN_1_FLR_2 Sys-3 Flr-1 Sch-D HPlcmt-south ZN NECB System 3 PSZ Occ Sch Winter Design Day, !- WinterDesignDay Schedule:Day Name\n   ** Warning ** IP: IDF line~3777 Alpha Argument length exceeds maximum, will be truncated=  Sp-Corner_Class_1_Pod_1_ZN_1_FLR_2 Sys-3 Flr-1 Sch-D HPlcmt-south ZN NECB System 3 PSZ Occ Sch Winter Design Da\n   **   ~~~   ** Will be processed as Alpha=SP-CORNER_CLASS_1_POD_1_ZN_1_FLR_2 SYS-3 FLR-1 SCH-D HPLCMT-SOUTH ZN NECB SYSTEM 3 PSZ OCC SCH WINTER DESIGN DAY\n   ************* IDF Context for following error/warning message:\n   ************* Note -- lines truncated at 300 characters, if necessary...\n   *************   3766 Schedule:Week:Daily,\n   ************* indicated Name=Schedule:Week:Daily {6628382d-113b-4321-95b5-0b2a1c2c2e1d}\n   ************* Only last 10 lines before error line shown.....\n   *************   3769   Sp-Corner_Class_1_Pod_1_ZN_1_FLR_2 Sys-3 Flr-1 Sch-D HPlcmt-south ZN NECB System 3 PSZ Occ Sch Monday, !- Monday Schedule:Day Name\n   *************   3770   Sp-Corner_Class_1_Pod_1_ZN_1_FLR_2 Sys-3 Flr-1 Sch-D HPlcmt-south ZN NECB System 3 PSZ Occ Sch Tuesday, !- Tuesday Schedule:Day Name\n   *************   3771   Sp-Corner_Class_1_Pod_1_ZN_1_FLR_2 Sys-3 Flr-1 Sch-D HPlcmt-south ZN NECB System 3 PSZ Occ Sch Wednesday, !- Wednesday Schedule:Day Name\n   *************   3772   Sp-Corner_Class_1_Pod_1_ZN_1_FLR_2 Sys-3 Flr-1 Sch-D HPlcmt-south ZN NECB System 3 PSZ Occ Sch Thursday, !- Thursday Schedule:Day Name\n   *************   3773   Sp-Corner_Class_1_Pod_1_ZN_1_FLR_2 Sys-3 Flr-1 Sch-D HPlcmt-south ZN NECB System 3 PSZ Occ Sch Friday, !- Friday Schedule:Day Name\n   *************   3774   Sp-Corner_Class_1_Pod_1_ZN_1_FLR_2 Sys-3 Flr-1 Sch-D HPlcmt-south ZN NECB System 3 PSZ Occ Sch Saturday, !- Saturday Schedule:Day Name\n   *************   3775   Sp-Corner_Class_1_Pod_1_ZN_1_FLR_2 Sys-3 Flr-1 Sch-D HPlcmt-south ZN NECB System 3 PSZ Occ Sch Default, !- Holiday Schedule:Day Name\n   *************   3776   Sp-Corner_Class_1_Pod_1_ZN_1_FLR_2 Sys-3 Flr-1 Sch-D HPlcmt-south ZN NECB System 3 PSZ Occ Sch Summer Design Day, !- SummerDesignDay Schedule:Day Name\n   *************   3777   Sp-Corner_Class_1_Pod_1_ZN_1_FLR_2 Sys-3 Flr-1 Sch-D HPlcmt-south ZN NECB System 3 PSZ Occ Sch Winter Design Day, !- WinterDesignDay Schedule:Day Name\n   *************   3778   Sp-Corner_Class_1_Pod_1_ZN_1_FLR_2 Sys-3 Flr-1 Sch-D HPlcmt-south ZN NECB System 3 PSZ Occ Sch Default, !- CustomDay1 Schedule:Day Name\n   ** Warning ** IP: IDF line~3778 Alpha Argument length exceeds maximum, will be truncated=  Sp-Corner_Class_1_Pod_1_ZN_1_FLR_2 Sys-3 Flr-1 Sch-D HPlcmt-south ZN NECB System 3 PSZ Occ Sch Defaul\n   **   ~~~   ** Will be processed as Alpha=SP-CORNER_CLASS_1_POD_1_ZN_1_FLR_2 SYS-3 FLR-1 SCH-D HPLCMT-SOUTH ZN NECB SYSTEM 3 PSZ OCC SCH DEFAULT\n   ************* IDF Context for following error/warning message:\n   ************* Note -- lines truncated at 300 characters, if necessary...\n   *************   3766 Schedule:Week:Daily,\n   ************* indicated Name=Schedule:Week:Daily {6628382d-113b-4321-95b5-0b2a1c2c2e1d}\n   ************* Only last 10 lines before error line shown.....\n   *************   3770   Sp-Corner_Class_1_Pod_1_ZN_1_FLR_2 Sys-3 Flr-1 Sch-D HPlcmt-south ZN NECB System 3 PSZ Occ Sch Tuesday, !- Tuesday Schedule:Day Name\n   *************   3771   Sp-Corner_Class_1_Pod_1_ZN_1_FLR_2 Sys-3 Flr-1 Sch-D HPlcmt-south ZN NECB System 3 PSZ Occ Sch Wednesday, !- Wednesday Schedule:Day Name\n   *************   3772   Sp-Corner_Class_1_Pod_1_ZN_1_FLR_2 Sys-3 Flr-1 Sch-D HPlcmt-south ZN NECB System 3 PSZ Occ Sch Thursday, !- Thursday Schedule:Day Name\n   *************   3773   Sp-Corner_Class_1_Pod_1_ZN_1_FLR_2 Sys-3 Flr-1 Sch-D HPlcmt-south ZN NECB System 3 PSZ Occ Sch Friday, !- Friday Schedule:Day Name\n   *************   3774   Sp-Corner_Class_1_Pod_1_ZN_1_FLR_2 Sys-3 Flr-1 Sch-D HPlcmt-south ZN NECB System 3 PSZ Occ Sch Saturday, !- Saturday Schedule:Day Name\n   *************   3775   Sp-Corner_Class_1_Pod_1_ZN_1_FLR_2 Sys-3 Flr-1 Sch-D HPlcmt-south ZN NECB System 3 PSZ Occ Sch Default, !- Holiday Schedule:Day Name\n   *************   3776   Sp-Corner_Class_1_Pod_1_ZN_1_FLR_2 Sys-3 Flr-1 Sch-D HPlcmt-south ZN NECB System 3 PSZ Occ Sch Summer Design Day, !- SummerDesignDay Schedule:Day Name\n   *************   3777   Sp-Corner_Class_1_Pod_1_ZN_1_FLR_2 Sys-3 Flr-1 Sch-D HPlcmt-south ZN NECB System 3 PSZ Occ Sch Winter Design Day, !- WinterDesignDay Schedule:Day Name\n   *************   3778   Sp-Corner_Class_1_Pod_1_ZN_1_FLR_2 Sys-3 Flr-1 Sch-D HPlcmt-south ZN NECB System 3 PSZ Occ Sch Default, !- CustomDay1 Schedule:Day Name\n   *************   3779   Sp-Corner_Class_1_Pod_1_ZN_1_FLR_2 Sys-3 Flr-1 Sch-D HPlcmt-south ZN NECB System 3 PSZ Occ Sch Default; !- CustomDay2 Schedule:Day Name\n   ** Warning ** IP: IDF line~3779 Alpha Argument length exceeds maximum, will be truncated=  Sp-Corner_Class_1_Pod_1_ZN_1_FLR_2 Sys-3 Flr-1 Sch-D HPlcmt-south ZN NECB System 3 PSZ Occ Sch Defaul\n   **   ~~~   ** Will be processed as Alpha=SP-CORNER_CLASS_1_POD_1_ZN_1_FLR_2 SYS-3 FLR-1 SCH-D HPLCMT-SOUTH ZN NECB SYSTEM 3 PSZ OCC SCH DEFAULT\n   ************* IDF Context for following error/warning message:\n   ************* Note -- lines truncated at 300 characters, if necessary...\n   *************   3790 Schedule:Day:Interval,\n   ************* indicated Name=Sp-Corner_Class_1_Pod_1_ZN_1_FLR_2 Sys-3 Flr-1 Sch-D HPlcmt-south ZN NECB System 3 PSZ Occ Sch Default\n   ************* Only last 1 lines before error line shown.....\n   *************   3791   Sp-Corner_Class_1_Pod_1_ZN_1_FLR_2 Sys-3 Flr-1 Sch-D HPlcmt-south ZN NECB System 3 PSZ Occ Sch Default, !- Name\n   ** Warning ** IP: IDF line~3791 Alpha Argument length exceeds maximum, will be truncated=  Sp-Corner_Class_1_Pod_1_ZN_1_FLR_2 Sys-3 Flr-1 Sch-D HPlcmt-south ZN NECB System 3 PSZ Occ Sch Defaul\n   **   ~~~   ** Will be processed as Alpha=SP-CORNER_CLASS_1_POD_1_ZN_1_FLR_2 SYS-3 FLR-1 SCH-D HPLCMT-SOUTH ZN NECB SYSTEM 3 PSZ OCC SCH DEFAULT\n   ************* IDF Context for following error/warning message:\n   ************* Note -- lines truncated at 300 characters, if necessary...\n   *************   3797 Schedule:Day:Interval,\n   ************* indicated Name=Sp-Corner_Class_1_Pod_1_ZN_1_FLR_2 Sys-3 Flr-1 Sch-D HPlcmt-south ZN NECB System 3 PSZ Occ Sch Summer Design Day\n   ************* Only last 1 lines before error line shown.....\n   *************   3798   Sp-Corner_Class_1_Pod_1_ZN_1_FLR_2 Sys-3 Flr-1 Sch-D HPlcmt-south ZN NECB System 3 PSZ Occ Sch Summer Design Day, !- Name\n   ** Warning ** IP: IDF line~3798 Alpha Argument length exceeds maximum, will be truncated=  Sp-Corner_Class_1_Pod_1_ZN_1_FLR_2 Sys-3 Flr-1 Sch-D HPlcmt-south ZN NECB System 3 PSZ Occ Sch Summer Design Da\n   **   ~~~   ** Will be processed as Alpha=SP-CORNER_CLASS_1_POD_1_ZN_1_FLR_2 SYS-3 FLR-1 SCH-D HPLCMT-SOUTH ZN NECB SYSTEM 3 PSZ OCC SCH SUMMER DESIGN DAY\n   ************* IDF Context for following error/warning message:\n   ************* Note -- lines truncated at 300 characters, if necessary...\n   *************   3804 Schedule:Day:Interval,\n   ************* indicated Name=Sp-Corner_Class_1_Pod_1_ZN_1_FLR_2 Sys-3 Flr-1 Sch-D HPlcmt-south ZN NECB System 3 PSZ Occ Sch Winter Design Day\n   ************* Only last 1 lines before error line shown.....\n   *************   3805   Sp-Corner_Class_1_Pod_1_ZN_1_FLR_2 Sys-3 Flr-1 Sch-D HPlcmt-south ZN NECB System 3 PSZ Occ Sch Winter Design Day, !- Name\n   ** Warning ** IP: IDF line~3805 Alpha Argument length exceeds maximum, will be truncated=  Sp-Corner_Class_1_Pod_1_ZN_1_FLR_2 Sys-3 Flr-1 Sch-D HPlcmt-south ZN NECB System 3 PSZ Occ Sch Winter Design Da\n   **   ~~~   ** Will be processed as Alpha=SP-CORNER_CLASS_1_POD_1_ZN_1_FLR_2 SYS-3 FLR-1 SCH-D HPLCMT-SOUTH ZN NECB SYSTEM 3 PSZ OCC SCH WINTER DESIGN DAY\n   ************* IDF Context for following error/warning message:\n   ************* Note -- lines truncated at 300 characters, if necessary...\n   *************   4077 Schedule:Day:Interval,\n   ************* indicated Name=Sp-Corner_Class_1_Pod_2_ZN_1_FLR_1 Sys-3 Flr-2 Sch-D HPlcmt-south ZN NECB System 3 PSZ Occ Sch Sunday\n   ************* Only last 1 lines before error line shown.....\n   *************   4078   Sp-Corner_Class_1_Pod_2_ZN_1_FLR_1 Sys-3 Flr-2 Sch-D HPlcmt-south ZN NECB System 3 PSZ Occ Sch Sunday, !- Name\n   ** Warning ** IP: IDF line~4078 Alpha Argument length exceeds maximum, will be truncated=  Sp-Corner_Class_1_Pod_2_ZN_1_FLR_1 Sys-3 Flr-2 Sch-D HPlcmt-south ZN NECB System 3 PSZ Occ Sch Sunda\n   **   ~~~   ** Will be processed as Alpha=SP-CORNER_CLASS_1_POD_2_ZN_1_FLR_1 SYS-3 FLR-2 SCH-D HPLCMT-SOUTH ZN NECB SYSTEM 3 PSZ OCC SCH SUNDAY\n   ************* IDF Context for following error/warning message:\n   ************* Note -- lines truncated at 300 characters, if necessary...\n   *************   4084 Schedule:Day:Interval,\n   ************* indicated Name=Sp-Corner_Class_1_Pod_2_ZN_1_FLR_1 Sys-3 Flr-2 Sch-D HPlcmt-south ZN NECB System 3 PSZ Occ Sch Monday\n   ************* Only last 1 lines before error line shown.....\n   *************   4085   Sp-Corner_Class_1_Pod_2_ZN_1_FLR_1 Sys-3 Flr-2 Sch-D HPlcmt-south ZN NECB System 3 PSZ Occ Sch Monday, !- Name\n   ** Warning ** IP: IDF line~4085 Alpha Argument length exceeds maximum, will be truncated=  Sp-Corner_Class_1_Pod_2_ZN_1_FLR_1 Sys-3 Flr-2 Sch-D HPlcmt-south ZN NECB System 3 PSZ Occ Sch Monda\n   **   ~~~   ** Will be processed as Alpha=SP-CORNER_CLASS_1_POD_2_ZN_1_FLR_1 SYS-3 FLR-2 SCH-D HPLCMT-SOUTH ZN NECB SYSTEM 3 PSZ OCC SCH MONDAY\n   ************* IDF Context for following error/warning message:\n   ************* Note -- lines truncated at 300 characters, if necessary...\n   *************   4099 Schedule:Day:Interval,\n   ************* indicated Name=Sp-Corner_Class_1_Pod_2_ZN_1_FLR_1 Sys-3 Flr-2 Sch-D HPlcmt-south ZN NECB System 3 PSZ Occ Sch Tuesday\n   ************* Only last 1 lines before error line shown.....\n   *************   4100   Sp-Corner_Class_1_Pod_2_ZN_1_FLR_1 Sys-3 Flr-2 Sch-D HPlcmt-south ZN NECB System 3 PSZ Occ Sch Tuesday, !- Name\n   ** Warning ** IP: IDF line~4100 Alpha Argument length exceeds maximum, will be truncated=  Sp-Corner_Class_1_Pod_2_ZN_1_FLR_1 Sys-3 Flr-2 Sch-D HPlcmt-south ZN NECB System 3 PSZ Occ Sch Tuesda\n   **   ~~~   ** Will be processed as Alpha=SP-CORNER_CLASS_1_POD_2_ZN_1_FLR_1 SYS-3 FLR-2 SCH-D HPLCMT-SOUTH ZN NECB SYSTEM 3 PSZ OCC SCH TUESDAY\n   ************* IDF Context for following error/warning message:\n   ************* Note -- lines truncated at 300 characters, if necessary...\n   *************   4114 Schedule:Day:Interval,\n   ************* indicated Name=Sp-Corner_Class_1_Pod_2_ZN_1_FLR_1 Sys-3 Flr-2 Sch-D HPlcmt-south ZN NECB System 3 PSZ Occ Sch Wednesday\n   ************* Only last 1 lines before error line shown.....\n   *************   4115   Sp-Corner_Class_1_Pod_2_ZN_1_FLR_1 Sys-3 Flr-2 Sch-D HPlcmt-south ZN NECB System 3 PSZ Occ Sch Wednesday, !- Name\n   ** Warning ** IP: IDF line~4115 Alpha Argument length exceeds maximum, will be truncated=  Sp-Corner_Class_1_Pod_2_ZN_1_FLR_1 Sys-3 Flr-2 Sch-D HPlcmt-south ZN NECB System 3 PSZ Occ Sch Wednesda\n   **   ~~~   ** Will be processed as Alpha=SP-CORNER_CLASS_1_POD_2_ZN_1_FLR_1 SYS-3 FLR-2 SCH-D HPLCMT-SOUTH ZN NECB SYSTEM 3 PSZ OCC SCH WEDNESDAY\n   ************* IDF Context for following error/warning message:\n   ************* Note -- lines truncated at 300 characters, if necessary...\n   *************   4129 Schedule:Day:Interval,\n   ************* indicated Name=Sp-Corner_Class_1_Pod_2_ZN_1_FLR_1 Sys-3 Flr-2 Sch-D HPlcmt-south ZN NECB System 3 PSZ Occ Sch Thursday\n   ************* Only last 1 lines before error line shown.....\n   *************   4130   Sp-Corner_Class_1_Pod_2_ZN_1_FLR_1 Sys-3 Flr-2 Sch-D HPlcmt-south ZN NECB System 3 PSZ Occ Sch Thursday, !- Name\n   ** Warning ** IP: IDF line~4130 Alpha Argument length exceeds maximum, will be truncated=  Sp-Corner_Class_1_Pod_2_ZN_1_FLR_1 Sys-3 Flr-2 Sch-D HPlcmt-south ZN NECB System 3 PSZ Occ Sch Thursda\n   **   ~~~   ** Will be processed as Alpha=SP-CORNER_CLASS_1_POD_2_ZN_1_FLR_1 SYS-3 FLR-2 SCH-D HPLCMT-SOUTH ZN NECB SYSTEM 3 PSZ OCC SCH THURSDAY\n   ************* IDF Context for following error/warning message:\n   ************* Note -- lines truncated at 300 characters, if necessary...\n   *************   4144 Schedule:Day:Interval,\n   ************* indicated Name=Sp-Corner_Class_1_Pod_2_ZN_1_FLR_1 Sys-3 Flr-2 Sch-D HPlcmt-south ZN NECB System 3 PSZ Occ Sch Friday\n   ************* Only last 1 lines before error line shown.....\n   *************   4145   Sp-Corner_Class_1_Pod_2_ZN_1_FLR_1 Sys-3 Flr-2 Sch-D HPlcmt-south ZN NECB System 3 PSZ Occ Sch Friday, !- Name\n   ** Warning ** IP: IDF line~4145 Alpha Argument length exceeds maximum, will be truncated=  Sp-Corner_Class_1_Pod_2_ZN_1_FLR_1 Sys-3 Flr-2 Sch-D HPlcmt-south ZN NECB System 3 PSZ Occ Sch Frida\n   **   ~~~   ** Will be processed as Alpha=SP-CORNER_CLASS_1_POD_2_ZN_1_FLR_1 SYS-3 FLR-2 SCH-D HPLCMT-SOUTH ZN NECB SYSTEM 3 PSZ OCC SCH FRIDAY\n   ************* IDF Context for following error/warning message:\n   ************* Note -- lines truncated at 300 characters, if necessary...\n   *************   4159 Schedule:Day:Interval,\n   ************* indicated Name=Sp-Corner_Class_1_Pod_2_ZN_1_FLR_1 Sys-3 Flr-2 Sch-D HPlcmt-south ZN NECB System 3 PSZ Occ Sch Saturday\n   ************* Only last 1 lines before error line shown.....\n   *************   4160   Sp-Corner_Class_1_Pod_2_ZN_1_FLR_1 Sys-3 Flr-2 Sch-D HPlcmt-south ZN NECB System 3 PSZ Occ Sch Saturday, !- Name\n   ** Warning ** IP: IDF line~4160 Alpha Argument length exceeds maximum, will be truncated=  Sp-Corner_Class_1_Pod_2_ZN_1_FLR_1 Sys-3 Flr-2 Sch-D HPlcmt-south ZN NECB System 3 PSZ Occ Sch Saturda\n   **   ~~~   ** Will be processed as Alpha=SP-CORNER_CLASS_1_POD_2_ZN_1_FLR_1 SYS-3 FLR-2 SCH-D HPLCMT-SOUTH ZN NECB SYSTEM 3 PSZ OCC SCH SATURDAY\n   ************* IDF Context for following error/warning message:\n   ************* Note -- lines truncated at 300 characters, if necessary...\n   *************   4166 Schedule:Week:Daily,\n   ************* indicated Name=Schedule:Week:Daily {44957897-2681-42c3-b916-bc55736122bc}\n   ************* Only last 2 lines before error line shown.....\n   *************   4167   Schedule:Week:Daily {44957897-2681-42c3-b916-bc55736122bc}, !- Name\n   *************   4168   Sp-Corner_Class_1_Pod_2_ZN_1_FLR_1 Sys-3 Flr-2 Sch-D HPlcmt-south ZN NECB System 3 PSZ Occ Sch Sunday, !- Sunday Schedule:Day Name\n   ** Warning ** IP: IDF line~4168 Alpha Argument length exceeds maximum, will be truncated=  Sp-Corner_Class_1_Pod_2_ZN_1_FLR_1 Sys-3 Flr-2 Sch-D HPlcmt-south ZN NECB System 3 PSZ Occ Sch Sunda\n   **   ~~~   ** Will be processed as Alpha=SP-CORNER_CLASS_1_POD_2_ZN_1_FLR_1 SYS-3 FLR-2 SCH-D HPLCMT-SOUTH ZN NECB SYSTEM 3 PSZ OCC SCH SUNDAY\n   ************* IDF Context for following error/warning message:\n   ************* Note -- lines truncated at 300 characters, if necessary...\n   *************   4166 Schedule:Week:Daily,\n   ************* indicated Name=Schedule:Week:Daily {44957897-2681-42c3-b916-bc55736122bc}\n   ************* Only last 3 lines before error line shown.....\n   *************   4167   Schedule:Week:Daily {44957897-2681-42c3-b916-bc55736122bc}, !- Name\n   *************   4168   Sp-Corner_Class_1_Pod_2_ZN_1_FLR_1 Sys-3 Flr-2 Sch-D HPlcmt-south ZN NECB System 3 PSZ Occ Sch Sunday, !- Sunday Schedule:Day Name\n   *************   4169   Sp-Corner_Class_1_Pod_2_ZN_1_FLR_1 Sys-3 Flr-2 Sch-D HPlcmt-south ZN NECB System 3 PSZ Occ Sch Monday, !- Monday Schedule:Day Name\n   ** Warning ** IP: IDF line~4169 Alpha Argument length exceeds maximum, will be truncated=  Sp-Corner_Class_1_Pod_2_ZN_1_FLR_1 Sys-3 Flr-2 Sch-D HPlcmt-south ZN NECB System 3 PSZ Occ Sch Monda\n   **   ~~~   ** Will be processed as Alpha=SP-CORNER_CLASS_1_POD_2_ZN_1_FLR_1 SYS-3 FLR-2 SCH-D HPLCMT-SOUTH ZN NECB SYSTEM 3 PSZ OCC SCH MONDAY\n   ************* IDF Context for following error/warning message:\n   ************* Note -- lines truncated at 300 characters, if necessary...\n   *************   4166 Schedule:Week:Daily,\n   ************* indicated Name=Schedule:Week:Daily {44957897-2681-42c3-b916-bc55736122bc}\n   ************* Only last 4 lines before error line shown.....\n   *************   4167   Schedule:Week:Daily {44957897-2681-42c3-b916-bc55736122bc}, !- Name\n   *************   4168   Sp-Corner_Class_1_Pod_2_ZN_1_FLR_1 Sys-3 Flr-2 Sch-D HPlcmt-south ZN NECB System 3 PSZ Occ Sch Sunday, !- Sunday Schedule:Day Name\n   *************   4169   Sp-Corner_Class_1_Pod_2_ZN_1_FLR_1 Sys-3 Flr-2 Sch-D HPlcmt-south ZN NECB System 3 PSZ Occ Sch Monday, !- Monday Schedule:Day Name\n   *************   4170   Sp-Corner_Class_1_Pod_2_ZN_1_FLR_1 Sys-3 Flr-2 Sch-D HPlcmt-south ZN NECB System 3 PSZ Occ Sch Tuesday, !- Tuesday Schedule:Day Name\n   ** Warning ** IP: IDF line~4170 Alpha Argument length exceeds maximum, will be truncated=  Sp-Corner_Class_1_Pod_2_ZN_1_FLR_1 Sys-3 Flr-2 Sch-D HPlcmt-south ZN NECB System 3 PSZ Occ Sch Tuesda\n   **   ~~~   ** Will be processed as Alpha=SP-CORNER_CLASS_1_POD_2_ZN_1_FLR_1 SYS-3 FLR-2 SCH-D HPLCMT-SOUTH ZN NECB SYSTEM 3 PSZ OCC SCH TUESDAY\n   ************* IDF Context for following error/warning message:\n   ************* Note -- lines truncated at 300 characters, if necessary...\n   *************   4166 Schedule:Week:Daily,\n   ************* indicated Name=Schedule:Week:Daily {44957897-2681-42c3-b916-bc55736122bc}\n   ************* Only last 5 lines before error line shown.....\n   *************   4167   Schedule:Week:Daily {44957897-2681-42c3-b916-bc55736122bc}, !- Name\n   *************   4168   Sp-Corner_Class_1_Pod_2_ZN_1_FLR_1 Sys-3 Flr-2 Sch-D HPlcmt-south ZN NECB System 3 PSZ Occ Sch Sunday, !- Sunday Schedule:Day Name\n   *************   4169   Sp-Corner_Class_1_Pod_2_ZN_1_FLR_1 Sys-3 Flr-2 Sch-D HPlcmt-south ZN NECB System 3 PSZ Occ Sch Monday, !- Monday Schedule:Day Name\n   *************   4170   Sp-Corner_Class_1_Pod_2_ZN_1_FLR_1 Sys-3 Flr-2 Sch-D HPlcmt-south ZN NECB System 3 PSZ Occ Sch Tuesday, !- Tuesday Schedule:Day Name\n   *************   4171   Sp-Corner_Class_1_Pod_2_ZN_1_FLR_1 Sys-3 Flr-2 Sch-D HPlcmt-south ZN NECB System 3 PSZ Occ Sch Wednesday, !- Wednesday Schedule:Day Name\n   ** Warning ** IP: IDF line~4171 Alpha Argument length exceeds maximum, will be truncated=  Sp-Corner_Class_1_Pod_2_ZN_1_FLR_1 Sys-3 Flr-2 Sch-D HPlcmt-south ZN NECB System 3 PSZ Occ Sch Wednesda\n   **   ~~~   ** Will be processed as Alpha=SP-CORNER_CLASS_1_POD_2_ZN_1_FLR_1 SYS-3 FLR-2 SCH-D HPLCMT-SOUTH ZN NECB SYSTEM 3 PSZ OCC SCH WEDNESDAY\n   ************* IDF Context for following error/warning message:\n   ************* Note -- lines truncated at 300 characters, if necessary...\n   *************   4166 Schedule:Week:Daily,\n   ************* indicated Name=Schedule:Week:Daily {44957897-2681-42c3-b916-bc55736122bc}\n   ************* Only last 6 lines before error line shown.....\n   *************   4167   Schedule:Week:Daily {44957897-2681-42c3-b916-bc55736122bc}, !- Name\n   *************   4168   Sp-Corner_Class_1_Pod_2_ZN_1_FLR_1 Sys-3 Flr-2 Sch-D HPlcmt-south ZN NECB System 3 PSZ Occ Sch Sunday, !- Sunday Schedule:Day Name\n   *************   4169   Sp-Corner_Class_1_Pod_2_ZN_1_FLR_1 Sys-3 Flr-2 Sch-D HPlcmt-south ZN NECB System 3 PSZ Occ Sch Monday, !- Monday Schedule:Day Name\n   *************   4170   Sp-Corner_Class_1_Pod_2_ZN_1_FLR_1 Sys-3 Flr-2 Sch-D HPlcmt-south ZN NECB System 3 PSZ Occ Sch Tuesday, !- Tuesday Schedule:Day Name\n   *************   4171   Sp-Corner_Class_1_Pod_2_ZN_1_FLR_1 Sys-3 Flr-2 Sch-D HPlcmt-south ZN NECB System 3 PSZ Occ Sch Wednesday, !- Wednesday Schedule:Day Name\n   *************   4172   Sp-Corner_Class_1_Pod_2_ZN_1_FLR_1 Sys-3 Flr-2 Sch-D HPlcmt-south ZN NECB System 3 PSZ Occ Sch Thursday, !- Thursday Schedule:Day Name\n   ** Warning ** IP: IDF line~4172 Alpha Argument length exceeds maximum, will be truncated=  Sp-Corner_Class_1_Pod_2_ZN_1_FLR_1 Sys-3 Flr-2 Sch-D HPlcmt-sout
[...]
Ws4zXkuaas4vNYL89LX51Vrawq3q3FYEH3BpsF3RlsFnRfsFnQUy6bBT3jslnQEy6bBT3fslnQ0y2bheaGQD4P+o4qPg/6Zis+D/o+LD4P+hYtPg/6vkQ+D/qWRT4P+m5GPg/6Rkc+jxryXHN7JJ9HDXmuuamSz6OGlVxTVuk8St9QUq2sKl5hwmBBl1VsFnRnsFnQfcFmQZdVbBZ0WcVmQZdVbBZ0WcVmQU+3bBaasorPg55u+Tzo6ZbPgy6r+DzosorPgy6r+DzosorPgy6r+DzosorPo4Y815RVfB415LmmrOLzqGEl15RVOo/SjeCrlVXFTvEMFnRZxWZBdwabBd0XbBZ0WcVmQZdVbBZ0WcVmQZdVbBb0dMtmoSmr+Dzo6ZbPg55u+TzosorPgy6r+DzosorPgy6r+DzosorPgy6r+DxqyHNNWcXnUUOea8oqPo8aVnJNWaXzKN1vt1pZVWzIy2BBl1VsFnRnsFnQfcFmQZdVbBZ0WcVmQZdVbBZ0WcVmQU+3bBaasorPg55u+Tzo6ZbPgy6r+DzosorPgy6r+DzosorPgy6r+DzosorPo4Y815RVfB415LmmrOLzqGEl15RVOo/SbQ2rlVXFvocMFnRZxWZBdwabBd0XbBZ0WcVmQZdVbBZ0WcVmQZdVbBb0dMtmod1sjctDt1sVl4duIysuD90eV1weuu2vuDx0e75xeei2g+Py0O0Ux+Wh20SOy6OGPNduPcflUUOeazes4/KoYSXXlFUrj+9Vdnhd7ugsjkQo71c7yOYbxzaSu0kz3wG2dKvY1bbQiUzfR/PQSxq9TlPYdq8puuo3p1dtu9mHDONpt2vPG7ipnETx4vjBT4ptlZ+uv8Le05nAeezJ+GKudjmufKLiWLzk+CTdZB7LAkNt1Lxs9w3v+40wwggjjDDCCCOMMMIII4wwwggjjDDCCCOMMMIII4wwwggjjDDCCCOMMMIII4wwwggjjDDCCCOMMMIII4wwwggjjDDCCCOM8N8qvGhHdzKOfU9+ctWDtXa78xefV1WPxiYvH429lLEvk+XjtVZz9QDxLIjSduCHsvQR2eS153TLn6xN2vmr52dR4KZ+FGZQVpLKWetajqNYWtWefP4oJzL0Xl5Q8Vmj32mKrnpyuaMeZFY/rECOUwVWIr2SbQ8nMj0NU9U+mcV4Ho5y0sa2+KNEYkUon86+Kn2WWx3+WDTSqZ+0k7xXqhmp49lJ7az9Tt3RtPFfYFO1Fb56dDxjX+oOZ1HiK8GT7OMqV7M6lMwrVHF0b4a0wvJDT6p8aNlNw7NXx826J459Gajx1li2aZEnkziaz6Qnfv5Z/GP5+UN7OHWT5fPvKsG2n0cXr0azBmm7k8mZ8mgHMpykU/FOOOL/hHUcBJY4fPmNJPBHstGyt68637dL8+1PVxLFonGTXUrnF3GT2SyH6tJXffbPbMYx7yB1qGG81Lu6+d7+IRfi6OioaLz1FHPVZbffmF7q6riOpftjnZMfDc8x/b5qr+XVHalhrQbDcqTkGzm0h26S+JNQegO1RURylbfk9/WactXRs3kybazbF1mXHhb9uX4mBcFhlatsq2+u65KkcfRDVvMpvruuUzRzR366qGa1/PLaV5VbrKzWVVlNJC+nlXXSw3jyUccqnV9OPKIlbFM1k3SrzvrYzFfVSt9/LKsp1LGzI778/lX85/z3C3F5fvH1t8+/io/nv/42EB9OL06rCZxls7Z8cFWJJtJIJFGcinB+m42Dkci3NEmEm4yy4sUPJxUUV22vdJ6tzG5TXFefXGKZzuNQzNw4kWdB5KYNV03521lXPvvsOv+sUmOWl2jPbJeXUCb8uNmdXp7qzzzd82RvbHly7M6DVMziKJvD5FZTbP20vz8YnJ5ubXjjGeAABzjAAQ5wgAMc4AAHOMD5e+KIZH6b/RNYeFJ9KDx3oYhi6YEGNKABDWhAAxrQgAY0oAENaPQ09/mtWf9Dcx3MJXCAAxzgAAc4wAEOcIADHOAAZx2cp/cG2uq9gZdz6r2BXTv/C9vx8e7uwQFIQQpSkIIUpCAFKUhBClKQghSkIH0bpE5O6qYUaScn7XYdZ78PUpCCFKQgBSlIQQpSkIIUpCAFKUjfBmlXkZ7FPkHqHOSktr231+2CFKQgBSlIQQpSkIIUpCAFKUhBCtK3QbqrSL9O5xTpfk56kB299yAFKUhBClKQghSkIAUpSEEKUpCC9G2Q9hTpv6VHke7lpCcng8HeHkhBClKQghSkIAUpSEEKUpCCFKQgfRuk/fx/JuaSIu3npINBvw9SkIIUpCAFKUhBClKQghSkIAUpSN8K6Z4i/RRROws6vZx0f99xej2QghSkIAUpSEEKUpCCFKQgBSlIQVob6QrFi937RqnYQzv100BeTt2ZbKfyIW1sfYjmcVKOsfjzmSf+rQwTPwoDmeQKJRI7O+LY84QrciVx76dTkUS3UnjdkjOTu0nbnc1k6DUs5W1tl5ywOtpumsYN68Fqin7H8KRFdpJT/aQkXQSywGu54Wgaxdn5ViDHBrRLjXEUpq176U+mqdK4jgKvukbRN5ez1qd5kA4HQTZGh87wS+RlP799HtrDs48XQ0dcLpJWV5wFccsWl6Np60R8+BKMbtNWGMVZv3z7LD6fDt6rr6XyVnTFl8tv4nw0Ut/d2tb19LudZBT7s/Rf5Hfe7Xj+3eth8hxaLNMSvndkjVQaDLKWc/1QxkN7z7FE3p5Hlucns8BdHPphkMVa10E0+vGLRQNmqsU1iHQxy85XTbpz4965xafaM9Vx58ZqyIoj4fm3s0C2Q3l/eTdpWD+9AtkUu51O/qM0B5Wu56ZuJnz1hxW41zKwDi1Pjt2sq8UsjsZ+IK1mERk+WId2u9O07txgLpe/j9RUlZ2TzT6Dwemp9dispOMw6XSZdHaZdHpMOn0mnT0mnX0mnQMmHbvDJcQ1om2uIW1zjWmba1DbXKPa5hrWNte4trkGts01sh2uke2wzdVcI9vhGtmO0cgWyfz29sW7qyutaLH0DGTINjKTIVvITIZsHzMZMu/NZMisN5Mhc95Mhsx4Mxky381k6IXMUIdpHNPLmKEO00imFzFDHaaxTC9hhjpMo5lewAx1mMYzvXwZ6nDNy0zjmV67DHWqj+d7P0zNl61r9VF1HbJ5DHXI5jHUIZvHUIdMd0MdMt0Ndch0N9Qh091Qh0x3Qx16/TIV4hrR9ApmKsQ1puk1zFSIa1TTq5ipENe4ptcxUyGukU2vZKZCbHM118imFzNToeoj++mPGaUvG6aWuc6Lf+gVbyNmsHA2b9HdvMXu5i16m7fob95ib/MW+5u3ONi8xYuVfVMeNeS3XUOC2zVkuF1Dits15LhdQ5LbNWS5XUOa2zXkuVNDnjt1rOM15LlTQ5476+V56Tsdq5VVxUsfGSzo3mCzoDuDzYLuCzYLespls6BnXDYLesJls6DnWzYLerpls9CUVXweNeS3pqzi86ghwzVlFZ9HDTmuKav4PGrIck1ZxedRQ55ryio+jzrW8RryXFNW8Xmsl+elr86qVlYV79ZisKB7g82C7gw2C7ov2CzoKZfNgp5x2SzoCZfNgp5v2Szo6ZbNQnNDIJ8HfUcVnwd9sxWfB30fFp8HfYsWnwd9XyKfB33LIp8HfTcjnwd9oyOfRw15rrk9ks+jhjzX3FTJ51HDSq4pq3QepW8oqVZWFa8wYbCgyyo2C7oz2CzovmCzoMsqNgu6rGKzoMsqNgu6rGKzoKdbNgtNWcXnQU+3fB70dMvnQZdVfB50WcXnQZdVfB50WcXnQZdVfB50WcXnUUOea8oqPo8a8lxTVvF51LCSa8oqnUfpRvDVyqpip3gGC7qsYrOgO4PNgu4LNgu6rGKzoMsqNgu6rGKzoMsqNgt6umWz0JRVfB70dMvnQU+3fB50WcXnQZdVfB50WcXnQZdVfB50WcXnQZdVfB415LmmrOLzqCHPNWUVn0cNK7mmrNJ5lO63W62sKjbkZbCgyyo2C7oz2CzovmCzoMsqNgu6rGKzoMsqNgu6rGKzoKdbNgtNWcXnQU+3fB70dMvnQZdVfB50WcXnQZdVfB50WcXnQZdVfB50WcXnUUOea8oqPo8a8lxTVvF51LCSa8oqnUfptobVyqpi30MGC7qsYrOgO4PNgu4LNgu6rGKzoMsqNgu6rGKzoMsqNgt6umWz0G62xuWh262Ky0O3kRWXh26PKy4P3fZXXB66Pd+4PHTbwXF56HaK4/LQbSLH5VFDnmu3nuPyqCHPtRvWcXnUsJJryqqVx/cqO7wud3QWRyKU96sdZPONYxvJ3aSZ7wBbulXsalvoRKbvo3noJY1epylsu9cUXfWb06u23exDhvG027XnDdxUTqJ4cfzgJ8W2yk/XX2Hv6UzgPPZkfDFXuxxXPlFxLF5yfJJuMo9lgaE2al62+4b3/UYYYYQRRhhhhBFGGGGEEUYYYYQRRhhhhBFGGGGEEUYYYYQRRhhhhBFGGGGEEUYYYYQRRhhhhBFGGGGEEUYYYYQRRhhhhBFG+G8VXrSjOxnHvic/uerBWrvd+YvPq6pHY5OXj8ZeytiXyfLxWqu5eoB4FkRpO/BDWfqIbPLac7rlT9Ym7fzV87MocFM/CjMoK0nlrHUtx1EsrWpPPn+UExl6Ly+o+KzR7zRFVz253FEPMqsfViDHqQIrkV7JtocTmZ6GqWqfzGI8D0c5aWNb/FEisSKUT2dflT7LrQ5/LBrp1E/aSd4r1YzU8eykdtZ+p+5o2vgvsKnaCl89Op6xL3WHsyjxleBJ9nGVq1kdSuYVqji6N0NaYfmhJ1U+tOym4dmr42bdE8e+DNR4ayzbtMiTSRzNZ9ITP/8s/rH8/KE9nLrJ8vl3lWDbz6OLV6NZg7TdyeRMebQDGU7SqXgnHPF/wjoOAkscvvxGEvgj2WjZ21ed79ul+fanK4li0bjJLqXzi7jJbJZDdemrPvtnNuOYd5A61DBe6l3dfG//kAtxdHRUNN56irnqsttvTC91dVzH0v2xzsmPhueYfl+11/LqjtSwVoNhOVLyjRzaQzdJ/EkovYHaIiK5ylvy+3pNuero2TyZNtbti6xLD4v+XD+TguCwylW21TfXdUnSOPohq/kU313XKZq5Iz9dVLNafnntq8otVlbrqqwmkpfTyjrpYTz5qGOVzi8nHtEStqmaSbpVZ31s5qtqpe8/ltUU6tjZEV9+/yr+c/77hbg8v/j62+dfxcfzX38biA+nF6fVBM6yWVs+uKpEE2kkkihORTi/zcbBSORbmiTCTUZZ8eKHkwqKq7ZXOs9WZrcprqtPLrFM53EoZm6cyLMgctOGq6b87awrn312nX9WqTHLS7RntstLKBN+3OxOL0/1Z57uebI3tjw5dudBKmZxlM1hcqsptn7a3x8MTk+3NrzxDHCAAxzgAAc4wAEOcIADHOD8PXFEMr/N/gksPKk+FJ67UESx9EADGtCABjSgAQ1oQAMa0IAGNHqa+/zWrP+huQ7mEjjAAQ5wgAMc4AAHOMABDnCAsw7O03sDbfXewMs59d7Arp3/he34eHf34ACkIAUpSEEKUpCCFKQgBSlIQQpSkL4NUicndVOKtJOTdruOs98HKUhBClKQghSkIAUpSEEKUpCCFKRvg7SrSM9inyB1DnJS297b63ZBClKQghSkIAUpSEEKUpCCFKQgBenbIN1VpF+nc4p0Pyc9yI7ee5CCFKQgBSlIQQpSkIIUpCAFKUhB+jZIe4r039KjSPdy0pOTwWBvD6QgBSlIQQpSkIIUpCAFKUhBClKQvg3Sfv4/E3NJkfZz0sGg3wcpSEEKUpCCFKQgBSlIQQpSkIIUpG+FdE+RfoqonQWdXk66v+84vR5IQQpSkIIUpCAFKUhBClKQghSkIK2NdIXixe59o1TsoZ36aSAvp+5MtlP5kDa2PkTzOCnHWPz5zBP/VoaJH4WBTHKFEomdHXHsecIVuZK499OpSKJbKbxuyZnJ3aTtzmYy9BqW8ra2S05YHW03TeOG9WA1Rb9jeNIiO8mpflKSLgJZ4LXccDSN4ux8K5BjA9qlxjgK09a99CfTVGlcR4FXXaPom8tZ69M8SIeDIBujQ2f4JfKG3eG3z0N7ePbxYmiLy0XS6oqzIG454nI0bZ2ID1+C0W3aCqM465dvn8Xn08F79bVU3oqu+HL5TZyPRuq7W9u6nn63k4xif5b+i/zOux3Pv3s9TJ5Di2VawveOrJFKg0HWcq4fynho73UtkbfnkeX5ySxwF4d+GGSx1nUQjX78YtGAmWpxDSJdzLLzVZPu3Lh3bvGp9kx13LmxGrLiSHj+7SyQ7VDeX95NGtZPr0A2xW6nk/8ozUGl67mpmwlf/WEF7rUMrEPLk2M362oxi6OxH0irWUSGD9ah3e40rTs3mMvl7yM1VWXnZLPPYHB6aj02K+k4TDpdJp1dJp0ek06fSWePSWefSeeAScfucAlxjWiba0jbXGPa5hrUNteotrmGtc01rm2ugW1zjWyHa2Q7bHM118h2uEa2YzSyRTK/vX3x7upKK1osPQMZso3MZMgWMpMh28dMhsx7Mxky681kyJw3kyEz3kyGzHczGXohM9RhGsf0MmaowzSS6UXMUIdpLNNLmKEO02imFzBDHabxTC9fhjpc8zLTeKbXLkOd6uP53g9T82XrWn1UXYdsHkMdsnkMdcjmMdQh091Qh0x3Qx0y3Q11yHQ31CHT3VCHXr9MhbhGNL2CmQpxjWl6DTMV4hrV9CpmKsQ1rul1zFSIa2TTK5mpENtczTWy6cXMVKj6yH76Y0bpy4apZa7z4h96xduIGSyczVt0N2+xu3mL3uYt+pu32Nu8xf7mLQ42b/FiZd+URw35bdeQ4HYNGW7XkOJ2DTlu15Dkdg1ZbteQ5nYNee7UkOdOHet4DXnu1JDnznp5XvpOx2plVfHSRwYLujfYLOjOYLOg+4LNgp5y2SzoGZfNgp5w2Szo+ZbNgp5u2Sw0ZRWfRw35rSmr+DxqyHBNWcXnUUOOa8oqPo8aslxTVvF51JDnmrKKz6OOdbyGPNeUVXwe6+V56auzqpVVxbu1GCzo3mCzoDuDzYLuCzYLespls6BnXDYLesJls6DnWzYLerpls9DcEMjnQd9RxedB32zF50Hfh8XnQd+ixedB35fI50HfssjnQd/NyOdB3+jI51FDnmtuj+TzqCHPNTdV8nnUsJJryiqdR+kbSqqVVcUrTBgs6LKKzYLuDDYLui/YLOiyis2CLqvYLOiyis2CLqvYLOjpls1CU1bxedDTLZ8HPd3yedBlFZ8HXVbxedBlFZ8HXVbxedBlFZ8HXVbxedSQ55qyis+jhjzXlFV8HjWs5JqySudRuhF8tbKq2CmewYIuq9gs6M5gs6D7gs2CLqvYLOiyis2CLqvYLOiyis2Cnm7ZLDRlFZ8HPd3yedDTLZ8HXVbxedBlFZ8HXVbxedBlFZ8HXVbxedBlFZ9HDXmuKav4PGrIc01ZxedRw0quKat0HqX77VYrq4oNeRks6LKKzYLuDDYLui/YLOiyis2CLqvYLOiyis2CLqvYLOjpls1CU1bxedDTLZ8HPd3yedBlFZ8HXVbxedBlFZ8HXVbxedBlFZ8HXVbxedSQ55qyis+jhjzXlFV8HjWs5JqySudRuq1htbKq2PeQwYIuq9gs6M5gs6D7gs2CLqvYLOiyis2CLqvYLOiyis2Cnm7ZLLSbrXF56Har4vLQbWTF5aHb44rLQ7f9FZeHbs83Lg/ddnBcHrqd4rg8dJvIcXnUkOfaree4PGrIc+2GdVweNazkmrJq5fG9yg6vyx2dxZEI5f1qB9l849hGcjdp5jvAlm4Vu9oWOpHp+2geekmj12kK2+41RVf95vSqbTf7kGE87XbteQM3lZMoXhw/+EmxrfLT9VfYezoTOI89GV/M1S7HlU9UHIuXHJ+km8xjWWCojZqX7b7hfb8RRhhhhBFGGGGEEUYYYYQRRhhhhBFGGGGEEUYYYYQRRhhhhBFGGGGEEUYYYYQRRhhhhBFGGGGEEUYYYYQRRhhhhBFGGGGEEf5bhRft6E7Gse/JT656sNZud/7i86rq0djk5aOxlzL2ZbJ8vNZqrh4gngVR2g78UJY+Ipu89pxu+ZO1STt/9fwsCtzUj8IMykpSOWtdy3EUS6vak88f5USG3ssLKj5r9DtN0VVPLnfUg8zqhxXIcarASqRXsu3hRKanYaraJ7MYz8NRTtrYFn+USKwI5dPZV6XPcqvDH4tGOvWTdpL3SjUjdTw7qZ2136k7mjb+C2yqtsJXj45n7Evd4SxKfCV4kn1c5WpWh5J5hSqO7s2QVlh+6EmVDy27aXj26rhZ98SxLwM13hrLNi3yZBJH85n0xM8/i38sP39oD6dusnz+XSXY9vPo4tVo1iBtdzI5Ux7tQIaTdCreCUf8n7COg8AShy+/kQT+SDZa9vZV5/t2ab796UqiWDRuskvp/CJuMpvlUF36qs/+mc045h2kDjWMl3pXN9/bP+RCHB0dFY23nmKuuuz2G9NLXR3XsXR/rHPyo+E5pt9X7bW8uiM1rNVgWI6UfCOH9tBNEn8SSm+gtohIrvKW/L5eU646ejZPpo11+yLr0sOiP9fPpCA4rHKVbfXNdV2SNI5+yGo+xXfXdYpm7shPF9Wsll9e+6pyi5XVuiqrieTltLJOehhPPupYpfPLiUe0hG2qZpJu1Vkfm/mqWun7j2U1hTp2dsSX37+K/5z/fiEuzy++/vb5V/Hx/NffBuLD6cVpNYGzbNaWD64q0UQaiSSKUxHOb7NxMBL5liaJcJNRVrz44aSC4qrtlc6zldltiuvqk0ss03kcipkbJ/IsiNy04aopfzvrymefXeefVWrM8hLtme3yEsqEHze708tT/Zmne57sjS1Pjt15kIpZHGVzmNxqiq2f9vcHg9PTrQ1vPAMc4AAHOMABDnCAAxzgAAc4f08ckcxvs38CC0+qD4XnLhRRLD3QgAY0oAENaEADGtCABjSgAY2e5j6/Net/aK6DuQQOcIADHOAABzjAAQ5wgAMc4KyD8/TeQFu9N/ByTr03sGvnf2E7Pt7dPTgAKUhBClKQghSkIAUpSEEKUpCCFKRvg9TJSd2UIu3kpN2u4+z3QQpSkIIUpCAFKUhBClKQghSkIAXp2yDtKtKz2CdInYOc1Lb39rpdkIIUpCAFKUhBClKQghSkIAUpSEH6Nkh3FenX6Zwi3c9JD7Kj9x6kIAUpSEEKUpCCFKQgBSlIQQpSkL4N0p4i/bf0KNK9nPTkZDDY2wMpSEEKUpCCFKQgBSlIQQpSkIIUpG+DtJ//z8RcUqT9nHQw6PdBClKQghSkIAUpSEEKUpCCFKQgBelbId1TpJ8iamdBp5eT7u87Tq8HUpCCFKQgBSlIQQpSkIIUpCAFKUhrI12heLF73ygVe2infhrIy6k7k+1UPqSNrQ/RPE7KMRZ/PvPEv5Vh4kdhIJNcoURiZ0cce55wRa4k7v10KpLoVgqvW3Jmcjdpu7OZDL2Gpbyt7ZITVkfbTdO4YT1YTdHvGJ60yE5yqp+UpItAFngtNxxNozg73wrk2IB2qTGOwrR1L/3JNFUa11HgVdco+uZy1vo0D9LhIMjG6NAZfom8YXf47fPQHp59vBg64nKRtLriLIhbtrgcTVsn4sOXYHSbtsIozvrl22fx+XTwXn0tlbeiK75cfhPno5H67ta2rqff7SSj2J+l/yK/827H8+9eD5Pn0GKZlvC9I2uk0mCQtZzrhzIe2nu7lsjb88jy/GQWuItDPwyyWOs6iEY/frFowEy1uAaRLmbZ+apJd27cO7f4VHumOu7cWA1ZcSQ8/3YWyHYo7y/vJg3rp1cgm2K308l/lOag0vXc1M2Er/6wAvdaBtah5cmxm3W1mMXR2A+k1Swiwwfr0G53mtadG8zl8veRmqqyc7LZZzA4PbUem5V0HCadLpPOLpNOj0mnz6Szx6Szz6RzwKRjd7iEuEa0zTWkba4xbXMNaptrVNtcw9rmGtc218C2uUa2wzWyHba5mmtkO1wj2zEa2SKZ396+eHd1pRUtlp6BDNlGZjJkC5nJkO1jJkPmvZkMmfVmMmTOm8mQGW8mQ+a7mQy9kBnqMI1jehkz1GEayfQiZqjDNJbpJcxQh2k00wuYoQ7TeKaXL0MdrnmZaTzTa5ehTvXxfO+Hqfmyda0+qq5DNo+hDtk8hjpk8xjqkOluqEOmu6EOme6GOmS6G+qQ6W6oQ69fpkJcI5pewUyFuMY0vYaZCnGNanoVMxXiGtf0OmYqxDWy6ZXMVIhtruYa2fRiZipUfWQ//TGj9GXD1DLXefEPveJtxAwWzuYtupu32N28RW/zFv3NW+xt3mJ/8xYHm7d4sbJvyqOG/LZrSHC7hgy3a0hxu4Yct2tIcruGLLdrSHO7hjx3ashzp451vIY8d2rIc2e9PC99p2O1sqp46SODBd0bbBZ0Z7BZ0H3BZkFPuWwW9IzLZkFPuGwW9HzLZkFPt2wWmrKKz6OG/NaUVXweNWS4pqzi86ghxzVlFZ9HDVmuKav4PGrIc01ZxedRxzpeQ55ryio+j/XyvPTVWdXKquLdWgwWdG+wWdCdwWZB9wWbBT3lslnQMy6bBT3hslnQ8y2bBX1vFJuF5oZAPg/6jio+D/pmKz4P+j4sPg/6Fi0+D/q+RD4P+pZFPg/6bkY+D/pGRz6PGvJcU1bxedSxjtewkGvKKj6P9Zby0jeUVCurileYMFjQvcFmQXcGmwXdF2wWdFnFZkGXVWwWdFnFZkGXVWwW9HTLZqEpq/g86LKKz4Muq/g86LKKz4Muq/g86LKKz4Muq/g86LKKz4Muq/g8ashzTVnF51HHOl7DQq4pq/g81lvKSzeCr1ZWFTvFM1jQvcFmQXcGmwXdF2wWdFnFZkGXVWwWdFnFZkGXVWwW9HTLZqEpq/g86LKKz4Muq/g86LKKz4Muq/g86LKKz4Muq/g86LKKz4Muq/g8ashzTVnF51HHOl7DQq4pq/g81lvKS/fbrVZWFRvyMljQvcFmQXcGmwXdF2wWdFnFZkGXVWwWdFnFZkGXVWwW9HTLZqEpq/g86LKKz4Muq/g86LKKz4Muq/g86LKKz4Muq/g86LKKz4Muq/g8ashzTVnF51HHOl7DQq4pq/g81lvKS7c1rFZWFfseMljQvcFmQXcGmwXdF2wWdFnFZkGXVWwWdFnFZkGXVWwWun2nmCy0m61xeeh2q+Ly0G1kxeWh2+OKy0O3/RWXh27PNy4P3XZwXB66neK4PHSbyHF51JDnmrKKz6OOdbyGhVxTVvF5lC/l36vs8Lrc0VkciVDer3aQzTeObSR3k2a+A2zpVrGrbaETmb6P5qGXNHqdprDtXlN01W9Or9p2sw8ZxtNu1543cFM5ieLF8YOfFNsqP11/hb2nM4Hz2JPxxVztclz5RMWxeMnxSbrJPJYFhtqoednuG973G2GEEUYYYYQRRhhhhBFGGGGEEUYYYYQRRhhhhBFGGGGEEUYYYYQRRhhhhBFGGGGEEUYYYYQRRhhhhBFGGGGEEUYYYYQRRhjhv1V40Y7uZBz7nvzkqgdr7XbnLz6vqh6NTV4+GnspY18my8drrebqAeJZEKXtwA9l6SOyyWvP6ZY/WZu081fPz6LATf0ozKCsJJWz1rUcR7G0qj35/FFOZOi9vKDis0a/0xRd9eRyRz3IrH5YgRynCqxEeiXbHk5kehqmqn0yi/E8HOWkjW3xR4nEilA+nX1V+iy3OvyxaKRTP2knea9UM1LHs5PaWfuduqNp47/ApmorfPXoeMa+1B3OosRXgifZx1WuZnUomVeo4ujeDGmF5YeeVPnQspuGZ6+Om3VPHPsyUOOtsWzTIk8mcTSfSU/8/LP4x/Lzh/Zw6ibL599Vgm0/jy5ejWYN0nYnkzPl0Q5kOEmn4p1wxP8J6zgILHH48htJ4I9ko2VvX3W+b5fm25+uJIpF4ya7lM4v4iazWQ7Vpa/67J/ZjGPeQepQw3ipd3Xzvf1DLsTR0VHReOsp5qrLbr8xvdTVcR1L98c6Jz8anmP6fdVey6s7UsNaDYblSMk3cmgP3STxJ6H0BmqLiOQqb8nv6zXlqqNn82TaWLcvsi49LPpz/UwKgsMqV9lW31zXJUnj6Ies5lN8d12naOaO/HRRzWr55bWvKrdYWa2rsppIXk4r66SH8eSjjlU6v5x4REvYpmom6Vad9bGZr6qVvv9YVlOoY2dHfPn9q/jP+e8X4vL84utvn38VH89//W0gPpxenFYTOMtmbfngqhJNpJFIojgV4fw2GwcjkW9pkgg3GWXFix9OKiiu2l7pPFuZ3aa4rj65xDKdx6GYuXEiz4LITRuumvK3s6589tl1/lmlxiwv0Z7ZLi+hTPhxszu9PNWfebrnyd7Y8uTYnQepmMVRNofJrabY+ml/fzA4Pd3a8MYzwAEOcIADHOAABzjAAQ5wgPP3xBHJ/Db7J7DwpPpQeO5CEcXSAw1oQAMa0IAGNKABDWhAAxrQ6Gnu81uz/ofmOphL4AAHOMABDnCAAxzgAAc4wAHOOjhP7w201XsDL+fUewO7dv4XtuPj3d2DA5CCFKQgBSlIQQpSkIIUpCAFKUhB+jZInZzUTSnSTk7a7TrOfh+kIAUpSEEKUpCCFKQgBSlIQQpSkL4N0q4iPYt9gtQ5yElte2+v2wUpSEEKUpCCFKQgBSlIQQpSkIIUpG+DdFeRfp3OKdL9nPQgO3rvQQpSkIIUpCAFKUhBClKQghSkIAXp2yDtKdJ/S48i3ctJT04Gg709kIIUpCAFKUhBClKQghSkIAUpSEH6Nkj7+f9MzCVF2s9JB4N+H6QgBSlIQQpSkIIUpCAFKUhBClKQvhXSPUX6KaJ2FnR6Oen+vuP0eiAFKUhBClKQghSkIAUpSEEKUpCCtDbSFYoXu/eNUrGHduqngbycujPZTuVD2tj6EM3jpBxj8eczT/xbGSZ+FAYyyRVKJHZ2xLHnCVfkSuLeT6ciiW6l8LolZyZ3k7Y7m8nQa1jK29ouOWF1tN00jRvWg9UU/Y7hSYvsJKf6SUm6CGSB13LD0TSKs/OtQI4NaJca4yhMW/fSn0xTpXEdBV51jaJvLmet8/HYH8lk+O3z0B6efbwY2uJykbS64iyIW464HE1bx+LDl2B0m7aSaJ51xrfP4vPp4L36WipvRVd8ufwmzkcj9d2tbV33vttJRrE/S/9FfufdjuffvR4mz6HFMi3he0fWSI39QdZcrh/KeGjv9SyRN+KR5fnJLHAXh34YZLHWdRCNfvxi0YCZanENIl3MsvNVO+7cuHdu8an2THXcubEap+JIeP7tLJDtUN5f3k0a1k+vQDbFbqeT/yhNPKXruambCV/9YQXutQysQ8uTY3cepGIWR2M/kFaziAwfrEO73Wlad24wl8vfR2p+ys7JppzB4PTUemxW0nGYdLpMOrtMOj0mnT6Tzh6Tzj6TzgGTjt3hEuIa0TbXkLa5xrTNNahtrlFtcw1rm2tc21wD2+Ya2Q7XyHbY5mquke1wjWzHaGSLZH57++KF1ZVWtFh6BjJkG5nJkC1kJkO2j5kMmfdmMmTWm8mQOW8mQ2a8mQyZ72Yy9EJmqMM0jullzFCHaSTTi5ihDtNYppcwQx2m0UwvYIY6TOOZXr4MdbjmZabxTK9dhjrVx/O9H6bmy9a1+qi6Dtk8hjpk8xjqkM1jqEOmu6EOme6GOmS6G+qQ6W6oQ6a7oQ69fpkKcY1oegUzFeIa0/QaZirENarpVcxUiGtc0+uYqRDXyKZXMlMhtrmaa2TTi5mpUPWR/fQXjNI3DFPLXOfFP/SKVxAzWDibt+hu3mJ38xa9zVv0N2+xt3mL/c1bHGze4sXKvimPGvLbriHB7Roy3K4hxe0actyuIcntGrLcriHN7Rry3Kkhz5061vEa8typIc+d9fK89EWO1cqq4k2PDBZ0b7BZ0J3BZkH3BZsFPeWyWdAzLpsFPeGyWdDzLZsFPd2yWWjKKj6PGvJbU1bxedSQ4Zqyis+jhhzXlFV8HjVkuaas4vOoIc81ZRWfRx3reA15rimr+DzWy/PS92VVK6uKF2oxWNC9wWZBdwabBd0XbBb0lMtmQc+4bBb0hMtmQc+3bBb0vVFsFpobAvk86Duq+Dzom634POj7sPg86Fu0+Dzo+xL5POhbFvk86LsZ+TzoGx35PGrIc01ZxedRxzpew0KuKav4PNZbyktfS1KtrCreW8JgQfcGmwXdGWwWdF+wWdBlFZsFXVaxWdBlFZsFXVaxWdDTLZuFpqzi86DLKj4Puqzi86DLKj4Puqzi86DLKj4Puqzi86DLKj4Puqzi86ghzzVlFZ9HHet4DQu5pqzi81hvKS/d/b1aWVVsD89gQfcGmwXdGWwWdF+wWdBlFZsFXVaxWdBlFZsFXVaxWdDTLZuFpqzi86DLKj4Puqzi86DLKj4Puqzi86DLKj4Puqzi86DLKj4Puqzi86ghzzVlFZ9HHet4DQu5pqzi81hvKS/dZLdaWVXswstgQfcGmwXdGWwWdF+wWdBlFZsFXVaxWdBlFZsFXVaxWdDTLZuFpqzi86DLKj4Puqzi86DLKj4Puqzi86DLKj4Puqzi86DLKj4Puqzi86ghzzVlFZ9HHet4DQu5pqzi81hvKS/dy7BaWVVsdshgQfcGmwXdGWwWdF+wWdBlFZsFXVaxWdBlFZsFXVaxWej2nWKy0G62xuWh262Ky0O3kRWXh26PKy4P3fZXXB66Pd+4PHTbwXF56HaK4/LQbSLH5VFDnmvKKj6POtbxGhZyTVnF51G+lH+vssPrchtncSRCeb/aQTbfOLaR3E2a+Q6wpVvFrvaCTmT6PpqHXtLodZrCtntN0VW/Ob1q280+ZBhPW1x73sBN5SSKF8cPflLspfx0/RU2nM4EzmNPxhdztbVx5RMVx+IlxyfpJvNYFhhqd+Zlu294s2+EEUYYYYQRRhhhhBFGGGGEEUYYYYQRRhhhhBFGGGGEEUYYYYQRRhhhhBFGGGGEEUYYYYQRRhhhhBFGGGGEEUYYYYQRRhhhhP9W4UU7upNx7Hvyk6serLXbnb/4vKp6NDZ5+WjspYx9mSwfr7WaqweIZ0GUtgM/lKWPyCavPadb/mRt0s5fPT+LAjf1ozCDspJUzlrXchzF0qr25PNHOZGh9/KCis8a/U5TdNWTyx31ILP6YQVynCqwEumVbHs4kelpmKr2ySzG83CUkza2xR8lEitC+XT2Vemz3Orwx6KRTv2kneS9Us1IHc9Oamftd+qOpo3/ApuqrfDVo+MZ+1J3OIsSXwmeZB9XuZrVoWReoYqjezOkFZYfelLlQ8tuGp69Om7WPXHsy0CNt8ayTYs8mcTRfCY98fPP4h/Lzx/aw6mbLJ9/Vwm2/Ty6eDWaNUjbnUzOlEc7kOEknYp3whH/J6zjILDE4ctvJIE/ko2WvX3V+b5dmm9/upIoFo2b7FI6v4ibzGY5VJe+6rN/ZjOOeQepQw3jpd7Vzff2D7kQR0dHReOtp5irLrv9xvRSV8d1LN0f65z8aHiO6fdVey2v7kgNazUYliMl38ihPXSTxJ+E0huoLSKSq7wlv6/XlKuOns2TaWPdvsi69LDoz/UzKQgOq1xlW31zXZckjaMfsppP8d11naKZO/LTRTWr5ZfXvqrcYmW1rspqInk5rayTHsaTjzpW6fxy4hEtYZuqmaRbddbHZr6qVvr+Y1lNoY6dHfHl96/iP+e/X4jL84uvv33+VXw8//W3gfhwenFaTeAsm7Xlg6tKNJFGIoniVITz22wcjES+pUki3GSUFS9+OKmguGp7pfNsZXab4rr65BLLdB6HYubGiTwLIjdtuGrK38668tln1/lnlRqzvER7Zru8hDLhx83u9PJUf+bpnid7Y8uTY3cepGIWR9kcJreaYuun/f3B4PR0a8MbzwAHOMABDnCAAxzgAAc4wAHO3xNHJPPb7J/AwpPqQ+G5C0UUSw80oAENaEADGtCABjSgAQ1oQKOnuc9vzfofmutgLoEDHOAABzjAAQ5wgAMc4AAHOOvgPL030FbvDbycU+8N7Nr5X9iOj3d3Dw5AClKQghSkIAUpSEEKUpCCFKQgBenbIHVyUjelSDs5abfrOPt9kIIUpCAFKUhBClKQghSkIAUpSEH6Nki7ivQs9glS5yAnte29vW4XpCAFKUhBClKQghSkIAUpSEEKUpC+DdJdRfp1OqdI93PSg+zovQcpSEEKUpCCFKQgBSlIQQpSkIIUpG+DtKdI/y09inQvJz05GQz29kAKUpCCFKQgBSlIQQpSkIIUpCAF6dsg7ef/MzGXFGk/Jx0M+n2QghSkIAUpSEEKUpCCFKQgBSlIQfpWSPcU6aeI2lnQ6eWk+/uO0+uBFKQgBSlIQQpSkIIUpCAFKUhBCtLaSFcoXuzeN0rFHtqpnwbycurOZDuVD2lj60M0j5NyjMWfzzzxb2WY+FEYyCRXKJHY2RHHnidckSuJez+diiS6lcLrlpyZ3E3a7mwmQ69hKW9ru+SE1dF20zRuWA9WU/Q7hictspOc6icl6SKQBV7LDUfTKM7OtwI5NqBdaoyjMG3dS38yTZXGdRR41TWKvrmctc7HY38kk+G3z0N7ePbxYuiIy0XS6oqzIG7Z4nI0bR2LD1+C0W3aSqJ51hnfPovPp4P36mupvBVd8eXymzgfjdR3t7Z13ftuJxnF/iz9F/mddzuef/d6mDyHFsu0hO8dWSM19gdZc7l+KOOhvde3RN6IR5bnJ7PAXRz6YZDFWtdBNPrxi0UDZqrFNYh0McvOV+24c+PeucWn2jPVcefGapyKI+H5t7NAtkN5f3k3aVg/vQLZFLudTv6jNPGUruembiZ89YcVuNcysA4tT47deZCKWRyN/UBazSIyfLAO7Xanad25wVxah/2D9sGzY/+gaY3UbJUpZBPQYHB6aj02K6k6G1HtbkR1dyOqvY2o9jeiurcR1f2NqB5sRNXubEZ2M9llbya97M3kl72ZBLM3k2H2ZlLM3kyO2ZtJMnszWeZsJsucDa1hm8kyZzNZ5vyFLBPJ/Pb2xQvA16gQYukZiFZsWzPRii1rJlqxXc1EK85dZqIVZy4z0YrzlploxVnLTLTinGUmWrUwMFTdSE5VLQsMVTeSVVWLAkPVjeRV1ZLAUHUjmVW1IDBU3UhuVS0HDFU3s15tJLeq1gKGquvm1r0fpn+1DLhWX6iuWrFZDVUrNquhasVmNVStOGUZqlacsgxVK05ZhqoVpyxD1YpTlqFq1XrAVHYz2VW1IjCV3Ux+Va0JTGU3k2FVqwJT2c3kWNW6wFR2M1lWtTIwld3QGraZLKtaHJjKGmXZ9yp/cFj+VVEciVDer/6gkf8do5HcTZr5HyRK/3Kx+tNkItP30Tz0kkav0xS23WuKrvrN6VX768dDhvH0F1fPG7ipnETx4vjBT4o/7T01RYW/f2YC57En/7+dM+pt24ai8Pt+BZeHQsZiNXK3ZsuWDcVqtwXapkhTFEUQBLJN23JkSRCltkaR/z5emfKsJJwlkWhi7PAhdnSlw4/UJSmEyklPc9ppq30hcSyrHG+4L/KUrzBos1DdAtMd3WIjqVrVe54GXChcWZO6IUkYZy7tbm2tUtzV7u2kwi3yLolDPwviSELtiYwn3SGfxCnfq5dJr/mUR+Nqg1bHnKcyC55QJtBmmEc/1Ibp1r3kUta9nPKsH2XUP7KKSR6NClKnw77V2DElQr6++nzr2KASTJiTzQIh85quq1cRlY2LXNl/fX80c/4FbqpW4qu9QaV7mcQiIMHn8nCd1pSFZO6gSuMvzZBKrCAacxq4XW+/4dVlmbe9cBLwkPLNUX26GifTNM4TPmaPHrEf1fGv7uXMF2o+oQHW2Ywu74zKDnH96XRAdbghj6bZjP3BeuwvtvcsDPfYUfUMEQYj7nS9zvnBRWfreLvVkjhlzlw25eB3NpfVqFRV9dKxn46Z1/wGUaE0Vnrn8wv3isvp7fh41XntFAtVddvnTZtalmHK/as2F183vKbp+dRfqnXHlNaUDCpTioXRvVy9DcTHxftA4rzoyYt2XVne6CQXM6ftvZC39Gh1P9uPpDA8qtNKl85sW4vI0viK16tndW7bmuLEHwXZsl5V6uTWrSqqKKtqq1JOJNVppc3waDz5UCmHc3XiYV3mNVVrMtzqs17vF6tqrfOvtz1TUHn8mL37cMY+nXw4Ze9PTs9evX3BXp+8ePU3e9k/7dcTGMhZm3/16RGNZTETsXyQjvKFzIMRKx4RBfPFSD68BNG0hmLZ96SzsTL7+2xYf3JJeZanEUv8VPBBGPuZ49OU35G3cuPYsDhWqzO3P6JtVKuasE34+h7e2ryxAatezaQN1Xt5iRQ4wAEOcIADHOAABzjAAQ5wdh7n9gsuRJTyMWhAAxrQgAY0oAENaEADGtCA5r9pbr0SSDT0ih9wgAMc4AAHOMABDnCAAxzgAOcevRLP+CLhqZ/lKWfOoAO3xAfllvjRp4x7yYuPZ4thwKOM0S0j50M+zmX/d9nhwWBHTBAPd8EE8fC7mSAW/3ra1oTJks4TSzo/W9L5xZLOU0s6h5Z0frWk85slnYq7gJGQrYz2bKW0ZyunPVtJ7dnKas9WWnu28tqzldierczu2crsnrW52lZm92xldq9RZtc37atItbfpM5DR9lB7Kz4DGe24b2+3ZyCjHfPtLfUMZLTj3cA2z0THUh7rlzEDMzwTHUuprF/DDCzuTHQsZbN+ATMwrjOZBy3ls371MrCjM9GxlM/6pau9yVxFxsBWzkRH2z0G1nEmOtrhbmAPZ6KjHe4GFnAmOtrhbmLzZiRkK6P1K5iJeZuRkK2k1i9iJpZsRkK28lq/jpkYrRnNjLYyW7+UmdinGQnZymz9agZTtJ0wRUMYYYQRRhhhhBFGGGGEEUYYYYQRRvghhZdu/JmnaTDmb3z6Q5XnHsAUf6MlMMVfF5jiNyowxYcpfoMCU/ybBab4NwtM8RsWmOLDFP/OAlN84AAHOMABDnCAAxzgAAc4wAHOLlhKggY0oAENaEADGtCABjSgAc3u0PxvrCyBAxzgAAc4wAEOcIADHOAAp31992CK/zxY8EgEcRRyIWCJ/7As8eP0ivUnk2AU8Gi0XBvhf18LfHX2jcjm7+X31edaXX1Zfwzj8ZI+Z9ki/POHfwAEOxgs"
               },
               {
                  "name" : "annual_peak_electric_demand",
                  "units" : "kW",
                  "value" : 512.02954
               },
               {
                  "name" : "first_year_capital_cost",
                  "units" : "$",
                  "value" : 0
               },
               {
                  "name" : "annual_utility_cost",
                  "units" : "$",
                  "value" : 0
               },
               {
                  "name" : "total_lifecycle_cost",
                  "units" : "$",
                  "value" : 0
               }
            ],
            "step_warnings" : []
         }
      }
   ],
   "updated_at" : "20170710T190019Z",
   "weather_file" : "USA_CO_Denver.Intl.AP.725650_TMY3.epw"
}
