{
   "completed_at" : "20170710T185810Z",
   "completed_status" : "Success",
   "created_at" : "2017-07-10 18:42:13 +0000",
   "current_step" : 5,
   "description" : "",
   "eplusout_err" : "Program Version,EnergyPlus, Version 8.7.0-78a111df4a, YMD=2017.07.10 18:47,IDD_Version 8.7.0\n   ************* IDF Context for following error/warning message:\n   ************* Note -- lines truncated at 300 characters, if necessary...\n   *************      5 Building,\n   ************* indicated Name=NECB 2011-SmallHotel-NECB HDD Method-CAN_ON_Trenton.716210_CWEC.epw created: 2017-07-10 18:42:22 +0000\n   ************* Only last 1 lines before error line shown.....\n   *************      6   NECB 2011-SmallHotel-NECB HDD Method-CAN_ON_Trenton.716210_CWEC.epw created: 2017-07-10 18:42:22 +0000, !- Name\n   ** Warning ** IP: IDF line~6 Alpha Argument length exceeds maximum, will be truncated=  NECB 2011-SmallHotel-NECB HDD Method-CAN_ON_Trenton.716210_CWEC.epw created: 2017-07-10 18:42:22 +000\n   **   ~~~   ** Will be processed as Alpha=NECB 2011-SMALLHOTEL-NECB HDD METHOD-CAN_ON_TRENTON.716210_CWEC.EPW CREATED: 2017-07-10 18:42:22 +0000\n   ************* Beginning Zone Sizing Calculations\n   ** Warning ** ProcessScheduleInput: Schedule:Day:Interval=\"ECONOMIZER MAX OA FRACTION 100 PCT DEFAULT\", Blank Schedule Type Limits Name input -- will not be validated.\n   ** Warning ** ProcessScheduleInput: Schedule:Day:Interval=\"SCHEDULE DAY 1\", Blank Schedule Type Limits Name input -- will not be validated.\n   ** Warning ** ProcessScheduleInput: Schedule:Day:Interval=\"SCHEDULE DAY 10\", Blank Schedule Type Limits Name input -- will not be validated.\n   ** Warning ** ProcessScheduleInput: Schedule:Day:Interval=\"SCHEDULE DAY 100\", Blank Schedule Type Limits Name input -- will not be validated.\n   ** Warning ** ProcessScheduleInput: Schedule:Day:Interval=\"SCHEDULE DAY 101\", Blank Schedule Type Limits Name input -- will not be validated.\n   ** Warning ** ProcessScheduleInput: Schedule:Day:Interval=\"SCHEDULE DAY 102\", Blank Schedule Type Limits Name input -- will not be validated.\n   ** Warning ** ProcessScheduleInput: Schedule:Day:Interval=\"SCHEDULE DAY 103\", Blank Schedule Type Limits Name input -- will not be validated.\n   ** Warning ** ProcessScheduleInput: Schedule:Day:Interval=\"SCHEDULE DAY 104\", Blank Schedule Type Limits Name input -- will not be validated.\n   ** Warning ** ProcessScheduleInput: Schedule:Day:Interval=\"SCHEDULE DAY 105\", Blank Schedule Type Limits Name input -- will not be validated.\n   ** Warning ** ProcessScheduleInput: Schedule:Day:Interval=\"SCHEDULE DAY 106\", Blank Schedule Type Limits Name input -- will not be validated.\n   ** Warning ** ProcessScheduleInput: Schedule:Day:Interval=\"SCHEDULE DAY 107\", Blank Schedule Type Limits Name input -- will not be validated.\n   ** Warning ** ProcessScheduleInput: Schedule:Day:Interval=\"SCHEDULE DAY 108\", Blank Schedule Type Limits Name input -- will not be validated.\n   ** Warning ** ProcessScheduleInput: Schedule:Day:Interval=\"SCHEDULE DAY 109\", Blank Schedule Type Limits Name input -- will not be validated.\n   ** Warning ** ProcessScheduleInput: Schedule:Day:Interval=\"SCHEDULE DAY 11\", Blank Schedule Type Limits Name input -- will not be validated.\n   ** Warning ** ProcessScheduleInput: Schedule:Day:Interval=\"SCHEDULE DAY 110\", Blank Schedule Type Limits Name input -- will not be validated.\n   ** Warning ** ProcessScheduleInput: Schedule:Day:Interval=\"SCHEDULE DAY 111\", Blank Schedule Type Limits Name input -- will not be validated.\n   ** Warning ** ProcessScheduleInput: Schedule:Day:Interval=\"SCHEDULE DAY 112\", Blank Schedule Type Limits Name input -- will not be validated.\n   ** Warning ** ProcessScheduleInput: Schedule:Day:Interval=\"SCHEDULE DAY 113\", Blank Schedule Type Limits Name input -- will not be validated.\n   ** Warning ** ProcessScheduleInput: Schedule:Day:Interval=\"SCHEDULE DAY 114\", Blank Schedule Type Limits Name input -- will not be validated.\n   ** Warning ** ProcessScheduleInput: Schedule:Day:Interval=\"SCHEDULE DAY 115\", Blank Schedule Type Limits Name input -- will not be validated.\n   ** Warning ** ProcessScheduleInput: Schedule:Day:Interval=\"SCHEDULE DAY 116\", Blank Schedule Type Limits Name input -- will not be validated.\n   ** Warning ** ProcessScheduleInput: Schedule:Day:Interval=\"SCHEDULE DAY 117\", Blank Schedule Type Limits Name input -- will not be validated.\n   ** Warning ** ProcessScheduleInput: Schedule:Day:Interval=\"SCHEDULE DAY 118\", Blank Schedule Type Limits Name input -- will not be validated.\n   ** Warning ** ProcessScheduleInput: Schedule:Day:Interval=\"SCHEDULE DAY 119\", Blank Schedule Type Limits Name input -- will not be validated.\n   ** Warning ** ProcessScheduleInput: Schedule:Day:Interval=\"SCHEDULE DAY 12\", Blank Schedule Type Limits Name input -- will not be validated.\n   ** Warning ** ProcessScheduleInput: Schedule:Day:Interval=\"SCHEDULE DAY 120\", Blank Schedule Type Limits Name input -- will not be validated.\n   ** Warning ** ProcessScheduleInput: Schedule:Day:Interval=\"SCHEDULE DAY 121\", Blank Schedule Type Limits Name input -- will not be validated.\n   ** Warning ** ProcessScheduleInput: Schedule:Day:Interval=\"SCHEDULE DAY 122\", Blank Schedule Type Limits Name input -- will not be validated.\n   ** Warning ** ProcessScheduleInput: Schedule:Day:Interval=\"SCHEDULE DAY 123\", Blank Schedule Type Limits Name input -- will not be validated.\n   ** Warning ** ProcessScheduleInput: Schedule:Day:Interval=\"SCHEDULE DAY 124\", Blank Schedule Type Limits Name input -- will not be validated.\n   ** Warning ** ProcessScheduleInput: Schedule:Day:Interval=\"SCHEDULE DAY 125\", Blank Schedule Type Limits Name input -- will not be validated.\n   ** Warning ** ProcessScheduleInput: Schedule:Day:Interval=\"SCHEDULE DAY 126\", Blank Schedule Type Limits Name input -- will not be validated.\n   ** Warning ** ProcessScheduleInput: Schedule:Day:Interval=\"SCHEDULE DAY 127\", Blank Schedule Type Limits Name input -- will not be validated.\n   ** Warning ** ProcessScheduleInput: Schedule:Day:Interval=\"SCHEDULE DAY 128\", Blank Schedule Type Limits Name input -- will not be validated.\n   ** Warning ** ProcessScheduleInput: Schedule:Day:Interval=\"SCHEDULE DAY 129\", Blank Schedule Type Limits Name input -- will not be validated.\n   ** Warning ** ProcessScheduleInput: Schedule:Day:Interval=\"SCHEDULE DAY 13\", Blank Schedule Type Limits Name input -- will not be validated.\n   ** Warning ** ProcessScheduleInput: Schedule:Day:Interval=\"SCHEDULE DAY 130\", Blank Schedule Type Limits Name input -- will not be validated.\n   ** Warning ** ProcessScheduleInput: Schedule:Day:Interval=\"SCHEDULE DAY 131\", Blank Schedule Type Limits Name input -- will not be validated.\n   ** Warning ** ProcessScheduleInput: Schedule:Day:Interval=\"SCHEDULE DAY 132\", Blank Schedule Type Limits Name input -- will not be validated.\n   ** Warning ** ProcessScheduleInput: Schedule:Day:Interval=\"SCHEDULE DAY 133\", Blank Schedule Type Limits Name input -- will not be validated.\n   ** Warning ** ProcessScheduleInput: Schedule:Day:Interval=\"SCHEDULE DAY 134\", Blank Schedule Type Limits Name input -- will not be validated.\n   ** Warning ** ProcessScheduleInput: Schedule:Day:Interval=\"SCHEDULE DAY 135\", Blank Schedule Type Limits Name input -- will not be validated.\n   ** Warning ** ProcessScheduleInput: Schedule:Day:Interval=\"SCHEDULE DAY 136\", Blank Schedule Type Limits Name input -- will not be validated.\n   ** Warning ** ProcessScheduleInput: Schedule:Day:Interval=\"SCHEDULE DAY 137\", Blank Schedule Type Limits Name input -- will not be validated.\n   ** Warning ** ProcessScheduleInput: Schedule:Day:Interval=\"SCHEDULE DAY 138\", Blank Schedule Type Limits Name input -- will not be validated.\n   ** Warning ** ProcessScheduleInput: Schedule:Day:Interval=\"SCHEDULE DAY 139\", Blank Schedule Type Limits Name input -- will not be validated.\n   ** Warning ** ProcessScheduleInput: Schedule:Day:Interval=\"SCHEDULE DAY 14\", Blank Schedule Type Limits Name input -- will not be validated.\n   ** Warning ** ProcessScheduleInput: Schedule:Day:Interval=\"SCHEDULE DAY 140\", Blank Schedule Type Limits Name input -- will not be validated.\n   ** Warning ** ProcessScheduleInput: Schedule:Day:Interval=\"SCHEDULE DAY 141\", Blank Schedule Type Limits Name input -- will not be validated.\n   ** Warning ** ProcessScheduleInput: Schedule:Day:Interval=\"SCHEDULE DAY 142\", Blank Schedule Type Limits Name input -- will not be validated.\n   ** Warning ** ProcessScheduleInput: Schedule:Day:Interval=\"SCHEDULE DAY 143\", Blank Schedule Type Limits Name input -- will not be validated.\n   ** Warning ** ProcessScheduleInput: Schedule:Day:Interval=\"SCHEDULE DAY 144\", Blank Schedule Type Limits Name input -- will not be validated.\n   ** Warning ** ProcessScheduleInput: Schedule:Day:Interval=\"SCHEDULE DAY 145\", Blank Schedule Type Limits Name input -- will not be validated.\n   ** Warning ** ProcessScheduleInput: Schedule:Day:Interval=\"SCHEDULE DAY 146\", Blank Schedule Type Limits Name input -- will not be validated.\n   ** Warning ** ProcessScheduleInput: Schedule:Day:Interval=\"SCHEDULE DAY 147\", Blank Schedule Type Limits Name input -- will not be validated.\n   ** Warning ** ProcessScheduleInput: Schedule:Day:Interval=\"SCHEDULE DAY 148\", Blank Schedule Type Limits Name input -- will not be validated.\n   ** Warning ** ProcessScheduleInput: Schedule:Day:Interval=\"SCHEDULE DAY 149\", Blank Schedule Type Limits Name input -- will not be validated.\n   ** Warning ** ProcessScheduleInput: Schedule:Day:Interval=\"SCHEDULE DAY 15\", Blank Schedule Type Limits Name input -- will not be validated.\n   ** Warning ** ProcessScheduleInput: Schedule:Day:Interval=\"SCHEDULE DAY 150\", Blank Schedule Type Limits Name input -- will not be validated.\n   ** Warning ** ProcessScheduleInput: Schedule:Day:Interval=\"SCHEDULE DAY 151\", Blank Schedule Type Limits Name input -- will not be validated.\n   ** Warning ** ProcessScheduleInput: Schedule:Day:Interval=\"SCHEDULE DAY 152\", Blank Schedule Type Limits Name input -- will not be validated.\n   ** Warning ** ProcessScheduleInput: Schedule:Day:Interval=\"SCHEDULE DAY 153\", Blank Schedule Type Limits Name input -- will not be validated.\n   ** Warning ** ProcessScheduleInput: Schedule:Day:Interval=\"SCHEDULE DAY 154\", Blank Schedule Type Limits Name input -- will not be validated.\n   ** Warning ** ProcessScheduleInput: Schedule:Day:Interval=\"SCHEDULE DAY 155\", Blank Schedule Type Limits Name input -- will not be validated.\n   ** Warning ** ProcessScheduleInput: Schedule:Day:Interval=\"SCHEDULE DAY 16\", Blank Schedule Type Limits Name input -- will not be validated.\n   ** Warning ** ProcessScheduleInput: Schedule:Day:Interval=\"SCHEDULE DAY 17\", Blank Schedule Type Limits Name input -- will not be validated.\n   ** Warning ** ProcessScheduleInput: Schedule:Day:Interval=\"SCHEDULE DAY 18\", Blank Schedule Type Limits Name input -- will not be validated.\n   ** Warning ** ProcessScheduleInput: Schedule:Day:Interval=\"SCHEDULE DAY 19\", Blank Schedule Type Limits Name input -- will not be validated.\n   ** Warning ** ProcessScheduleInput: Schedule:Day:Interval=\"SCHEDULE DAY 2\", Blank Schedule Type Limits Name input -- will not be validated.\n   ** Warning ** ProcessScheduleInput: Schedule:Day:Interval=\"SCHEDULE DAY 20\", Blank Schedule Type Limits Name input -- will not be validated.\n   ** Warning ** ProcessScheduleInput: Schedule:Day:Interval=\"SCHEDULE DAY 21\", Blank Schedule Type Limits Name input -- will not be validated.\n   ** Warning ** ProcessScheduleInput: Schedule:Day:Interval=\"SCHEDULE DAY 22\", Blank Schedule Type Limits Name input -- will not be validated.\n   ** Warning ** ProcessScheduleInput: Schedule:Day:Interval=\"SCHEDULE DAY 23\", Blank Schedule Type Limits Name input -- will not be validated.\n   ** Warning ** ProcessScheduleInput: Schedule:Day:Interval=\"SCHEDULE DAY 24\", Blank Schedule Type Limits Name input -- will not be validated.\n   ** Warning ** ProcessScheduleInput: Schedule:Day:Interval=\"SCHEDULE DAY 25\", Blank Schedule Type Limits Name input -- will not be validated.\n   ** Warning ** ProcessScheduleInput: Schedule:Day:Interval=\"SCHEDULE DAY 26\", Blank Schedule Type Limits Name input -- will not be validated.\n   ** Warning ** ProcessScheduleInput: Schedule:Day:Interval=\"SCHEDULE DAY 27\", Blank Schedule Type Limits Name input -- will not be validated.\n   ** Warning ** ProcessScheduleInput: Schedule:Day:Interval=\"SCHEDULE DAY 28\", Blank Schedule Type Limits Name input -- will not be validated.\n   ** Warning ** ProcessScheduleInput: Schedule:Day:Interval=\"SCHEDULE DAY 29\", Blank Schedule Type Limits Name input -- will not be validated.\n   ** Warning ** ProcessScheduleInput: Schedule:Day:Interval=\"SCHEDULE DAY 30\", Blank Schedule Type Limits Name input -- will not be validated.\n   ** Warning ** ProcessScheduleInput: Schedule:Day:Interval=\"SCHEDULE DAY 31\", Blank Schedule Type Limits Name input -- will not be validated.\n   ** Warning ** ProcessScheduleInput: Schedule:Day:Interval=\"SCHEDULE DAY 32\", Blank Schedule Type Limits Name input -- will not be validated.\n   ** Warning ** ProcessScheduleInput: Schedule:Day:Interval=\"SCHEDULE DAY 33\", Blank Schedule Type Limits Name input -- will not be validated.\n   ** Warning ** ProcessScheduleInput: Schedule:Day:Interval=\"SCHEDULE DAY 34\", Blank Schedule Type Limits Name input -- will not be validated.\n   ** Warning ** ProcessScheduleInput: Schedule:Day:Interval=\"SCHEDULE DAY 35\", Blank Schedule Type Limits Name input -- will not be validated.\n   ** Warning ** ProcessScheduleInput: Schedule:Day:Interval=\"SCHEDULE DAY 36\", Blank Schedule Type Limits Name input -- will not be validated.\n   ** Warning ** ProcessScheduleInput: Schedule:Day:Interval=\"SCHEDULE DAY 37\", Blank Schedule Type Limits Name input -- will not be validated.\n   ** Warning ** ProcessScheduleInput: Schedule:Day:Interval=\"SCHEDULE DAY 38\", Blank Schedule Type Limits Name input -- will not be validated.\n   ** Warning ** ProcessScheduleInput: Schedule:Day:Interval=\"SCHEDULE DAY 39\", Blank Schedule Type Limits Name input -- will not be validated.\n   ** Warning ** ProcessScheduleInput: Schedule:Day:Interval=\"SCHEDULE DAY 40\", Blank Schedule Type Limits Name input -- will not be validated.\n   ** Warning ** ProcessScheduleInput: Schedule:Day:Interval=\"SCHEDULE DAY 41\", Blank Schedule Type Limits Name input -- will not be validated.\n   ** Warning ** ProcessScheduleInput: Schedule:Day:Interval=\"SCHEDULE DAY 42\", Blank Schedule Type Limits Name input -- will not be validated.\n   ** Warning ** ProcessScheduleInput: Schedule:Day:Interval=\"SCHEDULE DAY 43\", Blank Schedule Type Limits Name input -- will not be validated.\n   ** Warning ** ProcessScheduleInput: Schedule:Day:Interval=\"SCHEDULE DAY 44\", Blank Schedule Type Limits Name input -- will not be validated.\n   ** Warning ** ProcessScheduleInput: Schedule:Day:Interval=\"SCHEDULE DAY 45\", Blank Schedule Type Limits Name input -- will not be validated.\n   ** Warning ** ProcessScheduleInput: Schedule:Day:Interval=\"SCHEDULE DAY 46\", Blank Schedule Type Limits Name input -- will not be validated.\n   ** Warning ** ProcessScheduleInput: Schedule:Day:Interval=\"SCHEDULE DAY 47\", Blank Schedule Type Limits Name input -- will not be validated.\n   ** Warning ** ProcessScheduleInput: Schedule:Day:Interval=\"SCHEDULE DAY 48\", Blank Schedule Type Limits Name input -- will not be validated.\n   ** Warning ** ProcessScheduleInput: Schedule:Day:Interval=\"SCHEDULE DAY 49\", Blank Schedule Type Limits Name input -- will not be validated.\n   ** Warning ** ProcessScheduleInput: Schedule:Day:Interval=\"SCHEDULE DAY 50\", Blank Schedule Type Limits Name input -- will not be validated.\n   ** Warning ** ProcessScheduleInput: Schedule:Day:Interval=\"SCHEDULE DAY 51\", Blank Schedule Type Limits Name input -- will not be validated.\n   ** Warning ** ProcessScheduleInput: Schedule:Day:Interval=\"SCHEDULE DAY 52\", Blank Schedule Type Limits Name input -- will not be validated.\n   ** Warning ** ProcessScheduleInput: Schedule:Day:Interval=\"SCHEDULE DAY 53\", Blank Schedule Type Limits Name input -- will not be validated.\n   ** Warning ** ProcessScheduleInput: Schedule:Day:Interval=\"SCHEDULE DAY 54\", Blank Schedule Type Limits Name input -- will not be validated.\n   ** Warning ** ProcessScheduleInput: Schedule:Day:Interval=\"SCHEDULE DAY 55\", Blank Schedule Type Limits Name input -- will not be validated.\n   ** Warning ** ProcessScheduleInput: Schedule:Day:Interval=\"SCHEDULE DAY 56\", Blank Schedule Type Limits Name input -- will not be validated.\n   ** Warning ** ProcessScheduleInput: Schedule:Day:Interval=\"SCHEDULE DAY 57\", Blank Schedule Type Limits Name input -- will not be validated.\n   ** Warning ** ProcessScheduleInput: Schedule:Day:Interval=\"SCHEDULE DAY 58\", Blank Schedule Type Limits Name input -- will not be validated.\n   ** Warning ** ProcessScheduleInput: Schedule:Day:Interval=\"SCHEDULE DAY 59\", Blank Schedule Type Limits Name input -- will not be validated.\n   ** Warning ** ProcessScheduleInput: Schedule:Day:Interval=\"SCHEDULE DAY 60\", Blank Schedule Type Limits Name input -- will not be validated.\n   ** Warning ** ProcessScheduleInput: Schedule:Day:Interval=\"SCHEDULE DAY 61\", Blank Schedule Type Limits Name input -- will not be validated.\n   ** Warning ** ProcessScheduleInput: Schedule:Day:Interval=\"SCHEDULE DAY 62\", Blank Schedule Type Limits Name input -- will not be validated.\n   ** Warning ** ProcessScheduleInput: Schedule:Day:Interval=\"SCHEDULE DAY 63\", Blank Schedule Type Limits Name input -- will not be validated.\n   ** Warning ** ProcessScheduleInput: Schedule:Day:Interval=\"SCHEDULE DAY 64\", Blank Schedule Type Limits Name input -- will not be validated.\n   ** Warning ** ProcessScheduleInput: Schedule:Day:Interval=\"SCHEDULE DAY 65\", Blank Schedule Type Limits Name input -- will not be validated.\n   ** Warning ** ProcessScheduleInput: Schedule:Day:Interval=\"SCHEDULE DAY 66\", Blank Schedule Type Limits Name input -- will not be validated.\n   ** Warning ** ProcessScheduleInput: Schedule:Day:Interval=\"SCHEDULE DAY 67\", Blank Schedule Type Limits Name input -- will not be validated.\n   ** Warning ** ProcessScheduleInput: Schedule:Day:Interval=\"SCHEDULE DAY 68\", Blank Schedule Type Limits Name input -- will not be validated.\n   ** Warning ** ProcessScheduleInput: Schedule:Day:Interval=\"SCHEDULE DAY 69\", Blank Schedule Type Limits Name input -- will not be validated.\n   ** Warning ** ProcessScheduleInput: Schedule:Day:Interval=\"SCHEDULE DAY 70\", Blank Schedule Type Limits Name input -- will not be validated.\n   ** Warning ** ProcessScheduleInput: Schedule:Day:Interval=\"SCHEDULE DAY 71\", Blank Schedule Type Limits Name input -- will not be validated.\n   ** Warning ** ProcessScheduleInput: Schedule:Day:Interval=\"SCHEDULE DAY 72\", Blank Schedule Type Limits Name input -- will not be validated.\n   ** Warning ** ProcessScheduleInput: Schedule:Day:Interval=\"SCHEDULE DAY 73\", Blank Schedule Type Limits Name input -- will not be validated.\n   ** Warning ** ProcessScheduleInput: Schedule:Day:Interval=\"SCHEDULE DAY 74\", Blank Schedule Type Limits Name input -- will not be validated.\n   ** Warning ** ProcessScheduleInput: Schedule:Day:Interval=\"SCHEDULE DAY 75\", Blank Schedule Type Limits Name input -- will not be validated.\n   ** Warning ** ProcessScheduleInput: Schedule:Day:Interval=\"SCHEDULE DAY 76\", Blank Schedule Type Limits Name input -- will not be validated.\n   ** Warning ** ProcessScheduleInput: Schedule:Day:Interval=\"SCHEDULE DAY 77\", Blank Schedule Type Limits Name input -- will not be validated.\n   ** Warning ** ProcessScheduleInput: Schedule:Day:Interval=\"SCHEDULE DAY 78\", Blank Schedule Type Limits Name input -- will not be validated.\n   ** Warning ** ProcessScheduleInput: Schedule:Day:Interval=\"SCHEDULE DAY 79\", Blank Schedule Type Limits Name input -- will not be validated.\n   ** Warning ** ProcessScheduleInput: Schedule:Day:Interval=\"SCHEDULE DAY 8\", Blank Schedule Type Limits Name input -- will not be validated.\n   ** Warning ** ProcessScheduleInput: Schedule:Day:Interval=\"SCHEDULE DAY 80\", Blank Schedule Type Limits Name input -- will not be validated.\n   ** Warning ** ProcessScheduleInput: Schedule:Day:Interval=\"SCHEDULE DAY 81\", Blank Schedule Type Limits Name input -- will not be validated.\n   ** Warning ** ProcessScheduleInput: Schedule:Day:Interval=\"SCHEDULE DAY 82\", Blank Schedule Type Limits Name input -- will not be validated.\n   ** Warning ** ProcessScheduleInput: Schedule:Day:Interval=\"SCHEDULE DAY 83\", Blank Schedule Type Limits Name input -- will not be validated.\n   ** Warning ** ProcessScheduleInput: Schedule:Day:Interval=\"SCHEDULE DAY 84\", Blank Schedule Type Limits Name input -- will not be validated.\n   ** Warning ** ProcessScheduleInput: Schedule:Day:Interval=\"SCHEDULE DAY 85\", Blank Schedule Type Limits Name input -- will not be validated.\n   ** Warning ** ProcessScheduleInput: Schedule:Day:Interval=\"SCHEDULE DAY 86\", Blank Schedule Type Limits Name input -- will not be validated.\n   ** Warning ** ProcessScheduleInput: Schedule:Day:Interval=\"SCHEDULE DAY 87\", Blank Schedule Type Limits Name input -- will not be validated.\n   ** Warning ** ProcessScheduleInput: Schedule:Day:Interval=\"SCHEDULE DAY 88\", Blank Schedule Type Limits Name input -- will not be validated.\n   ** Warning ** ProcessScheduleInput: Schedule:Day:Interval=\"SCHEDULE DAY 89\", Blank Schedule Type Limits Name input -- will not be validated.\n   ** Warning ** ProcessScheduleInput: Schedule:Day:Interval=\"SCHEDULE DAY 9\", Blank Schedule Type Limits Name input -- will not be validated.\n   ** Warning ** ProcessScheduleInput: Schedule:Day:Interval=\"SCHEDULE DAY 90\", Blank Schedule Type Limits Name input -- will not be validated.\n   ** Warning ** ProcessScheduleInput: Schedule:Day:Interval=\"SCHEDULE DAY 91\", Blank Schedule Type Limits Name input -- will not be validated.\n   ** Warning ** ProcessScheduleInput: Schedule:Day:Interval=\"SCHEDULE DAY 92\", Blank Schedule Type Limits Name input -- will not be validated.\n   ** Warning ** ProcessScheduleInput: Schedule:Day:Interval=\"SCHEDULE DAY 93\", Blank Schedule Type Limits Name input -- will not be validated.\n   ** Warning ** ProcessScheduleInput: Schedule:Day:Interval=\"SCHEDULE DAY 94\", Blank Schedule Type Limits Name input -- will not be validated.\n   ** Warning ** ProcessScheduleInput: Schedule:Day:Interval=\"SCHEDULE DAY 95\", Blank Schedule Type Limits Name input -- will not be validated.\n   ** Warning ** ProcessScheduleInput: Schedule:Day:Interval=\"SCHEDULE DAY 96\", Blank Schedule Type Limits Name input -- will not be validated.\n   ** Warning ** ProcessScheduleInput: Schedule:Day:Interval=\"SCHEDULE DAY 97\", Blank Schedule Type Limits Name input -- will not be validated.\n   ** Warning ** ProcessScheduleInput: Schedule:Day:Interval=\"SCHEDULE DAY 98\", Blank Schedule Type Limits Name input -- will not be validated.\n   ** Warning ** ProcessScheduleInput: Schedule:Day:Interval=\"SCHEDULE DAY 99\", Blank Schedule Type Limits Name input -- will not be validated.\n   ** Warning ** ProcessScheduleInput: Schedule:Year=\"ECONOMIZER MAX OA FRACTION 100 PCT\", Blank Schedule Type Limits Name input -- will not be validated.\n   ** Warning ** ProcessScheduleInput: Schedule:Year=\"SCHEDULE RULESET 10\", Blank Schedule Type Limits Name input -- will not be validated.\n   ** Warning ** ProcessScheduleInput: Schedule:Year=\"SCHEDULE RULESET 100\", Blank Schedule Type Limits Name input -- will not be validated.\n   ** Warning ** ProcessScheduleInput: Schedule:Year=\"SCHEDULE RULESET 101\", Blank Schedule Type Limits Name input -- will not be validated.\n   ** Warning ** ProcessScheduleInput: Schedule:Year=\"SCHEDULE RULESET 102\", Blank Schedule Type Limits Name input -- will not be validated.\n   ** Warning ** ProcessScheduleInput: Schedule:Year=\"SCHEDULE RULESET 103\", Blank Schedule Type Limits Name input -- will not be validated.\n   ** Warning ** ProcessScheduleInput: Schedule:Year=\"SCHEDULE RULESET 104\", Blank Schedule Type Limits Name input -- will not be validated.\n   ** Warning ** ProcessScheduleInput: Schedule:Year=\"SCHEDULE RULESET 105\", Blank Schedule Type Limits Name input -- will not be validated.\n   ** Warning ** ProcessScheduleInput: Schedule:Year=\"SCHEDULE RULESET 106\", Blank Schedule Type Limits Name input -- will not be validated.\n   ** Warning ** ProcessScheduleInput: Schedule:Year=\"SCHEDULE RULESET 107\", Blank Schedule Type Limits Name input -- will not be validated.\n   ** Warning ** ProcessScheduleInput: Schedule:Year=\"SCHEDULE RULESET 108\", Blank Schedule Type Limits Name input -- will not be validated.\n   ** Warning ** ProcessScheduleInput: Schedule:Year=\"SCHEDULE RULESET 109\", Blank Schedule Type Limits Name input -- will not be validated.\n   ** Warning ** ProcessScheduleInput: Schedule:Year=\"SCHEDULE RULESET 11\", Blank Schedule Type Limits Name input -- will not be validated.\n   ** Warning ** ProcessScheduleInput: Schedule:Year=\"SCHEDULE RULESET 110\", Blank Schedule Type Limits Name input -- will not be validated.\n   ** Warning ** ProcessScheduleInput: Schedule:Year=\"SCHEDULE RULESET 111\", Blank Schedule Type Limits Name input -- will not be validated.\n   ** Warning ** ProcessScheduleInput: Schedule:Year=\"SCHEDULE RULESET 112\", Blank Schedule Type Limits Name input -- will not be validated.\n   ** Warning ** ProcessScheduleInput: Schedule:Year=\"SCHEDULE RULESET 113\", Blank Schedule Type Limits Name input -- will not be validated.\n   ** Warning ** ProcessScheduleInput: Schedule:Year=\"SCHEDULE RULESET 114\", Blank Schedule Type Limits Name input -- will not be validated.\n   ** Warning ** ProcessScheduleInput: Schedule:Year=\"SCHEDULE RULESET 115\", Blank Schedule Type Limits Name input -- will not be validated.\n   ** Warning ** ProcessScheduleInput: Schedule:Year=\"SCHEDULE RULESET 116\", Blank Schedule Type Limits Name input -- will not be validated.\n   ** Warning ** ProcessScheduleInput: Schedule:Year=\"SCHEDULE RULESET 117\", Blank Schedule Type Limits Name input -- will not be validated.\n   ** Warning ** ProcessScheduleInput: Schedule:Year=\"SCHEDULE RULESET 118\", Blank Schedule Type Limits Name input -- will not be validated.\n   ** Warning ** ProcessScheduleInput: Schedule:Year=\"SCHEDULE RULESET 119\", Blank Schedule Type Limits Name input -- will not be validated.\n   ** Warning ** ProcessScheduleInput: Schedule:Year=\"SCHEDULE RULESET 12\", Blank Schedule Type Limits Name input -- will not be validated.\n   ** Warning ** ProcessScheduleInput: Schedule:Year=\"SCHEDULE RULESET 120\", Blank Schedule Type Limits Name input -- will not be validated.\n   ** Warning ** ProcessScheduleInput: Schedule:Year=\"SCHEDULE RULESET 121\", Blank Schedule Type Limits Name input -- will not be validated.\n   ** Warning ** ProcessScheduleInput: Schedule:Year=\"SCHEDULE RULESET 122\", Blank Schedule Type Limits Name input -- will not be validated.\n   ** Warning ** ProcessScheduleInput: Schedule:Year=\"SCHEDULE RULESET 123\", Blank Schedule Type Limits Name input -- will not be validated.\n   ** Warning ** ProcessScheduleInput: Schedule:Year=\"SCHEDULE RULESET 124\", Blank Schedule Type Limits Name input -- will not be validated.\n   ** Warning ** ProcessScheduleInput: Schedule:Year=\"SCHEDULE RULESET 125\", Blank Schedule Type Limits Name input -- will not be validated.\n   ** Warning ** ProcessScheduleInput: Schedule:Year=\"SCHEDULE RULESET 126\", Blank Schedule Type Limits Name input -- will not be validated.\n   ** Warning ** ProcessScheduleInput: Schedule:Year=\"SCHEDULE RULESET 127\", Blank Schedule Type Limits Name input -- will not be validated.\n   ** Warning ** ProcessScheduleInput: Schedule:Year=\"SCHEDULE RULESET 128\", Blank Schedule Type Limits Name input -- will not be validated.\n   ** Warning ** ProcessScheduleInput: Schedule:Year=\"SCHEDULE RULESET 129\", Blank Schedule Type Limits Name input -- will not be validated.\n   ** Warning ** ProcessScheduleInput: Schedule:Year=\"SCHEDULE RULESET 13\", Blank Schedule Type Limits Name input -- will not be validated.\n   ** Warning ** ProcessScheduleInput: Schedule:Year=\"SCHEDULE RULESET 130\", Blank Schedule Type Limits Name input -- will not be validated.\n   ** Warning ** ProcessScheduleInput: Schedule:Year=\"SCHEDULE RULESET 131\", Blank Schedule Type Limits Name input -- will not be validated.\n   ** Warning ** ProcessScheduleInput: Schedule:Year=\"SCHEDULE RULESET 132\", Blank Schedule Type Limits Name input -- will not be validated.\n   ** Warning ** ProcessScheduleInput: Schedule:Year=\"SCHEDULE RULESET 133\", Blank Schedule Type Limits Name input -- will not be validated.\n   ** Warning ** ProcessScheduleInput: Schedule:Year=\"SCHEDULE RULESET 134\", Blank Schedule Type Limits Name input -- will not be validated.\n   ** Warning ** ProcessScheduleInput: Schedule:Year=\"SCHEDULE RULESET 135\", Blank Schedule Type Limits Name input -- will not be validated.\n   ** Warning ** ProcessScheduleInput: Schedule:Year=\"SCHEDULE RULESET 136\", Blank Schedule Type Limits Name input -- will not be validated.\n   ** Warning ** ProcessScheduleInput: Schedule:Year=\"SCHEDULE RULESET 137\", Blank Schedule Type Limits Name input -- will not be validated.\n   ** Warning ** ProcessScheduleInput: Schedule:Year=\"SCHEDULE RULESET 138\", Blank Schedule Type Limits Name input -- will not be validated.\n   ** Warning ** ProcessScheduleInput: Schedule:Year=\"SCHEDULE RULESET 139\", Blank Schedule Type Limits Name input -- will not be validated.\n   ** Warning ** ProcessScheduleInput: Schedule:Year=\"SCHEDULE RULESET 14\", Blank Schedule Type Limits Name input -- will not be validated.\n   ** Warning ** ProcessScheduleInput: Schedule:Year=\"SCHEDULE RULESET 140\", Blank Schedule Type Limits Name input -- will not be validated.\n   ** Warning ** ProcessScheduleInput: Schedule:Year=\"SCHEDULE RULESET 141\", Blank Schedule Type Limits Name input -- will not be validated.\n   ** Warning ** ProcessScheduleInput: Schedule:Year=\"SCHEDULE RULESET 142\", Blank Schedule Type Limits Name input -- will not be validated.\n   ** Warning ** ProcessScheduleInput: Schedule:Year=\"SCHEDULE RULESET 143\", Blank Schedule Type Limits Name input -- will not be validated.\n   ** Warning ** ProcessScheduleInput: Schedule:Year=\"SCHEDULE RULESET 144\", Blank Schedule Type Limits Name input -- will not be validated.\n   ** Warning ** ProcessScheduleInput: Schedule:Year=\"SCHEDULE RULESET 145\", Blank Schedule Type Limits Name input -- will not be validated.\n   ** Warning ** ProcessScheduleInput: Schedule:Year=\"SCHEDULE RULESET 146\", Blank Schedule Type Limits Name input -- will not be validated.\n   ** Warning ** ProcessScheduleInput: Schedule:Year=\"SCHEDULE RULESET 15\", Blank Schedule Type Limits Name input -- will not be validated.\n   ** Warning ** ProcessScheduleInput: Schedule:Year=\"SCHEDULE RULESET 16\", Blank Schedule Type Limits Name input -- will not be validated.\n   ** Warning ** ProcessScheduleInput: Schedule:Year=\"SCHEDULE RULESET 17\", Blank Schedule Type Limits Name input -- will not be validated.\n   ** Warning ** ProcessScheduleInput: Schedule:Year=\"SCHEDULE RULESET 18\", Blank Schedule Type Limits Name input -- will not be validated.\n   ** Warning ** ProcessScheduleInput: Schedule:Year=\"SCHEDULE RULESET 19\", Blank Schedule Type Limits Name input -- will not be validated.\n   ** Warning ** ProcessScheduleInput: Schedule:Year=\"SCHEDULE RULESET 20\", Blank Schedule Type Limits Name input -- will not be validated.\n   ** Warning ** ProcessScheduleInput: Schedule:Year=\"SCHEDULE RULESET 21\", Blank Schedule Type Limits Name input -- will not be validated.\n   ** Warning ** ProcessScheduleInput: Schedule:Year=\"SCHEDULE RULESET 22\", Blank Schedule Type Limits Name input -- will not be validated.\n   ** Warning ** ProcessScheduleInput: Schedule:Year=\"SCHEDULE RULESET 23\", Blank Schedule Type Limits Name input -- will not be validated.\n   ** Warning ** ProcessScheduleInput: Schedule:Year=\"SCHEDULE RULESET 24\", Blank Schedule Type Limits Name input -- will not be validated.\n   ** Warning ** ProcessScheduleInput: Schedule:Year=\"SCHEDULE RULESET 25\", Blank Schedule Type Limits Name input -- will not be validated.\n   ** Warning ** ProcessScheduleInput: Schedule:Year=\"SCHEDULE RULESET 26\", Blank Schedule Type Limits Name input -- will not be validated.\n   ** Warning ** ProcessScheduleInput: Schedule:Year=\"SCHEDULE RULESET 27\", Blank Schedule Type Limits Name input -- will not be validated.\n   ** Warning ** ProcessScheduleInput: Schedule:Year=\"SCHEDULE RULESET 28\", Blank Schedule Type Limits Name input -- will not be validated.\n   ** Warning ** ProcessScheduleInput: Schedule:Year=\"SCHEDULE RULESET 29\", Blank Schedule Type Limits Name input -- will not be validated.\n   ** Warning ** ProcessScheduleInput: Schedule:Year=\"SCHEDULE RULESET 3\", Blank Schedule Type Limits Name input -- will not be validated.\n   ** Warning ** ProcessScheduleInput: Schedule:Year=\"SCHEDULE RULESET 30\", Blank Schedule Type Limits Name input -- will not be validated.\n   ** Warning ** ProcessScheduleInput: Schedule:Year=\"SCHEDULE RULESET 31\", Blank Schedule Type Limits Name input -- will not be validated.\n   ** Warning ** ProcessScheduleInput: Schedule:Year=\"SCHEDULE RULESET 32\", Blank Schedule Type Limits Name input -- will not be validated.\n   ** Warning ** ProcessScheduleInput: Schedule:Year=\"SCHEDULE RULESET 33\", Blank Schedule Type Limits Name input -- will not be validated.\n   ** Warning ** ProcessScheduleInput: Schedule:Year=\"SCHEDULE RULESET 34\", Blank Schedule Type Limits Name input -- will not be validated.\n   ** Warning ** ProcessScheduleInput: Schedule:Year=\"SCHEDULE RULESET 35\", Blank Schedule Type Limits Name input -- will not be validated.\n   ** Warning ** ProcessScheduleInput: Schedule:Year=\"SCHEDULE RULESET 36\", Blank Schedule Type Limits Name input -- will not be validated.\n   ** Warning ** ProcessScheduleInput: Schedule:Year=\"SCHEDULE RULESET 37\", Blank Schedule Type Limits Name input -- will not be validated.\n   ** Warning ** ProcessScheduleInput: Schedule:Year=\"SCHEDULE RULESET 38\", Blank Schedule Type Limits Name input -- will not be validated.\n   ** Warning ** ProcessScheduleInput: Schedule:Year=\"SCHEDULE RULESET 39\", Blank Schedule Type Limits Name input -- will not be validated.\n   ** Warning ** ProcessScheduleInput: Schedule:Year=\"SCHEDULE RULESET 4\", Blank Schedule Type Limits Name input -- will not be validated.\n   ** Warning ** ProcessScheduleInput: Schedule:Year=\"SCHEDULE RULESET 40\", Blank Schedule Type Limits Name input -- will not be validated.\n   ** Warning ** ProcessScheduleInput: Schedule:Year=\"SCHEDULE RULESET 41\", Blank Schedule Type Limits Name input -- will not be validated.\n   ** Warning ** ProcessScheduleInput: Schedule:Year=\"SCHEDULE RULESET 42\", Blank Schedule Type Limits Name input -- will not be validated.\n   ** Warning ** ProcessScheduleInput: Schedule:Year=\"SCHEDULE RULESET 43\", Blank Schedule Type Limits Name input -- will not be validated.\n   ** Warning ** ProcessScheduleInput: Schedule:Year=\"SCHEDULE RULESET 44\", Blank Schedule Type Limits Name input -- will not be validated.\n   ** Warning ** ProcessScheduleInput: Schedule:Year=\"SCHEDULE RULESET 45\", Blank Schedule Type Limits Name input -- will not be validated.\n   ** Warning ** ProcessScheduleInput: Schedule:Year=\"SCHEDULE RULESET 46\", Blank Schedule Type Limits Name input -- will not be validated.\n   ** Warning ** ProcessScheduleInput: Schedule:Year=\"SCHEDULE RULESET 47\", Blank Schedule Type Limits Name input -- will not be validated.\n   ** Warning ** ProcessScheduleInput: Schedule:Year=\"SCHEDULE RULESET 48\", Blank Schedule Type Limits Name input -- will not be validated.\n   ** Warning ** ProcessScheduleInput: Schedule:Year=\"SCHEDULE RULESET 49\", Blank Schedule Type Limits Name input -- will not be validated.\n   ** Warning ** ProcessScheduleInput: Schedule:Year=\"SCHEDULE RULESET 5\", Blank Schedule Type Limits Name input -- will not be validated.\n   ** Warning ** ProcessScheduleInput: Schedule:Year=\"SCHEDULE RULESET 50\", Blank Schedule Type Limits Name input -- will not be validated.\n   ** Warning ** ProcessScheduleInput: Schedule:Year=\"SCHEDULE RULESET 51\", Blank Schedule Type Limits Name input -- will not be validated.\n   ** Warning ** ProcessScheduleInput: Schedule:Year=\"SCHEDULE RULESET 52\", Blank Schedule Type Limits Name input -- will not be validated.\n   ** Warning ** ProcessScheduleInput: Schedule:Year=\"SCHEDULE RULESET 53\", Blank Schedule Type Limits Name input -- will not be validated.\n   ** Warning ** ProcessScheduleInput: Schedule:Year=\"SCHEDULE RULESET 54\", Blank Schedule Type Limits Name input -- will not be validated.\n   ** Warning ** ProcessScheduleInput: Schedule:Year=\"SCHEDULE RULESET 55\", Blank Schedule Type Limits Name input -- will not be validated.\n   ** Warning ** ProcessScheduleInput: Schedule:Year=\"SCHEDULE RULESET 56\", Blank Schedule Type Limits Name input -- will not be validated.\n   ** Warning ** ProcessScheduleInput: Schedule:Year=\"SCHEDULE RULESET 57\", Blank Schedule Type Limits Name input -- will not be validated.\n   ** Warning ** ProcessScheduleInput: Schedule:Year=\"SCHEDULE RULESET 58\", Blank Schedule Type Limits Name input -- will not be validated.\n   ** Warning ** ProcessScheduleInput: Schedule:Year=\"SCHEDULE RULESET 59\", Blank Schedule Type Limits Name input -- will not be validated.\n   ** Warning ** ProcessScheduleInput: Schedule:Year=\"SCHEDULE RULESET 6\", Blank Schedule Type Limits Name input -- will not be validated.\n   ** Warning ** ProcessScheduleInput: Schedule:Year=\"SCHEDULE RULESET 60\", Blank Schedule Type Limits Name input -- will not be validated.\n   ** Warning ** ProcessScheduleInput: Schedule:Year=\"SCHEDULE RULESET 61\", Blank Schedule Type Limits Name input -- will not be validated.\n   ** Warning ** ProcessScheduleInput: Schedule:Year=\"SCHEDULE RULESET 62\", Blank Schedule Type Limits Name input -- will not be validated.\n   ** Warning ** ProcessScheduleInput: Schedule:Year=\"SCHEDULE RULESET 63\", Blank Schedule Type Limits Name input -- will not be validated.\n   ** Warning ** ProcessScheduleInput: Schedule:Year=\"SCHEDULE RULESET 64\", Blank Schedule Type Limits Name input -- will not be validated.\n   ** Warning ** ProcessScheduleInput: Schedule:Year=\"SCHEDULE RULESET 65\", Blank Schedule Type Limits Name input -- will not be validated.\n   ** Warning ** ProcessScheduleInput: Schedule:Year=\"SCHEDULE RULESET 66\", Blank Schedule Type Limits Name input -- will not be validated.\n   ** Warning ** ProcessScheduleInput: Schedule:Year=\"SCHEDULE RULESET 67\", Blank Schedule Type Limits Name input -- will not be validated.\n   ** Warning ** ProcessScheduleInput: Schedule:Year=\"SCHEDULE RULESET 68\", Blank Schedule Type Limits Name input -- will not be validated.\n   ** Warning ** ProcessScheduleInput: Schedule:Year=\"SCHEDULE RULESET 69\", Blank Schedule Type Limits Name input -- will not be validated.\n   ** Warning ** ProcessScheduleInput: Schedule:Year=\"SCHEDULE RULESET 7\", Blank Schedule Type Limits Name input -- will not be validated.\n   ** Warning ** ProcessScheduleInput: Schedule:Year=\"SCHEDULE RULESET 70\", Blank Schedule Type Limits Name input -- will not be validated.\n   ** Warning ** ProcessScheduleInput: Schedule:Year=\"SCHEDULE RULESET 71\", Blank Schedule Type Limits Name input -- will not be validated.\n   ** Warning ** ProcessScheduleInput: Schedule:Year=\"SCHEDULE RULESET 72\", Blank Schedule Type Limits Name input -- will not be validated.\n   ** Warning ** ProcessScheduleInput: Schedule:Year=\"SCHEDULE RULESET 73\", Blank Schedule Type Limits Name input -- will not be validated.\n   ** Warning ** ProcessScheduleInput: Schedule:Year=\"SCHEDULE RULESET 74\", Blank Schedule Type Limits Name input -- will not be validated.\n   ** Warning ** ProcessScheduleInput: Schedule:Year=\"SCHEDULE RULESET 75\", Blank Schedule Type Limits Name input -- will not be validated.\n   ** Warning ** ProcessScheduleInput: Schedule:Year=\"SCHEDULE RULESET 76\", Blank Schedule Type Limits Name input -- will not be validated.\n   ** Warning ** ProcessScheduleInput: Schedule:Year=\"SCHEDULE RULESET 77\", Blank Schedule Type Limits Name input -- will not be validated.\n   ** Warning ** ProcessScheduleInput: Schedule:Year=\"SCHEDULE RULESET 78\", Blank Schedule Type Limits Name input -- will not be validated.\n   ** Warning ** ProcessScheduleInput: Schedule:Year=\"SCHEDULE RULESET 79\", Blank Schedule Type Limits Name input -- will not be validated.\n   ** Warning ** ProcessScheduleInput: Schedule:Year=\"SCHEDULE RULESET 8\", Blank Schedule Type Limits Name input -- will not be validated.\n   ** Warning ** ProcessScheduleInput: Schedule:Year=\"SCHEDULE RULESET 80\", Blank Schedule Type Limits Name input -- will not be validated.\n   ** Warning ** ProcessScheduleInput: Schedule:Year=\"SCHEDULE RULESET 81\", Blank Schedule Type Limits Name input -- will not be validated.\n   ** Warning ** ProcessScheduleInput: Schedule:Year=\"SCHEDULE RULESET 82\", Blank Schedule Type Limits Name input -- will not be validated.\n   ** Warning ** ProcessScheduleInput: Schedule:Year=\"SCHEDULE RULESET 83\", Blank Schedule Type Limits Name input -- will not be validated.\n   ** Warning ** ProcessScheduleInput: Schedule:Year=\"SCHEDULE RULESET 84\", Blank Schedule Type Limits Name input -- will not be validated.\n   ** Warning ** ProcessScheduleInput: Schedule:Year=\"SCHEDULE RULESET 85\", Blank Schedule Type Limits Name input -- will not be validated.\n   ** Warning ** ProcessScheduleInput: Schedule:Year=\"SCHEDULE RULESET 86\", Blank Schedule Type Limits Name input -- will not be validated.\n   ** Warning ** ProcessScheduleInput: Schedule:Year=\"SCHEDULE RULESET 87\", Blank Schedule Type Limits Name input -- will not be validated.\n   ** Warning ** ProcessScheduleInput: Schedule:Year=\"SCHEDULE RULESET 88\", Blank Schedule Type Limits Name input -- will not be validated.\n   ** Warning ** ProcessScheduleInput: Schedule:Year=\"SCHEDULE RULESET 89\", Blank Schedule Type Limits Name input -- will not be validated.\n   ** Warning ** ProcessScheduleInput: Schedule:Year=\"SCHEDULE RULESET 9\", Blank Schedule Type Limits Name input -- will not be validated.\n   ** Warning ** ProcessScheduleInput: Schedule:Year=\"SCHEDULE RULESET 90\", Blank Schedule Type Limits Name input -- will not be validated.\n   ** Warning ** ProcessScheduleInput: Schedule:Year=\"SCHEDULE RULESET 91\", Blank Schedule Type Limits Name input -- will not be validated.\n   ** Warning ** ProcessScheduleInput: Schedule:Year=\"SCHEDULE RULESET 92\", Blank Schedule Type Limits Name input -- will not be validated.\n   ** Warning ** ProcessScheduleInput: Schedule:Year=\"SCHEDULE RULESET 93\", Blank Schedule Type Limits Name input -- will not be validated.\n   ** Warning ** ProcessScheduleInput: Schedule:Year=\"SCHEDULE RULESET 94\", Blank Schedule Type Limits Name input -- will not be validated.\n   ** Warning ** ProcessScheduleInput: Schedule:Year=\"SCHEDULE RULESET 95\", Blank Schedule Type Limits Name input -- will not be validated.\n   ** Warning ** ProcessScheduleInput: Schedule:Year=\"SCHEDULE RULESET 96\", Blank Schedule Type Limits Name input -- will not be validated.\n   ** Warning ** ProcessScheduleInput: Schedule:Year=\"SCHEDULE RULESET 97\", Blank Schedule Type Limits Name input -- will not be validated.\n   ** Warning ** ProcessScheduleInput: Schedule:Year=\"SCHEDULE RULESET 98\", Blank Schedule Type Limits Name input -- will not be validated.\n   ** Warning ** ProcessScheduleInput: Schedule:Year=\"SCHEDULE RULESET 99\", Blank Schedule Type Limits Name input -- will not be validated.\n   ** Warning ** ProcessScheduleInput: Schedule:Constant=\"ALWAYS OFF DISCRETE\", Blank Schedule Type Limits Name input -- will not be validated.\n   ** Warning ** ProcessScheduleInput: Schedule:Constant=\"ALWAYS ON CONTINUOUS\", Blank Schedule Type Limits Name input -- will not be validated.\n   ** Warning ** CheckUsedConstructions: There are 24 nominally unused constructions in input.\n   **   ~~~   ** For explicit details on each unused construction, use Output:Diagnostics,DisplayExtraWarnings;\n   ** Warning ** GetInternalHeatGains: People Combination of ZoneList and Object Name generate a name too long.\n   **   ~~~   ** Object Name=\"SPACE FUNCTION ELECTRICAL/MECHANICAL-SCH-F PEOPLE\".\n   **   ~~~   ** ZoneList/Zone Name=\"SP-MECHANICALROOMFLR1 SYS-1 FLR-2 SCH-F HPLCMT-SOUTH ZN\".\n   **   ~~~   ** Item length=[104] > Maximum Length=[100]. You may need to shorten the names.\n   **   ~~~   ** Shortening the Object Name by [5] characters will assure uniqueness for this ZoneList.\n   **   ~~~   ** name that will be used (may be needed in reporting)=\"SP-MECHANICALROOMFLR1 SYS-1 FLR-2 SCH-F HPLCMT-SOUTH ZN SPACE FUNCTION ELECTRICAL/MECHANICAL-SCH-F PEOPLE\".\n   ** Warning ** GetInternalHeatGains: People Combination of ZoneList and Object Name generate a name too long.\n   **   ~~~   ** Object Name=\"SPACE FUNCTION ELECTRICAL/MECHANICAL-SCH-F PEOPLE\".\n   **   ~~~   ** ZoneList/Zone Name=\"SP-MEETINGROOMFLR1 SYS-3 FLR-2 SCH-F HPLCMT-SOUTH ZN\".\n   **   ~~~   ** Item length=[101] > Maximum Length=[100]. You may need to shorten the names.\n   **   ~~~   ** Shortening the Object Name by [5] characters will assure uniqueness for this ZoneList.\n   **   ~~~   ** name that will be used (may be needed in reporting)=\"SP-MEETINGROOMFLR1 SYS-3 FLR-2 SCH-F HPLCMT-SOUTH ZN SPACE FUNCTION ELECTRICAL/MECHANICAL-SCH-F PEOPLE\".\n   ** Warning ** GetInternalHeatGains: Lights Combination of ZoneList and Object Name generate a name too long.\n   **   ~~~   ** Object Name=\"SPACE FUNCTION ELECTRICAL/MECHANICAL-SCH-F LIGHTS\".\n   **   ~~~   ** ZoneList/Zone Name=\"SP-MECHANICALROOMFLR1 SYS-1 FLR-2 SCH-F HPLCMT-SOUTH ZN\".\n   **   ~~~   ** Item length=[104] > Maximum Length=[100]. You may need to shorten the names.\n   **   ~~~   ** Shortening the Object Name by [5] characters will assure uniqueness for this ZoneList.\n   **   ~~~   ** name that will be used (may be needed in reporting)=\"SP-MECHANICALROOMFLR1 SYS-1 FLR-2 SCH-F HPLCMT-SOUTH ZN SPACE FUNCTION ELECTRICAL/MECHANICAL-SCH-F LIGHTS\".\n   ** Warning ** GetInternalHeatGains: Lights Combination of ZoneList and Object Name generate a name too long.\n   **   ~~~   ** Object Name=\"SPACE FUNCTION ELECTRICAL/MECHANICAL-SCH-F LIGHTS\".\n   **   ~~~   ** ZoneList/Zone Name=\"SP-MEETINGROOMFLR1 SYS-3 FLR-2 SCH-F HPLCMT-SOUTH ZN\".\n   **   ~~~   ** Item length=[101] > Maximum Length=[100]. You may need to shorten the names.\n   **   ~~~   ** Shortening the Object Name by [5] characters will assure uniqueness for this ZoneList.\n   **   ~~~   ** name that will be used (may be needed in reporting)=\"SP-MEETINGROOMFLR1 SYS-3 FLR-2 SCH-F HPLCMT-SOUTH ZN SPACE FUNCTION ELECTRICAL/MECHANICAL-SCH-F LIGHTS\".\n   ** Warning ** GetInternalHeatGains: ElectricEquipment Combination of ZoneList and Object Name generate a name too long.\n   **   ~~~   ** Object Name=\"SPACE FUNCTION ELECTRICAL/MECHANICAL-SCH-F ELEC EQUIP\".\n   **   ~~~   ** ZoneList/Zone Name=\"SP-MECHANICALROOMFLR1 SYS-1 FLR-2 SCH-F HPLCMT-SOUTH ZN\".\n   **   ~~~   ** Item length=[108] > Maximum Length=[100]. You may need to shorten the names.\n   **   ~~~   ** Shortening the Object Name by [9] characters will assure uniqueness for this ZoneList.\n   **   ~~~   ** name that will be used (may be needed in reporting)=\"SP-MECHANICALROOMFLR1 SYS-1 FLR-2 SCH-F HPLCMT-SOUTH ZN SPACE FUNCTION ELECTRICAL/MECHANICAL-SCH-F ELEC EQUIP\".\n   ** Warning ** GetInternalHeatGains: ElectricEquipment Combination of ZoneList and Object Name generate a name too long.\n   **   ~~~   ** Object Name=\"SPACE FUNCTION ELECTRICAL/MECHANICAL-SCH-F ELEC EQUIP\".\n   **   ~~~   ** ZoneList/Zone Name=\"SP-MEETINGROOMFLR1 SYS-3 FLR-2 SCH-F HPLCMT-SOUTH ZN\".\n   **   ~~~   ** Item length=[105] > Maximum Length=[100]. You may need to shorten the names.\n   **   ~~~   ** Shortening the Object Name by [9] characters will assure uniqueness for this ZoneList.\n   **   ~~~   ** name that will be used (may be needed in reporting)=\"SP-MEETINGROOMFLR1 SYS-3 FLR-2 SCH-F HPLCMT-SOUTH ZN SPACE FUNCTION ELECTRICAL/MECHANICAL-SCH-F ELEC EQUIP\".\n   ** Warning ** GetInternalHeatGains: ElectricEquipment Combination of ZoneList and Object Name generate a name too long.\n   **   ~~~   ** Object Name=\"SPACE FUNCTION STORAGE AREA - OCCSENS ELEC EQUIP\".\n   **   ~~~   ** ZoneList/Zone Name=\"SP-FRONTSTORAGEFLR1 SYS-4 FLR-2 SCH-E HPLCMT-NORTH ZN\".\n   **   ~~~   ** Item length=[101] > Maximum Length=[100]. You may need to shorten the names.\n   **   ~~~   ** Shortening the Object Name by [2] characters will assure uniqueness for this ZoneList.\n   **   ~~~   ** name that will be used (may be needed in reporting)=\"SP-FRONTSTORAGEFLR1 SYS-4 FLR-2 SCH-E HPLCMT-NORTH ZN SPACE FUNCTION STORAGE AREA - OCCSENS ELEC EQUIP\".\n   ** Warning ** GetInternalHeatGains: ElectricEquipment Combination of ZoneList and Object Name generate a name too long.\n   **   ~~~   ** Object Name=\"SPACE FUNCTION STORAGE AREA - OCCSENS ELEC EQUIP\".\n   **   ~~~   ** ZoneList/Zone Name=\"SP-FRONTSTORAGEFLR2 SYS-4 FLR-1 SCH-E HPLCMT-NORTH ZN\".\n   **   ~~~   ** Item length=[101] > Maximum Length=[100]. You may need to shorten the names.\n   **   ~~~   ** Shortening the Object Name by [2] characters will assure uniqueness for this ZoneList.\n   **   ~~~   ** name that will be used (may be needed in reporting)=\"SP-FRONTSTORAGEFLR2 SYS-4 FLR-1 SCH-E HPLCMT-NORTH ZN SPACE FUNCTION STORAGE AREA - OCCSENS ELEC EQUIP\".\n   ** Warning ** GetInternalHeatGains: ElectricEquipment Combination of ZoneList and Object Name generate a name too long.\n   **   ~~~   ** Object Name=\"SPACE FUNCTION STORAGE AREA - OCCSENS ELEC EQUIP\".\n   **   ~~~   ** ZoneList/Zone Name=\"SP-FRONTSTORAGEFLR3 SYS-4 FLR-4 SCH-E HPLCMT-NORTH ZN\".\n   **   ~~~   ** Item length=[101] > Maximum Length=[100]. You may need to shorten the names.\n   **   ~~~   ** Shortening the Object Name by [2] characters will assure uniqueness for this ZoneList.\n   **   ~~~   ** name that will be used (may be needed in reporting)=\"SP-FRONTSTORAGEFLR3 SYS-4 FLR-4 SCH-E HPLCMT-NORTH ZN SPACE FUNCTION STORAGE AREA - OCCSENS ELEC EQUIP\".\n   ** Warning ** GetInternalHeatGains: ElectricEquipment Combination of ZoneList and Object Name generate a name too long.\n   **   ~~~   ** Object Name=\"SPACE FUNCTION STORAGE AREA - OCCSENS ELEC EQUIP\".\n   **   ~~~   ** ZoneList/Zone Name=\"SP-FRONTSTORAGEFLR4 SYS-4 FLR-3 SCH-E HPLCMT-NORTH ZN\".\n   **   ~~~   ** Item length=[101] > Maximum Length=[100]. You may need to shorten the names.\n   **   ~~~   ** Shortening the Object Name by [2] characters will assure uniqueness for this ZoneList.\n   **   ~~~   ** name that will be used (may be needed in reporting)=\"SP-FRONTSTORAGEFLR4 SYS-4 FLR-3 SCH-E HPLCMT-NORTH ZN SPACE FUNCTION STORAGE AREA - OCCSENS ELEC EQUIP\".\n   ** Warning ** Calculated design heating load for zone=SP-FRONTLOUNGEFLR1 SYS-3 FLR-2 SCH-H HPLCMT-SOUTH ZN is zero.\n   **   ~~~   ** Check Sizing:Zone and ZoneControl:Thermostat inputs.\n   ************* Beginning System Sizing Calculations\n   ** Warning ** GetDXCoils: Coil:Cooling:DX:SingleSpeed=\"COIL COOLING DX SINGLE SPEED 7 6KBTU/HR 11.0EER\", invalid\n   **   ~~~   ** ...Part Load Fraction Correlation Curve Name = DXCOOL-NECB2011-REF-COOLPLFFPLR 63 has out of range value.\n   **   ~~~   ** ...Curve maximum must be <= 1.0, curve max at PLR = 0.99 is 1.015\n   **   ~~~   ** ...Setting curve maximum to 1.0 and simulation continues.\n   ** Warning ** GetDXCoils: Coil:Cooling:DX:SingleSpeed=\"COIL COOLING DX SINGLE SPEED 38 6KBTU/HR 11.0EER\", invalid\n   **   ~~~   ** ...Part Load Fraction Correlation Curve Name = DXCOOL-NECB2011-REF-COOLPLFFPLR 31 has out of range value.\n   **   ~~~   ** ...Curve maximum must be <= 1.0, curve max at PLR = 0.99 is 1.015\n   **   ~~~   ** ...Setting curve maximum to 1.0 and simulation continues.\n   ** Warning ** GetDXCoils: Coil:Cooling:DX:SingleSpeed=\"COIL COOLING DX SINGLE SPEED 26 15KBTU/HR 9.4EER\", invalid\n   **   ~~~   ** ...Part Load Fraction Correlation Curve Name = DXCOOL-NECB2011-REF-COOLPLFFPLR 18 has out of range value.\n   **   ~~~   ** ...Curve maximum must be <= 1.0, curve max at PLR = 0.99 is 1.015\n   **   ~~~   ** ...Setting curve maximum to 1.0 and simulation continues.\n   ** Warning ** GetDXCoils: Coil:Cooling:DX:SingleSpeed=\"COIL COOLING DX SINGLE SPEED 17 2KBTU/HR 11.0EER\", invalid\n   **   ~~~   ** ...Part Load Fraction Correlation Curve Name = DXCOOL-NECB2011-REF-COOLPLFFPLR 8 has out of range value.\n   **   ~~~   ** ...Curve maximum must be <= 1.0, curve max at PLR = 0.99 is 1.015\n   **   ~~~   ** ...Setting curve maximum to 1.0 and simulation continues.\n   ** Warning ** GetDXCoils: Coil:Cooling:DX:SingleSpeed=\"COIL COOLING DX SINGLE SPEED 18 2KBTU/HR 11.0EER\", invalid\n   **   ~~~   ** ...Part Load Fraction Correlation Curve Name = DXCOOL-NECB2011-REF-COOLPLFFPLR 9 has out of range value.\n   **   ~~~   ** ...Curve maximum must be <= 1.0, curve max at PLR = 0.99 is 1.015\n   **   ~~~   ** ...Setting curve maximum to 1.0 and simulation continues.\n   ** Warning ** GetDXCoils: Coil:Cooling:DX:SingleSpeed=\"COIL COOLING DX SINGLE SPEED 19 2KBTU/HR 11.0EER\", invalid\n   **   ~~~   ** ...Part Load Fraction Correlation Curve Name = DXCOOL-NECB2011-REF-COOLPLFFPLR 10 has out of range value.\n   **   ~~~   ** ...Curve maximum must be <= 1.0, curve max at PLR = 0.99 is 1.015\n   **   ~~~   ** ...Setting curve maximum to 1.0 and simulation continues.\n   ** Warning ** GetDXCoils: Coil:Cooling:DX:SingleSpeed=\"COIL COOLING DX SINGLE SPEED 14 2KBTU/HR 11.0EER\", invalid\n   **   ~~~   ** ...Part Load Fraction Correlation Curve Name = DXCOOL-NECB2011-REF-COOLPLFFPLR 5 has out of range value.\n   **   ~~~   ** ...Curve maximum must be <= 1.0, curve max at PLR = 0.99 is 1.015\n   **   ~~~   ** ...Setting curve maximum to 1.0 and simulation continues.\n   ** Warning ** GetDXCoils: Coil:Cooling:DX:SingleSpeed=\"COIL COOLING DX SINGLE SPEED 15 2KBTU/HR 11.0EER\", invalid\n   **   ~~~   ** ...Part Load Fraction Correlation Curve Name = DXCOOL-NECB2011-REF-COOLPLFFPLR 6 has out of range value.\n   **   ~~~   ** ...Curve maximum must be <= 1.0, curve max at PLR = 0.99 is 1.015\n   **   ~~~   ** ...Setting curve maximum to 1.0 and simulation continues.\n   ** Warning ** GetDXCoils: Coil:Cooling:DX:SingleSpeed=\"COIL COOLING DX SINGLE SPEED 9 2KBTU/HR 11.0EER\", invalid\n   **   ~~~   ** ...Part Load Fraction Correlation Curve Name = DXCOOL-NECB2011-REF-COOLPLFFPLR 65 has out of range value.\n   **   ~~~   ** ...Curve maximum must be <= 1.0, curve max at PLR = 0.99 is 1.015\n   **   ~~~   ** ...Setting curve maximum to 1.0 and simulation continues.\n   ** Warning ** GetDXCoils: Coil:Cooling:DX:SingleSpeed=\"COIL COOLING DX SINGLE SPEED 11 8KBTU/HR 10.7EER\", invalid\n   **   ~~~   ** ...Part Load Fraction Correlation Curve Name = DXCOOL-NECB2011-REF-COOLPLFFPLR 2 has out of range value.\n   **   ~~~   ** ...Curve maximum must be <= 1.0, curve max at PLR = 0.99 is 1.015\n   **   ~~~   ** ...Setting curve maximum to 1.0 and simulation continues.\n   ** Warning ** GetDXCoils: Coil:Cooling:DX:SingleSpeed=\"COIL COOLING DX SINGLE SPEED 13 6KBTU/HR 11.0EER\", invalid\n   **   ~~~   ** ...Part Load Fraction Correlation Curve Name = DXCOOL-NECB2011-REF-COOLPLFFPLR 4 has out of range value.\n   **   ~~~   ** ...Curve maximum must be <= 1.0, curve max at PLR = 0.99 is 1.015\n   **   ~~~   ** ...Setting curve maximum to 1.0 and simulation continues.\n   ** Warning ** GetDXCoils: Coil:Cooling:DX:SingleSpeed=\"COIL COOLING DX SINGLE SPEED 12 7KBTU/HR 10.9EER\", invalid\n   **   ~~~   ** ...Part Load Fraction Correlation Curve Name = DXCOOL-NECB2011-REF-COOLPLFFPLR 3 has out of range value.\n   **   ~~~   ** ...Curve maximum must be <= 1.0, curve max at PLR = 0.99 is 1.015\n   **   ~~~   ** ...Setting curve maximum to 1.0 and simulation continues.\n   ** Warning ** GetDXCoils: Coil:Cooling:DX:SingleSpeed=\"COIL COOLING DX SINGLE SPEED 10 2KBTU/HR 11.0EER\", invalid\n   **   ~~~   ** ...Part Load Fraction Correlation Curve Name = DXCOOL-NECB2011-REF-COOLPLFFPLR 1 has out of range value.\n   **   ~~~   ** ...Curve maximum must be <= 1.0, curve max at PLR = 0.99 is 1.015\n   **   ~~~   ** ...Setting curve maximum to 1.0 and simulation continues.\n   ** Warning ** GetDXCoils: Coil:Cooling:DX:SingleSpeed=\"COIL COOLING DX SINGLE SPEED 5 2KBTU/HR 11.0EER\", invalid\n   **   ~~~   ** ...Part Load Fraction Correlation Curve Name = DXCOOL-NECB2011-REF-COOLPLFFPLR 44 has out of range value.\n   **   ~~~   ** ...Curve maximum must be <= 1.0, curve max at PLR = 0.99 is 1.015\n   **   ~~~   ** ...Setting curve maximum to 1.0 and simulation continues.\n   ** Warning ** GetDXCoils: Coil:Cooling:DX:SingleSpeed=\"COIL COOLING DX SINGLE SPEED 6 8KBTU/HR 10.8EER\", invalid\n   **   ~~~   ** ...Part Load Fraction Correlation Curve Name = DXCOOL-NECB2011-REF-COOLPLFFPLR 55 has out of range value.\n   **   ~~~   ** ...Curve maximum must be <= 1.0, curve max at PLR = 0.99 is 1.015\n   **   ~~~   ** ...Setting curve maximum to 1.0 and simulation continues.\n   ** Warning ** GetDXCoils: Coil:Cooling:DX:SingleSpeed=\"COIL COOLING DX SINGLE SPEED 3 2KBTU/HR 11.0EER\", invalid\n   **   ~~~   ** ...Part Load Fraction Correlation Curve Name = DXCOOL-NECB2011-REF-COOLPLFFPLR 22 has out of range value.\n   **   ~~~   ** ...Curve maximum must be <= 1.0, curve max at PLR = 0.99 is 1.015\n   **   ~~~   ** ...Setting curve maximum to 1.0 and simulation continues.\n   ** Warning ** GetDXCoils: Coil:Cooling:DX:SingleSpeed=\"COIL COOLING DX SINGLE SPEED 2 8KBTU/HR 10.7EER\", invalid\n   **   ~~~   ** ...Part Load Fraction Correlation Curve Name = DXCOOL-NECB2011-REF-COOLPLFFPLR 11 has out of range value.\n   **   ~~~   ** ...Curve maximum must be <= 1.0, curve max at PLR = 0.99 is 1.015\n   **   ~~~   ** ...Setting curve maximum to 1.0 and simulation continues.\n   ** Warning ** GetDXCoils: Coil:Cooling:DX:SingleSpeed=\"COIL COOLING DX SINGLE SPEED 4 2KBTU/HR 11.0EER\", invalid\n   **   ~~~   ** ...Part Load Fraction Correlation Curve Name = DXCOOL-NECB2011-REF-COOLPLFFPLR 33 has out of range value.\n   **   ~~~   ** ...Curve maximum must be <= 1.0, curve max at PLR = 0.99 is 1.015\n   **   ~~~   ** ...Setting curve maximum to 1.0 and simulation continues.\n   ** Warning ** GetDXCoils: Coil:Cooling:DX:SingleSpeed=\"COIL COOLING DX SINGLE SPEED 40 3KBTU/HR 11.0EER\", invalid\n   **   ~~~   ** ...Part Load Fraction Correlation Curve Name = DXCOOL-NECB2011-REF-COOLPLFFPLR 34 has out of range value.\n   **   ~~~   ** ...Curve maximum must be <= 1.0, curve max at PLR = 0.99 is 1.015\n   **   ~~~   ** ...Setting curve maximum to 1.0 and simulation continues.\n   ** Warning ** GetDXCoils: Coil:Cooling:DX:SingleSpeed=\"COIL COOLING DX SINGLE SPEED 41 8KBTU/HR 10.8EER\", invalid\n   **   ~~~   ** ...Part Load Fraction Correlation Curve Name = DXCOOL-NECB2011-REF-COOLPLFFPLR 35 has out of range value.\n   **   ~~~   ** ...Curve maximum must be <= 1.0, curve max at PLR = 0.99 is 1.015\n   **   ~~~   ** ...Setting curve maximum to 1.0 and simulation continues.\n   ** Warning ** GetDXCoils: Coil:Cooling:DX:SingleSpeed=\"COIL COOLING DX SINGLE SPEED 43 6KBTU/HR 11.0EER\", invalid\n   **   ~~~   ** ...Part Load Fraction Correlation Curve Name = DXCOOL-NECB2011-REF-COOLPLFFPLR 37 has out of range value.\n   **   ~~~   ** ...Curve maximum must be <= 1.0, curve max at PLR = 0.99 is 1.015\n   **   ~~~   ** ...Setting curve maximum to 1.0 and simulation continues.\n   ** Warning ** GetDXCoils: Coil:Cooling:DX:SingleSpeed=\"COIL COOLING DX SINGLE SPEED 44 8KBTU/HR 10.8EER\", invalid\n   **   ~~~   ** ...Part Load Fraction Correlation Curve Name = DXCOOL-NECB2011-REF-COOLPLFFPLR 38 has out of range value.\n   **   ~~~   ** ...Curve maximum must be <= 1.0, curve max at PLR = 0.99 is 1.015\n   **   ~~~   ** ...Setting curve maximum to 1.0 and simulation continues.\n   ** Warning ** GetDXCoils: Coil:Cooling:DX:SingleSpeed=\"COIL COOLING DX SINGLE SPEED 42 2KBTU/HR 11.0EER\", invalid\n   **   ~~~   ** ...Part Load Fraction Correlation Curve Name = DXCOOL-NECB2011-REF-COOLPLFFPLR 36 has out of range value.\n   **   ~~~   ** ...Curve maximum must be <= 1.0, curve max at PLR = 0.99 is 1.015\n   **   ~~~   ** ...Setting curve maximum to 1.0 and simulation continues.\n   ** Warning ** GetDXCoils: Coil:Cooling:DX:SingleSpeed=\"COIL COOLING DX SINGLE SPEED 35 2KBTU/HR 11.0EER\", invalid\n   **   ~~~   ** ...Part Load Fraction Correlation Curve Name = DXCOOL-NECB2011-REF-COOLPLFFPLR 28 has out of range value.\n   **   ~~~   ** ...Curve maximum must be <= 1.0, curve max at PLR = 0.99 is 1.015\n   **   ~~~   ** ...Setting curve maximum to 1.0 and simulation continues.\n   ** Warning ** GetDXCoils: Coil:Cooling:DX:SingleSpeed=\"COIL COOLING DX SINGLE SPEED 37 8KBTU/HR 10.7EER\", invalid\n   **   ~~~   ** ...Part Load Fraction Correlation Curve Name = DXCOOL-NECB2011-REF-COOLPLFFPLR 30 has out of range value.\n   **   ~~~   ** ...Curve maximum must be <= 1.0, curve max at PLR = 0.99 is 1.015\n   **   ~~~   ** ...Setting curve maximum to 1.0 and simulation continues.\n   ** Warning ** GetDXCoils: Coil:Cooling:DX:SingleSpeed=\"COIL COOLING DX SINGLE SPEED 36 2KBTU/HR 11.0EER\", invalid\n   **   ~~~   ** ...Part Load Fraction Correlation Curve Name = DXCOOL-NECB2011-REF-COOLPLFFPLR 29 has out of range value.\n   **   ~~~   ** ...Curve maximum must be <= 1.0, curve max at PLR = 0.99 is 1.015\n   **   ~~~   ** ...Setting curve maximum to 1.0 and simulation continues.\n   ** Warning ** GetDXCoils: Coil:Cooling:DX:SingleSpeed=\"COIL COOLING DX SINGLE SPEED 34 8KBTU/HR 10.7EER\", invalid\n   **   ~~~   ** ...Part Load Fraction Correlation Curve Name = DXCOOL-NECB2011-REF-COOLPLFFPLR 27 has out of range value.\n   **   ~~~   ** ...Curve maximum must be <= 1.0, curve max at PLR = 0.99 is 1.015\n   **   ~~~   ** ...Setting curve maximum to 1.0 and simulation continues.\n   ** Warning ** GetDXCoils: Coil:Cooling:DX:SingleSpeed=\"COIL COOLING DX SINGLE SPEED 33 2KBTU/HR 11.0EER\", invalid\n   **   ~~~   ** ...Part Load Fraction Correlation Curve Name = DXCOOL-NECB2011-REF-COOLPLFFPLR 26 has out of range value.\n   **   ~~~   ** ...Curve maximum must be <= 1.0, curve max at PLR = 0.99 is 1.015\n   **   ~~~   ** ...Setting curve maximum to 1.0 and simulation continues.\n   ** Warning ** GetDXCoils: Coil:Cooling:DX:SingleSpeed=\"COIL COOLING DX SINGLE SPEED 28 6KBTU/HR 11.0EER\", invalid\n   **   ~~~   ** ...Part Load Fraction Correlation Curve Name = DXCOOL-NECB2011-REF-COOLPLFFPLR 20 has out of range value.\n   **   ~~~   ** ...Curve maximum must be <= 1.0, curve max at PLR = 0.99 is 1.015\n   **   ~~~   ** ...Setting curve maximum to 1.0 and simulation continues.\n   ** Warning ** GetDXCoils: Coil:Cooling:DX:SingleSpeed=\"COIL COOLING DX SINGLE SPEED 29 15KBTU/HR 9.4EER\", invalid\n   **   ~~~   ** ...Part Load Fraction Correlation Curve Name = DXCOOL-NECB2011-REF-COOLPLFFPLR 21 has out of range value.\n   **   ~~~   ** ...Curve maximum must be <= 1.0, curve max at PLR = 0.99 is 1.015\n   **   ~~~   ** ...Setting curve maximum to 1.0 and simulation continues.\n   ** Warning ** GetDXCoils: Coil:Cooling:DX:SingleSpeed=\"COIL COOLING DX SINGLE SPEED 32 12KBTU/HR 9.9EER\", invalid\n   **   ~~~   ** ...Part Load Fraction Correlation Curve Name = DXCOOL-NECB2011-REF-COOLPLFFPLR 25 has out of range value.\n   **   ~~~   ** ...Curve maximum must be <= 1.0, curve max at PLR = 0.99 is 1.015\n   **   ~~~   ** ...Setting curve maximum to 1.0 and simulation continues.\n   ** Warning ** GetDXCoils: Coil:Cooling:DX:SingleSpeed=\"COIL COOLING DX SINGLE SPEED 31 15KBTU/HR 9.4EER\", invalid\n   **   ~~~   ** ...Part Load Fraction Correlation Curve Name = DXCOOL-NECB2011-REF-COOLPLFFPLR 24 has out of range value.\n   **   ~~~   ** ...Curve maximum must be <= 1.0, curve max at PLR = 0.99 is 1.015\n   **   ~~~   ** ...Setting curve maximum to 1.0 and simulation continues.\n   ** Warning ** GetDXCoils: Coil:Cooling:DX:SingleSpeed=\"COIL COOLING DX SINGLE SPEED 30 4KBTU/HR 11.0EER\", invalid\n   **   ~~~   ** ...Part Load Fraction Correlation Curve Name = DXCOOL-NECB2011-REF-COOLPLFFPLR 23 has out of range value.\n   **   ~~~   ** ...Curve maximum must be <= 1.0, curve max at PLR = 0.99 is 1.015\n   **   ~~~   ** ...Setting curve maximum to 1.0 and simulation continues.\n   ** Warning ** GetDXCoils: Coil:Cooling:DX:SingleSpeed=\"COIL COOLING DX SINGLE SPEED 25 4KBTU/HR 11.0EER\", invalid\n   **   ~~~   ** ...Part Load Fraction Correlation Curve Name = DXCOOL-NECB2011-REF-COOLPLFFPLR 17 has out of range value.\n   **   ~~~   ** ...Curve maximum must be <= 1.0, curve max at PLR = 0.99 is 1.015\n   **   ~~~   ** ...Setting curve maximum to 1.0 and simulation continues.\n   ** Warning ** GetDXCoils: Coil:Cooling:DX:SingleSpeed=\"COIL COOLING DX SINGLE SPEED 23 13KBTU/HR 9.7EER\", invalid\n   **   ~~~   ** ...Part Load Fraction Correlation Curve Name = DXCOOL-NECB2011-REF-COOLPLFFPLR 15 has out of range value.\n   **   ~~~   ** ...Curve maximum must be <= 1.0, curve max at PLR = 0.99 is 1.015\n   **   ~~~   ** ...Setting curve maximum to 1.0 and simulation continues.\n   ** Warning ** GetDXCoils: Coil:Cooling:DX:SingleSpeed=\"COIL COOLING DX SINGLE SPEED 22 4KBTU/HR 11.0EER\", invalid\n   **   ~~~   ** ...Part Load Fraction Correlation Curve Name = DXCOOL-NECB2011-REF-COOLPLFFPLR 14 has out of range value.\n   **   ~~~   ** ...Curve maximum must be <= 1.0, curve max at PLR = 0.99 is 1.015\n   **   ~~~   ** ...Setting curve maximum to 1.0 and simulation continues.\n   ** Warning ** GetDXCoils: Coil:Cooling:DX:SingleSpeed=\"COIL COOLING DX SINGLE SPEED 21 13KBTU/HR 9.7EER\", invalid\n   **   ~~~   ** ...Part Load Fraction Correlation Curve Name = DXCOOL-NECB2011-REF-COOLPLFFPLR 13 has out of range value.\n   **   ~~~   ** ...Curve maximum must be <= 1.0, curve max at PLR = 0.99 is 1.015\n   **   ~~~   ** ...Setting curve maximum to 1.0 and simulation continues.\n   ** Warning ** GetDXCoils: Coil:Cooling:DX:SingleSpeed=\"COIL COOLING DX SINGLE SPEED 24 4KBTU/HR 11.0EER\", invalid\n   **   ~~~   ** ...Part Load Fraction Correlation Curve Name = DXCOOL-NECB2011-REF-COOLPLFFPLR 16 has out of range value.\n   **   ~~~   ** ...Curve maximum must be <= 1.0, curve max at PLR = 0.99 is 1.015\n   **   ~~~   ** ...Setting curve maximum to 1.0 and simulation continues.\n   ** Warning ** GetDXCoils: Coil:Cooling:DX:SingleSpeed=\"COIL COOLING DX SINGLE SPEED 20 2KBTU/HR 11.0EER\", invalid\n   **   ~~~   ** ...Part Load Fraction Correlation Curve Name = DXCOOL-NECB2011-REF-COOLPLFFPLR 12 has out of range value.\n   **   ~~~   ** ...Curve maximum must be <= 1.0, curve max at PLR = 0.99 is 1.015\n   **   ~~~   ** ...Setting curve maximum to 1.0 and simulation continues.\n   ** Warning ** GetDXCoils: Coil:Cooling:DX:SingleSpeed=\"COIL COOLING DX SINGLE SPEED 16 3KBTU/HR 11.0EER\", invalid\n   **   ~~~   ** ...Part Load Fraction Correlation Curve Name = DXCOOL-NECB2011-REF-COOLPLFFPLR 7 has out of range value.\n   **   ~~~   ** ...Curve maximum must be <= 1.0, curve max at PLR = 0.99 is 1.015\n   **   ~~~   ** ...Setting curve maximum to 1.0 and simulation continues.\n   ** Warning ** GetDXCoils: Coil:Cooling:DX:SingleSpeed=\"COIL COOLING DX SINGLE SPEED 8 2KBTU/HR 11.0EER\", invalid\n   **   ~~~   ** ...Part Load Fraction Correlation Curve Name = DXCOOL-NECB2011-REF-COOLPLFFPLR 64 has out of range value.\n   **   ~~~   ** ...Curve maximum must be <= 1.0, curve max at PLR = 0.99 is 1.015\n   **   ~~~   ** ...Setting curve maximum to 1.0 and simulation continues.\n   ** Warning ** GetDXCoils: Coil:Cooling:DX:SingleSpeed=\"COIL COOLING DX SINGLE SPEED 39 3KBTU/HR 11.0EER\", invalid\n   **   ~~~   ** ...Part Load Fraction Correlation Curve Name = DXCOOL-NECB2011-REF-COOLPLFFPLR 32 has out of range value.\n   **   ~~~   ** ...Curve maximum must be <= 1.0, curve max at PLR = 0.99 is 1.015\n   **   ~~~   ** ...Setting curve maximum to 1.0 and simulation continues.\n   ** Warning ** GetDXCoils: Coil:Cooling:DX:SingleSpeed=\"COIL COOLING DX SINGLE SPEED 27 4KBTU/HR 11.0EER\", invalid\n   **   ~~~   ** ...Part Load Fraction Correlation Curve Name = DXCOOL-NECB2011-REF-COOLPLFFPLR 19 has out of range value.\n   **   ~~~   ** ...Curve maximum must be <= 1.0, curve max at PLR = 0.99 is 1.015\n   **   ~~~   ** ...Setting curve maximum to 1.0 and simulation continues.\n   ** Warning ** GetDXCoils: Coil:Cooling:DX:SingleSpeed=\"COIL COOLING DX SINGLE SPEED 1 133KBTU/HR 9.7EER\", invalid\n   **   ~~~   ** ...Part Load Fraction Correlation Curve Name = DXCOOL-NECB2011-REF-COOLPLFFPLR has out of range value.\n   **   ~~~   ** ...Curve maximum must be <= 1.0, curve max at PLR = 0.99 is 1.015\n   **   ~~~   ** ...Setting curve maximum to 1.0 and simulation continues.\n   ** Warning ** GetDXCoils: Coil:Cooling:DX:SingleSpeed=\"COIL COOLING DX SINGLE SPEED 46 8KBTU/HR 14.0SEER\", invalid\n   **   ~~~   ** ...Part Load Fraction Correlation Curve Name = DXCOOL-NECB2011-REF-COOLPLFFPLR 40 has out of range value.\n   **   ~~~   ** ...Curve maximum must be <= 1.0, curve max at PLR = 0.99 is 1.015\n   **   ~~~   ** ...Setting curve maximum to 1.0 and simulation continues.\n   ** Warning ** GetDXCoils: Coil:Cooling:DX:SingleSpeed=\"COIL COOLING DX SINGLE SPEED 50 5KBTU/HR 14.0SEER\", invalid\n   **   ~~~   ** ...Part Load Fraction Correlation Curve Name = DXCOOL-NECB2011-REF-COOLPLFFPLR 45 has out of range value.\n   **   ~~~   ** ...Curve maximum must be <= 1.0, curve max at PLR = 0.99 is 1.015\n   **   ~~~   ** ...Setting curve maximum to 1.0 and simulation continues.\n   ** Warning ** GetDXCoils: Coil:Cooling:DX:SingleSpeed=\"COIL COOLING DX SINGLE SPEED 45 5KBTU/HR 14.0SEER\", invalid\n   **   ~~~   ** ...Part Load Fraction Correlation Curve Name = DXCOOL-NECB2011-REF-COOLPLFFPLR 39 has out of range value.\n   **   ~~~   ** ...Curve maximum must be <= 1.0, curve max at PLR = 0.99 is 1.015\n   **   ~~~   ** ...Setting curve maximum to 1.0 and simulation continues.\n   ** Warning ** GetDXCoils: Coil:Cooling:DX:SingleSpeed=\"COIL COOLING DX SINGLE SPEED 53 5KBTU/HR 14.0SEER\", invalid\n   **   ~~~   ** ...Part Load Fraction Correlation Curve Name = DXCOOL-NECB2011-REF-COOLPLFFPLR 48 has out of range value.\n   **   ~~~   ** ...Curve maximum must be <= 1.0, curve max at PLR = 0.99 is 1.015\n   **   ~~~   ** ...Setting curve maximum to 1.0 and simulation continues.\n   ** Warning ** GetDXCoils: Coil:Cooling:DX:SingleSpeed=\"COIL COOLING DX SINGLE SPEED 52 5KBTU/HR 14.0SEER\", invalid\n   **   ~~~   ** ...Part Load Fraction Correlation Curve Name = DXCOOL-NECB2011-REF-COOLPLFFPLR 47 has out of range value.\n   **   ~~~   ** ...Curve maximum must be <= 1.0, curve max at PLR = 0.99 is 1.015\n   **   ~~~   ** ...Setting curve maximum to 1.0 and simulation continues.\n   ** Warning ** GetDXCoils: Coil:Cooling:DX:SingleSpeed=\"COIL COOLING DX SINGLE SPEED 49 4KBTU/HR 14.0SEER\", invalid\n   **   ~~~   ** ...Part Load Fraction Correlation Curve Name = DXCOOL-NECB2011-REF-COOLPLFFPLR 43 has out of range value.\n   **   ~~~   ** ...Curve maximum must be <= 1.0, curve max at PLR = 0.99 is 1.015\n   **   ~~~   ** ...Setting curve maximum to 1.0 and simulation continues.\n   ** Warning ** GetDXCoils: Coil:Cooling:DX:SingleSpeed=\"COIL COOLING DX SINGLE SPEED 51 21KBTU/HR 14.0SEER\", invalid\n   **   ~~~   ** ...Part Load Fraction Correlation Curve Name = DXCOOL-NECB2011-REF-COOLPLFFPLR 46 has out of range value.\n   **   ~~~   ** ...Curve maximum must be <= 1.0, curve max at PLR = 0.99 is 1.015\n   **   ~~~   ** ...Setting curve maximum to 1.0 and simulation continues.\n   ** Warning ** GetDXCoils: Coil:Cooling:DX:SingleSpeed=\"COIL COOLING DX SINGLE SPEED 57 3KBTU/HR 14.0SEER\", invalid\n   **   ~~~   ** ...Part Load Fraction Correlation Curve Name = DXCOOL-NECB2011-REF-COOLPLFFPLR 52 has out of range value.\n   **   ~~~   ** ...Curve maximum must be <= 1.0, curve max at PLR = 0.99 is 1.015\n   **   ~~~   ** ...Setting curve maximum to 1.0 and simulation continues.\n   ** Warning ** GetDXCoils: Coil:Cooling:DX:SingleSpeed=\"COIL COOLING DX SINGLE SPEED 54 2KBTU/HR 14.0SEER\", invalid\n   **   ~~~   ** ...Part Load Fraction Correlation Curve Name = DXCOOL-NECB2011-REF-COOLPLFFPLR 49 has out of range value.\n   **   ~~~   ** ...Curve maximum must be <= 1.0, curve max at PLR = 0.99 is 1.015\n   **   ~~~   ** ...Setting curve maximum to 1.0 and simulation continues.\n   ** Warning ** GetDXCoils: Coil:Cooling:DX:SingleSpeed=\"COIL COOLING DX SINGLE SPEED 64 3KBTU/HR 14.0SEER\", invalid\n   **   ~~~   ** ...Part Load Fraction Correlation Curve Name = DXCOOL-NECB2011-REF-COOLPLFFPLR 60 has out of range value.\n   **   ~~~   ** ...Curve maximum must be <= 1.0, curve max at PLR = 0.99 is 1.015\n   **   ~~~   ** ...Setting curve maximum to 1.0 and simulation continues.\n   ** Warning ** GetDXCoils: Coil:Cooling:DX:SingleSpeed=\"COIL COOLING DX SINGLE SPEED 61 4KBTU/HR 14.0SEER\", invalid\n   **   ~~~   ** ...Part Load Fraction Correlation Curve Name = DXCOOL-NECB2011-REF-COOLPLFFPLR 57 has out of range value.\n   **   ~~~   ** ...Curve maximum must be <= 1.0, curve max at PLR = 0.99 is 1.015\n   **   ~~~   ** ...Setting curve maximum to 1.0 and simulation continues.\n   ** Warning ** GetDXCoils: Coil:Cooling:DX:SingleSpeed=\"COIL COOLING DX SINGLE SPEED 58 1KBTU/HR 14.0SEER\", invalid\n   **   ~~~   ** ...Part Load Fraction Correlation Curve Name = DXCOOL-NECB2011-REF-COOLPLFFPLR 53 has out of range value.\n   **   ~~~   ** ...Curve maximum must be <= 1.0, curve max at PLR = 0.99 is 1.015\n   **   ~~~   ** ...Setting curve maximum to 1.0 and simulation continues.\n   ** Warning ** GetDXCoils: Coil:Cooling:DX:SingleSpeed=\"COIL COOLING DX SINGLE SPEED 55 1KBTU/HR 14.0SEER\", invalid\n   **   ~~~   ** ...Part Load Fraction Correlation Curve Name = DXCOOL-NECB2011-REF-COOLPLFFPLR 50 has out of range value.\n   **   ~~~   ** ...Curve maximum must be <= 1.0, curve max at PLR = 0.99 is 1.015\n   **   ~~~   ** ...Setting curve maximum to 1.0 and simulation continues.\n   ** Warning ** GetDXCoils: Coil:Cooling:DX:SingleSpeed=\"COIL COOLING DX SINGLE SPEED 65 1KBTU/HR 14.0SEER\", invalid\n   **   ~~~   ** ...Part Load Fraction Correlation Curve Name = DXCOOL-NECB2011-REF-COOLPLFFPLR 61 has out of range value.\n   **   ~~~   ** ...Curve maximum must be <= 1.0, curve max at PLR = 0.99 is 1.015\n   **   ~~~   ** ...Setting curve maximum to 1.0 and simulation continues.\n   ** Warning ** GetDXCoils: Coil:Cooling:DX:SingleSpeed=\"COIL COOLING DX SINGLE SPEED 62 2KBTU/HR 14.0SEER\", invalid\n   **   ~~~   ** ...Part Load Fraction Correlation Curve Name = DXCOOL-NECB2011-REF-COOLPLFFPLR 58 has out of range value.\n   **   ~~~   ** ...Curve maximum must be <= 1.0, curve max at PLR = 0.99 is 1.015\n   **   ~~~   ** ...Setting curve maximum to 1.0 and simulation continues.\n   ** Warning ** GetDXCoils: Coil:Cooling:DX:SingleSpeed=\"COIL COOLING DX SINGLE SPEED 59 6KBTU/HR 14.0SEER\", invalid\n   **   ~~~   ** ...Part Load Fraction Correlation Curve Name = DXCOOL-NECB2011-REF-COOLPLFFPLR 54 has out of range value.\n   **   ~~~   ** ...Curve maximum must be <= 1.0, curve max at PLR = 0.99 is 1.015\n   **   ~~~   ** ...Setting curve maximum to 1.0 and simulation continues.\n   ** Warning ** GetDXCoils: Coil:Cooling:DX:SingleSpeed=\"COIL COOLING DX SINGLE SPEED 48 4KBTU/HR 14.0SEER\", invalid\n   **   ~~~   ** ...Part Load Fraction Correlation Curve Name = DXCOOL-NECB2011-REF-COOLPLFFPLR 42 has out of range value.\n   **   ~~~   ** ...Curve maximum must be <= 1.0, curve max at PLR = 0.99 is 1.015\n   **   ~~~   ** ...Setting curve maximum to 1.0 and simulation continues.\n   ** Warning ** GetDXCoils: Coil:Cooling:DX:SingleSpeed=\"COIL COOLING DX SINGLE SPEED 60 4KBTU/HR 14.0SEER\", invalid\n   **   ~~~   ** ...Part Load Fraction Correlation Curve Name = DXCOOL-NECB2011-REF-COOLPLFFPLR 56 has out of range value.\n   **   ~~~   ** ...Curve maximum must be <= 1.0, curve max at PLR = 0.99 is 1.015\n   **   ~~~   ** ...Setting curve maximum to 1.0 and simulation continues.\n   ** Warning ** GetDXCoils: Coil:Cooling:DX:SingleSpeed=\"COIL COOLING DX SINGLE SPEED 56 3KBTU/HR 14.0SEER\", invalid\n   **   ~~~   ** ...Part Load Fraction Correlation Curve Name = DXCOOL-NECB2011-REF-COOLPLFFPLR 51 has out of range value.\n   **   ~~~   ** ...Curve maximum must be <= 1.0, curve max at PLR = 0.99 is 1.015\n   **   ~~~   ** ...Setting curve maximum to 1.0 and simulation continues.\n   ** Warning ** GetDXCoils: Coil:Cooling:DX:SingleSpeed=\"COIL COOLING DX SINGLE SPEED 66 3KBTU/HR 14.0SEER\", invalid\n   **   ~~~   ** ...Part Load Fraction Correlation Curve Name = DXCOOL-NECB2011-REF-COOLPLFFPLR 62 has out of range value.\n   **   ~~~   ** ...Curve maximum must be <= 1.0, curve max at PLR = 0.99 is 1.015\n   **   ~~~   ** ...Setting curve maximum to 1.0 and simulation continues.\n   ** Warning ** GetDXCoils: Coil:Cooling:DX:SingleSpeed=\"COIL COOLING DX SINGLE SPEED 63 4KBTU/HR 14.0SEER\", invalid\n   **   ~~~   ** ...Part Load Fraction Correlation Curve Name = DXCOOL-NECB2011-REF-COOLPLFFPLR 59 has out of range value.\n   **   ~~~   ** ...Curve maximum must be <= 1.0, curve max at PLR = 0.99 is 1.015\n   **   ~~~   ** ...Setting curve maximum to 1.0 and simulation continues.\n   ** Warning ** GetDXCoils: Coil:Cooling:DX:SingleSpeed=\"COIL COOLING DX SINGLE SPEED 47 2KBTU/HR 14.0SEER\", invalid\n   **   ~~~   ** ...Part Load Fraction Correlation Curve Name = DXCOOL-NECB2011-REF-COOLPLFFPLR 41 has out of range value.\n   **   ~~~   ** ...Curve maximum must be <= 1.0, curve max at PLR = 0.99 is 1.015\n   **   ~~~   ** ...Setting curve maximum to 1.0 and simulation continues.\n   ** Warning ** Since Zone Minimum Air Flow Input Method = CONSTANT, input for Fixed Minimum Air Flow Rate will be ignored.\n   **   ~~~   ** Occurs in AirTerminal:SingleDuct:VAV:Reheat = AIR TERMINAL SINGLE DUCT VAV REHEAT 2\n   ** Warning ** Since Zone Minimum Air Flow Input Method = CONSTANT, input for Fixed Minimum Air Flow Rate will be ignored.\n   **   ~~~   ** Occurs in AirTerminal:SingleDuct:VAV:Reheat = AIR TERMINAL SINGLE DUCT VAV REHEAT 1\n   ************* Beginning Plant Sizing Calculations\n   ** Warning ** The Standard Ratings is calculated for Coil:Cooling:DX:SingleSpeed = COIL COOLING DX SINGLE SPEED 7 6KBTU/HR 11.0EER but not at the AHRI test condition due to curve out of bound.\n   **   ~~~   **  Review the Standard Ratings calculations in the Engineering Reference for this coil type. Also, use Output:Diagnostics, DisplayExtraWarnings for further guidance.\n   ** Warning ** The Standard Ratings is calculated for Coil:Cooling:DX:SingleSpeed = COIL COOLING DX SINGLE SPEED 38 6KBTU/HR 11.0EER but not at the AHRI test condition due to curve out of bound.\n   **   ~~~   **  Review the Standard Ratings calculations in the Engineering Reference for this coil type. Also, use Output:Diagnostics, DisplayExtraWarnings for further guidance.\n   ** Warning ** The Standard Ratings is calculated for Coil:Cooling:DX:SingleSpeed = COIL COOLING DX SINGLE SPEED 26 15KBTU/HR 9.4EER but not at the AHRI test condition due to curve out of bound.\n   **   ~~~   **  Review the Standard Rat
[...]
kZnxpskRROCXKXOzDbJiyYEuXqdGWySGk24GV3Nzkw1yY4mBLmanRlpiiBtN0cypAlB8VskOdKEoPjwS5Y0ISg+/JInTQiKD79mSlOSbN3OTDZNlqYk2eqdGW6aL01JsjU8M980ZZpyV9o6nhlxmjVNSbJ1PDPlEKchTkOcdo8QcVq9EKchTkOcllmI0xCndXpViNMa+3d4PuK03YU4bbt6+DmtA/MLgAMOOOCAAw444IADDjjgDB7nwLQD0EADDTTQQAMNNNBAAw00w6F5NLoDcMABBxxwwAEHHHDAAQec8v0Qp20W4rStOG0+EHHafAjitPnexGnz26+FlkpuXEETV9DUFTRzBc1dQQtX0NIVtHIFNb5/ryXZup1s5U62didbvZOt38lW8GRreLJVPNk6Xtk6Xvnub1vHK1vHq24dby9Oa2aVi9OUnPhdKhenKTnxLVAuTlNy4hugXJym5MSnXxCnSUGuRmfGmyBOk4Jcpc7MNkGcJgW5ep0ZbII4TboZXc3OTDVBnCYFuZqdGWnl4rRmjiBOk4Lit0gQp0lB8eEXxGlSUHz4BXGaFBQffkWcpiXZup2ZbIo4TUuy1Tsz3BRxmpZka3hmviniNO2utHU8M+IUcZqWZOt4ZsohTkOchjjtHiHitHohTkOchjgtsxCnIU7r9KoQpzX27/B8xGm7C3HadvXwc1oH5hcABxxwwAEHHHDAAQcccMAZPM6BaQeggQYaaKCBBhpooIEGGmiGQ/NodAfggAMOOOCAAw444IADDjjl+yFO2yzEaVtx2mIg4rTFEMRpi72J08ZHlcWbpuRMTDlTU87MlDM35SxMOUtTzsqU0/javRTkanRyVTq5Op1cpU6uVidXrZOr18lV7ORqduVqdmW7q13NrlzNrjo1u70grRFV7kcTYsJ3qNyOJsSE577cjSbEhGe+3IwmxITnXfCiKTmmHsdjTJCiKTmmKsczTDCiKTmmNscDTNChKfegqc/x9BJcaEqOqc/x6CoXoTViBA+akhO+PYIFTckJj7vgQFNywuMuGNCUnPC4K/4zKcjV6HiCKfIzKchV6niIKeYzKcjV63iOKdoz6WZ0NTseZYrzTApyNTueZgjPEJ4hPLtHiPCsXgjPEJ4hPMsshGcIzzq9KoRnjf07PB/h2e5CeLZdPfx81YF5AcABBxxwwAEHHHDAAQcccAaPc2C6AGiggQYaaKCBBhpooIEGmuHQPBpNATjggAMOOOCAAw444IADTvl+CM82C+HZVni2HIjwbDkE4dlyj8Kz8cxkPBOCJq6gqSto5gqau4IWrqClK2jlCvrgC/dKkq3byVbuZGt3stU72fqdbAVPtoYnW8WTreOVreOV7/62dbyydbzq1vEuIrTdLMWEVp4Tv0uKC608J74FFBtaeU58Ayg+tPKc+PRLRjQhyNXozHiTpGhCkKvUmdkmedGEIFevM4NNUqMJN6Or2ZmpJtnRhCBXszMjTRGk7eZIhjQhKH6LJEeaEBQffsmSJgTFh1/ypAlB8eHXTGlKkq3bmcmmydKUJFu9M8NN86UpSbaGZ+abpkxT7kpbxzMjTrOmKUm2jmemHOI0xGmI0+4RIk6rF+I0xGmI0zILcRritE6vCnFaY/8Oz0ectrsQp21XDz+ndWB+AXDAAQcccMABBxxwwAEHnMHjHJh2ABpooIEGGmiggQYaaKCBZjg0j0Z3AA444IADDjjggAMOOOCAU74f4rTNQpy2FaetBiJOWw1BnLbamzhtfvu10FLJjSto4gqauoJmrqC5K2jhClq6glauoMb377UkW7eTrdzJ1u5kq3ey9TvZCp5sDU+2iidbxytbxyvf/W3reGXreNWt4+3Fac2scnGakhO/S+XiNCUnvgXKxWlKTnwDlIvTlJz49AviNCnI1ejMeBPEaVKQq9SZ2SaI06QgV68zg00Qp0k3o6vZmakmiNOkIFezMyOtXJzWzBHEaVJQ/BYJ4jQpKD78gjhNCooPvyBOk4Liw6+I07QkW7czk00Rp2lJtnpnhpsiTtOSbA3PzDdFnKbdlbaOZ0acIk7Tkmwdz0w5xGmI0xCn3SNEnFYvxGmI0xCnZRbiNMRpnV4V4rTG/h2ejzhtdyFO264efk7rwPwC4IADDjjggAMOOOCAAw44g8c5MO0ANNBAAw000EADDTTQQAPNcGgeje4AHHDAAQcccMABBxxwwAGnfD/EaZuFOO1OnLYchjdtOR6AN+0GEm9aURDetIeD8Ka1SsKbhjcNbxreNLxpeNPwpuFNw5v2uzcj3rSHg/CmPRiENw1vGt40vGm2JLxp7ZLwpsUweNPwpn248Kbd4eNN+3DhTWuz8KZ1ez7eNLxpnV4V3rTG/h2ejzdtd+FN264efkzrwPQC4IADDjjggAMOOOCAAw44g8c5MOsANNBAAw000EADDTTQQAPNcGgeje0AHHDAAQcccMABBxxwwAGnfD+8aZuFN23rTRsPRJyWhiBOS3sTp42PKos3TcmZmHKmppyZKWduylmYcpamnJUpp/G1eynI1ejkqnRydTq5Sp1crU6uWidXr5Or2MnV7MrV7Mp2V7uaXbmaXXVqdntBWiOq3I8mxITvULkdTYgJz325G02ICc98uRlNiAnPu+BFU3JMPY7HmCBFU3JMVY5nmGBEU3JMbY4HmKBDU+5BU5/j6SW40JQcU5/j0VUuQmvECB40JSd8ewQLmpITHnfBgabkhMddMKApOeFxV/xnUpCr0fEEU+RnUpCr1PEQU8xnUpCr1/EcU7Rn0s3oanY8yhTnmRTkanY8zRCeITxDeHaPEOFZvRCeITxDeJZZCM8QnnV6VQjPGvt3eD7Cs92F8Gy7evj5qgPzAoADDjjggAMOOOCAAw444Awe58B0AdBAAw000EADDTTQQAMNNMOheTSaAnDAAQcccMABBxxwwAEHnPL9EJ5tFsKzrfAsDUR4Vg1BeFbtUXg2npmMZ0LQxBU0dQXNXEFzV9DCFbR0Ba1cQR984V5JsnU72cqdbO1OtnonW7+TreDJ1vBkq3iydbyydbzy3d+2jle2jlfdOt5FhLabpZjQynPid0lxoZXnxLeAYkMrz4lvAMWHVp4Tn37JiCYEuRqdGW+SFE0IcpU6M9skL5oQ5Op1ZrBJajThZnQ1OzPVJDuaEORqdmakKYK03RzJkCYExW+R5EgTguLDL1nShKD48EueNCEoPvyaKU1JsnU7M9k0WZqSZKt3ZrhpvjQlydbwzHzTlGnKXWnreGbEadY0JcnW8cyUQ5yGOA1x2j1CxGn1QpyGOA1xWmYhTkOc1ulVIU5r7N/h+YjTdhfitO3q4ee0DswvAA444IADDjjggAMOOOCAM3icA9MOQAMNNNBAAw000EADDTTQDIfm0egOwAEHHHDAAQcccMABBxxwyvdDnLZZiNO24rRqIOK0yRDEaZO9idPmt18LLZXcuIImrqCpK2jmCpq7ghauoKUraOUKanz/XkuydTvZyp1s7U62eidbv5Ot4MnW8GSreLJ1vLJ1vPLd37aOV7aOV9063l6c1swqF6cpOfG7VC5OU3LiW6BcnKbkxDdAuThNyYlPvyBOk4Jcjc6MN0GcJgW5Sp2ZbYI4TQpy9Toz2ARxmnQzupqdmWqCOE0KcjU7M9LKxWnNHEGcJgXFb5EgTpOC4sMviNOkoPjwC+I0KSg+/Io4TUuydTsz2RRxmpZkq3dmuCniNC3J1vDMfFPEadpdaet4ZsQp4jQtydbxzJRDnIY4DXHaPULEafVCnIY4DXFaZiFOQ5zW6VUhTmvs3+H5iNN2F+K07erh57QOzC8ADjjggAMOOOCAAw444IAzeJwD0w5AAw000EADDTTQQAMNNNAMh+bR6A7AAQcccMABBxxwwAEHHHDK90OctlmI07bitMlAxGnTIYjTpnsTp42PKos3TcmZmHKmppyZKWduylmYcpamnJUpp/G1eynI1ejkqnRydTq5Sp1crU6uWidXr5Or2MnV7MrV7Mp2V7uaXbmaXXVqdntBWiOq3I8mxITvULkdTYgJz325G02ICc98uRlNiAnPu+BFU3JMPY7HmCBFU3JMVY5nmGBEU3JMbY4HmKBDU+5BU5/j6SW40JQcU5/j0VUuQmvECB40JSd8ewQLmpITHnfBgabkhMddMKApOeFxV/xnUpCr0fEEU+RnUpCr1PEQU8xnUpCr1/EcU7Rn0s3oanY8yhTnmRTkanY8zRCeITxDeHaPEOFZvRCeITxDeJZZCM8QnnV6VQjPGvt3eD7Cs92F8Gy7evj5qgPzAoADDjjggAMOOOCAAw444Awe58B0AdBAAw000EADDTTQQAMNNMOheTSaAnDAAQcccMABBxxwwAEHnPL9EJ5tFsKzrfBsOhDh2WwIwrPZHoVn45nJeCYETVxBU1fQzBU0dwUtXEFLV9DKFfTBF+6VJFu3k63cydbuZKt3svU72QqebA1PtoonW8crW8cr3/1t63hl63jVreNdRGi7WYoJrTwnfpcUF1p5TnwLKDa08pz4BlB8aOU58emXjGhCkKvRmfEmSdGEIFepM7NN8qIJQa5eZwabpEYTbkZXszNTTbKjCUGuZmdGmiJI282RDGlCUPwWSY40ISg+/JIlTQiKD7/kSROC4sOvmdKUJFu3M5NNk6UpSbZ6Z4ab5ktTkmwNz8w3TZmm3JW2jmdGnGZNU5JsHc9MOcRpiNMQp90jRJxWL8RpiNMQp2UW4jTEaZ1eFeK0xv4dno84bXchTtuuHn5O68D8AuCAAw444IADDjjggAMOOIPHOTDtADTQQAMNNNBAAw000EADzXBoHo3uABxwwAEHHHDAAQcccMABp3w/xGmbhThtK06bDUScNh+COG2+N3Ha/PZroaWSG1fQxBU0dQXNXEFzV9DCFbR0Ba1cQY3v32tJtm4nW7mTrd3JVu9k63eyFTzZGp5sFU+2jle2jle++9vW8crW8apbx9uL05pZ5eI0JSd+l8rFaUpOfAuUi9OUnPgGKBenKTnx6RfEaVKQq9GZ8SaI06QgV6kzs00Qp0lBrl5nBpsgTpNuRlezM1NNEKdJQa5mZ0ZauTitmSOI06Sg+C0SxGlSUHz4BXGaFBQffkGcJgXFh18Rp2lJtm5nJpsiTtOSbPXODDdFnKYl2RqemW+KOE27K20dz4w4RZymJdk6nplyiNMQpyFOu0eIOK1eiNMQpyFOyyzEaYjTOr0qxGmN/Ts8H3Ha7kKctl09/JzWgfkFwAEHHHDAAQcccMABBxxwBo9zYNoBaKCBBhpooIEGGmiggQaa4dA8Gt0BOOCAAw444IADDjjggANO+X6I0zYLcdpWnDYfiDhtMQRx2mJv4rTxUWXxpik5E1PO1JQzM+XMTTkLU87SlLMy5TS+di8FuRqdXJVOrk4nV6mTq9XJVevk6nVyFTu5ml25ml3Z7mpXsytXs6tOzW4vSGtElfvRhJjwHSq3owkx4bkvd6MJMeGZLzejCTHheRe8aEqOqcfxGBOkaEqOqcrxDBOMaEqOqc3xABN0aMo9aOpzPL0EF5qSY+pzPLrKRWiNGMGDpuSEb49gQVNywuMuONCUnPC4CwY0JSc87or/TApyNTqeYIr8TApylToeYor5TApy9TqeY4r2TLoZXc2OR5niPJOCXM2OpxnCM4RnCM/uESI8qxfCM4RnCM8yC+EZwrNOrwrhWWP/Ds9HeLa7EJ5tVw8/X3VgXgBwwAEHHHDAAQcccMABB5zB4xyYLgAaaKCBBhpooIEGGmiggWY4NI9GUwAOOOCAAw444IADDjjggFO+H8KzzUJ4thWeLQYiPFsOQXi23KPwbDwzGc+EoIkraOoKmrmC5q6ghSto6QpauYI++MK9kmTrdrKVO9nanWz1TrZ+J1vBk63hyVbxZOt4Zet45bu/bR2vbB2vunW8iwhtN0sxoZXnxO+S4kIrz4lvAcWGVp4T3wCKD608Jz79khFNCHI1OjPeJCmaEOQqdWa2SV40IcjV68xgk9Rows3oanZmqkl2NCHI1ezMSFMEabs5kiFNCIrfIsmRJgTFh1+ypAlB8eGXPGlCUHz4NVOakmTrdmayabI0JclW78xw03xpSpKt4Zn5pinTlLvS1vHMiNOsaUqSreOZKYc4DXEa4rR7hIjT6oU4DXEa4rTMQpyGOK3Tq0Kc1ti/w/MRp+0uxGnb1cPPaR2YXwAccMABBxxwwAEHHHDAAWfwOAemHYAGGmiggQYaaKCBBhpooBkOzaPRHYADDjjggAMOOOCAAw444JTvhzhtsxCnbcVpy4GI01ZDEKet9iZOm99+LbRUcuMKmriCpq6gmSto7gpauIKWrqCVK6jx/XstydbtZCt3srU72eqdbP1OtoInW8OTreLJ1vHK1vHKd3/bOl7ZOl5163h7cVozq1ycpuTE71K5OE3JiW+BcnGakhPfAOXiNCUnPv2COE0KcjU6M94EcZoU5Cp1ZrYJ4jQpyNXrzGATxGnSzehqdmaqCeI0KcjV7MxIKxenNXMEcZoUFL9FgjhNCooPvyBOk4Liwy+I06Sg+PAr4jQtydbtzGRTxGlakq3emeGmiNO0JFvDM/NNEadpd6Wt45kRp4jTtCRbxzNTDnEa4jTEafcIEafVC3Ea4jTEaZmFOA1xWqdXhTitsX+H5yNO212I07arh5/TOjC/ADjggAMOOOCAAw444IADzuBxDkw7AA000EADDTTQQAMNNNBAMxyaR6M7AAcccMABBxxwwAEHHHDAKd8PcdpmIU7bitNWwxCnrcYDEKfdQO5LnDY+qizeNCVnYsqZmnJmppy5KWdhylmaclamnMbX7qUgV6OTq9LJ1enkKnVytTq5ap1cvU6uYidXsytXsyvbXe1qduVqdtWp2e0FaY2ocj+aEBO+Q+V2NCEmPPflbjQhJjzz5WY0ISY874IXTckx9TgeY4IUTckxVTmeYYIRTckxtTkeYIIOTbkHTX2Op5fgQlNyTH2OR1e5CK0RI3jQlJzw7REsaEpOeNwFB5qSEx53wYCm5ITHXfGfSUGuRscTTJGfSUGuUsdDTDGfSUGuXsdzTNGeSTejq9nxKFOcZ1KQq9nxNEN4hvAM4dk9QoRn9UJ4hvAM4VlmITxDeNbpVSE8a+zf4fkIz3YXwrPt6uHnqw7MCwAOOOCAAw444IADDjjggDN4nAPTBUADDTTQQAMNNNBAAw000AyH5tFoCsABBxxwwAEHHHDAAQcccMr3Q3i2WQjP7oRnQ/GdpSH4zhK+M3xnD3/NHt8ZvjN8Z/jO2gThO8N3hu8M3xm+M3xn+M7wnXUaXPjO8J21CsJ39nAQvrOHg/CdPRyE7yyCwXeG7+zDhe/sDh/f2YcL31mbhe+s2/PxneE76/Sq8J019u/wfHxnuwvf2Xb18ONVB6YFAAcccMABBxxwwAEHHHDAGTzOgdkCoIEGGmiggQYaaKCBBhpohkPzaCwF4IADDjjggAMOOOCAAw445fvhO9ssfGdb39l4IMKzagjCs2qPwrPxzGQ8E4ImrqCpK2jmCpq7ghauoKUraOUK+uAL90qSrdvJVu5ka3ey1TvZ+p1sBU+2hidbxZOt45Wt45Xv/rZ1vLJ1vOrW8S4itN0sxYRWnhO/S4oLrTwnvgUUG1p5TnwDKD608pz49EtGNCHI1ejMeJOkaEKQq9SZ2SZ50YQgV68zg01Sowk3o6vZmakm2dGEIFezMyNNEaTt5kiGNCEofoskR5oQFB9+yZImBMWHX/KkCUHx4ddMaUqSrduZyabJ0pQkW70zw03zpSlJtoZn5pumTFPuSlvHMyNOs6YpSbaOZ6Yc4jTEaYjT7hEiTqsX4jTEaYjTMgtxGuK0Tq8KcVpj/w7PR5y2uxCnbVcPP6d1YH4BcMABBxxwwAEHHHDAAQecweMcmHYAGmiggQYaaKCBBhpooIFmODSPRncADjjggAMOOOCAAw444IBTvh/itM1CnLYVp6WBiNMmQxCnTfYmTpvffi20VHLjCpq4gqauoJkraO4KWriClq6glSuo8f17LcnW7WQrd7K1O9nqnWz9TraCJ1vDk63iydbxytbxynd/2zpe2Tpedet4e3FaM6tcnKbkxO9SuThNyYlvgXJxmpIT3wDl4jQlJz79gjhNCnI1OjPeBHGaFOQqdWa2CeI0KcjV68xgE8Rp0s3oanZmqgniNCnI1ezMSCsXpzVzBHGaFBS/RYI4TQqKD78gTpOC4sMviNOkoPjwK+I0LcnW7cxkU8RpWpKt3pnhpojTtCRbwzPzTRGnaXelreOZEaeI07QkW8czUw5xGuI0xGn3CBGn1QtxGuI0xGmZhTgNcVqnV4U4rbF/h+cjTttdiNO2q4ef0zowvwA44IADDjjggAMOOOCAA87gcQ5MOwANNNBAAw000EADDTTQQDMcmkejOwAHHHDAAQcccMABBxxwwCnfD3HaZiFO24rTqoGI06ZDEKdN9yZOGx9VFm+akjMx5UxNOTNTztyUszDlLE05K1NO42v3UpCr0clV6eTqdHKVOrlanVy1Tq5eJ1exk6vZlavZle2udjW7cjW76tTs9oK0RlS5H02ICd+hcjuaEBOe+3I3mhATnvlyM5oQE553wYum5Jh6HI8xQYqm5JiqHM8wwYim5JjaHA8wQYem3IOmPsfTS3ChKTmmPsejq1yE1ogRPGhKTvj2CBY0JSc87oIDTckJj7tgQFNywuOu+M+kIFej4wmmyM+kIFep4yGmmM+kIFev4zmmaM+km9HV7HiUKc4zKcjV7HiaITxDeIbw7B4hwrN6ITxDeIbwLLMQniE86/SqEJ419u/wfIRnuwvh2Xb18PNVB+YFAAcccMABBxxwwAEHHHDAGTzOgekCoIEGGmiggQYaaKCBBhpohkPzaDQF4IADDjjggAMOOOCAAw445fshPNsshGdb4dlkIMKz2RCEZ7M9Cs/GM5PxTAiauIKmrqCZK2juClq4gpauoJUr6IMv3CtJtm4nW7mTrd3JVu9k63eyFTzZGp5sFU+2jle2jle++9vW8crW8apbx7uI0HazFBNaeU78LikutPKc+BZQbGjlOfENoPjQynPi0y8Z0YQgV6Mz402SoglBrlJnZpvkRROCXL3ODDZJjSbcjK5mZ6aaZEcTglzNzow0RZC2myMZ0oSg+C2SHGlCUHz4JUuaEBQffsmTJgTFh18zpSlJtm5nJpsmS1OSbPXODDfNl6Yk2RqemW+aMk25K20dz4w4zZqmJNk6nplyiNMQpyFOu0eIOK1eiNMQpyFOyyzEaYjTOr0qxGmN/Ts8H3Ha7kKctl09/JzWgfkFwAEHHHDAAQcccMABBxxwBo9zYNoBaKCBBhpooIEGGmiggQaa4dA8Gt0BOOCAAw444IADDjjggANO+X6I0zYLcdpWnDYdiDhtPgRx2nxv4rT57ddCSyU3rqCJK2jqCpq5guauoIUraOkKWrmCGt+/15Js3U62cidbu5Ot3snW72QreLI1PNkqnmwdr2wdr3z3t63jla3jVbeOtxenNbPKxWlKTvwulYvTlJz4FigXpyk58Q1QLk5TcuLTL4jTpCBXozPjTRCnSUGuUmdmmyBOk4Jcvc4MNkGcJt2MrmZnppogTpOCXM3OjLRycVozRxCnSUHxWySI06Sg+PAL4jQpKD78gjhNCooPvyJO05Js3c5MNkWcpiXZ6p0Zboo4TUuyNTwz3xRxmnZX2jqeGXGKOE1LsnU8M+UQpyFOQ5x2jxBxWr0QpyFOQ5yWWYjTEKd1elWI0xr7d3g+4rTdhThtu3r4Oa0D8wuAAw444IADDjjggAMOOOAMHufAtAPQQAMNNNBAAw000EADDTTDoXk0ugNwwAEHHHDAAQcccMABB5zy/RCnbRbitK04bTYQcdpiCOK0xd7EaeOjyuJNU3ImppypKWdmypmbchamnKUpZ2XKaXztXgpyNTq5Kp1cnU6uUidXq5Or1snV6+QqdnI1u3I1u7Ld1a5mV65mV52a3V6Q1ogq96MJMeE7VG5HE2LCc1/uRhNiwjNfbkYTYsLzLnjRlBxTj+MxJkjRlBxTleMZJhjRlBxTm+MBJujQlHvQ1Od4egkuNCXH1Od4dJWL0BoxggdNyQnfHsGCpuSEx11woCk54XEXDGhKTnjcFf+ZFORqdDzBFPmZFOQqdTzEFPOZFOTqdTzHFO2ZdDO6mh2PMsV5JgW5mh1PM4RnCM8Qnt0jRHhWL4RnCM8QnmUWwjOEZ51eFcKzxv4dno/wbHchPNuuHn6+6sC8AOCAAw444IADDjjggAMOOIPHOTBdADTQQAMNNNBAAw000EADzXBoHo2mABxwwAEHHHDAAQcccMABp3w/hGebhfBsKzybD0R4thyC8Gy5R+HZeGYynglBE1fQ1BU0cwXNXUELV9DSFbRyBX3whXslydbtZCt3srU72eqdbP1OtoInW8OTreLJ1vHK1vHKd3/bOl7ZOl5163gXEdpulmJCK8+J3yXFhVaeE98Cig2tPCe+ARQfWnlOfPolI5oQ5Gp0ZrxJUjQhyFXqzGyTvGhCkKvXmcEmqdGEm9HV7MxUk+xoQpCr2ZmRpgjSdnMkQ5oQFL9FkiNNCIoPv2RJE4Liwy950oSg+PBrpjQlydbtzGTTZGlKkq3emeGm+dKUJFvDM/NNU6Ypd6Wt45kRp1nTlCRbxzNTDnEa4jTEafcIEafVC3Ea4jTEaZmFOA1xWqdXhTitsX+H5yNO212I07arh5/TOjC/ADjggAMOOOCAAw444IADzuBxDkw7AA000EADDTTQQAMNNNBAMxyaR6M7AAcccMABBxxwwAEHHHDAKd8PcdpmIU7bitMWAxGnrYYgTlvtTZw2v/1aaKnkxhU0cQVNXUEzV9DcFbRwBS1dQStXUOP791qSrdvJVu5ka3ey1TvZ+p1sBU+2hidbxZOt45Wt45Xv/rZ1vLJ1vOrW8fbitGZWuThNyYnfpXJxmpIT3wLl4jQlJ74BysVpSk58+gVxmhTkanRmvAniNCnIVerMbBPEaVKQq9eZwSaI06Sb0dXszFQTxGlSkKvZmZFWLk5r5gjiNCkofosEcZoUFB9+QZwmBcWHXxCnSUHx4VfEaVqSrduZyaaI07QkW70zw00Rp2lJtoZn5psiTtPuSlvHMyNOEadpSbaOZ6Yc4jTEaYjT7hEiTqsX4jTEaYjTMgtxGuK0Tq8KcVpj/w7PR5y2uxCnbVcPP6d1YH4BcMABBxxwwAEHHHDAAQecweMcmHYAGmiggQYaaKCBBhpooIFmODSPRncADjjggAMOOOCAAw444IBTvh/itM1CnLYVpy0HIU6rxuPDF6fVkPsSp42PKos3TcmZmHKmppyZKWduylmYcpamnJUpp/G1eynI1ejkqnRydTq5Sp1crU6uWidXr5Or2MnV7MrV7Mp2V7uaXbmaXXVqdntBWiOq3I8mxITvULkdTYgJz325G02ICc98uRlNiAnPu+BFU3JMPY7HmCBFU3JMVY5nmGBEU3JMbY4HmKBDU+5BU5/j6SW40JQcU5/j0VUuQmvECB40JSd8ewQLmpITHnfBgabkhMddMKApOeFxV/xnUpCr0fEEU+RnUpCr1PEQU8xnUpCr1/EcU7Rn0s3oanY8yhTnmRTkanY8zRCeITxDeHaPEOFZvRCeITxDeJZZCM8QnnV6VQjPGvt3eD7Cs92F8Gy7evj5qgPzAoADDjjggAMOOOCAAw444Awe58B0AdBAAw000EADDTTQQAMNNMOheTSaAnDAAQcccMABBxxwwAEHnPL9EJ5tFsKzrfBsNRDhWRqC8CztTXiWpuOj8c5KU4v/zBg76Sd22k/srJ/YeT+xi35il/3ErvqJbXzd35nb0zlLPR201NNJSz0dtdTTWUs9HbbU02lLPR231NN5q3o6b1Vfc62n81b1dN4q5by1F8vlkss9c77Utu9uuYXOl9r2Jit31PlS295i5QY7X2rbG0zw2xlj+zldrT8uCDI8Y2w/B6z1ZwXBnGeM7eeMtf6gIGj2jFOhn1PW+lOC4OQzxvZzylp/RCgX+OVSBZ+fMbbtWyvY/oyxbS8wwQVojG17gQmmQGNs2wtM8Qg6c3s6Z60/KSjSQWduT0et9YcFxVDozO3ptLX+vKDoDJ1zoqfz1vojg+I+dOb2dN5af2pAlIgoEVHiPUJEifVClIgoEVFiZiFKRJTY6VUhSmzs3+H5iBJ3F6LE7erh5zIPzCcCDjjggAMOOOCAAw444IAzeJwD04xAAw000EADDTTQQAMNNNAMh+bR6E3AAQcccMABBxxwwAEHHHDK9/sbiBL/vP7pzfry+Prt5Xr09MuP8CYeljdxffnz6cv16D+O6+b98eLizaj+A6t/znk6/nIgCsVqCArFam8KxdnsaLLaWZOZRaFojJ30EzvtJ3bWT+y8n9hFP7HLfmJX/cQ2TAfO3J7OWerpoKWeTlrq6ailns5a6umwpZ5OW+rpuKWezlvV03mr+pprPZ23qqfzVinnrb1CMZdcrlD0pbZ9d8sVir7UtjdZuULRl9r2FitXKPpS295ggkLRGNvP6Wr9cUFQKBpj+zlgrT8rCApFY2w/Z6z1BwVBoWicCv2cstafEgSFojG2n1PW+iNCuUIxlyooFI2xbd9aQaFojG17gQkKRWNs2wtMUCgaY9teYIpC0Znb0zlr/UlBUSg6c3s6aq0/LCgKRWduT6et9ecFRaHonBM9nbfWHxkUhaIzt6fz1vpTAwpFFIooFO8RolCsFwpFFIooFDMLhSIKxU6vCoViY/8Oz0ehuLtQKG5XDz+xeWCmEXDAAQcccMABBxxwwAEHnMHjHJiABBpooIEGGmiggQYaaKCBZjg0j0Z8Ag444IADDjjggAMOOOCAU74fCsXfX49Xofj2zZuzd6PPTi9v1YkDcSZOhuBMnOzNmXj7z6VyJlPOxJQzNeXMTDlzU87ClLM05axMOQ2ngBTkanRyVTq5Op1cpU6uVidXrZOr18lV7ORqduVqdmW7q13NrlzNrjo1u73LrxFVLu8TYsJ3qFzPJ8SE575cwCfEhGe+XLEnxITnXZDoKTmmHsdjTPDiKTmmKsczTFDdKTmmNscDTLDXKfegqc/x9BKEdEqOqc/x6Cp3zDViBKmckhO+PYI2TskJj7sghlNywuMuqN+UnPC4K3I3KcjV6HiCKb42KchV6niIKQo2KcjV63iOKVY16WZ0NTseZYooTQpyNTueZveC/u3y9OLy9PrdKI2ej55+8/b8o9pCNX/+P4/Pn4/T89t//nz98vkkRWNu3Ph/9D77bDpdrQxbVP1vMel/i2n/W8z632Le/xaL/rdY9r/Fqv8tGpO9rz32cL4z/2LWt0f8b7Z8e8T/0su3R/xven177OGQpz2c8rSHY575t8q++Rf/C2ffHvG/i/btsYdzXu1hkldlo7y63eP4Otpj3O6vcSeTqlrODVvEH6tsW8R/GLYt4j8L2xbxxyrbFvGNa9sivnBtW8T3rW2L+GOVbYvMxyrfHvHHKt8e8XXr2yP+WOXbI/5Y5dsj/ljl22MPhzzzscq3xx6OeeZjlW/+xR+rfHvsY47v4ZxnfjDAt0fZOZ/Ue3x5eRrsUa3a/duqlBaLycSwRfyxyrZF/LHKtkX8scq2RfyxyrZFfOPatogvXNsW8X1r2yK+bm1bZH4g0LdHfN369oivW98e8XXr2yO+bn17xB+rfHvEP7Lo2yP+aUbfHvEPOvr22MM5z3ys8u2xh3Oe+Vjl22MP5zzzsSq3x7Te48+v30Z7LNt9rKr/F5dm/2TYIv5YZdsi/lhl2yL+WGXbIv5YZdsi/lhl2yL+WGXbIv5YZdsivm5tW2Q+Vvn2iK9b3x7xdevbI75ufXvE161vj/hjlW+P+GOVb4/4Y5Vvj/hjlW+PPZzzzMcq3x57OOeZj1W+PfZwzjMfq3J7zOo9/mN9Eu2xaPex6vPPX7xYLAxbxB+rbFvEH6tsW8Qfq2xbxB+rbFvEH6tsW8Qfq2xbxB+rbFvE161ti8zHKt8e8XXr2yO+bn17xNetb4/4uvXtEX+s8u0Rf6zy7RF/rPLtEX+s8u2xh3Oe+Vjl22MP5zzzscq3xx7OeeZjVW6P+e1Ht7fraI95u49VL17M55Yt4o9Vti3ij1W2LeKPVbYt4o9Vti3ij1W2LeKPVbYt4o9Vti3i69a2ReZjlW+P+Lr17RFft7494uvWt0d83fr2iD9W+faIP1b59og/Vvn2iD9W+fbYwznPfKzy7bGHc575WOXbYw/nPPOxKrfHot7jTxfRj8VXs3Yfq5bLqprNDFvEH6tsW8Qfq2xbxB+rbFvEH6tsW8Qfq2xbxB+rbFvEH6tsW+S8U6YtsrI11x7xdevbIyeycu2Rc1y59sjpr1x75Jxvrj1yOjjXHjlTnGuPnETOtcceznlWPefaYw/nPCusc+2xh3Oe1dy93+MvbQyvGw3z6NPR+fqXO4PsrTj26dXPr57dGmAfVMXeuZyv1tf/dPH2/OTq6Wz8bJTS7NloUv9TNWunm/31BmProT45eXF8vX51cfnus19Pr96bkLevv4Uw+ibgq8uT9eXXb2sxcevfWHO8a3L8aX189fZy/R6jditv3veejdw8zMM8zMM8zMM8zMM8zMM8zMM8zMM8zMM8zMM8zMM8zMM8zMM8zMM8zMM8zMM8zMM8zMM8zMM8zMM8zMM8zMM8zMM8zMM8zMM8zMM8zMM8zMM8zMM8/P/Vw++OLn5eX16enqz/dFx/sTYdjcXvq9Zfjb1qfjX2m/Xl6fpq8/XaJ8/uvkD85uzi+ujs9Hz94Fdkr37ve7oPf7P26uj2f3r+zcXZ8fXpxfkN1JOr6/Wb59+vf7i4XD9p983nP65frc9Pmi/o/a89nY+fjSb1N5fH9ReZ6/94crb+4boGeyD6Lvbou1fr6y/Or+v352aLH96ev7wlffrR6D8fiLgjXG9/97cPfpe7Xqc/jJ5evz69Orq6/VNpt1G9dn7T0c3798Xxy9dP/x9w17Q7/Pqr4zfsm9zv3lxcndaBn9/8cptXc7fqmN+hurz4pRvSHdbp+cm6Pg/P07OOv/tu/Vj6G384XZ/VfXu6eU/fn5NXlxdv36xPRn/3d6P/uvn1X4++e318tfn+e33APtp99N3vPnrzhhwdv3r1Zb3H0dn6/NX169E/jqrR/xg9+ezs7Mnok+Yzrs5OX66fPk8ffTv+y0cPnrd7r+TicvT0x5uXMv6H0Y8322yqutm3/rW/v7lxuv8B1auu8Sbv2x//cvTX9bvRp59++v7NK0u8Td38sf/Y9aXere8v18d/LfnNv3X8PV2fX79fm1f3aV3rugybptyKHI6+O766On11vj55USsirr69fSf/UvZW3v1Bv3l79fpp6Z/FzR/pJ+//PMtP0tnZJ21e5VH9zNJdrq4vL/66brfP++eW7nTx5vjl6fW7dlttnlz8qm63uNuqNOXuImleKyXHo/PlU6+749y8eEbPR6lrWpfj1p71t2e3U7XV83976DNFvT7+ePRv//7n0f/56t+/Hn3z1dd//tf/9c+jP371z//6YvQvX3z9RbuAL29u7fWvx/VHtNH1xejq4vJ6dP72p5sevBzdKk2uRsdXL28+vJyev2qRePfe1zk7k/n42ej79pfL5fr67eX56M3x5dX6y7OL4+unx/WV/9HNH+XOr31/+2ut3syHP6LtbLt5CQ8F/9av6WX7+fP2uN8e9qd/OFn/cPz27Hr05vLi5g5b/+HZ6A//bbl88eKLL/7Qs3gGHHDAAQcccMABBxxwwAHn/0+c0dXbn27+X+DRybr+xdHJ8bua6HJ9Ag000EADDTTQQAMNNNBAA02e5pfbH836gOb7s7drcMABBxxwwAEHHHDAAQcccEpwtv+7gan+3w385m30vxs4Sbd/w/bZZ9PpagUppJBCCimkkEIKKaSQQgoppJAOg7S6JT2+jkjHt6STSVUt55BCCimkkEIKKaSQQgoppJBCCukwSCc16ZeXpwFptbolTWmxmEwghRRSSCGFFFJIIYUUUkghhRTSYZBOa9I/v34bkS5vSVc3a/ZPkEIKKaSQQgoppJBCCimkkEIK6TBIZzXpf6xPItLFLennn794sVhACimkkEIKKaSQQgoppJBCCimkwyCd3/6bibfriHR+S/rixXwOKaSQQgoppJBCCimkkEIKKaSQDoV0UZP+6SIyC1azW9LlsqpmM0ghhRRSSCGFFFJIIYUUUkghhXRvpHcoJ5fHvzx9MOzXo+vT67P1N6+P36yPrte/Xj/9w79cvL28ehjj3f3f+fnpT+vzq9OL87P11W3CAxEffzz67ORkdDy6TRr9cnr9enR18dN6dDJ54Hde/fzq6PjNm/X5ydMn9d5PPnrgN9yto+Pr68unT3598mw0H3f8Te9uflPV/jddXb87W7/He358/vL1xeXN739ytv6hA+0m44eL8+vnv6xPX72+rjO+vzg7aZ/x/s/mf3/2v9+/wV+vX6+Pr0dfvXw5+ubl6z98lPtD+sePr15enr65/u/hc/7x45PTn3//4fD3xGE3WaPTk0+fvKwb/OLmRR+fnq8vv6vG0yej27fi0ycnp1dvzo7ffXJ6fnbz2PPvzy5e/vUfnsSAN6nvX8Po+t2bm99fvxsf/3j88/H7X83+znr9fHxZt2306ejk9Kc3Z+uj8/Uv3/z86umT//Y7kM9G0/H49j8ePD517snx9fFN8Lf/+eTs+Pv12ZNPnpysfzh+e3Y9enN58cPp2frJs/ePfPfrk0/S0fjZk5+Pz96un3wyXx2tdtZy9ezJy/rOuUm4uUZevPjiiye/PWuVWvWSOuklddpL6qyX1HkvqYteUpe9pK56SU3jfmL7OV2pn+OV+jlfqZ8Dlvo5YamfI5b6OWOpn0OW+jllVT+nrOpphvVzyqp+TlklnLLR1duffmr8z3gXfEK4XJ90CG353nYLbfnOdgtt+b52C215d3ULbXlzdQtteW91C215a3ULbXlndQtt+8GgY2ovZ6rtx4KOqb2cqrYfCjqm9nKu2n4k6Jjay8lq+4GgY2ovZ6vtx4GOqf3Mq17OVtvPAh1TS8/WL6fn1+rHgO/rJ7RPbfm2dkxt+bZ2TG35tnZMbXlldUxteWV1TG15ZXVMbXlldUxteWV1TG37eaBrbD+nq+0ngq6x/Zyvtp8Jusb2c8LafiroGtvPGWv7uaBrbD+nrO0ng66xPc2wfk5Z2w8HXWM7nbK/tPkLh83fDY4+HZ2vf7n7C43bv8d4evXzq2e3fyHx4N9c3P0F49X6+p8u3p6fXD2djZ+NUpo9G03qf6pm7f7249cbjO3fm56cvDi+Xr+6uHz32a+nV+//gm77VrT4W8ybgK8uT9aXX7+t/76s9W+sOd41Of60Pr56e7l+j1H/ld/mj0D9e9nbv0hqbvXN+vJ0fbXBvdlp8wfy5uzi+qj+260Ht7z6vdf9MOnV0W3v3lycHV+fXpzfQD25ul6/ef79+oeLy/WTdk364/rV+vyk+YLe/9rT+U0LJnUT6r8MS/V/bP7a88G/Eb6LPfru1fr6i/Pr+v252eKHt+cvb0mffjT6zxZ/71kTrre/+9sHz0a9Tn8YPb1+fXp10+v697XbqF47v+no5v374vjl66f/D7hr2h3+5u8GN7nfvbm4Oq0DP7/55Tav5m7VMb9DdXnxSzekO6zT85N1fXCfp2cdf/fd+rH0N/5wuj6r+/Z0856+PyevLi/evlmfjP7u70b/dfPrvx599/r4anOf1Afso91H3/3uozdvyNHxq1df1nscna3PX12/Hv3jqBr9j9GTz87Onow+aT7j6uz05frp8/TRt+O/fPTgebv3Si4uR09/vHkp438Y/Xizzaaqm33rX/v7T0ep+x9Qveoab/K+/fEvR39d31xvn376/s0rS7xN3fyx/9j1pd6t7y/Xx38t+c2/dfw9XZ9fv1+bV/dpXeu6DJum3A7Go+/e/0zP+uT2p3quvr19J/9S9lbe/UG/eXv1+mnpn8XNH+kn7/88y0/S2dknbV7lUf3M0l2uri8v/rput8/755budPHm+OXp9bt2W22eXPyqbre426o05e4iaV4rJcej8+VTr7vj3Lx4Rs9HqWtal+PWnvW3Z7dTtdXzf3voM0W9Pv549G///ufR//nq378effPV13/+1//1z6M/fvXP//pi9C9ffP1Fu4Avb27t9a/H9Ue00fXF6Ori5oP0+dufbnrwcnT7EfFqdHz18ubDy+n5qxaJd+99nbMzmY+fjb5vf7lcrq/fXp6P3hxfXq2/PLs4vn56XF/5H938Ue782ve3v9bqzXz4I9rOtpuX8FDwb3+Dn7384C9gNz9gWf+F6t/kR0HBAQcccMABBxxwwAEHHHAGj3P/B1xqosv1CTTQQAMNNNBAAw000EADDTR5mns/EljT1D/iBw444IADDjjggAMOOOCAA87f0Hj45/VPb9aXx9dvL9ejp19+hPPwoJyH/3FcN+5f1rf/9dlP35+uz69H9R9ZbT5cn7y9ef+fjxbjLwciQZwNQYI425sE8farp6USJlPOxJQzNeXMTDlzU87ClLM05axMOQ27gBTkanRyVTq5Op1cpU6uVidXrZOr18lV7ORqduVqdmW7q13NrlzNrjo1u720rxFVrukTYsJ3qFzFJ8SE575ctyfEhGe+XKknxITnXdDmKTmmHsdjTJDhKTmmKsczTFDcKTmmNscDTBDXKfegqc/x9BJ0dEqOqc/x6CqXzDViBK2ckhO+PYI6TskJj7ugh1NywuMuKOCUnPC4K5o3KcjV6HiCKfI2KchV6niIKUo2KcjV63iOKaI16WZ0NTseZYo+TQpyNTueZkjRBiFF42Ee5mEe5mEe5mEe5mEe5mEe5mEe5mEe5uFDevjd0cXP68vL05P1n47rf1GVjsZI8XdeCVL87UKK32khxUeK32Ehxf9wIcX/cCHF77iQ4iPF/92FFB8ccMABBxxwwAEHHHDAAQecISgloYEGGmiggQYaaKCBBhpohkPzaFSW4IADDjjggAMOOOCAAw445fv9DaT4n5/+tD6/Or04P1tfXaHEPywl/sXlX0df/PDD6cvT9fnLd1sR/n4V+Jtnf/DI7v9998/v/3ubvvmH7X99f3Hyrv7v19c/nf33//J/AbeGNJM="
               },
               {
                  "name" : "annual_peak_electric_demand",
                  "units" : "kW",
                  "value" : 71.469830000000002
               },
               {
                  "name" : "first_year_capital_cost",
                  "units" : "$",
                  "value" : 0
               },
               {
                  "name" : "annual_utility_cost",
                  "units" : "$",
                  "value" : 56536.800000000003
               },
               {
                  "name" : "total_lifecycle_cost",
                  "units" : "$",
                  "value" : 984042.53000000003
               }
            ],
            "step_warnings" : []
         }
      }
   ],
   "updated_at" : "20170710T185811Z",
   "weather_file" : "USA_CO_Denver.Intl.AP.725650_TMY3.epw"
}
