{
   "completed_at" : "20170710T190137Z",
   "completed_status" : "Success",
   "created_at" : "2017-07-10 18:48:14 +0000",
   "current_step" : 5,
   "description" : "",
   "eplusout_err" : "Program Version,EnergyPlus, Version 8.7.0-78a111df4a, YMD=2017.07.10 18:55,IDD_Version 8.7.0\n   ************* IDF Context for following error/warning message:\n   ************* Note -- lines truncated at 300 characters, if necessary...\n   *************      5 Building,\n   ************* indicated Name=NECB 2011-SecondarySchool-NECB HDD Method-CAN_PQ_La.Grande.Riviere.718270_CWEC.epw created: 2017-07-10 18:48:22 +0000\n   ************* Only last 1 lines before error line shown.....\n   *************      6   NECB 2011-SecondarySchool-NECB HDD Method-CAN_PQ_La.Grande.Riviere.718270_CWEC.epw created: 2017-07-10 18:48:22 +0000, !- Name\n   ** Warning ** IP: IDF line~6 Alpha Argument length exceeds maximum, will be truncated=  NECB 2011-SecondarySchool-NECB HDD Method-CAN_PQ_La.Grande.Riviere.718270_CWEC.epw created: 2017-07-10 18:48:22 +000\n   **   ~~~   ** Will be processed as Alpha=NECB 2011-SECONDARYSCHOOL-NECB HDD METHOD-CAN_PQ_LA.GRANDE.RIVIERE.718270_CWEC.EPW CREATED: 2017-07-10 18:48:22 +0000\n   ************* IDF Context for following error/warning message:\n   ************* Note -- lines truncated at 300 characters, if necessary...\n   *************    602 Schedule:Week:Daily,\n   ************* indicated Name=Schedule:Week:Daily {4fa8c4db-3413-44be-8044-c595d949f444}\n   ************* Only last 10 lines before error line shown.....\n   *************    603   Schedule:Week:Daily {4fa8c4db-3413-44be-8044-c595d949f444}, !- Name\n   *************    604   Sp-Auditorium_ZN_1_FLR_1 Sys-3 Flr-2 Sch-C HPlcmt-north ZN NECB System 3 PSZ Occ Sch Sunday, !- Sunday Schedule:Day Name\n   *************    605   Sp-Auditorium_ZN_1_FLR_1 Sys-3 Flr-2 Sch-C HPlcmt-north ZN NECB System 3 PSZ Occ Sch Monday, !- Monday Schedule:Day Name\n   *************    606   Sp-Auditorium_ZN_1_FLR_1 Sys-3 Flr-2 Sch-C HPlcmt-north ZN NECB System 3 PSZ Occ Sch Tuesday, !- Tuesday Schedule:Day Name\n   *************    607   Sp-Auditorium_ZN_1_FLR_1 Sys-3 Flr-2 Sch-C HPlcmt-north ZN NECB System 3 PSZ Occ Sch Wednesday, !- Wednesday Schedule:Day Name\n   *************    608   Sp-Auditorium_ZN_1_FLR_1 Sys-3 Flr-2 Sch-C HPlcmt-north ZN NECB System 3 PSZ Occ Sch Thursday, !- Thursday Schedule:Day Name\n   *************    609   Sp-Auditorium_ZN_1_FLR_1 Sys-3 Flr-2 Sch-C HPlcmt-north ZN NECB System 3 PSZ Occ Sch Friday, !- Friday Schedule:Day Name\n   *************    610   Sp-Auditorium_ZN_1_FLR_1 Sys-3 Flr-2 Sch-C HPlcmt-north ZN NECB System 3 PSZ Occ Sch Saturday, !- Saturday Schedule:Day Name\n   *************    611   Sp-Auditorium_ZN_1_FLR_1 Sys-3 Flr-2 Sch-C HPlcmt-north ZN NECB System 3 PSZ Occ Sch Default, !- Holiday Schedule:Day Name\n   *************    612   Sp-Auditorium_ZN_1_FLR_1 Sys-3 Flr-2 Sch-C HPlcmt-north ZN NECB System 3 PSZ Occ Sch Summer Design Day, !- SummerDesignDay Schedule:Day Name\n   ** Warning ** IP: IDF line~612 Alpha Argument length exceeds maximum, will be truncated=  Sp-Auditorium_ZN_1_FLR_1 Sys-3 Flr-2 Sch-C HPlcmt-north ZN NECB System 3 PSZ Occ Sch Summer Design Da\n   **   ~~~   ** Will be processed as Alpha=SP-AUDITORIUM_ZN_1_FLR_1 SYS-3 FLR-2 SCH-C HPLCMT-NORTH ZN NECB SYSTEM 3 PSZ OCC SCH SUMMER DESIGN DAY\n   ************* IDF Context for following error/warning message:\n   ************* Note -- lines truncated at 300 characters, if necessary...\n   *************    602 Schedule:Week:Daily,\n   ************* indicated Name=Schedule:Week:Daily {4fa8c4db-3413-44be-8044-c595d949f444}\n   ************* Only last 10 lines before error line shown.....\n   *************    604   Sp-Auditorium_ZN_1_FLR_1 Sys-3 Flr-2 Sch-C HPlcmt-north ZN NECB System 3 PSZ Occ Sch Sunday, !- Sunday Schedule:Day Name\n   *************    605   Sp-Auditorium_ZN_1_FLR_1 Sys-3 Flr-2 Sch-C HPlcmt-north ZN NECB System 3 PSZ Occ Sch Monday, !- Monday Schedule:Day Name\n   *************    606   Sp-Auditorium_ZN_1_FLR_1 Sys-3 Flr-2 Sch-C HPlcmt-north ZN NECB System 3 PSZ Occ Sch Tuesday, !- Tuesday Schedule:Day Name\n   *************    607   Sp-Auditorium_ZN_1_FLR_1 Sys-3 Flr-2 Sch-C HPlcmt-north ZN NECB System 3 PSZ Occ Sch Wednesday, !- Wednesday Schedule:Day Name\n   *************    608   Sp-Auditorium_ZN_1_FLR_1 Sys-3 Flr-2 Sch-C HPlcmt-north ZN NECB System 3 PSZ Occ Sch Thursday, !- Thursday Schedule:Day Name\n   *************    609   Sp-Auditorium_ZN_1_FLR_1 Sys-3 Flr-2 Sch-C HPlcmt-north ZN NECB System 3 PSZ Occ Sch Friday, !- Friday Schedule:Day Name\n   *************    610   Sp-Auditorium_ZN_1_FLR_1 Sys-3 Flr-2 Sch-C HPlcmt-north ZN NECB System 3 PSZ Occ Sch Saturday, !- Saturday Schedule:Day Name\n   *************    611   Sp-Auditorium_ZN_1_FLR_1 Sys-3 Flr-2 Sch-C HPlcmt-north ZN NECB System 3 PSZ Occ Sch Default, !- Holiday Schedule:Day Name\n   *************    612   Sp-Auditorium_ZN_1_FLR_1 Sys-3 Flr-2 Sch-C HPlcmt-north ZN NECB System 3 PSZ Occ Sch Summer Design Day, !- SummerDesignDay Schedule:Day Name\n   *************    613   Sp-Auditorium_ZN_1_FLR_1 Sys-3 Flr-2 Sch-C HPlcmt-north ZN NECB System 3 PSZ Occ Sch Winter Design Day, !- WinterDesignDay Schedule:Day Name\n   ** Warning ** IP: IDF line~613 Alpha Argument length exceeds maximum, will be truncated=  Sp-Auditorium_ZN_1_FLR_1 Sys-3 Flr-2 Sch-C HPlcmt-north ZN NECB System 3 PSZ Occ Sch Winter Design Da\n   **   ~~~   ** Will be processed as Alpha=SP-AUDITORIUM_ZN_1_FLR_1 SYS-3 FLR-2 SCH-C HPLCMT-NORTH ZN NECB SYSTEM 3 PSZ OCC SCH WINTER DESIGN DAY\n   ************* IDF Context for following error/warning message:\n   ************* Note -- lines truncated at 300 characters, if necessary...\n   *************    633 Schedule:Day:Interval,\n   ************* indicated Name=Sp-Auditorium_ZN_1_FLR_1 Sys-3 Flr-2 Sch-C HPlcmt-north ZN NECB System 3 PSZ Occ Sch Summer Design Day\n   ************* Only last 1 lines before error line shown.....\n   *************    634   Sp-Auditorium_ZN_1_FLR_1 Sys-3 Flr-2 Sch-C HPlcmt-north ZN NECB System 3 PSZ Occ Sch Summer Design Day, !- Name\n   ** Warning ** IP: IDF line~634 Alpha Argument length exceeds maximum, will be truncated=  Sp-Auditorium_ZN_1_FLR_1 Sys-3 Flr-2 Sch-C HPlcmt-north ZN NECB System 3 PSZ Occ Sch Summer Design Da\n   **   ~~~   ** Will be processed as Alpha=SP-AUDITORIUM_ZN_1_FLR_1 SYS-3 FLR-2 SCH-C HPLCMT-NORTH ZN NECB SYSTEM 3 PSZ OCC SCH SUMMER DESIGN DAY\n   ************* IDF Context for following error/warning message:\n   ************* Note -- lines truncated at 300 characters, if necessary...\n   *************    640 Schedule:Day:Interval,\n   ************* indicated Name=Sp-Auditorium_ZN_1_FLR_1 Sys-3 Flr-2 Sch-C HPlcmt-north ZN NECB System 3 PSZ Occ Sch Winter Design Day\n   ************* Only last 1 lines before error line shown.....\n   *************    641   Sp-Auditorium_ZN_1_FLR_1 Sys-3 Flr-2 Sch-C HPlcmt-north ZN NECB System 3 PSZ Occ Sch Winter Design Day, !- Name\n   ** Warning ** IP: IDF line~641 Alpha Argument length exceeds maximum, will be truncated=  Sp-Auditorium_ZN_1_FLR_1 Sys-3 Flr-2 Sch-C HPlcmt-north ZN NECB System 3 PSZ Occ Sch Winter Design Da\n   **   ~~~   ** Will be processed as Alpha=SP-AUDITORIUM_ZN_1_FLR_1 SYS-3 FLR-2 SCH-C HPLCMT-NORTH ZN NECB SYSTEM 3 PSZ OCC SCH WINTER DESIGN DAY\n   ************* IDF Context for following error/warning message:\n   ************* Note -- lines truncated at 300 characters, if necessary...\n   *************   3245 Schedule:Day:Interval,\n   ************* indicated Name=Sp-Corner_Class_1_Pod_1_ZN_1_FLR_1 Sys-3 Flr-2 Sch-D HPlcmt-south ZN NECB System 3 PSZ Occ Sch Sunday\n   ************* Only last 1 lines before error line shown.....\n   *************   3246   Sp-Corner_Class_1_Pod_1_ZN_1_FLR_1 Sys-3 Flr-2 Sch-D HPlcmt-south ZN NECB System 3 PSZ Occ Sch Sunday, !- Name\n   ** Warning ** IP: IDF line~3246 Alpha Argument length exceeds maximum, will be truncated=  Sp-Corner_Class_1_Pod_1_ZN_1_FLR_1 Sys-3 Flr-2 Sch-D HPlcmt-south ZN NECB System 3 PSZ Occ Sch Sunda\n   **   ~~~   ** Will be processed as Alpha=SP-CORNER_CLASS_1_POD_1_ZN_1_FLR_1 SYS-3 FLR-2 SCH-D HPLCMT-SOUTH ZN NECB SYSTEM 3 PSZ OCC SCH SUNDAY\n   ************* IDF Context for following error/warning message:\n   ************* Note -- lines truncated at 300 characters, if necessary...\n   *************   3252 Schedule:Day:Interval,\n   ************* indicated Name=Sp-Corner_Class_1_Pod_1_ZN_1_FLR_1 Sys-3 Flr-2 Sch-D HPlcmt-south ZN NECB System 3 PSZ Occ Sch Monday\n   ************* Only last 1 lines before error line shown.....\n   *************   3253   Sp-Corner_Class_1_Pod_1_ZN_1_FLR_1 Sys-3 Flr-2 Sch-D HPlcmt-south ZN NECB System 3 PSZ Occ Sch Monday, !- Name\n   ** Warning ** IP: IDF line~3253 Alpha Argument length exceeds maximum, will be truncated=  Sp-Corner_Class_1_Pod_1_ZN_1_FLR_1 Sys-3 Flr-2 Sch-D HPlcmt-south ZN NECB System 3 PSZ Occ Sch Monda\n   **   ~~~   ** Will be processed as Alpha=SP-CORNER_CLASS_1_POD_1_ZN_1_FLR_1 SYS-3 FLR-2 SCH-D HPLCMT-SOUTH ZN NECB SYSTEM 3 PSZ OCC SCH MONDAY\n   ************* IDF Context for following error/warning message:\n   ************* Note -- lines truncated at 300 characters, if necessary...\n   *************   3267 Schedule:Day:Interval,\n   ************* indicated Name=Sp-Corner_Class_1_Pod_1_ZN_1_FLR_1 Sys-3 Flr-2 Sch-D HPlcmt-south ZN NECB System 3 PSZ Occ Sch Tuesday\n   ************* Only last 1 lines before error line shown.....\n   *************   3268   Sp-Corner_Class_1_Pod_1_ZN_1_FLR_1 Sys-3 Flr-2 Sch-D HPlcmt-south ZN NECB System 3 PSZ Occ Sch Tuesday, !- Name\n   ** Warning ** IP: IDF line~3268 Alpha Argument length exceeds maximum, will be truncated=  Sp-Corner_Class_1_Pod_1_ZN_1_FLR_1 Sys-3 Flr-2 Sch-D HPlcmt-south ZN NECB System 3 PSZ Occ Sch Tuesda\n   **   ~~~   ** Will be processed as Alpha=SP-CORNER_CLASS_1_POD_1_ZN_1_FLR_1 SYS-3 FLR-2 SCH-D HPLCMT-SOUTH ZN NECB SYSTEM 3 PSZ OCC SCH TUESDAY\n   ************* IDF Context for following error/warning message:\n   ************* Note -- lines truncated at 300 characters, if necessary...\n   *************   3282 Schedule:Day:Interval,\n   ************* indicated Name=Sp-Corner_Class_1_Pod_1_ZN_1_FLR_1 Sys-3 Flr-2 Sch-D HPlcmt-south ZN NECB System 3 PSZ Occ Sch Wednesday\n   ************* Only last 1 lines before error line shown.....\n   *************   3283   Sp-Corner_Class_1_Pod_1_ZN_1_FLR_1 Sys-3 Flr-2 Sch-D HPlcmt-south ZN NECB System 3 PSZ Occ Sch Wednesday, !- Name\n   ** Warning ** IP: IDF line~3283 Alpha Argument length exceeds maximum, will be truncated=  Sp-Corner_Class_1_Pod_1_ZN_1_FLR_1 Sys-3 Flr-2 Sch-D HPlcmt-south ZN NECB System 3 PSZ Occ Sch Wednesda\n   **   ~~~   ** Will be processed as Alpha=SP-CORNER_CLASS_1_POD_1_ZN_1_FLR_1 SYS-3 FLR-2 SCH-D HPLCMT-SOUTH ZN NECB SYSTEM 3 PSZ OCC SCH WEDNESDAY\n   ************* IDF Context for following error/warning message:\n   ************* Note -- lines truncated at 300 characters, if necessary...\n   *************   3297 Schedule:Day:Interval,\n   ************* indicated Name=Sp-Corner_Class_1_Pod_1_ZN_1_FLR_1 Sys-3 Flr-2 Sch-D HPlcmt-south ZN NECB System 3 PSZ Occ Sch Thursday\n   ************* Only last 1 lines before error line shown.....\n   *************   3298   Sp-Corner_Class_1_Pod_1_ZN_1_FLR_1 Sys-3 Flr-2 Sch-D HPlcmt-south ZN NECB System 3 PSZ Occ Sch Thursday, !- Name\n   ** Warning ** IP: IDF line~3298 Alpha Argument length exceeds maximum, will be truncated=  Sp-Corner_Class_1_Pod_1_ZN_1_FLR_1 Sys-3 Flr-2 Sch-D HPlcmt-south ZN NECB System 3 PSZ Occ Sch Thursda\n   **   ~~~   ** Will be processed as Alpha=SP-CORNER_CLASS_1_POD_1_ZN_1_FLR_1 SYS-3 FLR-2 SCH-D HPLCMT-SOUTH ZN NECB SYSTEM 3 PSZ OCC SCH THURSDAY\n   ************* IDF Context for following error/warning message:\n   ************* Note -- lines truncated at 300 characters, if necessary...\n   *************   3312 Schedule:Day:Interval,\n   ************* indicated Name=Sp-Corner_Class_1_Pod_1_ZN_1_FLR_1 Sys-3 Flr-2 Sch-D HPlcmt-south ZN NECB System 3 PSZ Occ Sch Friday\n   ************* Only last 1 lines before error line shown.....\n   *************   3313   Sp-Corner_Class_1_Pod_1_ZN_1_FLR_1 Sys-3 Flr-2 Sch-D HPlcmt-south ZN NECB System 3 PSZ Occ Sch Friday, !- Name\n   ** Warning ** IP: IDF line~3313 Alpha Argument length exceeds maximum, will be truncated=  Sp-Corner_Class_1_Pod_1_ZN_1_FLR_1 Sys-3 Flr-2 Sch-D HPlcmt-south ZN NECB System 3 PSZ Occ Sch Frida\n   **   ~~~   ** Will be processed as Alpha=SP-CORNER_CLASS_1_POD_1_ZN_1_FLR_1 SYS-3 FLR-2 SCH-D HPLCMT-SOUTH ZN NECB SYSTEM 3 PSZ OCC SCH FRIDAY\n   ************* IDF Context for following error/warning message:\n   ************* Note -- lines truncated at 300 characters, if necessary...\n   *************   3327 Schedule:Day:Interval,\n   ************* indicated Name=Sp-Corner_Class_1_Pod_1_ZN_1_FLR_1 Sys-3 Flr-2 Sch-D HPlcmt-south ZN NECB System 3 PSZ Occ Sch Saturday\n   ************* Only last 1 lines before error line shown.....\n   *************   3328   Sp-Corner_Class_1_Pod_1_ZN_1_FLR_1 Sys-3 Flr-2 Sch-D HPlcmt-south ZN NECB System 3 PSZ Occ Sch Saturday, !- Name\n   ** Warning ** IP: IDF line~3328 Alpha Argument length exceeds maximum, will be truncated=  Sp-Corner_Class_1_Pod_1_ZN_1_FLR_1 Sys-3 Flr-2 Sch-D HPlcmt-south ZN NECB System 3 PSZ Occ Sch Saturda\n   **   ~~~   ** Will be processed as Alpha=SP-CORNER_CLASS_1_POD_1_ZN_1_FLR_1 SYS-3 FLR-2 SCH-D HPLCMT-SOUTH ZN NECB SYSTEM 3 PSZ OCC SCH SATURDAY\n   ************* IDF Context for following error/warning message:\n   ************* Note -- lines truncated at 300 characters, if necessary...\n   *************   3334 Schedule:Week:Daily,\n   ************* indicated Name=Schedule:Week:Daily {6625e91c-572f-4144-9ae1-8b86940e8c5c}\n   ************* Only last 2 lines before error line shown.....\n   *************   3335   Schedule:Week:Daily {6625e91c-572f-4144-9ae1-8b86940e8c5c}, !- Name\n   *************   3336   Sp-Corner_Class_1_Pod_1_ZN_1_FLR_1 Sys-3 Flr-2 Sch-D HPlcmt-south ZN NECB System 3 PSZ Occ Sch Sunday, !- Sunday Schedule:Day Name\n   ** Warning ** IP: IDF line~3336 Alpha Argument length exceeds maximum, will be truncated=  Sp-Corner_Class_1_Pod_1_ZN_1_FLR_1 Sys-3 Flr-2 Sch-D HPlcmt-south ZN NECB System 3 PSZ Occ Sch Sunda\n   **   ~~~   ** Will be processed as Alpha=SP-CORNER_CLASS_1_POD_1_ZN_1_FLR_1 SYS-3 FLR-2 SCH-D HPLCMT-SOUTH ZN NECB SYSTEM 3 PSZ OCC SCH SUNDAY\n   ************* IDF Context for following error/warning message:\n   ************* Note -- lines truncated at 300 characters, if necessary...\n   *************   3334 Schedule:Week:Daily,\n   ************* indicated Name=Schedule:Week:Daily {6625e91c-572f-4144-9ae1-8b86940e8c5c}\n   ************* Only last 3 lines before error line shown.....\n   *************   3335   Schedule:Week:Daily {6625e91c-572f-4144-9ae1-8b86940e8c5c}, !- Name\n   *************   3336   Sp-Corner_Class_1_Pod_1_ZN_1_FLR_1 Sys-3 Flr-2 Sch-D HPlcmt-south ZN NECB System 3 PSZ Occ Sch Sunday, !- Sunday Schedule:Day Name\n   *************   3337   Sp-Corner_Class_1_Pod_1_ZN_1_FLR_1 Sys-3 Flr-2 Sch-D HPlcmt-south ZN NECB System 3 PSZ Occ Sch Monday, !- Monday Schedule:Day Name\n   ** Warning ** IP: IDF line~3337 Alpha Argument length exceeds maximum, will be truncated=  Sp-Corner_Class_1_Pod_1_ZN_1_FLR_1 Sys-3 Flr-2 Sch-D HPlcmt-south ZN NECB System 3 PSZ Occ Sch Monda\n   **   ~~~   ** Will be processed as Alpha=SP-CORNER_CLASS_1_POD_1_ZN_1_FLR_1 SYS-3 FLR-2 SCH-D HPLCMT-SOUTH ZN NECB SYSTEM 3 PSZ OCC SCH MONDAY\n   ************* IDF Context for following error/warning message:\n   ************* Note -- lines truncated at 300 characters, if necessary...\n   *************   3334 Schedule:Week:Daily,\n   ************* indicated Name=Schedule:Week:Daily {6625e91c-572f-4144-9ae1-8b86940e8c5c}\n   ************* Only last 4 lines before error line shown.....\n   *************   3335   Schedule:Week:Daily {6625e91c-572f-4144-9ae1-8b86940e8c5c}, !- Name\n   *************   3336   Sp-Corner_Class_1_Pod_1_ZN_1_FLR_1 Sys-3 Flr-2 Sch-D HPlcmt-south ZN NECB System 3 PSZ Occ Sch Sunday, !- Sunday Schedule:Day Name\n   *************   3337   Sp-Corner_Class_1_Pod_1_ZN_1_FLR_1 Sys-3 Flr-2 Sch-D HPlcmt-south ZN NECB System 3 PSZ Occ Sch Monday, !- Monday Schedule:Day Name\n   *************   3338   Sp-Corner_Class_1_Pod_1_ZN_1_FLR_1 Sys-3 Flr-2 Sch-D HPlcmt-south ZN NECB System 3 PSZ Occ Sch Tuesday, !- Tuesday Schedule:Day Name\n   ** Warning ** IP: IDF line~3338 Alpha Argument length exceeds maximum, will be truncated=  Sp-Corner_Class_1_Pod_1_ZN_1_FLR_1 Sys-3 Flr-2 Sch-D HPlcmt-south ZN NECB System 3 PSZ Occ Sch Tuesda\n   **   ~~~   ** Will be processed as Alpha=SP-CORNER_CLASS_1_POD_1_ZN_1_FLR_1 SYS-3 FLR-2 SCH-D HPLCMT-SOUTH ZN NECB SYSTEM 3 PSZ OCC SCH TUESDAY\n   ************* IDF Context for following error/warning message:\n   ************* Note -- lines truncated at 300 characters, if necessary...\n   *************   3334 Schedule:Week:Daily,\n   ************* indicated Name=Schedule:Week:Daily {6625e91c-572f-4144-9ae1-8b86940e8c5c}\n   ************* Only last 5 lines before error line shown.....\n   *************   3335   Schedule:Week:Daily {6625e91c-572f-4144-9ae1-8b86940e8c5c}, !- Name\n   *************   3336   Sp-Corner_Class_1_Pod_1_ZN_1_FLR_1 Sys-3 Flr-2 Sch-D HPlcmt-south ZN NECB System 3 PSZ Occ Sch Sunday, !- Sunday Schedule:Day Name\n   *************   3337   Sp-Corner_Class_1_Pod_1_ZN_1_FLR_1 Sys-3 Flr-2 Sch-D HPlcmt-south ZN NECB System 3 PSZ Occ Sch Monday, !- Monday Schedule:Day Name\n   *************   3338   Sp-Corner_Class_1_Pod_1_ZN_1_FLR_1 Sys-3 Flr-2 Sch-D HPlcmt-south ZN NECB System 3 PSZ Occ Sch Tuesday, !- Tuesday Schedule:Day Name\n   *************   3339   Sp-Corner_Class_1_Pod_1_ZN_1_FLR_1 Sys-3 Flr-2 Sch-D HPlcmt-south ZN NECB System 3 PSZ Occ Sch Wednesday, !- Wednesday Schedule:Day Name\n   ** Warning ** IP: IDF line~3339 Alpha Argument length exceeds maximum, will be truncated=  Sp-Corner_Class_1_Pod_1_ZN_1_FLR_1 Sys-3 Flr-2 Sch-D HPlcmt-south ZN NECB System 3 PSZ Occ Sch Wednesda\n   **   ~~~   ** Will be processed as Alpha=SP-CORNER_CLASS_1_POD_1_ZN_1_FLR_1 SYS-3 FLR-2 SCH-D HPLCMT-SOUTH ZN NECB SYSTEM 3 PSZ OCC SCH WEDNESDAY\n   ************* IDF Context for following error/warning message:\n   ************* Note -- lines truncated at 300 characters, if necessary...\n   *************   3334 Schedule:Week:Daily,\n   ************* indicated Name=Schedule:Week:Daily {6625e91c-572f-4144-9ae1-8b86940e8c5c}\n   ************* Only last 6 lines before error line shown.....\n   *************   3335   Schedule:Week:Daily {6625e91c-572f-4144-9ae1-8b86940e8c5c}, !- Name\n   *************   3336   Sp-Corner_Class_1_Pod_1_ZN_1_FLR_1 Sys-3 Flr-2 Sch-D HPlcmt-south ZN NECB System 3 PSZ Occ Sch Sunday, !- Sunday Schedule:Day Name\n   *************   3337   Sp-Corner_Class_1_Pod_1_ZN_1_FLR_1 Sys-3 Flr-2 Sch-D HPlcmt-south ZN NECB System 3 PSZ Occ Sch Monday, !- Monday Schedule:Day Name\n   *************   3338   Sp-Corner_Class_1_Pod_1_ZN_1_FLR_1 Sys-3 Flr-2 Sch-D HPlcmt-south ZN NECB System 3 PSZ Occ Sch Tuesday, !- Tuesday Schedule:Day Name\n   *************   3339   Sp-Corner_Class_1_Pod_1_ZN_1_FLR_1 Sys-3 Flr-2 Sch-D HPlcmt-south ZN NECB System 3 PSZ Occ Sch Wednesday, !- Wednesday Schedule:Day Name\n   *************   3340   Sp-Corner_Class_1_Pod_1_ZN_1_FLR_1 Sys-3 Flr-2 Sch-D HPlcmt-south ZN NECB System 3 PSZ Occ Sch Thursday, !- Thursday Schedule:Day Name\n   ** Warning ** IP: IDF line~3340 Alpha Argument length exceeds maximum, will be truncated=  Sp-Corner_Class_1_Pod_1_ZN_1_FLR_1 Sys-3 Flr-2 Sch-D HPlcmt-south ZN NECB System 3 PSZ Occ Sch Thursda\n   **   ~~~   ** Will be processed as Alpha=SP-CORNER_CLASS_1_POD_1_ZN_1_FLR_1 SYS-3 FLR-2 SCH-D HPLCMT-SOUTH ZN NECB SYSTEM 3 PSZ OCC SCH THURSDAY\n   ************* IDF Context for following error/warning message:\n   ************* Note -- lines truncated at 300 characters, if necessary...\n   *************   3334 Schedule:Week:Daily,\n   ************* indicated Name=Schedule:Week:Daily {6625e91c-572f-4144-9ae1-8b86940e8c5c}\n   ************* Only last 7 lines before error line shown.....\n   *************   3335   Schedule:Week:Daily {6625e91c-572f-4144-9ae1-8b86940e8c5c}, !- Name\n   *************   3336   Sp-Corner_Class_1_Pod_1_ZN_1_FLR_1 Sys-3 Flr-2 Sch-D HPlcmt-south ZN NECB System 3 PSZ Occ Sch Sunday, !- Sunday Schedule:Day Name\n   *************   3337   Sp-Corner_Class_1_Pod_1_ZN_1_FLR_1 Sys-3 Flr-2 Sch-D HPlcmt-south ZN NECB System 3 PSZ Occ Sch Monday, !- Monday Schedule:Day Name\n   *************   3338   Sp-Corner_Class_1_Pod_1_ZN_1_FLR_1 Sys-3 Flr-2 Sch-D HPlcmt-south ZN NECB System 3 PSZ Occ Sch Tuesday, !- Tuesday Schedule:Day Name\n   *************   3339   Sp-Corner_Class_1_Pod_1_ZN_1_FLR_1 Sys-3 Flr-2 Sch-D HPlcmt-south ZN NECB System 3 PSZ Occ Sch Wednesday, !- Wednesday Schedule:Day Name\n   *************   3340   Sp-Corner_Class_1_Pod_1_ZN_1_FLR_1 Sys-3 Flr-2 Sch-D HPlcmt-south ZN NECB System 3 PSZ Occ Sch Thursday, !- Thursday Schedule:Day Name\n   *************   3341   Sp-Corner_Class_1_Pod_1_ZN_1_FLR_1 Sys-3 Flr-2 Sch-D HPlcmt-south ZN NECB System 3 PSZ Occ Sch Friday, !- Friday Schedule:Day Name\n   ** Warning ** IP: IDF line~3341 Alpha Argument length exceeds maximum, will be truncated=  Sp-Corner_Class_1_Pod_1_ZN_1_FLR_1 Sys-3 Flr-2 Sch-D HPlcmt-south ZN NECB System 3 PSZ Occ Sch Frida\n   **   ~~~   ** Will be processed as Alpha=SP-CORNER_CLASS_1_POD_1_ZN_1_FLR_1 SYS-3 FLR-2 SCH-D HPLCMT-SOUTH ZN NECB SYSTEM 3 PSZ OCC SCH FRIDAY\n   ************* IDF Context for following error/warning message:\n   ************* Note -- lines truncated at 300 characters, if necessary...\n   *************   3334 Schedule:Week:Daily,\n   ************* indicated Name=Schedule:Week:Daily {6625e91c-572f-4144-9ae1-8b86940e8c5c}\n   ************* Only last 8 lines before error line shown.....\n   *************   3335   Schedule:Week:Daily {6625e91c-572f-4144-9ae1-8b86940e8c5c}, !- Name\n   *************   3336   Sp-Corner_Class_1_Pod_1_ZN_1_FLR_1 Sys-3 Flr-2 Sch-D HPlcmt-south ZN NECB System 3 PSZ Occ Sch Sunday, !- Sunday Schedule:Day Name\n   *************   3337   Sp-Corner_Class_1_Pod_1_ZN_1_FLR_1 Sys-3 Flr-2 Sch-D HPlcmt-south ZN NECB System 3 PSZ Occ Sch Monday, !- Monday Schedule:Day Name\n   *************   3338   Sp-Corner_Class_1_Pod_1_ZN_1_FLR_1 Sys-3 Flr-2 Sch-D HPlcmt-south ZN NECB System 3 PSZ Occ Sch Tuesday, !- Tuesday Schedule:Day Name\n   *************   3339   Sp-Corner_Class_1_Pod_1_ZN_1_FLR_1 Sys-3 Flr-2 Sch-D HPlcmt-south ZN NECB System 3 PSZ Occ Sch Wednesday, !- Wednesday Schedule:Day Name\n   *************   3340   Sp-Corner_Class_1_Pod_1_ZN_1_FLR_1 Sys-3 Flr-2 Sch-D HPlcmt-south ZN NECB System 3 PSZ Occ Sch Thursday, !- Thursday Schedule:Day Name\n   *************   3341   Sp-Corner_Class_1_Pod_1_ZN_1_FLR_1 Sys-3 Flr-2 Sch-D HPlcmt-south ZN NECB System 3 PSZ Occ Sch Friday, !- Friday Schedule:Day Name\n   *************   3342   Sp-Corner_Class_1_Pod_1_ZN_1_FLR_1 Sys-3 Flr-2 Sch-D HPlcmt-south ZN NECB System 3 PSZ Occ Sch Saturday, !- Saturday Schedule:Day Name\n   ** Warning ** IP: IDF line~3342 Alpha Argument length exceeds maximum, will be truncated=  Sp-Corner_Class_1_Pod_1_ZN_1_FLR_1 Sys-3 Flr-2 Sch-D HPlcmt-south ZN NECB System 3 PSZ Occ Sch Saturda\n   **   ~~~   ** Will be processed as Alpha=SP-CORNER_CLASS_1_POD_1_ZN_1_FLR_1 SYS-3 FLR-2 SCH-D HPLCMT-SOUTH ZN NECB SYSTEM 3 PSZ OCC SCH SATURDAY\n   ************* IDF Context for following error/warning message:\n   ************* Note -- lines truncated at 300 characters, if necessary...\n   *************   3334 Schedule:Week:Daily,\n   ************* indicated Name=Schedule:Week:Daily {6625e91c-572f-4144-9ae1-8b86940e8c5c}\n   ************* Only last 9 lines before error line shown.....\n   *************   3335   Schedule:Week:Daily {6625e91c-572f-4144-9ae1-8b86940e8c5c}, !- Name\n   *************   3336   Sp-Corner_Class_1_Pod_1_ZN_1_FLR_1 Sys-3 Flr-2 Sch-D HPlcmt-south ZN NECB System 3 PSZ Occ Sch Sunday, !- Sunday Schedule:Day Name\n   *************   3337   Sp-Corner_Class_1_Pod_1_ZN_1_FLR_1 Sys-3 Flr-2 Sch-D HPlcmt-south ZN NECB System 3 PSZ Occ Sch Monday, !- Monday Schedule:Day Name\n   *************   3338   Sp-Corner_Class_1_Pod_1_ZN_1_FLR_1 Sys-3 Flr-2 Sch-D HPlcmt-south ZN NECB System 3 PSZ Occ Sch Tuesday, !- Tuesday Schedule:Day Name\n   *************   3339   Sp-Corner_Class_1_Pod_1_ZN_1_FLR_1 Sys-3 Flr-2 Sch-D HPlcmt-south ZN NECB System 3 PSZ Occ Sch Wednesday, !- Wednesday Schedule:Day Name\n   *************   3340   Sp-Corner_Class_1_Pod_1_ZN_1_FLR_1 Sys-3 Flr-2 Sch-D HPlcmt-south ZN NECB System 3 PSZ Occ Sch Thursday, !- Thursday Schedule:Day Name\n   *************   3341   Sp-Corner_Class_1_Pod_1_ZN_1_FLR_1 Sys-3 Flr-2 Sch-D HPlcmt-south ZN NECB System 3 PSZ Occ Sch Friday, !- Friday Schedule:Day Name\n   *************   3342   Sp-Corner_Class_1_Pod_1_ZN_1_FLR_1 Sys-3 Flr-2 Sch-D HPlcmt-south ZN NECB System 3 PSZ Occ Sch Saturday, !- Saturday Schedule:Day Name\n   *************   3343   Sp-Corner_Class_1_Pod_1_ZN_1_FLR_1 Sys-3 Flr-2 Sch-D HPlcmt-south ZN NECB System 3 PSZ Occ Sch Default, !- Holiday Schedule:Day Name\n   ** Warning ** IP: IDF line~3343 Alpha Argument length exceeds maximum, will be truncated=  Sp-Corner_Class_1_Pod_1_ZN_1_FLR_1 Sys-3 Flr-2 Sch-D HPlcmt-south ZN NECB System 3 PSZ Occ Sch Defaul\n   **   ~~~   ** Will be processed as Alpha=SP-CORNER_CLASS_1_POD_1_ZN_1_FLR_1 SYS-3 FLR-2 SCH-D HPLCMT-SOUTH ZN NECB SYSTEM 3 PSZ OCC SCH DEFAULT\n   ************* IDF Context for following error/warning message:\n   ************* Note -- lines truncated at 300 characters, if necessary...\n   *************   3334 Schedule:Week:Daily,\n   ************* indicated Name=Schedule:Week:Daily {6625e91c-572f-4144-9ae1-8b86940e8c5c}\n   ************* Only last 10 lines before error line shown.....\n   *************   3335   Schedule:Week:Daily {6625e91c-572f-4144-9ae1-8b86940e8c5c}, !- Name\n   *************   3336   Sp-Corner_Class_1_Pod_1_ZN_1_FLR_1 Sys-3 Flr-2 Sch-D HPlcmt-south ZN NECB System 3 PSZ Occ Sch Sunday, !- Sunday Schedule:Day Name\n   *************   3337   Sp-Corner_Class_1_Pod_1_ZN_1_FLR_1 Sys-3 Flr-2 Sch-D HPlcmt-south ZN NECB System 3 PSZ Occ Sch Monday, !- Monday Schedule:Day Name\n   *************   3338   Sp-Corner_Class_1_Pod_1_ZN_1_FLR_1 Sys-3 Flr-2 Sch-D HPlcmt-south ZN NECB System 3 PSZ Occ Sch Tuesday, !- Tuesday Schedule:Day Name\n   *************   3339   Sp-Corner_Class_1_Pod_1_ZN_1_FLR_1 Sys-3 Flr-2 Sch-D HPlcmt-south ZN NECB System 3 PSZ Occ Sch Wednesday, !- Wednesday Schedule:Day Name\n   *************   3340   Sp-Corner_Class_1_Pod_1_ZN_1_FLR_1 Sys-3 Flr-2 Sch-D HPlcmt-south ZN NECB System 3 PSZ Occ Sch Thursday, !- Thursday Schedule:Day Name\n   *************   3341   Sp-Corner_Class_1_Pod_1_ZN_1_FLR_1 Sys-3 Flr-2 Sch-D HPlcmt-south ZN NECB System 3 PSZ Occ Sch Friday, !- Friday Schedule:Day Name\n   *************   3342   Sp-Corner_Class_1_Pod_1_ZN_1_FLR_1 Sys-3 Flr-2 Sch-D HPlcmt-south ZN NECB System 3 PSZ Occ Sch Saturday, !- Saturday Schedule:Day Name\n   *************   3343   Sp-Corner_Class_1_Pod_1_ZN_1_FLR_1 Sys-3 Flr-2 Sch-D HPlcmt-south ZN NECB System 3 PSZ Occ Sch Default, !- Holiday Schedule:Day Name\n   *************   3344   Sp-Corner_Class_1_Pod_1_ZN_1_FLR_1 Sys-3 Flr-2 Sch-D HPlcmt-south ZN NECB System 3 PSZ Occ Sch Summer Design Day, !- SummerDesignDay Schedule:Day Name\n   ** Warning ** IP: IDF line~3344 Alpha Argument length exceeds maximum, will be truncated=  Sp-Corner_Class_1_Pod_1_ZN_1_FLR_1 Sys-3 Flr-2 Sch-D HPlcmt-south ZN NECB System 3 PSZ Occ Sch Summer Design Da\n   **   ~~~   ** Will be processed as Alpha=SP-CORNER_CLASS_1_POD_1_ZN_1_FLR_1 SYS-3 FLR-2 SCH-D HPLCMT-SOUTH ZN NECB SYSTEM 3 PSZ OCC SCH SUMMER DESIGN DAY\n   ************* IDF Context for following error/warning message:\n   ************* Note -- lines truncated at 300 characters, if necessary...\n   *************   3334 Schedule:Week:Daily,\n   ************* indicated Name=Schedule:Week:Daily {6625e91c-572f-4144-9ae1-8b86940e8c5c}\n   ************* Only last 10 lines before error line shown.....\n   *************   3336   Sp-Corner_Class_1_Pod_1_ZN_1_FLR_1 Sys-3 Flr-2 Sch-D HPlcmt-south ZN NECB System 3 PSZ Occ Sch Sunday, !- Sunday Schedule:Day Name\n   *************   3337   Sp-Corner_Class_1_Pod_1_ZN_1_FLR_1 Sys-3 Flr-2 Sch-D HPlcmt-south ZN NECB System 3 PSZ Occ Sch Monday, !- Monday Schedule:Day Name\n   *************   3338   Sp-Corner_Class_1_Pod_1_ZN_1_FLR_1 Sys-3 Flr-2 Sch-D HPlcmt-south ZN NECB System 3 PSZ Occ Sch Tuesday, !- Tuesday Schedule:Day Name\n   *************   3339   Sp-Corner_Class_1_Pod_1_ZN_1_FLR_1 Sys-3 Flr-2 Sch-D HPlcmt-south ZN NECB System 3 PSZ Occ Sch Wednesday, !- Wednesday Schedule:Day Name\n   *************   3340   Sp-Corner_Class_1_Pod_1_ZN_1_FLR_1 Sys-3 Flr-2 Sch-D HPlcmt-south ZN NECB System 3 PSZ Occ Sch Thursday, !- Thursday Schedule:Day Name\n   *************   3341   Sp-Corner_Class_1_Pod_1_ZN_1_FLR_1 Sys-3 Flr-2 Sch-D HPlcmt-south ZN NECB System 3 PSZ Occ Sch Friday, !- Friday Schedule:Day Name\n   *************   3342   Sp-Corner_Class_1_Pod_1_ZN_1_FLR_1 Sys-3 Flr-2 Sch-D HPlcmt-south ZN NECB System 3 PSZ Occ Sch Saturday, !- Saturday Schedule:Day Name\n   *************   3343   Sp-Corner_Class_1_Pod_1_ZN_1_FLR_1 Sys-3 Flr-2 Sch-D HPlcmt-south ZN NECB System 3 PSZ Occ Sch Default, !- Holiday Schedule:Day Name\n   *************   3344   Sp-Corner_Class_1_Pod_1_ZN_1_FLR_1 Sys-3 Flr-2 Sch-D HPlcmt-south ZN NECB System 3 PSZ Occ Sch Summer Design Day, !- SummerDesignDay Schedule:Day Name\n   *************   3345   Sp-Corner_Class_1_Pod_1_ZN_1_FLR_1 Sys-3 Flr-2 Sch-D HPlcmt-south ZN NECB System 3 PSZ Occ Sch Winter Design Day, !- WinterDesignDay Schedule:Day Name\n   ** Warning ** IP: IDF line~3345 Alpha Argument length exceeds maximum, will be truncated=  Sp-Corner_Class_1_Pod_1_ZN_1_FLR_1 Sys-3 Flr-2 Sch-D HPlcmt-south ZN NECB System 3 PSZ Occ Sch Winter Design Da\n   **   ~~~   ** Will be processed as Alpha=SP-CORNER_CLASS_1_POD_1_ZN_1_FLR_1 SYS-3 FLR-2 SCH-D HPLCMT-SOUTH ZN NECB SYSTEM 3 PSZ OCC SCH WINTER DESIGN DAY\n   ************* IDF Context for following error/warning message:\n   ************* Note -- lines truncated at 300 characters, if necessary...\n   *************   3334 Schedule:Week:Daily,\n   ************* indicated Name=Schedule:Week:Daily {6625e91c-572f-4144-9ae1-8b86940e8c5c}\n   ************* Only last 10 lines before error line shown.....\n   *************   3337   Sp-Corner_Class_1_Pod_1_ZN_1_FLR_1 Sys-3 Flr-2 Sch-D HPlcmt-south ZN NECB System 3 PSZ Occ Sch Monday, !- Monday Schedule:Day Name\n   *************   3338   Sp-Corner_Class_1_Pod_1_ZN_1_FLR_1 Sys-3 Flr-2 Sch-D HPlcmt-south ZN NECB System 3 PSZ Occ Sch Tuesday, !- Tuesday Schedule:Day Name\n   *************   3339   Sp-Corner_Class_1_Pod_1_ZN_1_FLR_1 Sys-3 Flr-2 Sch-D HPlcmt-south ZN NECB System 3 PSZ Occ Sch Wednesday, !- Wednesday Schedule:Day Name\n   *************   3340   Sp-Corner_Class_1_Pod_1_ZN_1_FLR_1 Sys-3 Flr-2 Sch-D HPlcmt-south ZN NECB System 3 PSZ Occ Sch Thursday, !- Thursday Schedule:Day Name\n   *************   3341   Sp-Corner_Class_1_Pod_1_ZN_1_FLR_1 Sys-3 Flr-2 Sch-D HPlcmt-south ZN NECB System 3 PSZ Occ Sch Friday, !- Friday Schedule:Day Name\n   *************   3342   Sp-Corner_Class_1_Pod_1_ZN_1_FLR_1 Sys-3 Flr-2 Sch-D HPlcmt-south ZN NECB System 3 PSZ Occ Sch Saturday, !- Saturday Schedule:Day Name\n   *************   3343   Sp-Corner_Class_1_Pod_1_ZN_1_FLR_1 Sys-3 Flr-2 Sch-D HPlcmt-south ZN NECB System 3 PSZ Occ Sch Default, !- Holiday Schedule:Day Name\n   *************   3344   Sp-Corner_Class_1_Pod_1_ZN_1_FLR_1 Sys-3 Flr-2 Sch-D HPlcmt-south ZN NECB System 3 PSZ Occ Sch Summer Design Day, !- SummerDesignDay Schedule:Day Name\n   *************   3345   Sp-Corner_Class_1_Pod_1_ZN_1_FLR_1 Sys-3 Flr-2 Sch-D HPlcmt-south ZN NECB System 3 PSZ Occ Sch Winter Design Day, !- WinterDesignDay Schedule:Day Name\n   *************   3346   Sp-Corner_Class_1_Pod_1_ZN_1_FLR_1 Sys-3 Flr-2 Sch-D HPlcmt-south ZN NECB System 3 PSZ Occ Sch Default, !- CustomDay1 Schedule:Day Name\n   ** Warning ** IP: IDF line~3346 Alpha Argument length exceeds maximum, will be truncated=  Sp-Corner_Class_1_Pod_1_ZN_1_FLR_1 Sys-3 Flr-2 Sch-D HPlcmt-south ZN NECB System 3 PSZ Occ Sch Defaul\n   **   ~~~   ** Will be processed as Alpha=SP-CORNER_CLASS_1_POD_1_ZN_1_FLR_1 SYS-3 FLR-2 SCH-D HPLCMT-SOUTH ZN NECB SYSTEM 3 PSZ OCC SCH DEFAULT\n   ************* IDF Context for following error/warning message:\n   ************* Note -- lines truncated at 300 characters, if necessary...\n   *************   3334 Schedule:Week:Daily,\n   ************* indicated Name=Schedule:Week:Daily {6625e91c-572f-4144-9ae1-8b86940e8c5c}\n   ************* Only last 10 lines before error line shown.....\n   *************   3338   Sp-Corner_Class_1_Pod_1_ZN_1_FLR_1 Sys-3 Flr-2 Sch-D HPlcmt-south ZN NECB System 3 PSZ Occ Sch Tuesday, !- Tuesday Schedule:Day Name\n   *************   3339   Sp-Corner_Class_1_Pod_1_ZN_1_FLR_1 Sys-3 Flr-2 Sch-D HPlcmt-south ZN NECB System 3 PSZ Occ Sch Wednesday, !- Wednesday Schedule:Day Name\n   *************   3340   Sp-Corner_Class_1_Pod_1_ZN_1_FLR_1 Sys-3 Flr-2 Sch-D HPlcmt-south ZN NECB System 3 PSZ Occ Sch Thursday, !- Thursday Schedule:Day Name\n   *************   3341   Sp-Corner_Class_1_Pod_1_ZN_1_FLR_1 Sys-3 Flr-2 Sch-D HPlcmt-south ZN NECB System 3 PSZ Occ Sch Friday, !- Friday Schedule:Day Name\n   *************   3342   Sp-Corner_Class_1_Pod_1_ZN_1_FLR_1 Sys-3 Flr-2 Sch-D HPlcmt-south ZN NECB System 3 PSZ Occ Sch Saturday, !- Saturday Schedule:Day Name\n   *************   3343   Sp-Corner_Class_1_Pod_1_ZN_1_FLR_1 Sys-3 Flr-2 Sch-D HPlcmt-south ZN NECB System 3 PSZ Occ Sch Default, !- Holiday Schedule:Day Name\n   *************   3344   Sp-Corner_Class_1_Pod_1_ZN_1_FLR_1 Sys-3 Flr-2 Sch-D HPlcmt-south ZN NECB System 3 PSZ Occ Sch Summer Design Day, !- SummerDesignDay Schedule:Day Name\n   *************   3345   Sp-Corner_Class_1_Pod_1_ZN_1_FLR_1 Sys-3 Flr-2 Sch-D HPlcmt-south ZN NECB System 3 PSZ Occ Sch Winter Design Day, !- WinterDesignDay Schedule:Day Name\n   *************   3346   Sp-Corner_Class_1_Pod_1_ZN_1_FLR_1 Sys-3 Flr-2 Sch-D HPlcmt-south ZN NECB System 3 PSZ Occ Sch Default, !- CustomDay1 Schedule:Day Name\n   *************   3347   Sp-Corner_Class_1_Pod_1_ZN_1_FLR_1 Sys-3 Flr-2 Sch-D HPlcmt-south ZN NECB System 3 PSZ Occ Sch Default; !- CustomDay2 Schedule:Day Name\n   ** Warning ** IP: IDF line~3347 Alpha Argument length exceeds maximum, will be truncated=  Sp-Corner_Class_1_Pod_1_ZN_1_FLR_1 Sys-3 Flr-2 Sch-D HPlcmt-south ZN NECB System 3 PSZ Occ Sch Defaul\n   **   ~~~   ** Will be processed as Alpha=SP-CORNER_CLASS_1_POD_1_ZN_1_FLR_1 SYS-3 FLR-2 SCH-D HPLCMT-SOUTH ZN NECB SYSTEM 3 PSZ OCC SCH DEFAULT\n   ************* IDF Context for following error/warning message:\n   ************* Note -- lines truncated at 300 characters, if necessary...\n   *************   3358 Schedule:Day:Interval,\n   ************* indicated Name=Sp-Corner_Class_1_Pod_1_ZN_1_FLR_1 Sys-3 Flr-2 Sch-D HPlcmt-south ZN NECB System 3 PSZ Occ Sch Default\n   ************* Only last 1 lines before error line shown.....\n   *************   3359   Sp-Corner_Class_1_Pod_1_ZN_1_FLR_1 Sys-3 Flr-2 Sch-D HPlcmt-south ZN NECB System 3 PSZ Occ Sch Default, !- Name\n   ** Warning ** IP: IDF line~3359 Alpha Argument length exceeds maximum, will be truncated=  Sp-Corner_Class_1_Pod_1_ZN_1_FLR_1 Sys-3 Flr-2 Sch-D HPlcmt-south ZN NECB System 3 PSZ Occ Sch Defaul\n   **   ~~~   ** Will be processed as Alpha=SP-CORNER_CLASS_1_POD_1_ZN_1_FLR_1 SYS-3 FLR-2 SCH-D HPLCMT-SOUTH ZN NECB SYSTEM 3 PSZ OCC SCH DEFAULT\n   ************* IDF Context for following error/warning message:\n   ************* Note -- lines truncated at 300 characters, if necessary...\n   *************   3365 Schedule:Day:Interval,\n   ************* indicated Name=Sp-Corner_Class_1_Pod_1_ZN_1_FLR_1 Sys-3 Flr-2 Sch-D HPlcmt-south ZN NECB System 3 PSZ Occ Sch Summer Design Day\n   ************* Only last 1 lines before error line shown.....\n   *************   3366   Sp-Corner_Class_1_Pod_1_ZN_1_FLR_1 Sys-3 Flr-2 Sch-D HPlcmt-south ZN NECB System 3 PSZ Occ Sch Summer Design Day, !- Name\n   ** Warning ** IP: IDF line~3366 Alpha Argument length exceeds maximum, will be truncated=  Sp-Corner_Class_1_Pod_1_ZN_1_FLR_1 Sys-3 Flr-2 Sch-D HPlcmt-south ZN NECB System 3 PSZ Occ Sch Summer Design Da\n   **   ~~~   ** Will be processed as Alpha=SP-CORNER_CLASS_1_POD_1_ZN_1_FLR_1 SYS-3 FLR-2 SCH-D HPLCMT-SOUTH ZN NECB SYSTEM 3 PSZ OCC SCH SUMMER DESIGN DAY\n   ************* IDF Context for following error/warning message:\n   ************* Note -- lines truncated at 300 characters, if necessary...\n   *************   3372 Schedule:Day:Interval,\n   ************* indicated Name=Sp-Corner_Class_1_Pod_1_ZN_1_FLR_1 Sys-3 Flr-2 Sch-D HPlcmt-south ZN NECB System 3 PSZ Occ Sch Winter Design Day\n   ************* Only last 1 lines before error line shown.....\n   *************   3373   Sp-Corner_Class_1_Pod_1_ZN_1_FLR_1 Sys-3 Flr-2 Sch-D HPlcmt-south ZN NECB System 3 PSZ Occ Sch Winter Design Day, !- Name\n   ** Warning ** IP: IDF line~3373 Alpha Argument length exceeds maximum, will be truncated=  Sp-Corner_Class_1_Pod_1_ZN_1_FLR_1 Sys-3 Flr-2 Sch-D HPlcmt-south ZN NECB System 3 PSZ Occ Sch Winter Design Da\n   **   ~~~   ** Will be processed as Alpha=SP-CORNER_CLASS_1_POD_1_ZN_1_FLR_1 SYS-3 FLR-2 SCH-D HPLCMT-SOUTH ZN NECB SYSTEM 3 PSZ OCC SCH WINTER DESIGN DAY\n   ************* IDF Context for following error/warning message:\n   ************* Note -- lines truncated at 300 characters, if necessary...\n   *************   3649 Schedule:Day:Interval,\n   ************* indicated Name=Sp-Corner_Class_1_Pod_1_ZN_1_FLR_2 Sys-3 Flr-1 Sch-D HPlcmt-south ZN NECB System 3 PSZ Occ Sch Sunday\n   ************* Only last 1 lines before error line shown.....\n   *************   3650   Sp-Corner_Class_1_Pod_1_ZN_1_FLR_2 Sys-3 Flr-1 Sch-D HPlcmt-south ZN NECB System 3 PSZ Occ Sch Sunday, !- Name\n   ** Warning ** IP: IDF line~3650 Alpha Argument length exceeds maximum, will be truncated=  Sp-Corner_Class_1_Pod_1_ZN_1_FLR_2 Sys-3 Flr-1 Sch-D HPlcmt-south ZN NECB System 3 PSZ Occ Sch Sunda\n   **   ~~~   ** Will be processed as Alpha=SP-CORNER_CLASS_1_POD_1_ZN_1_FLR_2 SYS-3 FLR-1 SCH-D HPLCMT-SOUTH ZN NECB SYSTEM 3 PSZ OCC SCH SUNDAY\n   ************* IDF Context for following error/warning message:\n   ************* Note -- lines truncated at 300 characters, if necessary...\n   *************   3656 Schedule:Day:Interval,\n   ************* indicated Name=Sp-Corner_Class_1_Pod_1_ZN_1_FLR_2 Sys-3 Flr-1 Sch-D HPlcmt-south ZN NECB System 3 PSZ Occ Sch Monday\n   ************* Only last 1 lines before error line shown.....\n   *************   3657   Sp-Corner_Class_1_Pod_1_ZN_1_FLR_2 Sys-3 Flr-1 Sch-D HPlcmt-south ZN NECB System 3 PSZ Occ Sch Monday, !- Name\n   ** Warning ** IP: IDF line~3657 Alpha Argument length exceeds maximum, will be truncated=  Sp-Corner_Class_1_Pod_1_ZN_1_FLR_2 Sys-3 Flr-1 Sch-D HPlcmt-south ZN NECB System 3 PSZ Occ Sch Monda\n   **   ~~~   ** Will be processed as Alpha=SP-CORNER_CLASS_1_POD_1_ZN_1_FLR_2 SYS-3 FLR-1 SCH-D HPLCMT-SOUTH ZN NECB SYSTEM 3 PSZ OCC SCH MONDAY\n   ************* IDF Context for following error/warning message:\n   ************* Note -- lines truncated at 300 characters, if necessary...\n   *************   3671 Schedule:Day:Interval,\n   ************* indicated Name=Sp-Corner_Class_1_Pod_1_ZN_1_FLR_2 Sys-3 Flr-1 Sch-D HPlcmt-south ZN NECB System 3 PSZ Occ Sch Tuesday\n   ************* Only last 1 lines before error line shown.....\n   *************   3672   Sp-Corner_Class_1_Pod_1_ZN_1_FLR_2 Sys-3 Flr-1 Sch-D HPlcmt-south ZN NECB System 3 PSZ Occ Sch Tuesday, !- Name\n   ** Warning ** IP: IDF line~3672 Alpha Argument length exceeds maximum, will be truncated=  Sp-Corner_Class_1_Pod_1_ZN_1_FLR_2 Sys-3 Flr-1 Sch-D HPlcmt-south ZN NECB System 3 PSZ Occ Sch Tuesda\n   **   ~~~   ** Will be processed as Alpha=SP-CORNER_CLASS_1_POD_1_ZN_1_FLR_2 SYS-3 FLR-1 SCH-D HPLCMT-SOUTH ZN NECB SYSTEM 3 PSZ OCC SCH TUESDAY\n   ************* IDF Context for following error/warning message:\n   ************* Note -- lines truncated at 300 characters, if necessary...\n   *************   3686 Schedule:Day:Interval,\n   ************* indicated Name=Sp-Corner_Class_1_Pod_1_ZN_1_FLR_2 Sys-3 Flr-1 Sch-D HPlcmt-south ZN NECB System 3 PSZ Occ Sch Wednesday\n   ************* Only last 1 lines before error line shown.....\n   *************   3687   Sp-Corner_Class_1_Pod_1_ZN_1_FLR_2 Sys-3 Flr-1 Sch-D HPlcmt-south ZN NECB System 3 PSZ Occ Sch Wednesday, !- Name\n   ** Warning ** IP: IDF line~3687 Alpha Argument length exceeds maximum, will be truncated=  Sp-Corner_Class_1_Pod_1_ZN_1_FLR_2 Sys-3 Flr-1 Sch-D HPlcmt-south ZN NECB System 3 PSZ Occ Sch Wednesda\n   **   ~~~   ** Will be processed as Alpha=SP-CORNER_CLASS_1_POD_1_ZN_1_FLR_2 SYS-3 FLR-1 SCH-D HPLCMT-SOUTH ZN NECB SYSTEM 3 PSZ OCC SCH WEDNESDAY\n   ************* IDF Context for following error/warning message:\n   ************* Note -- lines truncated at 300 characters, if necessary...\n   *************   3701 Schedule:Day:Interval,\n   ************* indicated Name=Sp-Corner_Class_1_Pod_1_ZN_1_FLR_2 Sys-3 Flr-1 Sch-D HPlcmt-south ZN NECB System 3 PSZ Occ Sch Thursday\n   ************* Only last 1 lines before error line shown.....\n   *************   3702   Sp-Corner_Class_1_Pod_1_ZN_1_FLR_2 Sys-3 Flr-1 Sch-D HPlcmt-south ZN NECB System 3 PSZ Occ Sch Thursday, !- Name\n   ** Warning ** IP: IDF line~3702 Alpha Argument length exceeds maximum, will be truncated=  Sp-Corner_Class_1_Pod_1_ZN_1_FLR_2 Sys-3 Flr-1 Sch-D HPlcmt-south ZN NECB System 3 PSZ Occ Sch Thursda\n   **   ~~~   ** Will be processed as Alpha=SP-CORNER_CLASS_1_POD_1_ZN_1_FLR_2 SYS-3 FLR-1 SCH-D HPLCMT-SOUTH ZN NECB SYSTEM 3 PSZ OCC SCH THURSDAY\n   ************* IDF Context for following error/warning message:\n   ************* Note -- lines truncated at 300 characters, if necessary...\n   *************   3716 Schedule:Day:Interval,\n   ************* indicated Name=Sp-Corner_Class_1_Pod_1_ZN_1_FLR_2 Sys-3 Flr-1 Sch-D HPlcmt-south ZN NECB System 3 PSZ Occ Sch Friday\n   ************* Only last 1 lines before error line shown.....\n   *************   3717   Sp-Corner_Class_1_Pod_1_ZN_1_FLR_2 Sys-3 Flr-1 Sch-D HPlcmt-south ZN NECB System 3 PSZ Occ Sch Friday, !- Name\n   ** Warning ** IP: IDF line~3717 Alpha Argument length exceeds maximum, will be truncated=  Sp-Corner_Class_1_Pod_1_ZN_1_FLR_2 Sys-3 Flr-1 Sch-D HPlcmt-south ZN NECB System 3 PSZ Occ Sch Frida\n   **   ~~~   ** Will be processed as Alpha=SP-CORNER_CLASS_1_POD_1_ZN_1_FLR_2 SYS-3 FLR-1 SCH-D HPLCMT-SOUTH ZN NECB SYSTEM 3 PSZ OCC SCH FRIDAY\n   ************* IDF Context for following error/warning message:\n   ************* Note -- lines truncated at 300 characters, if necessary...\n   *************   3731 Schedule:Day:Interval,\n   ************* indicated Name=Sp-Corner_Class_1_Pod_1_ZN_1_FLR_2 Sys-3 Flr-1 Sch-D HPlcmt-south ZN NECB System 3 PSZ Occ Sch Saturday\n   ************* Only last 1 lines before error line shown.....\n   *************   3732   Sp-Corner_Class_1_Pod_1_ZN_1_FLR_2 Sys-3 Flr-1 Sch-D HPlcmt-south ZN NECB System 3 PSZ Occ Sch Saturday, !- Name\n   ** Warning ** IP: IDF line~3732 Alpha Argument length exceeds maximum, will be truncated=  Sp-Corner_Class_1_Pod_1_ZN_1_FLR_2 Sys-3 Flr-1 Sch-D HPlcmt-south ZN NECB System 3 PSZ Occ Sch Saturda\n   **   ~~~   ** Will be processed as Alpha=SP-CORNER_CLASS_1_POD_1_ZN_1_FLR_2 SYS-3 FLR-1 SCH-D HPLCMT-SOUTH ZN NECB SYSTEM 3 PSZ OCC SCH SATURDAY\n   ************* IDF Context for following error/warning message:\n   ************* Note -- lines truncated at 300 characters, if necessary...\n   *************   3738 Schedule:Week:Daily,\n   ************* indicated Name=Schedule:Week:Daily {a8f4620d-f4b1-4941-b5ad-f88132eb9f5c}\n   ************* Only last 2 lines before error line shown.....\n   *************   3739   Schedule:Week:Daily {a8f4620d-f4b1-4941-b5ad-f88132eb9f5c}, !- Name\n   *************   3740   Sp-Corner_Class_1_Pod_1_ZN_1_FLR_2 Sys-3 Flr-1 Sch-D HPlcmt-south ZN NECB System 3 PSZ Occ Sch Sunday, !- Sunday Schedule:Day Name\n   ** Warning ** IP: IDF line~3740 Alpha Argument length exceeds maximum, will be truncated=  Sp-Corner_Class_1_Pod_1_ZN_1_FLR_2 Sys-3 Flr-1 Sch-D HPlcmt-south ZN NECB System 3 PSZ Occ Sch Sunda\n   **   ~~~   ** Will be processed as Alpha=SP-CORNER_CLASS_1_POD_1_ZN_1_FLR_2 SYS-3 FLR-1 SCH-D HPLCMT-SOUTH ZN NECB SYSTEM 3 PSZ OCC SCH SUNDAY\n   ************* IDF Context for following error/warning message:\n   ************* Note -- lines truncated at 300 characters, if necessary...\n   *************   3738 Schedule:Week:Daily,\n   ************* indicated Name=Schedule:Week:Daily {a8f4620d-f4b1-4941-b5ad-f88132eb9f5c}\n   ************* Only last 3 lines before error line shown.....\n   *************   3739   Schedule:Week:Daily {a8f4620d-f4b1-4941-b5ad-f88132eb9f5c}, !- Name\n   *************   3740   Sp-Corner_Class_1_Pod_1_ZN_1_FLR_2 Sys-3 Flr-1 Sch-D HPlcmt-south ZN NECB System 3 PSZ Occ Sch Sunday, !- Sunday Schedule:Day Name\n   *************   3741   Sp-Corner_Class_1_Pod_1_ZN_1_FLR_2 Sys-3 Flr-1 Sch-D HPlcmt-south ZN NECB System 3 PSZ Occ Sch Monday, !- Monday Schedule:Day Name\n   ** Warning ** IP: IDF line~3741 Alpha Argument length exceeds maximum, will be truncated=  Sp-Corner_Class_1_Pod_1_ZN_1_FLR_2 Sys-3 Flr-1 Sch-D HPlcmt-south ZN NECB System 3 PSZ Occ Sch Monda\n   **   ~~~   ** Will be processed as Alpha=SP-CORNER_CLASS_1_POD_1_ZN_1_FLR_2 SYS-3 FLR-1 SCH-D HPLCMT-SOUTH ZN NECB SYSTEM 3 PSZ OCC SCH MONDAY\n   ************* IDF Context for following error/warning message:\n   ************* Note -- lines truncated at 300 characters, if necessary...\n   *************   3738 Schedule:Week:Daily,\n   ************* indicated Name=Schedule:Week:Daily {a8f4620d-f4b1-4941-b5ad-f88132eb9f5c}\n   ************* Only last 4 lines before error line shown.....\n   *************   3739   Schedule:Week:Daily {a8f4620d-f4b1-4941-b5ad-f88132eb9f5c}, !- Name\n   *************   3740   Sp-Corner_Class_1_Pod_1_ZN_1_FLR_2 Sys-3 Flr-1 Sch-D HPlcmt-south ZN NECB System 3 PSZ Occ Sch Sunday, !- Sunday Schedule:Day Name\n   *************   3741   Sp-Corner_Class_1_Pod_1_ZN_1_FLR_2 Sys-3 Flr-1 Sch-D HPlcmt-south ZN NECB System 3 PSZ Occ Sch Monday, !- Monday Schedule:Day Name\n   *************   3742   Sp-Corner_Class_1_Pod_1_ZN_1_FLR_2 Sys-3 Flr-1 Sch-D HPlcmt-south ZN NECB System 3 PSZ Occ Sch Tuesday, !- Tuesday Schedule:Day Name\n   ** Warning ** IP: IDF line~3742 Alpha Argument length exceeds maximum, will be truncated=  Sp-Corner_Class_1_Pod_1_ZN_1_FLR_2 Sys-3 Flr-1 Sch-D HPlcmt-south ZN NECB System 3 PSZ Occ Sch Tuesda\n   **   ~~~   ** Will be processed as Alpha=SP-CORNER_CLASS_1_POD_1_ZN_1_FLR_2 SYS-3 FLR-1 SCH-D HPLCMT-SOUTH ZN NECB SYSTEM 3 PSZ OCC SCH TUESDAY\n   ************* IDF Context for following error/warning message:\n   ************* Note -- lines truncated at 300 characters, if necessary...\n   *************   3738 Schedule:Week:Daily,\n   ************* indicated Name=Schedule:Week:Daily {a8f4620d-f4b1-4941-b5ad-f88132eb9f5c}\n   ************* Only last 5 lines before error line shown.....\n   *************   3739   Schedule:Week:Daily {a8f4620d-f4b1-4941-b5ad-f88132eb9f5c}, !- Name\n   *************   3740   Sp-Corner_Class_1_Pod_1_ZN_1_FLR_2 Sys-3 Flr-1 Sch-D HPlcmt-south ZN NECB System 3 PSZ Occ Sch Sunday, !- Sunday Schedule:Day Name\n   *************   3741   Sp-Corner_Class_1_Pod_1_ZN_1_FLR_2 Sys-3 Flr-1 Sch-D HPlcmt-south ZN NECB System 3 PSZ Occ Sch Monday, !- Monday Schedule:Day Name\n   *************   3742   Sp-Corner_Class_1_Pod_1_ZN_1_FLR_2 Sys-3 Flr-1 Sch-D HPlcmt-south ZN NECB System 3 PSZ Occ Sch Tuesday, !- Tuesday Schedule:Day Name\n   *************   3743   Sp-Corner_Class_1_Pod_1_ZN_1_FLR_2 Sys-3 Flr-1 Sch-D HPlcmt-south ZN NECB System 3 PSZ Occ Sch Wednesday, !- Wednesday Schedule:Day Name\n   ** Warning ** IP: IDF line~3743 Alpha Argument length exceeds maximum, will be truncated=  Sp-Corner_Class_1_Pod_1_ZN_1_FLR_2 Sys-3 Flr-1 Sch-D HPlcmt-south ZN NECB System 3 PSZ Occ Sch Wednesda\n   **   ~~~   ** Will be processed as Alpha=SP-CORNER_CLASS_1_POD_1_ZN_1_FLR_2 SYS-3 FLR-1 SCH-D HPLCMT-SOUTH ZN NECB SYSTEM 3 PSZ OCC SCH WEDNESDAY\n   ************* IDF Context for following error/warning message:\n   ************* Note -- lines truncated at 300 characters, if necessary...\n   *************   3738 Schedule:Week:Daily,\n   ************* indicated Name=Schedule:Week:Daily {a8f4620d-f4b1-4941-b5ad-f88132eb9f5c}\n   ************* Only last 6 lines before error line shown.....\n   *************   3739   Schedule:Week:Daily {a8f4620d-f4b1-4941-b5ad-f88132eb9f5c}, !- Name\n   *************   3740   Sp-Corner_Class_1_Pod_1_ZN_1_FLR_2 Sys-3 Flr-1 Sch-D HPlcmt-south ZN NECB System 3 PSZ Occ Sch Sunday, !- Sunday Schedule:Day Name\n   *************   3741   Sp-Corner_Class_1_Pod_1_ZN_1_FLR_2 Sys-3 Flr-1 Sch-D HPlcmt-south ZN NECB System 3 PSZ Occ Sch Monday, !- Monday Schedule:Day Name\n   *************   3742   Sp-Corner_Class_1_Pod_1_ZN_1_FLR_2 Sys-3 Flr-1 Sch-D HPlcmt-south ZN NECB System 3 PSZ Occ Sch Tuesday, !- Tuesday Schedule:Day Name\n   *************   3743   Sp-Corner_Class_1_Pod_1_ZN_1_FLR_2 Sys-3 Flr-1 Sch-D HPlcmt-south ZN NECB System 3 PSZ Occ Sch Wednesday, !- Wednesday Schedule:Day Name\n   *************   3744   Sp-Corner_Class_1_Pod_1_ZN_1_FLR_2 Sys-3 Flr-1 Sch-D HPlcmt-south ZN NECB System 3 PSZ Occ Sch Thursday, !- Thursday Schedule:Day Name\n   ** Warning ** IP: IDF line~3744 Alpha Argument length exceeds maximum, will be truncated=  Sp-Corner_Class_1_Pod_1_ZN_1_FLR_2 Sys-3 Flr-1 Sch-D HPlcmt-south ZN NECB System 3 PSZ Occ Sch Thursda\n   **   ~~~   ** Will be processed as Alpha=SP-CORNER_CLASS_1_POD_1_ZN_1_FLR_2 SYS-3 FLR-1 SCH-D HPLCMT-SOUTH ZN NECB SYSTEM 3 PSZ OCC SCH THURSDAY\n   ************* IDF Context for following error/warning message:\n   ************* Note -- lines truncated at 300 characters, if necessary...\n   *************   3738 Schedule:Week:Daily,\n   ************* indicated Name=Schedule:Week:Daily {a8f4620d-f4b1-4941-b5ad-f88132eb9f5c}\n   ************* Only last 7 lines before error line shown.....\n   *************   3739   Schedule:Week:Daily {a8f4620d-f4b1-4941-b5ad-f88132eb9f5c}, !- Name\n   *************   3740   Sp-Corner_Class_1_Pod_1_ZN_1_FLR_2 Sys-3 Flr-1 Sch-D HPlcmt-south ZN NECB System 3 PSZ Occ Sch Sunday, !- Sunday Schedule:Day Name\n   *************   3741   Sp-Corner_Class_1_Pod_1_ZN_1_FLR_2 Sys-3 Flr-1 Sch-D HPlcmt-south ZN NECB System 3 PSZ Occ Sch Monday, !- Monday Schedule:Day Name\n   *************   3742   Sp-Corner_Class_1_Pod_1_ZN_1_FLR_2 Sys-3 Flr-1 Sch-D HPlcmt-south ZN NECB System 3 PSZ Occ Sch Tuesday, !- Tuesday Schedule:Day Name\n   *************   3743   Sp-Corner_Class_1_Pod_1_ZN_1_FLR_2 Sys-3 Flr-1 Sch-D HPlcmt-south ZN NECB System 3 PSZ Occ Sch Wednesday, !- Wednesday Schedule:Day Name\n   *************   3744   Sp-Corner_Class_1_Pod_1_ZN_1_FLR_2 Sys-3 Flr-1 Sch-D HPlcmt-south ZN NECB System 3 PSZ Occ Sch Thursday, !- Thursday Schedule:Day Name\n   *************   3745   Sp-Corner_Class_1_Pod_1_ZN_1_FLR_2 Sys-3 Flr-1 Sch-D HPlcmt-south ZN NECB System 3 PSZ Occ Sch Friday, !- Friday Schedule:Day Name\n   ** Warning ** IP: IDF line~3745 Alpha Argument length exceeds maximum, will be truncated=  Sp-Corner_Class_1_Pod_1_ZN_1_FLR_2 Sys-3 Flr-1 Sch-D HPlcmt-south ZN NECB System 3 PSZ Occ Sch Frida\n   **   ~~~   ** Will be processed as Alpha=SP-CORNER_CLASS_1_POD_1_ZN_1_FLR_2 SYS-3 FLR-1 SCH-D HPLCMT-SOUTH ZN NECB SYSTEM 3 PSZ OCC SCH FRIDAY\n   ************* IDF Context for following error/warning message:\n   ************* Note -- lines truncated at 300 characters, if necessary...\n   *************   3738 Schedule:Week:Daily,\n   ************* indicated Name=Schedule:Week:Daily {a8f4620d-f4b1-4941-b5ad-f88132eb9f5c}\n   ************* Only last 8 lines before error line shown.....\n   *************   3739   Schedule:Week:Daily {a8f4620d-f4b1-4941-b5ad-f88132eb9f5c}, !- Name\n   *************   3740   Sp-Corner_Class_1_Pod_1_ZN_1_FLR_2 Sys-3 Flr-1 Sch-D HPlcmt-south ZN NECB System 3 PSZ Occ Sch Sunday, !- Sunday Schedule:Day Name\n   *************   3741   Sp-Corner_Class_1_Pod_1_ZN_1_FLR_2 Sys-3 Flr-1 Sch-D HPlcmt-south ZN NECB System 3 PSZ Occ Sch Monday, !- Monday Schedule:Day Name\n   *************   3742   Sp-Corner_Class_1_Pod_1_ZN_1_FLR_2 Sys-3 Flr-1 Sch-D HPlcmt-south ZN NECB System 3 PSZ Occ Sch Tuesday, !- Tuesday Schedule:Day Name\n   *************   3743   Sp-Corner_Class_1_Pod_1_ZN_1_FLR_2 Sys-3 Flr-1 Sch-D HPlcmt-south ZN NECB System 3 PSZ Occ Sch Wednesday, !- Wednesday Schedule:Day Name\n   *************   3744   Sp-Corner_Class_1_Pod_1_ZN_1_FLR_2 Sys-3 Flr-1 Sch-D HPlcmt-south ZN NECB System 3 PSZ Occ Sch Thursday, !- Thursday Schedule:Day Name\n   *************   3745   Sp-Corner_Class_1_Pod_1_ZN_1_FLR_2 Sys-3 Flr-1 Sch-D HPlcmt-south ZN NECB System 3 PSZ Occ Sch Friday, !- Friday Schedule:Day Name\n   *************   3746   Sp-Corner_Class_1_Pod_1_ZN_1_FLR_2 Sys-3 Flr-1 Sch-D HPlcmt-south ZN NECB System 3 PSZ Occ Sch Saturday, !- Saturday Schedule:Day Name\n   ** Warning ** IP: IDF line~3746 Alpha Argument length exceeds maximum, will be truncated=  Sp-Corner_Class_1_Pod_1_ZN_1_FLR_2 Sys-3 Flr-1 Sch-D HPlcmt-south ZN NECB System 3 PSZ Occ Sch Saturda\n   **   ~~~   ** Will be processed as Alpha=SP-CORNER_CLASS_1_POD_1_ZN_1_FLR_2 SYS-3 FLR-1 SCH-D HPLCMT-SOUTH ZN NECB SYSTEM 3 PSZ OCC SCH SATURDAY\n   ************* IDF Context for following error/warning message:\n   ************* Note -- lines truncated at 300 characters, if necessary...\n   *************   3738 Schedule:Week:Daily,\n   ************* indicated Name=Schedule:Week:Daily {a8f4620d-f4b1-4941-b5ad-f88132eb9f5c}\n   ************* Only last 9 lines before error line shown.....\n   *************   3739   Schedule:Week:Daily {a8f4620d-f4b1-4941-b5ad-f88132eb9f5c}, !- Name\n   *************   3740   Sp-Corner_Class_1_Pod_1_ZN_1_FLR_2 Sys-3 Flr-1 Sch-D HPlcmt-south ZN NECB System 3 PSZ Occ Sch Sunday, !- Sunday Schedule:Day Name\n   *************   3741   Sp-Corner_Class_1_Pod_1_ZN_1_FLR_2 Sys-3 Flr-1 Sch-D HPlcmt-south ZN NECB System 3 PSZ Occ Sch Monday, !- Monday Schedule:Day Name\n   *************   3742   Sp-Corner_Class_1_Pod_1_ZN_1_FLR_2 Sys-3 Flr-1 Sch-D HPlcmt-south ZN NECB System 3 PSZ Occ Sch Tuesday, !- Tuesday Schedule:Day Name\n   *************   3743   Sp-Corner_Class_1_Pod_1_ZN_1_FLR_2 Sys-3 Flr-1 Sch-D HPlcmt-south ZN NECB System 3 PSZ Occ Sch Wednesday, !- Wednesday Schedule:Day Name\n   *************   3744   Sp-Corner_Class_1_Pod_1_ZN_1_FLR_2 Sys-3 Flr-1 Sch-D HPlcmt-south ZN NECB System 3 PSZ Occ Sch Thursday, !- Thursday Schedule:Day Name\n   *************   3745   Sp-Corner_Class_1_Pod_1_ZN_1_FLR_2 Sys-3 Flr-1 Sch-D HPlcmt-south ZN NECB System 3 PSZ Occ Sch Friday, !- Friday Schedule:Day Name\n   *************   3746   Sp-Corner_Class_1_Pod_1_ZN_1_FLR_2 Sys-3 Flr-1 Sch-D HPlcmt-south ZN NECB System 3 PSZ Occ Sch Saturday, !- Saturday Schedule:Day Name\n   *************   3747   Sp-Corner_Class_1_Pod_1_ZN_1_FLR_2 Sys-3 Flr-1 Sch-D HPlcmt-south ZN NECB System 3 PSZ Occ Sch Default, !- Holiday Schedule:Day Name\n   ** Warning ** IP: IDF line~3747 Alpha Argument length exceeds maximum, will be truncated=  Sp-Corner_Class_1_Pod_1_ZN_1_FLR_2 Sys-3 Flr-1 Sch-D HPlcmt-south ZN NECB System 3 PSZ Occ Sch Defaul\n   **   ~~~   ** Will be processed as Alpha=SP-CORNER_CLASS_1_POD_1_ZN_1_FLR_2 SYS-3 FLR-1 SCH-D HPLCMT-SOUTH ZN NECB SYSTEM 3 PSZ OCC SCH DEFAULT\n   ************* IDF Context for following error/warning message:\n   ************* Note -- lines truncated at 300 characters, if necessary...\n   *************   3738 Schedule:Week:Daily,\n   ************* indicated Name=Schedule:Week:Daily {a8f4620d-f4b1-4941-b5ad-f88132eb9f5c}\n   ************* Only last 10 lines before error line shown.....\n   *************   3739   Schedule:Week:Daily {a8f4620d-f4b1-4941-b5ad-f88132eb9f5c}, !- Name\n   *************   3740   Sp-Corner_Class_1_Pod_1_ZN_1_FLR_2 Sys-3 Flr-1 Sch-D HPlcmt-south ZN NECB System 3 PSZ Occ Sch Sunday, !- Sunday Schedule:Day Name\n   *************   3741   Sp-Corner_Class_1_Pod_1_ZN_1_FLR_2 Sys-3 Flr-1 Sch-D HPlcmt-south ZN NECB System 3 PSZ Occ Sch Monday, !- Monday Schedule:Day Name\n   *************   3742   Sp-Corner_Class_1_Pod_1_ZN_1_FLR_2 Sys-3 Flr-1 Sch-D HPlcmt-south ZN NECB System 3 PSZ Occ Sch Tuesday, !- Tuesday Schedule:Day Name\n   *************   3743   Sp-Corner_Class_1_Pod_1_ZN_1_FLR_2 Sys-3 Flr-1 Sch-D HPlcmt-south ZN NECB System 3 PSZ Occ Sch Wednesday, !- Wednesday Schedule:Day Name\n   *************   3744   Sp-Corner_Class_1_Pod_1_ZN_1_FLR_2 Sys-3 Flr-1 Sch-D HPlcmt-south ZN NECB System 3 PSZ Occ Sch Thursday, !- Thursday Schedule:Day Name\n   *************   3745   Sp-Corner_Class_1_Pod_1_ZN_1_FLR_2 Sys-3 Flr-1 Sch-D HPlcmt-south ZN NECB System 3 PSZ Occ Sch Friday, !- Friday Schedule:Day Name\n   *************   3746   Sp-Corner_Class_1_Pod_1_ZN_1_FLR_2 Sys-3 Flr-1 Sch-D HPlcmt-south ZN NECB System 3 PSZ Occ Sch Saturday, !- Saturday Schedule:Day Name\n   *************   3747   Sp-Corner_Class_1_Pod_1_ZN_1_FLR_2 Sys-3 Flr-1 Sch-D HPlcmt-south ZN NECB System 3 PSZ Occ Sch Default, !- Holiday Schedule:Day Name\n   *************   3748   Sp-Corner_Class_1_Pod_1_ZN_1_FLR_2 Sys-3 Flr-1 Sch-D HPlcmt-south ZN NECB System 3 PSZ Occ Sch Summer Design Day, !- SummerDesignDay Schedule:Day Name\n   ** Warning ** IP: IDF line~3748 Alpha Argument length exceeds maximum, will be truncated=  Sp-Corner_Class_1_Pod_1_ZN_1_FLR_2 Sys-3 Flr-1 Sch-D HPlcmt-south ZN NECB System 3 PSZ Occ Sch Summer Design Da\n   **   ~~~   ** Will be processed as Alpha=SP-CORNER_CLASS_1_POD_1_ZN_1_FLR_2 SYS-3 FLR-1 SCH-D HPLCMT-SOUTH ZN NECB SYSTEM 3 PSZ OCC SCH SUMMER DESIGN DAY\n   ************* IDF Context for following error/warning message:\n   ************* Note -- lines truncated at 300 characters, if necessary...\n   *************   3738 Schedule:Week:Daily,\n   ************* indicated Name=Schedule:Week:Daily {a8f4620d-f4b1-4941-b5ad-f88132eb9f5c}\n   ************* Only last 10 lines before error line shown.....\n   *************   3740   Sp-Corner_Class_1_Pod_1_ZN_1_FLR_2 Sys-3 Flr-1 Sch-D HPlcmt-south ZN NECB System 3 PSZ Occ Sch Sunday, !- Sunday Schedule:Day Name\n   *************   3741   Sp-Corner_Class_1_Pod_1_ZN_1_FLR_2 Sys-3 Flr-1 Sch-D HPlcmt-south ZN NECB System 3 PSZ Occ Sch Monday, !- Monday Schedule:Day Name\n   *************   3742   Sp-Corner_Class_1_Pod_1_ZN_1_FLR_2 Sys-3 Flr-1 Sch-D HPlcmt-south ZN NECB System 3 PSZ Occ Sch Tuesday, !- Tuesday Schedule:Day Name\n   *************   3743   Sp-Corner_Class_1_Pod_1_ZN_1_FLR_2 Sys-3 Flr-1 Sch-D HPlcmt-south ZN NECB System 3 PSZ Occ Sch Wednesday, !- Wednesday Schedule:Day Name\n   *************   3744   Sp-Corner_Class_1_Pod_1_ZN_1_FLR_2 Sys-3 Flr-1 Sch-D HPlcmt-south ZN NECB System 3 PSZ Occ Sch Thursday, !- Thursday Schedule:Day Name\n   *************   3745   Sp-Corner_Class_1_Pod_1_ZN_1_FLR_2 Sys-3 Flr-1 Sch-D HPlcmt-south ZN NECB System 3 PSZ Occ Sch Friday, !- Friday Schedule:Day Name\n   *************   3746   Sp-Corner_Class_1_Pod_1_ZN_1_FLR_2 Sys-3 Flr-1 Sch-D HPlcmt-south ZN NECB System 3 PSZ Occ Sch Saturday, !- Saturday Schedule:Day Name\n   *************   3747   Sp-Corner_Class_1_Pod_1_ZN_1_FLR_2 Sys-3 Flr-1 Sch-D HPlcmt-south ZN NECB System 3 PSZ Occ Sch Default, !- Holiday Schedule:Day Name\n   *************   3748   Sp-Corner_Class_1_Pod_1_ZN_1_FLR_2 Sys-3 Flr-1 Sch-D HPlcmt-south ZN NECB System 3 PSZ Occ Sch Summer Design Day, !- SummerDesignDay Schedule:Day Name\n   *************   3749   Sp-Corner_Class_1_Pod_1_ZN_1_FLR_2 Sys-3 Flr-1 Sch-D HPlcmt-south ZN NECB System 3 PSZ Occ Sch Winter Design Day, !- WinterDesignDay Schedule:Day Name\n   ** Warning ** IP: IDF line~3749 Alpha Argument length exceeds maximum, will be truncated=  Sp-Corner_Class_1_Pod_1_ZN_1_FLR_2 Sys-3 Flr-1 Sch-D HPlcmt-south ZN NECB System 3 PSZ Occ Sch Winter Design Da\n   **   ~~~   ** Will be processed as Alpha=SP-CORNER_CLASS_1_POD_1_ZN_1_FLR_2 SYS-3 FLR-1 SCH-D HPLCMT-SOUTH ZN NECB SYSTEM 3 PSZ OCC SCH WINTER DESIGN DAY\n   ************* IDF Context for following error/warning message:\n   ************* Note -- lines truncated at 300 characters, if necessary...\n   *************   3738 Schedule:Week:Daily,\n   ************* indicated Name=Schedule:Week:Daily {a8f4620d-f4b1-4941-b5ad-f88132eb9f5c}\n   ************* Only last 10 lines before error line shown.....\n   *************   3741   Sp-Corner_Class_1_Pod_1_ZN_1_FLR_2 Sys-3 Flr-1 Sch-D HPlcmt-south ZN NECB System 3 PSZ Occ Sch Monday, !- Monday Schedule:Day Name\n   *************   3742   Sp-Corner_Class_1_Pod_1_ZN_1_FLR_2 Sys-3 Flr-1 Sch-D HPlcmt-south ZN NECB System 3 PSZ Occ Sch Tuesday, !- Tuesday Schedule:Day Name\n   *************   3743   Sp-Corner_Class_1_Pod_1_ZN_1_FLR_2 Sys-3 Flr-1 Sch-D HPlcmt-south ZN NECB System 3 PSZ Occ Sch Wednesday, !- Wednesday Schedule:Day Name\n   *************   3744   Sp-Corner_Class_1_Pod_1_ZN_1_FLR_2 Sys-3 Flr-1 Sch-D HPlcmt-south ZN NECB System 3 PSZ Occ Sch Thursday, !- Thursday Schedule:Day Name\n   *************   3745   Sp-Corner_Class_1_Pod_1_ZN_1_FLR_2 Sys-3 Flr-1 Sch-D HPlcmt-south ZN NECB System 3 PSZ Occ Sch Friday, !- Friday Schedule:Day Name\n   *************   3746   Sp-Corner_Class_1_Pod_1_ZN_1_FLR_2 Sys-3 Flr-1 Sch-D HPlcmt-south ZN NECB System 3 PSZ Occ Sch Saturday, !- Saturday Schedule:Day Name\n   *************   3747   Sp-Corner_Class_1_Pod_1_ZN_1_FLR_2 Sys-3 Flr-1 Sch-D HPlcmt-south ZN NECB System 3 PSZ Occ Sch Default, !- Holiday Schedule:Day Name\n   *************   3748   Sp-Corner_Class_1_Pod_1_ZN_1_FLR_2 Sys-3 Flr-1 Sch-D HPlcmt-south ZN NECB System 3 PSZ Occ Sch Summer Design Day, !- SummerDesignDay Schedule:Day Name\n   *************   3749   Sp-Corner_Class_1_Pod_1_ZN_1_FLR_2 Sys-3 Flr-1 Sch-D HPlcmt-south ZN NECB System 3 PSZ Occ Sch Winter Design Day, !- WinterDesignDay Schedule:Day Name\n   *************   3750   Sp-Corner_Class_1_Pod_1_ZN_1_FLR_2 Sys-3 Flr-1 Sch-D HPlcmt-south ZN NECB System 3 PSZ Occ Sch Default, !- CustomDay1 Schedule:Day Name\n   ** Warning ** IP: IDF line~3750 Alpha Argument length exceeds maximum, will be truncated=  Sp-Corner_Class_1_Pod_1_ZN_1_FLR_2 Sys-3 Flr-1 Sch-D HPlcmt-south ZN NECB System 3 PSZ Occ Sch Defaul\n   **   ~~~   ** Will be processed as Alpha=SP-CORNER_CLASS_1_POD_1_ZN_1_FLR_2 SYS-3 FLR-1 SCH-D HPLCMT-SOUTH ZN NECB SYSTEM 3 PSZ OCC SCH DEFAULT\n   ************* IDF Context for following error/warning message:\n   ************* Note -- lines truncated at 300 characters, if necessary...\n   *************   3738 Schedule:Week:Daily,\n   ************* indicated Name=Schedule:Week:Daily {a8f4620d-f4b1-4941-b5ad-f88132eb9f5c}\n   ************* Only last 10 lines before error line shown.....\n   *************   3742   Sp-Corner_Class_1_Pod_1_ZN_1_FLR_2 Sys-3 Flr-1 Sch-D HPlcmt-south ZN NECB System 3 PSZ Occ Sch Tuesday, !- Tuesday Schedule:Day Name\n   *************   3743   Sp-Corner_Class_1_Pod_1_ZN_1_FLR_2 Sys-3 Flr-1 Sch-D HPlcmt-south ZN NECB System 3 PSZ Occ Sch Wednesday, !- Wednesday Schedule:Day Name\n   *************   3744   Sp-Corner_Class_1_Pod_1_ZN_1_FLR_2 Sys-3 Flr-1 Sch-D HPlcmt-south ZN NECB System 3 PSZ Occ Sch Thursday, !- Thursday Schedule:Day Name\n   *************   3745   Sp-Corner_Class_1_Pod_1_ZN_1_FLR_2 Sys-3 Flr-1 Sch-D HPlcmt-south ZN NECB System 3 PSZ Occ Sch Friday, !- Friday Schedule:Day Name\n   *************   3746   Sp-Corner_Class_1_Pod_1_ZN_1_FLR_2 Sys-3 Flr-1 Sch-D HPlcmt-south ZN NECB System 3 PSZ Occ Sch Saturday, !- Saturday Schedule:Day Name\n   *************   3747   Sp-Corner_Class_1_Pod_1_ZN_1_FLR_2 Sys-3 Flr-1 Sch-D HPlcmt-south ZN NECB System 3 PSZ Occ Sch Default, !- Holiday Schedule:Day Name\n   *************   3748   Sp-Corner_Class_1_Pod_1_ZN_1_FLR_2 Sys-3 Flr-1 Sch-D HPlcmt-south ZN NECB System 3 PSZ Occ Sch Summer Design Day, !- SummerDesignDay Schedule:Day Name\n   *************   3749   Sp-Corner_Class_1_Pod_1_ZN_1_FLR_2 Sys-3 Flr-1 Sch-D HPlcmt-south ZN NECB System 3 PSZ Occ Sch Winter Design Day, !- WinterDesignDay Schedule:Day Name\n   *************   3750   Sp-Corner_Class_1_Pod_1_ZN_1_FLR_2 Sys-3 Flr-1 Sch-D HPlcmt-south ZN NECB System 3 PSZ Occ Sch Default, !- CustomDay1 Schedule:Day Name\n   *************   3751   Sp-Corner_Class_1_Pod_1_ZN_1_FLR_2 Sys-3 Flr-1 Sch-D HPlcmt-south ZN NECB System 3 PSZ Occ Sch Default; !- CustomDay2 Schedule:Day Name\n   ** Warning ** IP: IDF line~3751 Alpha Argument length exceeds maximum, will be truncated=  Sp-Corner_Class_1_Pod_1_ZN_1_FLR_2 Sys-3 Flr-1 Sch-D HPlcmt-south ZN NECB System 3 PSZ Occ Sch Defaul\n   **   ~~~   ** Will be processed as Alpha=SP-CORNER_CLASS_1_POD_1_ZN_1_FLR_2 SYS-3 FLR-1 SCH-D HPLCMT-SOUTH ZN NECB SYSTEM 3 PSZ OCC SCH DEFAULT\n   ************* IDF Context for following error/warning message:\n   ************* Note -- lines truncated at 300 characters, if necessary...\n   *************   3762 Schedule:Day:Interval,\n   ************* indicated Name=Sp-Corner_Class_1_Pod_1_ZN_1_FLR_2 Sys-3 Flr-1 Sch-D HPlcmt-south ZN NECB System 3 PSZ Occ Sch Default\n   ************* Only last 1 lines before error line shown.....\n   *************   3763   Sp-Corner_Class_1_Pod_1_ZN_1_FLR_2 Sys-3 Flr-1 Sch-D HPlcmt-south ZN NECB System 3 PSZ Occ Sch Default, !- Name\n   ** Warning ** IP: IDF line~3763 Alpha Argument length exceeds maximum, will be truncated=  Sp-Corner_Class_1_Pod_1_ZN_1_FLR_2 Sys-3 Flr-1 Sch-D HPlcmt-south ZN NECB System 3 PSZ Occ Sch Defaul\n   **   ~~~   ** Will be processed as Alpha=SP-CORNER_CLASS_1_POD_1_ZN_1_FLR_2 SYS-3 FLR-1 SCH-D HPLCMT-SOUTH ZN NECB SYSTEM 3 PSZ OCC SCH DEFAULT\n   ************* IDF Context for following error/warning message:\n   ************* Note -- lines truncated at 300 characters, if necessary...\n   *************   3769 Schedule:Day:Interval,\n   ************* indicated Name=Sp-Corner_Class_1_Pod_1_ZN_1_FLR_2 Sys-3 Flr-1 Sch-D HPlcmt-south ZN NECB System 3 PSZ Occ Sch Summer Design Day\n   ************* Only last 1 lines before error line shown.....\n   *************   3770   Sp-Corner_Class_1_Pod_1_ZN_1_FLR_2 Sys-3 Flr-1 Sch-D HPlcmt-south ZN NECB System 3 PSZ Occ Sch Summer Design Day, !- Name\n   ** Warning ** IP: IDF line~3770 Alpha Argument length exceeds maximum, will be truncated=  Sp-Corner_Class_1_Pod_1_ZN_1_FLR_2 Sys-3 Flr-1 Sch-D HPlcmt-south ZN NECB System 3 PSZ Occ Sch Summer Design Da\n   **   ~~~   ** Will be processed as Alpha=SP-CORNER_CLASS_1_POD_1_ZN_1_FLR_2 SYS-3 FLR-1 SCH-D HPLCMT-SOUTH ZN NECB SYSTEM 3 PSZ OCC SCH SUMMER DESIGN DAY\n   ************* IDF Context for following error/warning message:\n   ************* Note -- lines truncated at 300 characters, if necessary...\n   *************   3776 Schedule:Day:Interval,\n   ************* indicated Name=Sp-Corner_Class_1_Pod_1_ZN_1_FLR_2 Sys-3 Flr-1 Sch-D HPlcmt-south ZN NECB System 3 PSZ Occ Sch Winter Design Day\n   ************* Only last 1 lines before error line shown.....\n   *************   3777   Sp-Corner_Class_1_Pod_1_ZN_1_FLR_2 Sys-3 Flr-1 Sch-D HPlcmt-south ZN NECB System 3 PSZ Occ Sch Winter Design Day, !- Name\n   ** Warning ** IP: IDF line~3777 Alpha Argument length exceeds maximum, will be truncated=  Sp-Corner_Class_1_Pod_1_ZN_1_FLR_2 Sys-3 Flr-1 Sch-D HPlcmt-south ZN NECB System 3 PSZ Occ Sch Winter Design Da\n   **   ~~~   ** Will be processed as Alpha=SP-CORNER_CLASS_1_POD_1_ZN_1_FLR_2 SYS-3 FLR-1 SCH-D HPLCMT-SOUTH ZN NECB SYSTEM 3 PSZ OCC SCH WINTER DESIGN DAY\n   ************* IDF Context for following error/warning message:\n   ************* Note -- lines truncated at 300 characters, if necessary...\n   *************   4045 Schedule:Day:Interval,\n   ************* indicated Name=Sp-Corner_Class_1_Pod_2_ZN_1_FLR_1 Sys-3 Flr-2 Sch-D HPlcmt-south ZN NECB System 3 PSZ Occ Sch Sunday\n   ************* Only last 1 lines before error line shown.....\n   *************   4046   Sp-Corner_Class_1_Pod_2_ZN_1_FLR_1 Sys-3 Flr-2 Sch-D HPlcmt-south ZN NECB System 3 PSZ Occ Sch Sunday, !- Name\n   ** Warning ** IP: IDF line~4046 Alpha Argument length exceeds maximum, will be truncated=  Sp-Corner_Class_1_Pod_2_ZN_1_FLR_1 Sys-3 Flr-2 Sch-D HPlcmt-south ZN NECB System 3 PSZ Occ Sch Sunda\n   **   ~~~   ** Will be processed as Alpha=SP-CORNER_CLASS_1_POD_2_ZN_1_FLR_1 SYS-3 FLR-2 SCH-D HPLCMT-SOUTH ZN NECB SYSTEM 3 PSZ OCC SCH SUNDAY\n   ************* IDF Context for following error/warning message:\n   ************* Note -- lines truncated at 300 characters, if necessary...\n   *************   4052 Schedule:Day:Interval,\n   ************* indicated Name=Sp-Corner_Class_1_Pod_2_ZN_1_FLR_1 Sys-3 Flr-2 Sch-D HPlcmt-south ZN NECB System 3 PSZ Occ Sch Monday\n   ************* Only last 1 lines before error line shown.....\n   *************   4053   Sp-Corner_Class_1_Pod_2_ZN_1_FLR_1 Sys-3 Flr-2 Sch-D HPlcmt-south ZN NECB System 3 PSZ Occ Sch Monday, !- Name\n   ** Warning ** IP: IDF line~4053 Alpha Argument length exceeds maximum, will be truncated=  Sp-Corner_Class_1_Pod_2_ZN_1_FLR_1 Sys-3 Flr-2 Sch-D HPlcmt-south ZN NECB System 3 PSZ Occ Sch Monda\n   **   ~~~   ** Will be processed as Alpha=SP-CORNER_CLASS_1_POD_2_ZN_1_FLR_1 SYS-3 FLR-2 SCH-D HPLCMT-SOUTH ZN NECB SYSTEM 3 PSZ OCC SCH MONDAY\n   ************* IDF Context for following error/warning message:\n   ************* Note -- lines truncated at 300 characters, if necessary...\n   *************   4067 Schedule:Day:Interval,\n   ************* indicated Name=Sp-Corner_Class_1_Pod_2_ZN_1_FLR_1 Sys-3 Flr-2 Sch-D HPlcmt-south ZN NECB System 3 PSZ Occ Sch Tuesday\n   ************* Only last 1 lines before error line shown.....\n   *************   4068   Sp-Corner_Class_1_Pod_2_ZN_1_FLR_1 Sys-3 Flr-2 Sch-D HPlcmt-south ZN NECB System 3 PSZ Occ Sch Tuesday, !- Name\n   ** Warning ** IP: IDF line~4068 Alpha Argument length exceeds maximum, will be truncated=  Sp-Corner_Class_1_Pod_2_ZN_1_FLR_1 Sys-3 Flr-2 Sch-D HPlcmt-south ZN NECB System 3 PSZ Occ Sch Tuesda\n   **   ~~~   ** Will be processed as Alpha=SP-CORNER_CLASS_1_POD_2_ZN_1_FLR_1 SYS-3 FLR-2 SCH-D HPLCMT-SOUTH ZN NECB SYSTEM 3 PSZ OCC SCH TUESDAY\n   ************* IDF Context for following error/warning message:\n   ************* Note -- lines truncated at 300 characters, if necessary...\n   *************   4082 Schedule:Day:Interval,\n   ************* indicated Name=Sp-Corner_Class_1_Pod_2_ZN_1_FLR_1 Sys-3 Flr-2 Sch-D HPlcmt-south ZN NECB System 3 PSZ Occ Sch Wednesday\n   ************* Only last 1 lines before error line shown.....\n   *************   4083   Sp-Corner_Class_1_Pod_2_ZN_1_FLR_1 Sys-3 Flr-2 Sch-D HPlcmt-south ZN NECB System 3 PSZ Occ Sch Wednesday, !- Name\n   ** Warning ** IP: IDF line~4083 Alpha Argument length exceeds maximum, will be truncated=  Sp-Corner_Class_1_Pod_2_ZN_1_FLR_1 Sys-3 Flr-2 Sch-D HPlcmt-south ZN NECB System 3 PSZ Occ Sch Wednesda\n   **   ~~~   ** Will be processed as Alpha=SP-CORNER_CLASS_1_POD_2_ZN_1_FLR_1 SYS-3 FLR-2 SCH-D HPLCMT-SOUTH ZN NECB SYSTEM 3 PSZ OCC SCH WEDNESDAY\n   ************* IDF Context for following error/warning message:\n   ************* Note -- lines truncated at 300 characters, if necessary...\n   *************   4097 Schedule:Day:Interval,\n   ************* indicated Name=Sp-Corner_Class_1_Pod_2_ZN_1_FLR_1 Sys-3 Flr-2 Sch-D HPlcmt-south ZN NECB System 3 PSZ Occ Sch Thursday\n   ************* Only last 1 lines before error line shown.....\n   *************   4098   Sp-Corner_Class_1_Pod_2_ZN_1_FLR_1 Sys-3 Flr-2 Sch-D HPlcmt-south ZN NECB System 3 PSZ Occ Sch Thursday, !- Name\n   ** Warning ** IP: IDF line~4098 Alpha Argument length exceeds maximum, will be truncated=  Sp-Corner_Class_1_Pod_2_ZN_1_FLR_1 Sys-3 Flr-2 Sch-D HPlcmt-south ZN NECB System 3 PSZ Occ Sch Thursda\n   **   ~~~   ** Will be processed as Alpha=SP-CORNER_CLASS_1_POD_2_ZN_1_FLR_1 SYS-3 FLR-2 SCH-D HPLCMT-SOUTH ZN NECB SYSTEM 3 PSZ OCC SCH THURSDAY\n   ************* IDF Context for following error/warning message:\n   ************* Note -- lines truncated at 300 characters, if necessary...\n   *************   4112 Schedule:Day:Interval,\n   ************* indicated Name=Sp-Corner_Class_1_Pod_2_ZN_1_FLR_1 Sys-3 Flr-2 Sch-D HPlcmt-south ZN NECB System 3 PSZ Occ Sch Friday\n   ************* Only last 1 lines before error line shown.....\n   *************   4113   Sp-Corner_Class_1_Pod_2_ZN_1_FLR_1 Sys-3 Flr-2 Sch-D HPlcmt-south ZN NECB System 3 PSZ Occ Sch Friday, !- Name\n   ** Warning ** IP: IDF line~4113 Alpha Argument length exceeds maximum, will be truncated=  Sp-Corner_Class_1_Pod_2_ZN_1_FLR_1 Sys-3 Flr-2 Sch-D HPlcmt-south ZN NECB System 3 PSZ Occ Sch Frida\n   **   ~~~   ** Will be processed as Alpha=SP-CORNER_CLASS_1_POD_2_ZN_1_FLR_1 SYS-3 FLR-2 SCH-D HPLCMT-SOUTH ZN NECB SYSTEM 3 PSZ OCC SCH FRIDAY\n   ************* IDF Context for following error/warning message:\n   ************* Note -- lines truncated at 300 characters, if necessary...\n   *************   4127 Schedule:Day:Interval,\n   ************* indicated Name=Sp-Corner_Class_1_Pod_2_ZN_1_FLR_1 Sys-3 Flr-2 Sch-D HPlcmt-south ZN NECB System 3 PSZ Occ Sch Saturday\n   ************* Only last 1 lines before error line shown.....\n   *************   4128   Sp-Corner_Class_1_Pod_2_ZN_1_FLR_1 Sys-3 Flr-2 Sch-D HPlcmt-south ZN NECB System 3 PSZ Occ Sch Saturday, !- Name\n   ** Warning ** IP: IDF line~4128 Alpha Argument length exceeds maximum, will be truncated=  Sp-Corner_Class_1_Pod_2_ZN_1_FLR_1 Sys-3 Flr-2 Sch-D HPlcmt-south ZN NECB System 3 PSZ Occ Sch Saturda\n   **   ~~~   ** Will be processed as Alpha=SP-CORNER_CLASS_1_POD_2_ZN_1_FLR_1 SYS-3 FLR-2 SCH-D HPLCMT-SOUTH ZN NECB SYSTEM 3 PSZ OCC SCH SATURDAY\n   ************* IDF Context for following error/warning message:\n   ************* Note -- lines truncated at 300 characters, if necessary...\n   *************   4134 Schedule:Week:Daily,\n   ************* indicated Name=Schedule:Week:Daily {e7dcd928-3968-443d-87c5-a81ce487c0c8}\n   ************* Only last 2 lines before error line shown.....\n   *************   4135   Schedule:Week:Daily {e7dcd928-3968-443d-87c5-a81ce487c0c8}, !- Name\n   *************   4136   Sp-Corner_Class_1_Pod_2_ZN_1_FLR_1 Sys-3 Flr-2 Sch-D HPlcmt-south ZN NECB System 3 PSZ Occ Sch Sunday, !- Sunday Schedule:Day Name\n   ** Warning ** IP: IDF line~4136 Alpha Argument length exceeds maximum, will be truncated=  Sp-Corner_Class_1_Pod_2_ZN_1_FLR_1 Sys-3 Flr-2 Sch-D HPlcmt-south ZN NECB System 3 PSZ Occ Sch Sunda\n   **   ~~~   ** Will be processed as Alpha=SP-CORNER_CLASS_1_POD_2_ZN_1_FLR_1 SYS-3 FLR-2 SCH-D HPLCMT-SOUTH ZN NECB SYSTEM 3 PSZ OCC SCH SUNDAY\n   ************* IDF Context for following error/warning message:\n   ************* Note -- lines truncated at 300 characters, if necessary...\n   *************   4134 Schedule:Week:Daily,\n   ************* indicated Name=Schedule:Week:Daily {e7dcd928-3968-443d-87c5-a81ce487c0c8}\n   ************* Only last 3 lines before error line shown.....\n   *************   4135   Schedule:Week:Daily {e7dcd928-3968-443d-87c5-a81ce487c0c8}, !- Name\n   *************   4136   Sp-Corner_Class_1_Pod_2_ZN_1_FLR_1 Sys-3 Flr-2 Sch-D HPlcmt-south ZN NECB System 3 PSZ Occ Sch Sunday, !- Sunday Schedule:Day Name\n   *************   4137   Sp-Corner_Class_1_Pod_2_ZN_1_FLR_1 Sys-3 Flr-2 Sch-D HPlcmt-south ZN NECB System 3 PSZ Occ Sch Monday, !- Monday Schedule:Day Name\n   ** Warning ** IP: IDF line~4137 Alpha Argument length exceeds maximum, will be truncated=  Sp-Corner_Class_1_Pod_2_ZN_1_FLR_1 Sys-3 Flr-2 Sch-D HPlcmt-south ZN NECB System 3 PSZ Occ Sch Monda\n   **   ~~~   ** Will be processed as Alpha=SP-CORNER_CLASS_1_POD_2_ZN_1_FLR_1 SYS-3 FLR-2 SCH-D HPLCMT-SOUTH ZN NECB SYSTEM 3 PSZ OCC SCH MONDAY\n   ************* IDF Context for following error/warning message:\n   ************* Note -- lines truncated at 300 characters, if necessary...\n   *************   4134 Schedule:Week:Daily,\n   ************* indicated Name=Schedule:Week:Daily {e7dcd928-3968-443d-87c5-a81ce487c0c8}\n   ************* Only last 4 lines before error line shown.....\n   *************   4135   Schedule:Week:Daily {e7dcd928-3968-443d-87c5-a81ce487c0c8}, !- Name\n   *************   4136   Sp-Corner_Class_1_Pod_2_ZN_1_FLR_1 Sys-3 Flr-2 Sch-D HPlcmt-south ZN NECB System 3 PSZ Occ Sch Sunday, !- Sunday Schedule:Day Name\n   *************   4137   Sp-Corner_Class_1_Pod_2_ZN_1_FLR_1 Sys-3 Flr-2 Sch-D HPlcmt-south ZN NECB System 3 PSZ Occ Sch Monday, !- Monday Schedule:Day Name\n   *************   4138   Sp-Corner_Class_1_Pod_2_ZN_1_FLR_1 Sys-3 Flr-2 Sch-D HPlcmt-south ZN NECB System 3 PSZ Occ Sch Tuesday, !- Tuesday Schedule:Day Name\n   ** Warning ** IP: IDF line~4138 Alpha Argument length exceeds maximum, will be truncated=  Sp-Corner_Class_1_Pod_2_ZN_1_FLR_1 Sys-3 Flr-2 Sch-D HPlcmt-south ZN NECB System 3 PSZ Occ Sch Tuesda\n   **   ~~~   ** Will be processed as Alpha=SP-CORNER_CLASS_1_POD_2_ZN_1_FLR_1 SYS-3 FLR-2 SCH-D HPLCMT-SOUTH ZN NECB SYSTEM 3 PSZ OCC SCH TUESDAY\n   ************* IDF Context for following error/warning message:\n   ************* Note -- lines truncated at 300 characters, if necessary...\n   *************   4134 Schedule:Week:Daily,\n   ************* indicated Name=Schedule:Week:Daily {e7dcd928-3968-443d-87c5-a81ce487c0c8}\n   ************* Only last 5 lines before error line shown.....\n   *************   4135   Schedule:Week:Daily {e7dcd928-3968-443d-87c5-a81ce487c0c8}, !- Name\n   *************   4136   Sp-Corner_Class_1_Pod_2_ZN_1_FLR_1 Sys-3 Flr-2 Sch-D HPlcmt-south ZN NECB System 3 PSZ Occ Sch Sunday, !- Sunday Schedule:Day Name\n   *************   4137   Sp-Corner_Class_1_Pod_2_ZN_1_FLR_1 Sys-3 Flr-2 Sch-D HPlcmt-south ZN NECB System 3 PSZ Occ Sch Monday, !- Monday Schedule:Day Name\n   *************   4138   Sp-Corner_Class_1_Pod_2_ZN_1_FLR_1 Sys-3 Flr-2 Sch-D HPlcmt-south ZN NECB System 3 PSZ Occ Sch Tuesday, !- Tuesday Schedule:Day Name\n   *************   4139   Sp-Corner_Class_1_Pod_2_ZN_1_FLR_1 Sys-3 Flr-2 Sch-D HPlcmt-south ZN NECB System 3 PSZ Occ Sch Wednesday, !- Wednesday Schedule:Day Name\n   ** Warning ** IP: IDF line~4139 Alpha Argument length exceeds maximum, will be truncated=  Sp-Corner_Class_1_Pod_2_ZN_1_FLR_1 Sys-3 Flr-2 Sch-D HPlcmt-south ZN NECB System 3 PSZ Occ Sch Wednesda\n   **   ~~~   ** Will be processed as Alpha=SP-CORNER_CLASS_1_POD_2_ZN_1_FLR_1 SYS-3 FLR-2 SCH-D HPLCMT-SOUTH ZN NECB SYSTEM 3 PSZ OCC SCH WEDNESDAY\n   ************* IDF Context for following error/warning message:\n   ************* Note -- lines truncated at 300 characters, if necessary...\n   *************   4134 Schedule:Week:Daily,\n   ************* indicated Name=Schedule:Week:Daily {e7dcd928-3968-443d-87c5-a81ce487c0c8}\n   ************* Only last 6 lines before error line shown.....\n   *************   4135   Schedule:Week:Daily {e7dcd928-3968-443d-87c5-a81ce487c0c8}, !- Name\n   *************   4136   Sp-Corner_Class_1_Pod_2_ZN_1_FLR_1 Sys-3 Flr-2 Sch-D HPlcmt-south ZN NECB System 3 PSZ Occ Sch Sunday, !- Sunday Schedule:Day Name\n   *************   4137   Sp-Corner_Class_1_Pod_2_ZN_1_FLR_1 Sys-3 Flr-2 Sch-D HPlcmt-south ZN NECB System 3 PSZ Occ Sch Monday, !- Monday Schedule:Day Name\n   *************   4138   Sp-Corner_Class_1_Pod_2_ZN_1_FLR_1 Sys-3 Flr-2 Sch-D HPlcmt-south ZN NECB System 3 PSZ Occ Sch Tuesday, !- Tuesday Schedule:Day Name\n   *************   4139   Sp-Corner_Class_1_Pod_2_ZN_1_FLR_1 Sys-3 Flr-2 Sch-D HPlcmt-south ZN NECB System 3 PSZ Occ Sch Wednesday, !- Wednesday Schedule:Day Name\n   *************   4140   Sp-Corner_Class_1_Pod_2_ZN_1_FLR_1 Sys-3 Flr-2 Sch-D HPlcmt-south ZN NECB System 3 PSZ Occ Sch Thursday, !- Thursday Schedule:Day Name\n   ** Warning ** IP: IDF line~4140 Alpha Argument length exceeds maximum, will be truncated=  Sp-Corner_Class_1_Pod_2_ZN_1
[...]
Hgs2CXrJZZOgV1w2CXrBZZOg11s2CXq5ZZPIeSCQT4N+oopPg37Yik+Dfg6LT4N+RItPg34ukU+DfmSRT4N+mpFPg37QkU+jgjjPeTyST6OCOM95qJJPo4KdPCetytMo/EJJubRq8QkTBgk6rWKToAeDTYIeCzYJOq1ik6DTKjYJOq1ik6DTKjYJerllk8hJq/g06OWWT4Nebvk06LSKT4NOq/g06LSKT4NOq/g06LSKT4NOq/g0KojznLSKT6OCOM9Jq/g0KtjJc9KqPI3CQvDl0qpFpXgGCTqtYpOgB4NNgh4LNgk6rWKToNMqNgk6rWKToNMqNgl6uWWTyEmr+DTo5ZZPg15u+TTotIpPg06r+DTotIpPg06r+DTotIpPg06r+DQqiPOctIpPo4I4z0mr+DQq2Mlz0qo8jcJ6u+XSqkVBXgYJOq1ik6AHg02CHgs2CTqtYpOg0yo2CTqtYpOg0yo2CXq5ZZPISav4NOjllk+DXm75NOi0ik+DTqv4NOi0ik+DTqv4NOi0ik+DTqv4NCqI85y0ik+jgjjPSav4NCrYyXPSqjyNwrKG5dKqRd1DBgk6rWKToAeDTYIeCzYJOq1ik6DTKjYJOq1ik6DTKjYJerllk8gttsalkVetiksjr5AVl0ZejSsujbzyV1waeTXfuDTyysFxaeRViuPSyCsix6VRQZznlp7j0qggznML1nFpVLCT56RVK43vZSq8Lis6ixMRyPtVBdmscGwtvhvVswqwhaViV2WhY5m8D2eBG9fazbqwrHZdtNTf7Ha5crMPKcZTtWvX7TqJHIXR/PTBixdllZ/uv0Tt6dTBZeTK6GqmqhyXbqg45uscn6QTzyK5wFCFmpf9vuW63zDDDDPMMMMMM8wwwwwzzDDDDDPMMMMMM8wwwwwzzDDDDDPMMMMMM8wwwwwzzDDDDDPMMMMMM8wwwwwzzDDDDDPMMMMMM8ww/63MczO8k1HkufKTo16stczmK99XVa/Gxuuvxl7LyJPx8vVao756gXjqh4npe4EsfEU2fuk93eI3a2Mz+/T8NPSdxAuDFMqIEzlt9OUwjKRR7s3nj3IkA3f9hhbnap1mXbTUm8tN9SKz+sPw5TBRYAWuV27N3kgm50Gi+ieVGM6CQUZa2xV/FLhYEcqn1jeF73KrwxuKWjL2YjPORqWckDqeNTLT/jt3BuPa/4B1va3w1avjKfvSb28axp5yeJaeLnM3q0O5eYEqCu/1kFZYXuBKFQ8Nq67ZenXcbtpw6Elfzbfask8XcTKKwtlUuuLnn8U/lucfzN7YiZfvv6sA231unb9oTTvEdEajC6Vh+jIYJWPxTtji38I49X1DHK9fEfveQNYa1u5N8/tuYbz95U7CSNRu01tp/iJuU5nlVF3qqnP/TFcc/QFSh5rGS383t9/NH3IuTk5OFp23mcfM63LYb3VvdXX0I+n82KTxo2Yb3etVfy3v7kRNazUZljMlK+Rg9pw49kaBdLuqRER8k/Xk9826cjXQ01k8rm06FumQHi/Gc/NI8v3jMndpqis3VYmTKPwhy+ksrt1UKZw6Ay+Zl5NaXrzxXWUSK6lNvawWkvVlZZPw0F581LEK5/WFRzSEpetNJ9zKsz7Ws1211PWPRTmFOvb2xJffv4r/Xv5+Ja4vr77+9vlX8fHy19+64sP51Xk5Bxfpqi0fHJWiiSQUcRglIphN0nkwEFlJk1g48SBNXrxgVMLjqu+Vn2c7s1MX/fKLSySTWRSIqRPF8sIPnaTmqCV/Nx3KZ+f62blSnVmcoj2TXd5CkePH7VZ6eco/s3DPgr2248qhM/MTMY3CdA2TO3Wx89PhYbd7fr6z5cIzwAEOcIADHOAABzjAAQ5wgPP3xBHxbJL+E1i4Up0UrjNXRJF0QQMa0IAGNKABDWhAAxrQgAY0+TT32aNZf6Lp+zMJHOAABzjAAQ5wgAMc4AAHOMDZBOfpu4GW+m7g9Yz6bmDLyn5hOz3d3z86AilIQQpSkIIUpCAFKUhBClKQghSkb4PUzkidhCJtZqStlm0fdkAKUpCCFKQgBSlIQQpSkIIUpCAF6dsgbSnSi8gjSO2jjNSyDg5aLZCCFKQgBSlIQQpSkIIUpCAFKUhB+jZI9xXp1/GMIj3MSI/So/0epCAFKUhBClKQghSkIAUpSEEKUpC+DdK2Iv2PdCnSg4z07KzbPTgAKUhBClKQghSkIAUpSEEKUpCCFKRvg7ST/ZeJmaRIOxlpt9vpgBSkIAUpSEEKUpCCFKQgBSlIQQrSt0J6oEg/hVRlQbudkR4e2na7DVKQghSkIAUpSEEKUpCCFKQgBSlIKyNdobiRc18rdPZgJl7iy+uxM5VmIh+S2s6HcBbFxRjzv7Y88yYyiL0w8GWceShwsbcnTl1XOCLzJO69ZCzicCKF2ypoGd+NTGc6lYFbM5S2sVvQYHWYTpJENePBqItOU7PRPG1kl28UJ3NfLvAaTjAYh1Ha3vDlUIN26WMYBknjXnqjcaJ89EPfLe9jMTbX08anmZ/0un46R3t270vopn9++9yzehcfr3q2uJ7HjZa48KOGJa4H48aZ+PDFH0ySRhBG6bh8+yw+n3ffq8sSOREt8eX6m7gcDNS1O7t5I/1uLx5E3jT5F3nNuz3Xu3vZTLahnaW+hOeeGAMVBt205xwvkFHPOmgaIuvPE8P14qnvzI+9wE9tjb4fDn78YtCAqdfFPYhkPk3bqy7du3XunMXZ3JbquHMiNWXFiXC9ydSXZiDvr+9GNeOnFyDrYr/ZzP4ojEHl13USJ3V884fhO33pG8eGK4dOOtRiGoVDz5dGfWHpPRjHltmsG3eOP5PLvw/UUpW2SVefbvf83Hisl/JjM/lpMfnZZ/LTZvLTYfJzwOTnkMnPEZMfq8nliGtGW1xT2uKa0xbXpLa4ZrXFNa0trnltcU1si2tm21wz22Zbq7lmts01s22tmS3i2WSy9u3qUjtaJF0NN2Qf6bkhe0jPDdk/em7IuNdzQ0a9nhsy5vXckBGv54aMdz039Eam6YdpHtPbmKYfpplMb2KafpjmMr2Fafphms30Bqbph2k+09uXph+udZlpPtN7l6af8vP53gsS/W2rr06V90N2j6Yfsns0/ZDdo+mHDHdNP2S4a/ohw13TDxnumn7IcNf0Q+9fuo64ZjS9g+k64prT9B6m64hrVtO7mK4jrnlN72O6jrhmNr2T6TpiW6u5Zja9mek6Kj+zn37MKPzYMLXNNdf+obf4GjGDhL19idb2Jfa3L9HevkRn+xIH25c43L7E0fYl1nb2bWlUEN9WBQFuVRDhVgUhblUQ41YFQW5VEOVWBWFuVRDndgVxblexj1cQ53YFcW5vFueF33Qsl1YtPvrIIEGPBpsEPRhsEvRYsEnQSy6bBL3isknQCy6bBL3esknQyy2bRE5axadRQXznpFV8GhVEeE5axadRQYznpFV8GhVEeU5axadRQZznpFV8GlXs4xXEeU5axaexWZwXfjqrXFq1+LYWgwQ9GmwS9GCwSdBjwSZBL7lsEvSKyyZBL7hsEvR6yyZBL7dsEjkPBPJp0E9U8WnQD1vxadDPYfFp0I9o8WnQzyXyadCPLPJp0E8z8mnQDzryaVQQ5zmPR/JpVBDnOQ9V8mlUsJPnpFV5GoVfKCmXVi0+YcIgQadVbBL0YLBJ0GPBJkGnVWwSdFrFJkGnVWwSdFrFJkEvt2wSOWkVnwa93PJp0MstnwadVvFp0GkVnwadVvFp0GkVnwadVvFp0GkVn0YFcZ6TVvFpVBDnOWkVn0YFO3lOWpWnUVgIvlxatagUzyBBp1VsEvRgsEnQY8EmQadVbBJ0WsUmQadVbBJ0WsUmQS+3bBI5aRWfBr3c8mnQyy2fBp1W8WnQaRWfBp1W8WnQaRWfBp1W8WnQaRWfRgVxnpNW8WlUEOc5aRWfRgU7eU5aladRWG+3XFq1KMjLIEGnVWwS9GCwSdBjwSZBp1VsEnRaxSZBp1VsEnRaxSZBL7dsEjlpFZ8GvdzyadDLLZ8GnVbxadBpFZ8GnVbxadBpFZ8GnVbxadBpFZ9GBXGek1bxaVQQ5zlpFZ9GBTt5TlqVp1FY1rBcWrWoe8ggQadVbBL0YLBJ0GPBJkGnVWwSdFrFJkGnVWwSdFrFJkEvt2wSucXWuDTyqlVxaeQVsuLSyKtxxaWRV/6KSyOv5huXRl45OC6NvEpxXBp5ReS4NCqI89zSc1waFcR5bsE6Lo0KdvKctGql8b1MhddlRWdxIgJ5v6ogmxWOrcV3o3pWAbawVOyqLHQsk/fhLHDjWrtZF5bVrouW+pvdLldu9iHFeKp27bpdJ5GjMJqfPnjxoqzy0/2XqD2dOriMXBldzVSV49INFcd8neOTdOJZJBcYqlDzst+3XPcbZphhhhlmmGGGGWaYYYYZZphhhhlmmGGGGWaYYYYZZphhhhlmmGGGGWaYYYYZZphhhhlmmGGGGWaYYYYZZphhhhlmmGGGGea/lXluhncyijxXfnLUi7WW2Xzl+6rq1dh4/dXYaxl5Ml6+XmvUVy8QT/0wMX0vkIWvyMYvvadb/GZtbGafnp+GvpN4YZBCGXEip42+HIaRNMq9+fxRjmTgrt/Q4lyt06yLlnpzualeZFZ/GL4cJgqswPXKrdkbyeQ8SFT/pBLDWTDISGu74o8CFytC+dT6pvBdbnV4Q1FLxl5sxtmolBNSx7NGZtp/585gXPsfsK63Fb56dTxlX/rtTcPYUw7P0tNl7mZ1KDcvUEXhvR7SCssLXKnioWHVNVuvjttNGw496av5Vlv26SJORlE4m0pX/Pyz+Mfy/IPZGzvx8v13FWC7z63zF61ph5jOaHShNExfBqNkLN4JW/xbGKe+b4jj9Sti3xvIWsPavWl+3y2Mt7/cSRiJ2m16K81fxG0qs5yqS1117p/piqM/QOpQ03jp7+b2u/lDzsXJycmi8zbzmHldDvut7q2ujn4knR+bNH7UbKN7veqv5d2dqGmtJsNypmSFHMyeE8feKJBuV5WIiG+ynvy+WVeuBno6i8e1TcciHdLjxXhuHkm+f1zmLk115aYqcRKFP2Q5ncW1myqFU2fgJfNyUsuLN76rTGIltamX1UKyvqxsEh7ai486VuG8vvCIhrB0vemEW3nWx3q2q5a6/rEop1DH3p748vtX8d/L36/E9eXV198+/yo+Xv76W1d8OL86L+fgIl215YOjUjSRhCIOo0QEs0k6DwYiK2kSCycepMmLF4xKeFz1vfLzbGd26qJffnGJZDKLAjF1olhe+KGT1By15O+mQ/nsXD87V6ozi1O0Z7LLWyhy/LjdSi9P+WcW7lmw13ZcOXRmfiKmUZiuYXKnLnZ+Ojzsds/Pd7ZceAY4wAEOcIADHOAABzjAAQ5w/p44Ip5N0n8CC1eqk8J15oooki5oQAMa0IAGNKABDWhAAxrQgCaf5j57NOtPNH1/JoEDHOAABzjAAQ5wgAMc4AAHOJvgPH030FLfDbyeUd8NbFnZL2ynp/v7R0cgBSlIQQpSkIIUpCAFKUhBClKQgvRtkNoZqZNQpM2MtNWy7cMOSEEKUpCCFKQgBSlIQQpSkIIUpCB9G6QtRXoReQSpfZSRWtbBQasFUpCCFKQgBSlIQQpSkIIUpCAFKUjfBum+Iv06nlGkhxnpUXq034MUpCAFKUhBClKQghSkIAUpSEEK0rdB2lak/5EuRXqQkZ6ddbsHByAFKUhBClKQghSkIAUpSEEKUpCC9G2QdrL/MjGTFGknI+12Ox2QghSkIAUpSEEKUpCCFKQgBSlIQfpWSA8U6aeQqixotzPSw0PbbrdBClKQghSkIAUpSEEKUpCCFKQgBWllpCsUN3Lua4XOHszES3x5PXam0kzkQ1Lb+RDOorgYY/7XlmfeRAaxFwa+jDMPBS729sSp6wpHZJ7EvZeMRRxOpHBbBS3ju5HpTKcycGuG0jZ2CxqsDtNJkqhmPBh10WlqNpqnjezyjeJk7ssFXsMJBuMwStsbvhxq0C59DMMgadxLbzROlI9+6LvlfSzG5nra+DTzk17XT+doz+59Cd1eq/ftc8/qXXy86lnieh43WuLCjxq2uB6MG2fiwxd/MEkaQRil4/Lts/h83n2vLkvkRLTEl+tv4nIwUNfu7OaN9Lu9eBB50+Rf5DXv9lzv7mUz2YZ2lvoSnntiDFQYdNOec7xARj3rwDJE1p8nhuvFU9+ZH3uBn9oafT8c/PjFoAFTr4t7EMl8mrZXXbp369w5i7O5LdVx50RqyooT4XqTqS/NQN5f341qxk8vQNbFfrOZ/VEYg8qv6yRO6vjmD8N3+tI3jg1XDp10qMU0CoeeL436wtJ7MI4ts1k37hx/Jpd/H6ilKm2Trj7d7vm58Vgv5cdm8tNi8rPP5KfN5KfD5OeAyc8hk58jJj9Wk8sR14y2uKa0xTWnLa5JbXHNaotrWltc89rimtgW18y2uWa2zbZWc81sm2tm21ozW8SzyWTt29WldrRIuhpuyD7Sc0P2kJ4bsn/03JBxr+eGjHo9N2TM67khI17PDRnvem7ojUzTD9M8prcxTT9MM5nexDT9MM1legvT9MM0m+kNTNMP03ymty9NP1zrMtN8pvcuTT/l5/O9FyT621ZfnSrvh+weTT9k92j6IbtH0w8Z7pp+yHDX9EOGu6YfMtw1/ZDhrumH3r90HXHNaHoH03XENafpPUzXEdespncxXUdc85rex3Qdcc1seifTdcS2VnPNbHoz03VUfmY//ZhR+LFhaptrrv1Db/E1YgYJe/sSre1L7G9for19ic72JQ62L3G4fYmj7Uus7ezb0qggvq0KAtyqIMKtCkLcqiDGrQqC3Kogyq0KwtyqIM7tCuLcrmIfryDO7Qri3N4szgu/6VgurVp89JFBgh4NNgl6MNgk6LFgk6CXXDYJesVlk6AXXDYJer1lk6CXWzaJnLSKT6OC+M5Jq/g0KojwnLSKT6OCGM9Jq/g0KojynLSKT6OCOM9Jq/g0qtjHK4jznLSKT2OzOC/8dFa5tGrxbS0GCXo02CTowWCToMeCTYJectkk6BWXTYJecNkk6PWWTYJebtkkch4I5NOgn6ji06AftuLToJ/D4tOgH9Hi06CfS+TToB9Z5NOgn2bk06AfdOTTqCDOcx6P5NOoIM5zHqrk06hgJ89Jq/I0Cr9QUi6tWnzChEGCTqvYJOjBYJOgx4JNgk6r2CTotIpNgk6r2CTotIpNgl5u2SRy0io+DXq55dOgl1s+DTqt4tOg0yo+DTqt4tOg0yo+DTqt4tOg0yo+jQriPCet4tOoIM5z0io+jQp28py0Kk+jsBB8ubRqUSmeQYJOq9gk6MFgk6DHgk2CTqvYJOi0ik2CTqvYJOi0ik2CXm7ZJHLSKj4Nernl06CXWz4NOq3i06DTKj4NOq3i06DTKj4NOq3i06DTKj6NCuI8J63i06ggznPSKj6NCnbynLQqT6Ow3m65tGpRkJdBgk6r2CTowWCToMeCTYJOq9gk6LSKTYJOq9gk6LSKTYJebtkkctIqPg16ueXToJdbPg06reLToNMqPg06reLToNMqPg06reLToNMqPo0K4jwnreLTqCDOc9IqPo0KdvKctCpPo7CsYbm0alH3kEGCTqvYJOjBYJOgx4JNgk6r2CTotIpNgk6r2CTotIpNgl5u2SRyi61xaeRVq+LSyCtkxaWRV+OKSyOv/BWXRl7NNy6NvHJwXBp5leK4NPKKyHFpVBDnuaXnuDQqiPPcgnVcGhXs5Dlp1Urje5kKr8uKzuJEBPJ+VUE2Kxxbi+9G9awCbGGp2FVZ6Fgm78NZ4Ma1drMuLKtdFy31N7tdrtzsQ4rxVO3adbtOIkdhND998OJFWeWn+y9Rezp1cBm5MrqaqSrHpRsqjvk6xyfpxLNILjBUoeZlv2+57jfMMMMMM8wwwwwzzDDDDDPMMMMMM8wwwwwzzDDDDDPMMMMMM8wwwwwzzDDDDDPMMMMMM8wwwwwzzDDDDDPMMMMMM8wwwwwzzH8r89wM72QUea785KgXay2z+cr3VdWrsfH6q7HXMvJkvHy91qivXiCe+mFi+l4gC1+RjV96T7f4zdrYzD49Pw19J/HCIIUy4kROG305DCNplHvz+aMcycBdv6HFuVqnWRct9eZyU73IrP4wfDlMFFiB65VbszeSyXmQqP5JJYazYJCR1nbFHwUuVoTyqfVN4bvc6vCGopaMvdiMs1EpJ6SOZ43MtP/OncG49j9gXW8rfPXqeMq+9NubhrGnHJ6lp8vczepQbl6gisJ7PaQVlhe4UsVDw6prtl4dt5s2HHrSV/OttuzTRZyMonA2la74+Wfxj+X5B7M3duLl++8qwHafW+cvWtMOMZ3R6EJpmL4MRslYvBO2+LcwTn3fEMfrV8S+N5C1hrV70/y+Wxhvf7mTMBK12/RWmr+I21RmOVWXuurcP9MVR3+A1KGm8dLfze1384eci5OTk0XnbeYx87oc9lvdW10d/Ug6PzZp/KjZRvd61V/LuztR01pNhuVMyQo5mD0njr1RIN2uKhER32Q9+X2zrlwN9HQWj2ubjkU6pMeL8dw8knz/uMxdmurKTVXiJAp/yHI6i2s3VQqnzsBL5uWklhdvfFeZxEpqUy+rhWR9WdkkPLQXH3Wswnl94RENYel60wm38qyP9WxXLXX9Y1FOoY69PfHl96/iv5e/X4nry6uvv33+VXy8/PW3rvhwfnVezsFFumrLB0elaCIJRRxGiQhmk3QeDERW0iQWTjxIkxcvGJXwuOp75efZzuzURb/84hLJZBYFYupEsbzwQyepOWrJ302H8tm5fnauVGcWp2jPZJe3UOT4cbuVXp7yzyzcs2Cv7bhy6Mz8REyjMF3D5E5d7Px0eNjtnp/vbLnwDHCAAxzgAAc4wAEOcIADHOD8PXFEPJuk/wQWrlQnhevMFVEkXdCABjSgAQ1oQAMa0IAGNKABTT7NffZo1p9o+v5MAgc4wAEOcIADHOAABzjAAQ5wNsF5+m6gpb4beD2jvhvYsrJf2E5P9/ePjkAKUpCCFKQgBSlIQQpSkIIUpCAF6dsgtTNSJ6FImxlpq2Xbhx2QghSkIAUpSEEKUpCCFKQgBSlIQfo2SFuK9CLyCFL7KCO1rIODVgukIAUpSEEKUpCCFKQgBSlIQQpSkL4N0n1F+nU8o0gPM9Kj9Gi/BylIQQpSkIIUpCAFKUhBClKQghSkb4O0rUj/I12K9CAjPTvrdg8OQApSkIIUpCAFKUhBClKQghSkIAXp2yDtZP9lYiYp0k5G2u12OiAFKUhBClKQghSkIAUpSEEKUpCC9K2QHijSTyFVWdBuZ6SHh7bdboMUpCAFKUhBClKQghSkIAUpSEEK0spIVyhu5NzXCp09mImX+PJ67EylmciHpLbzIZxFcTHG/K8tz7yJDGIvDHwZZx4KXOztiVPXFY7IPIl7LxmLOJxI4bYKWsZ3I9OZTmXg1gylbewWNFgdppMkUc14MOqi09RsNE8b2eUbxcnclwu8hhMMxmGUtjd8OdSgXfoYhkHSuJfeaJwoH/3Qd8v7WIzN9bTxaeYnva6fztGe3fsSur1W79vnntW7+HjVs8X1PG60xIUfNSxxPRg3zsSHL/5gkjSCMErH5dtn8fm8+15dlsiJaIkv19/E5WCgrt3ZzRvpd3vxIPKmyb/Ia97tud7dy2ayDe0s9SU898QYqDDopj3neIGMetaBbYisP08M14unvjM/9gI/tTX6fjj48YtBA6ZeF/cgkvk0ba+6dO/WuXMWZ3NbquPOidSUFSfC9SZTX5qBvL++G9WMn16ArIv9ZjP7ozAGlV/XSZzU8c0fhu/0pW8cG64cOulQi2kUDj1fGvWFpfdgHFtms27cOf5MLv8+UEtV2iZdfbrd83PjsV7Kj83kp8XkZ5/JT5vJT4fJzwGTn0MmP0dMfqwmlyOuGW1xTWmLa05bXJPa4prVFte0trjmtcU1sS2umW1zzWybba3mmtk218y2tWa2iGeTydq3q0vtaJF0NdyQfaTnhuwhPTdk/+i5IeNezw0Z9XpuyJjXc0NGvJ4bMt713NAbmaYfpnlMb2OafphmMr2Jafphmsv0Fqbph2k20xuYph+m+UxvX5p+uNZlpvlM712afsrP53svSPS3rb46Vd4P2T2afsju0fRDdo+mHzLcNf2Q4a7phwx3TT9kuGv6IcNd0w+9f+k64prR9A6m64hrTtN7mK4jrllN72K6jrjmNb2P6Trimtn0TqbriG2t5prZ9Gam66j8zH76MaPwY8PUNtdc+4fe4mvEDBL29iVa25fY375Ee/sSne1LHGxf4nD7Ekfbl1jb2belUUF8WxUEuFVBhFsVhLhVQYxbFQS5VUGUWxWEuVVBnNsVxLldxT5eQZzbFcS5vVmcF37TsVxatfjoI4MEPRpsEvRgsEnQY8EmQS+5bBL0issmQS+4bBL0essmQS+3bBI5aRWfRgXxnZNW8WlUEOE5aRWfRgUxnpNW8WlUEOU5aRWfRgVxnpNW8WlUsY9XEOc5aRWfxmZxXvjprHJp1eLbWgwS9GiwSdCDwSZBjwWbBL3ksknQKy6bBL3gsknQ6y2bBP1sFJtEzgOBfBr0E1V8GvTDVnwa9HNYfBr0I1p8GvRziXwa9COLfBr004x8GvSDjnwaFcR5TlrFp1HFPl7BRp6TVvFpbLaVF36hpFxatfiECYMEPRpsEvRgsEnQY8EmQadVbBJ0WsUmQadVbBJ0WsUmQS+3bBI5aRWfBp1W8WnQaRWfBp1W8WnQaRWfBp1W8WnQaRWfBp1W8WnQaRWfRgVxnpNW8WlUsY9XsJHnpFV8Gptt5YWF4MulVYtK8QwS9GiwSdCDwSZBjwWbBJ1WsUnQaRWbBJ1WsUnQaRWbBL3csknkpFV8GnRaxadBp1V8GnRaxadBp1V8GnRaxadBp1V8GnRaxadBp1V8GhXEeU5axadRxT5ewUaek1bxaWy2lRfW2y2XVi0K8jJI0KPBJkEPBpsEPRZsEnRaxSZBp1VsEnRaxSZBp1VsEvRyyyaRk1bxadBpFZ8GnVbxadBpFZ8GnVbxadBpFZ8GnVbxadBpFZ8GnVbxaVQQ5zlpFZ9GFft4BRt5TlrFp7HZVl5Y1rBcWrWoe8ggQY8GmwQ9GGwS9FiwSdBpFZsEnVaxSdBpFZsEnVaxSeTVnWKSyC22xqWRV62KSyOvkBWXRl6NKy6NvPJXXBp5Nd+4NPLKwXFp5FWK49LIKyLHpVFBnOekVXwaVezjFWzkOWkVn0bxVv69TIXXZUVncSICeb+qIJsVjq3Fd6N6VgG2sFTsqix0LJP34Sxw41q7WReW1a6Llvqb3S5XbvYhxXiqdu26XSeRozCanz548aKs8tP9l6g9nTq4jFwZXc1UlePSDRXHfJ3jk3TiWSQXGKpQ87Lft1z3G2aYYYYZZphhhhlmmGGGGWaYYYYZZphhhhlmmGGGGWaYYYYZZphhhhlmmGGGGWaYYYYZZphhhhlmmGGGGWaYYYYZZphhhhnmv5V5boZ3Moo8V35y1Iu1ltl85fuq6tXYeP3V2GsZeTJevl5r1FcvEE/9MDF9L5CFr8jGL72nW/xmbWxmn56fhr6TeGGQQhlxIqeNvhyGkTTKvfn8UY5k4K7f0OJcrdOsi5Z6c7mpXmRWfxi+HCYKrMD1yq3ZG8nkPEhU/6QSw1kwyEhru+KPAhcrQvnU+qbwXW51eENRS8ZebMbZqJQTUsezRmbaf+fOYFz7H7CutxW+enU8ZV/67U3D2FMOz9LTZe5mdSg3L1BF4b0e0grLC1yp4qFh1TVbr47bTRsOPemr+VZb9ukiTkZROJtKV/z8s/jH8vyD2Rs78fL9dxVgu8+t8xetaYeYzmh0oTRMXwajZCzeCVv8Wxinvm+I4/UrYt8byFrD2r1pft8tjLe/3EkYidpteivNX8RtKrOcqktdde6f6YqjP0DqUNN46e/m9rv5Q87FycnJovM285h5XQ77re6tro5+JJ0fmzR+1Gyje73qr+XdnahprSbDcqZkhRzMnhPH3iiQbleViIhvsp78vllXrgZ6OovHtU3HIh3S48V4bh5Jvn9c5i5NdeWmKnEShT9kOZ3FtZsqhVNn4CXzclLLize+q0xiJbWpl9VCsr6sbBIe2ouPOlbhvL7wiIawdL3phFt51sd6tquWuv6xKKdQx96e+PL7V/Hfy9+vxPXl1dffPv8qPl7++ltXfDi/Oi/n4CJdteWDo1I0kYQiDqNEBLNJOg8GIitpEgsnHqTJixeMSnhc9b3y82xnduqiX35xiWQyiwIxdaJYXvihk9QcteTvpkP57Fw/O1eqM4tTtGeyy1socvy43UovT/lnFu5ZsNd2XDl0Zn4iplGYrmFypy52fjo87HbPz3e2XHgGOMABDnCAAxzgAAc4wAEOcP6eOCKeTdJ/AgtXqpPCdeaKKJIuaEADGtCABjSgAQ1oQAMa0IAmn+Y+ezTrTzR9fyaBAxzgAAc4wAEOcIADHOAABzib4Dx9N9BS3w28nlHfDWxZ2S9sp6f7+0dHIAUpSEEKUpCCFKQgBSlIQQpSkIL0bZDaGamTUKTNjLTVsu3DDkhBClKQghSkIAUpSEEKUpCCFKQgfRukLUV6EXkEqX2UkVrWwUGrBVKQghSkIAUpSEEKUpCCFKQgBSlI3wbpviL9Op5RpIcZ6VF6tN+DFKQgBSlIQQpSkIIUpCAFKUhBCtK3QdpWpP+RLkV6kJGenXW7BwcgBSlIQQpSkIIUpCAFKUhBClKQgvRtkHay/zIxkxRpJyPtdjsdkIIUpCAFKUhBClKQghSkIAUpSEH6VkgPFOmnkKosaLcz0sND2263QQpSkIIUpCAFKUhBClKQghSkIAVpZaQrFDdy7muFzh7MxEt8eT12ptJM5ENS2/kQzqK4GGP+15Zn3kQGsRcGvowzDwUu9vbEqesKR2SexL2XjEUcTqRwWwUt47uR6UynMnBrhtI2dgsarA7TSZKoZjwYddFpajaap43s8o3iZO7LBV7DCQbjMErbG74catAufQzDIGncS280TpSPfui75X0sxuZ62rgcDr2BjHvfPves3sXHq54lrudxoyUu/Khhi+vBuHEqPnzxB5OkEYezdDC+fRafz7vv1WWJnIiW+HL9TVwOBurand284X23Fw8ib5r8i7zm3Z7r3b1sJtvQzlJfwnNPjIGa+920uxwvkFHPOmgZIuvEE8P14qnvzI+9wE9tjb4fDn78YtCAqdfFPYhkPk3bq37cu3XunMXZ3JbquHMiNU/FiXC9ydSXZiDvr+9GNeOnFyDrYr/ZzP4oDDzl13USJ3V884fhO33pG8eGK4fOzE/ENAqHni+N+sLSezCOLbNZN+4cfyaXfx+o9Sltky453e75ufFYL+XHZvLTYvKzz+SnzeSnw+TngMnPIZOfIyY/VpPLEdeMtrimtMU1py2uSW1xzWqLa1pbXPPa4prYFtfMtrlmts22VnPNbJtrZttaM1vEs8lk7YPVpXa0SLoabsg+0nND9pCeG7J/9NyQca/nhox6PTdkzOu5ISNezw0Z73pu6I1M0w/TPKa3MU0/TDOZ3sQ0/TDNZXoL0/TDNJvpDUzTD9N8prcvTT9c6zLTfKb3Lk0/5efzvRck+ttWX50q74fsHk0/ZPdo+iG7R9MPGe6afshw1/RDhrumHzLcNf2Q4a7ph96/dB1xzWh6B9N1xDWn6T1M1xHXrKZ3MV1HXPOa3sd0HXHNbHon03XEtlZzzWx6M9N1VH5mP/2CUfiFYWqba679Q2/xCWIGCXv7Eq3tS+xvX6K9fYnO9iUOti9xuH2Jo+1LrO3s29KoIL6tCgLcqiDCrQpC3Kogxq0KgtyqIMqtCsLcqiDO7Qri3K5iH68gzu0K4tzeLM4LP+RYLq1afOmRQYIeDTYJejDYJOixYJOgl1w2CXrFZZOgF1w2CXq9ZZOgl1s2iZy0ik+jgvjOSav4NCqI8Jy0ik+jghjPSav4NCqI8py0ik+jgjjPSav4NKrYxyuI85y0ik9jszgv/F5WubRq8UEtBgl6NNgk6MFgk6DHgk2CXnLZJOgVl02CXnDZJOj1lk2CfjaKTSLngUA+DfqJKj4N+mErPg36OSw+DfoRLT4N+rlEPg36kUU+DfppRj4N+kFHPo0K4jwnreLTqGIfr2Ajz0mr+DQ228oLP0tSLq1afLeEQYIeDTYJejDYJOixYJOg0yo2CTqtYpOg0yo2CTqtYpOgl1s2iZy0ik+DTqv4NOi0ik+DTqv4NOi0ik+DTqv4NOi0ik+DTqv4NOi0ik+jgjjPSav4NKrYxyvYyHPSKj6Nzbbywurv5dKqRXl4Bgl6NNgk6MFgk6DHgk2CTqvYJOi0ik2CTqvYJOi0ik2CXm7ZJHLSKj4NOq3i06DTKj4NOq3i06DTKj4NOq3i06DTKj4NOq3i06DTKj6NCuI8J63i06hiH69gI89Jq/g0NtvKC4vslkurFlV4GSTo0WCToAeDTYIeCzYJOq1ik6DTKjYJOq1ik6DTKjYJerllk8hJq/g06LSKT4NOq/g06LSKT4NOq/g06LSKT4NOq/g06LSKT4NOq/g0KojznLSKT6OKfbyCjTwnreLT2GwrL6xlWC6tWhQ7ZJCgR4NNgh4MNgl6LNgk6LSKTYJOq9gk6LSKTYJOq9gk8upOMUnkFlvj0sirVsWlkVfIiksjr8YVl0Ze+Ssujbyab1waeeXguDTyKsVxaeQVkePSqCDOc9IqPo0q9vEKNvKctIpPo3gr/16mwuuyjLM4EYG8X1WQzQrH1uK7UT2rAFtYKnZVCzqWyftwFrhxrd2sC8tq10VL/c1ulys3+5BiPJW4dt2uk8hRGM1PH7x4UUv56f5LFJxOHVxGroyuZqq0cemGimO+zvFJOvEskgsMVZ152e9bLvYNM8wwwwwzzDDDDDPMMMMMM8wwwwwzzDDDDDPMMMMMM8wwwwwzzDDDDDPMMMMMM8wwwwwzzDDDDDPMMMMMM8wwwwwzzDDDDPPfyjw3wzsZRZ4rPznqxVrLbL7yfVX1amy8/mrstYw8GS9frzXqqxeIp36YmL4XyMJXZOOX3tMtfrM2NrNPz09D30m8MEihjDiR00ZfDsNIGuXefP4oRzJw129oca7WadZFS7253FQvMqs/DF8OEwVW4Hrl1uyNZHIeJKp/UonhLBhkpLVd8UeBixWhfGp9U/gutzq8oaglYy8242xUygmp41kjM+2/c2cwrv0PWNfbCl+9Op6yL/32pmHsKYdn6ekyd7M6lJsXqKLwXg9pheUFrlTx0LDqmq1Xx+2mDYee9NV8qy37dBEnoyicTaUrfv5Z/GN5/sHsjZ14+f67CrDd59b5i9a0Q0xnNLpQGqYvg1EyFu+ELf4tjFPfN8Tx+hWx7w1krWHt3jS/7xbG21/uJIxE7Ta9leYv4jaVWU7Vpa469890xdEfIHWoabz0d3P73fwh5+Lk5GTReZt5zLwuh/1W91ZXRz+Szo9NGj9qttG9XvXX8u5O1LRWk2E5U7JCDmbPiWNvFEi3q0pExDdZT37frCtXAz2dxePapmORDunxYjw3jyTfPy5zl6a6clOVOInCH7KczuLaTZXCqTPwknk5qeXFG99VJrGS2tTLaiFZX1Y2CQ/txUcdq3BeX3hEQ1i63nTCrTzrYz3bVUtd/1iUU6hjb098+f2r+O/l71fi+vLq62+ffxUfL3/9rSs+nF+dl3Nwka7a8sFRKZpIQhGHUSKC2SSdBwORlTSJhRMP0uTFC0YlPK76Xvl5tjM7ddEvv7hEMplFgZg6USwv/NBJao5a8nfToXx2rp+dK9WZxSnaM9nlLRQ5ftxupZen/DML9yzYazuuHDozPxHTKEzXMLlTFzs/HR52u+fnO1suPAMc4AAHOMABDnCAAxzgAAc4f08cEc8m6T+BhSvVSeE6c0UUSRc0oAENaEADGtCABjSgAQ1oQJNPc589mvUnmr4/k8ABDnCAAxzgAAc4wAEOcIADnE1wnr4baKnvBl7PqO8GtqzsF7bT0/39oyOQghSkIAUpSEEKUpCCFKQgBSlIQfo2SO2M1Eko0mZG2mrZ9mEHpCAFKUhBClKQghSkIAUpSEEKUpC+DdKWIr2IPILUPspILevgoNUCKUhBClKQghSkIAUpSEEKUpCCFKRvg3RfkX4dzyjSw4z0KD3a70EKUpCCFKQgBSlIQQpSkIIUpCAF6dsgbSvS/0iXIj3ISM/Out2DA5CCFKQgBSlIQQpSkIIUpCAFKUhB+jZIO9l/mZhJirSTkXa7nQ5IQQpSkIIUpCAFKUhBClKQghSkIH0rpAeK9FNIVRa02xnp4aFtt9sgBSlIQQpSkIIUpCAFKUhBClKQgrQy0hWKGzn3tUJnD2biJb68HjtTaSbyIantfAhnUVyMMf9ryzNvIoPYCwNfxpmHAhd7e+LUdYUjMk/i3kvGIg4nUritgpbx3ch0plMZuDVDaRu7BQ1Wh+kkSVQzHoy66DQ1G83TRnb5RnEy9+UCr+EEg3EYpe0NXw41aJc+hmGQNO6lNxonykc/9N3yPhZjcz1tXA6H3kDGvW+fe1bv4uNVzxbX87jREhd+1LDE9WDcOBUfvviDSdKIw1k6GN8+i8/n3ffqskROREt8uf4mLgcDde3Obt7wvtuLB5E3Tf5FXvNuz/XuXjaTbWhnqS/huSfGQM39btpdjhfIqGcd7Bsi68QTw/Xiqe/Mj73AT22Nvh8Ofvxi0ICp18U9iGQ+Tdurfty7de6cxdncluq4cyI1T8WJcL3J1JdmIO+v70Y146cXIOtiv9nM/igMPOXXdRIndXzzh+E7fekbx4Yrh87MT8Q0CoeeL436wtJ7MI4ts1k37hx/Jo3jzpF59Ow4PKobA7VapR7SBajbPT83HuulvNpb8draitf9rXhtb8VrZyteD7bi9XArXo+24tVqbsftdqLL2k54WduJL2s7AWZtJ8Ks7YSYtZ0Ys7YTZNZ2oszeTpTZW9rDthNl9naizH5FlIl4NpmsfQB8gwwhkq6G05J9q+e0ZM/qOS3Zr3pOS65dek5Lrlx6TkuuW3pOS65aek5Lrll6TssmBppetxJTZdMCTa9biaqySYGm163EVdmUQNPrViKrbEKg6XUrsVU2HdD0up39aiuxVTYX0PS6aWzde0Hy2jSgry4o77Vkt2p6Ldmtml5Ldqum15JLlqbXkkuWpteSS5am15JLlqbXkkuWptey+YCu2+1EV9mMQNftduKrbE6g63Y7EVY2K9B1u50YK5sX6LrdTpSVzQx03W5pD9tOlJVNDnTdakXZ9zI/OCx/VRQnIpD3qx80st8xavHdqJ79IFH4y8Xqp8lYJu/DWeDGtXazLiyrXRct9Te7Xe7Xj4cU4+kXV9ftOokchdH89MGLFz/tPXVFid8/UweXkSujq5n6pa10Q8UxX+f4JJ14FskFhvqxcDkEr/1FN/shaV3qWkaejJe4qdJyQKZ+mJjq161Cyfil+y4mjc1s3k1D30m8MEihjDiR00ZfDsNIGuVm0kc5koG7fkOLc7VOOgtaaiaoH8Ms9cfyB9PC35JXbs3eSCbnQaL6J5UYzoJBRlrbFX+U+MVUEcqn1jeFsaEObyhqydiL03mt2pUTUsezRmbaf+fOYFz7H7CutxX+8rfBpd/eNIw95fAsPV3mblaHcvMCVRTe6yGtsLzAlSpwG1Zds/XquN204dCTvppvtWWfLuJkFIWzqXTFzz+LfyzPP5i9sRMv1xMVYLvPrfMXrWmHmM5odKE0TF8Go2Qs3glb/FsYp75viOP1K2LfG8haw9q9aX7fLYy3v9xJGInabXorzV/EbSqznKpLXXXunyfC0h8gdahpvPR3c/vd/CHT5e3kZNF5m3nMvC6H/Vb3VldHP5LOj00aP2q20b1e9dfy7k7UtFaTYTlTso3R7C2eBpJu9jxQfJP15PfNunI10NNZPK5tOhbpkB4vxnPzSPL94zJ3aaorN1WJkyj8IcvpLK7dVCmcOgMvmZeTWl688V1lEiupTb2sFpL1ZWWT8NBefNSxCuf1hUc0hKXrTSfcyrM+1rNdtdT1j0U5hTr29sSX37+K/17+fiWuL6++/vb5V/Hx8tffuuLD+dV5OQcX6aotHxyVookkFHGYJtLBbJLOg4HIUsRYOPEgTV68YFTC46rvlZ9nO7NTF/3yi0skk1kUiKkTxfLCD52k5qglfzcdymfn+tm5Up1ZnKI9k13eQpHjx/+Dpzb/9APs8tFM9YPq/8lDpMABDnCAAxzgAAc4wAEOcIDz5nH++oCLIoqkCxrQgAY0oAENaEADGtCABjSgyaf5yyOBikY94gcc4AAHOMABDnCAAxzgAAc4wPk/rJX4VU6mMnKSWSRF7WIX1RL/n6qW+B9HzbgPMvuf00nfk0Ei1JCpyofSnaX93xAHzYs3UgSx/RaKILYrK4KYvXq6aREmJj8tJj/7TH7aTH46TH4OmPwcMvk5YvKzVl3gVY64ZrTFNaUtrjltcU1qi2tWW1zT2uKa1xbXxLa4ZrbNNbNttrWaa2bbXDPb1prZ5Yv2rbnavEzfK9yQPbR5Kb5XuCHjfvNye69wQ8b85iX1XuGGjPdXlM17jR+meUxvY68ohvcaP0xTmd7DXlHi7jV+mGYzvYG9onDda9ZBpvlM716vKEf3Gj9M85neujYvMrfm5hVl5V7jh+yeV5SOe40fMtxfUR7uNX7IcH9FCbjX+CHD/TVl3l7liGtG0zvYa4q3vcoR16SmN7HXlGR7lSOueU3vY68ptPaqlZFrZtNb2WvKp73KEdfMpnczFEV7E0XRYIYZZphhhhlmmGGGGWaYYYYZZphh/n/JPDfDOxlFnis/Oeo/VFlmE0Xxn90JiuI/HSiKr3WgKD6K4mscKIr/5wNF8f98oCi+5oGi+CiK/+KBovjAAQ5wgAMc4AAHOMABDnCAA5y3UFISNKABDWhAAxrQgAY0oAENaN4Ozf/flLIEDnCAAxzgAAc4wAEOcIADnM31/g+K4p95ExnEXhj4Mo5REv//rZL4YfRDnA+H3sCTwWD+VAi/2hL4y6v/ZHn+/1d/X/zvk/flX57+px+6c/W/42Ti/+v/9/8BuzIdxA=="
               },
               {
                  "name" : "annual_peak_electric_demand",
                  "units" : "kW",
                  "value" : 2675.4901
               },
               {
                  "name" : "first_year_capital_cost",
                  "units" : "$",
                  "value" : 0
               },
               {
                  "name" : "annual_utility_cost",
                  "units" : "$",
                  "value" : 0
               },
               {
                  "name" : "total_lifecycle_cost",
                  "units" : "$",
                  "value" : 0
               }
            ],
            "step_warnings" : [ "A table in Annual Overview section returned false and was skipped." ]
         }
      }
   ],
   "updated_at" : "20170710T190137Z",
   "weather_file" : "USA_CO_Denver.Intl.AP.725650_TMY3.epw"
}
