{
   "completed_at" : "20170710T190440Z",
   "completed_status" : "Success",
   "created_at" : "2017-07-10 19:00:28 +0000",
   "current_step" : 5,
   "description" : "",
   "eplusout_err" : "Program Version,EnergyPlus, Version 8.7.0-78a111df4a, YMD=2017.07.10 19:02,IDD_Version 8.7.0\n   ************* IDF Context for following error/warning message:\n   ************* Note -- lines truncated at 300 characters, if necessary...\n   *************      5 Building,\n   ************* indicated Name=NECB 2011-LargeOffice-NECB HDD Method-CAN_PQ_Riviere.du.Loup.717150_CWEC.epw created: 2017-07-10 19:00:34 +0000\n   ************* Only last 1 lines before error line shown.....\n   *************      6   NECB 2011-LargeOffice-NECB HDD Method-CAN_PQ_Riviere.du.Loup.717150_CWEC.epw created: 2017-07-10 19:00:34 +0000, !- Name\n   ** Warning ** IP: IDF line~6 Alpha Argument length exceeds maximum, will be truncated=  NECB 2011-LargeOffice-NECB HDD Method-CAN_PQ_Riviere.du.Loup.717150_CWEC.epw created: 2017-07-10 19:00:34 +000\n   **   ~~~   ** Will be processed as Alpha=NECB 2011-LARGEOFFICE-NECB HDD METHOD-CAN_PQ_RIVIERE.DU.LOUP.717150_CWEC.EPW CREATED: 2017-07-10 19:00:34 +0000\n   ************* Beginning Zone Sizing Calculations\n   ** Warning ** ProcessScheduleInput: Schedule:Day:Interval=\"ECONOMIZER MAX OA FRACTION 100 PCT DEFAULT\", Blank Schedule Type Limits Name input -- will not be validated.\n   ** Warning ** ProcessScheduleInput: Schedule:Day:Interval=\"SCHEDULE DAY 1\", Blank Schedule Type Limits Name input -- will not be validated.\n   ** Warning ** ProcessScheduleInput: Schedule:Day:Interval=\"SCHEDULE DAY 10\", Blank Schedule Type Limits Name input -- will not be validated.\n   ** Warning ** ProcessScheduleInput: Schedule:Day:Interval=\"SCHEDULE DAY 11\", Blank Schedule Type Limits Name input -- will not be validated.\n   ** Warning ** ProcessScheduleInput: Schedule:Day:Interval=\"SCHEDULE DAY 12\", Blank Schedule Type Limits Name input -- will not be validated.\n   ** Warning ** ProcessScheduleInput: Schedule:Day:Interval=\"SCHEDULE DAY 13\", Blank Schedule Type Limits Name input -- will not be validated.\n   ** Warning ** ProcessScheduleInput: Schedule:Day:Interval=\"SCHEDULE DAY 14\", Blank Schedule Type Limits Name input -- will not be validated.\n   ** Warning ** ProcessScheduleInput: Schedule:Day:Interval=\"SCHEDULE DAY 15\", Blank Schedule Type Limits Name input -- will not be validated.\n   ** Warning ** ProcessScheduleInput: Schedule:Day:Interval=\"SCHEDULE DAY 16\", Blank Schedule Type Limits Name input -- will not be validated.\n   ** Warning ** ProcessScheduleInput: Schedule:Day:Interval=\"SCHEDULE DAY 17\", Blank Schedule Type Limits Name input -- will not be validated.\n   ** Warning ** ProcessScheduleInput: Schedule:Day:Interval=\"SCHEDULE DAY 18\", Blank Schedule Type Limits Name input -- will not be validated.\n   ** Warning ** ProcessScheduleInput: Schedule:Day:Interval=\"SCHEDULE DAY 19\", Blank Schedule Type Limits Name input -- will not be validated.\n   ** Warning ** ProcessScheduleInput: Schedule:Day:Interval=\"SCHEDULE DAY 2\", Blank Schedule Type Limits Name input -- will not be validated.\n   ** Warning ** ProcessScheduleInput: Schedule:Day:Interval=\"SCHEDULE DAY 20\", Blank Schedule Type Limits Name input -- will not be validated.\n   ** Warning ** ProcessScheduleInput: Schedule:Day:Interval=\"SCHEDULE DAY 21\", Blank Schedule Type Limits Name input -- will not be validated.\n   ** Warning ** ProcessScheduleInput: Schedule:Day:Interval=\"SCHEDULE DAY 22\", Blank Schedule Type Limits Name input -- will not be validated.\n   ** Warning ** ProcessScheduleInput: Schedule:Day:Interval=\"SCHEDULE DAY 23\", Blank Schedule Type Limits Name input -- will not be validated.\n   ** Warning ** ProcessScheduleInput: Schedule:Day:Interval=\"SCHEDULE DAY 24\", Blank Schedule Type Limits Name input -- will not be validated.\n   ** Warning ** ProcessScheduleInput: Schedule:Day:Interval=\"SCHEDULE DAY 25\", Blank Schedule Type Limits Name input -- will not be validated.\n   ** Warning ** ProcessScheduleInput: Schedule:Day:Interval=\"SCHEDULE DAY 26\", Blank Schedule Type Limits Name input -- will not be validated.\n   ** Warning ** ProcessScheduleInput: Schedule:Day:Interval=\"SCHEDULE DAY 27\", Blank Schedule Type Limits Name input -- will not be validated.\n   ** Warning ** ProcessScheduleInput: Schedule:Day:Interval=\"SCHEDULE DAY 28\", Blank Schedule Type Limits Name input -- will not be validated.\n   ** Warning ** ProcessScheduleInput: Schedule:Day:Interval=\"SCHEDULE DAY 29\", Blank Schedule Type Limits Name input -- will not be validated.\n   ** Warning ** ProcessScheduleInput: Schedule:Day:Interval=\"SCHEDULE DAY 30\", Blank Schedule Type Limits Name input -- will not be validated.\n   ** Warning ** ProcessScheduleInput: Schedule:Day:Interval=\"SCHEDULE DAY 31\", Blank Schedule Type Limits Name input -- will not be validated.\n   ** Warning ** ProcessScheduleInput: Schedule:Day:Interval=\"SCHEDULE DAY 32\", Blank Schedule Type Limits Name input -- will not be validated.\n   ** Warning ** ProcessScheduleInput: Schedule:Day:Interval=\"SCHEDULE DAY 33\", Blank Schedule Type Limits Name input -- will not be validated.\n   ** Warning ** ProcessScheduleInput: Schedule:Day:Interval=\"SCHEDULE DAY 34\", Blank Schedule Type Limits Name input -- will not be validated.\n   ** Warning ** ProcessScheduleInput: Schedule:Day:Interval=\"SCHEDULE DAY 35\", Blank Schedule Type Limits Name input -- will not be validated.\n   ** Warning ** ProcessScheduleInput: Schedule:Day:Interval=\"SCHEDULE DAY 36\", Blank Schedule Type Limits Name input -- will not be validated.\n   ** Warning ** ProcessScheduleInput: Schedule:Day:Interval=\"SCHEDULE DAY 37\", Blank Schedule Type Limits Name input -- will not be validated.\n   ** Warning ** ProcessScheduleInput: Schedule:Day:Interval=\"SCHEDULE DAY 38\", Blank Schedule Type Limits Name input -- will not be validated.\n   ** Warning ** ProcessScheduleInput: Schedule:Day:Interval=\"SCHEDULE DAY 39\", Blank Schedule Type Limits Name input -- will not be validated.\n   ** Warning ** ProcessScheduleInput: Schedule:Day:Interval=\"SCHEDULE DAY 40\", Blank Schedule Type Limits Name input -- will not be validated.\n   ** Warning ** ProcessScheduleInput: Schedule:Day:Interval=\"SCHEDULE DAY 41\", Blank Schedule Type Limits Name input -- will not be validated.\n   ** Warning ** ProcessScheduleInput: Schedule:Day:Interval=\"SCHEDULE DAY 42\", Blank Schedule Type Limits Name input -- will not be validated.\n   ** Warning ** ProcessScheduleInput: Schedule:Day:Interval=\"SCHEDULE DAY 43\", Blank Schedule Type Limits Name input -- will not be validated.\n   ** Warning ** ProcessScheduleInput: Schedule:Day:Interval=\"SCHEDULE DAY 44\", Blank Schedule Type Limits Name input -- will not be validated.\n   ** Warning ** ProcessScheduleInput: Schedule:Day:Interval=\"SCHEDULE DAY 45\", Blank Schedule Type Limits Name input -- will not be validated.\n   ** Warning ** ProcessScheduleInput: Schedule:Day:Interval=\"SCHEDULE DAY 46\", Blank Schedule Type Limits Name input -- will not be validated.\n   ** Warning ** ProcessScheduleInput: Schedule:Day:Interval=\"SCHEDULE DAY 47\", Blank Schedule Type Limits Name input -- will not be validated.\n   ** Warning ** ProcessScheduleInput: Schedule:Day:Interval=\"SCHEDULE DAY 48\", Blank Schedule Type Limits Name input -- will not be validated.\n   ** Warning ** ProcessScheduleInput: Schedule:Day:Interval=\"SCHEDULE DAY 49\", Blank Schedule Type Limits Name input -- will not be validated.\n   ** Warning ** ProcessScheduleInput: Schedule:Day:Interval=\"SCHEDULE DAY 50\", Blank Schedule Type Limits Name input -- will not be validated.\n   ** Warning ** ProcessScheduleInput: Schedule:Day:Interval=\"SCHEDULE DAY 51\", Blank Schedule Type Limits Name input -- will not be validated.\n   ** Warning ** ProcessScheduleInput: Schedule:Day:Interval=\"SCHEDULE DAY 52\", Blank Schedule Type Limits Name input -- will not be validated.\n   ** Warning ** ProcessScheduleInput: Schedule:Day:Interval=\"SCHEDULE DAY 53\", Blank Schedule Type Limits Name input -- will not be validated.\n   ** Warning ** ProcessScheduleInput: Schedule:Day:Interval=\"SCHEDULE DAY 54\", Blank Schedule Type Limits Name input -- will not be validated.\n   ** Warning ** ProcessScheduleInput: Schedule:Day:Interval=\"SCHEDULE DAY 55\", Blank Schedule Type Limits Name input -- will not be validated.\n   ** Warning ** ProcessScheduleInput: Schedule:Day:Interval=\"SCHEDULE DAY 56\", Blank Schedule Type Limits Name input -- will not be validated.\n   ** Warning ** ProcessScheduleInput: Schedule:Day:Interval=\"SCHEDULE DAY 57\", Blank Schedule Type Limits Name input -- will not be validated.\n   ** Warning ** ProcessScheduleInput: Schedule:Day:Interval=\"SCHEDULE DAY 58\", Blank Schedule Type Limits Name input -- will not be validated.\n   ** Warning ** ProcessScheduleInput: Schedule:Day:Interval=\"SCHEDULE DAY 59\", Blank Schedule Type Limits Name input -- will not be validated.\n   ** Warning ** ProcessScheduleInput: Schedule:Day:Interval=\"SCHEDULE DAY 60\", Blank Schedule Type Limits Name input -- will not be validated.\n   ** Warning ** ProcessScheduleInput: Schedule:Day:Interval=\"SCHEDULE DAY 61\", Blank Schedule Type Limits Name input -- will not be validated.\n   ** Warning ** ProcessScheduleInput: Schedule:Day:Interval=\"SCHEDULE DAY 62\", Blank Schedule Type Limits Name input -- will not be validated.\n   ** Warning ** ProcessScheduleInput: Schedule:Day:Interval=\"SCHEDULE DAY 63\", Blank Schedule Type Limits Name input -- will not be validated.\n   ** Warning ** ProcessScheduleInput: Schedule:Day:Interval=\"SCHEDULE DAY 64\", Blank Schedule Type Limits Name input -- will not be validated.\n   ** Warning ** ProcessScheduleInput: Schedule:Day:Interval=\"SCHEDULE DAY 65\", Blank Schedule Type Limits Name input -- will not be validated.\n   ** Warning ** ProcessScheduleInput: Schedule:Day:Interval=\"SCHEDULE DAY 66\", Blank Schedule Type Limits Name input -- will not be validated.\n   ** Warning ** ProcessScheduleInput: Schedule:Day:Interval=\"SCHEDULE DAY 67\", Blank Schedule Type Limits Name input -- will not be validated.\n   ** Warning ** ProcessScheduleInput: Schedule:Day:Interval=\"SCHEDULE DAY 68\", Blank Schedule Type Limits Name input -- will not be validated.\n   ** Warning ** ProcessScheduleInput: Schedule:Day:Interval=\"SCHEDULE DAY 69\", Blank Schedule Type Limits Name input -- will not be validated.\n   ** Warning ** ProcessScheduleInput: Schedule:Day:Interval=\"SCHEDULE DAY 7\", Blank Schedule Type Limits Name input -- will not be validated.\n   ** Warning ** ProcessScheduleInput: Schedule:Day:Interval=\"SCHEDULE DAY 70\", Blank Schedule Type Limits Name input -- will not be validated.\n   ** Warning ** ProcessScheduleInput: Schedule:Day:Interval=\"SCHEDULE DAY 71\", Blank Schedule Type Limits Name input -- will not be validated.\n   ** Warning ** ProcessScheduleInput: Schedule:Day:Interval=\"SCHEDULE DAY 8\", Blank Schedule Type Limits Name input -- will not be validated.\n   ** Warning ** ProcessScheduleInput: Schedule:Day:Interval=\"SCHEDULE DAY 9\", Blank Schedule Type Limits Name input -- will not be validated.\n   ** Warning ** ProcessScheduleInput: Schedule:Year=\"ECONOMIZER MAX OA FRACTION 100 PCT\", Blank Schedule Type Limits Name input -- will not be validated.\n   ** Warning ** ProcessScheduleInput: Schedule:Year=\"SCHEDULE RULESET 10\", Blank Schedule Type Limits Name input -- will not be validated.\n   ** Warning ** ProcessScheduleInput: Schedule:Year=\"SCHEDULE RULESET 11\", Blank Schedule Type Limits Name input -- will not be validated.\n   ** Warning ** ProcessScheduleInput: Schedule:Year=\"SCHEDULE RULESET 12\", Blank Schedule Type Limits Name input -- will not be validated.\n   ** Warning ** ProcessScheduleInput: Schedule:Year=\"SCHEDULE RULESET 13\", Blank Schedule Type Limits Name input -- will not be validated.\n   ** Warning ** ProcessScheduleInput: Schedule:Year=\"SCHEDULE RULESET 14\", Blank Schedule Type Limits Name input -- will not be validated.\n   ** Warning ** ProcessScheduleInput: Schedule:Year=\"SCHEDULE RULESET 15\", Blank Schedule Type Limits Name input -- will not be validated.\n   ** Warning ** ProcessScheduleInput: Schedule:Year=\"SCHEDULE RULESET 16\", Blank Schedule Type Limits Name input -- will not be validated.\n   ** Warning ** ProcessScheduleInput: Schedule:Year=\"SCHEDULE RULESET 17\", Blank Schedule Type Limits Name input -- will not be validated.\n   ** Warning ** ProcessScheduleInput: Schedule:Year=\"SCHEDULE RULESET 18\", Blank Schedule Type Limits Name input -- will not be validated.\n   ** Warning ** ProcessScheduleInput: Schedule:Year=\"SCHEDULE RULESET 19\", Blank Schedule Type Limits Name input -- will not be validated.\n   ** Warning ** ProcessScheduleInput: Schedule:Year=\"SCHEDULE RULESET 20\", Blank Schedule Type Limits Name input -- will not be validated.\n   ** Warning ** ProcessScheduleInput: Schedule:Year=\"SCHEDULE RULESET 21\", Blank Schedule Type Limits Name input -- will not be validated.\n   ** Warning ** ProcessScheduleInput: Schedule:Year=\"SCHEDULE RULESET 22\", Blank Schedule Type Limits Name input -- will not be validated.\n   ** Warning ** ProcessScheduleInput: Schedule:Year=\"SCHEDULE RULESET 23\", Blank Schedule Type Limits Name input -- will not be validated.\n   ** Warning ** ProcessScheduleInput: Schedule:Year=\"SCHEDULE RULESET 24\", Blank Schedule Type Limits Name input -- will not be validated.\n   ** Warning ** ProcessScheduleInput: Schedule:Year=\"SCHEDULE RULESET 25\", Blank Schedule Type Limits Name input -- will not be validated.\n   ** Warning ** ProcessScheduleInput: Schedule:Year=\"SCHEDULE RULESET 26\", Blank Schedule Type Limits Name input -- will not be validated.\n   ** Warning ** ProcessScheduleInput: Schedule:Year=\"SCHEDULE RULESET 27\", Blank Schedule Type Limits Name input -- will not be validated.\n   ** Warning ** ProcessScheduleInput: Schedule:Year=\"SCHEDULE RULESET 28\", Blank Schedule Type Limits Name input -- will not be validated.\n   ** Warning ** ProcessScheduleInput: Schedule:Year=\"SCHEDULE RULESET 29\", Blank Schedule Type Limits Name input -- will not be validated.\n   ** Warning ** ProcessScheduleInput: Schedule:Year=\"SCHEDULE RULESET 3\", Blank Schedule Type Limits Name input -- will not be validated.\n   ** Warning ** ProcessScheduleInput: Schedule:Year=\"SCHEDULE RULESET 30\", Blank Schedule Type Limits Name input -- will not be validated.\n   ** Warning ** ProcessScheduleInput: Schedule:Year=\"SCHEDULE RULESET 31\", Blank Schedule Type Limits Name input -- will not be validated.\n   ** Warning ** ProcessScheduleInput: Schedule:Year=\"SCHEDULE RULESET 32\", Blank Schedule Type Limits Name input -- will not be validated.\n   ** Warning ** ProcessScheduleInput: Schedule:Year=\"SCHEDULE RULESET 33\", Blank Schedule Type Limits Name input -- will not be validated.\n   ** Warning ** ProcessScheduleInput: Schedule:Year=\"SCHEDULE RULESET 34\", Blank Schedule Type Limits Name input -- will not be validated.\n   ** Warning ** ProcessScheduleInput: Schedule:Year=\"SCHEDULE RULESET 35\", Blank Schedule Type Limits Name input -- will not be validated.\n   ** Warning ** ProcessScheduleInput: Schedule:Year=\"SCHEDULE RULESET 36\", Blank Schedule Type Limits Name input -- will not be validated.\n   ** Warning ** ProcessScheduleInput: Schedule:Year=\"SCHEDULE RULESET 37\", Blank Schedule Type Limits Name input -- will not be validated.\n   ** Warning ** ProcessScheduleInput: Schedule:Year=\"SCHEDULE RULESET 38\", Blank Schedule Type Limits Name input -- will not be validated.\n   ** Warning ** ProcessScheduleInput: Schedule:Year=\"SCHEDULE RULESET 39\", Blank Schedule Type Limits Name input -- will not be validated.\n   ** Warning ** ProcessScheduleInput: Schedule:Year=\"SCHEDULE RULESET 4\", Blank Schedule Type Limits Name input -- will not be validated.\n   ** Warning ** ProcessScheduleInput: Schedule:Year=\"SCHEDULE RULESET 40\", Blank Schedule Type Limits Name input -- will not be validated.\n   ** Warning ** ProcessScheduleInput: Schedule:Year=\"SCHEDULE RULESET 41\", Blank Schedule Type Limits Name input -- will not be validated.\n   ** Warning ** ProcessScheduleInput: Schedule:Year=\"SCHEDULE RULESET 42\", Blank Schedule Type Limits Name input -- will not be validated.\n   ** Warning ** ProcessScheduleInput: Schedule:Year=\"SCHEDULE RULESET 43\", Blank Schedule Type Limits Name input -- will not be validated.\n   ** Warning ** ProcessScheduleInput: Schedule:Year=\"SCHEDULE RULESET 44\", Blank Schedule Type Limits Name input -- will not be validated.\n   ** Warning ** ProcessScheduleInput: Schedule:Year=\"SCHEDULE RULESET 45\", Blank Schedule Type Limits Name input -- will not be validated.\n   ** Warning ** ProcessScheduleInput: Schedule:Year=\"SCHEDULE RULESET 46\", Blank Schedule Type Limits Name input -- will not be validated.\n   ** Warning ** ProcessScheduleInput: Schedule:Year=\"SCHEDULE RULESET 47\", Blank Schedule Type Limits Name input -- will not be validated.\n   ** Warning ** ProcessScheduleInput: Schedule:Year=\"SCHEDULE RULESET 48\", Blank Schedule Type Limits Name input -- will not be validated.\n   ** Warning ** ProcessScheduleInput: Schedule:Year=\"SCHEDULE RULESET 49\", Blank Schedule Type Limits Name input -- will not be validated.\n   ** Warning ** ProcessScheduleInput: Schedule:Year=\"SCHEDULE RULESET 5\", Blank Schedule Type Limits Name input -- will not be validated.\n   ** Warning ** ProcessScheduleInput: Schedule:Year=\"SCHEDULE RULESET 50\", Blank Schedule Type Limits Name input -- will not be validated.\n   ** Warning ** ProcessScheduleInput: Schedule:Year=\"SCHEDULE RULESET 51\", Blank Schedule Type Limits Name input -- will not be validated.\n   ** Warning ** ProcessScheduleInput: Schedule:Year=\"SCHEDULE RULESET 52\", Blank Schedule Type Limits Name input -- will not be validated.\n   ** Warning ** ProcessScheduleInput: Schedule:Year=\"SCHEDULE RULESET 53\", Blank Schedule Type Limits Name input -- will not be validated.\n   ** Warning ** ProcessScheduleInput: Schedule:Year=\"SCHEDULE RULESET 54\", Blank Schedule Type Limits Name input -- will not be validated.\n   ** Warning ** ProcessScheduleInput: Schedule:Year=\"SCHEDULE RULESET 55\", Blank Schedule Type Limits Name input -- will not be validated.\n   ** Warning ** ProcessScheduleInput: Schedule:Year=\"SCHEDULE RULESET 56\", Blank Schedule Type Limits Name input -- will not be validated.\n   ** Warning ** ProcessScheduleInput: Schedule:Year=\"SCHEDULE RULESET 57\", Blank Schedule Type Limits Name input -- will not be validated.\n   ** Warning ** ProcessScheduleInput: Schedule:Year=\"SCHEDULE RULESET 58\", Blank Schedule Type Limits Name input -- will not be validated.\n   ** Warning ** ProcessScheduleInput: Schedule:Year=\"SCHEDULE RULESET 59\", Blank Schedule Type Limits Name input -- will not be validated.\n   ** Warning ** ProcessScheduleInput: Schedule:Year=\"SCHEDULE RULESET 6\", Blank Schedule Type Limits Name input -- will not be validated.\n   ** Warning ** ProcessScheduleInput: Schedule:Year=\"SCHEDULE RULESET 7\", Blank Schedule Type Limits Name input -- will not be validated.\n   ** Warning ** ProcessScheduleInput: Schedule:Year=\"SCHEDULE RULESET 8\", Blank Schedule Type Limits Name input -- will not be validated.\n   ** Warning ** ProcessScheduleInput: Schedule:Year=\"SCHEDULE RULESET 9\", Blank Schedule Type Limits Name input -- will not be validated.\n   ** Warning ** ProcessScheduleInput: Schedule:Constant=\"ALWAYS OFF DISCRETE\", Blank Schedule Type Limits Name input -- will not be validated.\n   ** Warning ** ProcessScheduleInput: Schedule:Constant=\"ALWAYS ON CONTINUOUS\", Blank Schedule Type Limits Name input -- will not be validated.\n   ** Warning ** CheckUsedConstructions: There are 23 nominally unused constructions in input.\n   **   ~~~   ** For explicit details on each unused construction, use Output:Diagnostics,DisplayExtraWarnings;\n   ** Warning ** GetInternalHeatGains: ElectricEquipment Combination of ZoneList and Object Name generate a name too long.\n   **   ~~~   ** Object Name=\"SPACE FUNCTION OFFICE - OPEN PLAN ELEC EQUIP\".\n   **   ~~~   ** ZoneList/Zone Name=\"SP-DATACENTER_BASEMENT_ZN_6 SYS-6 FLR-2 SCH-A HPLCMT-WEST ZN\".\n   **   ~~~   ** Item length=[104] > Maximum Length=[100]. You may need to shorten the names.\n   **   ~~~   ** Shortening the Object Name by [5] characters will assure uniqueness for this ZoneList.\n   **   ~~~   ** name that will be used (may be needed in reporting)=\"SP-DATACENTER_BASEMENT_ZN_6 SYS-6 FLR-2 SCH-A HPLCMT-WEST ZN SPACE FUNCTION OFFICE - OPEN PLAN ELEC EQUIP\".\n   ** Warning ** Calculated design heating load for zone=SP-BASEMENT SYS-6 FLR-2 SCH-A HPLCMT-NORTH ZN is zero.\n   **   ~~~   ** Check Sizing:Zone and ZoneControl:Thermostat inputs.\n   ** Warning ** Calculated design heating load for zone=SP-CORE_BOTTOM SYS-6 FLR-1 SCH-A HPLCMT-CORE ZN is zero.\n   **   ~~~   ** Check Sizing:Zone and ZoneControl:Thermostat inputs.\n   ** Warning ** Calculated design heating load for zone=SP-CORE_MID SYS-6 FLR-3 SCH-A HPLCMT-CORE ZN is zero.\n   **   ~~~   ** Check Sizing:Zone and ZoneControl:Thermostat inputs.\n   ** Warning ** Calculated design heating load for zone=SP-DATACENTER_BASEMENT_ZN_6 SYS-6 FLR-2 SCH-A HPLCMT-WEST ZN is zero.\n   **   ~~~   ** Check Sizing:Zone and ZoneControl:Thermostat inputs.\n   ************* Beginning System Sizing Calculations\n   ** Warning ** Since Zone Minimum Air Flow Input Method = CONSTANT, input for Fixed Minimum Air Flow Rate will be ignored.\n   **   ~~~   ** Occurs in AirTerminal:SingleDuct:VAV:Reheat = AIR TERMINAL SINGLE DUCT VAV REHEAT 1\n   ** Warning ** Since Zone Minimum Air Flow Input Method = CONSTANT, input for Fixed Minimum Air Flow Rate will be ignored.\n   **   ~~~   ** Occurs in AirTerminal:SingleDuct:VAV:Reheat = AIR TERMINAL SINGLE DUCT VAV REHEAT 3\n   ** Warning ** Since Zone Minimum Air Flow Input Method = CONSTANT, input for Fixed Minimum Air Flow Rate will be ignored.\n   **   ~~~   ** Occurs in AirTerminal:SingleDuct:VAV:Reheat = AIR TERMINAL SINGLE DUCT VAV REHEAT 9\n   ** Warning ** Since Zone Minimum Air Flow Input Method = CONSTANT, input for Fixed Minimum Air Flow Rate will be ignored.\n   **   ~~~   ** Occurs in AirTerminal:SingleDuct:VAV:Reheat = AIR TERMINAL SINGLE DUCT VAV REHEAT 17\n   ** Warning ** Since Zone Minimum Air Flow Input Method = CONSTANT, input for Fixed Minimum Air Flow Rate will be ignored.\n   **   ~~~   ** Occurs in AirTerminal:SingleDuct:VAV:Reheat = AIR TERMINAL SINGLE DUCT VAV REHEAT 2\n   ** Warning ** Since Zone Minimum Air Flow Input Method = CONSTANT, input for Fixed Minimum Air Flow Rate will be ignored.\n   **   ~~~   ** Occurs in AirTerminal:SingleDuct:VAV:Reheat = AIR TERMINAL SINGLE DUCT VAV REHEAT 6\n   ** Warning ** Since Zone Minimum Air Flow Input Method = CONSTANT, input for Fixed Minimum Air Flow Rate will be ignored.\n   **   ~~~   ** Occurs in AirTerminal:SingleDuct:VAV:Reheat = AIR TERMINAL SINGLE DUCT VAV REHEAT 12\n   ** Warning ** Since Zone Minimum Air Flow Input Method = CONSTANT, input for Fixed Minimum Air Flow Rate will be ignored.\n   **   ~~~   ** Occurs in AirTerminal:SingleDuct:VAV:Reheat = AIR TERMINAL SINGLE DUCT VAV REHEAT 20\n   ** Warning ** Since Zone Minimum Air Flow Input Method = CONSTANT, input for Fixed Minimum Air Flow Rate will be ignored.\n   **   ~~~   ** Occurs in AirTerminal:SingleDuct:VAV:Reheat = AIR TERMINAL SINGLE DUCT VAV REHEAT 5\n   ** Warning ** Since Zone Minimum Air Flow Input Method = CONSTANT, input for Fixed Minimum Air Flow Rate will be ignored.\n   **   ~~~   ** Occurs in AirTerminal:SingleDuct:VAV:Reheat = AIR TERMINAL SINGLE DUCT VAV REHEAT 8\n   ** Warning ** Since Zone Minimum Air Flow Input Method = CONSTANT, input for Fixed Minimum Air Flow Rate will be ignored.\n   **   ~~~   ** Occurs in AirTerminal:SingleDuct:VAV:Reheat = AIR TERMINAL SINGLE DUCT VAV REHEAT 4\n   ** Warning ** Since Zone Minimum Air Flow Input Method = CONSTANT, input for Fixed Minimum Air Flow Rate will be ignored.\n   **   ~~~   ** Occurs in AirTerminal:SingleDuct:VAV:Reheat = AIR TERMINAL SINGLE DUCT VAV REHEAT 7\n   ** Warning ** Since Zone Minimum Air Flow Input Method = CONSTANT, input for Fixed Minimum Air Flow Rate will be ignored.\n   **   ~~~   ** Occurs in AirTerminal:SingleDuct:VAV:Reheat = AIR TERMINAL SINGLE DUCT VAV REHEAT 11\n   ** Warning ** Since Zone Minimum Air Flow Input Method = CONSTANT, input for Fixed Minimum Air Flow Rate will be ignored.\n   **   ~~~   ** Occurs in AirTerminal:SingleDuct:VAV:Reheat = AIR TERMINAL SINGLE DUCT VAV REHEAT 14\n   ** Warning ** Since Zone Minimum Air Flow Input Method = CONSTANT, input for Fixed Minimum Air Flow Rate will be ignored.\n   **   ~~~   ** Occurs in AirTerminal:SingleDuct:VAV:Reheat = AIR TERMINAL SINGLE DUCT VAV REHEAT 10\n   ** Warning ** Since Zone Minimum Air Flow Input Method = CONSTANT, input for Fixed Minimum Air Flow Rate will be ignored.\n   **   ~~~   ** Occurs in AirTerminal:SingleDuct:VAV:Reheat = AIR TERMINAL SINGLE DUCT VAV REHEAT 13\n   ** Warning ** Since Zone Minimum Air Flow Input Method = CONSTANT, input for Fixed Minimum Air Flow Rate will be ignored.\n   **   ~~~   ** Occurs in AirTerminal:SingleDuct:VAV:Reheat = AIR TERMINAL SINGLE DUCT VAV REHEAT 15\n   ** Warning ** Since Zone Minimum Air Flow Input Method = CONSTANT, input for Fixed Minimum Air Flow Rate will be ignored.\n   **   ~~~   ** Occurs in AirTerminal:SingleDuct:VAV:Reheat = AIR TERMINAL SINGLE DUCT VAV REHEAT 18\n   ** Warning ** Since Zone Minimum Air Flow Input Method = CONSTANT, input for Fixed Minimum Air Flow Rate will be ignored.\n   **   ~~~   ** Occurs in AirTerminal:SingleDuct:VAV:Reheat = AIR TERMINAL SINGLE DUCT VAV REHEAT 16\n   ** Warning ** Since Zone Minimum Air Flow Input Method = CONSTANT, input for Fixed Minimum Air Flow Rate will be ignored.\n   **   ~~~   ** Occurs in AirTerminal:SingleDuct:VAV:Reheat = AIR TERMINAL SINGLE DUCT VAV REHEAT 19\n   ************* Beginning Plant Sizing Calculations\n   ** Warning ** Missing temperature setpoint for LeavingSetpointModulated mode chiller named PRIMARY CHILLER WATERCOOLED SCROLL 595TONS 0.6KW/TON\n   **   ~~~   **   A temperature setpoint is needed at the outlet node of a chiller in variable flow mode, use a SetpointManager\n   **   ~~~   **   The overall loop setpoint will be assumed for chiller. The simulation continues ... \n   ** Warning ** Missing temperature setpoint for LeavingSetpointModulated mode chiller named SECONDARY CHILLER WATERCOOLED SCROLL 0TONS 0.8KW/TON\n   **   ~~~   **   A temperature setpoint is needed at the outlet node of a chiller in variable flow mode, use a SetpointManager\n   **   ~~~   **   The overall loop setpoint will be assumed for chiller. The simulation continues ... \n   ** Warning ** Output:Meter: invalid Name=\"GAS:FACILITY\" - not found.\n   ** Warning ** Output:Meter: invalid Name=\"DISTRICTCOOLING:FACILITY\" - not found.\n   ** Warning ** Output:Meter: invalid Name=\"DISTRICTHEATING:FACILITY\" - not found.\n   ** Warning ** Output:Meter:MeterFileOnly: invalid Name=\"GAS:FACILITY\" - not found.\n   ** Warning ** Output:Meter:MeterFileOnly requested for \"Electricity:Facility\" (TimeStep), already on \"Output:Meter\". Will report to both eplusout.eso and eplusout.mtr\n   ************* Testing Individual Branch Integrity\n   ************* All Branches passed integrity testing\n   ************* Testing Individual Supply Air Path Integrity\n   ************* All Supply Air Paths passed integrity testing\n   ************* Testing Individual Return Air Path Integrity\n   ************* All Return Air Paths passed integrity testing\n   ************* No node connection errors were found.\n   ************* Beginning Simulation\n   ** Warning ** SimHVAC: Maximum iterations (20) exceeded for all HVAC loops, at RUN PERIOD 1, 01/26 09:45 - 10:00\n   **   ~~~   ** The solution for one or more of the Air Loop HVAC systems did not appear to converge\n   **   ~~~   ** ...use Output:Diagnostics,DisplayExtraWarnings; to show more details on each max iteration exceeded.\n   ** Warning ** SimHVAC: Maximum iterations (20) exceeded for all HVAC loops, at RUN PERIOD 1, 02/02 12:15 - 12:30\n   **   ~~~   ** The solution for one or more of the Air Loop HVAC systems did not appear to converge\n   ** Warning ** SimHVAC: Maximum iterations (20) exceeded for all HVAC loops, at RUN PERIOD 1, 02/06 14:30 - 14:45\n   **   ~~~   ** The solution for one or more of the Air Loop HVAC systems did not appear to converge\n   ** Warning ** SimHVAC: Maximum iterations (20) exceeded for all HVAC loops, at RUN PERIOD 1, 02/10 17:15 - 17:30\n   **   ~~~   ** The solution for one or more of the Air Loop HVAC systems did not appear to converge\n   ** Warning ** SimHVAC: Maximum iterations (20) exceeded for all HVAC loops, at RUN PERIOD 1, 02/16 16:30 - 16:45\n   **   ~~~   ** The solution for one or more of the Air Loop HVAC systems did not appear to converge\n   ** Warning ** SimHVAC: Maximum iterations (20) exceeded for all HVAC loops, at RUN PERIOD 1, 02/16 16:38 - 16:45\n   **   ~~~   ** The solution for one or more of the Air Loop HVAC systems did not appear to converge\n   ** Warning ** SimHVAC: Maximum iterations (20) exceeded for all HVAC loops, at RUN PERIOD 1, 02/24 13:30 - 13:45\n   **   ~~~   ** The solution for one or more of the Air Loop HVAC systems did not appear to converge\n   ** Warning ** SimHVAC: Maximum iterations (20) exceeded for all HVAC loops, at RUN PERIOD 1, 03/02 09:15 - 09:30\n   **   ~~~   ** The solution for one or more of the Air Loop HVAC systems did not appear to converge\n   ** Warning ** SimHVAC: Maximum iterations (20) exceeded for all HVAC loops, at RUN PERIOD 1, 03/02 13:30 - 13:45\n   **   ~~~   ** The solution for one or more of the Air Loop HVAC systems did not appear to converge\n   ** Warning ** SimHVAC: Maximum iterations (20) exceeded for all HVAC loops, at RUN PERIOD 1, 03/07 10:00 - 10:08\n   **   ~~~   ** The solution for one or more of the Air Loop HVAC systems did not appear to converge\n   ** Warning ** SimHVAC: Maximum iterations (20) exceeded for all HVAC loops, at RUN PERIOD 1, 03/09 14:00 - 14:08\n   **   ~~~   ** The solution for one or more of the Air Loop HVAC systems did not appear to converge\n   ** Warning ** SimHVAC: Maximum iterations (20) exceeded for all HVAC loops, at RUN PERIOD 1, 03/09 14:08 - 14:15\n   **   ~~~   ** The solution for one or more of the Air Loop HVAC systems did not appear to converge\n   ** Warning ** SimHVAC: Maximum iterations (20) exceeded for all HVAC loops, at RUN PERIOD 1, 03/09 17:08 - 17:15\n   **   ~~~   ** The solution for one or more of the Air Loop HVAC systems did not appear to converge\n   ** Warning ** SimHVAC: Maximum iterations (20) exceeded for all HVAC loops, at RUN PERIOD 1, 03/10 10:30 - 10:38\n   **   ~~~   ** The solution for one or more of the Air Loop HVAC systems did not appear to converge\n   ************* Simulation Error Summary *************\n   ************* There are 9 unused schedules in input.\n   ************* There are 9 unused week schedules in input.\n   ************* There are 26 unused day schedules in input.\n   ************* Use Output:Diagnostics,DisplayUnusedSchedules; to see them.\n   *************\n   ************* ===== Recurring Error Summary =====\n   ************* The following recurring error messages occurred.\n   *************\n   *************  ** Warning ** Plant loop falling below lower temperature limit, PlantLoop=\"MAIN SERVICE WATER LOOP\"\n   *************  **   ~~~   **   This error occurred 2405 total times;\n   *************  **   ~~~   **   during Warmup 0 times;\n   *************  **   ~~~   **   during Sizing 0 times.\n   *************  **   ~~~   **   Min=3.73646\n   *************\n   *************  ** Warning ** SimHVAC: Exceeding Maximum iterations for all HVAC loops, during RUN PERIOD 1 continues\n   *************  **   ~~~   **   This error occurred 23 total times;\n   *************  **   ~~~   **   during Warmup 0 times;\n   *************  **   ~~~   **   during Sizing 0 times.\n   *************\n   *************\n   ************* ===== Final Error Summary =====\n   ************* The following error categories occurred.  Consider correcting or noting.\n   ************* Nominally Unused Constructions\n   ************* ..The nominally unused constructions warning is provided to alert you to potential conditions that can cause\n   ************* ..extra time during simulation. Each construction is calculated by the algorithm indicated in the HeatBalanceAlgorithm\n   ************* ..object. You may remove the constructions indicated (when you use the DisplayExtraWarnings option).\n   *************\n   ************* EnergyPlus Warmup Error Summary. During Warmup: 0 Warning; 0 Severe Errors.\n   ************* EnergyPlus Sizing Error Summary. During Sizing: 154 Warning; 0 Severe Errors.\n   ************* EnergyPlus Completed Successfully-- 2604 Warning; 0 Severe Errors; Elapsed Time=00hr 02min  3.99sec\n",
   "file_format_version" : "0.0.1",
   "file_paths" : [ "../weather", "../seeds", "../seed" ],
   "hash" : "73C17F48",
   "measure_paths" : [ "../measures" ],
   "name" : "LHS Autogenerated 589",
   "osa_id" : "4fef0e0f-5396-4c55-a6e1-2cd6803db3ab",
   "osd_id" : "b0dc0bb9-df6a-4f39-b086-2089ee7e70f7",
   "run_directory" : "./run",
   "seed_file" : "seed.osm",
   "started_at" : "20170710T190031Z",
   "steps" : [
      {
         "arguments" : {
            "__SKIP__" : false,
            "building_type" : "LargeOffice",
            "climate_zone" : "NECB HDD Method",
            "epw_file" : "CAN_PQ_Riviere.du.Loup.717150_CWEC.epw",
            "template" : "NECB 2011"
         },
         "measure_dir_name" : "create_prototype_building",
         "name" : "create_prototype_building",
         "result" : {
            "completed_at" : "20170710T190147Z",
            "measure_class_name" : "CreatePrototypeBuilding",
            "measure_display_name" : "Create Prototype Building",
            "measure_name" : "create_prototype_building",
            "measure_taxonomy" : "Whole Building.Space Types",
            "measure_type" : "ModelMeasure",
            "measure_uid" : "ae90fsd7-a651-467a-bc8d-29d310b0f937",
            "measure_version_id" : "c6ec5c18-5595-459f-a082-09a19c8c869c",
            "measure_version_modified" : "20170519T182315Z",
            "measure_xml_checksum" : "057E8D9D",
            "started_at" : "20170710T190033Z",
            "stderr" : "",
            "stdout" : "[OpenStudio.Measure] <0> OSArgumentVector is deprecated, use OpenStudio::Measure::OSArgumentVector instead.\n[openstudio.EpwFile] <0> Successive data points (1978-Jan-31 to 1970-Feb-01, ending on line 753) are greater than 1 day apart in EPW file '/usr/local/bundle/bundler/gems/openstudio-standards-f448df66933d/openstudio-standards/data/weather/CAN_PQ_Riviere.du.Loup.717150_CWEC.epw'. Data will be treated as typical (TMY)\n[openstudio.setFileExtension] <0> Path p, '/usr/local/bundle/bundler/gems/openstudio-standards-f448df66933d/openstudio-standards/data/weather/CAN_PQ_Riviere.du.Loup.717150_CWEC.ddy', has an unexpected file extension. Was expecting 'idf'.\n[openstudio.model.YearDescription] <1> 'UseWeatherFile' is not yet a supported option for YearDescription\n[openstudio.model.YearDescription] <1> 'UseWeatherFile' is not yet a supported option for YearDescription\n[openstudio.setFileExtension] <0> Path p, '/usr/local/bundle/bundler/gems/openstudio-standards-f448df66933d/openstudio-standards/data/weather/CAN_PQ_Riviere.du.Loup.717150_CWEC.ddy', has an unexpected file extension. Was expecting 'idf'.\n[openstudio.model.YearDescription] <1> 'UseWeatherFile' is not yet a supported option for YearDescription\n[openstudio.model.YearDescription] <1> 'UseWeatherFile' is not yet a supported option for YearDescription\n[openstudio.EpwFile] <0> Successive data points (1978-Jan-31 to 1970-Feb-01, ending on line 753) are greater than 1 day apart in EPW file '/usr/local/bundle/bundler/gems/openstudio-standards-f448df66933d/openstudio-standards/data/weather/CAN_PQ_Riviere.du.Loup.717150_CWEC.epw'. Data will be treated as typical (TMY)\n[openstudio.weather.Model] <0> Could not find ground temperatures; will use generic temperatures, which will skew results.\n[openstudio.setFileExtension] <0> Path p, '/usr/local/bundle/bundler/gems/openstudio-standards-f448df66933d/openstudio-standards/data/weather/CAN_PQ_Riviere.du.Loup.717150_CWEC.ddy', has an unexpected file extension. Was expecting 'idf'.\n[openstudio.model.YearDescription] <1> 'UseWeatherFile' is not yet a supported option for YearDescription\n[openstudio.model.YearDescription] <1> 'UseWeatherFile' is not yet a supported option for YearDescription\n[openstudio.EpwFile] <0> Successive data points (1978-Jan-31 to 1970-Feb-01, ending on line 753) are greater than 1 day apart in EPW file '/usr/local/bundle/bundler/gems/openstudio-standards-f448df66933d/openstudio-standards/data/weather/CAN_PQ_Riviere.du.Loup.717150_CWEC.epw'. Data will be treated as typical (TMY)\n[openstudio.setFileExtension] <0> Path p, '/usr/local/bundle/bundler/gems/openstudio-standards-f448df66933d/openstudio-standards/data/weather/CAN_PQ_Riviere.du.Loup.717150_CWEC.ddy', has an unexpected file extension. Was expecting 'idf'.\n[openstudio.model.YearDescription] <1> 'UseWeatherFile' is not yet a supported option for YearDescription\n[openstudio.model.YearDescription] <1> 'UseWeatherFile' is not yet a supported option for YearDescription\n[openstudio.setFileExtension] <0> Path p, '/usr/local/bundle/bundler/gems/openstudio-standards-f448df66933d/openstudio-standards/data/weather/CAN_PQ_Riviere.du.Loup.717150_CWEC.ddy', has an unexpected file extension. Was expecting 'idf'.\n[openstudio.model.YearDescription] <1> 'UseWeatherFile' is not yet a supported option for YearDescription\n[openstudio.model.YearDescription] <1> 'UseWeatherFile' is not yet a supported option for YearDescription\n[openstudio.EpwFile] <0> Successive data points (1978-Jan-31 to 1970-Feb-01, ending on line 753) are greater than 1 day apart in EPW file '/usr/local/bundle/bundler/gems/openstudio-standards-f448df66933d/openstudio-standards/data/weather/CAN_PQ_Riviere.du.Loup.717150_CWEC.epw'. Data will be treated as typical (TMY)\n[openstudio.setFileExtension] <0> Path p, '/usr/local/bundle/bundler/gems/openstudio-standards-f448df66933d/openstudio-standards/data/weather/CAN_PQ_Riviere.du.Loup.717150_CWEC.ddy', has an unexpected file extension. Was expecting 'idf'.\n[openstudio.model.YearDescription] <1> 'UseWeatherFile' is not yet a supported option for YearDescription\n[openstudio.model.YearDescription] <1> 'UseWeatherFile' is not yet a supported option for YearDescription\n[openstudio.setFileExtension] <0> Path p, '/usr/local/bundle/bundler/gems/openstudio-standards-f448df66933d/openstudio-standards/data/weather/CAN_PQ_Riviere.du.Loup.717150_CWEC.ddy', has an unexpected file extension. Was expecting 'idf'.\n[openstudio.model.YearDescription] <1> 'UseWeatherFile' is not yet a supported option for YearDescription\n[openstudio.model.YearDescription] <1> 'UseWeatherFile' is not yet a supported option for YearDescription\n[utilities.idf.WorkspaceObject] <0> Object of type 'Schedule:Constant' and named 'Always Off Discrete', points to an object named OnOff 1 from field 1, but that object cannot be located.\n[utilities.idf.WorkspaceObject] <0> Object of type 'Schedule:Constant' and named 'Always On Continuous', points to an object named Fractional 1 from field 1, but that object cannot be located.\n[utilities.idf.WorkspaceObject] <0> Object of type 'Schedule:Constant' and named 'Always Off Discrete', points to an object named OnOff 1 from field 1, but that object cannot be located.\n[utilities.idf.WorkspaceObject] <0> Object of type 'Schedule:Constant' and named 'Always On Continuous', points to an object named Fractional 1 from field 1, but that object cannot be located.\n[openstudio.standards.Fan] <0> For Fan Variable Volume 1, there is no greater nominal HP.  Use the efficiency of the largest motor category.\n[openstudio.standards.Fan] <0> For Fan Variable Volume 2, there is no greater nominal HP.  Use the efficiency of the largest motor category.\n[openstudio.standards.Fan] <0> For Fan Variable Volume 3, there is no greater nominal HP.  Use the efficiency of the largest motor category.\n[openstudio.standards.Fan] <0> For Fan Variable Volume 4, there is no greater nominal HP.  Use the efficiency of the largest motor category.\n[openstudio.EpwFile] <0> Successive data points (1978-Jan-31 to 1970-Feb-01, ending on line 753) are greater than 1 day apart in EPW file '/usr/local/bundle/bundler/gems/openstudio-standards-f448df66933d/openstudio-standards/data/weather/CAN_PQ_Riviere.du.Loup.717150_CWEC.epw'. Data will be treated as typical (TMY)\n[openstudio.setFileExtension] <0> Path p, '/usr/local/bundle/bundler/gems/openstudio-standards-f448df66933d/openstudio-standards/data/weather/CAN_PQ_Riviere.du.Loup.717150_CWEC.ddy', has an unexpected file extension. Was expecting 'idf'.\n[openstudio.model.YearDescription] <1> 'UseWeatherFile' is not yet a supported option for YearDescription\n[openstudio.model.YearDescription] <1> 'UseWeatherFile' is not yet a supported option for YearDescription\n[openstudio.setFileExtension] <0> Path p, '/usr/local/bundle/bundler/gems/openstudio-standards-f448df66933d/openstudio-standards/data/weather/CAN_PQ_Riviere.du.Loup.717150_CWEC.ddy', has an unexpected file extension. Was expecting 'idf'.\n[openstudio.model.YearDescription] <1> 'UseWeatherFile' is not yet a supported option for YearDescription\n[openstudio.model.YearDescription] <1> 'UseWeatherFile' is not yet a supported option for YearDescription\n[openstudio.EpwFile] <0> Successive data points (1978-Jan-31 to 1970-Feb-01, ending on line 753) are greater than 1 day apart in EPW file '/usr/local/bundle/bundler/gems/openstudio-standards-f448df66933d/openstudio-standards/data/weather/CAN_PQ_Riviere.du.Loup.717150_CWEC.epw'. Data will be treated as typical (TMY)\n[openstudio.setFileExtension] <0> Path p, '/usr/local/bundle/bundler/gems/openstudio-standards-f448df66933d/openstudio-standards/data/weather/CAN_PQ_Riviere.du.Loup.717150_CWEC.ddy', has an unexpected file extension. Was expecting 'idf'.\n[openstudio.model.YearDescription] <1> 'UseWeatherFile' is not yet a supported option for YearDescription\n[openstudio.model.YearDescription] <1> 'UseWeatherFile' is not yet a supported option for YearDescription\n[openstudio.setFileExtension] <0> Path p, '/usr/local/bundle/bundler/gems/openstudio-standards-f448df66933d/openstudio-standards/data/weather/CAN_PQ_Riviere.du.Loup.717150_CWEC.ddy', has an unexpected file extension. Was expecting 'idf'.\n[openstudio.model.YearDescription] <1> 'UseWeatherFile' is not yet a supported option for YearDescription\n[openstudio.model.YearDescription] <1> 'UseWeatherFile' is not yet a supported option for YearDescription\n[openstudio.EpwFile] <0> Successive data points (1978-Jan-31 to 1970-Feb-01, ending on line 753) are greater than 1 day apart in EPW file '/usr/local/bundle/bundler/gems/openstudio-standards-f448df66933d/openstudio-standards/data/weather/CAN_PQ_Riviere.du.Loup.717150_CWEC.epw'. Data will be treated as typical (TMY)\n[openstudio.setFileExtension] <0> Path p, '/usr/local/bundle/bundler/gems/openstudio-standards-f448df66933d/openstudio-standards/data/weather/CAN_PQ_Riviere.du.Loup.717150_CWEC.ddy', has an unexpected file extension. Was expecting 'idf'.\n[openstudio.model.YearDescription] <1> 'UseWeatherFile' is not yet a supported option for YearDescription\n[openstudio.model.YearDescription] <1> 'UseWeatherFile' is not yet a supported option for YearDescription\n[openstudio.setFileExtension] <0> Path p, '/usr/local/bundle/bundler/gems/openstudio-standards-f448df66933d/openstudio-standards/data/weather/CAN_PQ_Riviere.du.Loup.717150_CWEC.ddy', has an unexpected file extension. Was expecting 'idf'.\n[openstudio.model.YearDescription] <1> 'UseWeatherFile' is not yet a supported option for YearDescription\n[openstudio.model.YearDescription] <1> 'UseWeatherFile' is not yet a supported option for YearDescription\n[openstudio.EpwFile] <0> Successive data points (1978-Jan-31 to 1970-Feb-01, ending on line 753) are greater than 1 day apart in EPW file '/usr/local/bundle/bundler/gems/openstudio-standards-f448df66933d/openstudio-standards/data/weather/CAN_PQ_Riviere.du.Loup.717150_CWEC.epw'. Data will be treated as typical (TMY)\n[openstudio.setFileExtension] <0> Path p, '/usr/local/bundle/bundler/gems/openstudio-standards-f448df66933d/openstudio-standards/data/weather/CAN_PQ_Riviere.du.Loup.717150_CWEC.ddy', has an unexpected file extension. Was expecting 'idf'.\n[openstudio.model.YearDescription] <1> 'UseWeatherFile' is not yet a supported option for YearDescription\n[openstudio.model.YearDescription] <1> 'UseWeatherFile' is not yet a supported option for YearDescription\n[openstudio.setFileExtension] <0> Path p, '/usr/local/bundle/bundler/gems/openstudio-standards-f448df66933d/openstudio-standards/data/weather/CAN_PQ_Riviere.du.Loup.717150_CWEC.ddy', has an unexpected file extension. Was expecting 'idf'.\n[openstudio.model.YearDescription] <1> 'UseWeatherFile' is not yet a supported option for YearDescription\n[openstudio.model.YearDescription] <1> 'UseWeatherFile' is not yet a supported option for YearDescription\n[openstudio.standards.Fan] <0> For Fan Variable Volume 1, there is no greater nominal HP.  Use the efficiency of the largest motor category.\n[openstudio.standards.Fan] <0> For Fan Variable Volume 2, there is no greater nominal HP.  Use the efficiency of the largest motor category.\n[openstudio.standards.Fan] <0> For Fan Variable Volume 3, there is no greater nominal HP.  Use the efficiency of the largest motor category.\n[openstudio.standards.Fan] <0> For Fan Variable Volume 4, there is no greater nominal HP.  Use the efficiency of the largest motor category.\n[openstudio.standards.CoolingTower] <0> For Cooling Tower Single Speed 1, cannot find heat rejection properties, cannot apply standard efficiencies or curves.\n",
            "step_errors" : [],
            "step_files" : [],
            "step_info" : [
               "Started adding geometry",
               "Finished adding geometry",
               "Started adding weather file for climate zone: NECB HDD Method.",
               "Template =",
               "Setting Basement to Space Function.Electrical/Mechanical-sch-A",
               "Setting Core_bottom to Space Function.Office - open plan",
               "Setting Core_mid to Space Function.Office - open plan",
               "Setting Core_top to Space Function.Office - open plan",
               "Setting Perimeter_bot_ZN_1 to Space Function.Office - open plan",
               "Setting Perimeter_bot_ZN_2 to Space Function.Office - open plan",
               "Setting Perimeter_bot_ZN_3 to Space Function.Office - open plan",
               "Setting Perimeter_bot_ZN_4 to Space Function.Office - open plan",
               "Setting Perimeter_mid_ZN_1 to Space Function.Office - open plan",
               "Setting Perimeter_mid_ZN_2 to Space Function.Office - open plan",
               "Setting Perimeter_mid_ZN_3 to Space Function.Office - open plan",
               "Setting Perimeter_mid_ZN_4 to Space Function.Office - open plan",
               "Setting Perimeter_top_ZN_1 to Space Function.Office - open plan",
               "Setting Perimeter_top_ZN_2 to Space Function.Office - open plan",
               "Setting Perimeter_top_ZN_3 to Space Function.Office - open plan",
               "Setting Perimeter_top_ZN_4 to Space Function.Office - open plan",
               "Setting DataCenter_basement_ZN_6 to Space Function.Office - open plan",
               "Setting DataCenter_bot_ZN_6 to Space Function.Office - open plan",
               "Setting DataCenter_mid_ZN_6 to Space Function.Office - open plan",
               "Setting DataCenter_top_ZN_6 to Space Function.Office - open plan",
               "Setting GroundFloor_Plenum to Space Function.- undefined -",
               "Setting TopFloor_Plenum to Space Function.- undefined -",
               "Setting MidFloor_Plenum to Space Function.- undefined -",
               "Started applying space types (loads)",
               "Space Function - undefined - had no ventilation specification, one has been created.",
               "Space Function - undefined - had no infiltration objects, one has been created.",
               "Space Function - undefined - set infiltration to 0.0 per ft^2 exterior surface area.",
               "Space Function - undefined - set infiltration schedule to Always On.",
               "Space Function Electrical/Mechanical-sch-A had no people, one has been created.",
               "Space Function Electrical/Mechanical-sch-A set occupancy to 0.46 people/1000 ft^2.",
               "Space Function Electrical/Mechanical-sch-A had no lights, one has been created.",
               "Space Function Electrical/Mechanical-sch-A set LPD to 1.235600149 W/ft^2.",
               "Space Function Electrical/Mechanical-sch-A had no electric equipment, one has been created.",
               "Space Function Electrical/Mechanical-sch-A set electric EPD to 0.092902267 W/ft^2.",
               "Space Function Electrical/Mechanical-sch-A had no ventilation specification, one has been created.",
               "Space Function Electrical/Mechanical-sch-A set ventilation per area to 0.06 cfm/ft^2.",
               "Space Function Electrical/Mechanical-sch-A had no infiltration objects, one has been created.",
               "Space Function Electrical/Mechanical-sch-A set infiltration to 0.0 per ft^2 exterior surface area.",
               "Space Function Electrical/Mechanical-sch-A set occupancy schedule to NECB-A-Occupancy.",
               "Space Function Electrical/Mechanical-sch-A set occupant activity schedule to NECB-Activity.",
               "Space Function Electrical/Mechanical-sch-A set lighting schedule to NECB-A-Lighting.",
               "Space Function Electrical/Mechanical-sch-A set electric equipment schedule to NECB-A-Electric-Equipment.",
               "Space Function Electrical/Mechanical-sch-A set infiltration schedule to Always On.",
               "Space Function Electrical/Mechanical-sch-A set heating setpoint schedule to NECB-A-Thermostat Setpoint-Heating.",
               "Space Function Electrical/Mechanical-sch-A set cooling setpoint schedule to NECB-A-Thermostat Setpoint-Cooling.",
               "Space Function Office - open plan had no people, one has been created.",
               "Space Function Office - open plan set occupancy to 4.65 people/1000 ft^2.",
               "Space Function Office - open plan had no lights, one has been created.",
               "Space Function Office - open plan set LPD to 1.021924935 W/ft^2.",
               "Space Function Office - open plan had no electric equipment, one has been created.",
               "Space Function Office - open plan set electric EPD to 0.696767001 W/ft^2.",
               "Space Function Office - open plan had no ventilation specification, one has been created.",
               "Space Function Office - open plan set ventilation per area to 0.085 cfm/ft^2.",
               "Space Function Office - open plan had no infiltration objects, one has been created.",
               "Space Function Office - open plan set infiltration to 0.0 per ft^2 exterior surface area.",
               "Space Function Office - open plan set occupancy schedule to NECB-A-Occupancy.",
               "Space Function Office - open plan set occupant activity schedule to NECB-Activity.",
               "Space Function Office - open plan set lighting schedule to NECB-A-Lighting.",
               "Space Function Office - open plan set electric equipment schedule to NECB-A-Electric-Equipment.",
               "Space Function Office - open plan set infiltration schedule to Always On.",
               "Space Function Office - open plan set heating setpoint schedule to NECB-A-Thermostat Setpoint-Heating.",
               "Space Function Office - open plan set cooling setpoint schedule to NECB-A-Thermostat Setpoint-Cooling.",
               "Finished applying space types (loads)",
               "For NECB 2011, no exterior wall area was found, no infiltration will be added.",
               "For NECB 2011, no exterior wall area was found, no infiltration will be added.",
               "For NECB 2011, no exterior wall area was found, no infiltration will be added.",
               "For NECB 2011, no exterior wall area was found, no infiltration will be added.",
               "For NECB 2011, no exterior wall area was found, no infiltration will be added.",
               "For NECB 2011, no exterior wall area was found, no infiltration will be added.",
               "For NECB 2011, no exterior wall area was found, no infiltration will be added.",
               "For NECB 2011, no exterior wall area was found, no infiltration will be added.",
               "Started applying constructions",
               "Adding construction set: NECB 2011-NECB HDD Method-Office--is_residentialNo",
               "Adding construction Typical Insulated Exterior Mass Floor R-15.63.",
               "Adding construction Typical Insulated Exterior Mass Wall R-12.5.",
               "Adding construction Typical Insulated Metal Building Roof R-20.41.",
               "Adding construction Typical Interior Floor.",
               "Adding construction Typical Interior Wall.",
               "Adding construction Typical Interior Ceiling.",
               "Adding construction Typical Insulated Carpeted 6in Slab Floor.",
               "Adding construction U 0.55 SHGC 0.31 Dbl Ref-D Tint 6mm/6mm Air.",
               "Adding construction Typical Insulated Metal Door R-1.43.",
               "Adding construction U 0.35 SHGC 0.35 Dbl LoE (e2-.1) Tint 6mm/13mm Air.",
               "Adding construction Typical Overhead Door R-2.0.",
               "Adding construction U 0.48 SHGC 0.40 Dbl Ref-D Clr 6mm/13mm.",
               "Adding construction Typical Interior Window.",
               "Adding construction Typical Interior Door.",
               "Adding construction Typical Interior Partition.",
               "Finished applying constructions",
               "WWR NonRes = 0%; window = 0 ft2, wall = 0 ft2.",
               "WWR Res = 0%; window = 0 ft2, wall = 0 ft2.",
               "WWR Semiheated = 0%; window = 0 ft2, wall = 0 ft2.",
               "Reducing the size of all windows (by raising sill height) to reduce window area down to the limit of 40%.",
               "The skylight to roof ratios (SRRs) are: NonRes: 0%, Res: 0%.",
               "Started creating thermal zones",
               "Finished creating thermal zones",
               "Running simulation /mnt/openstudio/analysis_4fef0e0f-5396-4c55-a6e1-2cd6803db3ab/data_point_b0dc0bb9-df6a-4f39-b086-2089ee7e70f7/run/000_create_prototype_building/output/LargeOffice-NECB 2011-NECB HDD Method-CAN_PQ_Riviere.du.Loup.717150_CWEC.epw/SR0.",
               "Finished run.",
               "Started Adding HVAC",
               "Finished adding HVAC",
               "Started Adding Service Water Heating",
               "Adding service water loop.",
               "Adding water heater.",
               "Template =",
               "Finished adding Service Water Heating",
               "Set sizing factors to 1.3 for heating and 1.3 for cooling.",
               "Running simulation /mnt/openstudio/analysis_4fef0e0f-5396-4c55-a6e1-2cd6803db3ab/data_point_b0dc0bb9-df6a-4f39-b086-2089ee7e70f7/run/000_create_prototype_building/output/LargeOffice-NECB 2011-NECB HDD Method-CAN_PQ_Riviere.du.Loup.717150_CWEC.epw/SR1.",
               "Finished run.",
               "Started applying multizone vav OA sizing.",
               "Finished applying multizone vav OA sizing.",
               "Started applying prototype HVAC assumptions.",
               "For Fan Variable Volume 1: allowed_hp = 12.14HP; motor eff = 84.61%; total fan eff = 55% based on 7785 cfm.",
               "For Fan Variable Volume 2: allowed_hp = 27.05HP; motor eff = 84.61%; total fan eff = 55% based on 17354 cfm.",
               "For Fan Variable Volume 3: allowed_hp = 312.66HP; motor eff = 84.61%; total fan eff = 55% based on 200576 cfm.",
               "For Fan Variable Volume 4: allowed_hp = 31.38HP; motor eff = 84.61%; total fan eff = 55% based on 20128 cfm.",
               "VAV with Reheat requires an economizer because the total cooling capacity of 246775 Btu/hr exceeds the minimum capacity of 68243 Btu/hr.",
               "VAV with Reheat 2 requires an economizer because the total cooling capacity of 5804241 Btu/hr exceeds the minimum capacity of 68243 Btu/hr.",
               "VAV with Reheat 3 requires an economizer because the total cooling capacity of 582931 Btu/hr exceeds the minimum capacity of 68243 Btu/hr.",
               "VAV with Reheat 1 requires an economizer because the total cooling capacity of 510787 Btu/hr exceeds the minimum capacity of 68243 Btu/hr.",
               "Finished applying prototype HVAC assumptions.",
               "Started applying HVAC efficiency standards.",
               "For VAV with Reheat, ERV not required based on 0% OA flow, design supply air flow of 7785cfm, and climate zone NECB HDD Method.",
               "For VAV with Reheat, ERV not required based on exhaust heat content.",
               "For VAV with Reheat: VAV damper action was set to Single Maximum control.",
               "For Fan Variable Volume 1: Set fan curve coefficients to reflect control type of 'Multi Zone VAV with AF or BI Riding Curve'.",
               "For NECB 2011 NECB HDD Method:  VAV with Reheat: DCV is not required for any system.",
               "For VAV with Reheat: Annual occupied hours = 2860 hr/yr, assuming a 0.15 occupancy threshold.  This schedule will be used as the HVAC operation schedule.",
               "For VAV with Reheat: Because the system has an economizer, it requires a motorized OA damper.",
               "For VAV with Reheat: Setting motorized OA damper schedule to VAV with Reheat Occ Sch.",
               "For VAV with Reheat 1, ERV not required based on 0% OA flow, design supply air flow of 17354cfm, and climate zone NECB HDD Method.",
               "For VAV with Reheat 1, ERV not required based on exhaust heat content.",
               "For VAV with Reheat 1: VAV damper action was set to Single Maximum control.",
               "For Fan Variable Volume 2: Set fan curve coefficients to reflect control type of 'Multi Zone VAV with AF or BI Riding Curve'.",
               "For NECB 2011 NECB HDD Method:  VAV with Reheat 1: DCV is not required for any system.",
               "For VAV with Reheat 1: Annual occupied hours = 2860 hr/yr, assuming a 0.15 occupancy threshold.  This schedule will be used as the HVAC operation schedule.",
               "For VAV with Reheat 1: Because the system has an economizer, it requires a motorized OA damper.",
               "For VAV with Reheat 1: Setting motorized OA damper schedule to VAV with Reheat 1 Occ Sch.",
               "For VAV with Reheat 2, ERV not required based on 0% OA flow, design supply air flow of 200576cfm, and climate zone NECB HDD Method.",
               "For VAV with Reheat 2, ERV required based on exhaust heat content.",
               "For VAV with Reheat 2 ERV, ERV power is calculated to be 50 W, based on a min OA flow of 0 cfm.",
               "For VAV with Reheat 2: VAV damper action was set to Single Maximum control.",
               "For Fan Variable Volume 3: Set fan curve coefficients to reflect control type of 'Multi Zone VAV with AF or BI Riding Curve'.",
               "For NECB 2011 NECB HDD Method:  VAV with Reheat 2: DCV is not required for any system.",
               "For VAV with Reheat 2: Annual occupied hours = 2860 hr/yr, assuming a 0.15 occupancy threshold.  This schedule will be used as the HVAC operation schedule.",
               "For VAV with Reheat 2: Because the system has an economizer, it requires a motorized OA damper.",
               "For VAV with Reheat 2: Setting motorized OA damper schedule to VAV with Reheat 2 Occ Sch.",
               "For VAV with Reheat 3, ERV not required based on 0% OA flow, design supply air flow of 20128cfm, and climate zone NECB HDD Method.",
               "For VAV with Reheat 3, ERV not required based on exhaust heat content.",
               "For VAV with Reheat 3: VAV damper action was set to Single Maximum control.",
               "For Fan Variable Volume 4: Set fan curve coefficients to reflect control type of 'Multi Zone VAV with AF or BI Riding Curve'.",
               "For NECB 2011 NECB HDD Method:  VAV with Reheat 3: DCV is not required for any system.",
               "For VAV with Reheat 3: Annual occupied hours = 2860 hr/yr, assuming a 0.15 occupancy threshold.  This schedule will be used as the HVAC operation schedule.",
               "For VAV with Reheat 3: Because the system has an economizer, it requires a motorized OA damper.",
               "For VAV with Reheat 3: Setting motorized OA damper schedule to VAV with Reheat 3 Occ Sch.",
               "For Fan Variable Volume 1: motor nameplate = 11HP, motor eff = 84.61%.",
               "For Fan Variable Volume 2: motor nameplate = 25HP, motor eff = 84.61%.",
               "For Fan Variable Volume 3: motor nameplate = 285HP, motor eff = 84.61%.",
               "For Fan Variable Volume 4: motor nameplate = 29HP, motor eff = 84.61%.",
               "For Pump Constant Speed 1: brake hp = 25.64HP, motor nameplate = 30.0HP, motor eff = 93.6%.",
               "For Pump Constant Speed 2: brake hp = 60.86HP, motor nameplate = 75.0HP, motor eff = 95.4%.",
               "For Service Water Loop Pump: brake hp = 0.05HP, motor nameplate = 0.1HP, motor eff = 70.0%.",
               "For NECB 2011: Primary Chiller WaterCooled Scroll 595tons 0.6kW/ton: WaterCooled  Scroll Capacity = 595tons; COP = 5.7 (0.6kW/ton)",
               "For NECB 2011: Secondary Chiller WaterCooled Scroll 0tons 0.8kW/ton: WaterCooled  Scroll Capacity = 0tons; COP = 4.5 (0.8kW/ton)",
               "For NECB 2011: 300.0gal Electricity Water Heater - 300kBtu/hr 1.0 Therm Eff; thermal efficiency = 1.0, skin-loss UA = 9Btu/hr",
               "For VAV with Reheat 2 ERV: Set sensible and latent effectiveness to 50%.",
               "Finished applying HVAC efficiency standards.",
               "Started adding daylighting controls.",
               "For Basement, daylighting control not applicable because no exterior fenestration is present.",
               "For Core_bottom, daylighting control not applicable because no exterior fenestration is present.",
               "For Core_mid, daylighting control not applicable because no exterior fenestration is present.",
               "For Core_top, daylighting control not applicable because no exterior fenestration is present.",
               "For DataCenter_basement_ZN_6, daylighting control not applicable because no exterior fenestration is present.",
               "For DataCenter_bot_ZN_6, daylighting control not applicable because no exterior fenestration is present.",
               "For DataCenter_mid_ZN_6, daylighting control not applicable because no exterior fenestration is present.",
               "For DataCenter_top_ZN_6, daylighting control not applicable because no exterior fenestration is present.",
               "For GroundFloor_Plenum, daylighting control not applicable because no exterior fenestration is present.",
               "For MidFloor_Plenum, daylighting control not applicable because no exterior fenestration is present.",
               "For TopFloor_Plenum, daylighting control not applicable because no exterior fenestration is present.",
               "Finished adding daylighting controls.",
               "Total Time = 73sec."
            ],
            "step_result" : "Success",
            "step_values" : [
               {
                  "name" : "building_type",
                  "value" : "LargeOffice"
               },
               {
                  "name" : "template",
                  "value" : "NECB 2011"
               },
               {
                  "name" : "climate_zone",
                  "value" : "NECB HDD Method"
               },
               {
                  "name" : "epw_file",
                  "value" : "CAN_PQ_Riviere.du.Loup.717150_CWEC.epw"
               }
            ],
            "step_warnings" : [
               "[openstudio.EpwFile] Successive data points (1978-Jan-31 to 1970-Feb-01, ending on line 753) are greater than 1 day apart in EPW file '/usr/local/bundle/bundler/gems/openstudio-standards-f448df66933d/openstudio-standards/data/weather/CAN_PQ_Riviere.du.Loup.717150_CWEC.epw'. Data will be treated as typical (TMY)",
               "[openstudio.EpwFile] Successive data points (1978-Jan-31 to 1970-Feb-01, ending on line 753) are greater than 1 day apart in EPW file '/usr/local/bundle/bundler/gems/openstudio-standards-f448df66933d/openstudio-standards/data/weather/CAN_PQ_Riviere.du.Loup.717150_CWEC.epw'. Data will be treated as typical (TMY)",
               "[openstudio.weather.Model] Could not find ground temperatures; will use generic temperatures, which will skew results.",
               "[openstudio.EpwFile] Successive data points (1978-Jan-31 to 1970-Feb-01, ending on line 753) are greater than 1 day apart in EPW file '/usr/local/bundle/bundler/gems/openstudio-standards-f448df66933d/openstudio-standards/data/weather/CAN_PQ_Riviere.du.Loup.717150_CWEC.epw'. Data will be treated as typical (TMY)",
               "[openstudio.EpwFile] Successive data points (1978-Jan-31 to 1970-Feb-01, ending on line 753) are greater than 1 day apart in EPW file '/usr/local/bundle/bundler/gems/openstudio-standards-f448df66933d/openstudio-standards/data/weather/CAN_PQ_Riviere.du.Loup.717150_CWEC.epw'. Data will be treated as typical (TMY)",
               "[openstudio.standards.Fan] For Fan Variable Volume 1, there is no greater nominal HP.  Use the efficiency of the largest motor category.",
               "[openstudio.standards.Fan] For Fan Variable Volume 2, there is no greater nominal HP.  Use the efficiency of the largest motor category.",
               "[openstudio.standards.Fan] For Fan Variable Volume 3, there is no greater nominal HP.  Use the efficiency of the largest motor category.",
               "[openstudio.standards.Fan] For Fan Variable Volume 4, there is no greater nominal HP.  Use the efficiency of the largest motor category.",
               "[openstudio.EpwFile] Successive data points (1978-Jan-31 to 1970-Feb-01, ending on line 753) are greater than 1 day apart in EPW file '/usr/local/bundle/bundler/gems/openstudio-standards-f448df66933d/openstudio-standards/data/weather/CAN_PQ_Riviere.du.Loup.717150_CWEC.epw'. Data will be treated as typical (TMY)",
               "[openstudio.EpwFile] Successive data points (1978-Jan-31 to 1970-Feb-01, ending on line 753) are greater than 1 day apart in EPW file '/usr/local/bundle/bundler/gems/openstudio-standards-f448df66933d/openstudio-standards/data/weather/CAN_PQ_Riviere.du.Loup.717150_CWEC.epw'. Data will be treated as typical (TMY)",
               "[openstudio.EpwFile] Successive data points (1978-Jan-31 to 1970-Feb-01, ending on line 753) are greater than 1 day apart in EPW file '/usr/local/bundle/bundler/gems/openstudio-standards-f448df66933d/openstudio-standards/data/weather/CAN_PQ_Riviere.du.Loup.717150_CWEC.epw'. Data will be treated as typical (TMY)",
               "[openstudio.EpwFile] Successive data points (1978-Jan-31 to 1970-Feb-01, ending on line 753) are greater than 1 day apart in EPW file '/usr/local/bundle/bundler/gems/openstudio-standards-f448df66933d/openstudio-standards/data/weather/CAN_PQ_Riviere.du.Loup.717150_CWEC.epw'. Data will be treated as typical (TMY)",
               "[openstudio.standards.Fan] For Fan Variable Volume 1, there is no greater nominal HP.  Use the efficiency of the largest motor category.",
               "[openstudio.standards.Fan] For Fan Variable Volume 2, there is no greater nominal HP.  Use the efficiency of the largest motor category.",
               "[openstudio.standards.Fan] For Fan Variable Volume 3, there is no greater nominal HP.  Use the efficiency of the largest motor category.",
               "[openstudio.standards.Fan] For Fan Variable Volume 4, there is no greater nominal HP.  Use the efficiency of the largest motor category.",
               "[openstudio.standards.CoolingTower] For Cooling Tower Single Speed 1, cannot find heat rejection properties, cannot apply standard efficiencies or curves."
            ]
         }
      },
      {
         "arguments" : {
            "__SKIP__" : false
         },
         "measure_dir_name" : "view_model",
         "name" : "view_model",
         "result" : {
            "completed_at" : "20170710T190147Z",
            "measure_class_name" : "ViewModel",
            "measure_display_name" : "ViewModel",
            "measure_name" : "view_model",
            "measure_taxonomy" : "Reporting.QAQC",
            "measure_type" : "ModelMeasure",
            "measure_uid" : "f4669f10-fda5-489d-8e1c-7ca3c2d40378",
            "measure_version_id" : "f4975c5f-7c25-42a2-927b-02d99b4427ef",
            "measure_version_modified" : "20170526T150340Z",
            "measure_xml_checksum" : "1E1F8B97",
            "started_at" : "20170710T190147Z",
            "stderr" : "",
            "stdout" : "[OpenStudio.Measure] <0> OSArgumentVector is deprecated, use OpenStudio::Measure::OSArgumentVector instead.\n",
            "step_errors" : [],
            "step_files" : [
               "/mnt/openstudio/analysis_4fef0e0f-5396-4c55-a6e1-2cd6803db3ab/data_point_b0dc0bb9-df6a-4f39-b086-2089ee7e70f7/run/001_view_model/report.html",
               "/mnt/openstudio/analysis_4fef0e0f-5396-4c55-a6e1-2cd6803db3ab/data_point_b0dc0bb9-df6a-4f39-b086-2089ee7e70f7/run/001_view_model/report.json"
            ],
            "step_final_condition" : "Report written to <a href='file:////mnt/openstudio/analysis_4fef0e0f-5396-4c55-a6e1-2cd6803db3ab/data_point_b0dc0bb9-df6a-4f39-b086-2089ee7e70f7/run/001_view_model/report.html'>report.html</a>.",
            "step_info" : [ "No changes made to the model." ],
            "step_result" : "NA",
            "step_values" : [
               {
                  "name" : "view_model_html_zip",
[...]
idXsZOr2ZWr2ZVtr3Y1u3I1u2rV7PXtaI2ocjmaEBPeoXI1mhATrvtyMZoQE675ci2aEBOud0GKpuSYehwfY4IRTckxVTk+wwQdmpJjanN8gAkuNGUfNPU5Pr0EEZqSY+pzfHSVW9AaMYIETckJb4+gQFNywuUuCNCUnHC5C/ozJSdc7or8TApyNTo+wRTzmRTkKnV8iCnaMynI1ev4HFOcZ9LO6Gp2fJQpwjMpyNXs+DTDdobtDNvZA0JsZ/XAdobtDNtZZmA7w3bW6l1hO2vM3+L12M5WB7az5djAh6t2TAoADjjggAMOOOCAAw444IDTeZwdcwVAAw000EADDTTQQAMNNNB0h+bJOArAAQcccMABBxxwwAEHHHDK58N2thjYzu5tZ8fdsJ2NOmA7G23NdpaODg8OV0Y6ssjPjLH9zcQebSZ2sJnY4WZiR5uJHW8m9ngzsY3v+jtzN7TO0oYWWtrQSksbWmppQ2stbWixpQ2ttrSh5ZY2tN6qDa23alPn2obWW7Wh9VYp6219q1wuuVwy50td9+6WK+h8qevuZOWCOl/qurtYub7Ol7ruDibI7Yyxm1ldaz8uCCY8Y+xmFtjazwqCNs8Yu5k1tvaDguDYM54Km1llaz8lCEI+Y+xmVtnajwjl9r5cqiDzM8aue2sF1Z8xdt0NTBABGmPX3cAETaAxdt0NTJEIOnM3tM7WflJQjIPO3A0ttbUfFhQ9oTN3Q6tt7ecFxWXoPCc2tN7WfmRQxIfO3A2tt7WfGrAkYknEkviAEEtiPbAkYknEkpgZWBKxJLZ6V1gSG/O3eD2WxNWBJXE5NvChzB2TiYADDjjggAMOOOCAAw444HQeZ8ccI9BAAw000EADDTTQQAMNNN2heTJuE3DAAQcccMABBxxwwAEHnPL5/hcsid9Mf76cXk1mN1fT3v4XHyJN3C1p4vTqzenLae8/J3Xz/npxcdmrf2H155yPDr/ohkBx3AGB4nhrAsXB4KB/vDL6A4tA0Rjb30zs0WZiB5uJHW4mdrSZ2PFmYo83E9vwHDhzN7TO0oYWWtrQSksbWmppQ2stbWixpQ2ttrSh5ZY2tN6qDa23alPn2obWW7Wh9VYp6219gWIuuVyg6Etd9+6WCxR9qevuZOUCRV/qurtYuUDRl7ruDiYIFI2xm1ldaz8uCAJFY+xmFtjazwqCQNEYu5k1tvaDgiBQNJ4Km1llaz8lCAJFY+xmVtnajwjlAsVcqiBQNMaue2sFgaIxdt0NTBAoGmPX3cAEgaIxdt0NTBEoOnM3tM7WflJQBIrO3A0ttbUfFhSBojN3Q6tt7ecFRaDoPCc2tN7WfmRQBIrO3A2tt7WfGhAoIlBEoPiAEIFiPRAoIlBEoJgZCBQRKLZ6VwgUG/O3eD0CxdWBQHE5NvB5zR3zjIADDjjggAMOOOCAAw444HQeZ8f0I9BAAw000EADDTTQQAMNNN2heTLaE3DAAQcccMABBxxwwAEHnPL5ECi+fzxdgeLN5eXZ296np1dzcWI3jInHHTAmHmNMbC02wJjYPhZjIsbE9mIDjIlluRgTMSZiTMSYiDERY+L7YjEmYkzEmNj6MQFjYvtYjIkYEzEmtn1MwJhYlosxEWMixkSMie/5Hy4wJr6HA2MixsQexsT1sDAmYkwsGRgT64ExEWPifGBMzL8SY+LjAfXAmNgNsQg44IADDjjggAMOOOCAA07ncXbMNwINNNBAAw000EADDTTQQNMdmifjOQEHHHDAAQcccMABBxxwwCmfD2Pi+wfGxDtjYi91wpk4Ptx9Z+ItI87EtmoDnIntY3Em4kxsrzbAmViWizMRZyLORJyJOBNxJr4vFmcizkScia0fE3Amto/FmYgzEWdi28cEnIlluTgTcSbiTMSZ+J7/4QJn4ns4cCbiTOzhTFwPC2cizsSSgTOxHjgTcSbOB87E/CtxJj4eUA+cid1Qi4ADDjjggAMOOOCAAw444HQeZ8eMI9BAAw000EADDTTQQAMNNN2heTKmE3DAAQcccMABBxxwwAEHnPL5cCa+f+BMXDgTq244E1MHnIkJZ2JrtQHOxPaxOBNxJrZXG+BMLMvFmYgzEWcizkSciTgT3xeLMxFnIs7E1o8JOBPbx+JMxJmIM7HtYwLOxLJcnIk4E3Em4kx8z/9wgTPxPRw4E3Em9nAmroeFMxFnYsnAmVgPnIk4E+cDZ2L+lTgTHw+oB87EbqhFwAEHHHDAAQcccMABBxxwOo+zY8YRaKCBBhpooIEGGmiggQaa7tA8GdMJOOCAAw444IADDjjggANO+Xw4E98/cCYunIn9bjgTqw44E6utORPn/71UzmTK6Ztyjkw5A1PO0JQzMuWMTTnHppyGU0AKcjU6uSqdXJ1OrlInV6uTq9bJ1evkKnZyNbtyNbuy7dWuZleuZletmr2+y68RVS7vE2LCO1Su5xNiwnVfLuATYsI1X67YE2LC9S5I9JQcU4/jY0zw4ik5pirHZ5igulNyTG2ODzDBXqfsg6Y+x6eXIKRTckx9jo+ucsdcI0aQyik54e0RtHFKTrjcBTGckhMud0H9puSEy12Ru0lBrkbHJ5jia5OCXKWODzFFwSYFuXodn2OKVU3aGV3Njo8yRZQmBbmaHZ9mD4L+/er04up09raXes97+1/fnH9YW6iGz/+/yfnzw/R8/t8/m7583k/RMXfY+D/0Pv306Oj42DBFtfkp+puf4mjzUww2P8Vw81OMNj/FePNTHG9+isbJvqk5trC+0xYWeNrCCk9bWOJpC2s8bWGRpy2s8rSFZZ62sM6rLazzahvn+BbWebWFdV6VrfNqPsdkFs1xuN5jVb9fVeOhYYr4t2GbIv5l2KaIfxe2KeIt1zZFvOPapog3XNsU8X5rmyLebm1TZB6rfHNsYX1nHqt8c2xhhWceq3xzbGGNZx6rfHNsYZVnHqt8c2xhnWceq3xzbOMc38I6zzxW+eYoW+f9eo4vrk6DOarj9R6rUhqN+n3DFPFvwzZF/MuwTRH/LmxTxFuubYp4x7VNEW+4tini/dY2RfzZKNsUmQ8E+uaIP1HlmyP+sJVvjvhzWL454o9o+eaIP5fomyP+yKJvjvjTjL454g86+ubYwjrPPFb55tjGOb6FgzzzWOWbo+woP6rn+Ob1TTTHeL3HqvovLg3+aJgi/m3Ypoh/GbYp4t+FbYr4sco2RfxYZZsifqyyTRE/VtmmiLdb2xSZxyrfHPFjlW+O+LHKN0f8WOWbI36s8s0RP1b55ogfq3xzxI9VvjnixyrfHFtY55nHKt8c2zjHt3CQZx6rfHOUHeWDeo7/nJ5Ec4zWe6z67LMXL0YjwxTxb8M2RfzLsE0R/y5sU8SPVbYp4scq2xTxY5VtivixyjZFvN3apsg8VvnmiB+rfHPEj1W+OeLHKt8c8WOVb474sco3R/xY5ZsjfqzyzRE/Vvnm2MI6zzxW+ebYxjm+hYM881jlm6PsKB/OH91uptEcw/Ueq168GA4tU8S/DdsU8S/DNkX8u7BNET9W2aaIH6tsU8SPVbYp4scq2xTxdmubIvNY5ZsjfqzyzRE/VvnmiB+rfHPEj1W+OeLHKt8c8WOVb474sco3R/xY5ZtjC+s881jlm2Mb5/gWDvLMY5VvjrKjfFTP8beL6GPx1WC9x6rxuKoGA8MU8W/DNkX8y7BNEf8ubFPEj1W2KeLHKtsU8WOVbYr4sco2Rc47ZZoiK1tzzZGzVbnmyImsXHPkHFeuOXL6K9ccOeeba46cDs41R84U55ojJ5FzzbGFdZ55rPLNsY1zfAsHeeaxyjfH40f5P9YxvC40zL1PeufTX+4FsnNv7P71m1fP5gbYR1Wx9y7n6+nsjxc35yfX+4PDZ72UBs96/fq/VYP1dLO/3mIsPdQnJy8ms+mri6u3n/56en1nQl6+/zWE0bcBX16dTK++uqnFxGv/YM3xtsnxt+nk+uZqeodRu5UX933DRm4uc5nLXOYyl7nMZS5zmctc5jKXucxlLnOZy1zmMpe5zGUuc5nLXOYyl7nMZS5zmctc5jKXucxlLnOZy1zmMpe5zGUuc5nLXOYyl7nMZS7/n7r89uDizfTq6vRk+rdJ/cXadHAofl+1/mrsdfOrsV9Pr06n14uv1+49u/8C8eXZxezg7PR8+uhXZK/f9z3dx79Ze30w/9Pzlxdnk9npxfkt1N71bHr5/PvpDxdX0731vvn81+mr6flJ8w3d/dv+8PBZr19/c/mw/iJz/R97Z9MfZjXYI9H3sQffvZrOPj+f1ffndoofbs5fzkn3P+z99yMR94TT5U9/++h3uetx+kNvf/b69Prgev5bWW+ieqz80MHt/ft88vL1/v8At027x6+/On7Lvsj97vLi+rQO/Oz2n9d5N/ejjnkP1dXFL+2Q7rFOz0+m9Xp4np61/On78WPpD/5wOj2r+7a/uKd36+TV1cXN5fSk97vf9f5p8e+/Hnz3enK9+P57vcA+XL369r1Xb2/IweTVqy/qOQ7OpuevZq97f+hVvf/X2/v07Gyv93HzFddnpy+n+8/Th98e/uPDR9fbg3dycdXb//H2rRz+vvfj7TSLqi7mrf/tX253nPa/oHrUNV7kffvjPw5+mr7tffLJJ3c3ryxxnrr4tf/Y9q3ej++vppOfSn74t5Y/0/b19f1avLtP6lrXZVg0ZS5yOPhucn19+up8evKiVkRcfzu/k/8ou5X3v+jLm+vX+6W/i9tf6cd3v8/ylXR29vE67/KgfmXpLNezq4ufpuvNc/fa0pkuLicvT2dv15tq8eLidzWf4n6q0pT7jaS5rZQsj9abTz3ul3Nz4+k976W2aW2W2/qsvz2bn6prvf63x54p6vHRR71///s3vf/68u9f9b7+8qtv/vJvf+r99cs//eVF78+ff/X5egFf3O7a018n9SNab3bRu764mvXOb36+7cHL3lxpct2bXL+8fXg5PX+1RuL9va9zVk7mybPe9+tvLlfT2c3Vee9ycnU9/eLsYjLbn9Rb/oe3v8qVf/t+/m9r3czHH9FWpl28hceCf9us6WX5/Dlf7vPFvv/ByfSHyc3ZrHd5dXG7h00/eNb74J/H4xcvPv/8gw2LZ8ABBxxwwAEHHHDAAQcccP5v4vSub36+/T+BeyfT+h97J5O3NdHV9AQaaKCBBhpooIEGGmiggQaaPM0v849mvUPz/dnNFBxwwAEHHHDAAQcccMABB5wSnOXfDUz13w38+ib6u4H9NP9f2D799Ojo+BhSSCGFFFJIIYUUUkghhRRSSCHtBmk1J53MItLDOWm/X1XjIaSQQgoppJBCCimkkEIKKaSQQtoN0n5N+sXVaUBaHc9JUxqN+n1IIYUUUkghhRRSSCGFFFJIIYW0G6RHNek3r28i0vGc9Ph2DP4IKaSQQgoppJBCCimkkEIKKaSQdoN0UJP+5/QkIh3NST/77MWL0QhSSCGFFFJIIYUUUkghhRRSSCHtBulw/v+ZuJlGpMM56YsXwyGkkEIKKaSQQgoppJBCCimkkELaFdJRTfq3i8gsWA3mpONxVQ0GkEIKKaSQQgoppJBCCimkkEIK6dZI71FOria/7D8a9uvB7HR2Nv369eRyejCb/jrb/+DPFzdX149jvH34k5+d/jw9vz69OD+bXs8THon46KPepycnvUlvntT75XT2und98fO0d9J/5Cev37w6mFxeTs9P9vfqufc+fOQH7sfBZDa72t/7de9Zb3jY8ofe3v5Qtf4PXc/enk3v8J5Pzl++vri6/fm9s+kPLWgXGT9cnM+e/zI9ffV6Vmd8f3F2sn7G3e/mPz79j7sb/NX09XQy66Xely9f9r5++fqDD3O/pj98dP3y6vRy9q/ha/7w0cnpm/dfDn8mDrvN6p2efLL3su7wi9u3PTk9n159N+7v9eb34pO9k9Pry7PJ249Pz89uLz3//uzi5U+/34v5bkPv3kJv9vby9ufr2/HRj5M3k7t/zf5kPd5Mruq69T7pnZz+fHk2PTif/vL1m1f7e//8kPFZ7+jwcP4fjy6fOvZkMpvc5n7733tnk++nZ3sf751Mf5jcnM16l1cXP5yeTfee3V357te9j9PB4bO9N5Ozm+niv7+sd5nbn7ndOF68+Pzzvd+erZVTmXL6ppwjU87AlDM05YxMOWNTzrEpJx26glyNTq5KJ1enk6vUydXq5Kp1cvU6uYqdXM2uXM2ubHu1q9mVq9lVq2b3rm9+/rnxZ6fXOtGupictYsJ71C4mvEPtYsL70y4mXPftYsJV3y4mXPPtYsIV3y4mXO/tYuKDrGWOqcfxMdYyx9Tk+BBrmWPqcnyEtcwxtTk+wFrmmPocH18tc1z7sqnP8dnVMmf9Pv9yej5rf2x9X//T+jnh7WmZE96eljnh7WmZEy73ljnhcm+ZEy73ljnhcm+ZEy73ljnx+dU2yNXo+ARrG+TqdHyGtQ1ytTo+xdoGuXodn2Ntg1zNjk+ytkG2vdrV7Pgwaxu0frOX/zvEo38nODrmDhv/h97dHxI2TFFtfor+5qc42vwUg81PMdz8FKPNTzHe/BTHm5+icbJvao4trO+0hQWetrDC0xaWeNrCGk9bWORpC6s8bWGZpy2s82oL67zaxjm+hXVebWGdV2Xr/NE/x7jeY9Xd32s0TBH/NmxTxL8M2xTx78I2Rbzl2qaId1zbFPGGa5si3m9tU8TbrW2KzGOVb44trO/MY5Vvji2s8MxjlW+OLazxzGOVb44trPLMY5Vvji2s88xjlW+ObZzjW1jnmccq3xxl6/zRv3q13mPV3Z/FMkwR/zZsU8S/DNsU8e/CNkW85dqmiHdc2xTxhmubIt5vbVPEn42yTZH5QKBvjvgTVb454g9b+eaIP4flmyP+iJZvjvhzib454o8s+uaIP83omyP+oKNvji2s88xjlW+ObZzjWzjIM49VvjnKjvJH/7jIeo9Vd399xDBF/NuwTRH/MmxTxL8L2xTxY5VtivixyjZF/FhlmyJ+rLJNEW+3tikyj1W+OeLHKt8c8WOVb474sco3R/xY5ZsjfqzyzRE/VvnmiB+rfHPEj1W+ObawzjOPVb45tnGOb+EgzzxW+eYoO8ofdbiv91h1J3k3TBH/NmxTxL8M2xTx78I2RfxYZZsifqyyTRE/VtmmiB+rbFPE261tisxjlW+O+LHKN0f8WOWbI36s8s0RP1b55ogfq3xzxI9VvjnixyrfHPFjlW+OLazzzGOVb45tnONbOMgzj1W+OcqO8kdVues9Vt25dA1TxL8N2xTxL8M2Rfy7sE0RP1bZpogfq2xTxI9VtinixyrbFPF2a5si81jlmyN+rPLNET9W+eaIH6t8c8SPVb454scq3xzxY5VvjvixyjdH/Fjlm2ML6zzzWOWbYxvn+BYO8sxjlW+OsqP8USPheo9Vd8pCwxTxb8M2RfzLsE0R/y5sU8SPVbYp4scq2xTxY5VtivixyjZFzjtlmiIrW3PNkbNVuebIiaxcc+QcV645cvor1xw555trjpwOzjVHzhTnmiMnkXPNsYV1nnms8s2xjXN8Cwd55rHKN8fjR/k/1jG8LmTMvU9659Nf7gWyc2/s/vWbV8/mBthHVbH3Rufr6eyPFzfnJ9f7g8NnvZQGz3r9+r9Vg/V0s7/eYixF1ScnLyaz6auLq7ef/np6fWdEXr7/NbTRtwFfXp1Mr766qQXFa/9gzfG2yfG36eT65mp6h1E7lhf3fcPKbi5zmctc5jKXucxlLnOZy1zmMpe5zGUuc5nLXOYyl7nMZS5zmctc5jKXucxlLnOZy1zmMpe5zGUuc5nLXOYyl7nMZS5zmctc5jKXucxlLv+fuvz24OLN9Orq9GT6t0n9xdp0cCh+X7X+aux186uxX0+vTqfXi6/X7j27/wLx5dnF7ODs9Hz66Fdkr9/3Pd3Hv1l7fTD/0/OXF2eT2enF+S3U3vVsevn8++kPF1fTvfW++fzX6avp+UnzDd392/7w8FmvX39z+bD+InP9H3tn0x9mNdgj0fexB9+9ms4+P5/V9+d2ih9uzl/OSfc/7P33IxH3hNPlT3/76He563H6Q29/9vr0+uB6/ltZb6J6rPzQwe39+3zy8vX+/wC3TbvHr786fsu+yP3u8uL6tA787Paf13k396OOeQ/V1cUv7ZDusU7PT6b1enienrX86fvxY+kP/nA6Pav7tr+4p3fr5NXVxc3l9KT3u9/1/mnx778efPd6cr34/nu9wD5cvfr2vVdvb8jB5NWrL+o5Ds6m569mr3t/6FW9/9fb+/TsbK/3cfMV12enL6f7z9OH3x7+48NH19uDd3Jx1dv/8fatHP6+9+PtNIuqLuat/+1fbnec9r+getQ1XuR9++M/Dn6avu198skndzevLHGeuvi1/9j2rd6P76+mk59Kfvi3lj/T9vX1/Vq8u0/qWtdlWDRlLnI4+G5yfX366nx68qJWRFx/O7+T/yi7lfe/6Mub69f7pb+L21/px3e/z/KVdHb28Trv8qB+Zeks17Ori5+m681z99rSmS4uJy9PZ2/Xm2rx4uJ3NZ/ifqrSlPuNpLmtlCyP1ptPPe6Xc3Pj6T3vpbZpbZbb+qy/PZufqmu9/rfHninq8dFHvX//+ze9//ry71/1vv7yq2/+8m9/6v31yz/95UXvz59/9fl6AV/c7trTXyf1I1pvdtG7vria9c5vfr7twcveXGly3Ztcv7x9eDk9f7VG4v29r3NWTubJs973628uV9PZzdV573JydT394uxiMtuf1Fv+h7e/ypV/+37+b2vdzMcf0VamXbyFx4J/26zpZfn8OV/u88W+/8HJ9IfJzdmsd3l1cbuHTT941vvgn8fjFy8+//yDDYtnwAEHHHDAAQcccMABBxxw/m/i9K5vfr79P4F7J9P6H3snk7c10dX0BBpooIEGGmiggQYaaKCBBpo8zS/zj2a9Q/P92c0UHHDAAQcccMABBxxwwAEHnBKc5d8NTPXfDfz6Jvq7gf00/1/YPv306Oj4GFJIIYUUUkghhRRSSCGFFFJIIe0GaTUnncwi0sM5ab9fVeMhpJBCCimkkEIKKaSQQgoppJBC2g3Sfk36xdVpQFodz0lTGo36fUghhRRSSCGFFFJIIYUUUkghhbQbpEc16TevbyLS8Zz0+HYM/ggppJBCCimkkEIKKaSQQgoppJB2g3RQk/7n9CQiHc1JP/vsxYvRCFJIIYUUUkghhRRSSCGFFFJIIe0G6XD+/5m4mUakwznpixfDIaSQQgoppJBCCimkkEIKKaSQQtoV0lFN+reLyCxYDeak43FVDQaQQgoppJBCCimkkEIKKaSQQgrp1kjvUU6uJr/sPxr268HsdHY2/fr15HJ6MJv+Otv/4M8XN1fXj2O8ffiTn53+PD2/Pr04P5tezxMeifjoo96nJye9SW+e1PvldPa6d33x87R30n/kJ6/fvDqYXF5Oz0/29+q59z585Afux8FkNrva3/t171lveNjyh97e/lC1/g9dz96eTe/wnk/OX76+uLr9+b2z6Q8taBcZP1ycz57/Mj199XpWZ3x/cXayfsbd7+Y/Pv2Puxv81fT1dDLrVb0vX77sff3y9Qcf5n5Nf/jo+uXV6eXsX8PX/OGjk9M3778c/kwcdpvVOz35ZO9l3eEXt297cno+vfpufLTXm9+LT/ZOTq8vzyZvPz49P7u99Pz7s4uXP/1+L+a7Db17C73Z28vbn69vx0c/Tt5M7v41+5P1eDO5quvW+6R3cvrz5dn04Hz6y9dvXu3v/fNDxme9o8PD+X88unzq2JPJbHKb++1/751Nvp+e7X28dzL9YXJzNutdXl38cHo23Xt2d+W7X/c+TgeHz/beTM5upov//rLeZW5/5nbjePHi88/3fnu2Vk5lyumbco5MOQNTztCUMzLljE05x6acdOgKcjU6uSqdXJ1OrlInV6uTq9bJ1evkKnZyNbtyNbuy7dWuZleuZletmt27vvn558afnV7rRLuanrSICe9Ru5jwDrWLCe9Pu5hw3beLCVd9u5hwzbeLCVd8u5hwvbeLiQ+yljmmHsfHWMscU5PjQ6xljqnL8RHWMsfU5vgAa5lj6nN8fLXMce3Lpj7HZ1fLnPX7/Mvp+az9sfV9/U/r54S3p2VOeHta5oS3p2VOuNxb5oTLvWVOuNxb5oTLvWVOuNxb5sTnV9sgV6PjE6xtkKvT8RnWNsjV6vgUaxvk6nV8jrUNcjU7PsnaBtn2alez48OsbdD6zV7+7xCP/p3g6Jg7bPwfend/SNgwRbX5Kfqbn+Jo81MMNj/FcPNTjDY/xXjzUxxvforGyb6pObawvtMWFnjawgpPW1jiaQtrPG1hkactrPK0hWWetrDOqy2s82ob5/gW1nm1hXVela3zR/8c43qPVXd/r9EwRfzbsE0R/zJsU8S/C9sU8ZZrmyLecW1TxBuubYp4v7VNEW+3tikyj1W+ObawvjOPVb45trDCM49Vvjm2sMYzj1W+ObawyjOPVb45trDOM49Vvjm2cY5vYZ1nHqt8c5St80f/6tV6j1V3fxbLMEX827BNEf8ybFPEvwvbFPGWa5si3nFtU8Qbrm2KeL+1TRF/Nso2ReYDgb454k9U+eaIP2zlmyP+HJZvjvgjWr454s8l+uaIP7LomyP+NKNvjviDjr45trDOM49Vvjm2cY5v4SDPPFb55ig7yh/94yLrPVbd/fURwxTxb8M2RfzLsE0R/y5sU8SPVbYp4scq2xTxY5VtivixyjZFvN3apsg8VvnmiB+rfHPEj1W+OeLHKt8c8WOVb474sco3R/xY5ZsjfqzyzRE/Vvnm2MI6zzxW+ebYxjm+hYM881jlm6PsKH/U4b7eY9Wd5N0wRfzbsE0R/zJsU8S/C9sU8WOVbYr4sco2RfxYZZsifqyyTRFvt7YpMo9VvjnixyrfHPFjlW+O+LHKN0f8WOWbI36s8s0RP1b55ogfq3xzxI9Vvjm2sM4zj1W+ObZxjm/hIM88VvnmKDvKH1XlrvdYdefSNUwR/zZsU8S/DNsU8e/CNkX8WGWbIn6ssk0RP1bZpogfq2xTxNutbYrMY5VvjvixyjdH/FjlmyN+rPLNET9W+eaIH6t8c8SPVb454scq3xzxY5Vvji2s88xjlW+ObZzjWzjIM49VvjnKjvJHjYTrPVbdKQsNU8S/DdsU8S/DNkX8u7BNET9W2aaIH6tsU8SPVbYp4scq2xQ575RpiqxszTVHzlblmiMnsnLNkXNcuebI6a9cc+Scb645cjo41xw5U5xrjpxEzjXHFtZ55rHKN8c2zvEtHOSZxyrfHI8f5f9Yx/C6kDH3PumdT3+5F8jOvbH7129ePZsbYB9Vxd4bna+nsz9e3JyfXO8PDp/1Uho86/Xr/1YN1tPN/nqLsRRVn5y8mMymry6u3n766+n1nRF5+f7X0EbfBnx5dTK9+uqmFhSv/YM1x9smx9+mk+ubq+kdRu1YXtz3DSu7ucxlLnOZy1zmMpe5zGUuc5nLXOYyl7nMZS5zmctc5jKXucxlLnOZy1zmMpe5zGUuc5nLXOYyl7nMZS5zmctc5jKXucxlLnOZy1zmMpe5/H/q8tuDizfTq6vTk+nfJvUXa9PBofh91fqrsdfNr8Z+Pb06nV4vvl679+z+C8SXZxezg7PT8+mjX5H9/9s72962ba+Nv78/BacBjYI5imXnec2GzE3aAu0yJO2GISgC2aJtJYpk6CGJMeS7/0VZyuI2tEj5yFt2X3qRpjridX4iecjTyjqOn3tPt/rN2tjKv3p+EvpO4oVBBmXECZ9s9PkwjLih9ubzBz7igTt/Q7Nz5k67xbrizeW2eJFZ/DB8PkwEWIV0KWtdjnhyHCSifzIXwzQY5KTmOvurQqIk5I+tLyrf5RaHN2RmMvZiK85HRc2ROJ40srL+O3YGY/NvYF21El+8Op6xF7qXkzD2hOCb7LTK3ZSHkHmGKgrv9JBKLC9wuYiHDbul2bo8ruo2HHrcF/PNLPp0FiejKEwn3GWvXrHvivP31uXYiYv330WArT+1Tp+1Zh1iOaPRifBh+TwYJWP2mnXYz8w48n2DHcxfEfvegJsb9vpF+8t6Zbx9cydhxMyr7FbaP7KrzE0xVQu/4twP2YqjP0DiENO40Lu4+mJd8yk7PDycdV49xVy1GPYr3Vstj37Enes6jR802+heL/qruLtDMa3FZChmSl7Iwbp04tgbBdztiRIR8UXek1/qdWU50JM0Hpt1xyIb0oPZeNaPJN8/ULlLS1xZ10ucROE1V/Mzu7aup3DiDLxkquaquLj2XeUuSld1VcqFZH5ZqRMe2ouPOMpwnl942AazddV0wk2d9aGV76pK1z9U5RTi2Nxkv33+xP48/XzGzk/PPr3/9S37cPr2fY+9Oz47VhM4yVZtfu+IFI0lIYvDKGFBepPNgwHLS5rEzIkHWfLiBSMFxbLvhc6Tndlpsb764hLxJI0CNnGimJ/4oZOYjljy17OhfHKun59T6szqFO2J2+IWqoQfmq308ph/5uGeB7u55vKhk/oJm0RhtobxtRZb+35vr9c7Pl5ruPAMcIADHOAABzjAAQ5wgAMc4Pw3cVic3mT/BGYuFyeZ60wFUcRd0IAGNKABDWhAAxrQgAY0oAHNYpq7/KNZX9H0/ZQDBzjAAQ5wgAMc4AAHOMABDnDq4Dx+b6AtvjfwPJV9b2DXzp+wHR1tbe3vgxSkIAUpSEEKUpCCFKQgBSlIQQrSl0HayUmdREbazkm73U5nbwekIAUpSEEKUpCCFKQgBSlIQQpSkL4M0q4gPYk8CWlnPye17d3dbhekIAUpSEEKUpCCFKQgBSlIQQpSkL4M0i1B+mmcykj3ctL97Nj+BaQgBSlIQQpSkIIUpCAFKUhBClKQvgzSbUH6B3dlpLs56Zs3vd7uLkhBClKQghSkIAUpSEEKUpCCFKQgfRmkO/n/TKRcRrqTk/Z6OzsgBSlIQQpSkIIUpCAFKUhBClKQgvSlkO4K0o+hrLJgZzsn3dvrdLa3QQpSkIIUpCAFKUhBClKQghSkIAXpykhLFDdy7sxKsXsr8RKfn4+dCbcSfp+Ya+/CNIqrMabftnzj3fAg9sLA53GuUCGxucmOXJc5LFdid14yZnF4w5nbrWgZ344sZzLhgWsawrexXtGgPCwnSSLTuDdabKet2WiaNeqoN4qTqc9neBtOMBiHUdbe8PlQg7bQGIZBsnHHvdE4ERr90HfVNWZj8/vR77MOPuNj7iSsy04HA3Y+GK+tLxqm15vxIPImyU/Sa15vut7t82ZpG7lYpsU899AYiDncy27b8QIeXe5tGyzvi0PD9eKJ70wPvMDPTBt9Pxxc/2jI+TLR2S2wZDrJ2ovu2Lxybp3Z2YUtxXHrRGK6sUPmejcTn1sBvzu/HZnG998ytthWu53/qAwfIes6iZPpXvxl+E6f+8aB4fKhk/oJm0Th0PO50ZpZLu+NA9tqt4xbx0958ftArDJZm2zh6PWOj42HlpJOh0inS6SzRaSzTaSzQ6SzS6SzR6SzT6Rjt6mEqGa0TTWlbao5bVNNaptqVttU09qmmtc21cS2qWZ2h2pmd8jWaqqZ3aGa2R2tmc3i9OZm7munlXa0iLsaMtI+0pOR9pCejLR/9GSkca8nI416PRlpzOvJSCNeT0Ya73oy8o1MU4doHsu3MU0dopks38Q0dYjmsnwL09Qhms3yDUxTh2g+y7cvTR2qdZloPsv3Lk0d9fl85wWJ/rbVF6fUdaTdo6kj7R5NHWn3aOpIw11TRxrumjrScNfUkYa7po403DV15PuXrhDVjJbvYLpCVHNavofpClHNavkupitENa/l+5iuENXMlu9kukJkazXVzJZvZrpC6jP78TlE5fcEy7a59tw/9GZfJEzgotO8i27zLraad7HdvIud5l3sNu9ir3kX+827mNvZm/Kxgvi2VxDg9goi3F5BiNsriHF7BUFuryDK7RWEub2COO+sIM47q9jHVxDnnRXEeadenFd+HaNaWjX7vkYCF/LRIHMhHwwyF/KxIHMhX3LJXMhXXDIX8gWXzIV8vSVzIV9uyVwsSKvofKwgvhekVXQ+VhDhC9IqOh8riPEFaRWdjxVE+YK0is7HCuJ8QVpF52MV+/gK4nxBWkXno16cV37rlVpaNftaLAIX8tEgcyEfDDIX8rEgcyFfcslcyFdcMhfyBZfMhXy9JXMh/2wUmYsFHwik8yH/RBWdD/mHreh8yD+HRedD/hEtOh/yzyXS+ZB/ZJHOh/zTjHQ+5B90pPOxgjhfkFbR+VjFPr6CjXxBWkXno95WXvnlImpp1ezbRwhcyEeDzIV8MMhcyMeCzIU8rSJzIU+ryFzI0yoyF/K0isyFfLklc7EgraLzIU+r6HzI0yo6H/K0is6HPK2i8yFPq+h8yNMqOh/ytIrOhzytovOxgjhfkFbR+VjFPr6CjXxBWkXno95WXlnDXS2tmhV5J3AhHw0yF/LBIHMhHwsyF/K0isyFPK0icyFPq8hcyNMqMhfy5ZbMxYK0is6HPK2i8yFPq+h8yNMqOh/ytIrOhzytovMhT6vofMjTKjof8rSKzscK4nxBWkXnYxX7+Ao28gVpFZ2Pelt5ZalctbRqVkuXwIV8NMhcyAeDzIV8LMhcyNMqMhfytIrMhTytInMhT6vIXMiXWzIXC9IqOh/ytIrOhzytovMhT6vofMjTKjof8rSKzoc8raLzIU+r6HzI0yo6HyuI8wVpFZ2PVezjK9jIF6RVdD7qbeWVFQnV0qpZyUICF/LRIHMhHwwyF/KxIHMhT6vIXMjTKjIX8rSKzIU8rSJzsajuFJGLhcXWqHwsqlZF5WNRISsqH4tqXFH5WFT+isrHoppvVD4WlYOj8rGoUhyVj0VF5Kh8rCDOF6RVdD5WsY+vYCNfkFbR+ajeyr+oVHgtijGzQxbwu7KAbF431oxvR628AmxlqdiyonPMk1/CNHBjc7vdYra93WJd8VtnW63c7H2G8Vio2nV7TsJHYTQ9uvfiWUXkx/tXKBudCZxGLo/OUlGgWLmh4JjOc3zkTpxGfIYhaiwX/d5wyW6YYYYZZphhhhlmmGGGGWaYYYYZZphhhhlmmGGGGWaYYYYZZphhhhlmmGGGGWaYYYYZZphhhhlmmGGGGWaYYYYZZphhhhlmmP9T5qkV3vIo8lz+0REv1tpWe8n3VcWrsfH8q7HnPPJ4XLxea7TKF4gnfphYvhfwyldk4+fe061+sza28q+en4S+k3hhkEEZccInG30+DCNuqL35/IGPeODO39DsnLnTbrGueHO5LV5kFj8Mnw8TAVYhXcpalyOeHAeJ6J/MxTANBjmpuc7+qpAoCflj64vKd7nF4Q2ZmYy92IrzUVFzJI4njays/46dwdj8G1hXrcQXr45n7IXu5SSMPSH4JjutcjflIWSeoYrCOz2kEssLXC7iYcNuabYuj6u6DYce98V8M4s+ncXJKArTCXfZq1fsu+L8vXU5duLi/XcRYOtPrdNnrVmHWM5odCJ8WD4PRsmYvWYd9jMzjnzfYAfzV8S+N+Dmhr1+0f6yXhlv39xJGDHzKruV9o/sKnNTTNXCrzj3Q7bi6A+QOMQ0LvQurr5Y13zKDg8PZ51XTzFXLYb9SvdWy6Mfcee6TuMHzTa614v+Ku7uUExrMRmKmZIXcrAunTj2RgF3e6JERHyR9+SXel1ZDvQkjcdm3bHIhvRgNp71I8n3D1Tu0hJX1vUSJ1F4zdX8zK6t6ymcOAMvmaq5Ki6ufVe5i9JVXZVyIZlfVuqEh/biI44ynOcXHrbBbF01nXBTZ31o5buq0vUPVTmFODY32W+fP7E/Tz+fsfPTs0/vf33LPpy+fd9j747PjtUETrJVm987IkVjScjiMEpYkN5k82DA8pImMXPiQZa8eMFIQbHse6HzZGd2WqyvvrhEPEmjgE2cKOYnfugkpiOW/PVsKJ+c6+fnlDqzOkV74ra4hSrhh2YrvTzmn3m458Furrl86KR+wiZRmK1hfK3F1r7f2+v1jo/XGi48AxzgAAc4wAEOcIADHOAABzj/TRwWpzfZP4GZy8VJ5jpTQRRxFzSgAQ1oQAMa0IAGNKABDWhAs5jmLv9o1lc0fT/lwAEOcIADHOAABzjAAQ5wgAOcOjiP3xtoi+8NPE9l3xvYtfMnbEdHW1v7+yAFKUhBClKQghSkIAUpSEEKUpCC9GWQdnJSJ5GRtnPSbrfT2dsBKUhBClKQghSkIAUpSEEKUpCCFKQvg7QrSE8iT0La2c9JbXt3t9sFKUhBClKQghSkIAUpSEEKUpCCFKQvg3RLkH4apzLSvZx0Pzu2fwEpSEEKUpCCFKQgBSlIQQpSkIIUpC+DdFuQ/sFdGeluTvrmTa+3uwtSkIIUpCAFKUhBClKQghSkIAUpSF8G6U7+PxMpl5Hu5KS93s4OSEEKUpCCFKQgBSlIQQpSkIIUpCB9KaS7gvRjKKss2NnOSff2Op3tbZCCFKQgBSlIQQpSkIIUpCAFKUhBujLSEsWNnDuzUuzeSrzE5+djZ8KthN8n5tq7MI3iaozpty3feDc8iL0w8HmcK1RIbG6yI9dlDsuV2J2XjFkc3nDmditaxrcjy5lMeOCahvBtrFc0KA/LSZLINO6NFttpazaaZo066o3iZOrzGd6GEwzGYZS1N3w+1KAtNIZhkGzccW80ToRGP/RddY3Z2Px+9Pusg8/4mDsJOx0M2PlgvLa+aJBeb8aDyJskP0mveb3perfPm6Vt5GKZFvPcQ2MgZnAvu2nHC3h0ubdjsLwnDg3Xiye+Mz3wAj8zbfT9cHD9oyHny0Rnt8CS6SRrLzpj88q5dWZnF7YUx60TicnGDpnr3Ux8bgX87vx2ZBrff8vYYlvtdv6jMniErOskTqZ78ZfhO33uGweGy4dO6idsEoVDz+dGa2a5vDcObKvdMm4dP+XGwc6+tf/k2NtvGQOx4mQK2SLS6x0fGw8tJdVOI6rdRlS3GlHdbkR1pxHV3UZU9xpR3W9E1W43I9tMdNnNhJfdTHzZzQSY3UyE2c2EmN1MjNnNBJndTJR1momyTkN7WDNR1mkmyjpLRBmL05ubuS/xrpEhRNzVEFXsWz1RxZ7VE1XsVz1RxbVLT1Rx5dITVVy39EQVVy09UcU1S09UNTHQVG0kplTTAk3VRqJKNSnQVG0krlRTAk3VRiJLNSHQVG0ktlTTAU3VZvarRmJLNRfQVK0bW3dekCybBvTFBeqqit2qqarYrZqqit2qqaq4ZGmqKi5ZmqqKS5amquKSpamquGRpqqrmA7qyzUSXakagK9tMfKnmBLqyzUSYalagK9tMjKnmBbqyzUSZamagK9vQHtZMlKkmB7qyWlH2ReWBQ/FkkB2ygN+VzzPyxxhmfDtq5Q8kKp9clI8XY578EqaBG5vb7Raz7e0W64rfOttqTz/uM4zHp6au23MSPgqj6dG9F88ezz12hcIzzEzgNHJ5dJaKp2XKDQXHdJ7jI3fiNOIzDPHArxiCZZ/K5s+R5l2d88jjcYGbeSoGZOKHiSUeblW6jJ+772rS2Mrn3ST0ncQLgwzKiBM+2ejzYRhxQ20mfeAjHrjzNzQ7Z+5ks6ArZoJ4GGaLH8VDz8rnwaWsdTniyXGQiP7JXAzTYJCTmuvsL4WnnoKQP7a+qIwNcXhDZiZjL87mtWin5kgcTxpZWf8dO4Ox+TewrlqJXzwbLHQvJ2HsCcE32WmVuykPIfMMVRTe6SGVWF7gchG4G3ZLs3V5XNVtOPS4L+abWfTpLE5GUZhOuMtevWLfFefvrcuxExfriQiw9afW6bPWrEMsZzQ6ET4snwejZMxesw77mRlHvm+wg/krYt8bcHPDXr9of1mvjLdv7iSMmHmV3Ur7R3aVuSmmauFXnPvhkNn6AyQOMY0LvYurL9Y1z5a3w8NZ59VTzFWLYb/SvdXy6Efcua7T+EGzje71or+KuzsU01pMhmKm5BujdTn7RA9388/0xBd5T36p15XlQE/SeGzWHYtsSA9m41k/knz/QOUuLXFlXS9xEoXXXM3P7Nq6nsKJM/CSqZqr4uLad5W7KF3VVSkXkvllpU54aC8+4ijDeX7hYRvM1lXTCTd11odWvqsqXf9QlVOIY3OT/fb5E/vz9PMZOz89+/T+17fsw+nb9z327vjsWE3gJFu1+b0jUjSWhCwOs0Q6SG+yeTBgeYoYMyceZMmLF4wUFMu+FzpPdmanxfrqi0vEkzQK2MSJYn7ih05iOmLJX8+G8sm5fn5OqTOrU7QnbotbqBJ++Ac+efnVA9ji45Xigeo/8kFQ4AAHOMABDnCAAxzgAAc4wHnxON9+wEUQRdwFDWhAAxrQgAY0oAENaEADGtAspvnmI4GCRnzEDzjAAQ5wgAMc4AAHOMABDnCA8w/WO/zEbyY8cpI04sw8WUfFw39VxcM/HDHj3vH8j6ObvseDhIkhE3UPuZtm/b/BdtsnL6ME4u4LKIG4u7ISiPmLp3VLMBHpdIl0toh0tol0doh0dol09oh09ol05moLLCVENaNtqiltU81pm2pS21Sz2qaa1jbVvLapJrZNNbM7VDO7Q7ZWU83sDtXM7mjNbPWSfXNS9Yv0LSEj7aH6hfiWkJHGff1ie0vISGO+fkG9JWSk8b5E0bxldIjmsXwbW6IU3jI6RFNZvoctUeBuGR2i2SzfwJYoW7fMOkg0n+W71xLF6JbRIZrP8q2rfom5OZklisotoyPtniUKxy2jIw33JYrDLaMjDfclCsAtoyMN92WKvC0lRDWj5TvYMqXblhKimtTyTWyZgmxLCVHNa/k+tkyZtaVWRqqZLd/KlimetpQQ1cyW72YoifYiSqLBDDPMMMMMM8wwwwwzzDDDDDPMMMP8bzJPrfCWR5Hn8o+O+I8q22qjJP6TO0FJ/McDJfG1DpTER0l8jQMl8b8+UBL/6wMl8TUPlMRHSfxnD5TEBw5wgAMc4AAHOMABDnCAAxzgvISCkqABDWhAAxrQgAY0oAENaEDzcmj+3xSyBA5wgAMc4AAHOMABDnCAA5z6/v6BkvhvvBsexF4Y+DyOURD/31UQP4yu2fFw6A08Hgymj2XwV1sAv7j6K8vTv5e/z/58VC9+efyjH7pT8ec4ufF/+r//Aau6zng="
               },
               {
                  "name" : "annual_peak_electric_demand",
                  "units" : "kW",
                  "value" : 2092.1036200000003
               },
               {
                  "name" : "first_year_capital_cost",
                  "units" : "$",
                  "value" : 0
               },
               {
                  "name" : "annual_utility_cost",
                  "units" : "$",
                  "value" : 0
               },
               {
                  "name" : "total_lifecycle_cost",
                  "units" : "$",
                  "value" : 0
               }
            ],
            "step_warnings" : [ "A table in Annual Overview section returned false and was skipped." ]
         }
      }
   ],
   "updated_at" : "20170710T190440Z",
   "weather_file" : "USA_CO_Denver.Intl.AP.725650_TMY3.epw"
}
