{
   "completed_at" : "20170710T182829Z",
   "completed_status" : "Success",
   "created_at" : "2017-07-10 18:23:56 +0000",
   "current_step" : 5,
   "description" : "",
   "eplusout_err" : "Program Version,EnergyPlus, Version 8.7.0-78a111df4a, YMD=2017.07.10 18:25,IDD_Version 8.7.0\n   ************* IDF Context for following error/warning message:\n   ************* Note -- lines truncated at 300 characters, if necessary...\n   *************      5 Building,\n   ************* indicated Name=NECB 2011-MidriseApartment-NECB HDD Method-CAN_BC_Victoria.717990_CWEC.epw created: 2017-07-10 18:24:08 +0000\n   ************* Only last 1 lines before error line shown.....\n   *************      6   NECB 2011-MidriseApartment-NECB HDD Method-CAN_BC_Victoria.717990_CWEC.epw created: 2017-07-10 18:24:08 +0000, !- Name\n   ** Warning ** IP: IDF line~6 Alpha Argument length exceeds maximum, will be truncated=  NECB 2011-MidriseApartment-NECB HDD Method-CAN_BC_Victoria.717990_CWEC.epw created: 2017-07-10 18:24:08 +000\n   **   ~~~   ** Will be processed as Alpha=NECB 2011-MIDRISEAPARTMENT-NECB HDD METHOD-CAN_BC_VICTORIA.717990_CWEC.EPW CREATED: 2017-07-10 18:24:08 +0000\n   ************* Beginning Zone Sizing Calculations\n   ** Warning ** ProcessScheduleInput: Schedule:Day:Interval=\"ECONOMIZER MAX OA FRACTION 100 PCT DEFAULT\", Blank Schedule Type Limits Name input -- will not be validated.\n   ** Warning ** ProcessScheduleInput: Schedule:Day:Interval=\"SCHEDULE DAY 1\", Blank Schedule Type Limits Name input -- will not be validated.\n   ** Warning ** ProcessScheduleInput: Schedule:Day:Interval=\"SCHEDULE DAY 10\", Blank Schedule Type Limits Name input -- will not be validated.\n   ** Warning ** ProcessScheduleInput: Schedule:Day:Interval=\"SCHEDULE DAY 11\", Blank Schedule Type Limits Name input -- will not be validated.\n   ** Warning ** ProcessScheduleInput: Schedule:Day:Interval=\"SCHEDULE DAY 12\", Blank Schedule Type Limits Name input -- will not be validated.\n   ** Warning ** ProcessScheduleInput: Schedule:Day:Interval=\"SCHEDULE DAY 13\", Blank Schedule Type Limits Name input -- will not be validated.\n   ** Warning ** ProcessScheduleInput: Schedule:Day:Interval=\"SCHEDULE DAY 14\", Blank Schedule Type Limits Name input -- will not be validated.\n   ** Warning ** ProcessScheduleInput: Schedule:Day:Interval=\"SCHEDULE DAY 15\", Blank Schedule Type Limits Name input -- will not be validated.\n   ** Warning ** ProcessScheduleInput: Schedule:Day:Interval=\"SCHEDULE DAY 16\", Blank Schedule Type Limits Name input -- will not be validated.\n   ** Warning ** ProcessScheduleInput: Schedule:Day:Interval=\"SCHEDULE DAY 17\", Blank Schedule Type Limits Name input -- will not be validated.\n   ** Warning ** ProcessScheduleInput: Schedule:Day:Interval=\"SCHEDULE DAY 18\", Blank Schedule Type Limits Name input -- will not be validated.\n   ** Warning ** ProcessScheduleInput: Schedule:Day:Interval=\"SCHEDULE DAY 19\", Blank Schedule Type Limits Name input -- will not be validated.\n   ** Warning ** ProcessScheduleInput: Schedule:Day:Interval=\"SCHEDULE DAY 2\", Blank Schedule Type Limits Name input -- will not be validated.\n   ** Warning ** ProcessScheduleInput: Schedule:Day:Interval=\"SCHEDULE DAY 20\", Blank Schedule Type Limits Name input -- will not be validated.\n   ** Warning ** ProcessScheduleInput: Schedule:Day:Interval=\"SCHEDULE DAY 21\", Blank Schedule Type Limits Name input -- will not be validated.\n   ** Warning ** ProcessScheduleInput: Schedule:Day:Interval=\"SCHEDULE DAY 22\", Blank Schedule Type Limits Name input -- will not be validated.\n   ** Warning ** ProcessScheduleInput: Schedule:Day:Interval=\"SCHEDULE DAY 23\", Blank Schedule Type Limits Name input -- will not be validated.\n   ** Warning ** ProcessScheduleInput: Schedule:Day:Interval=\"SCHEDULE DAY 24\", Blank Schedule Type Limits Name input -- will not be validated.\n   ** Warning ** ProcessScheduleInput: Schedule:Day:Interval=\"SCHEDULE DAY 25\", Blank Schedule Type Limits Name input -- will not be validated.\n   ** Warning ** ProcessScheduleInput: Schedule:Day:Interval=\"SCHEDULE DAY 26\", Blank Schedule Type Limits Name input -- will not be validated.\n   ** Warning ** ProcessScheduleInput: Schedule:Day:Interval=\"SCHEDULE DAY 27\", Blank Schedule Type Limits Name input -- will not be validated.\n   ** Warning ** ProcessScheduleInput: Schedule:Day:Interval=\"SCHEDULE DAY 28\", Blank Schedule Type Limits Name input -- will not be validated.\n   ** Warning ** ProcessScheduleInput: Schedule:Day:Interval=\"SCHEDULE DAY 29\", Blank Schedule Type Limits Name input -- will not be validated.\n   ** Warning ** ProcessScheduleInput: Schedule:Day:Interval=\"SCHEDULE DAY 30\", Blank Schedule Type Limits Name input -- will not be validated.\n   ** Warning ** ProcessScheduleInput: Schedule:Day:Interval=\"SCHEDULE DAY 31\", Blank Schedule Type Limits Name input -- will not be validated.\n   ** Warning ** ProcessScheduleInput: Schedule:Day:Interval=\"SCHEDULE DAY 32\", Blank Schedule Type Limits Name input -- will not be validated.\n   ** Warning ** ProcessScheduleInput: Schedule:Day:Interval=\"SCHEDULE DAY 33\", Blank Schedule Type Limits Name input -- will not be validated.\n   ** Warning ** ProcessScheduleInput: Schedule:Day:Interval=\"SCHEDULE DAY 34\", Blank Schedule Type Limits Name input -- will not be validated.\n   ** Warning ** ProcessScheduleInput: Schedule:Day:Interval=\"SCHEDULE DAY 35\", Blank Schedule Type Limits Name input -- will not be validated.\n   ** Warning ** ProcessScheduleInput: Schedule:Day:Interval=\"SCHEDULE DAY 36\", Blank Schedule Type Limits Name input -- will not be validated.\n   ** Warning ** ProcessScheduleInput: Schedule:Day:Interval=\"SCHEDULE DAY 37\", Blank Schedule Type Limits Name input -- will not be validated.\n   ** Warning ** ProcessScheduleInput: Schedule:Day:Interval=\"SCHEDULE DAY 38\", Blank Schedule Type Limits Name input -- will not be validated.\n   ** Warning ** ProcessScheduleInput: Schedule:Day:Interval=\"SCHEDULE DAY 39\", Blank Schedule Type Limits Name input -- will not be validated.\n   ** Warning ** ProcessScheduleInput: Schedule:Day:Interval=\"SCHEDULE DAY 40\", Blank Schedule Type Limits Name input -- will not be validated.\n   ** Warning ** ProcessScheduleInput: Schedule:Day:Interval=\"SCHEDULE DAY 41\", Blank Schedule Type Limits Name input -- will not be validated.\n   ** Warning ** ProcessScheduleInput: Schedule:Day:Interval=\"SCHEDULE DAY 42\", Blank Schedule Type Limits Name input -- will not be validated.\n   ** Warning ** ProcessScheduleInput: Schedule:Day:Interval=\"SCHEDULE DAY 43\", Blank Schedule Type Limits Name input -- will not be validated.\n   ** Warning ** ProcessScheduleInput: Schedule:Day:Interval=\"SCHEDULE DAY 44\", Blank Schedule Type Limits Name input -- will not be validated.\n   ** Warning ** ProcessScheduleInput: Schedule:Day:Interval=\"SCHEDULE DAY 45\", Blank Schedule Type Limits Name input -- will not be validated.\n   ** Warning ** ProcessScheduleInput: Schedule:Day:Interval=\"SCHEDULE DAY 46\", Blank Schedule Type Limits Name input -- will not be validated.\n   ** Warning ** ProcessScheduleInput: Schedule:Day:Interval=\"SCHEDULE DAY 47\", Blank Schedule Type Limits Name input -- will not be validated.\n   ** Warning ** ProcessScheduleInput: Schedule:Day:Interval=\"SCHEDULE DAY 48\", Blank Schedule Type Limits Name input -- will not be validated.\n   ** Warning ** ProcessScheduleInput: Schedule:Day:Interval=\"SCHEDULE DAY 49\", Blank Schedule Type Limits Name input -- will not be validated.\n   ** Warning ** ProcessScheduleInput: Schedule:Day:Interval=\"SCHEDULE DAY 50\", Blank Schedule Type Limits Name input -- will not be validated.\n   ** Warning ** ProcessScheduleInput: Schedule:Day:Interval=\"SCHEDULE DAY 51\", Blank Schedule Type Limits Name input -- will not be validated.\n   ** Warning ** ProcessScheduleInput: Schedule:Day:Interval=\"SCHEDULE DAY 52\", Blank Schedule Type Limits Name input -- will not be validated.\n   ** Warning ** ProcessScheduleInput: Schedule:Day:Interval=\"SCHEDULE DAY 53\", Blank Schedule Type Limits Name input -- will not be validated.\n   ** Warning ** ProcessScheduleInput: Schedule:Day:Interval=\"SCHEDULE DAY 54\", Blank Schedule Type Limits Name input -- will not be validated.\n   ** Warning ** ProcessScheduleInput: Schedule:Day:Interval=\"SCHEDULE DAY 55\", Blank Schedule Type Limits Name input -- will not be validated.\n   ** Warning ** ProcessScheduleInput: Schedule:Day:Interval=\"SCHEDULE DAY 56\", Blank Schedule Type Limits Name input -- will not be validated.\n   ** Warning ** ProcessScheduleInput: Schedule:Day:Interval=\"SCHEDULE DAY 57\", Blank Schedule Type Limits Name input -- will not be validated.\n   ** Warning ** ProcessScheduleInput: Schedule:Day:Interval=\"SCHEDULE DAY 58\", Blank Schedule Type Limits Name input -- will not be validated.\n   ** Warning ** ProcessScheduleInput: Schedule:Day:Interval=\"SCHEDULE DAY 59\", Blank Schedule Type Limits Name input -- will not be validated.\n   ** Warning ** ProcessScheduleInput: Schedule:Day:Interval=\"SCHEDULE DAY 6\", Blank Schedule Type Limits Name input -- will not be validated.\n   ** Warning ** ProcessScheduleInput: Schedule:Day:Interval=\"SCHEDULE DAY 60\", Blank Schedule Type Limits Name input -- will not be validated.\n   ** Warning ** ProcessScheduleInput: Schedule:Day:Interval=\"SCHEDULE DAY 61\", Blank Schedule Type Limits Name input -- will not be validated.\n   ** Warning ** ProcessScheduleInput: Schedule:Day:Interval=\"SCHEDULE DAY 62\", Blank Schedule Type Limits Name input -- will not be validated.\n   ** Warning ** ProcessScheduleInput: Schedule:Day:Interval=\"SCHEDULE DAY 63\", Blank Schedule Type Limits Name input -- will not be validated.\n   ** Warning ** ProcessScheduleInput: Schedule:Day:Interval=\"SCHEDULE DAY 64\", Blank Schedule Type Limits Name input -- will not be validated.\n   ** Warning ** ProcessScheduleInput: Schedule:Day:Interval=\"SCHEDULE DAY 65\", Blank Schedule Type Limits Name input -- will not be validated.\n   ** Warning ** ProcessScheduleInput: Schedule:Day:Interval=\"SCHEDULE DAY 66\", Blank Schedule Type Limits Name input -- will not be validated.\n   ** Warning ** ProcessScheduleInput: Schedule:Day:Interval=\"SCHEDULE DAY 67\", Blank Schedule Type Limits Name input -- will not be validated.\n   ** Warning ** ProcessScheduleInput: Schedule:Day:Interval=\"SCHEDULE DAY 68\", Blank Schedule Type Limits Name input -- will not be validated.\n   ** Warning ** ProcessScheduleInput: Schedule:Day:Interval=\"SCHEDULE DAY 69\", Blank Schedule Type Limits Name input -- will not be validated.\n   ** Warning ** ProcessScheduleInput: Schedule:Day:Interval=\"SCHEDULE DAY 7\", Blank Schedule Type Limits Name input -- will not be validated.\n   ** Warning ** ProcessScheduleInput: Schedule:Day:Interval=\"SCHEDULE DAY 70\", Blank Schedule Type Limits Name input -- will not be validated.\n   ** Warning ** ProcessScheduleInput: Schedule:Day:Interval=\"SCHEDULE DAY 71\", Blank Schedule Type Limits Name input -- will not be validated.\n   ** Warning ** ProcessScheduleInput: Schedule:Day:Interval=\"SCHEDULE DAY 72\", Blank Schedule Type Limits Name input -- will not be validated.\n   ** Warning ** ProcessScheduleInput: Schedule:Day:Interval=\"SCHEDULE DAY 73\", Blank Schedule Type Limits Name input -- will not be validated.\n   ** Warning ** ProcessScheduleInput: Schedule:Day:Interval=\"SCHEDULE DAY 74\", Blank Schedule Type Limits Name input -- will not be validated.\n   ** Warning ** ProcessScheduleInput: Schedule:Day:Interval=\"SCHEDULE DAY 75\", Blank Schedule Type Limits Name input -- will not be validated.\n   ** Warning ** ProcessScheduleInput: Schedule:Day:Interval=\"SCHEDULE DAY 76\", Blank Schedule Type Limits Name input -- will not be validated.\n   ** Warning ** ProcessScheduleInput: Schedule:Day:Interval=\"SCHEDULE DAY 77\", Blank Schedule Type Limits Name input -- will not be validated.\n   ** Warning ** ProcessScheduleInput: Schedule:Day:Interval=\"SCHEDULE DAY 78\", Blank Schedule Type Limits Name input -- will not be validated.\n   ** Warning ** ProcessScheduleInput: Schedule:Day:Interval=\"SCHEDULE DAY 79\", Blank Schedule Type Limits Name input -- will not be validated.\n   ** Warning ** ProcessScheduleInput: Schedule:Day:Interval=\"SCHEDULE DAY 8\", Blank Schedule Type Limits Name input -- will not be validated.\n   ** Warning ** ProcessScheduleInput: Schedule:Day:Interval=\"SCHEDULE DAY 9\", Blank Schedule Type Limits Name input -- will not be validated.\n   ** Warning ** ProcessScheduleInput: Schedule:Year=\"ECONOMIZER MAX OA FRACTION 100 PCT\", Blank Schedule Type Limits Name input -- will not be validated.\n   ** Warning ** ProcessScheduleInput: Schedule:Year=\"SCHEDULE RULESET 10\", Blank Schedule Type Limits Name input -- will not be validated.\n   ** Warning ** ProcessScheduleInput: Schedule:Year=\"SCHEDULE RULESET 11\", Blank Schedule Type Limits Name input -- will not be validated.\n   ** Warning ** ProcessScheduleInput: Schedule:Year=\"SCHEDULE RULESET 12\", Blank Schedule Type Limits Name input -- will not be validated.\n   ** Warning ** ProcessScheduleInput: Schedule:Year=\"SCHEDULE RULESET 13\", Blank Schedule Type Limits Name input -- will not be validated.\n   ** Warning ** ProcessScheduleInput: Schedule:Year=\"SCHEDULE RULESET 14\", Blank Schedule Type Limits Name input -- will not be validated.\n   ** Warning ** ProcessScheduleInput: Schedule:Year=\"SCHEDULE RULESET 15\", Blank Schedule Type Limits Name input -- will not be validated.\n   ** Warning ** ProcessScheduleInput: Schedule:Year=\"SCHEDULE RULESET 16\", Blank Schedule Type Limits Name input -- will not be validated.\n   ** Warning ** ProcessScheduleInput: Schedule:Year=\"SCHEDULE RULESET 17\", Blank Schedule Type Limits Name input -- will not be validated.\n   ** Warning ** ProcessScheduleInput: Schedule:Year=\"SCHEDULE RULESET 18\", Blank Schedule Type Limits Name input -- will not be validated.\n   ** Warning ** ProcessScheduleInput: Schedule:Year=\"SCHEDULE RULESET 19\", Blank Schedule Type Limits Name input -- will not be validated.\n   ** Warning ** ProcessScheduleInput: Schedule:Year=\"SCHEDULE RULESET 20\", Blank Schedule Type Limits Name input -- will not be validated.\n   ** Warning ** ProcessScheduleInput: Schedule:Year=\"SCHEDULE RULESET 21\", Blank Schedule Type Limits Name input -- will not be validated.\n   ** Warning ** ProcessScheduleInput: Schedule:Year=\"SCHEDULE RULESET 22\", Blank Schedule Type Limits Name input -- will not be validated.\n   ** Warning ** ProcessScheduleInput: Schedule:Year=\"SCHEDULE RULESET 23\", Blank Schedule Type Limits Name input -- will not be validated.\n   ** Warning ** ProcessScheduleInput: Schedule:Year=\"SCHEDULE RULESET 24\", Blank Schedule Type Limits Name input -- will not be validated.\n   ** Warning ** ProcessScheduleInput: Schedule:Year=\"SCHEDULE RULESET 25\", Blank Schedule Type Limits Name input -- will not be validated.\n   ** Warning ** ProcessScheduleInput: Schedule:Year=\"SCHEDULE RULESET 26\", Blank Schedule Type Limits Name input -- will not be validated.\n   ** Warning ** ProcessScheduleInput: Schedule:Year=\"SCHEDULE RULESET 27\", Blank Schedule Type Limits Name input -- will not be validated.\n   ** Warning ** ProcessScheduleInput: Schedule:Year=\"SCHEDULE RULESET 28\", Blank Schedule Type Limits Name input -- will not be validated.\n   ** Warning ** ProcessScheduleInput: Schedule:Year=\"SCHEDULE RULESET 29\", Blank Schedule Type Limits Name input -- will not be validated.\n   ** Warning ** ProcessScheduleInput: Schedule:Year=\"SCHEDULE RULESET 3\", Blank Schedule Type Limits Name input -- will not be validated.\n   ** Warning ** ProcessScheduleInput: Schedule:Year=\"SCHEDULE RULESET 30\", Blank Schedule Type Limits Name input -- will not be validated.\n   ** Warning ** ProcessScheduleInput: Schedule:Year=\"SCHEDULE RULESET 31\", Blank Schedule Type Limits Name input -- will not be validated.\n   ** Warning ** ProcessScheduleInput: Schedule:Year=\"SCHEDULE RULESET 32\", Blank Schedule Type Limits Name input -- will not be validated.\n   ** Warning ** ProcessScheduleInput: Schedule:Year=\"SCHEDULE RULESET 33\", Blank Schedule Type Limits Name input -- will not be validated.\n   ** Warning ** ProcessScheduleInput: Schedule:Year=\"SCHEDULE RULESET 34\", Blank Schedule Type Limits Name input -- will not be validated.\n   ** Warning ** ProcessScheduleInput: Schedule:Year=\"SCHEDULE RULESET 35\", Blank Schedule Type Limits Name input -- will not be validated.\n   ** Warning ** ProcessScheduleInput: Schedule:Year=\"SCHEDULE RULESET 36\", Blank Schedule Type Limits Name input -- will not be validated.\n   ** Warning ** ProcessScheduleInput: Schedule:Year=\"SCHEDULE RULESET 37\", Blank Schedule Type Limits Name input -- will not be validated.\n   ** Warning ** ProcessScheduleInput: Schedule:Year=\"SCHEDULE RULESET 38\", Blank Schedule Type Limits Name input -- will not be validated.\n   ** Warning ** ProcessScheduleInput: Schedule:Year=\"SCHEDULE RULESET 39\", Blank Schedule Type Limits Name input -- will not be validated.\n   ** Warning ** ProcessScheduleInput: Schedule:Year=\"SCHEDULE RULESET 4\", Blank Schedule Type Limits Name input -- will not be validated.\n   ** Warning ** ProcessScheduleInput: Schedule:Year=\"SCHEDULE RULESET 40\", Blank Schedule Type Limits Name input -- will not be validated.\n   ** Warning ** ProcessScheduleInput: Schedule:Year=\"SCHEDULE RULESET 41\", Blank Schedule Type Limits Name input -- will not be validated.\n   ** Warning ** ProcessScheduleInput: Schedule:Year=\"SCHEDULE RULESET 42\", Blank Schedule Type Limits Name input -- will not be validated.\n   ** Warning ** ProcessScheduleInput: Schedule:Year=\"SCHEDULE RULESET 43\", Blank Schedule Type Limits Name input -- will not be validated.\n   ** Warning ** ProcessScheduleInput: Schedule:Year=\"SCHEDULE RULESET 44\", Blank Schedule Type Limits Name input -- will not be validated.\n   ** Warning ** ProcessScheduleInput: Schedule:Year=\"SCHEDULE RULESET 45\", Blank Schedule Type Limits Name input -- will not be validated.\n   ** Warning ** ProcessScheduleInput: Schedule:Year=\"SCHEDULE RULESET 46\", Blank Schedule Type Limits Name input -- will not be validated.\n   ** Warning ** ProcessScheduleInput: Schedule:Year=\"SCHEDULE RULESET 47\", Blank Schedule Type Limits Name input -- will not be validated.\n   ** Warning ** ProcessScheduleInput: Schedule:Year=\"SCHEDULE RULESET 48\", Blank Schedule Type Limits Name input -- will not be validated.\n   ** Warning ** ProcessScheduleInput: Schedule:Year=\"SCHEDULE RULESET 49\", Blank Schedule Type Limits Name input -- will not be validated.\n   ** Warning ** ProcessScheduleInput: Schedule:Year=\"SCHEDULE RULESET 5\", Blank Schedule Type Limits Name input -- will not be validated.\n   ** Warning ** ProcessScheduleInput: Schedule:Year=\"SCHEDULE RULESET 50\", Blank Schedule Type Limits Name input -- will not be validated.\n   ** Warning ** ProcessScheduleInput: Schedule:Year=\"SCHEDULE RULESET 51\", Blank Schedule Type Limits Name input -- will not be validated.\n   ** Warning ** ProcessScheduleInput: Schedule:Year=\"SCHEDULE RULESET 52\", Blank Schedule Type Limits Name input -- will not be validated.\n   ** Warning ** ProcessScheduleInput: Schedule:Year=\"SCHEDULE RULESET 53\", Blank Schedule Type Limits Name input -- will not be validated.\n   ** Warning ** ProcessScheduleInput: Schedule:Year=\"SCHEDULE RULESET 54\", Blank Schedule Type Limits Name input -- will not be validated.\n   ** Warning ** ProcessScheduleInput: Schedule:Year=\"SCHEDULE RULESET 55\", Blank Schedule Type Limits Name input -- will not be validated.\n   ** Warning ** ProcessScheduleInput: Schedule:Year=\"SCHEDULE RULESET 56\", Blank Schedule Type Limits Name input -- will not be validated.\n   ** Warning ** ProcessScheduleInput: Schedule:Year=\"SCHEDULE RULESET 57\", Blank Schedule Type Limits Name input -- will not be validated.\n   ** Warning ** ProcessScheduleInput: Schedule:Year=\"SCHEDULE RULESET 58\", Blank Schedule Type Limits Name input -- will not be validated.\n   ** Warning ** ProcessScheduleInput: Schedule:Year=\"SCHEDULE RULESET 59\", Blank Schedule Type Limits Name input -- will not be validated.\n   ** Warning ** ProcessScheduleInput: Schedule:Year=\"SCHEDULE RULESET 6\", Blank Schedule Type Limits Name input -- will not be validated.\n   ** Warning ** ProcessScheduleInput: Schedule:Year=\"SCHEDULE RULESET 60\", Blank Schedule Type Limits Name input -- will not be validated.\n   ** Warning ** ProcessScheduleInput: Schedule:Year=\"SCHEDULE RULESET 61\", Blank Schedule Type Limits Name input -- will not be validated.\n   ** Warning ** ProcessScheduleInput: Schedule:Year=\"SCHEDULE RULESET 62\", Blank Schedule Type Limits Name input -- will not be validated.\n   ** Warning ** ProcessScheduleInput: Schedule:Year=\"SCHEDULE RULESET 63\", Blank Schedule Type Limits Name input -- will not be validated.\n   ** Warning ** ProcessScheduleInput: Schedule:Year=\"SCHEDULE RULESET 64\", Blank Schedule Type Limits Name input -- will not be validated.\n   ** Warning ** ProcessScheduleInput: Schedule:Year=\"SCHEDULE RULESET 65\", Blank Schedule Type Limits Name input -- will not be validated.\n   ** Warning ** ProcessScheduleInput: Schedule:Year=\"SCHEDULE RULESET 66\", Blank Schedule Type Limits Name input -- will not be validated.\n   ** Warning ** ProcessScheduleInput: Schedule:Year=\"SCHEDULE RULESET 67\", Blank Schedule Type Limits Name input -- will not be validated.\n   ** Warning ** ProcessScheduleInput: Schedule:Year=\"SCHEDULE RULESET 68\", Blank Schedule Type Limits Name input -- will not be validated.\n   ** Warning ** ProcessScheduleInput: Schedule:Year=\"SCHEDULE RULESET 69\", Blank Schedule Type Limits Name input -- will not be validated.\n   ** Warning ** ProcessScheduleInput: Schedule:Year=\"SCHEDULE RULESET 7\", Blank Schedule Type Limits Name input -- will not be validated.\n   ** Warning ** ProcessScheduleInput: Schedule:Year=\"SCHEDULE RULESET 70\", Blank Schedule Type Limits Name input -- will not be validated.\n   ** Warning ** ProcessScheduleInput: Schedule:Year=\"SCHEDULE RULESET 71\", Blank Schedule Type Limits Name input -- will not be validated.\n   ** Warning ** ProcessScheduleInput: Schedule:Year=\"SCHEDULE RULESET 72\", Blank Schedule Type Limits Name input -- will not be validated.\n   ** Warning ** ProcessScheduleInput: Schedule:Year=\"SCHEDULE RULESET 73\", Blank Schedule Type Limits Name input -- will not be validated.\n   ** Warning ** ProcessScheduleInput: Schedule:Year=\"SCHEDULE RULESET 74\", Blank Schedule Type Limits Name input -- will not be validated.\n   ** Warning ** ProcessScheduleInput: Schedule:Year=\"SCHEDULE RULESET 8\", Blank Schedule Type Limits Name input -- will not be validated.\n   ** Warning ** ProcessScheduleInput: Schedule:Year=\"SCHEDULE RULESET 9\", Blank Schedule Type Limits Name input -- will not be validated.\n   ** Warning ** ProcessScheduleInput: Schedule:Constant=\"ALWAYS OFF DISCRETE\", Blank Schedule Type Limits Name input -- will not be validated.\n   ** Warning ** ProcessScheduleInput: Schedule:Constant=\"ALWAYS ON CONTINUOUS\", Blank Schedule Type Limits Name input -- will not be validated.\n   ** Warning ** CheckUsedConstructions: There are 26 nominally unused constructions in input.\n   **   ~~~   ** For explicit details on each unused construction, use Output:Diagnostics,DisplayExtraWarnings;\n   ************* Beginning System Sizing Calculations\n   ** Warning ** GetDXCoils: Coil:Cooling:DX:SingleSpeed=\"COIL COOLING DX SINGLE SPEED 24 6KBTU/HR 11.0EER\", invalid\n   **   ~~~   ** ...Part Load Fraction Correlation Curve Name = DXCOOL-NECB2011-REF-COOLPLFFPLR 16 has out of range value.\n   **   ~~~   ** ...Curve maximum must be <= 1.0, curve max at PLR = 0.99 is 1.015\n   **   ~~~   ** ...Setting curve maximum to 1.0 and simulation continues.\n   ** Warning ** GetDXCoils: Coil:Cooling:DX:SingleSpeed=\"COIL COOLING DX SINGLE SPEED 22 4KBTU/HR 11.0EER\", invalid\n   **   ~~~   ** ...Part Load Fraction Correlation Curve Name = DXCOOL-NECB2011-REF-COOLPLFFPLR 14 has out of range value.\n   **   ~~~   ** ...Curve maximum must be <= 1.0, curve max at PLR = 0.99 is 1.015\n   **   ~~~   ** ...Setting curve maximum to 1.0 and simulation continues.\n   ** Warning ** GetDXCoils: Coil:Cooling:DX:SingleSpeed=\"COIL COOLING DX SINGLE SPEED 21 4KBTU/HR 11.0EER\", invalid\n   **   ~~~   ** ...Part Load Fraction Correlation Curve Name = DXCOOL-NECB2011-REF-COOLPLFFPLR 13 has out of range value.\n   **   ~~~   ** ...Curve maximum must be <= 1.0, curve max at PLR = 0.99 is 1.015\n   **   ~~~   ** ...Setting curve maximum to 1.0 and simulation continues.\n   ** Warning ** GetDXCoils: Coil:Cooling:DX:SingleSpeed=\"COIL COOLING DX SINGLE SPEED 23 9KBTU/HR 10.6EER\", invalid\n   **   ~~~   ** ...Part Load Fraction Correlation Curve Name = DXCOOL-NECB2011-REF-COOLPLFFPLR 15 has out of range value.\n   **   ~~~   ** ...Curve maximum must be <= 1.0, curve max at PLR = 0.99 is 1.015\n   **   ~~~   ** ...Setting curve maximum to 1.0 and simulation continues.\n   ** Warning ** GetDXCoils: Coil:Cooling:DX:SingleSpeed=\"COIL COOLING DX SINGLE SPEED 20 8KBTU/HR 10.7EER\", invalid\n   **   ~~~   ** ...Part Load Fraction Correlation Curve Name = DXCOOL-NECB2011-REF-COOLPLFFPLR 12 has out of range value.\n   **   ~~~   ** ...Curve maximum must be <= 1.0, curve max at PLR = 0.99 is 1.015\n   **   ~~~   ** ...Setting curve maximum to 1.0 and simulation continues.\n   ** Warning ** GetDXCoils: Coil:Cooling:DX:SingleSpeed=\"COIL COOLING DX SINGLE SPEED 25 6KBTU/HR 11.0EER\", invalid\n   **   ~~~   ** ...Part Load Fraction Correlation Curve Name = DXCOOL-NECB2011-REF-COOLPLFFPLR 17 has out of range value.\n   **   ~~~   ** ...Curve maximum must be <= 1.0, curve max at PLR = 0.99 is 1.015\n   **   ~~~   ** ...Setting curve maximum to 1.0 and simulation continues.\n   ** Warning ** GetDXCoils: Coil:Cooling:DX:SingleSpeed=\"COIL COOLING DX SINGLE SPEED 26 7KBTU/HR 11.0EER\", invalid\n   **   ~~~   ** ...Part Load Fraction Correlation Curve Name = DXCOOL-NECB2011-REF-COOLPLFFPLR 18 has out of range value.\n   **   ~~~   ** ...Curve maximum must be <= 1.0, curve max at PLR = 0.99 is 1.015\n   **   ~~~   ** ...Setting curve maximum to 1.0 and simulation continues.\n   ** Warning ** GetDXCoils: Coil:Cooling:DX:SingleSpeed=\"COIL COOLING DX SINGLE SPEED 27 9KBTU/HR 10.5EER\", invalid\n   **   ~~~   ** ...Part Load Fraction Correlation Curve Name = DXCOOL-NECB2011-REF-COOLPLFFPLR 19 has out of range value.\n   **   ~~~   ** ...Curve maximum must be <= 1.0, curve max at PLR = 0.99 is 1.015\n   **   ~~~   ** ...Setting curve maximum to 1.0 and simulation continues.\n   ** Warning ** GetDXCoils: Coil:Cooling:DX:SingleSpeed=\"COIL COOLING DX SINGLE SPEED 6 5KBTU/HR 11.0EER\", invalid\n   **   ~~~   ** ...Part Load Fraction Correlation Curve Name = DXCOOL-NECB2011-REF-COOLPLFFPLR 24 has out of range value.\n   **   ~~~   ** ...Curve maximum must be <= 1.0, curve max at PLR = 0.99 is 1.015\n   **   ~~~   ** ...Setting curve maximum to 1.0 and simulation continues.\n   ** Warning ** GetDXCoils: Coil:Cooling:DX:SingleSpeed=\"COIL COOLING DX SINGLE SPEED 4 5KBTU/HR 11.0EER\", invalid\n   **   ~~~   ** ...Part Load Fraction Correlation Curve Name = DXCOOL-NECB2011-REF-COOLPLFFPLR 22 has out of range value.\n   **   ~~~   ** ...Curve maximum must be <= 1.0, curve max at PLR = 0.99 is 1.015\n   **   ~~~   ** ...Setting curve maximum to 1.0 and simulation continues.\n   ** Warning ** GetDXCoils: Coil:Cooling:DX:SingleSpeed=\"COIL COOLING DX SINGLE SPEED 3 4KBTU/HR 11.0EER\", invalid\n   **   ~~~   ** ...Part Load Fraction Correlation Curve Name = DXCOOL-NECB2011-REF-COOLPLFFPLR 21 has out of range value.\n   **   ~~~   ** ...Curve maximum must be <= 1.0, curve max at PLR = 0.99 is 1.015\n   **   ~~~   ** ...Setting curve maximum to 1.0 and simulation continues.\n   ** Warning ** GetDXCoils: Coil:Cooling:DX:SingleSpeed=\"COIL COOLING DX SINGLE SPEED 2 10KBTU/HR 10.4EER\", invalid\n   **   ~~~   ** ...Part Load Fraction Correlation Curve Name = DXCOOL-NECB2011-REF-COOLPLFFPLR 11 has out of range value.\n   **   ~~~   ** ...Curve maximum must be <= 1.0, curve max at PLR = 0.99 is 1.015\n   **   ~~~   ** ...Setting curve maximum to 1.0 and simulation continues.\n   ** Warning ** GetDXCoils: Coil:Cooling:DX:SingleSpeed=\"COIL COOLING DX SINGLE SPEED 5 10KBTU/HR 10.4EER\", invalid\n   **   ~~~   ** ...Part Load Fraction Correlation Curve Name = DXCOOL-NECB2011-REF-COOLPLFFPLR 23 has out of range value.\n   **   ~~~   ** ...Curve maximum must be <= 1.0, curve max at PLR = 0.99 is 1.015\n   **   ~~~   ** ...Setting curve maximum to 1.0 and simulation continues.\n   ** Warning ** GetDXCoils: Coil:Cooling:DX:SingleSpeed=\"COIL COOLING DX SINGLE SPEED 7 7KBTU/HR 11.0EER\", invalid\n   **   ~~~   ** ...Part Load Fraction Correlation Curve Name = DXCOOL-NECB2011-REF-COOLPLFFPLR 25 has out of range value.\n   **   ~~~   ** ...Curve maximum must be <= 1.0, curve max at PLR = 0.99 is 1.015\n   **   ~~~   ** ...Setting curve maximum to 1.0 and simulation continues.\n   ** Warning ** GetDXCoils: Coil:Cooling:DX:SingleSpeed=\"COIL COOLING DX SINGLE SPEED 9 7KBTU/HR 10.9EER\", invalid\n   **   ~~~   ** ...Part Load Fraction Correlation Curve Name = DXCOOL-NECB2011-REF-COOLPLFFPLR 27 has out of range value.\n   **   ~~~   ** ...Curve maximum must be <= 1.0, curve max at PLR = 0.99 is 1.015\n   **   ~~~   ** ...Setting curve maximum to 1.0 and simulation continues.\n   ** Warning ** GetDXCoils: Coil:Cooling:DX:SingleSpeed=\"COIL COOLING DX SINGLE SPEED 8 10KBTU/HR 10.4EER\", invalid\n   **   ~~~   ** ...Part Load Fraction Correlation Curve Name = DXCOOL-NECB2011-REF-COOLPLFFPLR 26 has out of range value.\n   **   ~~~   ** ...Curve maximum must be <= 1.0, curve max at PLR = 0.99 is 1.015\n   **   ~~~   ** ...Setting curve maximum to 1.0 and simulation continues.\n   ** Warning ** GetDXCoils: Coil:Cooling:DX:SingleSpeed=\"COIL COOLING DX SINGLE SPEED 10 11KBTU/HR 10.2EER\", invalid\n   **   ~~~   ** ...Part Load Fraction Correlation Curve Name = DXCOOL-NECB2011-REF-COOLPLFFPLR 1 has out of range value.\n   **   ~~~   ** ...Curve maximum must be <= 1.0, curve max at PLR = 0.99 is 1.015\n   **   ~~~   ** ...Setting curve maximum to 1.0 and simulation continues.\n   ** Warning ** GetDXCoils: Coil:Cooling:DX:SingleSpeed=\"COIL COOLING DX SINGLE SPEED 15 8KBTU/HR 10.8EER\", invalid\n   **   ~~~   ** ...Part Load Fraction Correlation Curve Name = DXCOOL-NECB2011-REF-COOLPLFFPLR 6 has out of range value.\n   **   ~~~   ** ...Curve maximum must be <= 1.0, curve max at PLR = 0.99 is 1.015\n   **   ~~~   ** ...Setting curve maximum to 1.0 and simulation continues.\n   ** Warning ** GetDXCoils: Coil:Cooling:DX:SingleSpeed=\"COIL COOLING DX SINGLE SPEED 12 6KBTU/HR 11.0EER\", invalid\n   **   ~~~   ** ...Part Load Fraction Correlation Curve Name = DXCOOL-NECB2011-REF-COOLPLFFPLR 3 has out of range value.\n   **   ~~~   ** ...Curve maximum must be <= 1.0, curve max at PLR = 0.99 is 1.015\n   **   ~~~   ** ...Setting curve maximum to 1.0 and simulation continues.\n   ** Warning ** GetDXCoils: Coil:Cooling:DX:SingleSpeed=\"COIL COOLING DX SINGLE SPEED 13 6KBTU/HR 11.0EER\", invalid\n   **   ~~~   ** ...Part Load Fraction Correlation Curve Name = DXCOOL-NECB2011-REF-COOLPLFFPLR 4 has out of range value.\n   **   ~~~   ** ...Curve maximum must be <= 1.0, curve max at PLR = 0.99 is 1.015\n   **   ~~~   ** ...Setting curve maximum to 1.0 and simulation continues.\n   ** Warning ** GetDXCoils: Coil:Cooling:DX:SingleSpeed=\"COIL COOLING DX SINGLE SPEED 14 11KBTU/HR 10.1EER\", invalid\n   **   ~~~   ** ...Part Load Fraction Correlation Curve Name = DXCOOL-NECB2011-REF-COOLPLFFPLR 5 has out of range value.\n   **   ~~~   ** ...Curve maximum must be <= 1.0, curve max at PLR = 0.99 is 1.015\n   **   ~~~   ** ...Setting curve maximum to 1.0 and simulation continues.\n   ** Warning ** GetDXCoils: Coil:Cooling:DX:SingleSpeed=\"COIL COOLING DX SINGLE SPEED 11 11KBTU/HR 10.1EER\", invalid\n   **   ~~~   ** ...Part Load Fraction Correlation Curve Name = DXCOOL-NECB2011-REF-COOLPLFFPLR 2 has out of range value.\n   **   ~~~   ** ...Curve maximum must be <= 1.0, curve max at PLR = 0.99 is 1.015\n   **   ~~~   ** ...Setting curve maximum to 1.0 and simulation continues.\n   ** Warning ** GetDXCoils: Coil:Cooling:DX:SingleSpeed=\"COIL COOLING DX SINGLE SPEED 16 10KBTU/HR 10.3EER\", invalid\n   **   ~~~   ** ...Part Load Fraction Correlation Curve Name = DXCOOL-NECB2011-REF-COOLPLFFPLR 7 has out of range value.\n   **   ~~~   ** ...Curve maximum must be <= 1.0, curve max at PLR = 0.99 is 1.015\n   **   ~~~   ** ...Setting curve maximum to 1.0 and simulation continues.\n   ** Warning ** GetDXCoils: Coil:Cooling:DX:SingleSpeed=\"COIL COOLING DX SINGLE SPEED 19 10KBTU/HR 10.3EER\", invalid\n   **   ~~~   ** ...Part Load Fraction Correlation Curve Name = DXCOOL-NECB2011-REF-COOLPLFFPLR 10 has out of range value.\n   **   ~~~   ** ...Curve maximum must be <= 1.0, curve max at PLR = 0.99 is 1.015\n   **   ~~~   ** ...Setting curve maximum to 1.0 and simulation continues.\n   ** Warning ** GetDXCoils: Coil:Cooling:DX:SingleSpeed=\"COIL COOLING DX SINGLE SPEED 18 12KBTU/HR 10.0EER\", invalid\n   **   ~~~   ** ...Part Load Fraction Correlation Curve Name = DXCOOL-NECB2011-REF-COOLPLFFPLR 9 has out of range value.\n   **   ~~~   ** ...Curve maximum must be <= 1.0, curve max at PLR = 0.99 is 1.015\n   **   ~~~   ** ...Setting curve maximum to 1.0 and simulation continues.\n   ** Warning ** GetDXCoils: Coil:Cooling:DX:SingleSpeed=\"COIL COOLING DX SINGLE SPEED 17 13KBTU/HR 9.8EER\", invalid\n   **   ~~~   ** ...Part Load Fraction Correlation Curve Name = DXCOOL-NECB2011-REF-COOLPLFFPLR 8 has out of range value.\n   **   ~~~   ** ...Curve maximum must be <= 1.0, curve max at PLR = 0.99 is 1.015\n   **   ~~~   ** ...Setting curve maximum to 1.0 and simulation continues.\n   ** Warning ** GetDXCoils: Coil:Cooling:DX:SingleSpeed=\"COIL COOLING DX SINGLE SPEED 1 59KBTU/HR 14.0SEER\", invalid\n   **   ~~~   ** ...Part Load Fraction Correlation Curve Name = DXCOOL-NECB2011-REF-COOLPLFFPLR has out of range value.\n   **   ~~~   ** ...Curve maximum must be <= 1.0, curve max at PLR = 0.99 is 1.015\n   **   ~~~   ** ...Setting curve maximum to 1.0 and simulation continues.\n   ** Warning ** GetDXCoils: Coil:Cooling:DX:SingleSpeed=\"COIL COOLING DX SINGLE SPEED 28 14KBTU/HR 14.0SEER\", invalid\n   **   ~~~   ** ...Part Load Fraction Correlation Curve Name = DXCOOL-NECB2011-REF-COOLPLFFPLR 20 has out of range value.\n   **   ~~~   ** ...Curve maximum must be <= 1.0, curve max at PLR = 0.99 is 1.015\n   **   ~~~   ** ...Setting curve maximum to 1.0 and simulation continues.\n   ************* Beginning Plant Sizing Calculations\n   ** Warning ** The Standard Ratings is calculated for Coil:Cooling:DX:SingleSpeed = COIL COOLING DX SINGLE SPEED 24 6KBTU/HR 11.0EER but not at the AHRI test condition due to curve out of bound.\n   **   ~~~   **  Review the Standard Ratings calculations in the Engineering Reference for this coil type. Also, use Output:Diagnostics, DisplayExtraWarnings for further guidance.\n   ** Warning ** The Standard Ratings is calculated for Coil:Cooling:DX:SingleSpeed = COIL COOLING DX SINGLE SPEED 22 4KBTU/HR 11.0EER but not at the AHRI test condition due to curve out of bound.\n   **   ~~~   **  Review the Standard Ratings calculations in the Engineering Reference for this coil type. Also, use Output:Diagnostics, DisplayExtraWarnings for further guidance.\n   ** Warning ** The Standard Ratings is calculated for Coil:Cooling:DX:SingleSpeed = COIL COOLING DX SINGLE SPEED 21 4KBTU/HR 11.0EER but not at the AHRI test condition due to curve out of bound.\n   **   ~~~   **  Review the Standard Ratings calculations in the Engineering Reference for this coil type. Also, use Output:Diagnostics, DisplayExtraWarnings for further guidance.\n   ** Warning ** The Standard Ratings is calculated for Coil:Cooling:DX:SingleSpeed = COIL COOLING DX SINGLE SPEED 23 9KBTU/HR 10.6EER but not at the AHRI test condition due to curve out of bound.\n   **   ~~~   **  Review the Standard Ratings calculations in the Engineering Reference for this coil type. Also, use Output:Diagnostics, DisplayExtraWarnings for further guidance.\n   ** Warning ** The Standard Ratings is calculated for Coil:Cooling:DX:SingleSpeed = COIL COOLING DX SINGLE SPEED 20 8KBTU/HR 10.7EER but not at the AHRI test condition due to curve out of bound.\n   **   ~~~   **  Review the Standard Ratings calculations in the Engineering Reference for this coil type. Also, use Output:Diagnostics, DisplayExtraWarnings for further guidance.\n   ** Warning ** The Standard Ratings is calculated for Coil:Cooling:DX:SingleSpeed = COIL COOLING DX SINGLE SPEED 25 6KBTU/HR 11.0EER but not at the AHRI test condition due to curve out of bound.\n   **   ~~~   **  Review the Standard Ratings calculations in the Engineering Reference for this coil type. Also, use Output:Diagnostics, DisplayExtraWarnings for further guidance.\n   ** Warning ** The Standard Ratings is calculated for Coil:Cooling:DX:SingleSpeed = COIL COOLING DX SINGLE SPEED 26 7KBTU/HR 11.0EER but not at the AHRI test condition due to curve out of bound.\n   **   ~~~   **  Review the Standard Ratings calculations in the Engineering Reference for this coil type. Also, use Output:Diagnostics, DisplayExtraWarnings for further guidance.\n   ** Warning ** The Standard Ratings is calculated for Coil:Cooling:DX:SingleSpeed = COIL COOLING DX SINGLE SPEED 27 9KBTU/HR 10.5EER but not at the AHRI test condition due to curve out of bound.\n   **   ~~~   **  Review the Standard Ratings calculations in the Engineering Reference for this coil type. Also, use Output:Diagnostics, DisplayExtraWarnings for further guidance.\n   ** Warning ** The Standard Ratings is calculated for Coil:Cooling:DX:SingleSpeed = COIL COOLING DX SINGLE SPEED 6 5KBTU/HR 11.0EER but not at the AHRI test condition due to curve out of bound.\n   **   ~~~   **  Review the Standard Ratings calculations in the Engineering Reference for this coil type. Also, use Output:Diagnostics, DisplayExtraWarnings for further guidance.\n   ** Warning ** The Standard Ratings is calculated for Coil:Cooling:DX:SingleSpeed = COIL COOLING DX SINGLE SPEED 4 5KBTU/HR 11.0EER but not at the AHRI test condition due to curve out of bound.\n   **   ~~~   **  Review the Standard Ratings calculations in the Engineering Reference for this coil type. Also, use Output:Diagnostics, DisplayExtraWarnings for further guidance.\n   ** Warning ** The Standard Ratings is calculated for Coil:Cooling:DX:SingleSpeed = COIL COOLING DX SINGLE SPEED 3 4KBTU/HR 11.0EER but not at the AHRI test condition due to curve out of bound.\n   **   ~~~   **  Review the Standard Ratings calculations in the Engineering Reference for this coil type. Also, use Output:Diagnostics, DisplayExtraWarnings for further guidance.\n   ** Warning ** The Standard Ratings is calculated for Coil:Cooling:DX:SingleSpeed = COIL COOLING DX SINGLE SPEED 2 10KBTU/HR 10.4EER but not at the AHRI test condition due to curve out of bound.\n   **   ~~~   **  Review the Standard Ratings calculations in the Engineering Reference for this coil type. Also, use Output:Diagnostics, DisplayExtraWarnings for further guidance.\n   ** Warning ** The Standard Ratings is calculated for Coil:Cooling:DX:SingleSpeed = COIL COOLING DX SINGLE SPEED 5 10KBTU/HR 10.4EER but not at the AHRI test condition due to curve out of bound.\n   **   ~~~   **  Review the Standard Ratings calculations in the Engineering Reference for this coil type. Also, use Output:Diagnostics, DisplayExtraWarnings for further guidance.\n   ** Warning ** The Standard Ratings is calculated for Coil:Cooling:DX:SingleSpeed = COIL COOLING DX SINGLE SPEED 7 7KBTU/HR 11.0EER but not at the AHRI test condition due to curve out of bound.\n   **   ~~~   **  Review the Standard Ratings calculations in the Engineering Reference for this coil type. Also, use Output:Diagnostics, DisplayExtraWarnings for further guidance.\n   ** Warning ** The Standard Ratings is calculated for Coil:Cooling:DX:SingleSpeed = COIL COOLING DX SINGLE SPEED 9 7KBTU/HR 10.9EER but not at the AHRI test condition due to curve out of bound.\n   **   ~~~   **  Review the Standard Ratings calculations in the Engineering Reference for this coil type. Also, use Output:Diagnostics, DisplayExtraWarnings for further guidance.\n   ** Warning ** The Standard Ratings is calculated for Coil:Cooling:DX:SingleSpeed = COIL COOLING DX SINGLE SPEED 8 10KBTU/HR 10.4EER but not at the AHRI test condition due to curve out of bound.\n   **   ~~~   **  Review the Standard Ratings calculations in the Engineering Reference for this coil type. Also, use Output:Diagnostics, DisplayExtraWarnings for further guidance.\n   ** Warning ** The Standard Ratings is calculated for Coil:Cooling:DX:SingleSpeed = COIL COOLING DX SINGLE SPEED 10 11KBTU/HR 10.2EER but not at the AHRI test condition due to curve out of bound.\n   **   ~~~   **  Review the Standard Ratings calculations in the Engineering Reference for this coil type. Also, use Output:Diagnostics, DisplayExtraWarnings for further guidance.\n   ** Warning ** The Standard Ratings is calculated for Coil:Cooling:DX:SingleSpeed = COIL COOLING DX SINGLE SPEED 15 8KBTU/HR 10.8EER but not at the AHRI test condition due to curve out of bound.\n   **   ~~~   **  Review the Standard Ratings calculations in the Engineering Reference for this coil type. Also, use Output:Diagnostics, DisplayExtraWarnings for further guidance.\n   ** Warning ** The Standard Ratings is calculated for Coil:Cooling:DX:SingleSpeed = COIL COOLING DX SINGLE SPEED 12 6KBTU/HR 11.0EER but not at the AHRI test condition due to curve out of bound.\n   **   ~~~   **  Review the Standard Ratings calculations in the Engineering Reference for this coil type. Also, use Output:Diagnostics, DisplayExtraWarnings for further guidance.\n   ** Warning ** The Standard Ratings is calculated for Coil:Cooling:DX:SingleSpeed = COIL COOLING DX SINGLE SPEED 13 6KBTU/HR 11.0EER but not at the AHRI test condition due to curve out of bound.\n   **   ~~~   **  Review the Standard Ratings calculations in the Engineering Reference for this coil type. Also, use Output:Diagnostics, DisplayExtraWarnings for further guidance.\n   ** Warning ** The Standard Ratings is calculated for Coil:Cooling:DX:SingleSpeed = COIL COOLING DX SINGLE SPEED 14 11KBTU/HR 10.1EER but not at the AHRI test condition due to curve out of bound.\n   **   ~~~   **  Review the Standard Ratings calculations in the Engineering Reference for this coil type. Also, use Output:Diagnostics, DisplayExtraWarnings for further guidance.\n   ** Warning ** The Standard Ratings is calculated for Coil:Cooling:DX:SingleSpeed = COIL COOLING DX SINGLE SPEED 11 11KBTU/HR 10.1EER but not at the AHRI test condition due to curve out of bound.\n   **   ~~~   **  Review the Standard Ratings calculations in the Engineering Reference for this coil type. Also, use Output:Diagnostics, DisplayExtraWarnings for further guidance.\n   ** Warning ** The Standard Ratings is calculated for Coil:Cooling:DX:SingleSpeed = COIL COOLING DX SINGLE SPEED 16 10KBTU/HR 10.3EER but not at the AHRI test condition due to curve out of bound.\n   **   ~~~   **  Review the Standard Ratings calculations in the Engineering Reference for this coil type. Also, use Output:Diagnostics, DisplayExtraWarnings for further guidance.\n   ** Warning ** The Standard Ratings is calculated for Coil:Cooling:DX:SingleSpeed = COIL COOLING DX SINGLE SPEED 19 10KBTU/HR 10.3EER but not at the AHRI test condition due to curve out of bound.\n   **   ~~~   **  Review the Standard Ratings calculations in the Engineering Reference for this coil type. Also, use Output:Diagnostics, DisplayExtraWarnings for further guidance.\n   ** Warning ** The Standard Ratings is calculated for Coil:Cooling:DX:SingleSpeed = COIL COOLING DX SINGLE SPEED 18 12KBTU/HR 10.0EER but not at the AHRI test condition due to curve out of bound.\n   **   ~~~   **  Review the Standard Ratings calculations in the Engineering Reference for this coil type. Also, use Output:Diagnostics, DisplayExtraWarnings for further guidance.\n   ** Warning ** The Standard Ratings is calculated for Coil:Cooling:DX:SingleSpeed = COIL COOLING DX SINGLE SPEED 17 13KBTU/HR 9.8EER but not at the AHRI test condition due to curve out of bound.\n   **   ~~~   **  Review the Standard Ratings calculations in the Engineering Reference for this coil type. Also, use Output:Diagnostics, DisplayExtraWarnings for further guidance.\n   ** Warning ** The Standard Ratings is calculated for Coil:Cooling:DX:SingleSpeed = COIL COOLING DX SINGLE SPEED 1 59KBTU/HR 14.0SEER but not at the AHRI test condition due to curve out of bound.\n   **   ~~~   **  Review the Standard Ratings calculations in the Engineering Reference for this coil type. Also, use Output:Diagnostics, DisplayExtraWarnings for further guidance.\n   ** Warning ** The Standard Ratings is calculated for Coil:Cooling:DX:SingleSpeed = COIL COOLING DX SINGLE SPEED 28 14KBTU/HR 14.0SEER but not at the AHRI test condition due to curve out of bound.\n   **   ~~~   **  Review the Standard Ratings calculations in the Engineering Reference for this coil type. Also, use Output:Diagnostics, DisplayExtraWarnings for further guidance.\n   ** Warning ** Output:Meter: invalid Name=\"DISTRICTCOOLING:FACILITY\" - not found.\n   ** Warning ** Output:Meter: invalid Name=\"DISTRICTHEATING:FACILITY\" - not found.\n   ** Warning ** Output:Meter:MeterFileOnly requested for \"Electricity:Facility\" (TimeStep), already on \"Output:Meter\". Will report to both eplusout.eso and eplusout.mtr\n   ************* Testing Individual Branch Integrity\n   ************* All Branches passed integrity testing\n   ************* Testing Individual Supply Air Path Integrity\n   ************* All Supply Air Paths passed integrity testing\n   ************* Testing Individual Return Air Path Integrity\n   ************* All Return Air Paths passed integrity testing\n   ************* No node connection errors were found.\n   ************* Beginning Simulation\n   ** Warning ** CalcDoe2DXCoil: Coil:Cooling:DX:SingleSpeed \"COIL COOLING DX SINGLE SPEED 7 7KBTU/HR 11.0EER\" - Air-cooled condenser inlet dry-bulb temperature below 0 C. Outdoor dry-bulb temperature = -0.28\n   **   ~~~   **  ... Occurrence info = RUN PERIOD 1, 01/03 20:00 - 20:15\n   **   ~~~   ** ... Operation at low ambient temperatures may require special performance curves.\n   ** Warning ** CalcDoe2DXCoil: Coil:Cooling:DX:SingleSpeed \"COIL COOLING DX SINGLE SPEED 9 7KBTU/HR 10.9EER\" - Air-cooled condenser inlet dry-bulb temperature below 0 C. Outdoor dry-bulb temperature = -0.28\n   **   ~~~   **  ... Occurrence info = RUN PERIOD 1, 01/03 20:00 - 20:15\n   **   ~~~   ** ... Operation at low ambient temperatures may require special performance curves.\n   ** Warning ** CalcDoe2DXCoil: Coil:Cooling:DX:SingleSpeed \"COIL COOLING DX SINGLE SPEED 28 14KBTU/HR 14.0SEER\" - Full load outlet air dry-bulb temperature < 2C. This indicates the possibility of coil frost/freeze. Outlet temperature = 0.98 C.\n   **   ~~~   **  ...Occurrence info = RUN PERIOD 1, 01/06 12:30 - 12:45\n   **   ~~~   ** ... Possible reasons for low outlet air dry-bulb temperatures are: This DX coil\n   **   ~~~   **    1) may have a low inlet air dry-bulb temperature. Inlet air temperature = 12.411 C.\n   **   ~~~   **    2) may have a low air flow rate per watt of cooling capacity. Check inputs.\n   **   ~~~   **    3) is used as part of a HX assisted cooling coil which uses a high sensible effectiveness. Check inputs.\n   ** Warning ** CalcDoe2DXCoil: Coil:Cooling:DX:SingleSpeed \"COIL COOLING DX SINGLE SPEED 8 10KBTU/HR 10.4EER\" - Air-cooled condenser inlet dry-bulb temperature below 0 C. Outdoor dry-bulb temperature = -0.60\n   **   ~~~   **  ... Occurrence info = RUN PERIOD 1, 01/06 16:45 - 16:52\n   **   ~~~   ** ... Operation at low ambient temperatures may require special performance curves.\n   ** Warning ** CalcDoe2DXCoil: Coil:Cooling:DX:SingleSpeed \"COIL COOLING DX SINGLE SPEED 10 11KBTU/HR 10.2EER\" - Air-cooled condenser inlet dry-bulb temperature below 0 C. Outdoor dry-bulb temperature = -0.60\n   **   ~~~   **  ... Occurrence info = RUN PERIOD 1, 01/06 16:45 - 16:52\n   **   ~~~   ** ... Operation at low ambient temperatures may require special performance curves.\n   ** Warning ** CalcDoe2DXCoil: Coil:Cooling:DX:SingleSpeed \"COIL COOLING DX SINGLE SPEED 6 5KBTU/HR 11.0EER\" - Air-cooled condenser inlet dry-bulb temperature below 0 C. Outdoor dry-bulb temperature = -2.50E-002\n   **   ~~~   **  ... Occurrence info = RUN PERIOD 1, 02/18 21:30 - 21:35\n   **   ~~~   ** ... Operation at low ambient temperatures may require special performance curves.\n   ** Warning ** CalcDoe2DXCoil: Coil:Cooling:DX:SingleSpeed \"COIL COOLING DX SINGLE SPEED 25 6KBTU/HR 11.0EER\" - Air-cooled condenser inlet dry-bulb temperature below 0 C. Outdoor dry-bulb temperature = -0.85\n   **   ~~~   **  ... Occurrence info = RUN PERIOD 1, 02/26 18:15 - 18:30\n   **   ~~~   ** ... Operation at low ambient temperatures may require special performance curves.\n   ** Warning ** CalcDoe2DXCoil: Coil:Cooling:DX:SingleSpeed \"COIL COOLING DX SINGLE SPEED 26 7KBTU/HR 11.0EER\" - Air-cooled condenser inlet dry-bulb temperature below 0 C. Outdoor dry-bulb temperature = -0.85\n   **   ~~~   **  ... Occurrence info = RUN PERIOD 1, 02/26 18:15 - 18:30\n   **   ~~~   ** ... Operation at low ambient temperatures may require special performance curves.\n   ** Warning ** CalcDoe2DXCoil: Coil:Cooling:DX:SingleSpeed \"COIL COOLING DX SINGLE SPEED 27 9KBTU/HR 10.5EER\" - Air-cooled condenser inlet dry-bulb temperature below 0 C. Outdoor dry-bulb temperature = -0.85\n   **   ~~~   **  ... Occurrence info = RUN PERIOD 1, 02/26 18:15 - 18:30\n   **   ~~~   ** ... Operation at low ambient temperatures may require special performance curves.\n   ** Warning ** CalcDoe2DXCoil: Coil:Cooling:DX:SingleSpeed \"COIL COOLING DX SINGLE SPEED 5 10KBTU/HR 10.4EER\" - Air-cooled condenser inlet dry-bulb temperature below 0 C. Outdoor dry-bulb temperature = -0.85\n   **   ~~~   **  ... Occurrence info = RUN PERIOD 1, 02/26 18:15 - 18:30\n   **   ~~~   ** ... Operation at low ambient temperatures may require special performance curves.\n   ************* Simulation Error Summary *************\n   ************* There are 9 unused schedules in input.\n   ************* There are 9 unused week schedules in input.\n   ************* There are 17 unused day schedules in input.\n   ************* Use Output:Diagnostics,DisplayUnusedSchedules; to see them.\n   *************\n   ************* ===== Recurring Error Summary =====\n   ************* The following recurring error messages occurred.\n   *************\n   *************  ** Warning ** CalcDoe2DXCoil: Coil:Cooling:DX:SingleSpeed=\"COIL COOLING DX SINGLE SPEED 7 7KBTU/HR 11.0EER\" - Low condenser dry-bulb temperature error continues...\n   *************  **   ~~~   **   This error occurred 263 total times;\n   *************  **   ~~~   **   during Warmup 0 times;\n   *************  **   ~~~   **   during Sizing 0 times.\n   *************  **   ~~~   **   Max=-2.500000E-002 [C]  Min=-2.8 [C]\n   *************\n   *************  ** Warning ** CalcDoe2DXCoil: Coil:Cooling:DX:SingleSpeed=\"COIL COOLING DX SINGLE SPEED 9 7KBTU/HR 10.9EER\" - Low condenser dry-bulb temperature error continues...\n   *************  **   ~~~   **   This error occurred 256 total times;\n   *************  **   ~~~   **   during Warmup 0 times;\n   *************  **   ~~~   **   during Sizing 0 times.\n   *************  **   ~~~   **   Max=-2.500000E-002 [C]  Min=-2.8 [C]\n   *************\n   *************  ** Warning ** CalcDoe2DXCoil: Coil:Cooling:DX:SingleSpeed=\"COIL COOLING DX SINGLE SPEED 28 14KBTU/HR 14.0SEER\" - Full load outlet temperature indicates a possibility of frost/freeze error continues. Outlet air temperature statistics follow:\n   *************  **   ~~~   **   This error occurred 191 total times;\n   *************  **   ~~~   **   during Warmup 0 times;\n   *************  **   ~~~   **   during Sizing 0 times.\n   *************  **   ~~~   **   Max=1.999518  Min=-1.462843\n   *************\n   *************  ** Warning ** CalcDoe2DXCoil: Coil:Cooling:DX:SingleSpeed=\"COIL COOLING DX SINGLE SPEED 8 10KBTU/HR 10.4EER\" - Low condenser dry-bulb temperature error continues...\n   *************  **   ~~~   **   This error occurred 78 total times;\n   *************  **   ~~~   **   during Warmup 0 times;\n   *************  **   ~~~   **   during Sizing 0 times.\n   *************  **   ~~~   **   Max=-2.500000E-002 [C]  Min=-2.8 [C]\n   *************\n   *************  ** Warning ** CalcDoe2DXCoil: Coil:Cooling:DX:SingleSpeed=\"COIL COOLING DX SINGLE SPEED 10 11KBTU/HR 10.2EER\" - Low condenser dry-bulb temperature error continues...\n   *************  **   ~~~   **   This error occurred 98 total times;\n   *************  **   ~~~   **   during Warmup 0 times;\n   *************  **   ~~~   **   during Sizing 0 times.\n   *************  **   ~~~   **   Max=-2.500000E-002 [C]  Min=-2.8 [C]\n   *************\n   *************  ** Warning ** CalcDoe2DXCoil: Coil:Cooling:DX:SingleSpeed=\"COIL COOLING DX SINGLE SPEED 6 5KBTU/HR 11.0EER\" - Low condenser dry-bulb temperature error continues...\n   *************  **   ~~~   **   This error occurred 137 total times;\n   *************  **   ~~~   **   during Warmup 0 times;\n   *************  **   ~~~   **   during Sizing 0 times.\n   *************  **   ~~~   **   Max=-2.500000E-002 [C]  Min=-2.8 [C]\n   *************\n   *************  ** Warning ** CalcDoe2DXCoil: Coil:Cooling:DX:SingleSpeed=\"COIL COOLING DX SINGLE SPEED 25 6KBTU/HR 11.0EER\" - Low condenser dry-bulb temperature error continues...\n   *************  **   ~~~   **   This error occurred 53 total times;\n   *************  **   ~~~   **   during Warmup 0 times;\n   *************  **   ~~~   **   during Sizing 0 times.\n   *************  **   ~~~   **   Max=-2.500000E-002 [C]  Min=-2.8 [C]\n   *************\n   *************  ** Warning ** CalcDoe2DXCoil: Coil:Cooling:DX:SingleSpeed=\"COIL COOLING DX SINGLE SPEED 26 7KBTU/HR 11.0EER\" - Low condenser dry-bulb temperature error continues...\n   *************  **   ~~~   **   This error occurred 49 total times;\n   *************  **   ~~~   **   during Warmup 0 times;\n   *************  **   ~~~   **   during Sizing 0 times.\n   *************  **   ~~~   **   Max=-2.500000E-002 [C]  Min=-2.8 [C]\n   *************\n   *************  ** Warning ** CalcDoe2DXCoil: Coil:Cooling:DX:SingleSpeed=\"COIL COOLING DX SINGLE SPEED 27 9KBTU/HR 10.5EER\" - Low condenser dry-bulb temperature error continues...\n   *************  **   ~~~   **   This error occurred 17 total times;\n   *************  **   ~~~   **   during Warmup 0 times;\n   *************  **   ~~~   **   during Sizing 0 times.\n   *************  **   ~~~   **   Max=-0.275 [C]  Min=-2.8 [C]\n   *************\n   *************  ** Warning ** CalcDoe2DXCoil: Coil:Cooling:DX:SingleSpeed=\"COIL COOLING DX SINGLE SPEED 5 10KBTU/HR 10.4EER\" - Low condenser dry-bulb temperature error continues...\n   *************  **   ~~~   **   This error occurred 23 total times;\n   *************  **   ~~~   **   during Warmup 0 times;\n   *************  **   ~~~   **   during Sizing 0 times.\n   *************  **   ~~~   **   Max=-2.500000E-002 [C]  Min=-2.8 [C]\n   *************\n   *************\n   ************* ===== Final Error Summary =====\n   ************* The following error categories occurred.  Consider correcting or noting.\n   ************* Nominally Unused Constructions\n   ************* ..The nominally unused constructions warning is provided to alert you to potential conditions that can cause\n   ************* ..extra time during simulation. Each construction is calculated by the algorithm indicated in the HeatBalanceAlgorithm\n   ************* ..object. You may remove the constructions indicated (when you use the DisplayExtraWarnings option).\n   *************\n   ************* EnergyPlus Warmup Error Summary. During Warmup: 0 Warning; 0 Severe Errors.\n   ************* EnergyPlus Sizing Error Summary. During Sizing: 181 Warning; 0 Severe Errors.\n   ************* EnergyPlus Completed Successfully-- 1378 Warning; 0 Severe Errors; Elapsed Time=00hr 02min 18.28sec\n",
   "file_format_version" : "0.0.1",
   "file_paths" : [ "../weather", "../seeds", "../seed" ],
   "hash" : "C5E8BE92",
   "measure_paths" : [ "../measures" ],
   "name" : "LHS Autogenerated 55",
   "osa_id" : "4fef0e0f-5396-4c55-a6e1-2cd6803db3ab",
   "osd_id" : "b1f5ab8e-8ead-4995-8c5e-26a66657efa9",
   "run_directory" : "./run",
   "seed_file" : "seed.osm",
   "started_at" : "20170710T182403Z",
   "steps" : [
      {
         "arguments" : {
            "__SKIP__" : false,
            "building_type" : "MidriseApartment",
            "climate_zone" : "NECB HDD Method",
            "epw_file" : "CAN_BC_Victoria.717990_CWEC.epw",
            "template" : "NECB 2011"
         },
         "measure_dir_name" : "create_prototype_building",
         "name" : "create_prototype_building",
         "result" : {
            "completed_at" : "20170710T182520Z",
            "measure_class_name" : "CreatePrototypeBuilding",
            "measure_display_name" : "Create Prototype Building",
            "measure_name" : "create_prototype_building",
            "measure_taxonomy" : "Whole Building.Space Types",
            "measure_type" : "ModelMeasure",
            "measure_uid" : "ae90fsd7-a651-467a-bc8d-29d310b0f937",
            "measure_version_id" : "c6ec5c18-5595-459f-a082-09a19c8c869c",
            "measure_version_modified" : "20170519T182315Z",
            "measure_xml_checksum" : "057E8D9D",
            "started_at" : "20170710T182406Z",
            "stderr" : "",
            "stdout" : "[OpenStudio.Measure] <0> OSArgumentVector is deprecated, use OpenStudio::Measure::OSArgumentVector instead.\n[openstudio.EpwFile] <0> Successive data points (1970-Jan-31 to 1960-Feb-01, ending on line 753) are greater than 1 day apart in EPW file '/usr/local/bundle/bundler/gems/openstudio-standards-f448df66933d/openstudio-standards/data/weather/CAN_BC_Victoria.717990_CWEC.epw'. Data will be treated as typical (TMY)\n[openstudio.setFileExtension] <0> Path p, '/usr/local/bundle/bundler/gems/openstudio-standards-f448df66933d/openstudio-standards/data/weather/CAN_BC_Victoria.717990_CWEC.ddy', has an unexpected file extension. Was expecting 'idf'.\n[openstudio.model.YearDescription] <1> 'UseWeatherFile' is not yet a supported option for YearDescription\n[openstudio.model.YearDescription] <1> 'UseWeatherFile' is not yet a supported option for YearDescription\n[openstudio.setFileExtension] <0> Path p, '/usr/local/bundle/bundler/gems/openstudio-standards-f448df66933d/openstudio-standards/data/weather/CAN_BC_Victoria.717990_CWEC.ddy', has an unexpected file extension. Was expecting 'idf'.\n[openstudio.model.YearDescription] <1> 'UseWeatherFile' is not yet a supported option for YearDescription\n[openstudio.model.YearDescription] <1> 'UseWeatherFile' is not yet a supported option for YearDescription\n[openstudio.EpwFile] <0> Successive data points (1970-Jan-31 to 1960-Feb-01, ending on line 753) are greater than 1 day apart in EPW file '/usr/local/bundle/bundler/gems/openstudio-standards-f448df66933d/openstudio-standards/data/weather/CAN_BC_Victoria.717990_CWEC.epw'. Data will be treated as typical (TMY)\n[openstudio.weather.Model] <0> Could not find ground temperatures; will use generic temperatures, which will skew results.\n[openstudio.setFileExtension] <0> Path p, '/usr/local/bundle/bundler/gems/openstudio-standards-f448df66933d/openstudio-standards/data/weather/CAN_BC_Victoria.717990_CWEC.ddy', has an unexpected file extension. Was expecting 'idf'.\n[openstudio.model.YearDescription] <1> 'UseWeatherFile' is not yet a supported option for YearDescription\n[openstudio.model.YearDescription] <1> 'UseWeatherFile' is not yet a supported option for YearDescription\n[openstudio.EpwFile] <0> Successive data points (1970-Jan-31 to 1960-Feb-01, ending on line 753) are greater than 1 day apart in EPW file '/usr/local/bundle/bundler/gems/openstudio-standards-f448df66933d/openstudio-standards/data/weather/CAN_BC_Victoria.717990_CWEC.epw'. Data will be treated as typical (TMY)\n[openstudio.setFileExtension] <0> Path p, '/usr/local/bundle/bundler/gems/openstudio-standards-f448df66933d/openstudio-standards/data/weather/CAN_BC_Victoria.717990_CWEC.ddy', has an unexpected file extension. Was expecting 'idf'.\n[openstudio.model.YearDescription] <1> 'UseWeatherFile' is not yet a supported option for YearDescription\n[openstudio.model.YearDescription] <1> 'UseWeatherFile' is not yet a supported option for YearDescription\n[openstudio.setFileExtension] <0> Path p, '/usr/local/bundle/bundler/gems/openstudio-standards-f448df66933d/openstudio-standards/data/weather/CAN_BC_Victoria.717990_CWEC.ddy', has an unexpected file extension. Was expecting 'idf'.\n[openstudio.model.YearDescription] <1> 'UseWeatherFile' is not yet a supported option for YearDescription\n[openstudio.model.YearDescription] <1> 'UseWeatherFile' is not yet a supported option for YearDescription\n[openstudio.EpwFile] <0> Successive data points (1970-Jan-31 to 1960-Feb-01, ending on line 753) are greater than 1 day apart in EPW file '/usr/local/bundle/bundler/gems/openstudio-standards-f448df66933d/openstudio-standards/data/weather/CAN_BC_Victoria.717990_CWEC.epw'. Data will be treated as typical (TMY)\n[openstudio.setFileExtension] <0> Path p, '/usr/local/bundle/bundler/gems/openstudio-standards-f448df66933d/openstudio-standards/data/weather/CAN_BC_Victoria.717990_CWEC.ddy', has an unexpected file extension. Was expecting 'idf'.\n[openstudio.model.YearDescription] <1> 'UseWeatherFile' is not yet a supported option for YearDescription\n[openstudio.model.YearDescription] <1> 'UseWeatherFile' is not yet a supported option for YearDescription\n[openstudio.setFileExtension] <0> Path p, '/usr/local/bundle/bundler/gems/openstudio-standards-f448df66933d/openstudio-standards/data/weather/CAN_BC_Victoria.717990_CWEC.ddy', has an unexpected file extension. Was expecting 'idf'.\n[openstudio.model.YearDescription] <1> 'UseWeatherFile' is not yet a supported option for YearDescription\n[openstudio.model.YearDescription] <1> 'UseWeatherFile' is not yet a supported option for YearDescription\n[utilities.idf.WorkspaceObject] <0> Object of type 'Schedule:Constant' and named 'Always Off Discrete', points to an object named OnOff 1 from field 1, but that object cannot be located.\n[utilities.idf.WorkspaceObject] <0> Object of type 'Schedule:Constant' and named 'Always On Continuous', points to an object named Fractional 1 from field 1, but that object cannot be located.\n[utilities.idf.WorkspaceObject] <0> Object of type 'Schedule:Constant' and named 'Always Off Discrete', points to an object named OnOff 1 from field 1, but that object cannot be located.\n[utilities.idf.WorkspaceObject] <0> Object of type 'Schedule:Constant' and named 'Always On Continuous', points to an object named Fractional 1 from field 1, but that object cannot be located.\n[openstudio.standards.Fan] <0> For Fan Constant Volume 1, there is no greater nominal HP.  Use the efficiency of the largest motor category.\n[openstudio.standards.Fan] <0> For Fan Constant Volume 28, there is no greater nominal HP.  Use the efficiency of the largest motor category.\n[openstudio.EpwFile] <0> Successive data points (1970-Jan-31 to 1960-Feb-01, ending on line 753) are greater than 1 day apart in EPW file '/usr/local/bundle/bundler/gems/openstudio-standards-f448df66933d/openstudio-standards/data/weather/CAN_BC_Victoria.717990_CWEC.epw'. Data will be treated as typical (TMY)\n[openstudio.setFileExtension] <0> Path p, '/usr/local/bundle/bundler/gems/openstudio-standards-f448df66933d/openstudio-standards/data/weather/CAN_BC_Victoria.717990_CWEC.ddy', has an unexpected file extension. Was expecting 'idf'.\n[openstudio.model.YearDescription] <1> 'UseWeatherFile' is not yet a supported option for YearDescription\n[openstudio.model.YearDescription] <1> 'UseWeatherFile' is not yet a supported option for YearDescription\n[openstudio.setFileExtension] <0> Path p, '/usr/local/bundle/bundler/gems/openstudio-standards-f448df66933d/openstudio-standards/data/weather/CAN_BC_Victoria.717990_CWEC.ddy', has an unexpected file extension. Was expecting 'idf'.\n[openstudio.model.YearDescription] <1> 'UseWeatherFile' is not yet a supported option for YearDescription\n[openstudio.model.YearDescription] <1> 'UseWeatherFile' is not yet a supported option for YearDescription\n[openstudio.EpwFile] <0> Successive data points (1970-Jan-31 to 1960-Feb-01, ending on line 753) are greater than 1 day apart in EPW file '/usr/local/bundle/bundler/gems/openstudio-standards-f448df66933d/openstudio-standards/data/weather/CAN_BC_Victoria.717990_CWEC.epw'. Data will be treated as typical (TMY)\n[openstudio.setFileExtension] <0> Path p, '/usr/local/bundle/bundler/gems/openstudio-standards-f448df66933d/openstudio-standards/data/weather/CAN_BC_Victoria.717990_CWEC.ddy', has an unexpected file extension. Was expecting 'idf'.\n[openstudio.model.YearDescription] <1> 'UseWeatherFile' is not yet a supported option for YearDescription\n[openstudio.model.YearDescription] <1> 'UseWeatherFile' is not yet a supported option for YearDescription\n[openstudio.setFileExtension] <0> Path p, '/usr/local/bundle/bundler/gems/openstudio-standards-f448df66933d/openstudio-standards/data/weather/CAN_BC_Victoria.717990_CWEC.ddy', has an unexpected file extension. Was expecting 'idf'.\n[openstudio.model.YearDescription] <1> 'UseWeatherFile' is not yet a supported option for YearDescription\n[openstudio.model.YearDescription] <1> 'UseWeatherFile' is not yet a supported option for YearDescription\n[openstudio.standards.Fan] <0> For Fan Constant Volume 1, there is no greater nominal HP.  Use the efficiency of the largest motor category.\n[openstudio.standards.Fan] <0> For Fan Constant Volume 28, there is no greater nominal HP.  Use the efficiency of the largest motor category.\n",
            "step_errors" : [],
            "step_files" : [],
            "step_info" : [
               "Started adding geometry",
               "Finished adding geometry",
               "Intersection of 'm GFloor NEA' with 'g Ceilin NEA' results in (m GFloor NEA), (g Ceilin NEA),",
               "Intersection of 'g Ceilin NWA' with 'm GFloor NWA' results in (g Ceilin NWA), (m GFloor NWA),",
               "Intersection of 'm GFloor S1A' with 'g Ceilin S1A' results in (m GFloor S1A), (g Ceilin S1A),",
               "Intersection of 'g Ceilin S1A' with 'm GFloor S1A' results in (g Ceilin S1A), (m GFloor S1A),",
               "Intersection of 'g Ceilin N2A' with 'm GFloor N2A' results in (g Ceilin N2A), (m GFloor N2A),",
               "Intersection of 'm GFloor SEA' with 'g Ceilin SEA' results in (m GFloor SEA), (g Ceilin SEA),",
               "Intersection of 'm GFloor N2A' with 'g Ceilin N2A' results in (m GFloor N2A), (g Ceilin N2A),",
               "Intersection of 'g Ceilin N1A' with 'm GFloor N1A' results in (g Ceilin N1A), (m GFloor N1A),",
               "Intersection of 'g Ceilin NEA' with 'm GFloor NEA' results in (g Ceilin NEA), (m GFloor NEA),",
               "Intersection of 'm GFloor S2A' with 'g Ceilin S2A' results in (m GFloor S2A), (g Ceilin S2A),",
               "Intersection of 'g Ceilin S2A' with 'm GFloor S2A' results in (g Ceilin S2A), (m GFloor S2A),",
               "Intersection of 'm GFloor SWA' with 'g Ceilin SWA' results in (m GFloor SWA), (g Ceilin SWA),",
               "Intersection of 'g Ceilin SEA' with 'm GFloor SEA' results in (g Ceilin SEA), (m GFloor SEA),",
               "Intersection of 'g Ceiling C' with 'm Floor C' results in (g Ceiling C), (m Floor C),",
               "Intersection of 'm GFloor N1A' with 'g Ceilin N1A' results in (m GFloor N1A), (g Ceilin N1A),",
               "Intersection of 'm GFloor NWA' with 'g Ceilin NWA' results in (m GFloor NWA), (g Ceilin NWA),",
               "Intersection of 'g Ceilin SWA' with 'm GFloor SWA' results in (g Ceilin SWA), (m GFloor SWA),",
               "Intersection of 'm Floor C' with 'g Ceiling C' results in (m Floor C), (g Ceiling C),",
               "Started adding weather file for climate zone: NECB HDD Method.",
               "Template =",
               "Setting G Corridor to Space Function.Corr. < 2.4m wide-sch-G",
               "Setting M Corridor to Space Function.Corr. < 2.4m wide-sch-G",
               "Setting T Corridor to Space Function.Corr. < 2.4m wide-sch-G",
               "Setting G N1 Apartment to Space Function.Dwelling Unit(s)",
               "Setting G N2 Apartment to Space Function.Dwelling Unit(s)",
               "Setting G NE Apartment to Space Function.Dwelling Unit(s)",
               "Setting G NW Apartment to Space Function.Dwelling Unit(s)",
               "Setting G S1 Apartment to Space Function.Dwelling Unit(s)",
               "Setting G S2 Apartment to Space Function.Dwelling Unit(s)",
               "Setting G SW Apartment to Space Function.Dwelling Unit(s)",
               "Setting M N1 Apartment to Space Function.Dwelling Unit(s)",
               "Setting M N2 Apartment to Space Function.Dwelling Unit(s)",
               "Setting M NE Apartment to Space Function.Dwelling Unit(s)",
               "Setting M NW Apartment to Space Function.Dwelling Unit(s)",
               "Setting M S1 Apartment to Space Function.Dwelling Unit(s)",
               "Setting M S2 Apartment to Space Function.Dwelling Unit(s)",
               "Setting M SE Apartment to Space Function.Dwelling Unit(s)",
               "Setting M SW Apartment to Space Function.Dwelling Unit(s)",
               "Setting T N1 Apartment to Space Function.Dwelling Unit(s)",
               "Setting T N2 Apartment to Space Function.Dwelling Unit(s)",
               "Setting T NE Apartment to Space Function.Dwelling Unit(s)",
               "Setting T NW Apartment to Space Function.Dwelling Unit(s)",
               "Setting T S1 Apartment to Space Function.Dwelling Unit(s)",
               "Setting T S2 Apartment to Space Function.Dwelling Unit(s)",
               "Setting T SE Apartment to Space Function.Dwelling Unit(s)",
               "Setting T SW Apartment to Space Function.Dwelling Unit(s)",
               "Setting Office to Space Function.Conf./meet./multi-purpose",
               "Started applying space types (loads)",
               "Space Function Conf./meet./multi-purpose had no people, one has been created.",
               "Space Function Conf./meet./multi-purpose set occupancy to 18.58 people/1000 ft^2.",
               "Space Function Conf./meet./multi-purpose had no lights, one has been created.",
               "Space Function Conf./meet./multi-purpose set LPD to 1.226309922 W/ft^2.",
               "Space Function Conf./meet./multi-purpose had no electric equipment, one has been created.",
               "Space Function Conf./meet./multi-purpose set electric EPD to 0.092902267 W/ft^2.",
               "Space Function Conf./meet./multi-purpose had no ventilation specification, one has been created.",
               "Space Function Conf./meet./multi-purpose set ventilation per area to 0.31 cfm/ft^2.",
               "Space Function Conf./meet./multi-purpose had no infiltration objects, one has been created.",
               "Space Function Conf./meet./multi-purpose set infiltration to 0.0 per ft^2 exterior surface area.",
               "Space Function Conf./meet./multi-purpose set occupancy schedule to NECB-C-Occupancy.",
               "Space Function Conf./meet./multi-purpose set occupant activity schedule to NECB-Activity.",
               "Space Function Conf./meet./multi-purpose set lighting schedule to NECB-C-Lighting.",
               "Space Function Conf./meet./multi-purpose set electric equipment schedule to NECB-C-Electric-Equipment.",
               "Space Function Conf./meet./multi-purpose set infiltration schedule to Always On.",
               "Space Function Conf./meet./multi-purpose set heating setpoint schedule to NECB-C-Thermostat Setpoint-Heating.",
               "Space Function Conf./meet./multi-purpose set cooling setpoint schedule to NECB-C-Thermostat Setpoint-Cooling.",
               "Space Function Corr. < 2.4m wide-sch-G had no people, one has been created.",
               "Space Function Corr. < 2.4m wide-sch-G set occupancy to 0.93 people/1000 ft^2.",
               "Space Function Corr. < 2.4m wide-sch-G had no lights, one has been created.",
               "Space Function Corr. < 2.4m wide-sch-G set LPD to 0.780379041 W/ft^2.",
               "Space Function Corr. < 2.4m wide-sch-G had no ventilation specification, one has been created.",
               "Space Function Corr. < 2.4m wide-sch-G set ventilation per area to 0.06 cfm/ft^2.",
               "Space Function Corr. < 2.4m wide-sch-G had no infiltration objects, one has been created.",
               "Space Function Corr. < 2.4m wide-sch-G set infiltration to 0.0 per ft^2 exterior surface area.",
               "Space Function Corr. < 2.4m wide-sch-G set occupancy schedule to NECB-G-Occupancy.",
               "Space Function Corr. < 2.4m wide-sch-G set occupant activity schedule to NECB-Activity.",
               "Space Function Corr. < 2.4m wide-sch-G set lighting schedule to NECB-G-Lighting.",
               "Space Function Corr. < 2.4m wide-sch-G set electric equipment schedule to NECB-G-Electric-Equipment.",
               "Space Function Corr. < 2.4m wide-sch-G set infiltration schedule to Always On.",
               "Space Function Corr. < 2.4m wide-sch-G set heating setpoint schedule to NECB-G-Thermostat Setpoint-Heating.",
               "Space Function Corr. < 2.4m wide-sch-G set cooling setpoint schedule to NECB-G-Thermostat Setpoint-Cooling.",
               "Space Function Dwelling Unit(s) had no people, one has been created.",
               "Space Function Dwelling Unit(s) set occupancy to 1.55 people/1000 ft^2.",
               "Space Function Dwelling Unit(s) had no lights, one has been created.",
               "Space Function Dwelling Unit(s) set LPD to 0.464511334 W/ft^2.",
               "Space Function Dwelling Unit(s) had no electric equipment, one has been created.",
               "Space Function Dwelling Unit(s) set electric EPD to 0.464511334 W/ft^2.",
               "Space Function Dwelling Unit(s) had no ventilation specification, one has been created.",
               "Space Function Dwelling Unit(s) set ventilation per area to 0.068 cfm/ft^2.",
               "Space Function Dwelling Unit(s) had no infiltration objects, one has been created.",
               "Space Function Dwelling Unit(s) set infiltration to 0.0 per ft^2 exterior surface area.",
               "Space Function Dwelling Unit(s) set occupancy schedule to NECB-G-Occupancy.",
               "Space Function Dwelling Unit(s) set occupant activity schedule to NECB-Activity.",
               "Space Function Dwelling Unit(s) set lighting schedule to NECB-G-Lighting.",
               "Space Function Dwelling Unit(s) set electric equipment schedule to NECB-G-Electric-Equipment.",
               "Space Function Dwelling Unit(s) set infiltration schedule to Always On.",
               "Space Function Dwelling Unit(s) set heating setpoint schedule to NECB-G-Thermostat Setpoint-Heating.",
               "Space Function Dwelling Unit(s) set cooling setpoint schedule to NECB-G-Thermostat Setpoint-Cooling.",
               "Finished applying space types (loads)",
               "Started applying constructions",
               "Adding construction set: NECB 2011-NECB HDD Method-MidriseApartment--is_residentialNo",
               "Adding construction Typical Insulated Exterior Mass Floor R-15.63.",
               "Adding construction Typical Insulated Exterior Mass Wall R-12.5.",
               "Adding construction Typical Insulated Metal Building Roof R-20.41.",
               "Adding construction Typical Interior Floor.",
               "Adding construction Typical Interior Wall.",
               "Adding construction Typical Interior Ceiling.",
               "Adding construction Typical Insulated Carpeted 6in Slab Floor.",
               "Adding construction U 0.55 SHGC 0.31 Dbl Ref-D Tint 6mm/6mm Air.",
               "Adding construction Typical Insulated Metal Door R-1.43.",
               "Adding construction U 0.35 SHGC 0.35 Dbl LoE (e2-.1) Tint 6mm/13mm Air.",
               "Adding construction Typical Overhead Door R-2.0.",
               "Adding construction U 0.48 SHGC 0.40 Dbl Ref-D Clr 6mm/13mm.",
               "Adding construction Typical Interior Window.",
               "Adding construction Typical Interior Door.",
               "Adding construction Typical Interior Partition.",
               "Finished applying constructions",
               "WWR NonRes = 0%; window = 0 ft2, wall = 0 ft2.",
               "WWR Res = 0%; window = 0 ft2, wall = 0 ft2.",
               "WWR Semiheated = 0%; window = 0 ft2, wall = 0 ft2.",
               "The skylight to roof ratios (SRRs) are: NonRes: 0%, Res: 0%.",
               "Started creating thermal zones",
               "Finished creating thermal zones",
               "Running simulation /mnt/openstudio/analysis_4fef0e0f-5396-4c55-a6e1-2cd6803db3ab/data_point_b1f5ab8e-8ead-4995-8c5e-26a66657efa9/run/000_create_prototype_building/output/MidriseApartment-NECB 2011-NECB HDD Method-CAN_BC_Victoria.717990_CWEC.epw/SR0.",
               "Finished run.",
               "Started Adding HVAC",
               "Finished adding HVAC",
               "Started Adding Service Water Heating",
               "Adding service water loop.",
               "Adding water heater.",
               "Template =",
               "Finished adding Service Water Heating",
               "Set sizing factors to 1.3 for heating and 1.3 for cooling.",
               "Running simulation /mnt/openstudio/analysis_4fef0e0f-5396-4c55-a6e1-2cd6803db3ab/data_point_b1f5ab8e-8ead-4995-8c5e-26a66657efa9/run/000_create_prototype_building/output/MidriseApartment-NECB 2011-NECB HDD Method-CAN_BC_Victoria.717990_CWEC.epw/SR1.",
               "Finished run.",
               "Started applying multizone vav OA sizing.",
               "Finished applying multizone vav OA sizing.",
               "Started applying prototype HVAC assumptions.",
               "For Fan Constant Volume 1: allowed_hp = 1.51HP; motor eff = 61.5%; total fan eff = 40% based on 2203 cfm.",
               "For Fan Constant Volume 10: allowed_hp = 0.56HP; motor eff = 61.5%; total fan eff = 40% based on 815 cfm.",
               "For Fan Constant Volume 11: allowed_hp = 0.29HP; motor eff = 61.5%; total fan eff = 40% based on 431 cfm.",
               "For Fan Constant Volume 12: allowed_hp = 0.15HP; motor eff = 61.5%; total fan eff = 40% based on 222 cfm.",
               "For Fan Constant Volume 13: allowed_hp = 0.15HP; motor eff = 61.5%; total fan eff = 40% based on 222 cfm.",
               "For Fan Constant Volume 14: allowed_hp = 0.29HP; motor eff = 61.5%; total fan eff = 40% based on 420 cfm.",
               "For Fan Constant Volume 15: allowed_hp = 0.2HP; motor eff = 61.5%; total fan eff = 40% based on 297 cfm.",
               "For Fan Constant Volume 16: allowed_hp = 0.26HP; motor eff = 61.5%; total fan eff = 40% based on 386 cfm.",
[...]
sFuA9o0FJTq9WCxAW0auhlTzR5sNaBNQ0GpZg9W2rw2bZkDtGkoqH5FQJuGgurDD7RpKKg+/ECbhoLqw0+0aSwp1u3BZiPaNJYUq/dguRFtGkuKNXyw34g2jd2VsY4PVhzRprGkWMcHW05tmto0tWmfCNWmvY/aNLVpatMGozZNbdqqv0pt2uL5Kz6vNu1x1Kbd5wXf0tqYXUAcccQRRxxxxBFHHHHEEWf3OBuTDkgjjTTSSCONNNJII4000uyH5tvIDsQRRxxxxBFHHHHEEUccceafpzbtY9Sm3bVpbR/atPMOtGnnL9Omvf3oEWsayTmEco6hnFMo5xzKuYRyrqGcWyhn8aN7FJRqdEtVuqU63VKlbqlWt1StW6rXLVXslmp2TzW7x+7qVLN7qtl9VbOf16MtoubtaCCmfEPzbjQQU577eTMaiCnP/LwXDcSU5x1Y0UhOqMf1GgNKNJITqnK9w4APjeSE2lwvMCBDI/dgqM/19gImNJIT6nO9uuY1aIsYYEEjOeXrAQ40klMed2BAIznlcQf+M5JTHndiP0NBqUbXG4yoz1BQqtT1EiPeMxSU6nW9x4j0DN2MqWbXq4wYz1BQqtn1NlN3pu5M3dknQnVn76PuTN2ZurPBqDtTd7bqr1J3tnj+is+rO3scdWf3ecG3qzZmBRBHHHHEEUccccQRRxxxxNk9zsZkAdJII4000kgjjTTSSCONNPuh+TaSAnHEEUccccQRRxxxxBFHnPnnqTv7GHVnd91Z34fu7LID3dnlC3Vnb6eQ7wwEHVJBx1TQKRV0TgVdUkHXVNAtFfTLz+1JUqzbLVbuFmt3i9W7xfrdYgVvsYa3WMVbrOM91vGeu79jHe+xjvd1HV+jQXvMIh60+Zz6LRET2nxOfQsQF9p8Tn0DEBvafE59+pEPDQSlGj1Yb0iJBoJSpR7sNmRFA0GpXg8WGxKjgZsx1ezBVkNuNBCUavZgpRE92mMO8qOBoPoVIUMaCKoPP3KkgaD68CNLGgiqDz/zpJGkWLcHm42p0khSrN6D5cZsaSQp1vDBfmPCNHJXxjo+WHHMmUaSYh0fbDm1aWrT1KZ9IlSb9j5q09SmqU0bjNo0tWmr/iq1aYvnr/i82rTHUZt2nxd8S2tjdgFxxBFHHHHEEUccccQRR5zd42xMOiCNNNJII4000kgjjTTSSLMfmm8jOxBHHHHEEUccccQRRxxxxJl/ntq0j1GbdtemHfahTbvuQJt2/TJt2vnnj0JnFTepoEMq6JgKOqWCzqmgSyromgq6pYIWv75nSbFut1i5W6zdLVbvFut3ixW8xRreYhVvsY73WMd77v6OdbzHOt7Xdfx5bdoya16bRnLqtzSvTSM59S0wr00jOfUNMK9NIzn16QfaNBSUavRgvQFtGgpKlXqw24A2DQWlej1YbECbhm7GVLMHWw1o01BQqtmDlTavTVvmAG0aCqpfEdCmoaD68ANtGgqqDz/QpqGg+vATbRpLinV7sNmINo0lxeo9WG5Em8aSYg0f7DeiTWN3ZazjgxVHtGksKdbxwZZTm6Y2TW3aJ0K1ae+jNk1tmtq0wahNU5u26q9Sm7Z4/orPq017HLVp93nBt7Q2ZhcQRxxxxBFHHHHEEUccccTZPc7GpAPSSCONNNJII4000kgjjTT7ofk2sgNxxBFHHHHEEUccccQRR5z556lN+xi1aXdt2nEf2rTbDrRpty/Tpr396BFrGsk5hHKOoZxTKOccyrmEcq6hnFsoZ/GjexSUanRLVbqlOt1SpW6pVrdUrVuq1y1V7JZqdk81u8fu6lSze6rZfVWzn9ejLaLm7WggpnxD8240EFOe+3kzGogpz/y8Fw3ElOcdWNFITqjH9RoDSjSSE6pyvcOAD43khNpcLzAgQyP3YKjP9fYCJjSSE+pzvbrmNWiLGGBBIznl6wEONJJTHndgQCM55XEH/jOSUx53Yj9DQalG1xuMqM9QUKrU9RIj3jMUlOp1vceI9AzdjKlm16uMGM9QUKrZ9TZTd6buTN3ZJ0J1Z++j7kzdmbqzwag7U3e26q9Sd7Z4/orPqzt7HHVn93nBt6s2ZgUQRxxxxBFHHHHEEUccccTZPc7GZAHSSCONNNJII4000kgjjTT7ofk2kgJxxBFHHHHEEUccccQRR5z556k7+xh1Z3fd2WkXurPL2/Z1Z39l/Drd2dsp5DsDQYdU0DEVdEoFnVNBl1TQNRV0SwX98nN7khTrdouVu8Xa3WL1brF+t1jBW6zhLVbxFut4j3W85+7vWMd7rON9XcfXaNAes4gHbT6nfkvEhDafU98CxIU2n1PfAMSGNp9Tn37kQwNBqUYP1htSooGgVKkHuw1Z0UBQqteDxYbEaOBmTDV7sNWQGw0EpZo9WGlEj/aYg/xoIKh+RciQBoLqw48caSCoPvzIkgaC6sPPPGkkKdbtwWZjqjSSFKv3YLkxWxpJijV8sN+YMI3clbGOD1Ycc6aRpFjHB1tObZraNLVpnwjVpr2P2jS1aWrTBqM2TW3aqr9Kbdri+Ss+rzbtcdSm3ecF39LamF1AHHHEEUccccQRRxxxxBFn9zgbkw5II4000kgjjTTSSCONNNLsh+bbyA7EEUccccQRRxxxxBFHHHHmn6c27WPUpt21aed9aNPaDrRp7cu0aeefPwqdVdykgg6poGMq6JQKOqeCLqmgayrolgpa/PqeJcW63WLlbrF2t1i9W6zfLVbwFmt4i1W8xTreYx3vufs71vEe63hf1/HntWnLrHltGsmp39K8No3k1LfAvDaN5NQ3wLw2jeTUpx9o01BQqtGD9Qa0aSgoVerBbgPaNBSU6vVgsQFtGroZU80ebDWgTUNBqWYPVtq8Nm2ZA7RpKKh+RUCbhoLqww+0aSioPvxAm4aC6sNPtGksKdbtwWYj2jSWFKv3YLkRbRpLijV8sN+INo3dlbGOD1Yc0aaxpFjHB1tObZraNLVpnwjVpr2P2jS1aWrTBqM2TW3aqr9Kbdri+Ss+rzbtcdSm3ecF39LamF1AHHHEEUccccQRRxxxxBFn9zgbkw5II4000kgjjTTSSCONNNLsh+bbyA7EEUccccQRRxxxxBFHHHHmn6c27WPUpt21aZd9aNP6DrRp/cu0aW8/esSaRnIOoZxjKOcUyjmHci6hnGso5xbKWfzoHgWlGt1SlW6pTrdUqVuq1S1V65bqdUsVu6Wa3VPN7rG7OtXsnmp2X9Xs5/Voi6h5OxqIKd/QvBsNxJTnft6MBmLKMz/vRQMx5XkHVjSSE+pxvcaAEo3khKpc7zDgQyM5oTbXCwzI0Mg9GOpzvb2ACY3khPpcr655DdoiBljQSE75eoADjeSUxx0Y0EhOedyB/4zklMed2M9QUKrR9QYj6jMUlCp1vcSI9wwFpXpd7zEiPUM3Y6rZ9SojxjMUlGp2vc3Unak7U3f2iVDd2fuoO1N3pu5sMOrO1J2t+qvUnS2ev+Lz6s4eR93ZfV7w7aqNWQHEEUccccQRRxxxxBFHHHF2j7MxWYA00kgjjTTSSCONNNJII81+aL6NpEAcccQRRxxxxBFHHHHEEWf+eerOPkbd2V13dt2H7uywA93Z4Qt1Z2+nkO8MBB1SQcdU0CkVdE4FXVJB11TQLRX0y8/tSVKs2y1W7hZrd4vVu8X63WIFb7GGt1jFW6zjPdbxnru/Yx3vsY73dR1fo0F7zCIetPmc+i0RE9p8Tn0LEBfafE59AxAb2nxOffqRDw0EpRo9WG9IiQaCUqUe7DZkRQNBqV4PFhsSo4GbMdXswVZDbjQQlGr2YKURPdpjDvKjgaD6FSFDGgiqDz9ypIGg+vAjSxoIqg8/86SRpFi3B5uNqdJIUqzeg+XGbGkkKdbwwX5jwjRyV8Y6PlhxzJlGkmIdH2w5tWlq09SmfSJUm/Y+atPUpqlNG4zaNLVpq/4qtWmL56/4vNq0x1Gbdp8XfEtrY3YBccQRRxxxxBFHHHHEEUec3eNsTDogjTTSSCONNNJII4000kizH5pvIzsQRxxxxBFHHHHEEUccccSZf57atI9Rm3bXpt32oU077kCbdvwybdr5549CZxU3qaBDKuiYCjqlgs6poEsq6JoKuqWCFr++Z0mxbrdYuVus3S1W7xbrd4sVvMUa3mIVb7GO91jHe+7+jnW8xzre13X8eW3aMmtem0Zy6rc0r00jOfUtMK9NIzn1DTCvTSM59ekH2jQUlGr0YL0BbRoKSpV6sNuANg0FpXo9WGxAm4ZuxlSzB1sNaNNQUKrZg5U2r01b5gBtGgqqXxHQpqGg+vADbRoKqg8/0KahoPrwE20aS4p1e7DZiDaNJcXqPVhuRJvGkmINH+w3ok1jd2Ws44MVR7RpLCnW8cGWU5umNk1t2idCtWnvozZNbZratMGoTVObtuqvUpu2eP6Kz6tNexy1afd5wbe0NmYXEEccccQRRxxxxBFHHHHE2T3OxqQD0kgjjTTSSCONNNJII400+6H5NrIDccQRRxxxxBFHHHHEEUec+eepTfsYtWm/a9NO+7CmnXZgTTtpTZsL0pr2x0Fa055K0pqmNU1rmtY0rWla07SmaU3TmvY3b0ataX8cpDXtD4O0pmlN05qmNS2WpDXtuSStaTWM1jStab+O1rTf8bWm/Tpa054ZrWnrPq81TWvaqr9Ka9ri+Ss+rzXtcbSm3ecFX9LamFxAHHHEEUccccQRRxxxxBFn9zgbcw5II4000kgjjTTSSCONNNLsh+bbuA7EEUccccQRRxxxxBFHHHHmn6c17WO0pt2taW/70Kadd6BNO3+ZNu3tR49Y00jOIZRzDOWcQjnnUM4llHMN5dxCOYsf3aOgVKNbqtIt1emWKnVLtbqlat1SvW6pYrdUs3uq2T12V6ea3VPN7qua/bwebRE1b0cDMeUbmnejgZjy3M+b0UBMeebnvWggpjzvwIpGckI9rtcYUKKRnFCV6x0GfGgkJ9TmeoEBGRq5B0N9rrcXMKGRnFCf69U1r0FbxAALGskpXw9woJGc8rgDAxrJKY878J+RnPK4E/sZCko1ut5gRH2GglKlrpcY8Z6hoFSv6z1GpGfoZkw1u15lxHiGglLNrreZujN1Z+rOPhGqO3sfdWfqztSdDUbdmbqzVX+VurPF81d8Xt3Z46g7u88Lvl21MSuAOOKII4444ogjjjjiiCPO7nE2JguQRhpppJFGGmmkkUYaaaTZD823kRSII4444ogjjjjiiCOOOOLMP0/d2ceoO7vrzto+dGeXHejOLl+oO3s7hXxnIOiQCjqmgk6poHMq6JIKuqaCbqmgX35uT5Ji3W6xcrdYu1us3i3W7xYreIs1vMUq3mId77GO99z9Het4j3W8r+v4Gg3aYxbxoM3n1G+JmNDmc+pbgLjQ5nPqG4DY0OZz6tOPfGggKNXowXpDSjQQlCr1YLchKxoISvV6sNiQGA3cjKlmD7YacqOBoFSzByuN6NEec5AfDQTVrwgZ0kBQffiRIw0E1YcfWdJAUH34mSeNJMW6PdhsTJVGkmL1Hiw3ZksjSbGGD/YbE6aRuzLW8cGKY840khTr+GDLqU1Tm6Y27ROh2rT3UZumNk1t2mDUpqlNW/VXqU1bPH/F59WmPY7atPu84FtaG7MLiCOOOOKII4444ogjjjji7B5nY9IBaaSRRhpppJFGGmmkkUaa/dB8G9mBOOKII4444ogjjjjiiCPO/PPUpn2M2rS7Nq3vQ5t23YE27fpl2rTzzx+FzipuUkGHVNAxFXRKBZ1TQZdU0DUVdEsFLX59z5Ji3W6xcrdYu1us3i3W7xYreIs1vMUq3mId77GO99z9Het4j3W8r+v489q0Zda8No3k1G9pXptGcupbYF6bRnLqG2Bem0Zy6tMPtGkoKNXowXoD2jQUlCr1YLcBbRoKSvV6sNiANg3djKlmD7Ya0KahoFSzByttXpu2zAHaNBRUvyKgTUNB9eEH2jQUVB9+oE1DQfXhJ9o0lhTr9mCzEW0aS4rVe7DciDaNJcUaPthvRJvG7spYxwcrjmjTWFKs44MtpzZNbZratE+EatPeR22a2jS1aYNRm6Y2bdVfpTZt8fwVn1eb9jhq0+7zgm9pbcwuII444ogjjjjiiCOOOOKIs3ucjUkHpJFGGmmkkUYaaaSRRhpp9kPzbWQH4ogjjjjiiCOOOOKII444889Tm/YxatPu2rTDPrRptx1o025fpk17+9Ej1jSScwjlHEM5p1DOOZRzCeVcQzm3UM7iR/coKNXolqp0S3W6pUrdUq1uqVq3VK9bqtgt1eyeanaP3dWpZvdUs/uqZj+vR1tEzdvRQEz5hubdaCCmPPfzZjQQU575eS8aiCnPO7CikZxQj+s1BpRoJCdU5XqHAR8ayQm1uV5gQIZG7sFQn+vtBUxoJCfU53p1zWvQFjHAgkZyytcDHGgkpzzuwIBGcsrjDvxnJKc87sR+hoJSja43GFGfoaBUqeslRrxnKCjV63qPEekZuhlTza5XGTGeoaBUs+ttpu5M3Zm6s0+E6s7eR92ZujN1Z4NRd6bubNVfpe5s8fwVn1d39jjqzu7zgm9XbcwKII444ogjjjjiiCOOOOKIs3ucjckCpJFGGmmkkUYaaaSRRhpp9kPzbSQF4ogjjjjiiCOOOOKII444889Td/Yx6s7uurPjLnRn17ft687+yvh1urO3U8h3BoIOqaBjKuiUCjqngi6poGsq6JYK+uXn9iQp1u0WK3eLtbvF6t1i/W6xgrdYw1us4i3W8R7reM/d37GO91jH+7qOr9GgPWYRD9p8Tv2WiAltPqe+BYgLbT6nvgGIDW0+pz79yIcGglKNHqw3pEQDQalSD3YbsqKBoFSvB4sNidHAzZhq9mCrITcaCEo1e7DSiB7tMQf50UBQ/YqQIQ0E1YcfOdJAUH34kSUNBNWHn3nSSFKs24PNxlRpJClW78FyY7Y0khRr+GC/MWEauStjHR+sOOZMI0mxjg+2nNo0tWlq0z4Rqk17H7VpatPUpg1GbZratFV/ldq0xfNXfF5t2uOoTbvPC76ltTG7gDjiiCOOOOKII4444ogjzu5xNiYdkEYaaaSRRhpppJFGGmmk2Q/Nt5EdiCOOOOKII4444ogjjjjizD9PbdrHqE27a9NO+9CmtR1o09qXadPOP38UOqu4SQUdUkHHVNApFXROBV1SQddU0C0VtPj1PUuKdbvFyt1i7W6xerdYv1us4C3W8BareIt1vMc63nP3d6zjPdbxvq7jz2vTllnz2jSSU7+leW0ayalvgXltGsmpb4B5bRrJqU8/0KahoFSjB+sNaNNQUKrUg90GtGkoKNXrwWID2jR0M6aaPdhqQJuGglLNHqy0eW3aMgdo01BQ/YqANg0F1YcfaNNQUH34gTYNBdWHn2jTWFKs24PNRrRpLClW78FyI9o0lhRr+GC/EW0auytjHR+sOKJNY0mxjg+2nNo0tWlq0z4Rqk17H7VpatPUpg1GbZratFV/ldq0xfNXfF5t2uOoTbvPC76ltTG7gDjiiCOOOOKII4444ogjzu5xNiYdkEYaaaSRRhpppJFGGmmk2Q/Nt5EdiCOOOOKII4444ogjjjjizD9PbdrHqE27a9PO+9Cm9R1o0/qXadPefvSINY3kHEI5x1DOKZRzDuVcQjnXUM4tlLP40T0KSjW6pSrdUp1uqVK3VKtbqtYt1euWKnZLNbunmt1jd3Wq2T3V7L6q2c/r0RZR83Y0EFO+oXk3Gogpz/28GQ3ElGd+3osGYsrzDqxoJCfU43qNASUayQlVud5hwIdGckJtrhcYkKGRezDU53p7ARMayQn1uV5d8xq0RQywoJGc8vUABxrJKY87MKCRnPK4A/8ZySmPO7GfoaBUo+sNRtRnKChV6nqJEe8ZCkr1ut5jRHqGbsZUs+tVRoxnKCjV7HqbqTtTd6bu7BOhurP3UXem7kzd2WDUnak7W/VXqTtbPH/F59WdPY66s/u84NtVG7MCiCOOOOKII4444ogjjjji7B5nY7IAaaSRRhpppJFGGmmkkUaa/dB8G0mBOOKII4444ogjjjjiiCPO/PPUnX2MurO77uyyD93ZYQe6s8MX6s7eTiHfGQg6pIKOqaBTKuicCrqkgq6poFsq6Jef25OkWLdbrNwt1u4Wq3eL9bvFCt5iDW+xirdYx3us4z13f8c63mMd7+s6vkaD9phFPGjzOfVbIia0+Zz6FiAutPmc+gYgNrT5nPr0Ix8aCEo1erDekBINBKVKPdhtyIoGglK9Hiw2JEYDN2Oq2YOthtxoICjV7MFKI3q0xxzkRwNB9StChjQQVB9+5EgDQfXhR5Y0EFQffuZJI0mxbg82G1OlkaRYvQfLjdnSSFKs4YP9xoRp5K6MdXyw4pgzjSTFOj7YcmrT1KapTftEqDbtfdSmqU1TmzYYtWlq01b9VWrTFs9f8Xm1aY+jNu0+L/iW1sbsAuKII4444ogjjjjiiCOOOLvH2Zh0QBpppJFGGmmkkUYaaaSRZj8030Z2II444ogjjjjiiCOOOOKIM/88tWkfozbtrk277kObdtyBNu34Zdq0888fhc4qblJBh1TQMRV0SgWdU0GXVNA1FXRLBS1+fc+SYt1usXK3WLtbrN4t1u8WK3iLNbzFKt5iHe+xjvfc/R3reI91vK/r+PPatGXWvDaN5NRvaV6bRnLqW2Bem0Zy6htgXptGcurTD7RpKCjV6MF6A9o0FJQq9WC3AW0aCkr1erDYgDYN3YypZg+2GtCmoaBUswcrbV6btswB2jQUVL8ioE1DQfXhB9o0FFQffqBNQ0H14SfaNJYU6/ZgsxFtGkuK1Xuw3Ig2jSXFGj7Yb0Sbxu7KWMcHK45o01hSrOODLac2TW2a2rRPhGrT3kdtmto0tWmDUZumNm3VX6U2bfH8FZ9Xm/Y4atPu84JvaW3MLiCOOOKII4444ogjjjjiiLN7nI1JB6SRRhpppJFGGmmkkUYaafZD821kB+KII4444ogjjjjiiCOOOPPPU5v2MWrT7tq02z60aacdaNNOX6ZNe/vRI9Y0knMI5RxDOadQzjmUcwnlXEM5t1DO4kf3KCjV6JaqdEt1uqVK3VKtbqlat1SvW6rYLdXsnmp2j93VqWb3VLP7qmY/r0dbRM3b0UBM+Ybm3Wggpjz382Y0EFOe+XkvGogpzzuwopGcUI/rNQaUaCQnVOV6hwEfGskJtbleYECGRu7BUJ/r7QVMaCQn1Od6dc1r0BYxwIJGcsrXAxxoJKc87sCARnLK4w78ZySnPO7EfoaCUo2uNxhRn6GgVKnrJUa8Zygo1et6jxHpGboZU82uVxkxnqGgVLPrbabuTN2ZurNPhOrO3kfdmbozdWeDUXem7mzVX6XubPH8FZ9Xd/Y46s7u84JvV23MCiCOOOKII4444ogjjjjiiLN7nI3JAqSRRhpppJFGGmmkkUYaafZD820kBeKII4444ogjjjjiiCOOOPPPU3f2MerOftednfdhOzvvwHZ21nam7eyPf2Sv7UzbmbYzbWfPBGk703am7UzbmbYzbWfazrSdrVpc2s60nT0VpO3sj4O0nf1xkLazPw7SdlbBaDvTdvbraDv7HV/b2a+j7eyZ0Xa27vPazrSdrfqrtJ0tnr/i89rOHkfb2X1e8OWqjUkBxBFHHHHEEUccccQRRxxxdo+zMVeANNJII4000kgjjTTSSCPNfmi+jaNAHHHEEUccccQRRxxxxBFn/nnazj5G29nddva2D93ZZQe6s8sX6s7eTiHfGQg6pIKOqaBTKuicCrqkgq6poFsq6Jef25OkWLdbrNwt1u4Wq3eL9bvFCt5iDW+xirdYx3us4z13f8c63mMd7+s6vkaD9phFPGjzOfVbIia0+Zz6FiAutPmc+gYgNrT5nPr0Ix8aCEo1erDekBINBKVKPdhtyIoGglK9Hiw2JEYDN2Oq2YOthtxoICjV7MFKI3q0xxzkRwNB9StChjQQVB9+5EgDQfXhR5Y0EFQffuZJI0mxbg82G1OlkaRYvQfLjdnSSFKs4YP9xoRp5K6MdXyw4pgzjSTFOj7YcmrT1KapTftEqDbtfdSmqU1TmzYYtWlq01b9VWrTFs9f8Xm1aY+jNu0+L/iW1sbsAuKII4444ogjjjjiiCOOOLvH2Zh0QBpppJFGGmmkkUYaaaSRZj8030Z2II444ogjjjjiiCOOOOKIM/88tWkfozbtrk1r+9CmXXegTbt+mTbt/PNHobOKm1TQIRV0TAWdUkHnVNAlFXRNBd1SQYtf37OkWLdbrNwt1u4Wq3eL9bvFCt5iDW+xirdYx3us4z13f8c63mMd7+s6/rw2bZk1r00jOfVbmtemkZz6FpjXppGc+gaY16aRnPr0A20aCko1erDegDYNBaVKPdhtQJuGglK9Hiw2oE1DN2Oq2YOtBrRpKCjV7MFKm9emLXOANg0F1a8IaNNQUH34gTYNBdWHH2jTUFB9+Ik2jSXFuj3YbESbxpJi9R4sN6JNY0mxhg/2G9Gmsbsy1vHBiiPaNJYU6/hgy6lNU5umNu0Todq091GbpjZNbdpg1KapTVv1V6lNWzx/xefVpj2O2rT7vOBbWhuzC4gjjjjiiCOOOOKII4444uweZ2PSAWmkkUYaaaSRRhpppJFGmv3QfBvZgTjiiCOOOOKII4444ogjzvzz1KZ9jNq0uzat70ObdtuBNu32Zdq0tx89Yk0jOYdQzjGUcwrlnEM5l1DONZRzC+UsfnSPglKNbqlKt1SnW6rULdXqlqp1S/W6pYrdUs3uqWb32F2danZPNbuvavbzerRF1LwdDcSUb2jejQZiynM/b0YDMeWZn/eigZjyvAMrGskJ9bheY0CJRnJCVa53GPChkZxQm+sFBmRo5B4M9bneXsCERnJCfa5X17wGbREDLGgkp3w9wIFGcsrjDgxoJKc87sB/RnLK407sZygo1eh6gxH1GQpKlbpeYsR7hoJSva73GJGeoZsx1ex6lRHjGQpKNbveZurO1J2pO/tEqO7sfdSdqTtTdzYYdWfqzlb9VerOFs9f8Xl1Z4+j7uw+L/h21casAOKII4444ogjjjjiiCOOOLvH2ZgsQBpppJFGGmmkkUYaaaSRZj8030ZSII444ogjjjjiiCOOOOKIM/88dWcfo+7srjs77EJ3dnvbvu7sr4xfpzt7O4V8ZyDokAo6poJOqaBzKuiSCrqmgm6poF9+bk+SYt1usXK3WLtbrN4t1u8WK3iLNbzFKt5iHe+xjvfc/R3reI91vK/r+BoN2mMW8aDN59RviZjQ5nPqW4C40OZz6huA2NDmc+rTj3xoICjV6MF6Q0o0EJQq9WC3ISsaCEr1erDYkBgN3IypZg+2GnKjgaBUswcrjejRHnOQHw0E1a8IGdJAUH34kSMNBNWHH1nSQFB9+JknjSTFuj3YbEyVRpJi9R4sN2ZLI0mxhg/2GxOmkbsy1vHBimPONJIU6/hgy6lNU5umNu0Todq091GbpjZNbdpg1KapTVv1V6lNWzx/xefVpj2O2rT7vOBbWhuzC4gjjjjiiCOOOOKII4444uweZ2PSAWmkkUYaaaSRRhpppJFGmv3QfBvZgTjiiCOOOOKII4444ogjzvzz1KZ9jNq0uzbtuA9tWtuBNq19mTbt/PNHobOKm1TQIRV0TAWdUkHnVNAlFXRNBd1SQYtf37OkWLdbrNwt1u4Wq3eL9bvFCt5iDW+xirdYx3us4z13f8c63mMd7+s6/rw2bZk1r00jOfVbmtemkZz6FpjXppGc+gaY16aRnPr0A20aCko1erDegDYNBaVKPdhtQJuGglK9Hiw2oE1DN2Oq2YOtBrRpKCjV7MFKm9emLXOANg0F1a8IaNNQUH34gTYNBdWHH2jTUFB9+Ik2jSXFuj3YbESbxpJi9R4sN6JNY0mxhg/2G9Gmsbsy1vHBiiPaNJYU6/hgy6lNU5umNu0Todq091GbpjZNbdpg1KapTVv1V6lNWzx/xefVpj2O2rT7vOBbWhuzC4gjjjjiiCOOOOKII4444uweZ2PSAWmkkUYaaaSRRhpppJFGmv3QfBvZgTjiiCOOOOKII4444ogjzvzz1KZ9jNq0uzbttA9tWt+BNq1/mTbt7UePWNNIziGUcwzlnEI551DOJZRzDeXcQjmLH92joFSjW6rSLdXplip1S7W6pWrdUr1uqWK3VLN7qtk9dlenmt1Tze6rmv28Hm0RNW9HAzHlG5p3o4GY8tzPm9FATHnm571oIKY878CKRnJCPa7XGFCikZxQlesdBnxoJCfU5nqBARkauQdDfa63FzChkZxQn+vVNa9BW8QACxrJKV8PcKCRnPK4AwMaySmPO/CfkZzyuBP7GQpKNbreYER9hoJSpa6XGPGeoaBUr+s9RqRn6GZMNbteZcR4hoJSza63mbozdWfqzj4Rqjt7H3Vn6s7UnQ1G3Zm6s1V/lbqzxfNXfF7d2eOoO7vPC75dtTErgDjiiCOOOOKII4444ogjzu5xNiYLkEYaaaSRRhpppJFGGmmk2Q/Nt5EUiCOOOOKII4444ogjjjjizD9P3dnHqDu7687O+9CdHXagOzt8oe7s7RTynYGgQyromAo6pYLOqaBLKuiaCrqlgn75uT1JinW7xcrdYu1usXq3WL9brOAt1vAWq3iLdbzHOt5z93es4z3W8b6u42s0aI9ZxIM2n1O/JWJCm8+pbwHiQpvPqW8AYkObz6lPP/KhgaBUowfrDSnRQFCq1IPdhqxoICjV68FiQ2I0cDOmmj3YasiNBoJSzR6sNKJHe8xBfjQQVL8iZEgDQfXhR440EFQffmRJA0H14WeeNJIU6/ZgszFVGkmK1Xuw3JgtjSTFGj7Yb0yYRu7KWMcHK44500hSrOODLac2TW2a2rRPhGrT3kdtmto0tWmDUZumNm3VX6U2bfH8FZ9Xm/Y4atPu84JvaW3MLiCOOOKII4444ogjjjjiiLN7nI1JB6SRRhpppJFGGmmkkUYaafZD821kB+KII4444ogjjjjiiCOOOPPPU5v2MWrT7tq0yz60accdaNOOX6ZNO//8Ueis4iYVdEgFHVNBp1TQORV0SQVdU0G3VNDi1/csKdbtFit3i7W7xerdYv1usYK3WMNbrOIt1vEe63jP3d+xjvdYx/u6jj+vTVtmzWvTSE79lua1aSSnvgXmtWkkp74B5rVpJKc+/UCbhoJSjR6sN6BNQ0GpUg92G9CmoaBUrweLDWjT0M2YavZgqwFtGgpKNXuw0ua1acscoE1DQfUrAto0FFQffqBNQ0H14QfaNBRUH36iTWNJsW4PNhvRprGkWL0Hy41o01hSrOGD/Ua0aeyujHV8sOKINo0lxTo+2HJq09SmqU37RKg27X3UpqlNU5s2GLVpatNW/VVq0xbPX/F5tWmPozbtPi/4ltbG7ALiiCOOOOKII4444ogjjji7x9mYdEAaaaSRRhpppJFGGmmkkWY/NN9GdiCOOOKII4444ogjjjjiiDP/PLVpH6M27a5Nu+5Dm3bagTbt9GXatLcfPWJNIzmHUM4xlHMK5ZxDOZdQzjWUcwvlLH50j4JSjW6pSrdUp1uq1C3V6paqdUv1uqWK3VLN7qlm99hdnWp2TzW7r2r283q0RdS8HQ3ElG9o3o0GYspzP29GAzHlmZ/3ooGY8rwDKxrJCfW4XmNAiUZyQlWudxjwoZGcUJvrBQZkaOQeDPW53l7AhEZyQn2uV9e8Bm0RAyxoJKd8PcCBRnLK4w4MaCSnPO7Af0ZyyuNO7GcoKNXoeoMR9RkKSpW6XmLEe4aCUr2u9xiRnqGbMdXsepUR4xkKSjW73mbqztSdqTv7RKju7H3Unak7U3c2GHVn6s5W/VXqzhbPX/F5dWePo+7sPi/4dtXGrADiiCOOOOKII4444ogjjji7x9mYLEAaaaSRRhpppJFGGmmkkWY/NN9GUiCOOOKII4444ogjjjjiiDP/PHVnH6Pu7K47u+1Dd3bege7s/IW6s7dTyHcGgg6poGMq6JQKOqeCLqmgayrolgr65ef2JCnW7RYrd4u1u8Xq3WL9brGCt1jDW6ziLdbxHut4z93fsY73WMf7uo6v0aA9ZhEP2nxO/ZaICW0+p74FiAttPqe+AYgNbT6nPv3IhwaCUo0erDekRANBqVIPdhuyooGgVK8Hiw2J0cDNmGr2YKshNxoISjV7sNKIHu0xB/nRQFD9ipAhDQTVhx850kBQffiRJQ0E1YefedJIUqzbg83GVGkkKVbvwXJjtjSSFGv4YL8xYRq5K2MdH6w45kwjSbGOD7ac2jS1aWrTPhGqTXsftWlq09SmDUZtmtq0VX+V2rTF81d8Xm3a46hNu88LvqW1MbuAOOKII4444ogjjjjiiCPO7nE2Jh2QRhpppJFGGmmkkUYaaaTZD823kR2II4444ogjjjjiiCOOOOLMP09t2seoTftdm3bZhzXtsgNr2kVr2lyQ1rQ/DtKa9lSS1jStaVrTtKZpTdOapjVNa5rWtL95M2pN++MgrWl/GKQ1TWua1jStaVrTnkrSmjYarWl/e575v09rTRtHa037HV9r2q+jNe2Z0Zq27vNa07SmrfqrtKYtnr/i81rTHkdr2n1e8CWtjckFxBFHHHHEEUccccQRRxxxdo+zMeeANNJII4000kgjjTTSSCPNfmi+jetAHHHEEUccccQRRxxxxBFn/nla0z5Ga9rdmva2D23adQfatOuXadPOP38UOqu4SQUdUkHHVNApFXROBV1SQddU0C0VtPj1PUuKdbvFyt1i7W6xerdYv1us4C3W8BareIt1vMc63nP3d6zjPdbxvq7jz2vTllnz2jSSU7+leW0ayalvgXltGsmpb4B5bRrJqU8/0KahoFSjB+sNaNNQUKrUg90GtGkoKNXrwWID2jR0M6aaPdhqQJuGglLNHqy0eW3aMgdo01BQ/YqANg0F1YcfaNNQUH34gTYNBdWHn2jTWFKs24PNRrRpLClW78FyI9o0lhRr+GC/EW0auytjHR+sOKJNY0mxjg+2nNo0tWlq0z4Rqk17H7VpatPUpg1GbZratFV/ldq0xfNXfF5t2uOoTbvPC76ltTG7gDjiiCOOOOKII4444ogjzu5xNiYdkEYaaaSRRhpppJFGGmmk2Q/Nt5EdiCOOOOKII4444ogjjjjizD9PbdrHqE27a9PaPrRptx1o025fpk17+9Ej1jSScwjlHEM5p1DOOZRzCeVcQzm3UM7iR/coKNXolqp0S3W6pUrdUq1uqVq3VK9bqtgt1eyeanaP3dWpZvdUs/uqZj+vR1tEzdvRQEz5hubdaCCmPPfzZjQQU575eS8aiCnPO7CikZxQj+s1BpRoJCdU5XqHAR8ayQm1uV5gQIZG7sFQn+vtBUxoJCfU53p1zWvQFjHAgkZyytcDHGgkpzzuwIBGcsrjDvxnJKc87sR+hoJSja43GFGfoaBUqeslRrxnKCjV63qPEekZuhlTza5XGTGeoaBUs+ttpu5M3Zm6s0+E6s7eR92ZujN1Z4NRd6bubNVfpe5s8fwVn1d39jjqzu7zgm9XbcwKII444ogjjjjiiCOOOOKIs3ucjckCpJFGGmmkkUYaaaSRRhpp9kPzbSQF4ogjjjjiiCOOOOKII444889Td/Yx6s7uurO+C91Ze3vbvu/sHfLrhGdvp5DxDAQdUkHHVNApFXROBV1SQddU0C0V9MsP7klSrNstVu4Wa3eL1bvF+t1iBW+xhrdYxVus4z3W8Z67v2Md77GO93UdXyNCe8wiJrT5nPotERfafE59CxAb2nxOfQMQH9p8Tn36kRENBKUaPVhvSIoGglKlHuw25EUDQaleDxYbUqOBmzHV7MFWQ3Y0EJRq9mClEUHaYw4ypIGg+hUhRxoIqg8/sqSBoPrwI08aCKoPPzOlkaRYtwebjcnSSFKs3oPlxnxpJCnW8MF+Y8o0clfGOj5YccyaRpJiHR9sOcVpitMUp30iVJz2PorTFKcpThuM4jTFaav+KsVpi+ev+LzitMdRnHafF3xPa2N+AXHEEUccccQRRxxxxBFHnN3jbEw7II000kgjjTTSSCONNNJIsx+ab6M7EEccccQRRxxxxBFHHHHEmX+e4rSPUZx2F6cddiJOa3sQp7UvE6edf/4sdFZykwo6pIKOqaBTKuicCrqkgq6poFsqaPH7e5YU63aLlbvF2t1i9W6xfrdYwVus4S1W8RbreI91vOfu71jHe6zjfV3HnxenLbPmxWkkp35L8+I0klPfAvPiNJJT3wDz4jSSU59+IE5DQalGD9YbEKehoFSpB7sNiNNQUKrXg8UGxGnoZkw1e7DVgDgNBaWaPVhp8+K0ZQ4Qp6Gg+hUBcRoKqg8/EKehoPrwA3EaCqoPPxGnsaRYtwebjYjTWFKs3oPlRsRpLCnW8MF+I+I0dlfGOj5YcUScxpJiHR9sOcVpitMUp30iVJz2PorTFKcpThuM4jTFaav+KsVpi+ev+LzitMdRnHafF3xPa2N+AXHEEUccccQRRxxxxBFHnN3jbEw7II000kgjjTTSSCONNNJIsx+ab6M7EEccccQRRxxxxBFHHHHEmX+e4rSPUZx2F6cddyJO63sQp3XFaXNBitP+OEhx2lNJitMUpylOU5ymOE1xmuI0xWmK0/7mzag47Y+DFKf9YZDiNMVpitMUp8WSFKc9l6Q4rYZRnKY47ddRnPY7vuK0X0dx2jOjOG3d5xWnKU5b9VcpTls8f8XnFac9juK0+7zge1ob8wuII4444ogjjjjiiCOOOOLsHmdj2gFppJFGGmmkkUYaaaSRRpr90Hwb3YE44ogjjjjiiCOOOOKII8788xSnfYzitN/FadedeNMOe/CmHb7Mm/b2o0e0aSTnEMo5hnJOoZxzKOcSyrmGcm6hnMWv7lFQqtEtVemW6nRLlbqlWt1StW6pXrdUsVuq2T3V7B67q1PN7qlm91XNft6Ptoia16OBmPINzcvRQEx57ufVaCCmPPPzYjQQU553oEUjOaEe12sMONFITqjK9Q4DQjSSE2pzvcCADY3cg6E+19sLqNBITqjP9eqa96AtYoAGjeSUrwdI0EhOedyBAo3klMcdCNBITnncif4MBaUaXW8w4j5DQalS10uMiM9QUKrX9R4j1jN0M6aaXa8yojxDQalm19tM35m+M31nnwj1nb2PvjN9Z/rOBqPvTN/Zqr9K39ni+Ss+r+/scfSd3ecFX6/amBZAHHHEEUccccQRRxxxxBFn9zgbswVII4000kgjjTTSSCONNNLsh+bbWArEEUccccQRRxxxxBFHHHHmn6fv7GP0nf3uO7vtxHd23IPv7PhlvrN2fPvx9jDtGNGfBWMPr4k9vib29JrY82tiL6+Jvb4m9vaa2MWv/ZO5Lzpn7UUHrb3opLUXHbX2orPWXnTY2otOW3vRcWsvOm/9Reetv2qvvei89Redt07O2/NeuVHyvGYul/rs252X0OVSn73J5hV1udRnb7F5gV0u9dkbDOjtgrGvOV1P/3MBuPCCsa85YE//WwGI84KxrzljT/9DAVj2glvhNafs6X8lACVfMPY1p+zpfyLM+/tGqUDnF4x99tUC2V8w9tkLDKgAg7HPXmBAFBiMffYCIxrBZO6LztnT/1IgzsFk7ouO2tP/WCCCwmTui07b0/9eIDbD5J540Xl7+p8MRH2YzH3ReXv6Xw16EvUk6kn8RKgn8X30JOpJ1JM4GD2JehJX/VV6EhfPX/F5PYmPoyfxPi/4WubGdCLiiCOOOOKII4444ogjjji7x9mYZUQaaaSRRhpppJFGGmmkkWY/NN/GbiKOOOKII4444ogjjjjiiDP/vP8OnsT/57d//C+//eXv/+W//uW3v/sf/93/pDZxW9rE3/7y3/70D7/93f/79+/N+z///Of/8nfv/x/2/j3n49u/24lC8bQHheLpyxSK59uP28NcbxGDYi718JLU40tSTy9JPb8k9fKS1OtLUm8vSV0IDoKxrzld7TXHq73mfLXXHLD2mhPWXnPE2mvOWHvNIWuvOWX9Naesv2iHveaU9decsg5O2fOqxEHwvCkxFvrkm533JMZCn7y75i2JsdAn7615R2Is9Mk7CxgSc6kvOVPP/rMA6BFzqS85Vs/+mwC4EXOpLzlZz/6DAIgRczvgJWfr2X8NACtiLvUlZ+vZfwrMKxEHocCImEt98rUCH2Iu9ckrC9gQc6lPXlnAhZhLffLKIibEYOxrTtez/yIgGsRg7GsO2LP/KCAOxGDsa87Ys/8uIALE4FZ4zSl79p8GxH4YjH3NKXv2XweqD1Ufqj78RKj68H1UH6o+VH04GNWHqg9X/VWqDxfPX/F51YePo/rwPi/4puXGDCHiiCOOOOKII4444ogjjji7x9mYOEQaaaSRRhpppJFGGmmkkWY/NN9GWCKOOOKII4444ogjjjjiiDP/PNWHf3u+rfrw35SH/8dvP//H//qP//5Pv/3Tv/yb/PD//of/9Nt/+K9/ff//899ddiNBPO9Bgnj+Mgniz5+ezkqYQjmHUM4xlHMK5ZxDOZdQzjWUcwvlLOwCKCjV6JaqdEt1uqVK3VKtbqlat1SvW6rYLdXsnmp2j93VqWb3VLP7qmY/L+1bRM1r+kBM+YbmVXwgpjz387o9EFOe+XmlHogpzzvQ5pGcUI/rNQZkeCQnVOV6hwHFHckJtbleYEBcR+7BUJ/r7QV0dCQn1Od6dc1L5hYxQCtHcsrXA9RxJKc87kAPR3LK4w4UcCSnPO5E84aCUo2uNxiRt6GgVKnrJUaUbCgo1et6jxHRGroZU82uVxnRp6GgVLPrbaYUbRdSNP+z/9n/7H/2P/uf/c/+Z/+z/9n/7H/2P/uf/c/+Z//zlv7zv/7483/77S9/+dN/+O3/+vv3/0NV+/GmFP/hL1GKfx+l+KtGKb5S/BWjFP/XUYr/6yjFXzlK8ZXi/81Rii+OOOKII4444ogjjjjiiCPOHpSS0kgjjTTSSCONNNJII400+6H5NipLccQRRxxxxBFHHHHEEUec+ef9d5Di/29/+sff/umf//Tnf/rPv/3zP6vE35YS/89/+f/+7n//j//xT//wp9/+6R/+9S7C/1oF/senf/kvj//v3//3f/uf9/SP/+X+P/79n//Dv77/z//0L//4n/+X/+H/B9kMmy8="
               },
               {
                  "name" : "annual_peak_electric_demand",
                  "units" : "kW",
                  "value" : 52.093170000000001
               },
               {
                  "name" : "first_year_capital_cost",
                  "units" : "$",
                  "value" : 0
               },
               {
                  "name" : "annual_utility_cost",
                  "units" : "$",
                  "value" : 18121.349999999999
               },
               {
                  "name" : "total_lifecycle_cost",
                  "units" : "$",
                  "value" : 310927.47999999998
               }
            ],
            "step_warnings" : []
         }
      }
   ],
   "updated_at" : "20170710T182830Z",
   "weather_file" : "USA_CO_Denver.Intl.AP.725650_TMY3.epw"
}
