{
   "completed_at" : "20170710T184657Z",
   "completed_status" : "Success",
   "created_at" : "2017-07-10 18:44:49 +0000",
   "current_step" : 5,
   "description" : "",
   "eplusout_err" : "Program Version,EnergyPlus, Version 8.7.0-78a111df4a, YMD=2017.07.10 18:45,IDD_Version 8.7.0\n   ************* IDF Context for following error/warning message:\n   ************* Note -- lines truncated at 300 characters, if necessary...\n   *************      5 Building,\n   ************* indicated Name=NECB 2011-RetailStandalone-NECB HDD Method-CAN_NF_Stephenville.718150_CWEC.epw created: 2017-07-10 18:44:55 +0000\n   ************* Only last 1 lines before error line shown.....\n   *************      6   NECB 2011-RetailStandalone-NECB HDD Method-CAN_NF_Stephenville.718150_CWEC.epw created: 2017-07-10 18:44:55 +0000, !- Name\n   ** Warning ** IP: IDF line~6 Alpha Argument length exceeds maximum, will be truncated=  NECB 2011-RetailStandalone-NECB HDD Method-CAN_NF_Stephenville.718150_CWEC.epw created: 2017-07-10 18:44:55 +000\n   **   ~~~   ** Will be processed as Alpha=NECB 2011-RETAILSTANDALONE-NECB HDD METHOD-CAN_NF_STEPHENVILLE.718150_CWEC.EPW CREATED: 2017-07-10 18:44:55 +0000\n   ************* Beginning Zone Sizing Calculations\n   ** Warning ** ProcessScheduleInput: Schedule:Day:Interval=\"ECONOMIZER MAX OA FRACTION 100 PCT DEFAULT\", Blank Schedule Type Limits Name input -- will not be validated.\n   ** Warning ** ProcessScheduleInput: Schedule:Day:Interval=\"SCHEDULE DAY 1\", Blank Schedule Type Limits Name input -- will not be validated.\n   ** Warning ** ProcessScheduleInput: Schedule:Day:Interval=\"SCHEDULE DAY 10\", Blank Schedule Type Limits Name input -- will not be validated.\n   ** Warning ** ProcessScheduleInput: Schedule:Day:Interval=\"SCHEDULE DAY 11\", Blank Schedule Type Limits Name input -- will not be validated.\n   ** Warning ** ProcessScheduleInput: Schedule:Day:Interval=\"SCHEDULE DAY 12\", Blank Schedule Type Limits Name input -- will not be validated.\n   ** Warning ** ProcessScheduleInput: Schedule:Day:Interval=\"SCHEDULE DAY 13\", Blank Schedule Type Limits Name input -- will not be validated.\n   ** Warning ** ProcessScheduleInput: Schedule:Day:Interval=\"SCHEDULE DAY 14\", Blank Schedule Type Limits Name input -- will not be validated.\n   ** Warning ** ProcessScheduleInput: Schedule:Day:Interval=\"SCHEDULE DAY 15\", Blank Schedule Type Limits Name input -- will not be validated.\n   ** Warning ** ProcessScheduleInput: Schedule:Day:Interval=\"SCHEDULE DAY 16\", Blank Schedule Type Limits Name input -- will not be validated.\n   ** Warning ** ProcessScheduleInput: Schedule:Day:Interval=\"SCHEDULE DAY 17\", Blank Schedule Type Limits Name input -- will not be validated.\n   ** Warning ** ProcessScheduleInput: Schedule:Day:Interval=\"SCHEDULE DAY 18\", Blank Schedule Type Limits Name input -- will not be validated.\n   ** Warning ** ProcessScheduleInput: Schedule:Day:Interval=\"SCHEDULE DAY 19\", Blank Schedule Type Limits Name input -- will not be validated.\n   ** Warning ** ProcessScheduleInput: Schedule:Day:Interval=\"SCHEDULE DAY 2\", Blank Schedule Type Limits Name input -- will not be validated.\n   ** Warning ** ProcessScheduleInput: Schedule:Day:Interval=\"SCHEDULE DAY 20\", Blank Schedule Type Limits Name input -- will not be validated.\n   ** Warning ** ProcessScheduleInput: Schedule:Day:Interval=\"SCHEDULE DAY 21\", Blank Schedule Type Limits Name input -- will not be validated.\n   ** Warning ** ProcessScheduleInput: Schedule:Day:Interval=\"SCHEDULE DAY 22\", Blank Schedule Type Limits Name input -- will not be validated.\n   ** Warning ** ProcessScheduleInput: Schedule:Day:Interval=\"SCHEDULE DAY 23\", Blank Schedule Type Limits Name input -- will not be validated.\n   ** Warning ** ProcessScheduleInput: Schedule:Day:Interval=\"SCHEDULE DAY 24\", Blank Schedule Type Limits Name input -- will not be validated.\n   ** Warning ** ProcessScheduleInput: Schedule:Day:Interval=\"SCHEDULE DAY 5\", Blank Schedule Type Limits Name input -- will not be validated.\n   ** Warning ** ProcessScheduleInput: Schedule:Day:Interval=\"SCHEDULE DAY 6\", Blank Schedule Type Limits Name input -- will not be validated.\n   ** Warning ** ProcessScheduleInput: Schedule:Day:Interval=\"SCHEDULE DAY 7\", Blank Schedule Type Limits Name input -- will not be validated.\n   ** Warning ** ProcessScheduleInput: Schedule:Day:Interval=\"SCHEDULE DAY 8\", Blank Schedule Type Limits Name input -- will not be validated.\n   ** Warning ** ProcessScheduleInput: Schedule:Day:Interval=\"SCHEDULE DAY 9\", Blank Schedule Type Limits Name input -- will not be validated.\n   ** Warning ** ProcessScheduleInput: Schedule:Year=\"ECONOMIZER MAX OA FRACTION 100 PCT\", Blank Schedule Type Limits Name input -- will not be validated.\n   ** Warning ** ProcessScheduleInput: Schedule:Year=\"SCHEDULE RULESET 10\", Blank Schedule Type Limits Name input -- will not be validated.\n   ** Warning ** ProcessScheduleInput: Schedule:Year=\"SCHEDULE RULESET 11\", Blank Schedule Type Limits Name input -- will not be validated.\n   ** Warning ** ProcessScheduleInput: Schedule:Year=\"SCHEDULE RULESET 12\", Blank Schedule Type Limits Name input -- will not be validated.\n   ** Warning ** ProcessScheduleInput: Schedule:Year=\"SCHEDULE RULESET 13\", Blank Schedule Type Limits Name input -- will not be validated.\n   ** Warning ** ProcessScheduleInput: Schedule:Year=\"SCHEDULE RULESET 14\", Blank Schedule Type Limits Name input -- will not be validated.\n   ** Warning ** ProcessScheduleInput: Schedule:Year=\"SCHEDULE RULESET 3\", Blank Schedule Type Limits Name input -- will not be validated.\n   ** Warning ** ProcessScheduleInput: Schedule:Year=\"SCHEDULE RULESET 4\", Blank Schedule Type Limits Name input -- will not be validated.\n   ** Warning ** ProcessScheduleInput: Schedule:Year=\"SCHEDULE RULESET 5\", Blank Schedule Type Limits Name input -- will not be validated.\n   ** Warning ** ProcessScheduleInput: Schedule:Year=\"SCHEDULE RULESET 6\", Blank Schedule Type Limits Name input -- will not be validated.\n   ** Warning ** ProcessScheduleInput: Schedule:Year=\"SCHEDULE RULESET 7\", Blank Schedule Type Limits Name input -- will not be validated.\n   ** Warning ** ProcessScheduleInput: Schedule:Year=\"SCHEDULE RULESET 8\", Blank Schedule Type Limits Name input -- will not be validated.\n   ** Warning ** ProcessScheduleInput: Schedule:Year=\"SCHEDULE RULESET 9\", Blank Schedule Type Limits Name input -- will not be validated.\n   ** Warning ** ProcessScheduleInput: Schedule:Constant=\"ALWAYS OFF DISCRETE\", Blank Schedule Type Limits Name input -- will not be validated.\n   ** Warning ** ProcessScheduleInput: Schedule:Constant=\"ALWAYS ON CONTINUOUS\", Blank Schedule Type Limits Name input -- will not be validated.\n   ** Warning ** CheckUsedConstructions: There are 25 nominally unused constructions in input.\n   **   ~~~   ** For explicit details on each unused construction, use Output:Diagnostics,DisplayExtraWarnings;\n   ** Severe  ** Problem in interior solar distribution calculation (CHKBKS)\n   **   ~~~   **    Solar Distribution = FullInteriorExterior will not work in Zone=SP-CORE_RETAIL SYS-3 FLR-1 SCH-C HPLCMT-EAST ZN\n   **   ~~~   **    because vertex 2 of back surface=CORE_RETAIL_WALL_EAST_1 is in front of receiving surface=CORE_RETAIL_ROOF\n   **   ~~~   **    (Dot Product indicator=459.6689)\n   **   ~~~   **    Check surface geometry; if OK, use Solar Distribution = FullExterior instead.\n   ** Severe  ** Problem in interior solar distribution calculation (CHKBKS)\n   **   ~~~   **    Solar Distribution = FullInteriorExterior will not work in Zone=SP-CORE_RETAIL SYS-3 FLR-1 SCH-C HPLCMT-EAST ZN\n   **   ~~~   **    because vertex 3 of back surface=CORE_RETAIL_WALL_EAST_1 is in front of receiving surface=CORE_RETAIL_ROOF\n   **   ~~~   **    (Dot Product indicator=459.6689)\n   **   ~~~   **    Check surface geometry; if OK, use Solar Distribution = FullExterior instead.\n   ** Severe  ** Problem in interior solar distribution calculation (CHKBKS)\n   **   ~~~   **    Solar Distribution = FullInteriorExterior will not work in Zone=SP-CORE_RETAIL SYS-3 FLR-1 SCH-C HPLCMT-EAST ZN\n   **   ~~~   **    because vertex 2 of back surface=CORE_RETAIL_WALL_EAST_2 is in front of receiving surface=CORE_RETAIL_ROOF\n   **   ~~~   **    (Dot Product indicator=459.6689)\n   **   ~~~   **    Check surface geometry; if OK, use Solar Distribution = FullExterior instead.\n   ** Severe  ** Problem in interior solar distribution calculation (CHKBKS)\n   **   ~~~   **    Solar Distribution = FullInteriorExterior will not work in Zone=SP-CORE_RETAIL SYS-3 FLR-1 SCH-C HPLCMT-EAST ZN\n   **   ~~~   **    because vertex 3 of back surface=CORE_RETAIL_WALL_EAST_2 is in front of receiving surface=CORE_RETAIL_ROOF\n   **   ~~~   **    (Dot Product indicator=459.6689)\n   **   ~~~   **    Check surface geometry; if OK, use Solar Distribution = FullExterior instead.\n   ** Severe  ** Problem in interior solar distribution calculation (CHKBKS)\n   **   ~~~   **    Solar Distribution = FullInteriorExterior will not work in Zone=SP-CORE_RETAIL SYS-3 FLR-1 SCH-C HPLCMT-EAST ZN\n   **   ~~~   **    because vertex 2 of back surface=CORE_RETAIL_WALL_NORTH is in front of receiving surface=CORE_RETAIL_ROOF\n   **   ~~~   **    (Dot Product indicator=459.6689)\n   **   ~~~   **    Check surface geometry; if OK, use Solar Distribution = FullExterior instead.\n   ** Severe  ** Problem in interior solar distribution calculation (CHKBKS)\n   **   ~~~   **    Solar Distribution = FullInteriorExterior will not work in Zone=SP-CORE_RETAIL SYS-3 FLR-1 SCH-C HPLCMT-EAST ZN\n   **   ~~~   **    because vertex 3 of back surface=CORE_RETAIL_WALL_NORTH is in front of receiving surface=CORE_RETAIL_ROOF\n   **   ~~~   **    (Dot Product indicator=459.6689)\n   **   ~~~   **    Check surface geometry; if OK, use Solar Distribution = FullExterior instead.\n   ** Severe  ** Problem in interior solar distribution calculation (CHKBKS)\n   **   ~~~   **    Solar Distribution = FullInteriorExterior will not work in Zone=SP-CORE_RETAIL SYS-3 FLR-1 SCH-C HPLCMT-EAST ZN\n   **   ~~~   **    because vertex 2 of back surface=CORE_RETAIL_WALL_SOUTH_1 is in front of receiving surface=CORE_RETAIL_ROOF\n   **   ~~~   **    (Dot Product indicator=459.6689)\n   **   ~~~   **    Check surface geometry; if OK, use Solar Distribution = FullExterior instead.\n   ** Severe  ** Problem in interior solar distribution calculation (CHKBKS)\n   **   ~~~   **    Solar Distribution = FullInteriorExterior will not work in Zone=SP-CORE_RETAIL SYS-3 FLR-1 SCH-C HPLCMT-EAST ZN\n   **   ~~~   **    because vertex 3 of back surface=CORE_RETAIL_WALL_SOUTH_1 is in front of receiving surface=CORE_RETAIL_ROOF\n   **   ~~~   **    (Dot Product indicator=459.6689)\n   **   ~~~   **    Check surface geometry; if OK, use Solar Distribution = FullExterior instead.\n   ** Severe  ** Problem in interior solar distribution calculation (CHKBKS)\n   **   ~~~   **    Solar Distribution = FullInteriorExterior will not work in Zone=SP-CORE_RETAIL SYS-3 FLR-1 SCH-C HPLCMT-EAST ZN\n   **   ~~~   **    because vertex 2 of back surface=CORE_RETAIL_WALL_SOUTH_2 is in front of receiving surface=CORE_RETAIL_ROOF\n   **   ~~~   **    (Dot Product indicator=459.6689)\n   **   ~~~   **    Check surface geometry; if OK, use Solar Distribution = FullExterior instead.\n   ** Severe  ** Problem in interior solar distribution calculation (CHKBKS)\n   **   ~~~   **    Solar Distribution = FullInteriorExterior will not work in Zone=SP-CORE_RETAIL SYS-3 FLR-1 SCH-C HPLCMT-EAST ZN\n   **   ~~~   **    because vertex 3 of back surface=CORE_RETAIL_WALL_SOUTH_2 is in front of receiving surface=CORE_RETAIL_ROOF\n   **   ~~~   **    (Dot Product indicator=459.6689)\n   **   ~~~   **    Check surface geometry; if OK, use Solar Distribution = FullExterior instead.\n   ** Severe  ** Problem in interior solar distribution calculation (CHKBKS)\n   **   ~~~   **    Solar Distribution = FullInteriorExterior will not work in Zone=SP-CORE_RETAIL SYS-3 FLR-1 SCH-C HPLCMT-EAST ZN\n   **   ~~~   **    because vertex 2 of back surface=CORE_RETAIL_WALL_SOUTH_3 is in front of receiving surface=CORE_RETAIL_ROOF\n   **   ~~~   **    (Dot Product indicator=459.6689)\n   **   ~~~   **    Check surface geometry; if OK, use Solar Distribution = FullExterior instead.\n   ** Severe  ** Problem in interior solar distribution calculation (CHKBKS)\n   **   ~~~   **    Solar Distribution = FullInteriorExterior will not work in Zone=SP-CORE_RETAIL SYS-3 FLR-1 SCH-C HPLCMT-EAST ZN\n   **   ~~~   **    because vertex 3 of back surface=CORE_RETAIL_WALL_SOUTH_3 is in front of receiving surface=CORE_RETAIL_ROOF\n   **   ~~~   **    (Dot Product indicator=459.6689)\n   **   ~~~   **    Check surface geometry; if OK, use Solar Distribution = FullExterior instead.\n   ** Severe  ** Problem in interior solar distribution calculation (CHKBKS)\n   **   ~~~   **    Solar Distribution = FullInteriorExterior will not work in Zone=SP-CORE_RETAIL SYS-3 FLR-1 SCH-C HPLCMT-EAST ZN\n   **   ~~~   **    because vertex 2 of back surface=CORE_RETAIL_WALL_WEST_1 is in front of receiving surface=CORE_RETAIL_ROOF\n   **   ~~~   **    (Dot Product indicator=459.6689)\n   **   ~~~   **    Check surface geometry; if OK, use Solar Distribution = FullExterior instead.\n   ** Severe  ** Problem in interior solar distribution calculation (CHKBKS)\n   **   ~~~   **    Solar Distribution = FullInteriorExterior will not work in Zone=SP-CORE_RETAIL SYS-3 FLR-1 SCH-C HPLCMT-EAST ZN\n   **   ~~~   **    because vertex 3 of back surface=CORE_RETAIL_WALL_WEST_1 is in front of receiving surface=CORE_RETAIL_ROOF\n   **   ~~~   **    (Dot Product indicator=459.6689)\n   **   ~~~   **    Check surface geometry; if OK, use Solar Distribution = FullExterior instead.\n   ** Severe  ** Problem in interior solar distribution calculation (CHKBKS)\n   **   ~~~   **    Solar Distribution = FullInteriorExterior will not work in Zone=SP-CORE_RETAIL SYS-3 FLR-1 SCH-C HPLCMT-EAST ZN\n   **   ~~~   **    because vertex 2 of back surface=CORE_RETAIL_WALL_WEST_2 is in front of receiving surface=CORE_RETAIL_ROOF\n   **   ~~~   **    (Dot Product indicator=459.6689)\n   **   ~~~   **    Check surface geometry; if OK, use Solar Distribution = FullExterior instead.\n   ** Severe  ** Problem in interior solar distribution calculation (CHKBKS)\n   **   ~~~   **    Solar Distribution = FullInteriorExterior will not work in Zone=SP-CORE_RETAIL SYS-3 FLR-1 SCH-C HPLCMT-EAST ZN\n   **   ~~~   **    because vertex 3 of back surface=CORE_RETAIL_WALL_WEST_2 is in front of receiving surface=CORE_RETAIL_ROOF\n   **   ~~~   **    (Dot Product indicator=459.6689)\n   **   ~~~   **    Check surface geometry; if OK, use Solar Distribution = FullExterior instead.\n   ** Severe  ** Problem in interior solar distribution calculation (CHKBKS)\n   **   ~~~   **    Solar Distribution = FullInteriorExterior will not work in Zone=SP-CORE_RETAIL SYS-3 FLR-1 SCH-C HPLCMT-EAST ZN\n   **   ~~~   **    because vertex 1 of back surface=CORE_RETAIL_FLOOR is in front of receiving surface=CORE_RETAIL_ROOF\n   **   ~~~   **    (Dot Product indicator=459.6689)\n   **   ~~~   **    Check surface geometry; if OK, use Solar Distribution = FullExterior instead.\n   ** Severe  ** Problem in interior solar distribution calculation (CHKBKS)\n   **   ~~~   **    Solar Distribution = FullInteriorExterior will not work in Zone=SP-CORE_RETAIL SYS-3 FLR-1 SCH-C HPLCMT-EAST ZN\n   **   ~~~   **    because vertex 2 of back surface=CORE_RETAIL_FLOOR is in front of receiving surface=CORE_RETAIL_ROOF\n   **   ~~~   **    (Dot Product indicator=459.6689)\n   **   ~~~   **    Check surface geometry; if OK, use Solar Distribution = FullExterior instead.\n   ** Severe  ** Problem in interior solar distribution calculation (CHKBKS)\n   **   ~~~   **    Solar Distribution = FullInteriorExterior will not work in Zone=SP-CORE_RETAIL SYS-3 FLR-1 SCH-C HPLCMT-EAST ZN\n   **   ~~~   **    because vertex 3 of back surface=CORE_RETAIL_FLOOR is in front of receiving surface=CORE_RETAIL_ROOF\n   **   ~~~   **    (Dot Product indicator=459.6689)\n   **   ~~~   **    Check surface geometry; if OK, use Solar Distribution = FullExterior instead.\n   ** Severe  ** Problem in interior solar distribution calculation (CHKBKS)\n   **   ~~~   **    Solar Distribution = FullInteriorExterior will not work in Zone=SP-CORE_RETAIL SYS-3 FLR-1 SCH-C HPLCMT-EAST ZN\n   **   ~~~   **    because vertex 4 of back surface=CORE_RETAIL_FLOOR is in front of receiving surface=CORE_RETAIL_ROOF\n   **   ~~~   **    (Dot Product indicator=459.6689)\n   **   ~~~   **    Check surface geometry; if OK, use Solar Distribution = FullExterior instead.\n   ** Severe  ** Problem in interior solar distribution calculation (CHKBKS)\n   **   ~~~   **    Solar Distribution = FullInteriorExterior will not work in Zone=SP-CORE_RETAIL SYS-3 FLR-1 SCH-C HPLCMT-EAST ZN\n   **   ~~~   **    because vertex 5 of back surface=CORE_RETAIL_FLOOR is in front of receiving surface=CORE_RETAIL_ROOF\n   **   ~~~   **    (Dot Product indicator=459.6689)\n   **   ~~~   **    Check surface geometry; if OK, use Solar Distribution = FullExterior instead.\n   ** Severe  ** Problem in interior solar distribution calculation (CHKBKS)\n   **   ~~~   **    Solar Distribution = FullInteriorExterior will not work in Zone=SP-CORE_RETAIL SYS-3 FLR-1 SCH-C HPLCMT-EAST ZN\n   **   ~~~   **    because vertex 6 of back surface=CORE_RETAIL_FLOOR is in front of receiving surface=CORE_RETAIL_ROOF\n   **   ~~~   **    (Dot Product indicator=459.6689)\n   **   ~~~   **    Check surface geometry; if OK, use Solar Distribution = FullExterior instead.\n   ** Severe  ** Problem in interior solar distribution calculation (CHKBKS)\n   **   ~~~   **    Solar Distribution = FullInteriorExterior will not work in Zone=SP-CORE_RETAIL SYS-3 FLR-1 SCH-C HPLCMT-EAST ZN\n   **   ~~~   **    because vertex 7 of back surface=CORE_RETAIL_FLOOR is in front of receiving surface=CORE_RETAIL_ROOF\n   **   ~~~   **    (Dot Product indicator=459.6689)\n   **   ~~~   **    Check surface geometry; if OK, use Solar Distribution = FullExterior instead.\n   ** Severe  ** Problem in interior solar distribution calculation (CHKBKS)\n   **   ~~~   **    Solar Distribution = FullInteriorExterior will not work in Zone=SP-CORE_RETAIL SYS-3 FLR-1 SCH-C HPLCMT-EAST ZN\n   **   ~~~   **    because vertex 8 of back surface=CORE_RETAIL_FLOOR is in front of receiving surface=CORE_RETAIL_ROOF\n   **   ~~~   **    (Dot Product indicator=459.6689)\n   **   ~~~   **    Check surface geometry; if OK, use Solar Distribution = FullExterior instead.\n   ************* Beginning System Sizing Calculations\n   ************* Beginning Plant Sizing Calculations\n   ** Warning ** GetDXCoils: Coil:Cooling:DX:SingleSpeed=\"COIL COOLING DX SINGLE SPEED 5 46KBTU/HR 14.0SEER\", invalid\n   **   ~~~   ** ...Part Load Fraction Correlation Curve Name = DXCOOL-NECB2011-REF-COOLPLFFPLR 4 has out of range value.\n   **   ~~~   ** ...Curve maximum must be <= 1.0, curve max at PLR = 0.99 is 1.015\n   **   ~~~   ** ...Setting curve maximum to 1.0 and simulation continues.\n   ** Warning ** GetDXCoils: Coil:Cooling:DX:SingleSpeed=\"COIL COOLING DX SINGLE SPEED 1 209KBTU/HR 9.7EER\", invalid\n   **   ~~~   ** ...Part Load Fraction Correlation Curve Name = DXCOOL-NECB2011-REF-COOLPLFFPLR has out of range value.\n   **   ~~~   ** ...Curve maximum must be <= 1.0, curve max at PLR = 0.99 is 1.015\n   **   ~~~   ** ...Setting curve maximum to 1.0 and simulation continues.\n   ** Warning ** GetDXCoils: Coil:Cooling:DX:SingleSpeed=\"COIL COOLING DX SINGLE SPEED 2 11KBTU/HR 14.0SEER\", invalid\n   **   ~~~   ** ...Part Load Fraction Correlation Curve Name = DXCOOL-NECB2011-REF-COOLPLFFPLR 1 has out of range value.\n   **   ~~~   ** ...Curve maximum must be <= 1.0, curve max at PLR = 0.99 is 1.015\n   **   ~~~   ** ...Setting curve maximum to 1.0 and simulation continues.\n   ** Warning ** GetDXCoils: Coil:Cooling:DX:SingleSpeed=\"COIL COOLING DX SINGLE SPEED 4 61KBTU/HR 14.0SEER\", invalid\n   **   ~~~   ** ...Part Load Fraction Correlation Curve Name = DXCOOL-NECB2011-REF-COOLPLFFPLR 3 has out of range value.\n   **   ~~~   ** ...Curve maximum must be <= 1.0, curve max at PLR = 0.99 is 1.015\n   **   ~~~   ** ...Setting curve maximum to 1.0 and simulation continues.\n   ** Warning ** GetDXCoils: Coil:Cooling:DX:SingleSpeed=\"COIL COOLING DX SINGLE SPEED 3 61KBTU/HR 14.0SEER\", invalid\n   **   ~~~   ** ...Part Load Fraction Correlation Curve Name = DXCOOL-NECB2011-REF-COOLPLFFPLR 2 has out of range value.\n   **   ~~~   ** ...Curve maximum must be <= 1.0, curve max at PLR = 0.99 is 1.015\n   **   ~~~   ** ...Setting curve maximum to 1.0 and simulation continues.\n   ** Warning ** The Standard Ratings is calculated for Coil:Cooling:DX:SingleSpeed = COIL COOLING DX SINGLE SPEED 5 46KBTU/HR 14.0SEER but not at the AHRI test condition due to curve out of bound.\n   **   ~~~   **  Review the Standard Ratings calculations in the Engineering Reference for this coil type. Also, use Output:Diagnostics, DisplayExtraWarnings for further guidance.\n   ** Warning ** The Standard Ratings is calculated for Coil:Cooling:DX:SingleSpeed = COIL COOLING DX SINGLE SPEED 1 209KBTU/HR 9.7EER but not at the AHRI test condition due to curve out of bound.\n   **   ~~~   **  Review the Standard Ratings calculations in the Engineering Reference for this coil type. Also, use Output:Diagnostics, DisplayExtraWarnings for further guidance.\n   ** Warning ** The Standard Ratings is calculated for Coil:Cooling:DX:SingleSpeed = COIL COOLING DX SINGLE SPEED 2 11KBTU/HR 14.0SEER but not at the AHRI test condition due to curve out of bound.\n   **   ~~~   **  Review the Standard Ratings calculations in the Engineering Reference for this coil type. Also, use Output:Diagnostics, DisplayExtraWarnings for further guidance.\n   ** Warning ** The Standard Ratings is calculated for Coil:Cooling:DX:SingleSpeed = COIL COOLING DX SINGLE SPEED 4 61KBTU/HR 14.0SEER but not at the AHRI test condition due to curve out of bound.\n   **   ~~~   **  Review the Standard Ratings calculations in the Engineering Reference for this coil type. Also, use Output:Diagnostics, DisplayExtraWarnings for further guidance.\n   ** Warning ** The Standard Ratings is calculated for Coil:Cooling:DX:SingleSpeed = COIL COOLING DX SINGLE SPEED 3 61KBTU/HR 14.0SEER but not at the AHRI test condition due to curve out of bound.\n   **   ~~~   **  Review the Standard Ratings calculations in the Engineering Reference for this coil type. Also, use Output:Diagnostics, DisplayExtraWarnings for further guidance.\n   ** Warning ** Check input. Pump nominal power or motor efficiency is set to 0, for pump=SERVICE WATER LOOP PUMP\n   ** Warning ** Output:Meter: invalid Name=\"GAS:FACILITY\" - not found.\n   ** Warning ** Output:Meter: invalid Name=\"DISTRICTCOOLING:FACILITY\" - not found.\n   ** Warning ** Output:Meter: invalid Name=\"DISTRICTHEATING:FACILITY\" - not found.\n   ** Warning ** Output:Meter:MeterFileOnly: invalid Name=\"GAS:FACILITY\" - not found.\n   ** Warning ** Output:Meter:MeterFileOnly: invalid Name=\"GAS:FACILITY\" - not found.\n   ** Warning ** Output:Meter:MeterFileOnly requested for \"Electricity:Facility\" (TimeStep), already on \"Output:Meter\". Will report to both eplusout.eso and eplusout.mtr\n   ************* Testing Individual Branch Integrity\n   ************* All Branches passed integrity testing\n   ************* Testing Individual Supply Air Path Integrity\n   ************* All Supply Air Paths passed integrity testing\n   ************* Testing Individual Return Air Path Integrity\n   ************* All Return Air Paths passed integrity testing\n   ************* No node connection errors were found.\n   ************* Beginning Simulation\n   ** Warning ** GetInputEconomicsTariff: UtilityCost:Tariff=\"NONEGAS\" missing meter\n   **   ~~~   ** Meter referenced is not present due to a lack of equipment that uses that energy source/meter:\"GAS:FACILITY\".\n   ** Warning ** CalcDoe2DXCoil: Coil:Cooling:DX:SingleSpeed \"COIL COOLING DX SINGLE SPEED 4 61KBTU/HR 14.0SEER\" - Air-cooled condenser inlet dry-bulb temperature below 0 C. Outdoor dry-bulb temperature = -1.58\n   **   ~~~   **  ... Occurrence info = RUN PERIOD 1, 01/01 09:03 - 09:06\n   **   ~~~   ** ... Operation at low ambient temperatures may require special performance curves.\n   ** Warning ** CalcDoe2DXCoil: Coil:Cooling:DX:SingleSpeed \"COIL COOLING DX SINGLE SPEED 3 61KBTU/HR 14.0SEER\" - Air-cooled condenser inlet dry-bulb temperature below 0 C. Outdoor dry-bulb temperature = -1.58\n   **   ~~~   **  ... Occurrence info = RUN PERIOD 1, 01/01 09:03 - 09:06\n   **   ~~~   ** ... Operation at low ambient temperatures may require special performance curves.\n   ** Warning ** CalcDoe2DXCoil: Coil:Cooling:DX:SingleSpeed \"COIL COOLING DX SINGLE SPEED 2 11KBTU/HR 14.0SEER\" - Full load outlet air dry-bulb temperature < 2C. This indicates the possibility of coil frost/freeze. Outlet temperature = 1.63 C.\n   **   ~~~   **  ...Occurrence info = RUN PERIOD 1, 01/01 19:15 - 19:19\n   **   ~~~   ** ... Possible reasons for low outlet air dry-bulb temperatures are: This DX coil\n   **   ~~~   **    1) may have a low inlet air dry-bulb temperature. Inlet air temperature = 14.228 C.\n   **   ~~~   **    2) may have a low air flow rate per watt of cooling capacity. Check inputs.\n   **   ~~~   **    3) is used as part of a HX assisted cooling coil which uses a high sensible effectiveness. Check inputs.\n   ** Warning ** CalcDoe2DXCoil: Coil:Cooling:DX:SingleSpeed \"COIL COOLING DX SINGLE SPEED 5 46KBTU/HR 14.0SEER\" - Air-cooled condenser inlet dry-bulb temperature below 0 C. Outdoor dry-bulb temperature = -0.80\n   **   ~~~   **  ... Occurrence info = RUN PERIOD 1, 01/02 07:05 - 07:08\n   **   ~~~   ** ... Operation at low ambient temperatures may require special performance curves.\n   ** Warning ** CalcDoe2DXCoil: Coil:Cooling:DX:SingleSpeed \"COIL COOLING DX SINGLE SPEED 2 11KBTU/HR 14.0SEER\" - Air-cooled condenser inlet dry-bulb temperature below 0 C. Outdoor dry-bulb temperature = -3.20\n   **   ~~~   **  ... Occurrence info = RUN PERIOD 1, 01/12 21:15 - 21:18\n   **   ~~~   ** ... Operation at low ambient temperatures may require special performance curves.\n   ** Warning ** CalcDoe2DXCoil: Coil:Cooling:DX:SingleSpeed \"COIL COOLING DX SINGLE SPEED 5 46KBTU/HR 14.0SEER\" - Full load outlet air dry-bulb temperature < 2C. This indicates the possibility of coil frost/freeze. Outlet temperature = 1.83 C.\n   **   ~~~   **  ...Occurrence info = RUN PERIOD 1, 02/04 09:04 - 09:06\n   **   ~~~   ** ... Possible reasons for low outlet air dry-bulb temperatures are: This DX coil\n   **   ~~~   **    1) may have a low inlet air dry-bulb temperature. Inlet air temperature = 14.878 C.\n   **   ~~~   **    2) may have a low air flow rate per watt of cooling capacity. Check inputs.\n   **   ~~~   **    3) is used as part of a HX assisted cooling coil which uses a high sensible effectiveness. Check inputs.\n   ************* Simulation Error Summary *************\n   ************* There are 9 unused schedules in input.\n   ************* There are 9 unused week schedules in input.\n   ************* There are 20 unused day schedules in input.\n   ************* Use Output:Diagnostics,DisplayUnusedSchedules; to see them.\n   *************\n   ************* ===== Recurring Error Summary =====\n   ************* The following recurring error messages occurred.\n   *************\n   *************  ** Warning ** CalcDoe2DXCoil: Coil:Cooling:DX:SingleSpeed=\"COIL COOLING DX SINGLE SPEED 4 61KBTU/HR 14.0SEER\" - Low condenser dry-bulb temperature error continues...\n   *************  **   ~~~   **   This error occurred 942 total times;\n   *************  **   ~~~   **   during Warmup 0 times;\n   *************  **   ~~~   **   during Sizing 0 times.\n   *************  **   ~~~   **   Max=-2.775558E-017 [C]  Min=-20.6 [C]\n   *************\n   *************  ** Warning ** CalcDoe2DXCoil: Coil:Cooling:DX:SingleSpeed=\"COIL COOLING DX SINGLE SPEED 3 61KBTU/HR 14.0SEER\" - Low condenser dry-bulb temperature error continues...\n   *************  **   ~~~   **   This error occurred 938 total times;\n   *************  **   ~~~   **   during Warmup 0 times;\n   *************  **   ~~~   **   during Sizing 0 times.\n   *************  **   ~~~   **   Max=-2.775558E-017 [C]  Min=-20.6 [C]\n   *************\n   *************  ** Warning ** CalcDoe2DXCoil: Coil:Cooling:DX:SingleSpeed=\"COIL COOLING DX SINGLE SPEED 2 11KBTU/HR 14.0SEER\" - Full load outlet temperature indicates a possibility of frost/freeze error continues. Outlet air temperature statistics follow:\n   *************  **   ~~~   **   This error occurred 81 total times;\n   *************  **   ~~~   **   during Warmup 0 times;\n   *************  **   ~~~   **   during Sizing 0 times.\n   *************  **   ~~~   **   Max=1.955838  Min=-0.110051\n   *************\n   *************  ** Warning ** CalcDoe2DXCoil: Coil:Cooling:DX:SingleSpeed=\"COIL COOLING DX SINGLE SPEED 5 46KBTU/HR 14.0SEER\" - Low condenser dry-bulb temperature error continues...\n   *************  **   ~~~   **   This error occurred 202 total times;\n   *************  **   ~~~   **   during Warmup 0 times;\n   *************  **   ~~~   **   during Sizing 0 times.\n   *************  **   ~~~   **   Max=-0.1 [C]  Min=-16.075 [C]\n   *************\n   *************  ** Warning ** CalcDoe2DXCoil: Coil:Cooling:DX:SingleSpeed=\"COIL COOLING DX SINGLE SPEED 2 11KBTU/HR 14.0SEER\" - Low condenser dry-bulb temperature error continues...\n   *************  **   ~~~   **   This error occurred 395 total times;\n   *************  **   ~~~   **   during Warmup 0 times;\n   *************  **   ~~~   **   during Sizing 0 times.\n   *************  **   ~~~   **   Max=-5.000000E-002 [C]  Min=-11.425 [C]\n   *************\n   *************  ** Warning ** CalcDoe2DXCoil: Coil:Cooling:DX:SingleSpeed=\"COIL COOLING DX SINGLE SPEED 5 46KBTU/HR 14.0SEER\" - Full load outlet temperature indicates a possibility of frost/freeze error continues. Outlet air temperature statistics follow:\n   *************  **   ~~~   **   This error occurred 1 total times;\n   *************  **   ~~~   **   during Warmup 0 times;\n   *************  **   ~~~   **   during Sizing 0 times.\n   *************  **   ~~~   **   Max=1.826031  Min=1.826031\n   *************\n   *************\n   ************* ===== Final Error Summary =====\n   ************* The following error categories occurred.  Consider correcting or noting.\n   ************* Nominally Unused Constructions\n   ************* ..The nominally unused constructions warning is provided to alert you to potential conditions that can cause\n   ************* ..extra time during simulation. Each construction is calculated by the algorithm indicated in the HeatBalanceAlgorithm\n   ************* ..object. You may remove the constructions indicated (when you use the DisplayExtraWarnings option).\n   *************\n   ************* EnergyPlus Warmup Error Summary. During Warmup: 0 Warning; 0 Severe Errors.\n   ************* EnergyPlus Sizing Error Summary. During Sizing: 39 Warning; 24 Severe Errors.\n   ************* EnergyPlus Completed Successfully-- 2617 Warning; 24 Severe Errors; Elapsed Time=00hr 00min 38.98sec\n",
   "file_format_version" : "0.0.1",
   "file_paths" : [ "../weather", "../seeds", "../seed" ],
   "hash" : "6E6C1C6D",
   "measure_paths" : [ "../measures" ],
   "name" : "LHS Autogenerated 374",
   "osa_id" : "4fef0e0f-5396-4c55-a6e1-2cd6803db3ab",
   "osd_id" : "b1fe5f8a-9de3-49f6-8423-91595f589905",
   "run_directory" : "./run",
   "seed_file" : "seed.osm",
   "started_at" : "20170710T184452Z",
   "steps" : [
      {
         "arguments" : {
            "__SKIP__" : false,
            "building_type" : "RetailStandalone",
            "climate_zone" : "NECB HDD Method",
            "epw_file" : "CAN_NF_Stephenville.718150_CWEC.epw",
            "template" : "NECB 2011"
         },
         "measure_dir_name" : "create_prototype_building",
         "name" : "create_prototype_building",
         "result" : {
            "completed_at" : "20170710T184546Z",
            "measure_class_name" : "CreatePrototypeBuilding",
            "measure_display_name" : "Create Prototype Building",
            "measure_name" : "create_prototype_building",
            "measure_taxonomy" : "Whole Building.Space Types",
            "measure_type" : "ModelMeasure",
            "measure_uid" : "ae90fsd7-a651-467a-bc8d-29d310b0f937",
            "measure_version_id" : "c6ec5c18-5595-459f-a082-09a19c8c869c",
            "measure_version_modified" : "20170519T182315Z",
            "measure_xml_checksum" : "057E8D9D",
            "started_at" : "20170710T184454Z",
            "stderr" : "",
            "stdout" : "[OpenStudio.Measure] <0> OSArgumentVector is deprecated, use OpenStudio::Measure::OSArgumentVector instead.\n[openstudio.EpwFile] <0> Successive data points (1988-Jan-31 to 1985-Feb-01, ending on line 753) are greater than 1 day apart in EPW file '/usr/local/bundle/bundler/gems/openstudio-standards-f448df66933d/openstudio-standards/data/weather/CAN_NF_Stephenville.718150_CWEC.epw'. Data will be treated as typical (TMY)\n[openstudio.setFileExtension] <0> Path p, '/usr/local/bundle/bundler/gems/openstudio-standards-f448df66933d/openstudio-standards/data/weather/CAN_NF_Stephenville.718150_CWEC.ddy', has an unexpected file extension. Was expecting 'idf'.\n[openstudio.model.YearDescription] <1> 'UseWeatherFile' is not yet a supported option for YearDescription\n[openstudio.model.YearDescription] <1> 'UseWeatherFile' is not yet a supported option for YearDescription\n[openstudio.setFileExtension] <0> Path p, '/usr/local/bundle/bundler/gems/openstudio-standards-f448df66933d/openstudio-standards/data/weather/CAN_NF_Stephenville.718150_CWEC.ddy', has an unexpected file extension. Was expecting 'idf'.\n[openstudio.model.YearDescription] <1> 'UseWeatherFile' is not yet a supported option for YearDescription\n[openstudio.model.YearDescription] <1> 'UseWeatherFile' is not yet a supported option for YearDescription\n[openstudio.EpwFile] <0> Successive data points (1988-Jan-31 to 1985-Feb-01, ending on line 753) are greater than 1 day apart in EPW file '/usr/local/bundle/bundler/gems/openstudio-standards-f448df66933d/openstudio-standards/data/weather/CAN_NF_Stephenville.718150_CWEC.epw'. Data will be treated as typical (TMY)\n[openstudio.weather.Model] <0> Could not find ground temperatures; will use generic temperatures, which will skew results.\n[openstudio.setFileExtension] <0> Path p, '/usr/local/bundle/bundler/gems/openstudio-standards-f448df66933d/openstudio-standards/data/weather/CAN_NF_Stephenville.718150_CWEC.ddy', has an unexpected file extension. Was expecting 'idf'.\n[openstudio.model.YearDescription] <1> 'UseWeatherFile' is not yet a supported option for YearDescription\n[openstudio.model.YearDescription] <1> 'UseWeatherFile' is not yet a supported option for YearDescription\n[openstudio.EpwFile] <0> Successive data points (1988-Jan-31 to 1985-Feb-01, ending on line 753) are greater than 1 day apart in EPW file '/usr/local/bundle/bundler/gems/openstudio-standards-f448df66933d/openstudio-standards/data/weather/CAN_NF_Stephenville.718150_CWEC.epw'. Data will be treated as typical (TMY)\n[openstudio.setFileExtension] <0> Path p, '/usr/local/bundle/bundler/gems/openstudio-standards-f448df66933d/openstudio-standards/data/weather/CAN_NF_Stephenville.718150_CWEC.ddy', has an unexpected file extension. Was expecting 'idf'.\n[openstudio.model.YearDescription] <1> 'UseWeatherFile' is not yet a supported option for YearDescription\n[openstudio.model.YearDescription] <1> 'UseWeatherFile' is not yet a supported option for YearDescription\n[openstudio.setFileExtension] <0> Path p, '/usr/local/bundle/bundler/gems/openstudio-standards-f448df66933d/openstudio-standards/data/weather/CAN_NF_Stephenville.718150_CWEC.ddy', has an unexpected file extension. Was expecting 'idf'.\n[openstudio.model.YearDescription] <1> 'UseWeatherFile' is not yet a supported option for YearDescription\n[openstudio.model.YearDescription] <1> 'UseWeatherFile' is not yet a supported option for YearDescription\n[openstudio.EpwFile] <0> Successive data points (1988-Jan-31 to 1985-Feb-01, ending on line 753) are greater than 1 day apart in EPW file '/usr/local/bundle/bundler/gems/openstudio-standards-f448df66933d/openstudio-standards/data/weather/CAN_NF_Stephenville.718150_CWEC.epw'. Data will be treated as typical (TMY)\n[openstudio.setFileExtension] <0> Path p, '/usr/local/bundle/bundler/gems/openstudio-standards-f448df66933d/openstudio-standards/data/weather/CAN_NF_Stephenville.718150_CWEC.ddy', has an unexpected file extension. Was expecting 'idf'.\n[openstudio.model.YearDescription] <1> 'UseWeatherFile' is not yet a supported option for YearDescription\n[openstudio.model.YearDescription] <1> 'UseWeatherFile' is not yet a supported option for YearDescription\n[openstudio.setFileExtension] <0> Path p, '/usr/local/bundle/bundler/gems/openstudio-standards-f448df66933d/openstudio-standards/data/weather/CAN_NF_Stephenville.718150_CWEC.ddy', has an unexpected file extension. Was expecting 'idf'.\n[openstudio.model.YearDescription] <1> 'UseWeatherFile' is not yet a supported option for YearDescription\n[openstudio.model.YearDescription] <1> 'UseWeatherFile' is not yet a supported option for YearDescription\n[utilities.idf.WorkspaceObject] <0> Object of type 'Schedule:Constant' and named 'Always Off Discrete', points to an object named OnOff 1 from field 1, but that object cannot be located.\n[utilities.idf.WorkspaceObject] <0> Object of type 'Schedule:Constant' and named 'Always On Continuous', points to an object named Fractional 1 from field 1, but that object cannot be located.\n[openstudio.model.Model] <0> The run completed but had the following severe errors: Problem in interior solar distribution calculation (CHKBKS)     Solar Distribution = FullInteriorExterior will not work in Zone=CORE_RETAIL ZN     because vertex 2 of back surface=CORE_RETAIL_WALL_EAST_1 is in front of receiving surface=CORE_RETAIL_ROOF     (Dot Product indicator=459.6689)     Check surface geometry; if OK, use Solar Distribution = FullExterior instead.\\nProblem in interior solar distribution calculation (CHKBKS)     Solar Distribution = FullInteriorExterior will not work in Zone=CORE_RETAIL ZN     because vertex 3 of back surface=CORE_RETAIL_WALL_EAST_1 is in front of receiving surface=CORE_RETAIL_ROOF     (Dot Product indicator=459.6689)     Check surface geometry; if OK, use Solar Distribution = FullExterior instead.\\nProblem in interior solar distribution calculation (CHKBKS)     Solar Distribution = FullInteriorExterior will not work in Zone=CORE_RETAIL ZN     because vertex 2 of back surface=CORE_RETAIL_WALL_EAST_2 is in front of receiving surface=CORE_RETAIL_ROOF     (Dot Product indicator=459.6689)     Check surface geometry; if OK, use Solar Distribution = FullExterior instead.\\nProblem in interior solar distribution calculation (CHKBKS)     Solar Distribution = FullInteriorExterior will not work in Zone=CORE_RETAIL ZN     because vertex 3 of back surface=CORE_RETAIL_WALL_EAST_2 is in front of receiving surface=CORE_RETAIL_ROOF     (Dot Product indicator=459.6689)     Check surface geometry; if OK, use Solar Distribution = FullExterior instead.\\nProblem in interior solar distribution calculation (CHKBKS)     Solar Distribution = FullInteriorExterior will not work in Zone=CORE_RETAIL ZN     because vertex 2 of back surface=CORE_RETAIL_WALL_NORTH is in front of receiving surface=CORE_RETAIL_ROOF     (Dot Product indicator=459.6689)     Check surface geometry; if OK, use Solar Distribution = FullExterior instead.\\nProblem in interior solar distribution calculation (CHKBKS)     Solar Distribution = FullInteriorExterior will not work in Zone=CORE_RETAIL ZN     because vertex 3 of back surface=CORE_RETAIL_WALL_NORTH is in front of receiving surface=CORE_RETAIL_ROOF     (Dot Product indicator=459.6689)     Check surface geometry; if OK, use Solar Distribution = FullExterior instead.\\nProblem in interior solar distribution calculation (CHKBKS)     Solar Distribution = FullInteriorExterior will not work in Zone=CORE_RETAIL ZN     because vertex 2 of back surface=CORE_RETAIL_WALL_SOUTH_1 is in front of receiving surface=CORE_RETAIL_ROOF     (Dot Product indicator=459.6689)     Check surface geometry; if OK, use Solar Distribution = FullExterior instead.\\nProblem in interior solar distribution calculation (CHKBKS)     Solar Distribution = FullInteriorExterior will not work in Zone=CORE_RETAIL ZN     because vertex 3 of back surface=CORE_RETAIL_WALL_SOUTH_1 is in front of receiving surface=CORE_RETAIL_ROOF     (Dot Product indicator=459.6689)     Check surface geometry; if OK, use Solar Distribution = FullExterior instead.\\nProblem in interior solar distribution calculation (CHKBKS)     Solar Distribution = FullInteriorExterior will not work in Zone=CORE_RETAIL ZN     because vertex 2 of back surface=CORE_RETAIL_WALL_SOUTH_2 is in front of receiving surface=CORE_RETAIL_ROOF     (Dot Product indicator=459.6689)     Check surface geometry; if OK, use Solar Distribution = FullExterior instead.\\nProblem in interior solar distribution calculation (CHKBKS)     Solar Distribution = FullInteriorExterior will not work in Zone=CORE_RETAIL ZN     because vertex 3 of back surface=CORE_RETAIL_WALL_SOUTH_2 is in front of receiving surface=CORE_RETAIL_ROOF     (Dot Product indicator=459.6689)     Check surface geometry; if OK, use Solar Distribution = FullExterior instead.\\nProblem in interior solar distribution calculation (CHKBKS)     Solar Distribution = FullInteriorExterior will not work in Zone=CORE_RETAIL ZN     because vertex 2 of back surface=CORE_RETAIL_WALL_SOUTH_3 is in front of receiving surface=CORE_RETAIL_ROOF     (Dot Product indicator=459.6689)     Check surface geometry; if OK, use Solar Distribution = FullExterior instead.\\nProblem in interior solar distribution calculation (CHKBKS)     Solar Distribution = FullInteriorExterior will not work in Zone=CORE_RETAIL ZN     because vertex 3 of back surface=CORE_RETAIL_WALL_SOUTH_3 is in front of receiving surface=CORE_RETAIL_ROOF     (Dot Product indicator=459.6689)     Check surface geometry; if OK, use Solar Distribution = FullExterior instead.\\nProblem in interior solar distribution calculation (CHKBKS)     Solar Distribution = FullInteriorExterior will not work in Zone=CORE_RETAIL ZN     because vertex 2 of back surface=CORE_RETAIL_WALL_WEST_1 is in front of receiving surface=CORE_RETAIL_ROOF     (Dot Product indicator=459.6689)     Check surface geometry; if OK, use Solar Distribution = FullExterior instead.\\nProblem in interior solar distribution calculation (CHKBKS)     Solar Distribution = FullInteriorExterior will not work in Zone=CORE_RETAIL ZN     because vertex 3 of back surface=CORE_RETAIL_WALL_WEST_1 is in front of receiving surface=CORE_RETAIL_ROOF     (Dot Product indicator=459.6689)     Check surface geometry; if OK, use Solar Distribution = FullExterior instead.\\nProblem in interior solar distribution calculation (CHKBKS)     Solar Distribution = FullInteriorExterior will not work in Zone=CORE_RETAIL ZN     because vertex 2 of back surface=CORE_RETAIL_WALL_WEST_2 is in front of receiving surface=CORE_RETAIL_ROOF     (Dot Product indicator=459.6689)     Check surface geometry; if OK, use Solar Distribution = FullExterior instead.\\nProblem in interior solar distribution calculation (CHKBKS)     Solar Distribution = FullInteriorExterior will not work in Zone=CORE_RETAIL ZN     because vertex 3 of back surface=CORE_RETAIL_WALL_WEST_2 is in front of receiving surface=CORE_RETAIL_ROOF     (Dot Product indicator=459.6689)     Check surface geometry; if OK, use Solar Distribution = FullExterior instead.\\nProblem in interior solar distribution calculation (CHKBKS)     Solar Distribution = FullInteriorExterior will not work in Zone=CORE_RETAIL ZN     because vertex 1 of back surface=CORE_RETAIL_FLOOR is in front of receiving surface=CORE_RETAIL_ROOF     (Dot Product indicator=459.6689)     Check surface geometry; if OK, use Solar Distribution = FullExterior instead.\\nProblem in interior solar distribution calculation (CHKBKS)     Solar Distribution = FullInteriorExterior will not work in Zone=CORE_RETAIL ZN     because vertex 2 of back surface=CORE_RETAIL_FLOOR is in front of receiving surface=CORE_RETAIL_ROOF     (Dot Product indicator=459.6689)     Check surface geometry; if OK, use Solar Distribution = FullExterior instead.\\nProblem in interior solar distribution calculation (CHKBKS)     Solar Distribution = FullInteriorExterior will not work in Zone=CORE_RETAIL ZN     because vertex 3 of back surface=CORE_RETAIL_FLOOR is in front of receiving surface=CORE_RETAIL_ROOF     (Dot Product indicator=459.6689)     Check surface geometry; if OK, use Solar Distribution = FullExterior instead.\\nProblem in interior solar distribution calculation (CHKBKS)     Solar Distribution = FullInteriorExterior will not work in Zone=CORE_RETAIL ZN     because vertex 4 of back surface=CORE_RETAIL_FLOOR is in front of receiving surface=CORE_RETAIL_ROOF     (Dot Product indicator=459.6689)     Check surface geometry; if OK, use Solar Distribution = FullExterior instead.\\nProblem in interior solar distribution calculation (CHKBKS)     Solar Distribution = FullInteriorExterior will not work in Zone=CORE_RETAIL ZN     because vertex 5 of back surface=CORE_RETAIL_FLOOR is in front of receiving surface=CORE_RETAIL_ROOF     (Dot Product indicator=459.6689)     Check surface geometry; if OK, use Solar Distribution = FullExterior instead.\\nProblem in interior solar distribution calculation (CHKBKS)     Solar Distribution = FullInteriorExterior will not work in Zone=CORE_RETAIL ZN     because vertex 6 of back surface=CORE_RETAIL_FLOOR is in front of receiving surface=CORE_RETAIL_ROOF     (Dot Product indicator=459.6689)     Check surface geometry; if OK, use Solar Distribution = FullExterior instead.\\nProblem in interior solar distribution calculation (CHKBKS)     Solar Distribution = FullInteriorExterior will not work in Zone=CORE_RETAIL ZN     because vertex 7 of back surface=CORE_RETAIL_FLOOR is in front of receiving surface=CORE_RETAIL_ROOF     (Dot Product indicator=459.6689)     Check surface geometry; if OK, use Solar Distribution = FullExterior instead.\\nProblem in interior solar distribution calculation (CHKBKS)     Solar Distribution = FullInteriorExterior will not work in Zone=CORE_RETAIL ZN     because vertex 8 of back surface=CORE_RETAIL_FLOOR is in front of receiving surface=CORE_RETAIL_ROOF     (Dot Product indicator=459.6689)     Check surface geometry; if OK, use Solar Distribution = FullExterior instead.\n[utilities.idf.WorkspaceObject] <0> Object of type 'Schedule:Constant' and named 'Always Off Discrete', points to an object named OnOff 1 from field 1, but that object cannot be located.\n[utilities.idf.WorkspaceObject] <0> Object of type 'Schedule:Constant' and named 'Always On Continuous', points to an object named Fractional 1 from field 1, but that object cannot be located.\n[openstudio.model.Model] <0> The run completed but had the following severe errors: Problem in interior solar distribution calculation (CHKBKS)     Solar Distribution = FullInteriorExterior will not work in Zone=SP-CORE_RETAIL SYS-3 FLR-1 SCH-C HPLCMT-EAST ZN     because vertex 2 of back surface=CORE_RETAIL_WALL_EAST_1 is in front of receiving surface=CORE_RETAIL_ROOF     (Dot Product indicator=459.6689)     Check surface geometry; if OK, use Solar Distribution = FullExterior instead.\\nProblem in interior solar distribution calculation (CHKBKS)     Solar Distribution = FullInteriorExterior will not work in Zone=SP-CORE_RETAIL SYS-3 FLR-1 SCH-C HPLCMT-EAST ZN     because vertex 3 of back surface=CORE_RETAIL_WALL_EAST_1 is in front of receiving surface=CORE_RETAIL_ROOF     (Dot Product indicator=459.6689)     Check surface geometry; if OK, use Solar Distribution = FullExterior instead.\\nProblem in interior solar distribution calculation (CHKBKS)     Solar Distribution = FullInteriorExterior will not work in Zone=SP-CORE_RETAIL SYS-3 FLR-1 SCH-C HPLCMT-EAST ZN     because vertex 2 of back surface=CORE_RETAIL_WALL_EAST_2 is in front of receiving surface=CORE_RETAIL_ROOF     (Dot Product indicator=459.6689)     Check surface geometry; if OK, use Solar Distribution = FullExterior instead.\\nProblem in interior solar distribution calculation (CHKBKS)     Solar Distribution = FullInteriorExterior will not work in Zone=SP-CORE_RETAIL SYS-3 FLR-1 SCH-C HPLCMT-EAST ZN     because vertex 3 of back surface=CORE_RETAIL_WALL_EAST_2 is in front of receiving surface=CORE_RETAIL_ROOF     (Dot Product indicator=459.6689)     Check surface geometry; if OK, use Solar Distribution = FullExterior instead.\\nProblem in interior solar distribution calculation (CHKBKS)     Solar Distribution = FullInteriorExterior will not work in Zone=SP-CORE_RETAIL SYS-3 FLR-1 SCH-C HPLCMT-EAST ZN     because vertex 2 of back surface=CORE_RETAIL_WALL_NORTH is in front of receiving surface=CORE_RETAIL_ROOF     (Dot Product indicator=459.6689)     Check surface geometry; if OK, use Solar Distribution = FullExterior instead.\\nProblem in interior solar distribution calculation (CHKBKS)     Solar Distribution = FullInteriorExterior will not work in Zone=SP-CORE_RETAIL SYS-3 FLR-1 SCH-C HPLCMT-EAST ZN     because vertex 3 of back surface=CORE_RETAIL_WALL_NORTH is in front of receiving surface=CORE_RETAIL_ROOF     (Dot Product indicator=459.6689)     Check surface geometry; if OK, use Solar Distribution = FullExterior instead.\\nProblem in interior solar distribution calculation (CHKBKS)     Solar Distribution = FullInteriorExterior will not work in Zone=SP-CORE_RETAIL SYS-3 FLR-1 SCH-C HPLCMT-EAST ZN     because vertex 2 of back surface=CORE_RETAIL_WALL_SOUTH_1 is in front of receiving surface=CORE_RETAIL_ROOF     (Dot Product indicator=459.6689)     Check surface geometry; if OK, use Solar Distribution = FullExterior instead.\\nProblem in interior solar distribution calculation (CHKBKS)     Solar Distribution = FullInteriorExterior will not work in Zone=SP-CORE_RETAIL SYS-3 FLR-1 SCH-C HPLCMT-EAST ZN     because vertex 3 of back surface=CORE_RETAIL_WALL_SOUTH_1 is in front of receiving surface=CORE_RETAIL_ROOF     (Dot Product indicator=459.6689)     Check surface geometry; if OK, use Solar Distribution = FullExterior instead.\\nProblem in interior solar distribution calculation (CHKBKS)     Solar Distribution = FullInteriorExterior will not work in Zone=SP-CORE_RETAIL SYS-3 FLR-1 SCH-C HPLCMT-EAST ZN     because vertex 2 of back surface=CORE_RETAIL_WALL_SOUTH_2 is in front of receiving surface=CORE_RETAIL_ROOF     (Dot Product indicator=459.6689)     Check surface geometry; if OK, use Solar Distribution = FullExterior instead.\\nProblem in interior solar distribution calculation (CHKBKS)     Solar Distribution = FullInteriorExterior will not work in Zone=SP-CORE_RETAIL SYS-3 FLR-1 SCH-C HPLCMT-EAST ZN     because vertex 3 of back surface=CORE_RETAIL_WALL_SOUTH_2 is in front of receiving surface=CORE_RETAIL_ROOF     (Dot Product indicator=459.6689)     Check surface geometry; if OK, use Solar Distribution = FullExterior instead.\\nProblem in interior solar distribution calculation (CHKBKS)     Solar Distribution = FullInteriorExterior will not work in Zone=SP-CORE_RETAIL SYS-3 FLR-1 SCH-C HPLCMT-EAST ZN     because vertex 2 of back surface=CORE_RETAIL_WALL_SOUTH_3 is in front of receiving surface=CORE_RETAIL_ROOF     (Dot Product indicator=459.6689)     Check surface geometry; if OK, use Solar Distribution = FullExterior instead.\\nProblem in interior solar distribution calculation (CHKBKS)     Solar Distribution = FullInteriorExterior will not work in Zone=SP-CORE_RETAIL SYS-3 FLR-1 SCH-C HPLCMT-EAST ZN     because vertex 3 of back surface=CORE_RETAIL_WALL_SOUTH_3 is in front of receiving surface=CORE_RETAIL_ROOF     (Dot Product indicator=459.6689)     Check surface geometry; if OK, use Solar Distribution = FullExterior instead.\\nProblem in interior solar distribution calculation (CHKBKS)     Solar Distribution = FullInteriorExterior will not work in Zone=SP-CORE_RETAIL SYS-3 FLR-1 SCH-C HPLCMT-EAST ZN     because vertex 2 of back surface=CORE_RETAIL_WALL_WEST_1 is in front of receiving surface=CORE_RETAIL_ROOF     (Dot Product indicator=459.6689)     Check surface geometry; if OK, use Solar Distribution = FullExterior instead.\\nProblem in interior solar distribution calculation (CHKBKS)     Solar Distribution = FullInteriorExterior will not work in Zone=SP-CORE_RETAIL SYS-3 FLR-1 SCH-C HPLCMT-EAST ZN     because vertex 3 of back surface=CORE_RETAIL_WALL_WEST_1 is in front of receiving surface=CORE_RETAIL_ROOF     (Dot Product indicator=459.6689)     Check surface geometry; if OK, use Solar Distribution = FullExterior instead.\\nProblem in interior solar distribution calculation (CHKBKS)     Solar Distribution = FullInteriorExterior will not work in Zone=SP-CORE_RETAIL SYS-3 FLR-1 SCH-C HPLCMT-EAST ZN     because vertex 2 of back surface=CORE_RETAIL_WALL_WEST_2 is in front of receiving surface=CORE_RETAIL_ROOF     (Dot Product indicator=459.6689)     Check surface geometry; if OK, use Solar Distribution = FullExterior instead.\\nProblem in interior solar distribution calculation (CHKBKS)     Solar Distribution = FullInteriorExterior will not work in Zone=SP-CORE_RETAIL SYS-3 FLR-1 SCH-C HPLCMT-EAST ZN     because vertex 3 of back surface=CORE_RETAIL_WALL_WEST_2 is in front of receiving surface=CORE_RETAIL_ROOF     (Dot Product indicator=459.6689)     Check surface geometry; if OK, use Solar Distribution = FullExterior instead.\\nProblem in interior solar distribution calculation (CHKBKS)     Solar Distribution = FullInteriorExterior will not work in Zone=SP-CORE_RETAIL SYS-3 FLR-1 SCH-C HPLCMT-EAST ZN     because vertex 1 of back surface=CORE_RETAIL_FLOOR is in front of receiving surface=CORE_RETAIL_ROOF     (Dot Product indicator=459.6689)     Check surface geometry; if OK, use Solar Distribution = FullExterior instead.\\nProblem in interior solar distribution calculation (CHKBKS)     Solar Distribution = FullInteriorExterior will not work in Zone=SP-CORE_RETAIL SYS-3 FLR-1 SCH-C HPLCMT-EAST ZN     because vertex 2 of back surface=CORE_RETAIL_FLOOR is in front of receiving surface=CORE_RETAIL_ROOF     (Dot Product indicator=459.6689)     Check surface geometry; if OK, use Solar Distribution = FullExterior instead.\\nProblem in interior solar distribution calculation (CHKBKS)     Solar Distribution = FullInteriorExterior will not work in Zone=SP-CORE_RETAIL SYS-3 FLR-1 SCH-C HPLCMT-EAST ZN     because vertex 3 of back surface=CORE_RETAIL_FLOOR is in front of receiving surface=CORE_RETAIL_ROOF     (Dot Product indicator=459.6689)     Check surface geometry; if OK, use Solar Distribution = FullExterior instead.\\nProblem in interior solar distribution calculation (CHKBKS)     Solar Distribution = FullInteriorExterior will not work in Zone=SP-CORE_RETAIL SYS-3 FLR-1 SCH-C HPLCMT-EAST ZN     because vertex 4 of back surface=CORE_RETAIL_FLOOR is in front of receiving surface=CORE_RETAIL_ROOF     (Dot Product indicator=459.6689)     Check surface geometry; if OK, use Solar Distribution = FullExterior instead.\\nProblem in interior solar distribution calculation (CHKBKS)     Solar Distribution = FullInteriorExterior will not work in Zone=SP-CORE_RETAIL SYS-3 FLR-1 SCH-C HPLCMT-EAST ZN     because vertex 5 of back surface=CORE_RETAIL_FLOOR is in front of receiving surface=CORE_RETAIL_ROOF     (Dot Product indicator=459.6689)     Check surface geometry; if OK, use Solar Distribution = FullExterior instead.\\nProblem in interior solar distribution calculation (CHKBKS)     Solar Distribution = FullInteriorExterior will not work in Zone=SP-CORE_RETAIL SYS-3 FLR-1 SCH-C HPLCMT-EAST ZN     because vertex 6 of back surface=CORE_RETAIL_FLOOR is in front of receiving surface=CORE_RETAIL_ROOF     (Dot Product indicator=459.6689)     Check surface geometry; if OK, use Solar Distribution = FullExterior instead.\\nProblem in interior solar distribution calculation (CHKBKS)     Solar Distribution = FullInteriorExterior will not work in Zone=SP-CORE_RETAIL SYS-3 FLR-1 SCH-C HPLCMT-EAST ZN     because vertex 7 of back surface=CORE_RETAIL_FLOOR is in front of receiving surface=CORE_RETAIL_ROOF     (Dot Product indicator=459.6689)     Check surface geometry; if OK, use Solar Distribution = FullExterior instead.\\nProblem in interior solar distribution calculation (CHKBKS)     Solar Distribution = FullInteriorExterior will not work in Zone=SP-CORE_RETAIL SYS-3 FLR-1 SCH-C HPLCMT-EAST ZN     because vertex 8 of back surface=CORE_RETAIL_FLOOR is in front of receiving surface=CORE_RETAIL_ROOF     (Dot Product indicator=459.6689)     Check surface geometry; if OK, use Solar Distribution = FullExterior instead.\n[openstudio.standards.Fan] <0> For Fan Constant Volume 1, there is no greater nominal HP.  Use the efficiency of the largest motor category.\n[openstudio.standards.Fan] <0> For Fan Constant Volume 2, there is no greater nominal HP.  Use the efficiency of the largest motor category.\n[openstudio.standards.Fan] <0> For Fan Constant Volume 3, there is no greater nominal HP.  Use the efficiency of the largest motor category.\n[openstudio.standards.Fan] <0> For Fan Constant Volume 4, there is no greater nominal HP.  Use the efficiency of the largest motor category.\n[openstudio.standards.Fan] <0> For Fan Constant Volume 5, there is no greater nominal HP.  Use the efficiency of the largest motor category.\n[openstudio.EpwFile] <0> Successive data points (1988-Jan-31 to 1985-Feb-01, ending on line 753) are greater than 1 day apart in EPW file '/usr/local/bundle/bundler/gems/openstudio-standards-f448df66933d/openstudio-standards/data/weather/CAN_NF_Stephenville.718150_CWEC.epw'. Data will be treated as typical (TMY)\n[openstudio.setFileExtension] <0> Path p, '/usr/local/bundle/bundler/gems/openstudio-standards-f448df66933d/openstudio-standards/data/weather/CAN_NF_Stephenville.718150_CWEC.ddy', has an unexpected file extension. Was expecting 'idf'.\n[openstudio.model.YearDescription] <1> 'UseWeatherFile' is not yet a supported option for YearDescription\n[openstudio.model.YearDescription] <1> 'UseWeatherFile' is not yet a supported option for YearDescription\n[openstudio.setFileExtension] <0> Path p, '/usr/local/bundle/bundler/gems/openstudio-standards-f448df66933d/openstudio-standards/data/weather/CAN_NF_Stephenville.718150_CWEC.ddy', has an unexpected file extension. Was expecting 'idf'.\n[openstudio.model.YearDescription] <1> 'UseWeatherFile' is not yet a supported option for YearDescription\n[openstudio.model.YearDescription] <1> 'UseWeatherFile' is not yet a supported option for YearDescription\n[openstudio.EpwFile] <0> Successive data points (1988-Jan-31 to 1985-Feb-01, ending on line 753) are greater than 1 day apart in EPW file '/usr/local/bundle/bundler/gems/openstudio-standards-f448df66933d/openstudio-standards/data/weather/CAN_NF_Stephenville.718150_CWEC.epw'. Data will be treated as typical (TMY)\n[openstudio.setFileExtension] <0> Path p, '/usr/local/bundle/bundler/gems/openstudio-standards-f448df66933d/openstudio-standards/data/weather/CAN_NF_Stephenville.718150_CWEC.ddy', has an unexpected file extension. Was expecting 'idf'.\n[openstudio.model.YearDescription] <1> 'UseWeatherFile' is not yet a supported option for YearDescription\n[openstudio.model.YearDescription] <1> 'UseWeatherFile' is not yet a supported option for YearDescription\n[openstudio.setFileExtension] <0> Path p, '/usr/local/bundle/bundler/gems/openstudio-standards-f448df66933d/openstudio-standards/data/weather/CAN_NF_Stephenville.718150_CWEC.ddy', has an unexpected file extension. Was expecting 'idf'.\n[openstudio.model.YearDescription] <1> 'UseWeatherFile' is not yet a supported option for YearDescription\n[openstudio.model.YearDescription] <1> 'UseWeatherFile' is not yet a supported option for YearDescription\n[openstudio.EpwFile] <0> Successive data points (1988-Jan-31 to 1985-Feb-01, ending on line 753) are greater than 1 day apart in EPW file '/usr/local/bundle/bundler/gems/openstudio-standards-f448df66933d/openstudio-standards/data/weather/CAN_NF_Stephenville.718150_CWEC.epw'. Data will be treated as typical (TMY)\n[openstudio.setFileExtension] <0> Path p, '/usr/local/bundle/bundler/gems/openstudio-standards-f448df66933d/openstudio-standards/data/weather/CAN_NF_Stephenville.718150_CWEC.ddy', has an unexpected file extension. Was expecting 'idf'.\n[openstudio.model.YearDescription] <1> 'UseWeatherFile' is not yet a supported option for YearDescription\n[openstudio.model.YearDescription] <1> 'UseWeatherFile' is not yet a supported option for YearDescription\n[openstudio.setFileExtension] <0> Path p, '/usr/local/bundle/bundler/gems/openstudio-standards-f448df66933d/openstudio-standards/data/weather/CAN_NF_Stephenville.718150_CWEC.ddy', has an unexpected file extension. Was expecting 'idf'.\n[openstudio.model.YearDescription] <1> 'UseWeatherFile' is not yet a supported option for YearDescription\n[openstudio.model.YearDescription] <1> 'UseWeatherFile' is not yet a supported option for YearDescription\n[openstudio.EpwFile] <0> Successive data points (1988-Jan-31 to 1985-Feb-01, ending on line 753) are greater than 1 day apart in EPW file '/usr/local/bundle/bundler/gems/openstudio-standards-f448df66933d/openstudio-standards/data/weather/CAN_NF_Stephenville.718150_CWEC.epw'. Data will be treated as typical (TMY)\n[openstudio.setFileExtension] <0> Path p, '/usr/local/bundle/bundler/gems/openstudio-standards-f448df66933d/openstudio-standards/data/weather/CAN_NF_Stephenville.718150_CWEC.ddy', has an unexpected file extension. Was expecting 'idf'.\n[openstudio.model.YearDescription] <1> 'UseWeatherFile' is not yet a supported option for YearDescription\n[openstudio.model.YearDescription] <1> 'UseWeatherFile' is not yet a supported option for YearDescription\n[openstudio.setFileExtension] <0> Path p, '/usr/local/bundle/bundler/gems/openstudio-standards-f448df66933d/openstudio-standards/data/weather/CAN_NF_Stephenville.718150_CWEC.ddy', has an unexpected file extension. Was expecting 'idf'.\n[openstudio.model.YearDescription] <1> 'UseWeatherFile' is not yet a supported option for YearDescription\n[openstudio.model.YearDescription] <1> 'UseWeatherFile' is not yet a supported option for YearDescription\n[openstudio.EpwFile] <0> Successive data points (1988-Jan-31 to 1985-Feb-01, ending on line 753) are greater than 1 day apart in EPW file '/usr/local/bundle/bundler/gems/openstudio-standards-f448df66933d/openstudio-standards/data/weather/CAN_NF_Stephenville.718150_CWEC.epw'. Data will be treated as typical (TMY)\n[openstudio.setFileExtension] <0> Path p, '/usr/local/bundle/bundler/gems/openstudio-standards-f448df66933d/openstudio-standards/data/weather/CAN_NF_Stephenville.718150_CWEC.ddy', has an unexpected file extension. Was expecting 'idf'.\n[openstudio.model.YearDescription] <1> 'UseWeatherFile' is not yet a supported option for YearDescription\n[openstudio.model.YearDescription] <1> 'UseWeatherFile' is not yet a supported option for YearDescription\n[openstudio.setFileExtension] <0> Path p, '/usr/local/bundle/bundler/gems/openstudio-standards-f448df66933d/openstudio-standards/data/weather/CAN_NF_Stephenville.718150_CWEC.ddy', has an unexpected file extension. Was expecting 'idf'.\n[openstudio.model.YearDescription] <1> 'UseWeatherFile' is not yet a supported option for YearDescription\n[openstudio.model.YearDescription] <1> 'UseWeatherFile' is not yet a supported option for YearDescription\n[openstudio.standards.Fan] <0> For Fan Constant Volume 1, there is no greater nominal HP.  Use the efficiency of the largest motor category.\n[openstudio.standards.Fan] <0> For Fan Constant Volume 2, there is no greater nominal HP.  Use the efficiency of the largest motor category.\n[openstudio.standards.Fan] <0> For Fan Constant Volume 3, there is no greater nominal HP.  Use the efficiency of the largest motor category.\n[openstudio.standards.Fan] <0> For Fan Constant Volume 4, there is no greater nominal HP.  Use the efficiency of the largest motor category.\n[openstudio.standards.Fan] <0> For Fan Constant Volume 5, there is no greater nominal HP.  Use the efficiency of the largest motor category.\n",
            "step_errors" : [],
            "step_files" : [],
            "step_info" : [
               "Started adding geometry",
               "Finished adding geometry",
               "Started adding weather file for climate zone: NECB HDD Method.",
               "Template =",
               "Setting Back_Space to Space Function.Storage area",
               "Setting Core_Retail to Space Function.Retail - sales",
               "Setting Front_Retail to Space Function.Retail - sales",
               "Setting Point_Of_Sale to Space Function.Retail - sales",
               "Setting Front_Entry to Space Function.Lobby - elevator",
               "Started applying space types (loads)",
               "Space Function Lobby - elevator had no people, one has been created.",
               "Space Function Lobby - elevator set occupancy to 9.29 people/1000 ft^2.",
               "Space Function Lobby - elevator had no lights, one has been created.",
               "Space Function Lobby - elevator set LPD to 0.641025641 W/ft^2.",
               "Space Function Lobby - elevator had no electric equipment, one has been created.",
               "Space Function Lobby - elevator set electric EPD to 0.092902267 W/ft^2.",
               "Space Function Lobby - elevator had no ventilation specification, one has been created.",
               "Space Function Lobby - elevator set ventilation per area to 0.81 cfm/ft^2.",
               "Space Function Lobby - elevator had no infiltration objects, one has been created.",
               "Space Function Lobby - elevator set infiltration to 0.0 per ft^2 exterior surface area.",
               "Space Function Lobby - elevator set occupancy schedule to NECB-C-Occupancy.",
               "Space Function Lobby - elevator set occupant activity schedule to NECB-Activity.",
               "Space Function Lobby - elevator set lighting schedule to NECB-C-Lighting.",
               "Space Function Lobby - elevator set electric equipment schedule to NECB-C-Electric-Equipment.",
               "Space Function Lobby - elevator set infiltration schedule to Always On.",
               "Space Function Lobby - elevator set heating setpoint schedule to NECB-C-Thermostat Setpoint-Heating.",
               "Space Function Lobby - elevator set cooling setpoint schedule to NECB-C-Thermostat Setpoint-Cooling.",
               "Space Function Retail - sales had no people, one has been created.",
               "Space Function Retail - sales set occupancy to 3.1 people/1000 ft^2.",
               "Space Function Retail - sales had no lights, one has been created.",
               "Space Function Retail - sales set LPD to 1.681531029 W/ft^2.",
               "Space Function Retail - sales had no electric equipment, one has been created.",
               "Space Function Retail - sales set electric EPD to 0.232255667 W/ft^2.",
               "Space Function Retail - sales had no ventilation specification, one has been created.",
               "Space Function Retail - sales set ventilation per area to 0.233 cfm/ft^2.",
               "Space Function Retail - sales had no infiltration objects, one has been created.",
               "Space Function Retail - sales set infiltration to 0.0 per ft^2 exterior surface area.",
               "Space Function Retail - sales set occupancy schedule to NECB-C-Occupancy.",
               "Space Function Retail - sales set occupant activity schedule to NECB-Activity.",
               "Space Function Retail - sales set lighting schedule to NECB-C-Lighting.",
               "Space Function Retail - sales set electric equipment schedule to NECB-C-Electric-Equipment.",
               "Space Function Retail - sales set infiltration schedule to Always On.",
               "Space Function Retail - sales set heating setpoint schedule to NECB-C-Thermostat Setpoint-Heating.",
               "Space Function Retail - sales set cooling setpoint schedule to NECB-C-Thermostat Setpoint-Cooling.",
               "Space Function Storage area had no people, one has been created.",
               "Space Function Storage area set occupancy to 0.93 people/1000 ft^2.",
               "Space Function Storage area had no lights, one has been created.",
               "Space Function Storage area set LPD to 0.631735414 W/ft^2.",
               "Space Function Storage area had no electric equipment, one has been created.",
               "Space Function Storage area set electric EPD to 0.092902267 W/ft^2.",
               "Space Function Storage area had no ventilation specification, one has been created.",
               "Space Function Storage area set ventilation per area to 0.07 cfm/ft^2.",
               "Space Function Storage area had no infiltration objects, one has been created.",
               "Space Function Storage area set infiltration to 0.0 per ft^2 exterior surface area.",
               "Space Function Storage area set occupancy schedule to NECB-E-Occupancy.",
               "Space Function Storage area set occupant activity schedule to NECB-Activity.",
               "Space Function Storage area set lighting schedule to NECB-E-Lighting.",
               "Space Function Storage area set electric equipment schedule to NECB-E-Electric-Equipment.",
               "Space Function Storage area set infiltration schedule to Always On.",
               "Space Function Storage area set heating setpoint schedule to NECB-E-Thermostat Setpoint-Heating.",
               "Space Function Storage area set cooling setpoint schedule to NECB-E-Thermostat Setpoint-Cooling.",
               "Finished applying space types (loads)",
               "Started applying constructions",
               "Adding construction set: NECB 2011-NECB HDD Method-Retail--is_residentialNo",
               "Adding construction Typical Insulated Exterior Mass Floor R-15.63.",
               "Adding construction Typical Insulated Exterior Mass Wall R-12.5.",
               "Adding construction Typical Insulated Metal Building Roof R-20.41.",
               "Adding construction Typical Interior Floor.",
               "Adding construction Typical Interior Wall.",
               "Adding construction Typical Interior Ceiling.",
               "Adding construction Typical Insulated Carpeted 6in Slab Floor.",
               "Adding construction U 0.55 SHGC 0.31 Dbl Ref-D Tint 6mm/6mm Air.",
               "Adding construction Typical Insulated Metal Door R-1.43.",
               "Adding construction U 0.35 SHGC 0.35 Dbl LoE (e2-.1) Tint 6mm/13mm Air.",
               "Adding construction Typical Overhead Door R-2.0.",
               "Adding construction U 0.48 SHGC 0.40 Dbl Ref-D Clr 6mm/13mm.",
               "Adding construction Typical Interior Window.",
               "Adding construction Typical Interior Door.",
               "Adding construction Typical Interior Partition.",
               "Finished applying constructions",
               "WWR NonRes = 0%; window = 0 ft2, wall = 0 ft2.",
               "WWR Res = 0%; window = 0 ft2, wall = 0 ft2.",
               "WWR Semiheated = 0%; window = 0 ft2, wall = 0 ft2.",
               "The skylight to roof ratios (SRRs) are: NonRes: 1%, Res: 0%.",
               "Started creating thermal zones",
               "Finished creating thermal zones",
               "Running simulation /mnt/openstudio/analysis_4fef0e0f-5396-4c55-a6e1-2cd6803db3ab/data_point_b1fe5f8a-9de3-49f6-8423-91595f589905/run/000_create_prototype_building/output/RetailStandalone-NECB 2011-NECB HDD Method-CAN_NF_Stephenville.718150_CWEC.epw/SR0.",
               "Finished run.",
               "Started Adding HVAC",
               "Finished adding HVAC",
               "Started Adding Service Water Heating",
               "Adding service water loop.",
               "Adding water heater.",
               "Template =",
               "Finished adding Service Water Heating",
               "Set sizing factors to 1.3 for heating and 1.3 for cooling.",
               "Running simulation /mnt/openstudio/analysis_4fef0e0f-5396-4c55-a6e1-2cd6803db3ab/data_point_b1fe5f8a-9de3-49f6-8423-91595f589905/run/000_create_prototype_building/output/RetailStandalone-NECB 2011-NECB HDD Method-CAN_NF_Stephenville.718150_CWEC.epw/SR1.",
               "Finished run.",
               "Started applying multizone vav OA sizing.",
               "Finished applying multizone vav OA sizing.",
               "Started applying prototype HVAC assumptions.",
               "For Fan Constant Volume 1: allowed_hp = 5.36HP; motor eff = 61.5%; total fan eff = 40% based on 7836 cfm.",
               "For Fan Constant Volume 2: allowed_hp = 1.01HP; motor eff = 61.5%; total fan eff = 40% based on 396 cfm.",
               "For Fan Constant Volume 3: allowed_hp = 1.57HP; motor eff = 61.5%; total fan eff = 40% based on 2300 cfm.",
               "For Fan Constant Volume 4: allowed_hp = 1.58HP; motor eff = 61.5%; total fan eff = 40% based on 2306 cfm.",
               "For Fan Constant Volume 5: allowed_hp = 1.17HP; motor eff = 61.5%; total fan eff = 40% based on 1715 cfm.",
               "Sp-Point_Of_Sale Sys-3 Flr-1 Sch-C HPlcmt-south ZN NECB System 3 PSZ does not require an economizer because the total cooling capacity of 61321 Btu/hr is less than the minimum capacity of 68243 Btu/hr.",
               "Sp-Front_Retail Sys-3 Flr-1 Sch-C HPlcmt-south ZN NECB System 3 PSZ does not require an economizer because the total cooling capacity of 61469 Btu/hr is less than the minimum capacity of 68243 Btu/hr.",
               "Sp-Core_Retail Sys-3 Flr-1 Sch-C HPlcmt-east ZN NECB System 3 PSZ requires an economizer because the total cooling capacity of 208886 Btu/hr exceeds the minimum capacity of 68243 Btu/hr.",
               "Sp-Front_Entry Sys-3 Flr-1 Sch-C HPlcmt-south ZN NECB System 3 PSZ does not require an economizer because the total cooling capacity of 10552 Btu/hr is less than the minimum capacity of 68243 Btu/hr.",
               "Sp-Back_Space Sys-4 Flr-1 Sch-E HPlcmt-north ZN NECB System 4 PSZ does not require an economizer because the total cooling capacity of 45717 Btu/hr is less than the minimum capacity of 68243 Btu/hr.",
               "Finished applying prototype HVAC assumptions.",
               "Started applying HVAC efficiency standards.",
               "For Sp-Back_Space Sys-4 Flr-1 Sch-E HPlcmt-north ZN NECB System 4 PSZ, ERV not required based on 0% OA flow, design supply air flow of 1715cfm, and climate zone NECB HDD Method.",
               "For Sp-Back_Space Sys-4 Flr-1 Sch-E HPlcmt-north ZN NECB System 4 PSZ, ERV not required based on exhaust heat content.",
               "For NECB 2011 NECB HDD Method:  Sp-Back_Space Sys-4 Flr-1 Sch-E HPlcmt-north ZN NECB System 4 PSZ: DCV is not required for any system.",
               "For Sp-Back_Space Sys-4 Flr-1 Sch-E HPlcmt-north ZN NECB System 4 PSZ: Annual occupied hours = 3068 hr/yr, assuming a 0.15 occupancy threshold.  This schedule will be used as the HVAC operation schedule.",
               "For Sp-Back_Space Sys-4 Flr-1 Sch-E HPlcmt-north ZN NECB System 4 PSZ: Setting motorized OA damper schedule to Sp-Back_Space Sys-4 Flr-1 Sch-E HPlcmt-north ZN NECB System 4 PSZ Occ Sch.",
               "For Sp-Core_Retail Sys-3 Flr-1 Sch-C HPlcmt-east ZN NECB System 3 PSZ, ERV not required based on 0% OA flow, design supply air flow of 7836cfm, and climate zone NECB HDD Method.",
               "For Sp-Core_Retail Sys-3 Flr-1 Sch-C HPlcmt-east ZN NECB System 3 PSZ, ERV not required based on exhaust heat content.",
               "For NECB 2011 NECB HDD Method:  Sp-Core_Retail Sys-3 Flr-1 Sch-C HPlcmt-east ZN NECB System 3 PSZ: DCV is not required for any system.",
               "For Sp-Core_Retail Sys-3 Flr-1 Sch-C HPlcmt-east ZN NECB System 3 PSZ: Annual occupied hours = 4168 hr/yr, assuming a 0.15 occupancy threshold.  This schedule will be used as the HVAC operation schedule.",
               "For Sp-Core_Retail Sys-3 Flr-1 Sch-C HPlcmt-east ZN NECB System 3 PSZ: Because the system has an economizer, it requires a motorized OA damper.",
               "For Sp-Core_Retail Sys-3 Flr-1 Sch-C HPlcmt-east ZN NECB System 3 PSZ: Setting motorized OA damper schedule to Sp-Core_Retail Sys-3 Flr-1 Sch-C HPlcmt-east ZN NECB System 3 PSZ Occ Sch.",
               "For Sp-Front_Entry Sys-3 Flr-1 Sch-C HPlcmt-south ZN NECB System 3 PSZ, ERV not required based on 0% OA flow, design supply air flow of 396cfm, and climate zone NECB HDD Method.",
               "For Sp-Front_Entry Sys-3 Flr-1 Sch-C HPlcmt-south ZN NECB System 3 PSZ, ERV not required based on exhaust heat content.",
               "For NECB 2011 NECB HDD Method:  Sp-Front_Entry Sys-3 Flr-1 Sch-C HPlcmt-south ZN NECB System 3 PSZ: DCV is not required for any system.",
               "For Sp-Front_Entry Sys-3 Flr-1 Sch-C HPlcmt-south ZN NECB System 3 PSZ: Unoccupied fan shutoff not required because system fan HP of 0.4 HP is less than the minimum threshold of 0.75 HP.",
               "For Sp-Front_Entry Sys-3 Flr-1 Sch-C HPlcmt-south ZN NECB System 3 PSZ: Setting motorized OA damper schedule to Always On Discrete.",
               "For Sp-Front_Retail Sys-3 Flr-1 Sch-C HPlcmt-south ZN NECB System 3 PSZ, ERV not required based on 0% OA flow, design supply air flow of 2306cfm, and climate zone NECB HDD Method.",
               "For Sp-Front_Retail Sys-3 Flr-1 Sch-C HPlcmt-south ZN NECB System 3 PSZ, ERV not required based on exhaust heat content.",
               "For NECB 2011 NECB HDD Method:  Sp-Front_Retail Sys-3 Flr-1 Sch-C HPlcmt-south ZN NECB System 3 PSZ: DCV is not required for any system.",
               "For Sp-Front_Retail Sys-3 Flr-1 Sch-C HPlcmt-south ZN NECB System 3 PSZ: Annual occupied hours = 4168 hr/yr, assuming a 0.15 occupancy threshold.  This schedule will be used as the HVAC operation schedule.",
               "For Sp-Front_Retail Sys-3 Flr-1 Sch-C HPlcmt-south ZN NECB System 3 PSZ: Setting motorized OA damper schedule to Sp-Front_Retail Sys-3 Flr-1 Sch-C HPlcmt-south ZN NECB System 3 PSZ Occ Sch.",
               "For Sp-Point_Of_Sale Sys-3 Flr-1 Sch-C HPlcmt-south ZN NECB System 3 PSZ, ERV not required based on 0% OA flow, design supply air flow of 2300cfm, and climate zone NECB HDD Method.",
               "For Sp-Point_Of_Sale Sys-3 Flr-1 Sch-C HPlcmt-south ZN NECB System 3 PSZ, ERV not required based on exhaust heat content.",
               "For NECB 2011 NECB HDD Method:  Sp-Point_Of_Sale Sys-3 Flr-1 Sch-C HPlcmt-south ZN NECB System 3 PSZ: DCV is not required for any system.",
               "For Sp-Point_Of_Sale Sys-3 Flr-1 Sch-C HPlcmt-south ZN NECB System 3 PSZ: Annual occupied hours = 4168 hr/yr, assuming a 0.15 occupancy threshold.  This schedule will be used as the HVAC operation schedule.",
               "For Sp-Point_Of_Sale Sys-3 Flr-1 Sch-C HPlcmt-south ZN NECB System 3 PSZ: Setting motorized OA damper schedule to Sp-Point_Of_Sale Sys-3 Flr-1 Sch-C HPlcmt-south ZN NECB System 3 PSZ Occ Sch.",
               "For Fan Constant Volume 1: motor nameplate = 5HP, motor eff = 61.5%.",
[...]
snIVRFe6iS9lA17aGK2kNVtYcqaw9V1x6qsD1UZfuoyvZhazWqsn1UZftWlV09HW1Bqn44moOMeIXqR6M5yIjzvn4wmoOMOOfrx6I5yIjz3SEUzUUHVMfyNuaQiOaiAypleQ9ziENz0QFVs7yBOWShuayDoHqWdy+HIDQXHVA9y1tX/RS0BRmHEDQXHfHyOESgueiI090hAM1FR5zuDvFnLjridHcJP3MSQlW0vIO5JJ85CaGKWt7EXGLPnIRQdS3vYy6ZZ04rI6qy5a3MJfDMSQhV2fJuxrQzpp0x7ewRIdPOzMG0M6adMe2s5GDaGdPOrN4V084W/C1ez7SzhwfTzu6PFfxx1RMLBSAOcYhDHOIQhzjEIQ5xiEOcjcd5YlkBpCENaUhDGtKQhjSkIQ1pSLM5NH+bjALiEIc4xCEOcYhDHOIQhzjEqe/HtLPZwbSzedpZbzPSzrobkHbWXWPaWbsLijtzEOqghPZQQl2UUA8ltI8SOkAJHaKE/vC0vYsSrLY9WHF7sOr2YOXtwerbgxW4B6twD1biHqzGfViN+7j1G1bjPqzGfbsat0lBe6jlEoNWX0e+Si5BaPV15FXAJQqtvo68AriEodXXkWe/UxyagxCqoku2N6dENAchVFGX7G1OoWgOQqi6LtnYnHLRHFZGVGWX7GpO0WgOQqjKLtnSXNLRHuo4xaM5CMmXyCkgzUFInvxOEWkOQvLkdwpJcxCSJ79bTJqLEqy2S3Y2t6Q0FyVYeZdsbm5haS5KsAov2d/c8tJc1kpYjZdscW6RaS5KsBov2eWYmsbUNKamPSJkapo5mJrG1DSmppUcTE1japrVu2Jq2oK/xeuZmvbwYGra/bGCP9J6YuECxCEOcYhDHOIQhzjEIQ5xiLPxOE8sc4A0pCENaUhDGtKQhjSkIQ1pNofmb5N1QBziEIc4xCEOcYhDHOIQhzj1/ZiaNjuYmjZPTdvfjNS03gakpvXWlprWK54JrZtwgxLqoIT2UEJdlFAPJbSPEjpACR2ihBYevndTgtW2BytuD1bdHqy8PVh9e7AC92AV7sFK3IPVuA+rcR+3fsNq3IfVuG9X49VT0xa16qemuejIV6l+apqLjrwK1E9Nc9GRV4D6qWkuOvLsd0hNcxJCVXTJ9uaQmuYkhCrqkr3NITXNSQhV1yUbm0NqmtPKiKrskl3NITXNSQhV2SVbWv3UtEUdh9Q0JyH5EjmkpjkJyZPfITXNSUie/A6paU5C8uR3SU1zU4LVdsnO5pKa5qYEK++Szc0lNc1NCVbhJfubS2qa21oJq/GSLc4lNc1NCVbjJbscU9OYmsbUtEeETE0zB1PTmJrG1LSSg6lpTE2zeldMTVvwt3g9U9MeHkxNuz9W8EdaTyxcgDjEIQ5xiEMc4hCHOMQhDnE2HueJZQ6QhjSkIQ1pSEMa0pCGNKQhzebQ/G2yDohDHOIQhzjEIQ5xiEMc4hCnvh9T02YHU9PmqWkHm5Gatr8BqWn7a0tNa7d8SGiai04HpLMH0umCdHognX2QzgFI5xCks/DMvZMQqqI9VEl7qJr2UEXtoaraQ5W1h6prD1XYHqqyfVRl+7C1GlXZPqqyfavKrp6OtiBVPxzNQUa8QvWj0RxkxHlfPxjNQUac8/Vj0RxkxPnuEIrmogOqY3kbc0hEc9EBlbK8hznEobnogKpZ3sAcstBc1kFQPcu7l0MQmosOqJ7lrat+CtqCjEMImouOeHkcItBcdMTp7hCA5qIjTneH+DMXHXG6u4SfOQmhKlrewVySz5yEUEUtb2IusWdOQqi6lvcxl8wzp5URVdnyVuYSeOYkhKpseTdj2hnTzph29oiQaWfmYNoZ086YdlZyMO2MaWdW74ppZwv+Fq9n2tnDg2ln98cK/rjqiYUCEIc4xCEOcYhDHOIQhzjEIc7G4zyxrADSkIY0pCENaUhDGtKQhjSk2Ryav01GAXGIQxziEIc4xCEOcYhDHOLU92Pa2exg2tk87exwM9LODjYg7exgbWln3l671X5weHuQ8DOgbGc1snurke2uRra3Gtn91cgerEb2cDWyC8/6I3VXNM+8FU00b0UzzVvRVPNWNNe8FU02b0WzzVvRdPNWNN/8Fc03f1X72ormm7+i+ea7zLfqqXJlyvVD5nCqVa9u/Qg6nGrVlax+QB1OteoqVj++DqdadQVzCLcDyq5mdlVuFxyS8ICyq5lglXsFh9g8oOxq5ljlRsEhYw+4K6xmllXuEhwC+YCyq5lllVuE+ul9ZaoOYX5A2aqX1iHqDyhbdQFzCAIEylZdwBxiAoGyVRcwlxBBpO6K5lnlTsElcRCpu6KpVrlZcIknROquaLZV7hdcsgyR+8SK5lvllsEl+BCpu6L5VrlrYEoiUxKZkviIkCmJ5mBKIlMSmZJYcjAlkSmJVu+KKYkL/havZ0riw4MpiffHCv4o84mFiRCHOMQhDnGIQxziEIc4xCHOxuM8sYwR0pCGNKQhDWlIQxrSkIY0pNkcmr9NtglxiEMc4hCHOMQhDnGIQxzi1Pf7E1IS3+mrsU6CbJJo1Xy1xdDEpxWaqJPrsK/VfwJTeT/G8ViZG2b+znmv/WozAhQPNyBA8XB9AYrm3+smNYF0OiCdPZBOF6TTA+nsg3QOQDqHIJ3FgAEXIVRFe6iS9lA17aGK2kNVtYcqaw9V1x6qsD1UZfuoyvZhazWqsn1UZftWlW0R7PdQyiHJr76MeIUcsvrqy4jz3iGNr76MOOcd8vbqy4jz3SVRz0EHVMfyNuYSkuegAypleQ9zyb1z0AFVs7yBuUTZOayDoHqWdy+XdDoHHVA9y1uXQ+DcQxmXhDkHHfHyuGTIOeiI090lJc5BR5zuLjlwDjridHdKenMRQlW0vIM5hbe5CKGKWt7EnPLYXIRQdS3vY04Ray4rI6qy5a3MKTXNRQhV2fJu9kjolySMkzC7U57aUc3TyWjLRFL1dv4vGO20vZ3i31/q/k7Hk7a59sJ/6L14sbd3eAiw8Fdv0Vm9xd7qLbqrt+it3mJ/9RYHq7c4XL3Fws6+Ko81zG9vDRPcW8MM99Ywxb01zHFvDZPcW8Ms99Ywzb01zHN/DfPcX8c+voZ57q9hnvv15rlfeASZ5NGu1lZ1Or5/0ANYyHcDZiHfDJiFfC9gFvKSC7OQV1yYhbzgwizk9RZmIS+3MIuST65xHvJHfzgP+VNBnIf8gSHOYw1TvKStwnmsYZKXtFU4jzVM85K2Crf/yW0VzmMd+/gaNvKStgrnUW+ed4zHqyQUPPzDam2V5+3vdzoAC/luwCzkmwGzkO8FzEJecmEW8ooLs5AXXJiFvN7CLOS/jYJZlLRVOA+5rcJ5yG0VzkNuq3Ae8p9o4Tzkv0vEech/sojzkP+aEech/6EjzmMN87ykrcJ5rGMfX8NGXtJW4TzqbeV7xuPd5UTyOKjWVh3mR/c7gIV8N2AW8s2AWcj3AmYht1UwC7mtglnIbRXMQm6rYBbycguzKGmrcB5yW4XzkNsqnIfcVuE85LYK5yG3VTgPua3CechtFc5DbqtwHmuY5yVtFc5jHfv4GjbykrYK51FvK+8aj//ogeSxX62tevny+Hh/H2Ah3w2YhXwzYBbyvYBZyG0VzEJuq2AWclsFs5DbKpiFvNzCLEraKpyH3FbhPOS2Cucht1U4D7mtwnnIbRXOQ26rcB5yW4XzkNsqnMca5nlJW4XzWMc+voaNvKStwnnU28p7Res20ZJHr1pbdXzc60Es5LsBs5BvBsxCvhcwC7mtglnIbRXMQm6rYBZyWwWzkJdbmEVJW4XzkNsqnIfcVuE85LYK5yG3VTgPua3CechtFc5DbqtwHnJbhfNYwzwvaatwHuvYx9ewkZe0VTiPelv5vvH4KZb+LN7vVmurDg58v9sFWMh3A2Yh3wyYhXwvYBZyWwWzkNsqmIXcVsEs5LYKZlGWOwWyKA1bQ3mUpVWhPMqCrFAeZRlXKI+y+CuUR1nmG8qjLA4O5VGWFIfyKAuRQ3msYZ6XtFU4j3Xs42vYyEvaKpzH8q38Q5WE11kmszpSI30zD5AtcmOb6fVwu0iAXRoVOw92TnX2XTwZDdJmt72tPK+7rTrm3/xutbjZ2xzjPpR6MDgOMj2Mk7sXt2E6jUW+f/8V0qNzgTfJQCdvJyaluPKJhuNukeMnHaSTRE8xTNDy7LqvOJ6bwxzmMIc5zGEOc5jDHOYwhznMYQ5zmMMc5jCHOcxhDnOYwxzmMIc5zGEOc5jDHOYwhznMYQ5zmMMc5jCHOcxhDnOYwxzmMIc5zGEOc5jDf6nhu1Z8rZMkHOifAvNgrddqOz6vah6NTRcfjT3VSajT2eO1je35A8TjKM5aUTjSSx+RTb/0nO7yJ2vTVvHV8+M4CrIwHuVQjTTT451zfREnulHtyecf9VCPBotvaPqzZq+9rTrmyeW2eZDZ/KMR6YvMgC2Rnsu2zoY6Oxll5vrkFheTUb8gbW6p35dIzAn1/dnvlz7LbY7wQjWzyzBtpcVdqWZkjgcntfLrdxL0L5v/A7ZVm+ObR8dz9pnu2ThOQyP4Mv9xlXczP4zMF6iS+MYOaY4VjgbazIcdb9vy7Pnxse6JF6GOTL01Z9d0Ok+GSTwZ64H6+mv1j9nPb1tnl0E6e/7dTLCth6N3XxzNL0grGA5fGY9WpEfD7FJ9q3z1b9V4EUUN9XzxFWkU9nVzx9t63/6wtXS+PXoncaKaH/O30v5GfcxtZqU68zU/+2e+4tjfIHOYMp7pvf/4ofVJ36mjo6PpxaunWKjObvtH27c6P84THXyqc/Jny3NsX2+u1+zdHZmyNsUwq5QiyKF1FqRpOBzpwbGJiEjfF1fyQ71LOb/R40l62ax7L/Jb+nx6P+vPpCh6XuVdtswr67qkWRJ/0tV8pq+t6xSPg36Y3VWzmr249rsqLOZWdVXmC8nislJnelgvPuaYT+fFhUftKM9WzWa6VWf9vF3sqpVe/3lZT2GO3V31y6/v1H/f/PpWnb55++6Hn79XP775/odj9frk7Uk1gVf5qq1vA9OiqSxWaZxkajS5yuugr4pIk1QFaT9vXsLRsILi/NobnQc7c7CtzqsvLonOJslIjYMk1a+iOMiagVnyt/Jb+eBn58XPKl3M5S3aA9vZW1gm/Hm1SS/3/Wcx3YvJ3nw20BfBJMrUOInzNUw/21bPvjo4OD4+OXm24uAZ4hCHOMQhDnGIQxziEIc4xPlr4qh0cpX/J7AaaPNDNQjuDFGiB6QhDWlIQxrSkIY0pCENaUhDmnKam+JPs/5Acx5NNHGIQxziEIc4xCEOcYhDHOIQpw7O/fcGeuZ7A08n0vcGdrziE7YXL/b2Dg9JSlKSkpSkJCUpSUlKUpKSlKQkJelmkPoFaZBJpO2CtNPx/YMeSUlKUpKSlKQkJSlJSUpSkpKUpCTdDNKOIX2VhAKpf1iQet7+fqdDUpKSlKQkJSlJSUpSkpKUpCQlKUk3g3TPkL67nEikBwXpYX50vyMpSUlKUpKSlKQkJSlJSUpSkpKUpJtB2jWk/9EDiXS/IH358vh4f5+kJCUpSUlKUpKSlKQkJSlJSUpSkm4Gaa/4zcRES6S9gvT4uNcjKUlJSlKSkpSkJCUpSUlKUpKSlKSbQrpvSH+KpWRBv1uQHhz4frdLUpKSlKQkJSlJSUpSkpKUpCQlKUnXRjpHGSTBTXOp2G0rC7NIn14GY93K9G3WfPY6niTpcoy7x2e+DK/0KA3jUaTTQmGJxO6uejEYqEAVSuomzC5VGl9pNegsOTO9HraC8ViPBs2G8W5sLTlhfrSCLEuajdvGtuq1LU+6y0/yq5+UZneRnuLtBKP+ZZzk5zcifWFBO9O4iEfZzo0Oh5eZ0TiPo0F1jem9OR3vfBf0P52djoO+Vqd36c6eehUlO5467V/unKjXv0T9q2xnFCf5TfjtZ/XzyfF35mWZvlJ76pfT39Sbft+89tlW2W39djftJ+E4+5f4mm93B+H1l4fFc2SxXEuFg6NG39T8cX6ZgnCkk7O9dkMV1+6oMQjTcRTcPQ9HUT60cx7F/U/fNGS+XHT6FlR2N87PN5dv92NwHUx/WnqmOa6DxJSnOlKD8Goc6dZI35xeD5uNrx4zbqu9drv4x9LpZmQHQRbkuu9/b0TBuY4azxsDfRFMokyNk/gijHRjezpydtt47rXa243rIJro2b/3zaqUn5MvNMfHJyeNz9uVdHyQTgekswfS6YJ0eiCdfZDOAUjnEKTjtVFCqIr2UCXtoWraQxW1h6pqD1XWHqquPVRhe6jK9lGV7cPWalRl+6jK9q0qW6WTq6uFr6mutKMlemAhI14jOxnxCtnJiNfHTkac93Yy4qy3kxHnvJ2MOOPtZMT5bicjb2SWOqA6lrcxSx1QJcubmKUOqJblLcxSB1TN8gZmqQOqZ3n7stRBrcugepb3Lkud6vV8E44y+23r3Pyouo54eSx1xMtjqSNeHksdcbpb6ojT3VJHnO6WOuJ0t9QRp7uljrx/2QqhKlrewWyFUDUt72G2QqiqlncxWyFUXcv7mK0QqrLlncxWCLZWoypb3sxshapX9v3nFku/V1ja5toL/6E3/eJhgIW/eovO6i32Vm/RXb1Fb/UW+6u3OFi9xeHqLRZ29lV5rGF+l/xiFuch/2YL5yH/0gvnIf+mF+ch/xIY5yH/fhjnIf/qGOch/1YZt/+tYZ7769jH17CR+2vYyf16W/nSr2+s1lZNv98RYCHfDZiFfDNgFvK9gFnIbRXMQm6rYBZyWwWzkNsqmIXcVsEsSj65xnnIH/3hPOS2Cucht1U4D7mtwnnIbRXOQ26rcB5yW4XzkNsqnIfcVuH2vzXM85KP+HEea9jIS9oqnEe9rXzpt2RVa6umX6MFsJDvBsxCvhkwC/lewCzktgpmIbdVMAu5rYJZyG0VzEJuq2AWJW0VzkNebnEecluF85DbKpyH3FbhPOS2Cucht1U4D7mtwnnIbRXOQ26rcPvfGuZ5SVuF81jDRl7SVuE86m3lS7+MpFpbNf22EoCFfDdgFvLNgFnI9wJmIbdVMAu5rYJZyG0VzEJuq2AWclsFsyhpq3Ae8nKL85DbKpyH3FbhPOS2Cucht1U4D7mtwnnIbRXOQ26rcB5yW4Xb/9Ywz0vaKpzHGjbykrYK51FvK1+a+V6trZqGwgMs5LsBs5BvBsxCvhcwC7mtglnIbRXMQm6rYBZyWwWzkNsqmEVJW4XzkJdbnIfcVuE85LYK5yG3VTgPua3CechtFc5DbqtwHnJbhfOQ2yrc/reGeV7SVuE81rCRl7RVOI96W/nSaN1qbdU0exdgId8NmIV8M2AW8r2AWchtFcxCbqtgFnJbBbOQ2yqYhdxWwSxK2iqch7zc4jzktgrnIbdVOA+5rcJ5yG0VzkNuq3AecluF85DbKpyH3Fbh9r81zPOStgrnsYaNvKStwnnU28qXJhhWa6umEYcAC/luwCzkmwGzkO8FzEJuq2AWclsFs5DbKpiF3FbBLOS2CmZRGraG8pCXW5xHWZAVyqMs4wrlURZ/hfIoy3xDeZTFwaE8ypLiUB5lIXIoj7J8OdT+t4Z5XppKh/JYw0Ze0lbhPJZv5R+qJLzOwpvVkRrpm3mAbJEb20yvh9tFAuzSqNh5AnSqs+/iyWiQNrvtbeV53W3VMf/md6vFzd7mGPfB1oPBcZDpYZzcvbgN02mC8v37rxAznQu8SQY6eTsxgcaVTzQcd4scP+kgnSR6imEymWfXfcUR3xzmMIc5zGEOc5jDHOYwhznMYQ5zmMMc5jCHOcxhDnOYwxzmMIc5zGEOc5jDHOYwhznMYQ5zmMMc5jCHOcxhDnOYwxzmMIc5zGEOc5jDHP5LDd+14mudJOFA/xSYB2u9VtvxeVXzaGy6+GjsqU5Cnc4er21szx8gHkdx1orCkV76iGz6ped0lz9Zm7aKr54fx1GQhfEoh2qkmR7vnOuLONGNak8+/6iHejRYfEPTnzV77W3VMU8ut82DzOYfjUhfZAZsifRctnU21NnJKDPXJ7e4mIz6BWlzS/2+RGJOqO/Pfr/0WW5zhBeqmV2GaSst7ko1I3M8OKmVX7+ToH/Z/B+wrdoc3zw6nrPPdM/GcRoawZf5j6u8m/lhZL5AlcQ3dkhzrHA00GY+7HjblmfPj491T7wIdWTqrTm7ptN5MkziyVgP1Ndfq3/Mfn7bOrsM0tnz72aCbT0cvfviaH5BWsFw+Mp4tCI9GmaX6lvlq3+rxosoaqjni69Io7Cvmzve1vv2h62l8+3RO4kT1fyYv5X2N+pjbjMr1Zmv+dk/8xXH/gaZw5TxTO/9xw+tT/pOHR0dTS9ePcVCdXbbP9q+1flxnujgU52TP1ueY/t6c71m7+7IlLUphlmlFEEOrbMgTcPhSA+OTURE+r64kh/qXcr5jR5P0stm3XuR39Ln0/tZfyZF0fMq77JlXlnXJc2S+JOu5jN9bV2neBz0w+yumtXsxbXfVWExt6qrMl9IFpeVOtPDevExx3w6Ly48akd5tmo206066+ftYlet9PrPy3oKc+zuql9+faf+++bXt+r0zdt3P/z8vfrxzfc/HKvXJ29Pqgm8yldtfRuYFk1lsUrjJFOjyVVeB31VRJqkKkj7efMSjoYVFOfX3ug82JmDbXVefXFJdDZJRmocJKl+FcVB1gzMkr+V38oHPzsvflbpYi5v0R7Yzt7CMuHPq016ue8/i+leTPbms4G+CCZRpsZJnK9h+tm2evbVwcHx8cnJsxUHzxCHOMQhDnGIQxziEIc4xCHOXxNHpZOr/D+B1UCbH6pBcGeIEj0gDWlIQxrSkIY0pCENaUhDGtKU09wUf5r1B5rzaKKJQxziEIc4xCEOcYhDHOIQhzh1cO6/N9Az3xt4OpG+N7DjFZ+wvXixt3d4SFKSkpSkJCUpSUlKUpKSlKQkJSlJN4PUL0iDTCJtF6Sdju8f9EhKUpKSlKQkJSlJSUpSkpKUpCQl6WaQdgzpqyQUSP3DgtTz9vc7HZKSlKQkJSlJSUpSkpKUpCQlKUlJuhmke4b03eVEIj0oSA/zo/sdSUlKUpKSlKQkJSlJSUpSkpKUpCTdDNKuIf2PHkik+wXpy5fHx/v7JCUpSUlKUpKSlKQkJSlJSUpSkpJ0M0h7xW8mJloi7RWkx8e9HklJSlKSkpSkJCUpSUlKUpKSlKQk3RTSfUP6UywlC/rdgvTgwPe7XZKSlKQkJSlJSUpSkpKUpCQlKUlJujbSOcogCW6aS8VuW1mYRfr0MhjrVqZvs+az1/EkSZdj3D0+82V4pUdpGI8inRYKSyR2d9WLwUAFqlBSN2F2qdL4SqtBZ8mZ6fWwFYzHejRoNox3Y2vJCfOjFWRZ0mzcNrZVr2150l1+kl/9pDS7i/QUbycY9S/jJD+/EekLC9qZxkU8ynZudDi8zIzGeRwNqmtM783peOc4TvTZW50FYaRO79KdjnoVJTueOu1f7hyr179E/atsRwdppn77Wf18cvydeVWmr1RH/XL6m3rT75uXPtsqu63f7qb9JBxn/xJf8+3uILz+8rB4jiyWa6lwcNTom5o/zi9TEI50crbnNVRx7Y4agzAdR8Hd83AU5UM751Hc//RNQ+bLRadvQWV34/x8c/l2PwbXwfSnpWea4zpITHmqIzUIr8aRbo30zen1sNn46jHjttprt4t/LJ1uRnYQZEGu+/73RhSc66jxvDHQF8EkytQ4iS/CSDe2pyNnt43nXqu93bgOoome/XvfrEr5OflCc3x8ctL4vF1JxwfpdEA6eyCdLkinB9LZB+kcgHQOQTpeGyWEqmgPVdIeqqY9VFF7qKr2UGXtoeraQxW2h6psH1XZPmytRlW2j6ps36qyVTq5ulr4mupKO1qiBxYy4jWykxGvkJ2MeH3sZMR5bycjzno7GXHO28mIM95ORpzvdjLyRmapA6pjeRuz1AFVsryJWeqAalnewix1QNUsb2CWOqB6lrcvSx3UugyqZ3nvstSpXs834Siz37bOzY+q64iXx1JHvDyWOuLlsdQRp7uljjjdLXXE6W6pI053Sx1xulvqyPuXrRCqouUdzFYIVdPyHmYrhKpqeRezFULVtbyP2QqhKlveyWyFYGs1qrLlzcxWqHpl339usfR7haVtrr3wH3rTLx4GWPirt+is3mJv9Rbd1Vv0Vm+xv3qLg9VbHK7eYmFnX5XHGuZ3yS9mcR7yb7ZwHvIvvXAe8m96cR7yL4FxHvLvh3Ee8q+OcR7yb5Vx+98a5rm/jn18DRu5v4ad3K+3lS/9+sZqbdX0+x0BFvLdgFnINwNmId8LmIXcVsEs5LYKZiG3VTALua2CWchtFcyi5JNrnIf80R/OQ26rcB5yW4XzkNsqnIfcVuE85LYK5yG3VTgPua3CechtFW7/W8M8L/mIH+exho28pK3CedTbypd+S1a1tmr6NVoAC/luwCzkmwGzkO8FzEJuq2AWclsFs5DbKpiF3FbBLOS2CmZR0lbhPOTlFucht1U4D7mtwnnIbRXOQ26rcB5yW4XzkNsqnIfcVuE85LYKt/+tYZ6XtFU4jzVs5CVtFc6j3la+9MtIqrVV028rAVjIdwNmId8MmIV8L2AWclsFs5DbKpiF3FbBLOS2CmYht1Uwi5K2CuchL7c4D7mtwnnIbRXOQ26rcB5yW4XzkNsqnIfcVuE85LYK5yG3Vbj9bw3zvKStwnmsYSMvaatwHvW28qWZ79XaqmkoPMBCvhswC/lmwCzkewGzkNsqmIXcVsEs5LYKZiG3VTALua2CWZS0VTgPebnFechtFc5DbqtwHnJbhfOQ2yqch9xW4TzktgrnIbdVOA+5rcLtf2uY5yVtFc5jDRt5SVuF86i3lS+N1q3WVk2zdwEW8t2AWcg3A2Yh3wuYhdxWwSzktgpmIbdVMAu5rYJZyG0VzKKkrcJ5yMstzkNuq3AecluF85DbKpyH3FbhPOS2Cucht1U4D7mtwnnIbRVu/1vDPC9pq3Aea9jIS9oqnEe9rXxpgmG1tmoacQiwkO8GzEK+GTAL+V7ALOS2CmYht1UwC7mtglnIbRXMQm6rYBalYWsoD3m5xXmUBVmhPMoyrlAeZfFXKI+yzDeUR1kcHMqjLCkO5VEWIofyKMuXQ+1/a5jnpal0KI81bOQlbRXOY/lW/qFKwussvFkdqZG+mQfIFrmxzfR6uF0kwC6Nip0nQKc6+y6ejAZps9veVp7X3VYd829+t1rc7G2OcR9sPRgcB5kexsndi9swnSYo37//CjHTucCbZKCTtxMTaFz5RMNxt8jxkw7SSaKnGCaTeXbdVxzxzWEOc5jDHOYwhznMYQ5zmMMc5jCHOcxhDnOYwxzmMIc5zGEOc5jDHOYwhznMYQ5zmMMc5jCHOcxhDnOYwxzmMIc5zGEOc5jDHOYwhznM4b/U8F0rvtZJEg70T4F5sNZrtR2fVzWPxqaLj8ae6iTU6ezx2sb2/AHicRRnrSgc6aWPyKZfek53+ZO1aav46vlxHAVZGI9yqEaa6fHOub6IE92o9uTzj3qoR4PFNzT9WbPX3lYd8+Ry2zzIbP7RiPRFZsCWSM9lW2dDnZ2MMnN9couLyahfkDa31O9LJOaE+v7s90uf5TZHeKGa2WWYttLirlQzMseDk1r59TsJ+pfN/wHbqs3xzaPjOftM92wcp6ERfJn/uMq7mR9G5gtUSXxjhzTHCkcDbebDjrdtefb8+Fj3xItQR6bemrNrOp0nwySejPVAff21+sfs57ets8sgnT3/bibY1sPRuy+O5hekFQyHr4xHK9KjYXapvlW++rdqvIiihnq++Io0Cvu6ueNtvW9/2Fo63x69kzhRzY/5W2l/oz7mNrNSnfman/0zX3Hsb5A5TBnP9N5//ND6pO/U0dHR9OLVUyxUZ7f9o+1bnR/niQ4+1Tn5s+U5tq8312v27o5MWZtimFVKEeTQOgvSNByO9ODYRESk74sr+aHepZzf6PEkvWzWvRf5LX0+vZ/1Z1IUPa/yLlvmlXVd0iyJP+lqPtPX1nWKx0E/zO6qWc1eXPtdFRZzq7oq84VkcVmpMz2sFx9zzKfz4sKjdpRnq2Yz3aqzft4udtVKr/+8rKcwx+6u+uXXd+q/b359q07fvH33w8/fqx/ffP/DsXp98vakmsCrfNXWt4Fp0VQWqzROMjWaXOV10FdFpEmqgrSfNy/haFhBcX7tjc6DnTnYVufVF5dEZ5NkpMZBkupXURxkzcAs+Vv5rXzws/PiZ5Uu5vIW7YHt7C0sE/682qSX+/6zmO7FZG8+G+iLYBJlapzE+Rqmn22rZ18dHBwfn5w8W3HwDHGIQxziEIc4xCEOcYhDHOL8NXFUOrnK/xNYDbT5oRoEd4Yo0QPSkIY0pCENaUhDGtKQhjSkIU05zU3xp1l/oDmPJpo4xCEOcYhDHOIQhzjEIQ5xiFMH5/57Az3zvYGnE+l7Azte8Qnbixd7e4eHJCUpSUlKUpKSlKQkJSlJSUpSkpJ0M0j9gjTIJNJ2Qdrp+P5Bj6QkJSlJSUpSkpKUpCQlKUlJSlKSbgZpx5C+SkKB1D8sSD1vf7/TISlJSUpSkpKUpCQlKUlJSlKSkpSkm0G6Z0jfXU4k0oOC9DA/ut+RlKQkJSlJSUpSkpKUpCQlKUlJStLNIO0a0v/ogUS6X5C+fHl8vL9PUpKSlKQkJSlJSUpSkpKUpCQlKUk3g7RX/GZioiXSXkF6fNzrkZSkJCUpSUlKUpKSlKQkJSlJSUrSTSHdN6Q/xVKyoN8tSA8OfL/bJSlJSUpSkpKUpCQlKUlJSlKSkpSkayOdowyS4Ka5VOy2lYVZpE8vg7FuZfo2az57HU+SdDnG3eMzX4ZXepSG8SjSaaGwRGJ3V70YDFSgCiV1E2aXKo2vtBp0lpyZXg9bwXisR4Nmw3g3tpacMD9aQZYlzcZtY1v12pYn3eUn+dVPSrO7SE/xdoJR/zJO8vMbkb6woJ1pXMSjbOdGh8PLzGicx9Ggusb03pyOd14luczZW50FYaRO79KdjnoVJTueOu1f7hyr179E/atsJ40n+W347Wf188nxd+Zlmb5SHfXL6W/qTb9vXvtsq+zGfrub9pNwnP1LfM23u4Pw+svD4jmyWK6lwsFRo2+q/jh/h0E40snZnt9QxdU7agzCdBwFd8/DUZQP7ZxHcf/TNw2ZLxedvgWV3Y3z880F3P0YXAfTn5aeaY7rIDEFqo7UILwaR7o10jen18Nm46vHjNtqr90u/rF0whnZQZAFue773xtRcK6jxvPGQF8EkyhT4yS+CCPd2J6OnN02nnut9nbjOogmevbvfbMu5efkS83x8clJ4/N2JR0fpNMB6eyBdLognR5IZx+kcwDSOQTpeG2UEKqiPVRJe6ia9lBF7aGq2kOVtYeqaw9V2B6qsn1UZfuwtRpV2T6qsn2rylbp5Opq4YuqK+1oiR5YyIjXyE5GvEJ2MuL1sZMR572djDjr7WTEOW8nI854OxlxvtvJyBuZpQ6ojuVtzFIHVMnyJmapA6pleQuz1AFVs7yBWeqA6lnevix1UOsyqJ7lvctSp3o934SjzH7bOjc/qq4jXh5LHfHyWOqIl8dSR5zuljridLfUEae7pY443S11xOluqSPvX7ZCqIqWdzBbIVRNy3uYrRCqquVdzFYIVdfyPmYrhKpseSezFYKt1ajKljczW6HqlX3/ycXSbxaWtrn2wn/oTb96GGDhr96is3qLvdVbdFdv0Vu9xf7qLQ5Wb3G4eouFnX1VHmuY3yW/mMV5yL/ZwnnIv/TCeci/6cV5yL8ExnnIvx/Geci/OsZ5yL9Vxu1/a5jn/jr28TVs5P4adnK/3la+9Ascq7VV0294BFjIdwNmId8MmIV8L2AWclsFs5DbKpiF3FbBLOS2CmYht1Uwi5JPrnEe8kd/OA+5rcJ5yG0VzkNuq3AecluF85DbKpyH3FbhPOS2Cucht1W4/W8N87zkI36cxxo28pK2CudRbytf+j1Z1dqq6RdpASzkuwGzkG8GzEK+FzALua2CWchtFcxCbqtgFnJbBbOQ2yqYRUlbhfOQl1uch9xW4TzktgrnIbdVOA+5rcJ5yG0VzkNuq3AecluF85DbKtz+t4Z5XtJW4TzWsJGXtFU4j3pb+dKvI6nWVk2/rwRgId8NmIV8M2AW8r2AWchtFcxCbqtgFnJbBbOQ2yqYhdxWwSxK2iqch7zc4jzktgrnIbdVOA+5rcJ5yG0VzkNuq3AecluF85DbKpyH3Fbh9r81zPOStgrnsYaNvKStwnnU28qXpr5Xa6umsfAAC/luwCzkmwGzkO8FzEJuq2AWclsFs5DbKpiF3FbBLOS2CmZR0lbhPOTlFucht1U4D7mtwnnIbRXOQ26rcB5yW4XzkNsqnIfcVuE85LYKt/+tYZ6XtFU4jzVs5CVtFc6j3la+NFy3Wls1Td8FWMh3A2Yh3wyYhXwvYBZyWwWzkNsqmIXcVsEs5LYKZiG3VTCLkrYK5yEvtzgPua3CechtFc5DbqtwHnJbhfOQ2yqch9xW4TzktgrnIbdVuP1vDfO8pK3CeaxhIy9pq3Ae9bbypRmG1dqqacghwEK+GzAL+WbALOR7AbOQ2yqYhdxWwSzktgpmIbdVMAu5rYJZlIatoTzk5RbnURZkhfIoy7hCeZTFX6E8yjLfUB5lcXAoj7KkOJRHWYgcyqMsXw61/61hnpem0qE81rCRl7RVOI/lW/mHKgmvs/hmdaRG+mYeIFvkxjbT6+F2kQC7NCp2ngGd6uy7eDIapM1ue1t5Xndbdcy/+d1qcbO3OcZ9tPVgcBxkehgndy9uw3SaoXz//isETecCb5KBTt5OTKRx5RMNx90ix086SCeJnmKYVObZdV9xyDeHOcxhDnOYwxzmMIc5zGEOc5jDHOYwhznMYQ5zmMMc5jCHOcxhDnOYwxzmMIc5zGEOc5jDHOYwhznMYQ5zmMMc5jCHOcxhDnOYwxzmMIf/UsN3rfhaJ0k40D8F5sFar9V2fF7VPBqbLj4ae6qTUKezx2sb2/MHiMdRnLWicKSXPiKbfuk53eVP1qat4qvnx3EUZGE8yqEaaabHO+f6Ik50o9qTzz/qoR4NFt/Q9GfNXntbdcyTy23zILP5RyPSF5kBWyI9l22dDXV2MsrM9cktLiajfkHa3FK/L5GYE+r7s98vfZbbHOGFamaXYdpKi7tSzcgcD05q5dfvJOhfNv8HbKs2xzePjufsM92zcZyGRvBl/uMq72Z+GJkvUCXxjR3SHCscDbSZDzvetuXZ8+Nj3RMvQh2ZemvOrul0ngyTeDLWA/X11+ofs5/fts4ug3T2/LuZYFsPR+++OJpfkFYwHL4yHq1Ij4bZpfpW+erfqvEiihrq+eIr0ijs6+aOt/W+/WFr6Xx79E7iRDU/5m+l/Y36mNvMSnXma372z3zFsb9B5jBlPNN7//FD65O+U0dHR9OLV0+xUJ3d9o+2b3V+nCc6+FTn5M+W59i+3lyv2bs7MmVtimFWKUWQQ+ssSNNwONKDYxMRkb4vruSHepdyfqPHk/SyWfde5Lf0+fR+1p9JUfS8yrtsmVfWdUmzJP6kq/lMX1vXKR4H/TC7q2Y1e3Htd1VYzK3qqswXksVlpc70sF58zDGfzosLj9pRnq2azXSrzvp5u9hVK73+87Kewhy7u+qXX9+p/7759a06ffP23Q8/f69+fPP9D8fq9cnbk2oCr/JVW98GpkVTWazSOMnUaHKV10FfFZEmqQrSft68hKNhBcX5tTc6D3bmYFudV19cEp1NkpEaB0mqX0VxkDUDs+Rv5bfywc/Oi59VupjLW7QHtrO3sEz482qTXu77z2K6F5O9+WygL4JJlKlxEudrmH62rZ59dXBwfHxy8mzFwTPEIQ5xiEMc4hCHOMQhDnGI89fEUenkKv9PYDXQ5odqENwZokQPSEMa0pCGNKQhDWlIQxrSkIY05TQ3xZ9m/YHmPJpo4hCHOMQhDnGIQxziEIc4xCFOHZz77w30zPcGnk6k7w3seMUnbC9e7O0dHpKUpCQlKUlJSlKSkpSkJCUpSUlK0s0g9QvSIJNI2wVpp+P7Bz2SkpSkJCUpSUlKUpKSlKQkJSlJSboZpB1D+ioJBVL/sCD1vP39ToekJCUpSUlKUpKSlKQkJSlJSUpSkm4G6Z4hfXc5kUgPCtLD/Oh+R1KSkpSkJCUpSUlKUpKSlKQkJSlJN4O0a0j/owcS6X5B+vLl8fH+PklJSlKSkpSkJCUpSUlKUpKSlKQk3QzSXvGbiYmWSHsF6fFxr0dSkpKUpCQlKUlJSlKSkpSkJCUpSTeFdN+Q/hRLyYJ+tyA9OPD9bpekJCUpSUlKUpKSlKQkJSlJSUpSkq6NdI4ySIKb5lKx21YWZpE+vQzGupXp26z57HU8SdLlGHePz3wZXulRGsajSKeFwhKJ3V31YjBQgSqU1E2YXao0vtJq0FlyZno9bAXjsR4Nmg3j3dhacsL8aAVZljQbt41t1WtbnnSXn+RXPynN7iI9xdsJRv3LOMnPb0T6woJ2pnERj7KdGx0OLzOjcR5Hg+oa03tzOt75JQ5H2dmbi7PTIL/ap3fpTke9ipIdT532L3eO1etfov5VtpPGk/w+/Paz+vnk+DvzskxfqY765fQ39abfN699tlV2Z7/dTftJOM7+Jb7m291BeP3lYfEcWSzXUuHgqNE3ZX+cX6kgHOnkbK/TUMXlO2oMwnQcBXfPw1GUD+2cR3H/0zcNmS8Xnb4Fld2N8/PNFdz9GFwH05+WnmmO6yAxFaqO1CC8Gke6NdI3p9fDZuOrx4zbaq/dLv6xdMYZ2UGQBbnu+98bUXCuo8bzxkBfBJMoU+Mkvggj3diejpzdNp57rfZ24zqIJrrxvHfYOnxwHBxuN/pmmcoV8pXn+PjkpPF5u5KqvxLVzkpU91ai2l2Jam8lqvsrUT1YierhSlS99mpkVzO7vNVML28188tbzQTzVjPDvNVMMW81c8xbzSTzVjPL/NXMMn9Fe9hqZpm/mlnmO8wylU6urha++btGh5DogYVoxWtrJ1rxytqJVryudqIV1y470Yorl51oxXXLTrTiqmUnWnHNshOt2hhYqq5kTlVtCyxVVzKrqjYFlqormVdVWwJL1ZXMrKoNgaXqSuZW1XbAUnU1+9VK5lbVXsBSte7cuglHmWsbcG5eUF214mW1VK14WS1VK15WS9WKS5alasUly1K14pJlqVpxybJUrbhkWapW7QdsZVczu6p2BLayq5lfVXsCW9nVzLCqXYGt7GrmWNW+wFZ2NbOsamdgK7uiPWw1s6xqc2ArazXLPlT5wGH2caI6UiN9M/88o/gYo5leD7eLDySWfnIx/0wy1dl38WQ0SJvd9rbyvO626ph/87vVPv24zTHuP2odDI6DTA/j5O7FbZhOP9O7vxQVPvjMBd4kA528nZiP2CqfaDjuFjl+0kE6SfQUw3xKOLsFrh/lFp8jLVqd6iTU6Qw3d5rdkHEUZy3z4dZSy/RL73s5adoq6m4cR0EWxqMcqpFmerxzri/iRDeqVdKPeqhHg8U3NP1Zs5dXQcdUgvkwzDP/mH1SuvRD5Lls62yos5NRZq5PbnExGfUL0uaW+r3CR6WGUN+f/X7p3DBHeKGa2WWY5nVtzqtmZI4HJ7Xy63cS9C+b/wO2VZvjzz4bnOmejeM0NIIv8x9XeTfzw8h8gSqJb+yQ5ljhaKDNxN3xti3Pnh8f6554EerI1Ftzdk2n82SYxJOxHqivv1b/mP38tnV2GaSz9cRMsK2Ho3dfHM0vSCsYDl8Zj1akR8PsUn2rfPVv1XgRRQ31fPEVaRT2dXPH23rf/rC1dL49eidxopof87fS/kZ9zG1mpTrzNT/755Hy7G+QOUwZz/Tef/zQ+qTz5e3oaHrx6ikWqrPb/tH2rc6P80QHn+qc/NnyHNvXm+s1e3dHpqxNMcwqpdgYW2fTPwPSg+IPgdL3xZX8UO9Szm/0eJJeNuvei/yWPp/ez/ozKYqeV3mXLfPKui5plsSfdDWf6WvrOsXjoB9md9WsZi+u/a4Ki7lVXZX5QrK4rNSZHtaLjznm03lx4VE7yrNVs5lu1Vk/bxe7aqXXf17WU5hjd1f98us79d83v75Vp2/evvvh5+/Vj2++/+FYvT55e1JN4FW+auvbwLRoKotVGueN9GhylddBXxUtYqqCtJ83L+FoWEFxfu2NzoOdOdhW59UXl0Rnk2SkxkGS6ldRHGTNwCz5W/mtfPCz8+JnlS7m8hbtge3sLSwT/vwn/LnmHz6Anf1NpvlA9U/561HiEIc4xCEOcYhDHOIQhzjE2Xicx3/gYogSPSANaUhDGtKQhjSkIQ1pSEMa0pTTPPqTQENj/sSPOMQhDnGIQxziEIc4xCEOcYjzJ4YkvtNXY50E2STRqvlqizGJTyom8T+BqbjXuvifF1fnoR5lytwyk3uoB5P8+u+o/farzYhA3NuACMS9tUUgFg+e1o1gAul0QDp7IJ0uSKcH0tkH6RyAdA5BOgvZAk5CqIr2UCXtoWraQxW1h6pqD1XWHqquPVRhe6jK9lGV7cPWalRl+6jK9q0qu3pk34JU/ZA+BxnxCtUP4nOQEed9/bA9BxlxztcP1HOQEee7Q2ieiw6ojuVtzCEKz0UHVMryHuYQcOeiA6pmeQNziK1zWQdB9SzvXg5hdC46oHqWt676EXMLMg6hci464uVxCI5z0RGnu0M4nIuOON0dAuBcdMTp7hLy5iSEqmh5B3OJbnMSQhW1vIm5BLI5CaHqWt7HXGLWnFZGVGXLW5lLeJqTEKqy5d2MkWgbEYnGYQ5zmMMc5jCHOcxhDnOYwxzmMIc5zOGnNHzXiq91koQD/VNgflHltdqMxH/wThiJf38wEt/qYCQ+I/EtDkbi//FgJP4fD0biWx6MxGck/hcPRuIThzjEIQ5xiEMc4hCHOMQhDnE2IVCSNKQhDWlIQxrSkIY0pCENaTaH5m8TZEkc4hCHOMQhDnGIQxziEIc49f3+hEj8l+GVHqVhPIp0mjIQ/2kF4sfJJ3VycRH2Qz3q393H4K83AH/26j+MPPz/83+f/u+9+uxf7v/nPB7cmf+9zK6if/2//w87AxKO"
               },
               {
                  "name" : "annual_peak_electric_demand",
                  "units" : "kW",
                  "value" : 190.33819
               },
               {
                  "name" : "first_year_capital_cost",
                  "units" : "$",
                  "value" : 0
               },
               {
                  "name" : "annual_utility_cost",
                  "units" : "$",
                  "value" : 40123.830000000002
               },
               {
                  "name" : "total_lifecycle_cost",
                  "units" : "$",
                  "value" : 671769.65000000002
               }
            ],
            "step_warnings" : [ "A table in Annual Overview section returned false and was skipped." ]
         }
      }
   ],
   "updated_at" : "20170710T184657Z",
   "weather_file" : "USA_CO_Denver.Intl.AP.725650_TMY3.epw"
}
