{
   "completed_at" : "20170710T185245Z",
   "completed_status" : "Success",
   "created_at" : "2017-07-10 18:35:05 +0000",
   "current_step" : 5,
   "description" : "",
   "eplusout_err" : "Program Version,EnergyPlus, Version 8.7.0-78a111df4a, YMD=2017.07.10 18:44,IDD_Version 8.7.0\n   ************* IDF Context for following error/warning message:\n   ************* Note -- lines truncated at 300 characters, if necessary...\n   *************      5 Building,\n   ************* indicated Name=NECB 2011-SecondarySchool-NECB HDD Method-CAN_NF_Stephenville.718150_CWEC.epw created: 2017-07-10 18:35:13 +0000\n   ************* Only last 1 lines before error line shown.....\n   *************      6   NECB 2011-SecondarySchool-NECB HDD Method-CAN_NF_Stephenville.718150_CWEC.epw created: 2017-07-10 18:35:13 +0000, !- Name\n   ** Warning ** IP: IDF line~6 Alpha Argument length exceeds maximum, will be truncated=  NECB 2011-SecondarySchool-NECB HDD Method-CAN_NF_Stephenville.718150_CWEC.epw created: 2017-07-10 18:35:13 +000\n   **   ~~~   ** Will be processed as Alpha=NECB 2011-SECONDARYSCHOOL-NECB HDD METHOD-CAN_NF_STEPHENVILLE.718150_CWEC.EPW CREATED: 2017-07-10 18:35:13 +0000\n   ************* IDF Context for following error/warning message:\n   ************* Note -- lines truncated at 300 characters, if necessary...\n   *************    602 Schedule:Week:Daily,\n   ************* indicated Name=Schedule:Week:Daily {0f13bfa9-17fe-4b67-9df5-c18a45a5f092}\n   ************* Only last 10 lines before error line shown.....\n   *************    603   Schedule:Week:Daily {0f13bfa9-17fe-4b67-9df5-c18a45a5f092}, !- Name\n   *************    604   Sp-Auditorium_ZN_1_FLR_1 Sys-3 Flr-2 Sch-C HPlcmt-north ZN NECB System 3 PSZ Occ Sch Sunday, !- Sunday Schedule:Day Name\n   *************    605   Sp-Auditorium_ZN_1_FLR_1 Sys-3 Flr-2 Sch-C HPlcmt-north ZN NECB System 3 PSZ Occ Sch Monday, !- Monday Schedule:Day Name\n   *************    606   Sp-Auditorium_ZN_1_FLR_1 Sys-3 Flr-2 Sch-C HPlcmt-north ZN NECB System 3 PSZ Occ Sch Tuesday, !- Tuesday Schedule:Day Name\n   *************    607   Sp-Auditorium_ZN_1_FLR_1 Sys-3 Flr-2 Sch-C HPlcmt-north ZN NECB System 3 PSZ Occ Sch Wednesday, !- Wednesday Schedule:Day Name\n   *************    608   Sp-Auditorium_ZN_1_FLR_1 Sys-3 Flr-2 Sch-C HPlcmt-north ZN NECB System 3 PSZ Occ Sch Thursday, !- Thursday Schedule:Day Name\n   *************    609   Sp-Auditorium_ZN_1_FLR_1 Sys-3 Flr-2 Sch-C HPlcmt-north ZN NECB System 3 PSZ Occ Sch Friday, !- Friday Schedule:Day Name\n   *************    610   Sp-Auditorium_ZN_1_FLR_1 Sys-3 Flr-2 Sch-C HPlcmt-north ZN NECB System 3 PSZ Occ Sch Saturday, !- Saturday Schedule:Day Name\n   *************    611   Sp-Auditorium_ZN_1_FLR_1 Sys-3 Flr-2 Sch-C HPlcmt-north ZN NECB System 3 PSZ Occ Sch Default, !- Holiday Schedule:Day Name\n   *************    612   Sp-Auditorium_ZN_1_FLR_1 Sys-3 Flr-2 Sch-C HPlcmt-north ZN NECB System 3 PSZ Occ Sch Summer Design Day, !- SummerDesignDay Schedule:Day Name\n   ** Warning ** IP: IDF line~612 Alpha Argument length exceeds maximum, will be truncated=  Sp-Auditorium_ZN_1_FLR_1 Sys-3 Flr-2 Sch-C HPlcmt-north ZN NECB System 3 PSZ Occ Sch Summer Design Da\n   **   ~~~   ** Will be processed as Alpha=SP-AUDITORIUM_ZN_1_FLR_1 SYS-3 FLR-2 SCH-C HPLCMT-NORTH ZN NECB SYSTEM 3 PSZ OCC SCH SUMMER DESIGN DAY\n   ************* IDF Context for following error/warning message:\n   ************* Note -- lines truncated at 300 characters, if necessary...\n   *************    602 Schedule:Week:Daily,\n   ************* indicated Name=Schedule:Week:Daily {0f13bfa9-17fe-4b67-9df5-c18a45a5f092}\n   ************* Only last 10 lines before error line shown.....\n   *************    604   Sp-Auditorium_ZN_1_FLR_1 Sys-3 Flr-2 Sch-C HPlcmt-north ZN NECB System 3 PSZ Occ Sch Sunday, !- Sunday Schedule:Day Name\n   *************    605   Sp-Auditorium_ZN_1_FLR_1 Sys-3 Flr-2 Sch-C HPlcmt-north ZN NECB System 3 PSZ Occ Sch Monday, !- Monday Schedule:Day Name\n   *************    606   Sp-Auditorium_ZN_1_FLR_1 Sys-3 Flr-2 Sch-C HPlcmt-north ZN NECB System 3 PSZ Occ Sch Tuesday, !- Tuesday Schedule:Day Name\n   *************    607   Sp-Auditorium_ZN_1_FLR_1 Sys-3 Flr-2 Sch-C HPlcmt-north ZN NECB System 3 PSZ Occ Sch Wednesday, !- Wednesday Schedule:Day Name\n   *************    608   Sp-Auditorium_ZN_1_FLR_1 Sys-3 Flr-2 Sch-C HPlcmt-north ZN NECB System 3 PSZ Occ Sch Thursday, !- Thursday Schedule:Day Name\n   *************    609   Sp-Auditorium_ZN_1_FLR_1 Sys-3 Flr-2 Sch-C HPlcmt-north ZN NECB System 3 PSZ Occ Sch Friday, !- Friday Schedule:Day Name\n   *************    610   Sp-Auditorium_ZN_1_FLR_1 Sys-3 Flr-2 Sch-C HPlcmt-north ZN NECB System 3 PSZ Occ Sch Saturday, !- Saturday Schedule:Day Name\n   *************    611   Sp-Auditorium_ZN_1_FLR_1 Sys-3 Flr-2 Sch-C HPlcmt-north ZN NECB System 3 PSZ Occ Sch Default, !- Holiday Schedule:Day Name\n   *************    612   Sp-Auditorium_ZN_1_FLR_1 Sys-3 Flr-2 Sch-C HPlcmt-north ZN NECB System 3 PSZ Occ Sch Summer Design Day, !- SummerDesignDay Schedule:Day Name\n   *************    613   Sp-Auditorium_ZN_1_FLR_1 Sys-3 Flr-2 Sch-C HPlcmt-north ZN NECB System 3 PSZ Occ Sch Winter Design Day, !- WinterDesignDay Schedule:Day Name\n   ** Warning ** IP: IDF line~613 Alpha Argument length exceeds maximum, will be truncated=  Sp-Auditorium_ZN_1_FLR_1 Sys-3 Flr-2 Sch-C HPlcmt-north ZN NECB System 3 PSZ Occ Sch Winter Design Da\n   **   ~~~   ** Will be processed as Alpha=SP-AUDITORIUM_ZN_1_FLR_1 SYS-3 FLR-2 SCH-C HPLCMT-NORTH ZN NECB SYSTEM 3 PSZ OCC SCH WINTER DESIGN DAY\n   ************* IDF Context for following error/warning message:\n   ************* Note -- lines truncated at 300 characters, if necessary...\n   *************    633 Schedule:Day:Interval,\n   ************* indicated Name=Sp-Auditorium_ZN_1_FLR_1 Sys-3 Flr-2 Sch-C HPlcmt-north ZN NECB System 3 PSZ Occ Sch Summer Design Day\n   ************* Only last 1 lines before error line shown.....\n   *************    634   Sp-Auditorium_ZN_1_FLR_1 Sys-3 Flr-2 Sch-C HPlcmt-north ZN NECB System 3 PSZ Occ Sch Summer Design Day, !- Name\n   ** Warning ** IP: IDF line~634 Alpha Argument length exceeds maximum, will be truncated=  Sp-Auditorium_ZN_1_FLR_1 Sys-3 Flr-2 Sch-C HPlcmt-north ZN NECB System 3 PSZ Occ Sch Summer Design Da\n   **   ~~~   ** Will be processed as Alpha=SP-AUDITORIUM_ZN_1_FLR_1 SYS-3 FLR-2 SCH-C HPLCMT-NORTH ZN NECB SYSTEM 3 PSZ OCC SCH SUMMER DESIGN DAY\n   ************* IDF Context for following error/warning message:\n   ************* Note -- lines truncated at 300 characters, if necessary...\n   *************    640 Schedule:Day:Interval,\n   ************* indicated Name=Sp-Auditorium_ZN_1_FLR_1 Sys-3 Flr-2 Sch-C HPlcmt-north ZN NECB System 3 PSZ Occ Sch Winter Design Day\n   ************* Only last 1 lines before error line shown.....\n   *************    641   Sp-Auditorium_ZN_1_FLR_1 Sys-3 Flr-2 Sch-C HPlcmt-north ZN NECB System 3 PSZ Occ Sch Winter Design Day, !- Name\n   ** Warning ** IP: IDF line~641 Alpha Argument length exceeds maximum, will be truncated=  Sp-Auditorium_ZN_1_FLR_1 Sys-3 Flr-2 Sch-C HPlcmt-north ZN NECB System 3 PSZ Occ Sch Winter Design Da\n   **   ~~~   ** Will be processed as Alpha=SP-AUDITORIUM_ZN_1_FLR_1 SYS-3 FLR-2 SCH-C HPLCMT-NORTH ZN NECB SYSTEM 3 PSZ OCC SCH WINTER DESIGN DAY\n   ************* IDF Context for following error/warning message:\n   ************* Note -- lines truncated at 300 characters, if necessary...\n   *************   2680 Schedule:Week:Daily,\n   ************* indicated Name=Schedule:Week:Daily {bcf1d40c-8e74-4709-bcda-54f1f7131cc5}\n   ************* Only last 10 lines before error line shown.....\n   *************   2681   Schedule:Week:Daily {bcf1d40c-8e74-4709-bcda-54f1f7131cc5}, !- Name\n   *************   2682   Sp-Bathrooms_ZN_1_FLR_2 Sys-3 Flr-1 Sch-D HPlcmt-north ZN NECB System 3 PSZ Occ Sch Sunday, !- Sunday Schedule:Day Name\n   *************   2683   Sp-Bathrooms_ZN_1_FLR_2 Sys-3 Flr-1 Sch-D HPlcmt-north ZN NECB System 3 PSZ Occ Sch Monday, !- Monday Schedule:Day Name\n   *************   2684   Sp-Bathrooms_ZN_1_FLR_2 Sys-3 Flr-1 Sch-D HPlcmt-north ZN NECB System 3 PSZ Occ Sch Tuesday, !- Tuesday Schedule:Day Name\n   *************   2685   Sp-Bathrooms_ZN_1_FLR_2 Sys-3 Flr-1 Sch-D HPlcmt-north ZN NECB System 3 PSZ Occ Sch Wednesday, !- Wednesday Schedule:Day Name\n   *************   2686   Sp-Bathrooms_ZN_1_FLR_2 Sys-3 Flr-1 Sch-D HPlcmt-north ZN NECB System 3 PSZ Occ Sch Thursday, !- Thursday Schedule:Day Name\n   *************   2687   Sp-Bathrooms_ZN_1_FLR_2 Sys-3 Flr-1 Sch-D HPlcmt-north ZN NECB System 3 PSZ Occ Sch Friday, !- Friday Schedule:Day Name\n   *************   2688   Sp-Bathrooms_ZN_1_FLR_2 Sys-3 Flr-1 Sch-D HPlcmt-north ZN NECB System 3 PSZ Occ Sch Saturday, !- Saturday Schedule:Day Name\n   *************   2689   Sp-Bathrooms_ZN_1_FLR_2 Sys-3 Flr-1 Sch-D HPlcmt-north ZN NECB System 3 PSZ Occ Sch Default, !- Holiday Schedule:Day Name\n   *************   2690   Sp-Bathrooms_ZN_1_FLR_2 Sys-3 Flr-1 Sch-D HPlcmt-north ZN NECB System 3 PSZ Occ Sch Summer Design Day, !- SummerDesignDay Schedule:Day Name\n   ** Warning ** IP: IDF line~2690 Alpha Argument length exceeds maximum, will be truncated=  Sp-Bathrooms_ZN_1_FLR_2 Sys-3 Flr-1 Sch-D HPlcmt-north ZN NECB System 3 PSZ Occ Sch Summer Design Da\n   **   ~~~   ** Will be processed as Alpha=SP-BATHROOMS_ZN_1_FLR_2 SYS-3 FLR-1 SCH-D HPLCMT-NORTH ZN NECB SYSTEM 3 PSZ OCC SCH SUMMER DESIGN DAY\n   ************* IDF Context for following error/warning message:\n   ************* Note -- lines truncated at 300 characters, if necessary...\n   *************   2680 Schedule:Week:Daily,\n   ************* indicated Name=Schedule:Week:Daily {bcf1d40c-8e74-4709-bcda-54f1f7131cc5}\n   ************* Only last 10 lines before error line shown.....\n   *************   2682   Sp-Bathrooms_ZN_1_FLR_2 Sys-3 Flr-1 Sch-D HPlcmt-north ZN NECB System 3 PSZ Occ Sch Sunday, !- Sunday Schedule:Day Name\n   *************   2683   Sp-Bathrooms_ZN_1_FLR_2 Sys-3 Flr-1 Sch-D HPlcmt-north ZN NECB System 3 PSZ Occ Sch Monday, !- Monday Schedule:Day Name\n   *************   2684   Sp-Bathrooms_ZN_1_FLR_2 Sys-3 Flr-1 Sch-D HPlcmt-north ZN NECB System 3 PSZ Occ Sch Tuesday, !- Tuesday Schedule:Day Name\n   *************   2685   Sp-Bathrooms_ZN_1_FLR_2 Sys-3 Flr-1 Sch-D HPlcmt-north ZN NECB System 3 PSZ Occ Sch Wednesday, !- Wednesday Schedule:Day Name\n   *************   2686   Sp-Bathrooms_ZN_1_FLR_2 Sys-3 Flr-1 Sch-D HPlcmt-north ZN NECB System 3 PSZ Occ Sch Thursday, !- Thursday Schedule:Day Name\n   *************   2687   Sp-Bathrooms_ZN_1_FLR_2 Sys-3 Flr-1 Sch-D HPlcmt-north ZN NECB System 3 PSZ Occ Sch Friday, !- Friday Schedule:Day Name\n   *************   2688   Sp-Bathrooms_ZN_1_FLR_2 Sys-3 Flr-1 Sch-D HPlcmt-north ZN NECB System 3 PSZ Occ Sch Saturday, !- Saturday Schedule:Day Name\n   *************   2689   Sp-Bathrooms_ZN_1_FLR_2 Sys-3 Flr-1 Sch-D HPlcmt-north ZN NECB System 3 PSZ Occ Sch Default, !- Holiday Schedule:Day Name\n   *************   2690   Sp-Bathrooms_ZN_1_FLR_2 Sys-3 Flr-1 Sch-D HPlcmt-north ZN NECB System 3 PSZ Occ Sch Summer Design Day, !- SummerDesignDay Schedule:Day Name\n   *************   2691   Sp-Bathrooms_ZN_1_FLR_2 Sys-3 Flr-1 Sch-D HPlcmt-north ZN NECB System 3 PSZ Occ Sch Winter Design Day, !- WinterDesignDay Schedule:Day Name\n   ** Warning ** IP: IDF line~2691 Alpha Argument length exceeds maximum, will be truncated=  Sp-Bathrooms_ZN_1_FLR_2 Sys-3 Flr-1 Sch-D HPlcmt-north ZN NECB System 3 PSZ Occ Sch Winter Design Da\n   **   ~~~   ** Will be processed as Alpha=SP-BATHROOMS_ZN_1_FLR_2 SYS-3 FLR-1 SCH-D HPLCMT-NORTH ZN NECB SYSTEM 3 PSZ OCC SCH WINTER DESIGN DAY\n   ************* IDF Context for following error/warning message:\n   ************* Note -- lines truncated at 300 characters, if necessary...\n   *************   2711 Schedule:Day:Interval,\n   ************* indicated Name=Sp-Bathrooms_ZN_1_FLR_2 Sys-3 Flr-1 Sch-D HPlcmt-north ZN NECB System 3 PSZ Occ Sch Summer Design Day\n   ************* Only last 1 lines before error line shown.....\n   *************   2712   Sp-Bathrooms_ZN_1_FLR_2 Sys-3 Flr-1 Sch-D HPlcmt-north ZN NECB System 3 PSZ Occ Sch Summer Design Day, !- Name\n   ** Warning ** IP: IDF line~2712 Alpha Argument length exceeds maximum, will be truncated=  Sp-Bathrooms_ZN_1_FLR_2 Sys-3 Flr-1 Sch-D HPlcmt-north ZN NECB System 3 PSZ Occ Sch Summer Design Da\n   **   ~~~   ** Will be processed as Alpha=SP-BATHROOMS_ZN_1_FLR_2 SYS-3 FLR-1 SCH-D HPLCMT-NORTH ZN NECB SYSTEM 3 PSZ OCC SCH SUMMER DESIGN DAY\n   ************* IDF Context for following error/warning message:\n   ************* Note -- lines truncated at 300 characters, if necessary...\n   *************   2718 Schedule:Day:Interval,\n   ************* indicated Name=Sp-Bathrooms_ZN_1_FLR_2 Sys-3 Flr-1 Sch-D HPlcmt-north ZN NECB System 3 PSZ Occ Sch Winter Design Day\n   ************* Only last 1 lines before error line shown.....\n   *************   2719   Sp-Bathrooms_ZN_1_FLR_2 Sys-3 Flr-1 Sch-D HPlcmt-north ZN NECB System 3 PSZ Occ Sch Winter Design Day, !- Name\n   ** Warning ** IP: IDF line~2719 Alpha Argument length exceeds maximum, will be truncated=  Sp-Bathrooms_ZN_1_FLR_2 Sys-3 Flr-1 Sch-D HPlcmt-north ZN NECB System 3 PSZ Occ Sch Winter Design Da\n   **   ~~~   ** Will be processed as Alpha=SP-BATHROOMS_ZN_1_FLR_2 SYS-3 FLR-1 SCH-D HPLCMT-NORTH ZN NECB SYSTEM 3 PSZ OCC SCH WINTER DESIGN DAY\n   ************* IDF Context for following error/warning message:\n   ************* Note -- lines truncated at 300 characters, if necessary...\n   *************   3379 Schedule:Day:Interval,\n   ************* indicated Name=Sp-Corner_Class_1_Pod_1_ZN_1_FLR_1 Sys-3 Flr-2 Sch-D HPlcmt-south ZN NECB System 3 PSZ Occ Sch Sunday\n   ************* Only last 1 lines before error line shown.....\n   *************   3380   Sp-Corner_Class_1_Pod_1_ZN_1_FLR_1 Sys-3 Flr-2 Sch-D HPlcmt-south ZN NECB System 3 PSZ Occ Sch Sunday, !- Name\n   ** Warning ** IP: IDF line~3380 Alpha Argument length exceeds maximum, will be truncated=  Sp-Corner_Class_1_Pod_1_ZN_1_FLR_1 Sys-3 Flr-2 Sch-D HPlcmt-south ZN NECB System 3 PSZ Occ Sch Sunda\n   **   ~~~   ** Will be processed as Alpha=SP-CORNER_CLASS_1_POD_1_ZN_1_FLR_1 SYS-3 FLR-2 SCH-D HPLCMT-SOUTH ZN NECB SYSTEM 3 PSZ OCC SCH SUNDAY\n   ************* IDF Context for following error/warning message:\n   ************* Note -- lines truncated at 300 characters, if necessary...\n   *************   3386 Schedule:Day:Interval,\n   ************* indicated Name=Sp-Corner_Class_1_Pod_1_ZN_1_FLR_1 Sys-3 Flr-2 Sch-D HPlcmt-south ZN NECB System 3 PSZ Occ Sch Monday\n   ************* Only last 1 lines before error line shown.....\n   *************   3387   Sp-Corner_Class_1_Pod_1_ZN_1_FLR_1 Sys-3 Flr-2 Sch-D HPlcmt-south ZN NECB System 3 PSZ Occ Sch Monday, !- Name\n   ** Warning ** IP: IDF line~3387 Alpha Argument length exceeds maximum, will be truncated=  Sp-Corner_Class_1_Pod_1_ZN_1_FLR_1 Sys-3 Flr-2 Sch-D HPlcmt-south ZN NECB System 3 PSZ Occ Sch Monda\n   **   ~~~   ** Will be processed as Alpha=SP-CORNER_CLASS_1_POD_1_ZN_1_FLR_1 SYS-3 FLR-2 SCH-D HPLCMT-SOUTH ZN NECB SYSTEM 3 PSZ OCC SCH MONDAY\n   ************* IDF Context for following error/warning message:\n   ************* Note -- lines truncated at 300 characters, if necessary...\n   *************   3401 Schedule:Day:Interval,\n   ************* indicated Name=Sp-Corner_Class_1_Pod_1_ZN_1_FLR_1 Sys-3 Flr-2 Sch-D HPlcmt-south ZN NECB System 3 PSZ Occ Sch Tuesday\n   ************* Only last 1 lines before error line shown.....\n   *************   3402   Sp-Corner_Class_1_Pod_1_ZN_1_FLR_1 Sys-3 Flr-2 Sch-D HPlcmt-south ZN NECB System 3 PSZ Occ Sch Tuesday, !- Name\n   ** Warning ** IP: IDF line~3402 Alpha Argument length exceeds maximum, will be truncated=  Sp-Corner_Class_1_Pod_1_ZN_1_FLR_1 Sys-3 Flr-2 Sch-D HPlcmt-south ZN NECB System 3 PSZ Occ Sch Tuesda\n   **   ~~~   ** Will be processed as Alpha=SP-CORNER_CLASS_1_POD_1_ZN_1_FLR_1 SYS-3 FLR-2 SCH-D HPLCMT-SOUTH ZN NECB SYSTEM 3 PSZ OCC SCH TUESDAY\n   ************* IDF Context for following error/warning message:\n   ************* Note -- lines truncated at 300 characters, if necessary...\n   *************   3416 Schedule:Day:Interval,\n   ************* indicated Name=Sp-Corner_Class_1_Pod_1_ZN_1_FLR_1 Sys-3 Flr-2 Sch-D HPlcmt-south ZN NECB System 3 PSZ Occ Sch Wednesday\n   ************* Only last 1 lines before error line shown.....\n   *************   3417   Sp-Corner_Class_1_Pod_1_ZN_1_FLR_1 Sys-3 Flr-2 Sch-D HPlcmt-south ZN NECB System 3 PSZ Occ Sch Wednesday, !- Name\n   ** Warning ** IP: IDF line~3417 Alpha Argument length exceeds maximum, will be truncated=  Sp-Corner_Class_1_Pod_1_ZN_1_FLR_1 Sys-3 Flr-2 Sch-D HPlcmt-south ZN NECB System 3 PSZ Occ Sch Wednesda\n   **   ~~~   ** Will be processed as Alpha=SP-CORNER_CLASS_1_POD_1_ZN_1_FLR_1 SYS-3 FLR-2 SCH-D HPLCMT-SOUTH ZN NECB SYSTEM 3 PSZ OCC SCH WEDNESDAY\n   ************* IDF Context for following error/warning message:\n   ************* Note -- lines truncated at 300 characters, if necessary...\n   *************   3431 Schedule:Day:Interval,\n   ************* indicated Name=Sp-Corner_Class_1_Pod_1_ZN_1_FLR_1 Sys-3 Flr-2 Sch-D HPlcmt-south ZN NECB System 3 PSZ Occ Sch Thursday\n   ************* Only last 1 lines before error line shown.....\n   *************   3432   Sp-Corner_Class_1_Pod_1_ZN_1_FLR_1 Sys-3 Flr-2 Sch-D HPlcmt-south ZN NECB System 3 PSZ Occ Sch Thursday, !- Name\n   ** Warning ** IP: IDF line~3432 Alpha Argument length exceeds maximum, will be truncated=  Sp-Corner_Class_1_Pod_1_ZN_1_FLR_1 Sys-3 Flr-2 Sch-D HPlcmt-south ZN NECB System 3 PSZ Occ Sch Thursda\n   **   ~~~   ** Will be processed as Alpha=SP-CORNER_CLASS_1_POD_1_ZN_1_FLR_1 SYS-3 FLR-2 SCH-D HPLCMT-SOUTH ZN NECB SYSTEM 3 PSZ OCC SCH THURSDAY\n   ************* IDF Context for following error/warning message:\n   ************* Note -- lines truncated at 300 characters, if necessary...\n   *************   3446 Schedule:Day:Interval,\n   ************* indicated Name=Sp-Corner_Class_1_Pod_1_ZN_1_FLR_1 Sys-3 Flr-2 Sch-D HPlcmt-south ZN NECB System 3 PSZ Occ Sch Friday\n   ************* Only last 1 lines before error line shown.....\n   *************   3447   Sp-Corner_Class_1_Pod_1_ZN_1_FLR_1 Sys-3 Flr-2 Sch-D HPlcmt-south ZN NECB System 3 PSZ Occ Sch Friday, !- Name\n   ** Warning ** IP: IDF line~3447 Alpha Argument length exceeds maximum, will be truncated=  Sp-Corner_Class_1_Pod_1_ZN_1_FLR_1 Sys-3 Flr-2 Sch-D HPlcmt-south ZN NECB System 3 PSZ Occ Sch Frida\n   **   ~~~   ** Will be processed as Alpha=SP-CORNER_CLASS_1_POD_1_ZN_1_FLR_1 SYS-3 FLR-2 SCH-D HPLCMT-SOUTH ZN NECB SYSTEM 3 PSZ OCC SCH FRIDAY\n   ************* IDF Context for following error/warning message:\n   ************* Note -- lines truncated at 300 characters, if necessary...\n   *************   3461 Schedule:Day:Interval,\n   ************* indicated Name=Sp-Corner_Class_1_Pod_1_ZN_1_FLR_1 Sys-3 Flr-2 Sch-D HPlcmt-south ZN NECB System 3 PSZ Occ Sch Saturday\n   ************* Only last 1 lines before error line shown.....\n   *************   3462   Sp-Corner_Class_1_Pod_1_ZN_1_FLR_1 Sys-3 Flr-2 Sch-D HPlcmt-south ZN NECB System 3 PSZ Occ Sch Saturday, !- Name\n   ** Warning ** IP: IDF line~3462 Alpha Argument length exceeds maximum, will be truncated=  Sp-Corner_Class_1_Pod_1_ZN_1_FLR_1 Sys-3 Flr-2 Sch-D HPlcmt-south ZN NECB System 3 PSZ Occ Sch Saturda\n   **   ~~~   ** Will be processed as Alpha=SP-CORNER_CLASS_1_POD_1_ZN_1_FLR_1 SYS-3 FLR-2 SCH-D HPLCMT-SOUTH ZN NECB SYSTEM 3 PSZ OCC SCH SATURDAY\n   ************* IDF Context for following error/warning message:\n   ************* Note -- lines truncated at 300 characters, if necessary...\n   *************   3468 Schedule:Week:Daily,\n   ************* indicated Name=Schedule:Week:Daily {9bbd5a7f-3cb1-4e38-98f4-1c682d05116e}\n   ************* Only last 2 lines before error line shown.....\n   *************   3469   Schedule:Week:Daily {9bbd5a7f-3cb1-4e38-98f4-1c682d05116e}, !- Name\n   *************   3470   Sp-Corner_Class_1_Pod_1_ZN_1_FLR_1 Sys-3 Flr-2 Sch-D HPlcmt-south ZN NECB System 3 PSZ Occ Sch Sunday, !- Sunday Schedule:Day Name\n   ** Warning ** IP: IDF line~3470 Alpha Argument length exceeds maximum, will be truncated=  Sp-Corner_Class_1_Pod_1_ZN_1_FLR_1 Sys-3 Flr-2 Sch-D HPlcmt-south ZN NECB System 3 PSZ Occ Sch Sunda\n   **   ~~~   ** Will be processed as Alpha=SP-CORNER_CLASS_1_POD_1_ZN_1_FLR_1 SYS-3 FLR-2 SCH-D HPLCMT-SOUTH ZN NECB SYSTEM 3 PSZ OCC SCH SUNDAY\n   ************* IDF Context for following error/warning message:\n   ************* Note -- lines truncated at 300 characters, if necessary...\n   *************   3468 Schedule:Week:Daily,\n   ************* indicated Name=Schedule:Week:Daily {9bbd5a7f-3cb1-4e38-98f4-1c682d05116e}\n   ************* Only last 3 lines before error line shown.....\n   *************   3469   Schedule:Week:Daily {9bbd5a7f-3cb1-4e38-98f4-1c682d05116e}, !- Name\n   *************   3470   Sp-Corner_Class_1_Pod_1_ZN_1_FLR_1 Sys-3 Flr-2 Sch-D HPlcmt-south ZN NECB System 3 PSZ Occ Sch Sunday, !- Sunday Schedule:Day Name\n   *************   3471   Sp-Corner_Class_1_Pod_1_ZN_1_FLR_1 Sys-3 Flr-2 Sch-D HPlcmt-south ZN NECB System 3 PSZ Occ Sch Monday, !- Monday Schedule:Day Name\n   ** Warning ** IP: IDF line~3471 Alpha Argument length exceeds maximum, will be truncated=  Sp-Corner_Class_1_Pod_1_ZN_1_FLR_1 Sys-3 Flr-2 Sch-D HPlcmt-south ZN NECB System 3 PSZ Occ Sch Monda\n   **   ~~~   ** Will be processed as Alpha=SP-CORNER_CLASS_1_POD_1_ZN_1_FLR_1 SYS-3 FLR-2 SCH-D HPLCMT-SOUTH ZN NECB SYSTEM 3 PSZ OCC SCH MONDAY\n   ************* IDF Context for following error/warning message:\n   ************* Note -- lines truncated at 300 characters, if necessary...\n   *************   3468 Schedule:Week:Daily,\n   ************* indicated Name=Schedule:Week:Daily {9bbd5a7f-3cb1-4e38-98f4-1c682d05116e}\n   ************* Only last 4 lines before error line shown.....\n   *************   3469   Schedule:Week:Daily {9bbd5a7f-3cb1-4e38-98f4-1c682d05116e}, !- Name\n   *************   3470   Sp-Corner_Class_1_Pod_1_ZN_1_FLR_1 Sys-3 Flr-2 Sch-D HPlcmt-south ZN NECB System 3 PSZ Occ Sch Sunday, !- Sunday Schedule:Day Name\n   *************   3471   Sp-Corner_Class_1_Pod_1_ZN_1_FLR_1 Sys-3 Flr-2 Sch-D HPlcmt-south ZN NECB System 3 PSZ Occ Sch Monday, !- Monday Schedule:Day Name\n   *************   3472   Sp-Corner_Class_1_Pod_1_ZN_1_FLR_1 Sys-3 Flr-2 Sch-D HPlcmt-south ZN NECB System 3 PSZ Occ Sch Tuesday, !- Tuesday Schedule:Day Name\n   ** Warning ** IP: IDF line~3472 Alpha Argument length exceeds maximum, will be truncated=  Sp-Corner_Class_1_Pod_1_ZN_1_FLR_1 Sys-3 Flr-2 Sch-D HPlcmt-south ZN NECB System 3 PSZ Occ Sch Tuesda\n   **   ~~~   ** Will be processed as Alpha=SP-CORNER_CLASS_1_POD_1_ZN_1_FLR_1 SYS-3 FLR-2 SCH-D HPLCMT-SOUTH ZN NECB SYSTEM 3 PSZ OCC SCH TUESDAY\n   ************* IDF Context for following error/warning message:\n   ************* Note -- lines truncated at 300 characters, if necessary...\n   *************   3468 Schedule:Week:Daily,\n   ************* indicated Name=Schedule:Week:Daily {9bbd5a7f-3cb1-4e38-98f4-1c682d05116e}\n   ************* Only last 5 lines before error line shown.....\n   *************   3469   Schedule:Week:Daily {9bbd5a7f-3cb1-4e38-98f4-1c682d05116e}, !- Name\n   *************   3470   Sp-Corner_Class_1_Pod_1_ZN_1_FLR_1 Sys-3 Flr-2 Sch-D HPlcmt-south ZN NECB System 3 PSZ Occ Sch Sunday, !- Sunday Schedule:Day Name\n   *************   3471   Sp-Corner_Class_1_Pod_1_ZN_1_FLR_1 Sys-3 Flr-2 Sch-D HPlcmt-south ZN NECB System 3 PSZ Occ Sch Monday, !- Monday Schedule:Day Name\n   *************   3472   Sp-Corner_Class_1_Pod_1_ZN_1_FLR_1 Sys-3 Flr-2 Sch-D HPlcmt-south ZN NECB System 3 PSZ Occ Sch Tuesday, !- Tuesday Schedule:Day Name\n   *************   3473   Sp-Corner_Class_1_Pod_1_ZN_1_FLR_1 Sys-3 Flr-2 Sch-D HPlcmt-south ZN NECB System 3 PSZ Occ Sch Wednesday, !- Wednesday Schedule:Day Name\n   ** Warning ** IP: IDF line~3473 Alpha Argument length exceeds maximum, will be truncated=  Sp-Corner_Class_1_Pod_1_ZN_1_FLR_1 Sys-3 Flr-2 Sch-D HPlcmt-south ZN NECB System 3 PSZ Occ Sch Wednesda\n   **   ~~~   ** Will be processed as Alpha=SP-CORNER_CLASS_1_POD_1_ZN_1_FLR_1 SYS-3 FLR-2 SCH-D HPLCMT-SOUTH ZN NECB SYSTEM 3 PSZ OCC SCH WEDNESDAY\n   ************* IDF Context for following error/warning message:\n   ************* Note -- lines truncated at 300 characters, if necessary...\n   *************   3468 Schedule:Week:Daily,\n   ************* indicated Name=Schedule:Week:Daily {9bbd5a7f-3cb1-4e38-98f4-1c682d05116e}\n   ************* Only last 6 lines before error line shown.....\n   *************   3469   Schedule:Week:Daily {9bbd5a7f-3cb1-4e38-98f4-1c682d05116e}, !- Name\n   *************   3470   Sp-Corner_Class_1_Pod_1_ZN_1_FLR_1 Sys-3 Flr-2 Sch-D HPlcmt-south ZN NECB System 3 PSZ Occ Sch Sunday, !- Sunday Schedule:Day Name\n   *************   3471   Sp-Corner_Class_1_Pod_1_ZN_1_FLR_1 Sys-3 Flr-2 Sch-D HPlcmt-south ZN NECB System 3 PSZ Occ Sch Monday, !- Monday Schedule:Day Name\n   *************   3472   Sp-Corner_Class_1_Pod_1_ZN_1_FLR_1 Sys-3 Flr-2 Sch-D HPlcmt-south ZN NECB System 3 PSZ Occ Sch Tuesday, !- Tuesday Schedule:Day Name\n   *************   3473   Sp-Corner_Class_1_Pod_1_ZN_1_FLR_1 Sys-3 Flr-2 Sch-D HPlcmt-south ZN NECB System 3 PSZ Occ Sch Wednesday, !- Wednesday Schedule:Day Name\n   *************   3474   Sp-Corner_Class_1_Pod_1_ZN_1_FLR_1 Sys-3 Flr-2 Sch-D HPlcmt-south ZN NECB System 3 PSZ Occ Sch Thursday, !- Thursday Schedule:Day Name\n   ** Warning ** IP: IDF line~3474 Alpha Argument length exceeds maximum, will be truncated=  Sp-Corner_Class_1_Pod_1_ZN_1_FLR_1 Sys-3 Flr-2 Sch-D HPlcmt-south ZN NECB System 3 PSZ Occ Sch Thursda\n   **   ~~~   ** Will be processed as Alpha=SP-CORNER_CLASS_1_POD_1_ZN_1_FLR_1 SYS-3 FLR-2 SCH-D HPLCMT-SOUTH ZN NECB SYSTEM 3 PSZ OCC SCH THURSDAY\n   ************* IDF Context for following error/warning message:\n   ************* Note -- lines truncated at 300 characters, if necessary...\n   *************   3468 Schedule:Week:Daily,\n   ************* indicated Name=Schedule:Week:Daily {9bbd5a7f-3cb1-4e38-98f4-1c682d05116e}\n   ************* Only last 7 lines before error line shown.....\n   *************   3469   Schedule:Week:Daily {9bbd5a7f-3cb1-4e38-98f4-1c682d05116e}, !- Name\n   *************   3470   Sp-Corner_Class_1_Pod_1_ZN_1_FLR_1 Sys-3 Flr-2 Sch-D HPlcmt-south ZN NECB System 3 PSZ Occ Sch Sunday, !- Sunday Schedule:Day Name\n   *************   3471   Sp-Corner_Class_1_Pod_1_ZN_1_FLR_1 Sys-3 Flr-2 Sch-D HPlcmt-south ZN NECB System 3 PSZ Occ Sch Monday, !- Monday Schedule:Day Name\n   *************   3472   Sp-Corner_Class_1_Pod_1_ZN_1_FLR_1 Sys-3 Flr-2 Sch-D HPlcmt-south ZN NECB System 3 PSZ Occ Sch Tuesday, !- Tuesday Schedule:Day Name\n   *************   3473   Sp-Corner_Class_1_Pod_1_ZN_1_FLR_1 Sys-3 Flr-2 Sch-D HPlcmt-south ZN NECB System 3 PSZ Occ Sch Wednesday, !- Wednesday Schedule:Day Name\n   *************   3474   Sp-Corner_Class_1_Pod_1_ZN_1_FLR_1 Sys-3 Flr-2 Sch-D HPlcmt-south ZN NECB System 3 PSZ Occ Sch Thursday, !- Thursday Schedule:Day Name\n   *************   3475   Sp-Corner_Class_1_Pod_1_ZN_1_FLR_1 Sys-3 Flr-2 Sch-D HPlcmt-south ZN NECB System 3 PSZ Occ Sch Friday, !- Friday Schedule:Day Name\n   ** Warning ** IP: IDF line~3475 Alpha Argument length exceeds maximum, will be truncated=  Sp-Corner_Class_1_Pod_1_ZN_1_FLR_1 Sys-3 Flr-2 Sch-D HPlcmt-south ZN NECB System 3 PSZ Occ Sch Frida\n   **   ~~~   ** Will be processed as Alpha=SP-CORNER_CLASS_1_POD_1_ZN_1_FLR_1 SYS-3 FLR-2 SCH-D HPLCMT-SOUTH ZN NECB SYSTEM 3 PSZ OCC SCH FRIDAY\n   ************* IDF Context for following error/warning message:\n   ************* Note -- lines truncated at 300 characters, if necessary...\n   *************   3468 Schedule:Week:Daily,\n   ************* indicated Name=Schedule:Week:Daily {9bbd5a7f-3cb1-4e38-98f4-1c682d05116e}\n   ************* Only last 8 lines before error line shown.....\n   *************   3469   Schedule:Week:Daily {9bbd5a7f-3cb1-4e38-98f4-1c682d05116e}, !- Name\n   *************   3470   Sp-Corner_Class_1_Pod_1_ZN_1_FLR_1 Sys-3 Flr-2 Sch-D HPlcmt-south ZN NECB System 3 PSZ Occ Sch Sunday, !- Sunday Schedule:Day Name\n   *************   3471   Sp-Corner_Class_1_Pod_1_ZN_1_FLR_1 Sys-3 Flr-2 Sch-D HPlcmt-south ZN NECB System 3 PSZ Occ Sch Monday, !- Monday Schedule:Day Name\n   *************   3472   Sp-Corner_Class_1_Pod_1_ZN_1_FLR_1 Sys-3 Flr-2 Sch-D HPlcmt-south ZN NECB System 3 PSZ Occ Sch Tuesday, !- Tuesday Schedule:Day Name\n   *************   3473   Sp-Corner_Class_1_Pod_1_ZN_1_FLR_1 Sys-3 Flr-2 Sch-D HPlcmt-south ZN NECB System 3 PSZ Occ Sch Wednesday, !- Wednesday Schedule:Day Name\n   *************   3474   Sp-Corner_Class_1_Pod_1_ZN_1_FLR_1 Sys-3 Flr-2 Sch-D HPlcmt-south ZN NECB System 3 PSZ Occ Sch Thursday, !- Thursday Schedule:Day Name\n   *************   3475   Sp-Corner_Class_1_Pod_1_ZN_1_FLR_1 Sys-3 Flr-2 Sch-D HPlcmt-south ZN NECB System 3 PSZ Occ Sch Friday, !- Friday Schedule:Day Name\n   *************   3476   Sp-Corner_Class_1_Pod_1_ZN_1_FLR_1 Sys-3 Flr-2 Sch-D HPlcmt-south ZN NECB System 3 PSZ Occ Sch Saturday, !- Saturday Schedule:Day Name\n   ** Warning ** IP: IDF line~3476 Alpha Argument length exceeds maximum, will be truncated=  Sp-Corner_Class_1_Pod_1_ZN_1_FLR_1 Sys-3 Flr-2 Sch-D HPlcmt-south ZN NECB System 3 PSZ Occ Sch Saturda\n   **   ~~~   ** Will be processed as Alpha=SP-CORNER_CLASS_1_POD_1_ZN_1_FLR_1 SYS-3 FLR-2 SCH-D HPLCMT-SOUTH ZN NECB SYSTEM 3 PSZ OCC SCH SATURDAY\n   ************* IDF Context for following error/warning message:\n   ************* Note -- lines truncated at 300 characters, if necessary...\n   *************   3468 Schedule:Week:Daily,\n   ************* indicated Name=Schedule:Week:Daily {9bbd5a7f-3cb1-4e38-98f4-1c682d05116e}\n   ************* Only last 9 lines before error line shown.....\n   *************   3469   Schedule:Week:Daily {9bbd5a7f-3cb1-4e38-98f4-1c682d05116e}, !- Name\n   *************   3470   Sp-Corner_Class_1_Pod_1_ZN_1_FLR_1 Sys-3 Flr-2 Sch-D HPlcmt-south ZN NECB System 3 PSZ Occ Sch Sunday, !- Sunday Schedule:Day Name\n   *************   3471   Sp-Corner_Class_1_Pod_1_ZN_1_FLR_1 Sys-3 Flr-2 Sch-D HPlcmt-south ZN NECB System 3 PSZ Occ Sch Monday, !- Monday Schedule:Day Name\n   *************   3472   Sp-Corner_Class_1_Pod_1_ZN_1_FLR_1 Sys-3 Flr-2 Sch-D HPlcmt-south ZN NECB System 3 PSZ Occ Sch Tuesday, !- Tuesday Schedule:Day Name\n   *************   3473   Sp-Corner_Class_1_Pod_1_ZN_1_FLR_1 Sys-3 Flr-2 Sch-D HPlcmt-south ZN NECB System 3 PSZ Occ Sch Wednesday, !- Wednesday Schedule:Day Name\n   *************   3474   Sp-Corner_Class_1_Pod_1_ZN_1_FLR_1 Sys-3 Flr-2 Sch-D HPlcmt-south ZN NECB System 3 PSZ Occ Sch Thursday, !- Thursday Schedule:Day Name\n   *************   3475   Sp-Corner_Class_1_Pod_1_ZN_1_FLR_1 Sys-3 Flr-2 Sch-D HPlcmt-south ZN NECB System 3 PSZ Occ Sch Friday, !- Friday Schedule:Day Name\n   *************   3476   Sp-Corner_Class_1_Pod_1_ZN_1_FLR_1 Sys-3 Flr-2 Sch-D HPlcmt-south ZN NECB System 3 PSZ Occ Sch Saturday, !- Saturday Schedule:Day Name\n   *************   3477   Sp-Corner_Class_1_Pod_1_ZN_1_FLR_1 Sys-3 Flr-2 Sch-D HPlcmt-south ZN NECB System 3 PSZ Occ Sch Default, !- Holiday Schedule:Day Name\n   ** Warning ** IP: IDF line~3477 Alpha Argument length exceeds maximum, will be truncated=  Sp-Corner_Class_1_Pod_1_ZN_1_FLR_1 Sys-3 Flr-2 Sch-D HPlcmt-south ZN NECB System 3 PSZ Occ Sch Defaul\n   **   ~~~   ** Will be processed as Alpha=SP-CORNER_CLASS_1_POD_1_ZN_1_FLR_1 SYS-3 FLR-2 SCH-D HPLCMT-SOUTH ZN NECB SYSTEM 3 PSZ OCC SCH DEFAULT\n   ************* IDF Context for following error/warning message:\n   ************* Note -- lines truncated at 300 characters, if necessary...\n   *************   3468 Schedule:Week:Daily,\n   ************* indicated Name=Schedule:Week:Daily {9bbd5a7f-3cb1-4e38-98f4-1c682d05116e}\n   ************* Only last 10 lines before error line shown.....\n   *************   3469   Schedule:Week:Daily {9bbd5a7f-3cb1-4e38-98f4-1c682d05116e}, !- Name\n   *************   3470   Sp-Corner_Class_1_Pod_1_ZN_1_FLR_1 Sys-3 Flr-2 Sch-D HPlcmt-south ZN NECB System 3 PSZ Occ Sch Sunday, !- Sunday Schedule:Day Name\n   *************   3471   Sp-Corner_Class_1_Pod_1_ZN_1_FLR_1 Sys-3 Flr-2 Sch-D HPlcmt-south ZN NECB System 3 PSZ Occ Sch Monday, !- Monday Schedule:Day Name\n   *************   3472   Sp-Corner_Class_1_Pod_1_ZN_1_FLR_1 Sys-3 Flr-2 Sch-D HPlcmt-south ZN NECB System 3 PSZ Occ Sch Tuesday, !- Tuesday Schedule:Day Name\n   *************   3473   Sp-Corner_Class_1_Pod_1_ZN_1_FLR_1 Sys-3 Flr-2 Sch-D HPlcmt-south ZN NECB System 3 PSZ Occ Sch Wednesday, !- Wednesday Schedule:Day Name\n   *************   3474   Sp-Corner_Class_1_Pod_1_ZN_1_FLR_1 Sys-3 Flr-2 Sch-D HPlcmt-south ZN NECB System 3 PSZ Occ Sch Thursday, !- Thursday Schedule:Day Name\n   *************   3475   Sp-Corner_Class_1_Pod_1_ZN_1_FLR_1 Sys-3 Flr-2 Sch-D HPlcmt-south ZN NECB System 3 PSZ Occ Sch Friday, !- Friday Schedule:Day Name\n   *************   3476   Sp-Corner_Class_1_Pod_1_ZN_1_FLR_1 Sys-3 Flr-2 Sch-D HPlcmt-south ZN NECB System 3 PSZ Occ Sch Saturday, !- Saturday Schedule:Day Name\n   *************   3477   Sp-Corner_Class_1_Pod_1_ZN_1_FLR_1 Sys-3 Flr-2 Sch-D HPlcmt-south ZN NECB System 3 PSZ Occ Sch Default, !- Holiday Schedule:Day Name\n   *************   3478   Sp-Corner_Class_1_Pod_1_ZN_1_FLR_1 Sys-3 Flr-2 Sch-D HPlcmt-south ZN NECB System 3 PSZ Occ Sch Summer Design Day, !- SummerDesignDay Schedule:Day Name\n   ** Warning ** IP: IDF line~3478 Alpha Argument length exceeds maximum, will be truncated=  Sp-Corner_Class_1_Pod_1_ZN_1_FLR_1 Sys-3 Flr-2 Sch-D HPlcmt-south ZN NECB System 3 PSZ Occ Sch Summer Design Da\n   **   ~~~   ** Will be processed as Alpha=SP-CORNER_CLASS_1_POD_1_ZN_1_FLR_1 SYS-3 FLR-2 SCH-D HPLCMT-SOUTH ZN NECB SYSTEM 3 PSZ OCC SCH SUMMER DESIGN DAY\n   ************* IDF Context for following error/warning message:\n   ************* Note -- lines truncated at 300 characters, if necessary...\n   *************   3468 Schedule:Week:Daily,\n   ************* indicated Name=Schedule:Week:Daily {9bbd5a7f-3cb1-4e38-98f4-1c682d05116e}\n   ************* Only last 10 lines before error line shown.....\n   *************   3470   Sp-Corner_Class_1_Pod_1_ZN_1_FLR_1 Sys-3 Flr-2 Sch-D HPlcmt-south ZN NECB System 3 PSZ Occ Sch Sunday, !- Sunday Schedule:Day Name\n   *************   3471   Sp-Corner_Class_1_Pod_1_ZN_1_FLR_1 Sys-3 Flr-2 Sch-D HPlcmt-south ZN NECB System 3 PSZ Occ Sch Monday, !- Monday Schedule:Day Name\n   *************   3472   Sp-Corner_Class_1_Pod_1_ZN_1_FLR_1 Sys-3 Flr-2 Sch-D HPlcmt-south ZN NECB System 3 PSZ Occ Sch Tuesday, !- Tuesday Schedule:Day Name\n   *************   3473   Sp-Corner_Class_1_Pod_1_ZN_1_FLR_1 Sys-3 Flr-2 Sch-D HPlcmt-south ZN NECB System 3 PSZ Occ Sch Wednesday, !- Wednesday Schedule:Day Name\n   *************   3474   Sp-Corner_Class_1_Pod_1_ZN_1_FLR_1 Sys-3 Flr-2 Sch-D HPlcmt-south ZN NECB System 3 PSZ Occ Sch Thursday, !- Thursday Schedule:Day Name\n   *************   3475   Sp-Corner_Class_1_Pod_1_ZN_1_FLR_1 Sys-3 Flr-2 Sch-D HPlcmt-south ZN NECB System 3 PSZ Occ Sch Friday, !- Friday Schedule:Day Name\n   *************   3476   Sp-Corner_Class_1_Pod_1_ZN_1_FLR_1 Sys-3 Flr-2 Sch-D HPlcmt-south ZN NECB System 3 PSZ Occ Sch Saturday, !- Saturday Schedule:Day Name\n   *************   3477   Sp-Corner_Class_1_Pod_1_ZN_1_FLR_1 Sys-3 Flr-2 Sch-D HPlcmt-south ZN NECB System 3 PSZ Occ Sch Default, !- Holiday Schedule:Day Name\n   *************   3478   Sp-Corner_Class_1_Pod_1_ZN_1_FLR_1 Sys-3 Flr-2 Sch-D HPlcmt-south ZN NECB System 3 PSZ Occ Sch Summer Design Day, !- SummerDesignDay Schedule:Day Name\n   *************   3479   Sp-Corner_Class_1_Pod_1_ZN_1_FLR_1 Sys-3 Flr-2 Sch-D HPlcmt-south ZN NECB System 3 PSZ Occ Sch Winter Design Day, !- WinterDesignDay Schedule:Day Name\n   ** Warning ** IP: IDF line~3479 Alpha Argument length exceeds maximum, will be truncated=  Sp-Corner_Class_1_Pod_1_ZN_1_FLR_1 Sys-3 Flr-2 Sch-D HPlcmt-south ZN NECB System 3 PSZ Occ Sch Winter Design Da\n   **   ~~~   ** Will be processed as Alpha=SP-CORNER_CLASS_1_POD_1_ZN_1_FLR_1 SYS-3 FLR-2 SCH-D HPLCMT-SOUTH ZN NECB SYSTEM 3 PSZ OCC SCH WINTER DESIGN DAY\n   ************* IDF Context for following error/warning message:\n   ************* Note -- lines truncated at 300 characters, if necessary...\n   *************   3468 Schedule:Week:Daily,\n   ************* indicated Name=Schedule:Week:Daily {9bbd5a7f-3cb1-4e38-98f4-1c682d05116e}\n   ************* Only last 10 lines before error line shown.....\n   *************   3471   Sp-Corner_Class_1_Pod_1_ZN_1_FLR_1 Sys-3 Flr-2 Sch-D HPlcmt-south ZN NECB System 3 PSZ Occ Sch Monday, !- Monday Schedule:Day Name\n   *************   3472   Sp-Corner_Class_1_Pod_1_ZN_1_FLR_1 Sys-3 Flr-2 Sch-D HPlcmt-south ZN NECB System 3 PSZ Occ Sch Tuesday, !- Tuesday Schedule:Day Name\n   *************   3473   Sp-Corner_Class_1_Pod_1_ZN_1_FLR_1 Sys-3 Flr-2 Sch-D HPlcmt-south ZN NECB System 3 PSZ Occ Sch Wednesday, !- Wednesday Schedule:Day Name\n   *************   3474   Sp-Corner_Class_1_Pod_1_ZN_1_FLR_1 Sys-3 Flr-2 Sch-D HPlcmt-south ZN NECB System 3 PSZ Occ Sch Thursday, !- Thursday Schedule:Day Name\n   *************   3475   Sp-Corner_Class_1_Pod_1_ZN_1_FLR_1 Sys-3 Flr-2 Sch-D HPlcmt-south ZN NECB System 3 PSZ Occ Sch Friday, !- Friday Schedule:Day Name\n   *************   3476   Sp-Corner_Class_1_Pod_1_ZN_1_FLR_1 Sys-3 Flr-2 Sch-D HPlcmt-south ZN NECB System 3 PSZ Occ Sch Saturday, !- Saturday Schedule:Day Name\n   *************   3477   Sp-Corner_Class_1_Pod_1_ZN_1_FLR_1 Sys-3 Flr-2 Sch-D HPlcmt-south ZN NECB System 3 PSZ Occ Sch Default, !- Holiday Schedule:Day Name\n   *************   3478   Sp-Corner_Class_1_Pod_1_ZN_1_FLR_1 Sys-3 Flr-2 Sch-D HPlcmt-south ZN NECB System 3 PSZ Occ Sch Summer Design Day, !- SummerDesignDay Schedule:Day Name\n   *************   3479   Sp-Corner_Class_1_Pod_1_ZN_1_FLR_1 Sys-3 Flr-2 Sch-D HPlcmt-south ZN NECB System 3 PSZ Occ Sch Winter Design Day, !- WinterDesignDay Schedule:Day Name\n   *************   3480   Sp-Corner_Class_1_Pod_1_ZN_1_FLR_1 Sys-3 Flr-2 Sch-D HPlcmt-south ZN NECB System 3 PSZ Occ Sch Default, !- CustomDay1 Schedule:Day Name\n   ** Warning ** IP: IDF line~3480 Alpha Argument length exceeds maximum, will be truncated=  Sp-Corner_Class_1_Pod_1_ZN_1_FLR_1 Sys-3 Flr-2 Sch-D HPlcmt-south ZN NECB System 3 PSZ Occ Sch Defaul\n   **   ~~~   ** Will be processed as Alpha=SP-CORNER_CLASS_1_POD_1_ZN_1_FLR_1 SYS-3 FLR-2 SCH-D HPLCMT-SOUTH ZN NECB SYSTEM 3 PSZ OCC SCH DEFAULT\n   ************* IDF Context for following error/warning message:\n   ************* Note -- lines truncated at 300 characters, if necessary...\n   *************   3468 Schedule:Week:Daily,\n   ************* indicated Name=Schedule:Week:Daily {9bbd5a7f-3cb1-4e38-98f4-1c682d05116e}\n   ************* Only last 10 lines before error line shown.....\n   *************   3472   Sp-Corner_Class_1_Pod_1_ZN_1_FLR_1 Sys-3 Flr-2 Sch-D HPlcmt-south ZN NECB System 3 PSZ Occ Sch Tuesday, !- Tuesday Schedule:Day Name\n   *************   3473   Sp-Corner_Class_1_Pod_1_ZN_1_FLR_1 Sys-3 Flr-2 Sch-D HPlcmt-south ZN NECB System 3 PSZ Occ Sch Wednesday, !- Wednesday Schedule:Day Name\n   *************   3474   Sp-Corner_Class_1_Pod_1_ZN_1_FLR_1 Sys-3 Flr-2 Sch-D HPlcmt-south ZN NECB System 3 PSZ Occ Sch Thursday, !- Thursday Schedule:Day Name\n   *************   3475   Sp-Corner_Class_1_Pod_1_ZN_1_FLR_1 Sys-3 Flr-2 Sch-D HPlcmt-south ZN NECB System 3 PSZ Occ Sch Friday, !- Friday Schedule:Day Name\n   *************   3476   Sp-Corner_Class_1_Pod_1_ZN_1_FLR_1 Sys-3 Flr-2 Sch-D HPlcmt-south ZN NECB System 3 PSZ Occ Sch Saturday, !- Saturday Schedule:Day Name\n   *************   3477   Sp-Corner_Class_1_Pod_1_ZN_1_FLR_1 Sys-3 Flr-2 Sch-D HPlcmt-south ZN NECB System 3 PSZ Occ Sch Default, !- Holiday Schedule:Day Name\n   *************   3478   Sp-Corner_Class_1_Pod_1_ZN_1_FLR_1 Sys-3 Flr-2 Sch-D HPlcmt-south ZN NECB System 3 PSZ Occ Sch Summer Design Day, !- SummerDesignDay Schedule:Day Name\n   *************   3479   Sp-Corner_Class_1_Pod_1_ZN_1_FLR_1 Sys-3 Flr-2 Sch-D HPlcmt-south ZN NECB System 3 PSZ Occ Sch Winter Design Day, !- WinterDesignDay Schedule:Day Name\n   *************   3480   Sp-Corner_Class_1_Pod_1_ZN_1_FLR_1 Sys-3 Flr-2 Sch-D HPlcmt-south ZN NECB System 3 PSZ Occ Sch Default, !- CustomDay1 Schedule:Day Name\n   *************   3481   Sp-Corner_Class_1_Pod_1_ZN_1_FLR_1 Sys-3 Flr-2 Sch-D HPlcmt-south ZN NECB System 3 PSZ Occ Sch Default; !- CustomDay2 Schedule:Day Name\n   ** Warning ** IP: IDF line~3481 Alpha Argument length exceeds maximum, will be truncated=  Sp-Corner_Class_1_Pod_1_ZN_1_FLR_1 Sys-3 Flr-2 Sch-D HPlcmt-south ZN NECB System 3 PSZ Occ Sch Defaul\n   **   ~~~   ** Will be processed as Alpha=SP-CORNER_CLASS_1_POD_1_ZN_1_FLR_1 SYS-3 FLR-2 SCH-D HPLCMT-SOUTH ZN NECB SYSTEM 3 PSZ OCC SCH DEFAULT\n   ************* IDF Context for following error/warning message:\n   ************* Note -- lines truncated at 300 characters, if necessary...\n   *************   3492 Schedule:Day:Interval,\n   ************* indicated Name=Sp-Corner_Class_1_Pod_1_ZN_1_FLR_1 Sys-3 Flr-2 Sch-D HPlcmt-south ZN NECB System 3 PSZ Occ Sch Default\n   ************* Only last 1 lines before error line shown.....\n   *************   3493   Sp-Corner_Class_1_Pod_1_ZN_1_FLR_1 Sys-3 Flr-2 Sch-D HPlcmt-south ZN NECB System 3 PSZ Occ Sch Default, !- Name\n   ** Warning ** IP: IDF line~3493 Alpha Argument length exceeds maximum, will be truncated=  Sp-Corner_Class_1_Pod_1_ZN_1_FLR_1 Sys-3 Flr-2 Sch-D HPlcmt-south ZN NECB System 3 PSZ Occ Sch Defaul\n   **   ~~~   ** Will be processed as Alpha=SP-CORNER_CLASS_1_POD_1_ZN_1_FLR_1 SYS-3 FLR-2 SCH-D HPLCMT-SOUTH ZN NECB SYSTEM 3 PSZ OCC SCH DEFAULT\n   ************* IDF Context for following error/warning message:\n   ************* Note -- lines truncated at 300 characters, if necessary...\n   *************   3499 Schedule:Day:Interval,\n   ************* indicated Name=Sp-Corner_Class_1_Pod_1_ZN_1_FLR_1 Sys-3 Flr-2 Sch-D HPlcmt-south ZN NECB System 3 PSZ Occ Sch Summer Design Day\n   ************* Only last 1 lines before error line shown.....\n   *************   3500   Sp-Corner_Class_1_Pod_1_ZN_1_FLR_1 Sys-3 Flr-2 Sch-D HPlcmt-south ZN NECB System 3 PSZ Occ Sch Summer Design Day, !- Name\n   ** Warning ** IP: IDF line~3500 Alpha Argument length exceeds maximum, will be truncated=  Sp-Corner_Class_1_Pod_1_ZN_1_FLR_1 Sys-3 Flr-2 Sch-D HPlcmt-south ZN NECB System 3 PSZ Occ Sch Summer Design Da\n   **   ~~~   ** Will be processed as Alpha=SP-CORNER_CLASS_1_POD_1_ZN_1_FLR_1 SYS-3 FLR-2 SCH-D HPLCMT-SOUTH ZN NECB SYSTEM 3 PSZ OCC SCH SUMMER DESIGN DAY\n   ************* IDF Context for following error/warning message:\n   ************* Note -- lines truncated at 300 characters, if necessary...\n   *************   3506 Schedule:Day:Interval,\n   ************* indicated Name=Sp-Corner_Class_1_Pod_1_ZN_1_FLR_1 Sys-3 Flr-2 Sch-D HPlcmt-south ZN NECB System 3 PSZ Occ Sch Winter Design Day\n   ************* Only last 1 lines before error line shown.....\n   *************   3507   Sp-Corner_Class_1_Pod_1_ZN_1_FLR_1 Sys-3 Flr-2 Sch-D HPlcmt-south ZN NECB System 3 PSZ Occ Sch Winter Design Day, !- Name\n   ** Warning ** IP: IDF line~3507 Alpha Argument length exceeds maximum, will be truncated=  Sp-Corner_Class_1_Pod_1_ZN_1_FLR_1 Sys-3 Flr-2 Sch-D HPlcmt-south ZN NECB System 3 PSZ Occ Sch Winter Design Da\n   **   ~~~   ** Will be processed as Alpha=SP-CORNER_CLASS_1_POD_1_ZN_1_FLR_1 SYS-3 FLR-2 SCH-D HPLCMT-SOUTH ZN NECB SYSTEM 3 PSZ OCC SCH WINTER DESIGN DAY\n   ************* IDF Context for following error/warning message:\n   ************* Note -- lines truncated at 300 characters, if necessary...\n   *************   3783 Schedule:Day:Interval,\n   ************* indicated Name=Sp-Corner_Class_1_Pod_1_ZN_1_FLR_2 Sys-3 Flr-1 Sch-D HPlcmt-south ZN NECB System 3 PSZ Occ Sch Sunday\n   ************* Only last 1 lines before error line shown.....\n   *************   3784   Sp-Corner_Class_1_Pod_1_ZN_1_FLR_2 Sys-3 Flr-1 Sch-D HPlcmt-south ZN NECB System 3 PSZ Occ Sch Sunday, !- Name\n   ** Warning ** IP: IDF line~3784 Alpha Argument length exceeds maximum, will be truncated=  Sp-Corner_Class_1_Pod_1_ZN_1_FLR_2 Sys-3 Flr-1 Sch-D HPlcmt-south ZN NECB System 3 PSZ Occ Sch Sunda\n   **   ~~~   ** Will be processed as Alpha=SP-CORNER_CLASS_1_POD_1_ZN_1_FLR_2 SYS-3 FLR-1 SCH-D HPLCMT-SOUTH ZN NECB SYSTEM 3 PSZ OCC SCH SUNDAY\n   ************* IDF Context for following error/warning message:\n   ************* Note -- lines truncated at 300 characters, if necessary...\n   *************   3790 Schedule:Day:Interval,\n   ************* indicated Name=Sp-Corner_Class_1_Pod_1_ZN_1_FLR_2 Sys-3 Flr-1 Sch-D HPlcmt-south ZN NECB System 3 PSZ Occ Sch Monday\n   ************* Only last 1 lines before error line shown.....\n   *************   3791   Sp-Corner_Class_1_Pod_1_ZN_1_FLR_2 Sys-3 Flr-1 Sch-D HPlcmt-south ZN NECB System 3 PSZ Occ Sch Monday, !- Name\n   ** Warning ** IP: IDF line~3791 Alpha Argument length exceeds maximum, will be truncated=  Sp-Corner_Class_1_Pod_1_ZN_1_FLR_2 Sys-3 Flr-1 Sch-D HPlcmt-south ZN NECB System 3 PSZ Occ Sch Monda\n   **   ~~~   ** Will be processed as Alpha=SP-CORNER_CLASS_1_POD_1_ZN_1_FLR_2 SYS-3 FLR-1 SCH-D HPLCMT-SOUTH ZN NECB SYSTEM 3 PSZ OCC SCH MONDAY\n   ************* IDF Context for following error/warning message:\n   ************* Note -- lines truncated at 300 characters, if necessary...\n   *************   3805 Schedule:Day:Interval,\n   ************* indicated Name=Sp-Corner_Class_1_Pod_1_ZN_1_FLR_2 Sys-3 Flr-1 Sch-D HPlcmt-south ZN NECB System 3 PSZ Occ Sch Tuesday\n   ************* Only last 1 lines before error line shown.....\n   *************   3806   Sp-Corner_Class_1_Pod_1_ZN_1_FLR_2 Sys-3 Flr-1 Sch-D HPlcmt-south ZN NECB System 3 PSZ Occ Sch Tuesday, !- Name\n   ** Warning ** IP: IDF line~3806 Alpha Argument length exceeds maximum, will be truncated=  Sp-Corner_Class_1_Pod_1_ZN_1_FLR_2 Sys-3 Flr-1 Sch-D HPlcmt-south ZN NECB System 3 PSZ Occ Sch Tuesda\n   **   ~~~   ** Will be processed as Alpha=SP-CORNER_CLASS_1_POD_1_ZN_1_FLR_2 SYS-3 FLR-1 SCH-D HPLCMT-SOUTH ZN NECB SYSTEM 3 PSZ OCC SCH TUESDAY\n   ************* IDF Context for following error/warning message:\n   ************* Note -- lines truncated at 300 characters, if necessary...\n   *************   3820 Schedule:Day:Interval,\n   ************* indicated Name=Sp-Corner_Class_1_Pod_1_ZN_1_FLR_2 Sys-3 Flr-1 Sch-D HPlcmt-south ZN NECB System 3 PSZ Occ Sch Wednesday\n   ************* Only last 1 lines before error line shown.....\n   *************   3821   Sp-Corner_Class_1_Pod_1_ZN_1_FLR_2 Sys-3 Flr-1 Sch-D HPlcmt-south ZN NECB System 3 PSZ Occ Sch Wednesday, !- Name\n   ** Warning ** IP: IDF line~3821 Alpha Argument length exceeds maximum, will be truncated=  Sp-Corner_Class_1_Pod_1_ZN_1_FLR_2 Sys-3 Flr-1 Sch-D HPlcmt-south ZN NECB System 3 PSZ Occ Sch Wednesda\n   **   ~~~   ** Will be processed as Alpha=SP-CORNER_CLASS_1_POD_1_ZN_1_FLR_2 SYS-3 FLR-1 SCH-D HPLCMT-SOUTH ZN NECB SYSTEM 3 PSZ OCC SCH WEDNESDAY\n   ************* IDF Context for following error/warning message:\n   ************* Note -- lines truncated at 300 characters, if necessary...\n   *************   3835 Schedule:Day:Interval,\n   ************* indicated Name=Sp-Corner_Class_1_Pod_1_ZN_1_FLR_2 Sys-3 Flr-1 Sch-D HPlcmt-south ZN NECB System 3 PSZ Occ Sch Thursday\n   ************* Only last 1 lines before error line shown.....\n   *************   3836   Sp-Corner_Class_1_Pod_1_ZN_1_FLR_2 Sys-3 Flr-1 Sch-D HPlcmt-south ZN NECB System 3 PSZ Occ Sch Thursday, !- Name\n   ** Warning ** IP: IDF line~3836 Alpha Argument length exceeds maximum, will be truncated=  Sp-Corner_Class_1_Pod_1_ZN_1_FLR_2 Sys-3 Flr-1 Sch-D HPlcmt-south ZN NECB System 3 PSZ Occ Sch Thursda\n   **   ~~~   ** Will be processed as Alpha=SP-CORNER_CLASS_1_POD_1_ZN_1_FLR_2 SYS-3 FLR-1 SCH-D HPLCMT-SOUTH ZN NECB SYSTEM 3 PSZ OCC SCH THURSDAY\n   ************* IDF Context for following error/warning message:\n   ************* Note -- lines truncated at 300 characters, if necessary...\n   *************   3850 Schedule:Day:Interval,\n   ************* indicated Name=Sp-Corner_Class_1_Pod_1_ZN_1_FLR_2 Sys-3 Flr-1 Sch-D HPlcmt-south ZN NECB System 3 PSZ Occ Sch Friday\n   ************* Only last 1 lines before error line shown.....\n   *************   3851   Sp-Corner_Class_1_Pod_1_ZN_1_FLR_2 Sys-3 Flr-1 Sch-D HPlcmt-south ZN NECB System 3 PSZ Occ Sch Friday, !- Name\n   ** Warning ** IP: IDF line~3851 Alpha Argument length exceeds maximum, will be truncated=  Sp-Corner_Class_1_Pod_1_ZN_1_FLR_2 Sys-3 Flr-1 Sch-D HPlcmt-south ZN NECB System 3 PSZ Occ Sch Frida\n   **   ~~~   ** Will be processed as Alpha=SP-CORNER_CLASS_1_POD_1_ZN_1_FLR_2 SYS-3 FLR-1 SCH-D HPLCMT-SOUTH ZN NECB SYSTEM 3 PSZ OCC SCH FRIDAY\n   ************* IDF Context for following error/warning message:\n   ************* Note -- lines truncated at 300 characters, if necessary...\n   *************   3865 Schedule:Day:Interval,\n   ************* indicated Name=Sp-Corner_Class_1_Pod_1_ZN_1_FLR_2 Sys-3 Flr-1 Sch-D HPlcmt-south ZN NECB System 3 PSZ Occ Sch Saturday\n   ************* Only last 1 lines before error line shown.....\n   *************   3866   Sp-Corner_Class_1_Pod_1_ZN_1_FLR_2 Sys-3 Flr-1 Sch-D HPlcmt-south ZN NECB System 3 PSZ Occ Sch Saturday, !- Name\n   ** Warning ** IP: IDF line~3866 Alpha Argument length exceeds maximum, will be truncated=  Sp-Corner_Class_1_Pod_1_ZN_1_FLR_2 Sys-3 Flr-1 Sch-D HPlcmt-south ZN NECB System 3 PSZ Occ Sch Saturda\n   **   ~~~   ** Will be processed as Alpha=SP-CORNER_CLASS_1_POD_1_ZN_1_FLR_2 SYS-3 FLR-1 SCH-D HPLCMT-SOUTH ZN NECB SYSTEM 3 PSZ OCC SCH SATURDAY\n   ************* IDF Context for following error/warning message:\n   ************* Note -- lines truncated at 300 characters, if necessary...\n   *************   3872 Schedule:Week:Daily,\n   ************* indicated Name=Schedule:Week:Daily {857ff96c-542f-4d6d-a861-8a459d111cdf}\n   ************* Only last 2 lines before error line shown.....\n   *************   3873   Schedule:Week:Daily {857ff96c-542f-4d6d-a861-8a459d111cdf}, !- Name\n   *************   3874   Sp-Corner_Class_1_Pod_1_ZN_1_FLR_2 Sys-3 Flr-1 Sch-D HPlcmt-south ZN NECB System 3 PSZ Occ Sch Sunday, !- Sunday Schedule:Day Name\n   ** Warning ** IP: IDF line~3874 Alpha Argument length exceeds maximum, will be truncated=  Sp-Corner_Class_1_Pod_1_ZN_1_FLR_2 Sys-3 Flr-1 Sch-D HPlcmt-south ZN NECB System 3 PSZ Occ Sch Sunda\n   **   ~~~   ** Will be processed as Alpha=SP-CORNER_CLASS_1_POD_1_ZN_1_FLR_2 SYS-3 FLR-1 SCH-D HPLCMT-SOUTH ZN NECB SYSTEM 3 PSZ OCC SCH SUNDAY\n   ************* IDF Context for following error/warning message:\n   ************* Note -- lines truncated at 300 characters, if necessary...\n   *************   3872 Schedule:Week:Daily,\n   ************* indicated Name=Schedule:Week:Daily {857ff96c-542f-4d6d-a861-8a459d111cdf}\n   ************* Only last 3 lines before error line shown.....\n   *************   3873   Schedule:Week:Daily {857ff96c-542f-4d6d-a861-8a459d111cdf}, !- Name\n   *************   3874   Sp-Corner_Class_1_Pod_1_ZN_1_FLR_2 Sys-3 Flr-1 Sch-D HPlcmt-south ZN NECB System 3 PSZ Occ Sch Sunday, !- Sunday Schedule:Day Name\n   *************   3875   Sp-Corner_Class_1_Pod_1_ZN_1_FLR_2 Sys-3 Flr-1 Sch-D HPlcmt-south ZN NECB System 3 PSZ Occ Sch Monday, !- Monday Schedule:Day Name\n   ** Warning ** IP: IDF line~3875 Alpha Argument length exceeds maximum, will be truncated=  Sp-Corner_Class_1_Pod_1_ZN_1_FLR_2 Sys-3 Flr-1 Sch-D HPlcmt-south ZN NECB System 3 PSZ Occ Sch Monda\n   **   ~~~   ** Will be processed as Alpha=SP-CORNER_CLASS_1_POD_1_ZN_1_FLR_2 SYS-3 FLR-1 SCH-D HPLCMT-SOUTH ZN NECB SYSTEM 3 PSZ OCC SCH MONDAY\n   ************* IDF Context for following error/warning message:\n   ************* Note -- lines truncated at 300 characters, if necessary...\n   *************   3872 Schedule:Week:Daily,\n   ************* indicated Name=Schedule:Week:Daily {857ff96c-542f-4d6d-a861-8a459d111cdf}\n   ************* Only last 4 lines before error line shown.....\n   *************   3873   Schedule:Week:Daily {857ff96c-542f-4d6d-a861-8a459d111cdf}, !- Name\n   *************   3874   Sp-Corner_Class_1_Pod_1_ZN_1_FLR_2 Sys-3 Flr-1 Sch-D HPlcmt-south ZN NECB System 3 PSZ Occ Sch Sunday, !- Sunday Schedule:Day Name\n   *************   3875   Sp-Corner_Class_1_Pod_1_ZN_1_FLR_2 Sys-3 Flr-1 Sch-D HPlcmt-south ZN NECB System 3 PSZ Occ Sch Monday, !- Monday Schedule:Day Name\n   *************   3876   Sp-Corner_Class_1_Pod_1_ZN_1_FLR_2 Sys-3 Flr-1 Sch-D HPlcmt-south ZN NECB System 3 PSZ Occ Sch Tuesday, !- Tuesday Schedule:Day Name\n   ** Warning ** IP: IDF line~3876 Alpha Argument length exceeds maximum, will be truncated=  Sp-Corner_Class_1_Pod_1_ZN_1_FLR_2 Sys-3 Flr-1 Sch-D HPlcmt-south ZN NECB System 3 PSZ Occ Sch Tuesda\n   **   ~~~   ** Will be processed as Alpha=SP-CORNER_CLASS_1_POD_1_ZN_1_FLR_2 SYS-3 FLR-1 SCH-D HPLCMT-SOUTH ZN NECB SYSTEM 3 PSZ OCC SCH TUESDAY\n   ************* IDF Context for following error/warning message:\n   ************* Note -- lines truncated at 300 characters, if necessary...\n   *************   3872 Schedule:Week:Daily,\n   ************* indicated Name=Schedule:Week:Daily {857ff96c-542f-4d6d-a861-8a459d111cdf}\n   ************* Only last 5 lines before error line shown.....\n   *************   3873   Schedule:Week:Daily {857ff96c-542f-4d6d-a861-8a459d111cdf}, !- Name\n   *************   3874   Sp-Corner_Class_1_Pod_1_ZN_1_FLR_2 Sys-3 Flr-1 Sch-D HPlcmt-south ZN NECB System 3 PSZ Occ Sch Sunday, !- Sunday Schedule:Day Name\n   *************   3875   Sp-Corner_Class_1_Pod_1_ZN_1_FLR_2 Sys-3 Flr-1 Sch-D HPlcmt-south ZN NECB System 3 PSZ Occ Sch Monday, !- Monday Schedule:Day Name\n   *************   3876   Sp-Corner_Class_1_Pod_1_ZN_1_FLR_2 Sys-3 Flr-1 Sch-D HPlcmt-south ZN NECB System 3 PSZ Occ Sch Tuesday, !- Tuesday Schedule:Day Name\n   *************   3877   Sp-Corner_Class_1_Pod_1_ZN_1_FLR_2 Sys-3 Flr-1 Sch-D HPlcmt-south ZN NECB System 3 PSZ Occ Sch Wednesday, !- Wednesday Schedule:Day Name\n   ** Warning ** IP: IDF line~3877 Alpha Argument length exceeds maximum, will be truncated=  Sp-Corner_Class_1_Pod_1_ZN_1_FLR_2 Sys-3 Flr-1 Sch-D HPlcmt-south ZN NECB System 3 PSZ Occ Sch Wednesda\n   **   ~~~   ** Will be processed as Alpha=SP-CORNER_CLASS_1_POD_1_ZN_1_FLR_2 SYS-3 FLR-1 SCH-D HPLCMT-SOUTH ZN NECB SYSTEM 3 PSZ OCC SCH WEDNESDAY\n   ************* IDF Context for following error/warning message:\n   ************* Note -- lines truncated at 300 characters, if necessary...\n   *************   3872 Schedule:Week:Daily,\n   ************* indicated Name=Schedule:Week:Daily {857ff96c-542f-4d6d-a861-8a459d111cdf}\n   ************* Only last 6 lines before error line shown.....\n   *************   3873   Schedule:Week:Daily {857ff96c-542f-4d6d-a861-8a459d111cdf}, !- Name\n   *************   3874   Sp-Corner_Class_1_Pod_1_ZN_1_FLR_2 Sys-3 Flr-1 Sch-D HPlcmt-south ZN NECB System 3 PSZ Occ Sch Sunday, !- Sunday Schedule:Day Name\n   *************   3875   Sp-Corner_Class_1_Pod_1_ZN_1_FLR_2 Sys-3 Flr-1 Sch-D HPlcmt-south ZN NECB System 3 PSZ Occ Sch Monday, !- Monday Schedule:Day Name\n   *************   3876   Sp-Corner_Class_1_Pod_1_ZN_1_FLR_2 Sys-3 Flr-1 Sch-D HPlcmt-south ZN NECB System 3 PSZ Occ Sch Tuesday, !- Tuesday Schedule:Day Name\n   *************   3877   Sp-Corner_Class_1_Pod_1_ZN_1_FLR_2 Sys-3 Flr-1 Sch-D HPlcmt-south ZN NECB System 3 PSZ Occ Sch Wednesday, !- Wednesday Schedule:Day Name\n   *************   3878   Sp-Corner_Class_1_Pod_1_ZN_1_FLR_2 Sys-3 Flr-1 Sch-D HPlcmt-south ZN NECB System 3 PSZ Occ Sch Thursday, !- Thursday Schedule:Day Name\n   ** Warning ** IP: IDF line~3878 Alpha Argument length exceeds maximum, will be truncated=  Sp-Corner_Class_1_Pod_1_ZN_1_FLR_2 Sys-3 Flr-1 Sch-D HPlcmt-south ZN NECB System 3 PSZ Occ Sch Thursda\n   **   ~~~   ** Will be processed as Alpha=SP-CORNER_CLASS_1_POD_1_ZN_1_FLR_2 SYS-3 FLR-1 SCH-D HPLCMT-SOUTH ZN NECB SYSTEM 3 PSZ OCC SCH THURSDAY\n   ************* IDF Context for following error/warning message:\n   ************* Note -- lines truncated at 300 characters, if necessary...\n   *************   3872 Schedule:Week:Daily,\n   ************* indicated Name=Schedule:Week:Daily {857ff96c-542f-4d6d-a861-8a459d111cdf}\n   ************* Only last 7 lines before error line shown.....\n   *************   3873   Schedule:Week:Daily {857ff96c-542f-4d6d-a861-8a459d111cdf}, !- Name\n   *************   3874   Sp-Corner_Class_1_Pod_1_ZN_1_FLR_2 Sys-3 Flr-1 Sch-D HPlcmt-south ZN NECB System 3 PSZ Occ Sch Sunday, !- Sunday Schedule:Day Name\n   *************   3875   Sp-Corner_Class_1_Pod_1_ZN_1_FLR_2 Sys-3 Flr-1 Sch-D HPlcmt-south ZN NECB System 3 PSZ Occ Sch Monday, !- Monday Schedule:Day Name\n   *************   3876   Sp-Corner_Class_1_Pod_1_ZN_1_FLR_2 Sys-3 Flr-1 Sch-D HPlcmt-south ZN NECB System 3 PSZ Occ Sch Tuesday, !- Tuesday Schedule:Day Name\n   *************   3877   Sp-Corner_Class_1_Pod_1_ZN_1_FLR_2 Sys-3 Flr-1 Sch-D HPlcmt-south ZN NECB System 3 PSZ Occ Sch Wednesday, !- Wednesday Schedule:Day Name\n   *************   3878   Sp-Corner_Class_1_Pod_1_ZN_1_FLR_2 Sys-3 Flr-1 Sch-D HPlcmt-south ZN NECB System 3 PSZ Occ Sch Thursday, !- Thursday Schedule:Day Name\n   *************   3879   Sp-Corner_Class_1_Pod_1_ZN_1_FLR_2 Sys-3 Flr-1 Sch-D HPlcmt-south ZN NECB System 3 PSZ Occ Sch Friday, !- Friday Schedule:Day Name\n   ** Warning ** IP: IDF line~3879 Alpha Argument length exceeds maximum, will be truncated=  Sp-Corner_Class_1_Pod_1_ZN_1_FLR_2 Sys-3 Flr-1 Sch-D HPlcmt-south ZN NECB System 3 PSZ Occ Sch Frida\n   **   ~~~   ** Will be processed as Alpha=SP-CORNER_CLASS_1_POD_1_ZN_1_FLR_2 SYS-3 FLR-1 SCH-D HPLCMT-SOUTH ZN NECB SYSTEM 3 PSZ OCC SCH FRIDAY\n   ************* IDF Context for following error/warning message:\n   ************* Note -- lines truncated at 300 characters, if necessary...\n   *************   3872 Schedule:Week:Daily,\n   ************* indicated Name=Schedule:Week:Daily {857ff96c-542f-4d6d-a861-8a459d111cdf}\n   ************* Only last 8 lines before error line shown.....\n   *************   3873   Schedule:Week:Daily {857ff96c-542f-4d6d-a861-8a459d111cdf}, !- Name\n   *************   3874   Sp-Corner_Class_1_Pod_1_ZN_1_FLR_2 Sys-3 Flr-1 Sch-D HPlcmt-south ZN NECB System 3 PSZ Occ Sch Sunday, !- Sunday Schedule:Day Name\n   *************   3875   Sp-Corner_Class_1_Pod_1_ZN_1_FLR_2 Sys-3 Flr-1 Sch-D HPlcmt-south ZN NECB System 3 PSZ Occ Sch Monday, !- Monday Schedule:Day Name\n   *************   3876   Sp-Corner_Class_1_Pod_1_ZN_1_FLR_2 Sys-3 Flr-1 Sch-D HPlcmt-south ZN NECB System 3 PSZ Occ Sch Tuesday, !- Tuesday Schedule:Day Name\n   *************   3877   Sp-Corner_Class_1_Pod_1_ZN_1_FLR_2 Sys-3 Flr-1 Sch-D HPlcmt-south ZN NECB System 3 PSZ Occ Sch Wednesday, !- Wednesday Schedule:Day Name\n   *************   3878   Sp-Corner_Class_1_Pod_1_ZN_1_FLR_2 Sys-3 Flr-1 Sch-D HPlcmt-south ZN NECB System 3 PSZ Occ Sch Thursday, !- Thursday Schedule:Day Name\n   *************   3879   Sp-Corner_Class_1_Pod_1_ZN_1_FLR_2 Sys-3 Flr-1 Sch-D HPlcmt-south ZN NECB System 3 PSZ Occ Sch Friday, !- Friday Schedule:Day Name\n   *************   3880   Sp-Corner_Class_1_Pod_1_ZN_1_FLR_2 Sys-3 Flr-1 Sch-D HPlcmt-south ZN NECB System 3 PSZ Occ Sch Saturday, !- Saturday Schedule:Day Name\n   ** Warning ** IP: IDF line~3880 Alpha Argument length exceeds maximum, will be truncated=  Sp-Corner_Class_1_Pod_1_ZN_1_FLR_2 Sys-3 Flr-1 Sch-D HPlcmt-south ZN NECB System 3 PSZ Occ Sch Saturda\n   **   ~~~   ** Will be processed as Alpha=SP-CORNER_CLASS_1_POD_1_ZN_1_FLR_2 SYS-3 FLR-1 SCH-D HPLCMT-SOUTH ZN NECB SYSTEM 3 PSZ OCC SCH SATURDAY\n   ************* IDF Context for following error/warning message:\n   ************* Note -- lines truncated at 300 characters, if necessary...\n   *************   3872 Schedule:Week:Daily,\n   ************* indicated Name=Schedule:Week:Daily {857ff96c-542f-4d6d-a861-8a459d111cdf}\n   ************* Only last 9 lines before error line shown.....\n   *************   3873   Schedule:Week:Daily {857ff96c-542f-4d6d-a861-8a459d111cdf}, !- Name\n   *************   3874   Sp-Corner_Class_1_Pod_1_ZN_1_FLR_2 Sys-3 Flr-1 Sch-D HPlcmt-south ZN NECB System 3 PSZ Occ Sch Sunday, !- Sunday Schedule:Day Name\n   *************   3875   Sp-Corner_Class_1_Pod_1_ZN_1_FLR_2 Sys-3 Flr-1 Sch-D HPlcmt-south ZN NECB System 3 PSZ Occ Sch Monday, !- Monday Schedule:Day Name\n   *************   3876   Sp-Corner_Class_1_Pod_1_ZN_1_FLR_2 Sys-3 Flr-1 Sch-D HPlcmt-south ZN NECB System 3 PSZ Occ Sch Tuesday, !- Tuesday Schedule:Day Name\n   *************   3877   Sp-Corner_Class_1_Pod_1_ZN_1_FLR_2 Sys-3 Flr-1 Sch-D HPlcmt-south ZN NECB System 3 PSZ Occ Sch Wednesday, !- Wednesday Schedule:Day Name\n   *************   3878   Sp-Corner_Class_1_Pod_1_ZN_1_FLR_2 Sys-3 Flr-1 Sch-D HPlcmt-south ZN NECB System 3 PSZ Occ Sch Thursday, !- Thursday Schedule:Day Name\n   *************   3879   Sp-Corner_Class_1_Pod_1_ZN_1_FLR_2 Sys-3 Flr-1 Sch-D HPlcmt-south ZN NECB System 3 PSZ Occ Sch Friday, !- Friday Schedule:Day Name\n   *************   3880   Sp-Corner_Class_1_Pod_1_ZN_1_FLR_2 Sys-3 Flr-1 Sch-D HPlcmt-south ZN NECB System 3 PSZ Occ Sch Saturday, !- Saturday Schedule:Day Name\n   *************   3881   Sp-Corner_Class_1_Pod_1_ZN_1_FLR_2 Sys-3 Flr-1 Sch-D HPlcmt-south ZN NECB System 3 PSZ Occ Sch Default, !- Holiday Schedule:Day Name\n   ** Warning ** IP: IDF line~3881 Alpha Argument length exceeds maximum, will be truncated=  Sp-Corner_Class_1_Pod_1_ZN_1_FLR_2 Sys-3 Flr-1 Sch-D HPlcmt-south ZN NECB System 3 PSZ Occ Sch Defaul\n   **   ~~~   ** Will be processed as Alpha=SP-CORNER_CLASS_1_POD_1_ZN_1_FLR_2 SYS-3 FLR-1 SCH-D HPLCMT-SOUTH ZN NECB SYSTEM 3 PSZ OCC SCH DEFAULT\n   ************* IDF Context for following error/warning message:\n   ************* Note -- lines truncated at 300 characters, if necessary...\n   *************   3872 Schedule:Week:Daily,\n   ************* indicated Name=Schedule:Week:Daily {857ff96c-542f-4d6d-a861-8a459d111cdf}\n   ************* Only last 10 lines before error line shown.....\n   *************   3873   Schedule:Week:Daily {857ff96c-542f-4d6d-a861-8a459d111cdf}, !- Name\n   *************   3874   Sp-Corner_Class_1_Pod_1_ZN_1_FLR_2 Sys-3 Flr-1 Sch-D HPlcmt-south ZN NECB System 3 PSZ Occ Sch Sunday, !- Sunday Schedule:Day Name\n   *************   3875   Sp-Corner_Class_1_Pod_1_ZN_1_FLR_2 Sys-3 Flr-1 Sch-D HPlcmt-south ZN NECB System 3 PSZ Occ Sch Monday, !- Monday Schedule:Day Name\n   *************   3876   Sp-Corner_Class_1_Pod_1_ZN_1_FLR_2 Sys-3 Flr-1 Sch-D HPlcmt-south ZN NECB System 3 PSZ Occ Sch Tuesday, !- Tuesday Schedule:Day Name\n   *************   3877   Sp-Corner_Class_1_Pod_1_ZN_1_FLR_2 Sys-3 Flr-1 Sch-D HPlcmt-south ZN NECB System 3 PSZ Occ Sch Wednesday, !- Wednesday Schedule:Day Name\n   *************   3878   Sp-Corner_Class_1_Pod_1_ZN_1_FLR_2 Sys-3 Flr-1 Sch-D HPlcmt-south ZN NECB System 3 PSZ Occ Sch Thursday, !- Thursday Schedule:Day Name\n   *************   3879   Sp-Corner_Class_1_Pod_1_ZN_1_FLR_2 Sys-3 Flr-1 Sch-D HPlcmt-south ZN NECB System 3 PSZ Occ Sch Friday, !- Friday Schedule:Day Name\n   *************   3880   Sp-Corner_Class_1_Pod_1_ZN_1_FLR_2 Sys-3 Flr-1 Sch-D HPlcmt-south ZN NECB System 3 PSZ Occ Sch Saturday, !- Saturday Schedule:Day Name\n   *************   3881   Sp-Corner_Class_1_Pod_1_ZN_1_FLR_2 Sys-3 Flr-1 Sch-D HPlcmt-south ZN NECB System 3 PSZ Occ Sch Default, !- Holiday Schedule:Day Name\n   *************   3882   Sp-Corner_Class_1_Pod_1_ZN_1_FLR_2 Sys-3 Flr-1 Sch-D HPlcmt-south ZN NECB System 3 PSZ Occ Sch Summer Design Day, !- SummerDesignDay Schedule:Day Name\n   ** Warning ** IP: IDF line~3882 Alpha Argument length exceeds maximum, will be truncated=  Sp-Corner_Class_1_Pod_1_ZN_1_FLR_2 Sys-3 Flr-1 Sch-D HPlcmt-south ZN NECB System 3 PSZ Occ Sch Summer Design Da\n   **   ~~~   ** Will be processed as Alpha=SP-CORNER_CLASS_1_POD_1_ZN_1_FLR_2 SYS-3 FLR-1 SCH-D HPLCMT-SOUTH ZN NECB SYSTEM 3 PSZ OCC SCH SUMMER DESIGN DAY\n   ************* IDF Context for following error/warning message:\n   ************* Note -- lines truncated at 300 characters, if necessary...\n   *************   3872 Schedule:Week:Daily,\n   ************* indicated Name=Schedule:Week:Daily {857ff96c-542f-4d6d-a861-8a459d111cdf}\n   ************* Only last 10 lines before error line shown.....\n   *************   3874   Sp-Corner_Class_1_Pod_1_ZN_1_FLR_2 Sys-3 Flr-1 Sch-D HPlcmt-south ZN NECB System 3 PSZ Occ Sch Sunday, !- Sunday Schedule:Day Name\n   *************   3875   Sp-Corner_Class_1_Pod_1_ZN_1_FLR_2 Sys-3 Flr-1 Sch-D HPlcmt-south ZN NECB System 3 PSZ Occ Sch Monday, !- Monday Schedule:Day Name\n   *************   3876   Sp-Corner_Class_1_Pod_1_ZN_1_FLR_2 Sys-3 Flr-1 Sch-D HPlcmt-south ZN NECB System 3 PSZ Occ Sch Tuesday, !- Tuesday Schedule:Day Name\n   *************   3877   Sp-Corner_Class_1_Pod_1_ZN_1_FLR_2 Sys-3 Flr-1 Sch-D HPlcmt-south ZN NECB System 3 PSZ Occ Sch Wednesday, !- Wednesday Schedule:Day Name\n   *************   3878   Sp-Corner_Class_1_Pod_1_ZN_1_FLR_2 Sys-3 Flr-1 Sch-D HPlcmt-south ZN NECB System 3 PSZ Occ Sch Thursday, !- Thursday Schedule:Day Name\n   *************   3879   Sp-Corner_Class_1_Pod_1_ZN_1_FLR_2 Sys-3 Flr-1 Sch-D HPlcmt-south ZN NECB System 3 PSZ Occ Sch Friday, !- Friday Schedule:Day Name\n   *************   3880   Sp-Corner_Class_1_Pod_1_ZN_1_FLR_2 Sys-3 Flr-1 Sch-D HPlcmt-south ZN NECB System 3 PSZ Occ Sch Saturday, !- Saturday Schedule:Day Name\n   *************   3881   Sp-Corner_Class_1_Pod_1_ZN_1_FLR_2 Sys-3 Flr-1 Sch-D HPlcmt-south ZN NECB System 3 PSZ Occ Sch Default, !- Holiday Schedule:Day Name\n   *************   3882   Sp-Corner_Class_1_Pod_1_ZN_1_FLR_2 Sys-3 Flr-1 Sch-D HPlcmt-south ZN NECB System 3 PSZ Occ Sch Summer Design Day, !- SummerDesignDay Schedule:Day Name\n   *************   3883   Sp-Corner_Class_1_Pod_1_ZN_1_FLR_2 Sys-3 Flr-1 Sch-D HPlcmt-south ZN NECB System 3 PSZ Occ Sch Winter Design Day, !- WinterDesignDay Schedule:Day Name\n   ** Warning ** IP: IDF line~3883 Alpha Argument length exceeds maximum, will be truncated=  Sp-Corner_Class_1_Pod_1_ZN_1_FLR_2 Sys-3 Flr-1 Sch-D HPlcmt-south ZN NECB System 3 PSZ Occ Sch Winter Design Da\n   **   ~~~   ** Will be processed as Alpha=SP-CORNER_CLASS_1_POD_1_ZN_1_FLR_2 SYS-3 FLR-1 SCH-D HPLCMT-SOUTH ZN NECB SYSTEM 3 PSZ OCC SCH WINTER DESIGN DAY\n   ************* IDF Context for following error/warning message:\n   ************* Note -- lines truncated at 300 characters, if necessary...\n   *************   3872 Schedule:Week:Daily,\n   ************* indicated Name=Schedule:Week:Daily {857ff96c-542f-4d6d-a861-8a459d111cdf}\n   ************* Only last 10 lines before error line shown.....\n   *************   3875   Sp-Corner_Class_1_Pod_1_ZN_1_FLR_2 Sys-3 Flr-1 Sch-D HPlcmt-south ZN NECB System 3 PSZ Occ Sch Monday, !- Monday Schedule:Day Name\n   *************   3876   Sp-Corner_Class_1_Pod_1_ZN_1_FLR_2 Sys-3 Flr-1 Sch-D HPlcmt-south ZN NECB System 3 PSZ Occ Sch Tuesday, !- Tuesday Schedule:Day Name\n   *************   3877   Sp-Corner_Class_1_Pod_1_ZN_1_FLR_2 Sys-3 Flr-1 Sch-D HPlcmt-south ZN NECB System 3 PSZ Occ Sch Wednesday, !- Wednesday Schedule:Day Name\n   *************   3878   Sp-Corner_Class_1_Pod_1_ZN_1_FLR_2 Sys-3 Flr-1 Sch-D HPlcmt-south ZN NECB System 3 PSZ Occ Sch Thursday, !- Thursday Schedule:Day Name\n   *************   3879   Sp-Corner_Class_1_Pod_1_ZN_1_FLR_2 Sys-3 Flr-1 Sch-D HPlcmt-south ZN NECB System 3 PSZ Occ Sch Friday, !- Friday Schedule:Day Name\n   *************   3880   Sp-Corner_Class_1_Pod_1_ZN_1_FLR_2 Sys-3 Flr-1 Sch-D HPlcmt-south ZN NECB System 3 PSZ Occ Sch Saturday, !- Saturday Schedule:Day Name\n   *************   3881   Sp-Corner_Class_1_Pod_1_ZN_1_FLR_2 Sys-3 Flr-1 Sch-D HPlcmt-south ZN NECB System 3 PSZ Occ Sch Default, !- Holiday Schedule:Day Name\n   *************   3882   Sp-Corner_Class_1_Pod_1_ZN_1_FLR_2 Sys-3 Flr-1 Sch-D HPlcmt-south ZN NECB System 3 PSZ Occ Sch Summer Design Day, !- SummerDesignDay Schedule:Day Name\n   *************   3883   Sp-Corner_Class_1_Pod_1_ZN_1_FLR_2 Sys-3 Flr-1 Sch-D HPlcmt-south ZN NECB System 3 PSZ Occ Sch Winter Design Day, !- WinterDesignDay Schedule:Day Name\n   *************   3884   Sp-Corner_Class_1_Pod_1_ZN_1_FLR_2 Sys-3 Flr-1 Sch-D HPlcmt-south ZN NECB System 3 PSZ Occ Sch Default, !- CustomDay1 Schedule:Day Name\n   ** Warning ** IP: IDF line~3884 Alpha Argument length exceeds maximum, will be truncated=  Sp-Corner_Class_1_Pod_1_ZN_1_FLR_2 Sys-3 Flr-1 Sch-D HPlcmt-south ZN NECB System 3 PSZ Occ Sch Defaul\n   **   ~~~   ** Will be processed as Alpha=SP-CORNER_CLASS_1_POD_1_ZN_1_FLR_2 SYS-3 FLR-1 SCH-D HPLCMT-SOUTH ZN NECB SYSTEM 3 PSZ OCC SCH DEFAULT\n   ************* IDF Context for following error/warning message:\n   ************* Note -- lines truncated at 300 characters, if necessary...\n   *************   3872 Schedule:Week:Daily,\n   ************* indicated Name=Schedule:Week:Daily {857ff96c-542f-4d6d-a861-8a459d111cdf}\n   ************* Only last 10 lines before error line shown.....\n   *************   3876   Sp-Corner_Class_1_Pod_1_ZN_1_FLR_2 Sys-3 Flr-1 Sch-D HPlcmt-south ZN NECB System 3 PSZ Occ Sch Tuesday, !- Tuesday Schedule:Day Name\n   *************   3877   Sp-Corner_Class_1_Pod_1_ZN_1_FLR_2 Sys-3 Flr-1 Sch-D HPlcmt-south ZN NECB System 3 PSZ Occ Sch Wednesday, !- Wednesday Schedule:Day Name\n   *************   3878   Sp-Corner_Class_1_Pod_1_ZN_1_FLR_2 Sys-3 Flr-1 Sch-D HPlcmt-south ZN NECB System 3 PSZ Occ Sch Thursday, !- Thursday Schedule:Day Name\n   *************   3879   Sp-Corner_Class_1_Pod_1_ZN_1_FLR_2 Sys-3 Flr-1 Sch-D HPlcmt-south ZN NECB System 3 PSZ Occ Sch Friday, !- Friday Schedule:Day Name\n   *************   3880   Sp-Corner_Class_1_Pod_1_ZN_1_FLR_2 Sys-3 Flr-1 Sch-D HPlcmt-south ZN NECB System 3 PSZ Occ Sch Saturday, !- Saturday Schedule:Day Name\n   *************   3881   Sp-Corner_Class_1_Pod_1_ZN_1_FLR_2 Sys-3 Flr-1 Sch-D HPlcmt-south ZN NECB System 3 PSZ Occ Sch Default, !- Holiday Schedule:Day Name\n   *************   3882   Sp-Corner_Class_1_Pod_1_ZN_1_FLR_2 Sys-3 Flr-1 Sch-D HPlcmt-south ZN NECB System 3 PSZ Occ Sch Summer Design Day, !- SummerDesignDay Schedule:Day Name\n   *************   3883   Sp-Corner_Class_1_Pod_1_ZN_1_FLR_2 Sys-3 Flr-1 Sch-D HPlcmt-south ZN NECB System 3 PSZ Occ Sch Winter Design Day, !- WinterDesignDay Schedule:Day Name\n   *************   3884   Sp-Corner_Class_1_Pod_1_ZN_1_FLR_2 Sys-3 Flr-1 Sch-D HPlcmt-south ZN NECB System 3 PSZ Occ Sch Default, !- CustomDay1 Schedule:Day Name\n   *************   3885   Sp-Corner_Class_1_Pod_1_ZN_1_FLR_2 Sys-3 Flr-1 Sch-D HPlcmt-south ZN NECB System 3 PSZ Occ Sch Default; !- CustomDay2 Schedule:Day Name\n   ** Warning ** IP: IDF line~3885 Alpha Argument length exceeds maximum, will be truncated=  Sp-Corner_Class_1_Pod_1_ZN_1_FLR_2 Sys-3 Flr-1 Sch-D HPlcmt-south ZN NECB System 3 PSZ Occ Sch Defaul\n   **   ~~~   ** Will be processed as Alpha=SP-CORNER_CLASS_1_POD_1_ZN_1_FLR_2 SYS-3 FLR-1 SCH-D HPLCMT-SOUTH ZN NECB SYSTEM 3 PSZ OCC SCH DEFAULT\n   ************* IDF Context for following error/warning message:\n   ************* Note -- lines truncated at 300 characters, if necessary...\n   *************   3896 Schedule:Day:Interval,\n   ************* indicated Name=Sp-Corner_Class_1_Pod_1_ZN_1_FLR_2 Sys-3 Flr-1 Sch-D HPlcmt-south ZN NECB System 3 PSZ Occ Sch Default\n   ************* Only last 1 lines before error line shown.....\n   *************   3897   Sp-Corner_Class_1_Pod_1_ZN_1_FLR_2 Sys-3 Flr-1 Sch-D HPlcmt-south ZN NECB System 3 PSZ Occ Sch Default, !- Name\n   ** Warning ** IP: IDF line~3897 Alpha Argument length exceeds maximum, will be truncated=  Sp-Corner_Class_1_Pod_1_ZN_1_FLR_2 Sys-3 Flr-1 Sch-D HPlcmt-south ZN NECB System 3 PSZ Occ Sch Defaul\n   **   ~~~   ** Will be processed as Alpha=SP-CORNER_CLASS_1_POD_1_ZN_1_FLR_2 SYS-3 FLR-1 SCH-D HPLCMT-SOUTH ZN NECB SYSTEM 3 PSZ OCC SCH DEFAULT\n   ************* IDF Context for following error/warning message:\n   ************* Note -- lines truncated at 300 characters, if necessary...\n   *************   3903 Schedule:Day:Interval,\n   ************* indicated Name=Sp-Corner_Class_1_Pod_1_ZN_1_FLR_2 Sys-3 Flr-1 Sch-D HPlcmt-south ZN NECB System 3 PSZ Occ Sch Summer Design Day\n   ************* Only last 1 lines before error line shown.....\n   *************   3904   Sp-Corner_Class_1_Pod_1_ZN_1_FLR_2 Sys-3 Flr-1 Sch-D HPlcmt-south ZN NECB System 3 PSZ Occ Sch Summer Design Day, !- Name\n   ** Warning ** IP: IDF line~3904 Alpha Argument length exceeds maximum, will be truncated=  Sp-Corner_Class_1_Pod_1_ZN_1_FLR_2 Sys-3 Flr-1 Sch-D HPlcmt-south ZN NECB System 3 PSZ Occ Sch Summer Design Da\n   **   ~~~   ** Will be processed as Alpha=SP-CORNER_CLASS_1_POD_1_ZN_1_FLR_2 SYS-3 FLR-1 SCH-D HPLCMT-SOUTH ZN NECB SYSTEM 3 PSZ OCC SCH SUMMER DESIGN DAY\n   ************* IDF Context for following error/warning message:\n   ************* Note -- lines truncated at 300 characters, if necessary...\n   *************   3910 Schedule:Day:Interval,\n   ************* indicated Name=Sp-Corner_Class_1_Pod_1_ZN_1_FLR_2 Sys-3 Flr-1 Sch-D HPlcmt-south ZN NECB System 3 PSZ Occ Sch Winter Design Day\n   ************* Only last 1 lines before error line shown.....\n   *************   3911   Sp-Corner_Class_1_Pod_1_ZN_1_FLR_2 Sys-3 Flr-1 Sch-D HPlcmt-south ZN NECB System 3 PSZ Occ Sch Winter Design Day, !- Name\n   ** Warning ** IP: IDF line~3911 Alpha Argument length exceeds maximum, will be truncated=  Sp-Corner_Class_1_Pod_1_ZN_1_FLR_2 Sys-3 Flr-1 Sch-D HPlcmt-south ZN NECB System 3 PSZ Occ Sch Winter Design Da\n   **   ~~~   ** Will be processed as Alpha=SP-CORNER_CLASS_1_POD_1_ZN_1_FLR_2 SYS-3 FLR-1 SCH-D HPLCMT-SOUTH ZN NECB SYSTEM 3 PSZ OCC SCH WINTER DESIGN DAY\n   ************* IDF Context for following error/warning message:\n   ************* Note -- lines truncated at 300 characters, if necessary...\n   *************   4179 Schedule:Day:Interval,\n   ************* indicated Name=Sp-Corner_Class_1_Pod_2_ZN_1_FLR_1 Sys-3 Flr-2 Sch-D HPlcmt-south ZN NECB System 3 PSZ Occ Sch Sunday\n   ************* Only last 1 lines before error line shown.....\n   *************   4180   Sp-Corner_Class_1_Pod_2_ZN_1_FLR_1 Sys-3 Flr-2 Sch-D HPlcmt-south ZN NECB System 3 PSZ Occ Sch Sunday, !- Name\n   ** Warning ** IP: IDF line~4180 Alpha Argument length exceeds maximum, will be truncated=  Sp-Corner_Class_1_Pod_2_ZN_1_FLR_1 Sys-3 Flr-2 Sch-D HPlcmt-south ZN NECB System 3 PSZ Occ Sch Sunda\n   **   ~~~   ** Will be processed as Alpha=SP-CORNER_CLASS_1_POD_2_ZN_1_FLR_1 SYS-3 FLR-2 SCH-D HPLCMT-SOUTH ZN NECB SYSTEM 3 PSZ OCC SCH SUNDAY\n   ************* IDF Context for following error/warning message:\n   ************* Note -- lines truncated at 300 characters, if necessary...\n   *************   4186 Schedule:Day:Interval,\n   ************* indicated Name=Sp-Corner_Class_1_Pod_2_ZN_1_FLR_1 Sys-3 Flr-2 Sch-D HPlcmt-south ZN NECB System 3 PSZ Occ Sch Monday\n   ************* Only last 1 lines before error line shown.....\n   *************   4187   Sp-Corner_Class_1_Pod_2_ZN_1_FLR_1 Sys-3 Flr-2 Sch-D HPlcmt-south ZN NECB System 3 PSZ Occ Sch Monday, !- Name\n   ** Warning ** IP: IDF line~4187 Alpha Argument length exceeds maximum, will be truncated=  Sp-Corner_Class_1_Pod_2_ZN_1_FLR_1 Sys-3 Flr-2 Sch-D HPlcmt-south ZN NECB System 3 PSZ Occ Sch Monda\n   **   ~~~   ** Will be processed as Alpha=SP-CORNER_CLASS_1_POD_2_ZN_1_FLR_1 SYS-3 FLR-2 SCH-D HPLCMT-SOUTH ZN NECB SYSTEM 3 PSZ OCC SCH MONDAY\n   ************* IDF Context for following error/warning message:\n   ************* Note -- lines truncated at 300 characters, if necessary...\n   *************   4201 Schedule:Day:Interval,\n   ************* indicated Name=Sp-Corner_Class_1_Pod_2_ZN_1_FLR_1 Sys-3 Flr-2 Sch-D HPlcmt-south ZN NECB System 3 PSZ Occ Sch Tuesday\n   ************* Only last 1 lines before error line shown.....\n   *************   4202   Sp-Corner_Class_1_Pod_2_ZN_1_FLR_1 Sys-3 Flr-2 Sch-D HPlcmt-south ZN NECB System 3 PSZ Occ Sch Tuesday, !- Name\n   ** Warning ** IP: IDF line~4202 Alpha Argument length exceeds maximum, will be truncated=  Sp-Corner_Class_1_Pod_2_ZN_1_FLR_1 Sys-3 Flr-2 Sch-D HPlcmt-south ZN NECB System 3 PSZ Occ Sch Tuesda\n   **   ~~~   ** Will be processed as Alpha=SP-CORNER_CLASS_1_POD_2_ZN_1_FLR_1 SYS-3 FLR-2 SCH-D HPLCMT-SOUTH ZN NECB SYSTEM 3 PSZ OCC SCH TUESDAY\n   ************* IDF Context for following error/warning message:\n   ************* Note -- lines truncated at 300 characters, if necessary...\n   *************   4216 Schedule:Day:Interval,\n   ************* indicated Name=Sp-Corner_Class_1_Pod_2_ZN_1_FLR_1 Sys-3 Flr-2 Sch-D HPlcmt-south ZN NECB System 3 PSZ Occ Sch Wednesday\n   ************* Only last 1 lines before error line shown.....\n   *************   4217   Sp-Corner_Class_1_Pod_2_ZN_1_FLR_1 Sys-3 Flr-2 Sch-D HPlcmt-south ZN NECB System 3 PSZ Occ Sch Wednesday, !- Name\n   ** Warning ** IP: IDF line~4217 Alpha Argument length exceeds maximum, will be truncated=  Sp-Corner_Class_1_Pod_2_ZN_1_FLR_1 Sys-3 Flr-2 Sch-D HPlcmt-south ZN NECB System 3 PSZ Occ Sch Wednesda\n   **   ~~~   ** Will be processed as Alpha=SP-CORNER_CLASS_1_POD_2_ZN_1_FLR_1 SYS-3 FLR-2 SCH-D HPLCMT-SOUTH ZN NECB SYSTEM 3 PSZ OCC SCH WEDNESDAY\n   ************* IDF Context for following error/warning message:\n   ************* Note -- lines truncated at 300 characters, if necessary...\n   *************   4231 Schedule:Day:Interval,\n   ************* indicated Name=Sp-Corner_Class_1_Pod_2_ZN_1_FLR_1 Sys-3 Flr-2 Sch-D HPlcmt-south ZN NECB System 3 PSZ Occ Sch Thursday\n   ************* Only last 1 lines before error line shown.....\n   *************   4232   Sp-Corner_Class_1_Pod_2_ZN_1_FLR_1 Sys-3 Flr-2 Sch-D HPlcmt-south ZN NECB System 3 PSZ Occ Sch Thursday, !- Name\n   ** Warning ** IP: IDF line~4232 Alpha Argument length exceeds maximum, will be truncated=  Sp-Corner_Class_1_Pod_2_ZN_1_FLR_1 Sys-3 Flr-2 Sch-D HPlcmt-south ZN NECB System 3 PSZ Occ Sch Thursda\n   **   ~~~   ** Will be processed as Alpha=SP-CORNER_CLASS_1_POD_2_ZN_1_FLR_1 SYS-3 FLR-2 SCH-D HPLCMT-SOUTH ZN NECB SYSTEM 3 PSZ OCC SCH THURSDAY\n   ************* IDF Context for following error/warning message:\n   ************* Note -- lines truncated at 300 characters, if necessary...\n   *************   4246 Schedule:Day:Interval,\n   ************* indicated Name=Sp-Corner_Class_1_Pod_2_ZN_1_FLR_1 Sys-3 Flr-2 Sch-D HPlcmt-south ZN NECB System 3 PSZ Occ Sch Friday\n   ************* Only last 1 lines before error line shown.....\n   *************   4247   Sp-Corner_Class_1_Pod_2_ZN_1_FLR_1 Sys-3 Flr-2 Sch-D HPlcmt-south ZN NECB System 3 PSZ Occ Sch Friday, !- Name\n   ** Warning ** IP: IDF line~4247 Alpha Argument length exceeds maximum, will be truncated=  Sp-Corner_Class_1_Pod_2_ZN_1_FLR_1 Sys-3 Flr-2 Sch-D HPlcmt-south ZN NECB System 3 PSZ Occ Sch Frida\n   **   ~~~   ** Will be processed as Alpha=SP-CORNER_CLASS_1_POD_2_ZN_1_FLR_1 SYS-3 FLR-2 SCH-D HPLCMT-SOUTH ZN NECB SYSTEM 3 PSZ OCC SCH FRIDAY\n   ************* IDF Context for following error/warning message:\n   ************* Note -- lines truncated at 300 characters, if necessary...\n   *************   4261 Schedule:Day:Interval,\n   ************* indicated Name=Sp-Corner_Class_1_Pod_2_ZN_1_FLR_1 Sys-3 Flr-2 Sch-D HPlcmt-south ZN NECB System 3 PSZ Occ Sch Saturday\n   ************* Only last 1 lines before error line shown.....\n   *************   4262   Sp-Corner_Class_1_Pod_2_ZN_1_FLR_1 Sys-3 Flr-2 Sch-D HPlcmt-south ZN NECB System 3 PSZ Occ Sch Saturday, !- Name\n   ** Warning ** IP: IDF line~4262 Alpha Argument length exceeds maximum, will be truncated=  Sp-Corner_Class_1_Pod_2_ZN_1_FLR_1 Sys-3 Flr-2 Sch-D HPlcmt-south ZN NECB System 3 PSZ Occ Sch Saturda\n   **   ~~~   ** Will be processed as Alpha=SP-CORNER_CLASS_1_POD_2_ZN_1_FLR_1 SYS-3 FLR-2 SCH-D HPLCMT-SOUTH ZN NECB SYSTEM 3 PSZ OCC SCH SATURDAY\n   *********
[...]
uJc83gkn0YNca55qJJPo4adXJNW6TRKv1BSLa1afMKEQYJOq9gk6MFgk6DHgk2CTqvYJOi0ik2CTqvYJOi0ik2CXm7ZJDRpFZ8GvdzyadDLLZ8GnVbxadBpFZ8GnVbxadBpFZ8GnVbxadBpFZ9GDXGuSav4NGqIc01axadRw06uSat0GqWF4KulVYtK8QwSdFrFJkEPBpsEPRZsEnRaxSZBp1VsEnRaxSZBp1VsEvRyyyahSav4NOjllk+DXm75NOi0ik+DTqv4NOi0ik+DTqv4NOi0ik+DTqv4NGqIc01axadRQ5xr0io+jRp2ck1apdMorbdbLa1aFORlkKDTKjYJejDYJOixYJOg0yo2CTqtYpOg0yo2CTqtYpOgl1s2CU1axadBL7d8GvRyy6dBp1V8GnRaxadBp1V8GnRaxadBp1V8GnRaxadRQ5xr0io+jRriXJNW8WnUsJNr0iqdRmlZw2pp1aLuIYMEnVaxSdCDwSZBjwWbBJ1WsUnQaRWbBJ1WsUnQaRWbBL3cskloi61xaeiqVXFp6ApZcWnoalxxaejKX3Fp6Gq+cWnoysFxaegqxXFp6IrIcWnUEOfa0nNcGjXEubZgHZdGDTu5Jq1aaXyvUuF1WdFZHIlI3q8qyBaFYxvp3bhZVIAtLRW7Kgudyux9PIv8tNFtN4XjdJuio35zu9XKzT7kGE/Vrn2/72VyHCfz44cgXZRVfrr/CrWncwfniS+Ti5mqcly5oeKYv+T4JL10lsgFhirUvOz3Ddf9hhlmmGGGGWaYYYYZZphhhhlmmGGGGWaYYYYZZphhhhlmmGGGGWaYYYYZZphhhhlmmGGGGWaYYYYZZphhhhlmmGGGGWaYYYb5L2We2/GdTJLAl5889WKtY7f/z/dV1aux6ctXYy9lEsh0+Xqt1Vy9QDwN48wOg0iWviKbvvaebvmbtaldfHp+GodeFsRRDmWlmZy2ruUoTqRV7c3nj3IsI//lDS3ONXrtpuioN5fb6kVm9cMK5ShTYCWuV27twVhmp1Gm+ieXGM2iYUHa2BZ/lLhYEcqn1lel73KrIxiJRjYJUjstRqWakDqeNbLz/jv1hpPGf4FNva3w1avjOfvS72Aap4FyeJKfrnI3q0O5eYUqie/NkFZYQeRLFQ8tp2nYenXcrNtwFMhQzbfGsk8XcTJO4tlU+uLnn8Xflucf7MHES5fvv6sA235unb9qzTvE9sbjM6VhhzIaZxPxTrjin8I6DkNLHL68Ig2DoWy0nO2r9vft0nj7053EiWjc5LfS/kXc5DLLqbrUVef+nq845gOkDjWNl/6ubr7bP+RcHB0dLTpvPY+F1+Ww35je6uq4TqT3Y53Gj4ZtTK9X/bW8uyM1rdVkWM6UopCDPfDSNBhH0u+rEhHpVdGT39frytVAT2fppLHuWORDergYz/UjKQwPq9ylra5cVyXNkviHrKazuHZdpXjqDYNsXk1qefHad1VIrKTW9bJaSF4uK+uEh/Hio45VOL9ceERLOKbeTMKtOutjs9hVK13/WJZTqGNnR3z5/av49/nvF+Ly/OLrb59/FR/Pf/2tLz6cXpxWc3CWr9rywVMpmshikcZJJqLZbT4PhqIoaZIKLx3myUsQjSt4XPW98vNsZ/aa4rr64pLIbJZEYuolqTwLYy9reGrJ386H8tm56+Jcpc4sT9GeyS5voczx42YrvTzln0W4F8He2PLlyJuFmZgmcb6Gya2m2Pppf7/fPz3d2nDhGeAABzjAAQ5wgAMc4AAHOMD5a+KIdHab/wksfKlOCt+bK6JE+qABDWhAAxrQgAY0oAENaEADGj3NffFo1v/QXIczCRzgAAc4wAEOcIADHOAABzjAWQfn6buBjvpu4OWM+m5gxyn+h+34eHf34ACkIAUpSEEKUpCCFKQgBSlIQQpSkL4NUrcg9TKKtF2Qdjquu98DKUhBClKQghSkIAUpSEEKUpCCFKRvg7SjSM+SgCB1DwpSx9nb63RAClKQghSkIAUpSEEKUpCCFKQgBenbIN1VpF8nM4p0vyA9yI/ue5CCFKQgBSlIQQpSkIIUpCAFKUhB+jZIu4r0X9KnSPcK0pOTfn9vD6QgBSlIQQpSkIIUpCAFKUhBClKQvg3SXvEvEzNJkfYK0n6/1wMpSEEKUpCCFKQgBSlIQQpSkIIUpG+FdE+RfoqpyoJutyDd33fdbhekIAUpSEEKUpCCFKQgBSlIQQpSkNZGukLxE+++Uerswc6CLJSXE28q7Uw+ZI2tD/EsScsx5n9ueRLcyigN4iiUaeGhxMXOjjj2feGJwpO4D7KJSONbKfxOScv0bmx706mM/IaltK3tkgarw/ayLGlYD1ZT9NqGjeZ5I7d6ozSbh3KB1/Ki4SRO8vZWKEcGtEsfozjKWvcyGE8y5eM6Dv3qPhZjczltfZqF2aAf5nN04A6+xH7+89vngTM4+3gxcMXlPG11xFmYtBxxOZy0TsSHL+HwNmtFcZKPy7fP4vNp/726LJO3oiO+XH4T58OhunZrWzfS73bSYRJMs3+Q17zb8YO7181kG9pZ7ksE/pE1VGHQz3vOCyKZDJy9XUsU/Xlk+UE6Db35YRCFua11HcbDH79YNGDudXEPIptP8/aqS3duvDtvcVbbUh13XqKmrDgSfnA7DaUdyfvLu3HD+ukVyKbYbbeLH6UxqPz6Xubljq/+sELvWobWoeXLkZcPtZgm8SgIpdVcWAYP1qFjt5vWnRfO5PL3oVqq8jb56tPvn55aj81KflwmPx0mP7tMfrpMfnpMfvaY/Owz+Tlg8uO0uRxxzWiHa0o7XHPa4ZrUDtesdrimtcM1rx2uie1wzWyXa2a7bGs118x2uWa2azSzRTq7vX3x7epKO1oifQM3ZB+ZuSF7yMwN2T9mbsi4N3NDRr2ZGzLmzdyQEW/mhox3Mzf0Rmboh2ke09uYoR+mmUxvYoZ+mOYyvYUZ+mGazfQGZuiHaT7T25ehH651mWk+03uXoZ/q8/k+iDLzbetanaruh+weQz9k9xj6IbvH0A8Z7oZ+yHA39EOGu6EfMtwN/ZDhbuiH3r9MHXHNaHoHM3XENafpPczUEdespncxU0dc85rex0wdcc1seiczdcS2VnPNbHozM3VUfWY//WdG6ceGqW2u/eIPvcXXiBkk3M1LdDYvsbt5ie7mJXqbl9jbvMT+5iUONi/xYmfflEYN8e3UEOBODRHu1BDiTg0x7tQQ5E4NUe7UEOZODXHu1hDnbh37eA1x7tYQ5+56cV76TcdqadXio48MEvRosEnQg8EmQY8FmwS95LJJ0CsumwS94LJJ0OstmwS93LJJaNIqPo0a4luTVvFp1BDhmrSKT6OGGNekVXwaNUS5Jq3i06ghzjVpFZ9GHft4DXGuSav4NNaL89JPZ1VLqxbf1mKQoEeDTYIeDDYJeizYJOgll02CXnHZJOgFl02CXm/ZJOjllk1C80Agnwb9RBWfBv2wFZ8G/RwWnwb9iBafBv1cIp8G/cginwb9NCOfBv2gI59GDXGueTyST6OGONc8VMmnUcNOrkmrdBqlXyipllYtPmHCIEGnVWwS9GCwSdBjwSZBp1VsEnRaxSZBp1VsEnRaxSZBL7dsEpq0ik+DXm75NOjllk+DTqv4NOi0ik+DTqv4NOi0ik+DTqv4NOi0ik+jhjjXpFV8GjXEuSat4tOoYSfXpFU6jdJC8NXSqkWleAYJOq1ik6AHg02CHgs2CTqtYpOg0yo2CTqtYpOg0yo2CXq5ZZPQpFV8GvRyy6dBL7d8GnRaxadBp1V8GnRaxadBp1V8GnRaxadBp1V8GjXEuSat4tOoIc41aRWfRg07uSat0mmU1tutllYtCvIySNBpFZsEPRhsEvRYsEnQaRWbBJ1WsUnQaRWbBJ1WsUnQyy2bhCat4tOgl1s+DXq55dOg0yo+DTqt4tOg0yo+DTqt4tOg0yo+DTqt4tOoIc41aRWfRg1xrkmr+DRq2Mk1aZVOo7SsYbW0alH3kEGCTqvYJOjBYJOgx4JNgk6r2CTotIpNgk6r2CTotIpNgl5u2SS0xda4NHTVqrg0dIWsuDR0Na64NHTlr7g0dDXfuDR05eC4NHSV4rg0dEXkuDRqiHNt6TkujRriXFuwjkujhp1ck1atNL5XqfC6rOgsjkQk71cVZIvCsY30btwsKsCWlopdlYVOZfY+nkV+2ui2m8Jxuk3RUb+53WrlZh9yjKdq177f9zI5jpP58UOQLsoqP91/hdrTuYPzxJfJxUxVOa7cUHHMX3J8kl46S+QCQxVqXvb7hut+wwwzzDDDDDPMMMMMM8wwwwwzzDDDDDPMMMMMM8wwwwwzzDDDDDPMMMMMM8wwwwwzzDDDDDPMMMMMM8wwwwwzzDDDDDPMMMP8lzLP7fhOJkngy0+eerHWsdv/5/uq6tXY9OWrsZcyCWS6fL3Waq5eIJ6GcWaHQSRLX5FNX3tPt/zN2tQuPj0/jUMvC+Ioh7LSTE5b13IUJ9Kq9ubzRzmWkf/yhhbnGr12U3TUm8tt9SKz+mGFcpQpsBLXK7f2YCyz0yhT/ZNLjGbRsCBtbIs/SlysCOVT66vSd7nVEYxEI5sEqZ0Wo1JNSB3PGtl5/516w0njv8Cm3lb46tXxnH3pdzCN00A5PMlPV7mb1aHcvEKVxPdmSCusIPKlioeW0zRsvTpu1m04CmSo5ltj2aeLOBkn8WwqffHzz+Jvy/MP9mDipcv331WAbT+3zl+15h1ie+PxmdKwQxmNs4l4J1zxT2Edh6ElDl9ekYbBUDZazvZV+/t2abz96U7iRDRu8ltp/yJucpnlVF3qqnN/z1cc8wFSh5rGS39XN9/tH3Iujo6OFp23nsfC63LYb0xvdXVcJ9L7sU7jR8M2pter/lre3ZGa1moyLGdKUcjBHnhpGowj6fdViYj0qujJ7+t15Wqgp7N00lh3LPIhPVyM5/qRFIaHVe7SVleuq5JmSfxDVtNZXLuuUjz1hkE2rya1vHjtuyokVlLrelktJC+XlXXCw3jxUccqnF8uPKIlHFNvJuFWnfWxWeyqla5/LMsp1LGzI778/lX8+/z3C3F5fvH1t8+/io/nv/7WFx9OL06rOTjLV2354KkUTWSxSOMkE9HsNp8HQ1GUNEmFlw7z5CWIxhU8rvpe+Xm2M3tNcV19cUlkNksiMfWSVJ6FsZc1PLXkb+dD+ezcdXGuUmeWp2jPZJe3UOb4cbOVXp7yzyLci2BvbPly5M3CTEyTOF/D5FZTbP20v9/vn55ubbjwDHCAAxzgAAc4wAEOcIADHOD8NXFEOrvN/wQWvlQnhe/NFVEifdCABjSgAQ1oQAMa0IAGNKABjZ7mvng0639orsOZBA5wgAMc4AAHOMABDnCAAxzgrIPz9N1AR3038HJGfTew4xT/w3Z8vLt7cABSkIIUpCAFKUhBClKQghSkIAUpSN8GqVuQehlF2i5IOx3X3e+BFKQgBSlIQQpSkIIUpCAFKUhBCtK3QdpRpGdJQJC6BwWp4+ztdTogBSlIQQpSkIIUpCAFKUhBClKQgvRtkO4q0q+TGUW6X5Ae5Ef3PUhBClKQghSkIAUpSEEKUpCCFKQgfRukXUX6L+lTpHsF6clJv7+3B1KQghSkIAUpSEEKUpCCFKQgBSlI3wZpr/iXiZmkSHsFab/f64EUpCAFKUhBClKQghSkIAUpSEEK0rdCuqdIP8VUZUG3W5Du77tutwtSkIIUpCAFKUhBClKQghSkIAUpSGsjXaH4iXffKHX2YGdBFsrLiTeVdiYfssbWh3iWpOUY8z+3PAluZZQGcRTKtPBQ4mJnRxz7vvBE4UncB9lEpPGtFH6npGV6N7a96VRGfsNS2tZ2SYPVYXtZljSsB6spem3DRvO8kVu9UZrNQ7nAa3nRcBIneXsrlCMD2qWPURxlrXsZjCeZ8nEdh351H4uxuZy2Ps3CbNAP8zk6cAdfYn/QGXz7PHAGZx8vBo64nKetjjgLk5YrLoeT1on48CUc3matKE7ycfn2WXw+7b9Xl2XyVnTEl8tv4nw4VNdubetG+t1OOkyCafYP8pp3O35w97qZbEM7y32JwD+yhioM+nnPeUEkk4Gz17VE0Z9Hlh+k09CbHwZRmNta12E8/PGLRQPmXhf3ILL5NG+vunTnxrvzFme1LdVx5yVqyooj4Qe301Dakby/vBs3rJ9egWyK3Xa7+FEag8qv72Ve7vjqDyv0rmVoHVq+HHn5UItpEo+CUFrNhWXwYB06drtp3XnhTC5/H6qlKm+Trz79/ump9dis5Mdl8tNh8rPL5KfL5KfH5GePyc8+k58DJj9Om8sR14x2uKa0wzWnHa5J7XDNaodrWjtc89rhmtgO18x2uWa2y7ZWc81sl2tmu0YzW6Sz29sX366utKMl0jdwQ/aRmRuyh8zckP1j5oaMezM3ZNSbuSFj3swNGfFmbsh4N3NDb2SGfpjmMb2NGfphmsn0Jmboh2ku01uYoR+m2UxvYIZ+mOYzvX0Z+uFal5nmM713GfqpPp/vgygz37au1anqfsjuMfRDdo+hH7J7DP2Q4W7ohwx3Qz9kuBv6IcPd0A8Z7oZ+6P3L1BHXjKZ3MFNHXHOa3sNMHXHNanoXM3XENa/pfczUEdfMpncyU0dsazXXzKY3M1NH1Wf2039mlH5smNrm2i/+0Ft8jZhBwt28RGfzErubl+huXqK3eYm9zUvsb17iYPMSL3b2TWnUEN9ODQHu1BDhTg0h7tQQ404NQe7UEOVODWHu1BDnbg1x7taxj9cQ524Nce6uF+el33SsllYtPvrIIEGPBpsEPRhsEvRYsEnQSy6bBL3isknQCy6bBL3esknQyy2bhCat4tOoIb41aRWfRg0Rrkmr+DRqiHFNWsWnUUOUa9IqPo0a4lyTVvFp1LGP1xDnmrSKT2O9OC/9dFa1tGrxbS0GCXo02CTowWCToMeCTYJectkk6BWXTYJecNkk6PWWTYJebtkkNA8E8mnQT1TxadAPW/Fp0M9h8WnQj2jxadDPJfJp0I8s8mnQTzPyadAPOvJp1BDnmscj+TRqiHPNQ5V8GjXs5Jq0SqdR+oWSamnV4hMmDBJ0WsUmQQ8GmwQ9FmwSdFrFJkGnVWwSdFrFJkGnVWwS9HLLJqFJq/g06OWWT4Nebvk06LSKT4NOq/g06LSKT4NOq/g06LSKT4NOq/g0aohzTVrFp1FDnGvSKj6NGnZyTVql0ygtBF8trVpUimeQoNMqNgl6MNgk6LFgk6DTKjYJOq1ik6DTKjYJOq1ik6CXWzYJTVrFp0Evt3wa9HLLp0GnVXwadFrFp0GnVXwadFrFp0GnVXwadFrFp1FDnGvSKj6NGuJck1bxadSwk2vSKp1Gab3damnVoiAvgwSdVrFJ0IPBJkGPBZsEnVaxSdBpFZsEnVaxSdBpFZsEvdyySWjSKj4Nernl06CXWz4NOq3i06DTKj4NOq3i06DTKj4NOq3i06DTKj6NGuJck1bxadQQ55q0ik+jhp1ck1bpNErLGlZLqxZ1Dxkk6LSKTYIeDDYJeizYJOi0ik2CTqvYJOi0ik2CTqvYJOjllk1CW2yNS0NXrYpLQ1fIiktDV+OKS0NX/opLQ1fzjUtDVw6OS0NXKY5LQ1dEjkujhjjXlp7j0qghzrUF67g0atjJNWnVSuN7lQqvy4rO4khE8n5VQbYoHNtI78bNogJsaanYVVnoVGbv41nkp41uuykcp9sUHfWb261WbvYhx3iqdu37fS+T4ziZHz8E6aKs8tP9V6g9nTs4T3yZXMxUlePKDRXH/CXHJ+mls0QuMFSh5mW/b7juN8wwwwwzzDDDDDPMMMMMM8wwwwwzzDDDDDPMMMMMM8wwwwwzzDDDDDPMMMMMM8wwwwwzzDDDDDPMMMMMM8wwwwwzzDDDDDPMfynz3I7vZJIEvvzkqRdrHbv9f76vql6NTV++Gnspk0Cmy9drrebqBeJpGGd2GESy9BXZ9LX3dMvfrE3t4tPz0zj0siCOcigrzeS0dS1HcSKtam8+f5RjGfkvb2hxrtFrN0VHvbncVi8yqx9WKEeZAitxvXJrD8YyO40y1T+5xGgWDQvSxrb4o8TFilA+tb4qfZdbHcFINLJJkNppMSrVhNTxrJGd99+pN5w0/gts6m2Fr14dz9mXfgfTOA2Uw5P8dJW7WR3KzStUSXxvhrTCCiJfqnhoOU3D1qvjZt2Go0CGar41ln26iJNxEs+m0hc//6e9s+1t29i69vfnV0xZoJZRSRYlvzfugaPYSYAkDuwERWMEAiWOJNoUKZCUbaHwf785FOVjN94kh9pij/ssfkhTbXKtizOzZ3YrcvSL+Cn9/K7ZG1th+v67SrDNx9H5s9G4QZrWaHSqPJqu9EbRWLwSbfEfYRy7riEOn54Rus5A1hrm5mXr+2Zuvv1wJ34galfxrbR+E1exTTpUU1/12a/xjKPfQepQwzjVu7z63ryWc3F0dLRovHKKiWra7Ve6t7o8+oG0rstcfK95je75qr3SuztSw1oNhnSkJBs5NHtWGDojT9pdtUVEeJm05PdyTbns6OksHNfK9kXcpYeL/iyfSa57WOQum+rMsi5hFPjXspjP4tyyTv7UGjjRvJhVenLpu0osllZlVZYTydNppUx6aE8+6lim89OJRzSEqaumk27FWe/ryapa6Pz7vJpCHVtb4vPXL+LPs6/n4uLs/Mv7T2/Fh7O377vi3cn5STGB03jWlneWKtFE5IvQDyLhzSbxOBiIZEuTUFjhIC5eHG9UQHHZ9krn0cps1UW/+OQSyGgWeGJqBaE8dX0rqllqyt+Mu/LRZ/3ks0KNmV+iPbJNbyFP+H69O7081J9JuifJXtuw5dCauZGYBn48h8mNutj4eX+/2z052VjzxjPAAQ5wgAMc4AAHOMABDnCA8+/EEeFsEv8nsLCl+lDY1lwRBdIGDWhAAxrQgAY0oAENaEADGtBk09wmj2b9jabvziRwgAMc4AAHOMABDnCAAxzgAKcMzsPvBprqdwMvZtTvBnbM5Bu24+Pt7YMDkIIUpCAFKUhBClKQghSkIAUpSEH6MkjbCakVUaSthLTTabf3d0EKUpCCFKQgBSlIQQpSkIIUpCAF6csg7SjS08AhSNsHCalp7u11OiAFKUhBClKQghSkIAUpSEEKUpCC9GWQbivSL+MZRbqfkB7Ex85rkIIUpCAFKUhBClKQghSkIAUpSEH6Mkh3FOkf0qZI9xLSN2+63b09kIIUpCAFKUhBClKQghSkIAUpSEH6Mkh3k/8zMZMU6W5C2u3u7oIUpCAFKUhBClKQghSkIAUpSEEK0pdCuqdIP/rUzoLtnYR0f7/d3tkBKUhBClKQghSkIAUpSEEKUpCCFKSVkS5R7MC6reWK3TUjJ3LlxdiaymYk76Laxjt/FoT5GPMfr3zjTKQXOr7nyjBRyJHY2hLHti0skSiJWycai9CfSGF3cq4Mb0ZNazqVnl0zlLexmXPB8mhaURTUjDujLnZbmhfN44vaxS8Ko7krF3gNyxuM/SC+3nDlUIM21Rj6XtS4lc5oHCmNvu/axTUWfXMxbXycuVGv68ZjtNfuffbtXqf37VPP7J1+OO+1xcU8bHTEqRs0THExGDfeiHef3cEkanh+EPfLt0/i00n3tTotkhPREZ8vvomzwUCdu7GZ1dOvtsJB4Eyj38lzXm3Zzs3zYfIaWizWEo59ZAxUGnTjlrMcTwY9c2/XEEl7Hhm2E05da37oeG4ca/Rdf3D9m0EDxqqLexDRfBpfr5p068q6sRafZl6pjhsrUENWHAnbmUxd2fTk7cXNqGb8/AxkXWy3WskfuTmodG0rsmLhy78M1+pL1zg0bDm04q4W08AfOq406otI7844NJutunFjuTOZ/n2gpqr4mnj26XZPToz7eiGdNpNOh0lnm0lnh0lnl0lnj0lnn0nngEnHbHEJcY1ok2tIm1xj2uQa1CbXqDa5hrXJNa5NroFtco3sNtfIbrPN1Vwju801sttaI1uEs8nkyW9XF1rRAmlryJBtpCdDtpCeDNk+ejJk3uvJkFmvJ0PmvJ4MmfF6MmS+68nQC5mmDtM4ppcxTR2mkUwvYpo6TGOZXsI0dZhGM72AaeowjWd6+dLU4ZqXmcYzvXZp6hQfz7eOF+kvW331UXEdsnk0dcjm0dQhm0dTh0x3TR0y3TV1yHTX1CHTXVOHTHdNHXr90hXiGtH0CqYrxDWm6TVMV4hrVNOrmK4Q17im1zFdIa6RTa9kukJsczXXyKYXM12h4iP74cuM3B8bppa51pP/0Fv8GjGDRXv9Fp31W2yv32Jn/Ra767fYW7/F/votDtZv8WRlX5dHBfltVpDgZgUZblaQ4mYFOW5WkORmBVluVpDmZgV53q4gz9tVrOMV5Hm7gjxvl8vz3N90LFZWLX70kcGC7g02C7oz2CzovmCzoKdcNgt6xmWzoCdcNgt6vmWzoKdbNouMsorPo4L8ziir+DwqyPCMsorPo4Iczyir+DwqyPKMsorPo4I8zyir+DyqWMcryPOMsorPo1ye5/50VrGyavHbWgwWdG+wWdCdwWZB9wWbBT3lslnQMy6bBT3hslnQ8y2bBf1sFJtFxgOBfB70E1V8HvTDVnwe9HNYfB70I1p8HvRziXwe9COLfB7004x8HvSDjnweFeR5RlnF51HFOl7BQp5RVvF5lFvKc3+hpFhZtfgJEwYLujfYLOjOYLOg+4LNgi6r2CzosorNgi6r2CzosorNgp5u2Swyyio+D7qs4vOgyyo+D7qs4vOgyyo+D7qs4vOgyyo+D7qs4vOgyyo+jwryPKOs4vOoYh2vYCHPKKv4PMot5bkbwRcrqxY7xTNY0L3BZkF3BpsF3RdsFnRZxWZBl1VsFnRZxWZBl1VsFvR0y2aRUVbxedBlFZ8HXVbxedBlFZ8HXVbxedBlFZ8HXVbxedBlFZ8HXVbxeVSQ5xllFZ9HFet4BQt5RlnF51FuKc/db7dYWbXYkJfBgu4NNgu6M9gs6L5gs6DLKjYLuqxis6DLKjYLuqxis6CnWzaLjLKKz4Muq/g86LKKz4Muq/g86LKKz4Muq/g86LKKz4Muq/g86LKKz6OCPM8oq/g8qljHK1jIM8oqPo9yS3nutobFyqrFvocMFnRvsFnQncFmQfcFmwVdVrFZ0GUVmwVdVrFZ0GUVm0XWvlNMFpmbrXF5ZO1WxeWRtZEVl0fWHldcHlnbX3F5ZO35xuWRtR0cl0fWTnFcHlmbyHF5VJDnGWUVn0cV63gFC3lGWcXnkb+Ufy+yw2u6o7M4Ep68Xe4gm2wcWwtvRvVkB9jcrWKX20KHMnrtzzw7rO206sI0d+qio/7W3im23exdjPGw27Vtd61IjvxgfnznhIttlR/uv8De07HAWWDL4HymdjkufKHimD/l+CitcBbIBYbaqDlt9zXv+40wwggjjDDCCCOMMMIII4wwwggjjDDCCCOMMMIII4wwwggjjDDCCCOMMMIII4wwwggjjDDCCCOMMMIII4wwwggjjDDCCCOM8L8qPG/6NzIIHFt+tNSLtWazteL7qurV2PDpq7EXMnBkmL5ea9SXLxBPXT9quo4nc1+RDZ97Tzf/zdqwmfz0/NR3rcjxvRjKCCM5bfTl0A+kUezN5w9yJD376Q0tPqvttuqio95cbqkXmdUfhiuHkQLLkV7KNnsjGZ14kWqf2GI48wYJaW1T/JUjsSSUD1df5r7LrQ5nKGrR2AmbYdIrxYzU8eiiZtx+J9ZgXPsvsK7aEl+9Oh6zp7q9qR86SvBN/HGRu1keSuYZqsC/1UNaYjmeLVU+NMy65tXL46rshUNHumq81dI2XeTJKPBnU2mLX34RP6Wf3zV7YytM339XCbb5ODp/Nho3SNMajU6VR9OV3igai1eiLf4jjGPXNcTh0zNC1xnIWsPcvGx938zNtx/uxA9E7Sq+ldZv4iq2SYdq6qs++zWecfQ7SB1qGKd6l1ffm9dyLo6OjhaNV04xUU27/Ur3VpdHP5DWdZmL7zWv0T1ftVd6d0dqWKvBkI6UZCOHZs8KQ2fkSburtogIL5OW/F6uKZcdPZ2F41rZvoi79HDRn+UzyXUPi9xlU51Z1iWMAv9aFvNZnFvWyZ9aAyeaF7NKTy59V4nF0qqsynIieTqtlEkP7clHHct0fjrxiIYwddV00q046309WVULnX+fV1OoY2tLfP76Rfx59vVcXJydf3n/6a34cPb2fVe8Ozk/KSZwGs/a8s5SJZqIfBH6QSS82SQeBwORbGkSCiscxMWL440KKC7bXuk8WpmtuugXn1wCGc0CT0ytIJSnrm9FNUtN+ZtxVz76rJ98Vqgx80u0R7bpLeQJ3693p5eH+jNJ9yTZaxu2HFozNxLTwI/nMLlRFxs/7+93uycnG2veeAY4wAEOcIADHOAABzjAAQ5w/p04IpxN4v8EFrZUHwrbmiuiQNqgAQ1oQAMa0IAGNKABDWhAA5psmtvk0ay/0fTdmQQOcIADHOAABzjAAQ5wgAMc4JTBefjdQFP9buDFjPrdwI6ZfMN2fLy9fXAAUpCCFKQgBSlIQQpSkIIUpCAFKUhfBmk7IbUiirSVkHY67fb+LkhBClKQghSkIAUpSEEKUpCCFKQgfRmkHUV6GjgEafsgITXNvb1OB6QgBSlIQQpSkIIUpCAFKUhBClKQvgzSbUX6ZTyjSPcT0oP42HkNUpCCFKQgBSlIQQpSkIIUpCAFKUhfBumOIv1D2hTpXkL65k23u7cHUpCCFKQgBSlIQQpSkIIUpCAFKUhfBulu8n8mZpIi3U1Iu93dXZCCFKQgBSlIQQpSkIIUpCAFKUhB+lJI9xTpR5/aWbC9k5Du77fbOzsgBSlIQQpSkIIUpCAFKUhBClKQgrQy0iWKHVi3tVyxu2bkRK68GFtT2YzkXVTbeOfPgjAfY/7jlW+cifRCx/dcGSYKORJbW+LYtoUlEiVx60RjEfoTKexOzpXhzahpTafSs2uG8jY2cy5YHk0rioKacWfUxW5L86J5fFG7+EVhNHflAq9heYOxH8TXG64catCmGkPfixq30hmNI6XR9127uMaiby6mjbPh0BnIsPftU8/snX4475niYh42OuLUDRptcTEYN47Fu8/uYBI1Qn8Wd8a3T+LTSfe1Oi2SE9ERny++ibPBQJ27sZnVva+2wkHgTKPfyXNebdnOzfNh8hpaLNYSjn1kDNTY78bNZTmeDHrm3p4hkkY8MmwnnLrW/NDx3DjW6Lv+4Po3gwaMVRf3IKL5NL5etePWlXVjLT7NvFIdN1agxqk4ErYzmbqy6cnbi5tRzfj5Gci62G61kj9yE0/p2lZkxcKXfxmu1ZeucWjYcmjN3EhMA3/ouNKoLyK9O+PQbLbqxo3lzmT694Gan+Jr4imn2z05Me7rhXTaTDodJp1tJp0dJp1dJp09Jp19Jp0DJh2zxSXENaJNriFtco1pk2tQm1yj2uQa1ibXuDa5BrbJNbLbXCO7zTZXc43sNtfIbmuNbBHOJpMnP1hdaEULpK0hQ7aRngzZQnoyZPvoyZB5rydDZr2eDJnzejJkxuvJkPmuJ0MvZJo6TOOYXsY0dZhGMr2IaeowjWV6CdPUYRrN9AKmqcM0nunlS1OHa15mGs/02qWpU3w83zpepL9s9dVHxXXI5tHUIZtHU4dsHk0dMt01dch019Qh011Th0x3TR0y3TV16PVLV4hrRNMrmK4Q15im1zBdIa5RTa9iukJc45pex3SFuEY2vZLpCrHN1Vwjm17MdIWKj+yHbzByf2GYWuZaT/5Db/ETxAwW7fVbdNZvsb1+i531W+yu32Jv/Rb767c4WL/Fk5V9XR4V5LdZQYKbFWS4WUGKmxXkuFlBkpsVZLlZQZqbFeR5u4I8b1exjleQ5+0K8rxdLs9zf8ixWFm1+KVHBgu6N9gs6M5gs6D7gs2CnnLZLOgZl82CnnDZLOj5ls2Cnm7ZLDLKKj6PCvI7o6zi86ggwzPKKj6PCnI8o6zi86ggyzPKKj6PCvI8o6zi86hiHa8gzzPKKj6Pcnme+3tZxcqqxQ9qMVjQvcFmQXcGmwXdF2wW9JTLZkHPuGwW9ITLZkHPt2wW9LNRbBYZDwTyedBPVPF50A9b8XnQz2HxedCPaPF50M8l8nnQjyzyedBPM/J50A868nlUkOcZZRWfRxXreAULeUZZxedRbinP/VmSYmXV4ndLGCzo3mCzoDuDzYLuCzYLuqxis6DLKjYLuqxis6DLKjYLerpls8goq/g86LKKz4Muq/g86LKKz4Muq/g86LKKz4Muq/g86LKKz4Muq/g8KsjzjLKKz6OKdbyChTyjrOLzKLeU5+7+XqysWmwPz2BB9wabBd0ZbBZ0X7BZ0GUVmwVdVrFZ0GUVmwVdVrFZ0NMtm0VGWcXnQZdVfB50WcXnQZdVfB50WcXnQZdVfB50WcXnQZdVfB50WcXnUUGeZ5RVfB5VrOMVLOQZZRWfR7mlPHeT3WJl1WIXXgYLujfYLOjOYLOg+4LNgi6r2CzosorNgi6r2CzosorNgp5u2Swyyio+D7qs4vOgyyo+D7qs4vOgyyo+D7qs4vOgyyo+D7qs4vOgyyo+jwryPKOs4vOoYh2vYCHPKKv4PMot5bl7GRYrqxabHTJY0L3BZkF3BpsF3RdsFnRZxWZBl1VsFnRZxWZBl1VsFln7TjFZZG62xuWRtVsVl0fWRlZcHll7XHF5ZG1/xeWRtecbl0fWdnBcHlk7xXF5ZG0ix+VRQZ5nlFV8HlWs4xUs5BllFZ9H/lL+vcgOr+k2zuJIePJ2uYNssnFsLbwZ1ZMdYHO3il3uBR3K6LU/8+ywttOqC9PcqYuO+lt7p9h2s3cxxsMW17bdtSI58oP58Z0TLvZSfrj/AhtOxwJngS2D85na2rjwhYpj/pTjo7TCWSAXGGp35rTd17zZN8III4wwwggjjDDCCCOMMMIII4wwwggjjDDCCCOMMMIII4wwwggjjDDCCCOMMMIII4wwwggjjDDCCCOMMMIII4wwwggjjDDC/6rwvOnfyCBwbPnRUi/Wms3Wiu+rqldjw6evxl7IwJFh+nqtUV++QDx1/ajpOp7MfUU2fO493fw3a8Nm8tPzU9+1Isf3YigjjOS00ZdDP5BGsTefP8iR9OynN7T4rLbbqouOenO5pV5kVn8YrhxGCixHeinb7I1kdOJFqn1ii+HMGySktU3xV47EklA+XH2Z+y63OpyhqEVjJ2yGSa8UM1LHo4uacfudWINx7b/AumpLfPXqeMye6vamfugowTfxx0XuZnkomWeoAv9WD2mJ5Xi2VPnQMOuaVy+Pq7IXDh3pqvFWS9t0kSejwJ9NpS1++UX8lH5+1+yNrTB9/10l2Obj6PzZaNwgTWs0OlUeTVd6o2gsXom2+I8wjl3XEIdPzwhdZyBrDXPzsvV9MzfffrgTPxC1q/hWWr+Jq9gmHaqpr/rs13jG0e8gdahhnOpdXn1vXsu5ODo6WjReOcVENe32K91bXR79QFrXZS6+17xG93zVXundHalhrQZDOlKSjRyaPSsMnZEn7a7aIiK8TFrye7mmXHb0dBaOa2X7Iu7Sw0V/ls8k1z0scpdNdWZZlzAK/GtZzGdxblknf2oNnGhezCo9ufRdJRZLq7Iqy4nk6bRSJj20Jx91LNP56cQjGsLUVdNJt+Ks9/VkVS10/n1eTaGOrS3x+esX8efZ13NxcXb+5f2nt+LD2dv3XfHu5PykmMBpPGvLO0uVaCLyRegHkfBmk3gcDESypUkorHAQFy+ONyqguGx7pfNoZbbqol98cglkNAs8MbWCUJ66vhXVLDXlb8Zd+eizfvJZocbML9Ee2aa3kCd8v96dXh7qzyTdk2SvbdhyaM3cSEwDP57D5EZdbPy8v9/tnpxsrHnjGeAABzjAAQ5wgAMc4AAHOMD5d+KIcDaJ/xNY2FJ9KGxrrogCaYMGNKABDWhAAxrQgAY0oAENaLJpbpNHs/5G03dnEjjAAQ5wgAMc4AAHOMABDnCAUwbn4XcDTfW7gRcz6ncDO2byDdvx8fb2wQFIQQpSkIIUpCAFKUhBClKQghSkIH0ZpO2E1Ioo0lZC2um02/u7IAUpSEEKUpCCFKQgBSlIQQpSkIL0ZZB2FOlp4BCk7YOE1DT39jodkIIUpCAFKUhBClKQghSkIAUpSEH6Mki3FemX8Ywi3U9ID+Jj5zVIQQpSkIIUpCAFKUhBClKQghSkIH0ZpDuK9A9pU6R7CembN93u3h5IQQpSkIIUpCAFKUhBClKQghSkIH0ZpLvJ/5mYSYp0NyHtdnd3QQpSkIIUpCAFKUhBClKQghSkIAXpSyHdU6QffWpnwfZOQrq/327v7IAUpCAFKUhBClKQghSkIAUpSEEK0spIlyh2YN3WcsXumpETufJibE1lM5J3UW3jnT8LwnyM+Y9XvnEm0gsd33NlmCjkSGxtiWPbFpZIlMStE41F6E+ksDs5V4Y3o6Y1nUrPrhnK29jMuWB5NK0oCmrGnVEXuy3Ni+bxRe3iF4XR3JULvIblDcZ+EF9vuHKoQZtqDH0vatxKZzSOlEbfd+3iGou+uZg2zoZDZyDD3rdPPbN3+uG81xYX87DREadu0DDFxWDcOBbvPruDSdQI/VncGd8+iU8n3dfqtEhOREd8vvgmzgYDde7GZlb3vtoKB4EzjX4nz3m1ZTs3z4fJa2ixWEs49pExUGO/GzeX5Xgy6Jl7+4ZIGvHIsJ1w6lrzQ8dz41ij7/qD698MGjBWXdyDiObT+HrVjltX1o21+DTzSnXcWIEap+JI2M5k6sqmJ28vbkY14+dnIOtiu9VK/shNPKVrW5EVC1/+ZbhWX7rGoWHLoTVzIzEN/KHjSqO+iPTujEOz2aobN5Y7k8bh7kHz4NGxf1A3Bmq2ihXiCajbPTkx7uuFVNtrUe2sRXV7Lao7a1HdXYvq3lpU99eierAWVbO1Htn1ZJe5nvQy15Nf5noSzFxPhpnrSTFzPTlmrifJzPVkWXs9WdZe0xq2nixrryfL2itkmQhnk8mTHwAvUSEE0tYQLdi2eqIFW1ZPtGC76okWnLv0RAvOXHqiBectPdGCs5aeaME5S0+0aGGgqbqWnCpaFmiqriWrihYFmqpryauiJYGm6loyq2hBoKm6ltwqWg5oqq5nvVpLbhWtBTRVy+bWreNFq5YBfXVCcdWCzaqpWrBZNVULNqumasEpS1O14JSlqVpwytJULThlaaoWnLI0VYvWA7qy68muohWBrux68qtoTaAru54MK1oV6MquJ8eK1gW6suvJsqKVga7smtaw9WRZ0eJAV1Yry74X+cIh/VZRHAlP3i6/0Ei+x6iFN6N68oVE7jcXy68mQxm99meeHdZ2WnVhmjt10VF/a+8U+/bjLsZ4+MbVtrtWJEd+MD++c8LFV3sPTVHg+89Y4CywZXA+U9+0Fb5QccyfcnyUVjgL5AJDfVmYdsGq3+gmXyQ9tbqQgSPDFDd2Sjtk6vpRU327lWsZPnff+aRhMxl3U9+1Isf3YigjjOS00ZdDP5BGsZH0QY6kZz+9ocVntd14FHTUSFBfhpnqj/QL09zvkpeyzd5IRidepNonthjOvEFCWtsUfxX4xlQRyoerL3NzQx3OUNSisRPG41pdV8xIHY8uasbtd2INxrX/AuuqLfHT7wZT3d7UDx0l+Cb+uMjdLA8l8wxV4N/qIS2xHM+WKnEbZl3z6uVxVfbCoSNdNd5qaZsu8mQU+LOptMUvv4if0s/vmr2xFabziUqwzcfR+bPRuEGa1mh0qjyarvRG0Vi8Em3xH2Ecu64hDp+eEbrOQNYa5uZl6/tmbr79cCd+IGpX8a20fhNXsU06VFNf9dmvR8LU7yB1qGGc6l1efW9ey3h6OzpaNF45xUQ17fYr3VtdHv1AWtdlLr7XvEb3fNVe6d0dqWGtBkM6UpKFsdlbPA0k7eR5oPAyacnv5Zpy2dHTWTiule2LuEsPF/1ZPpNc97DIXTbVmWVdwijwr2Uxn8W5ZZ38qTVwonkxq/Tk0neVWCytyqosJ5Kn00qZ9NCefNSxTOenE49oCFNXTSfdirPe15NVtdD593k1hTq2tsTnr1/En2dfz8XF2fmX95/eig9nb993xbuT85NiAqfxrC3vLFWiicgXoR8X0t5sEo+DgUhKxFBY4SAuXhxvVEBx2fZK59HKbNVFv/jkEshoFnhiagWhPHV9K6pZasrfjLvy0Wf95LNCjZlfoj2yTW8hT/j+H3hq829fwKaPZqovVP+Rh0iBAxzgAAc4wAEOcIADHOAA58Xj/PiAiyIKpA0a0IAGNKABDWhAAxrQgAY0oMmm+eGRQEWjHvEDDnCAAxzgAAc4wAEOcIADHOD8g3slfpGTqQysaBZIUTvdxG6J/1O7Jf5hqRH3Tib/OJ70HelFQnWZ2vlQ2rO4/Rtir3X6QjZBPHgJmyAeVLYJYvLqadlNmJh0Okw620w6O0w6u0w6e0w6+0w6B0w6T3YXWEmIa0SbXEPa5BrTJtegNrlGtck1rE2ucW1yDWyTa2S3uUZ2m22u5hrZba6R3dYa2cU37XsiVX6bvhVkyBYqvxXfCjJk3pffbm8FGTLny2+pt4IMme8rbJu3ig7TOKaXsRU2w1tFh2ko02vYClvcraLDNJrpBWyFjetWmQeZxjO9eq2wHd0qOkzjmV66ym8y90RmhW3lVtEhm2eFreNW0SHTfYXt4VbRIdN9hS3gVtEh032Vbd5WEuIa0fQKtsrmbSsJcQ1qehFbZUu2lYS4xjW9jq2y0dpKMyPXyKaXslW2T1tJiGtk06sZNkV7EZuiIYwwwggjjDDCCCOMMMIII4wwwggj/L8Unjf9GxkEji0/Wup/VJnNFjbFf3Qn2BT/4cCm+FoHNsXHpvgaBzbF//uBTfH/fmBTfM0Dm+JjU/xnD2yKDxzgAAc4wAEOcIADHOAABzjAeQlbSoIGNKABDWhAAxrQgAY0oAHNy6H5/2YrS+AABzjAAQ5wgAMc4AAHOMAp7/cPbIr/xplIL3R8z5VhiC3x/7e2xPeDa3EyHDoDR3qD+cNG+NVugZ+e/bfI439f/n3xzwf19C8P/+j79lz9cxxN3N//3/8BtNmO1w=="
               },
               {
                  "name" : "annual_peak_electric_demand",
                  "units" : "kW",
                  "value" : 2176.8741400000004
               },
               {
                  "name" : "first_year_capital_cost",
                  "units" : "$",
                  "value" : 0
               },
               {
                  "name" : "annual_utility_cost",
                  "units" : "$",
                  "value" : 0
               },
               {
                  "name" : "total_lifecycle_cost",
                  "units" : "$",
                  "value" : 0
               }
            ],
            "step_warnings" : [ "A table in Annual Overview section returned false and was skipped." ]
         }
      }
   ],
   "updated_at" : "20170710T185245Z",
   "weather_file" : "USA_CO_Denver.Intl.AP.725650_TMY3.epw"
}
