{
   "completed_at" : "20170710T191940Z",
   "completed_status" : "Success",
   "created_at" : "2017-07-10 19:13:04 +0000",
   "current_step" : 5,
   "description" : "",
   "eplusout_err" : "Program Version,EnergyPlus, Version 8.7.0-78a111df4a, YMD=2017.07.10 19:15,IDD_Version 8.7.0\n   ************* IDF Context for following error/warning message:\n   ************* Note -- lines truncated at 300 characters, if necessary...\n   *************      5 Building,\n   ************* indicated Name=NECB 2011-LargeHotel-NECB HDD Method-CAN_AB_Lethbridge.712430_CWEC.epw created: 2017-07-10 19:13:11 +0000\n   ************* Only last 1 lines before error line shown.....\n   *************      6   NECB 2011-LargeHotel-NECB HDD Method-CAN_AB_Lethbridge.712430_CWEC.epw created: 2017-07-10 19:13:11 +0000, !- Name\n   ** Warning ** IP: IDF line~6 Alpha Argument length exceeds maximum, will be truncated=  NECB 2011-LargeHotel-NECB HDD Method-CAN_AB_Lethbridge.712430_CWEC.epw created: 2017-07-10 19:13:11 +000\n   **   ~~~   ** Will be processed as Alpha=NECB 2011-LARGEHOTEL-NECB HDD METHOD-CAN_AB_LETHBRIDGE.712430_CWEC.EPW CREATED: 2017-07-10 19:13:11 +0000\n   ************* Beginning Zone Sizing Calculations\n   ** Warning ** ProcessScheduleInput: Schedule:Day:Interval=\"ECONOMIZER MAX OA FRACTION 100 PCT DEFAULT\", Blank Schedule Type Limits Name input -- will not be validated.\n   ** Warning ** ProcessScheduleInput: Schedule:Day:Interval=\"SCHEDULE DAY 1\", Blank Schedule Type Limits Name input -- will not be validated.\n   ** Warning ** ProcessScheduleInput: Schedule:Day:Interval=\"SCHEDULE DAY 10\", Blank Schedule Type Limits Name input -- will not be validated.\n   ** Warning ** ProcessScheduleInput: Schedule:Day:Interval=\"SCHEDULE DAY 11\", Blank Schedule Type Limits Name input -- will not be validated.\n   ** Warning ** ProcessScheduleInput: Schedule:Day:Interval=\"SCHEDULE DAY 12\", Blank Schedule Type Limits Name input -- will not be validated.\n   ** Warning ** ProcessScheduleInput: Schedule:Day:Interval=\"SCHEDULE DAY 13\", Blank Schedule Type Limits Name input -- will not be validated.\n   ** Warning ** ProcessScheduleInput: Schedule:Day:Interval=\"SCHEDULE DAY 14\", Blank Schedule Type Limits Name input -- will not be validated.\n   ** Warning ** ProcessScheduleInput: Schedule:Day:Interval=\"SCHEDULE DAY 15\", Blank Schedule Type Limits Name input -- will not be validated.\n   ** Warning ** ProcessScheduleInput: Schedule:Day:Interval=\"SCHEDULE DAY 16\", Blank Schedule Type Limits Name input -- will not be validated.\n   ** Warning ** ProcessScheduleInput: Schedule:Day:Interval=\"SCHEDULE DAY 17\", Blank Schedule Type Limits Name input -- will not be validated.\n   ** Warning ** ProcessScheduleInput: Schedule:Day:Interval=\"SCHEDULE DAY 18\", Blank Schedule Type Limits Name input -- will not be validated.\n   ** Warning ** ProcessScheduleInput: Schedule:Day:Interval=\"SCHEDULE DAY 19\", Blank Schedule Type Limits Name input -- will not be validated.\n   ** Warning ** ProcessScheduleInput: Schedule:Day:Interval=\"SCHEDULE DAY 2\", Blank Schedule Type Limits Name input -- will not be validated.\n   ** Warning ** ProcessScheduleInput: Schedule:Day:Interval=\"SCHEDULE DAY 20\", Blank Schedule Type Limits Name input -- will not be validated.\n   ** Warning ** ProcessScheduleInput: Schedule:Day:Interval=\"SCHEDULE DAY 21\", Blank Schedule Type Limits Name input -- will not be validated.\n   ** Warning ** ProcessScheduleInput: Schedule:Day:Interval=\"SCHEDULE DAY 22\", Blank Schedule Type Limits Name input -- will not be validated.\n   ** Warning ** ProcessScheduleInput: Schedule:Day:Interval=\"SCHEDULE DAY 23\", Blank Schedule Type Limits Name input -- will not be validated.\n   ** Warning ** ProcessScheduleInput: Schedule:Day:Interval=\"SCHEDULE DAY 24\", Blank Schedule Type Limits Name input -- will not be validated.\n   ** Warning ** ProcessScheduleInput: Schedule:Day:Interval=\"SCHEDULE DAY 25\", Blank Schedule Type Limits Name input -- will not be validated.\n   ** Warning ** ProcessScheduleInput: Schedule:Day:Interval=\"SCHEDULE DAY 26\", Blank Schedule Type Limits Name input -- will not be validated.\n   ** Warning ** ProcessScheduleInput: Schedule:Day:Interval=\"SCHEDULE DAY 27\", Blank Schedule Type Limits Name input -- will not be validated.\n   ** Warning ** ProcessScheduleInput: Schedule:Day:Interval=\"SCHEDULE DAY 28\", Blank Schedule Type Limits Name input -- will not be validated.\n   ** Warning ** ProcessScheduleInput: Schedule:Day:Interval=\"SCHEDULE DAY 29\", Blank Schedule Type Limits Name input -- will not be validated.\n   ** Warning ** ProcessScheduleInput: Schedule:Day:Interval=\"SCHEDULE DAY 30\", Blank Schedule Type Limits Name input -- will not be validated.\n   ** Warning ** ProcessScheduleInput: Schedule:Day:Interval=\"SCHEDULE DAY 31\", Blank Schedule Type Limits Name input -- will not be validated.\n   ** Warning ** ProcessScheduleInput: Schedule:Day:Interval=\"SCHEDULE DAY 32\", Blank Schedule Type Limits Name input -- will not be validated.\n   ** Warning ** ProcessScheduleInput: Schedule:Day:Interval=\"SCHEDULE DAY 33\", Blank Schedule Type Limits Name input -- will not be validated.\n   ** Warning ** ProcessScheduleInput: Schedule:Day:Interval=\"SCHEDULE DAY 34\", Blank Schedule Type Limits Name input -- will not be validated.\n   ** Warning ** ProcessScheduleInput: Schedule:Day:Interval=\"SCHEDULE DAY 35\", Blank Schedule Type Limits Name input -- will not be validated.\n   ** Warning ** ProcessScheduleInput: Schedule:Day:Interval=\"SCHEDULE DAY 36\", Blank Schedule Type Limits Name input -- will not be validated.\n   ** Warning ** ProcessScheduleInput: Schedule:Day:Interval=\"SCHEDULE DAY 37\", Blank Schedule Type Limits Name input -- will not be validated.\n   ** Warning ** ProcessScheduleInput: Schedule:Day:Interval=\"SCHEDULE DAY 38\", Blank Schedule Type Limits Name input -- will not be validated.\n   ** Warning ** ProcessScheduleInput: Schedule:Day:Interval=\"SCHEDULE DAY 39\", Blank Schedule Type Limits Name input -- will not be validated.\n   ** Warning ** ProcessScheduleInput: Schedule:Day:Interval=\"SCHEDULE DAY 40\", Blank Schedule Type Limits Name input -- will not be validated.\n   ** Warning ** ProcessScheduleInput: Schedule:Day:Interval=\"SCHEDULE DAY 41\", Blank Schedule Type Limits Name input -- will not be validated.\n   ** Warning ** ProcessScheduleInput: Schedule:Day:Interval=\"SCHEDULE DAY 42\", Blank Schedule Type Limits Name input -- will not be validated.\n   ** Warning ** ProcessScheduleInput: Schedule:Day:Interval=\"SCHEDULE DAY 43\", Blank Schedule Type Limits Name input -- will not be validated.\n   ** Warning ** ProcessScheduleInput: Schedule:Day:Interval=\"SCHEDULE DAY 44\", Blank Schedule Type Limits Name input -- will not be validated.\n   ** Warning ** ProcessScheduleInput: Schedule:Day:Interval=\"SCHEDULE DAY 45\", Blank Schedule Type Limits Name input -- will not be validated.\n   ** Warning ** ProcessScheduleInput: Schedule:Day:Interval=\"SCHEDULE DAY 46\", Blank Schedule Type Limits Name input -- will not be validated.\n   ** Warning ** ProcessScheduleInput: Schedule:Day:Interval=\"SCHEDULE DAY 47\", Blank Schedule Type Limits Name input -- will not be validated.\n   ** Warning ** ProcessScheduleInput: Schedule:Day:Interval=\"SCHEDULE DAY 48\", Blank Schedule Type Limits Name input -- will not be validated.\n   ** Warning ** ProcessScheduleInput: Schedule:Day:Interval=\"SCHEDULE DAY 49\", Blank Schedule Type Limits Name input -- will not be validated.\n   ** Warning ** ProcessScheduleInput: Schedule:Day:Interval=\"SCHEDULE DAY 50\", Blank Schedule Type Limits Name input -- will not be validated.\n   ** Warning ** ProcessScheduleInput: Schedule:Day:Interval=\"SCHEDULE DAY 51\", Blank Schedule Type Limits Name input -- will not be validated.\n   ** Warning ** ProcessScheduleInput: Schedule:Day:Interval=\"SCHEDULE DAY 52\", Blank Schedule Type Limits Name input -- will not be validated.\n   ** Warning ** ProcessScheduleInput: Schedule:Day:Interval=\"SCHEDULE DAY 53\", Blank Schedule Type Limits Name input -- will not be validated.\n   ** Warning ** ProcessScheduleInput: Schedule:Day:Interval=\"SCHEDULE DAY 54\", Blank Schedule Type Limits Name input -- will not be validated.\n   ** Warning ** ProcessScheduleInput: Schedule:Day:Interval=\"SCHEDULE DAY 55\", Blank Schedule Type Limits Name input -- will not be validated.\n   ** Warning ** ProcessScheduleInput: Schedule:Day:Interval=\"SCHEDULE DAY 56\", Blank Schedule Type Limits Name input -- will not be validated.\n   ** Warning ** ProcessScheduleInput: Schedule:Day:Interval=\"SCHEDULE DAY 57\", Blank Schedule Type Limits Name input -- will not be validated.\n   ** Warning ** ProcessScheduleInput: Schedule:Day:Interval=\"SCHEDULE DAY 58\", Blank Schedule Type Limits Name input -- will not be validated.\n   ** Warning ** ProcessScheduleInput: Schedule:Day:Interval=\"SCHEDULE DAY 59\", Blank Schedule Type Limits Name input -- will not be validated.\n   ** Warning ** ProcessScheduleInput: Schedule:Day:Interval=\"SCHEDULE DAY 60\", Blank Schedule Type Limits Name input -- will not be validated.\n   ** Warning ** ProcessScheduleInput: Schedule:Day:Interval=\"SCHEDULE DAY 61\", Blank Schedule Type Limits Name input -- will not be validated.\n   ** Warning ** ProcessScheduleInput: Schedule:Day:Interval=\"SCHEDULE DAY 62\", Blank Schedule Type Limits Name input -- will not be validated.\n   ** Warning ** ProcessScheduleInput: Schedule:Day:Interval=\"SCHEDULE DAY 63\", Blank Schedule Type Limits Name input -- will not be validated.\n   ** Warning ** ProcessScheduleInput: Schedule:Day:Interval=\"SCHEDULE DAY 64\", Blank Schedule Type Limits Name input -- will not be validated.\n   ** Warning ** ProcessScheduleInput: Schedule:Day:Interval=\"SCHEDULE DAY 65\", Blank Schedule Type Limits Name input -- will not be validated.\n   ** Warning ** ProcessScheduleInput: Schedule:Day:Interval=\"SCHEDULE DAY 66\", Blank Schedule Type Limits Name input -- will not be validated.\n   ** Warning ** ProcessScheduleInput: Schedule:Day:Interval=\"SCHEDULE DAY 67\", Blank Schedule Type Limits Name input -- will not be validated.\n   ** Warning ** ProcessScheduleInput: Schedule:Day:Interval=\"SCHEDULE DAY 68\", Blank Schedule Type Limits Name input -- will not be validated.\n   ** Warning ** ProcessScheduleInput: Schedule:Day:Interval=\"SCHEDULE DAY 69\", Blank Schedule Type Limits Name input -- will not be validated.\n   ** Warning ** ProcessScheduleInput: Schedule:Day:Interval=\"SCHEDULE DAY 70\", Blank Schedule Type Limits Name input -- will not be validated.\n   ** Warning ** ProcessScheduleInput: Schedule:Day:Interval=\"SCHEDULE DAY 71\", Blank Schedule Type Limits Name input -- will not be validated.\n   ** Warning ** ProcessScheduleInput: Schedule:Day:Interval=\"SCHEDULE DAY 72\", Blank Schedule Type Limits Name input -- will not be validated.\n   ** Warning ** ProcessScheduleInput: Schedule:Day:Interval=\"SCHEDULE DAY 73\", Blank Schedule Type Limits Name input -- will not be validated.\n   ** Warning ** ProcessScheduleInput: Schedule:Day:Interval=\"SCHEDULE DAY 74\", Blank Schedule Type Limits Name input -- will not be validated.\n   ** Warning ** ProcessScheduleInput: Schedule:Day:Interval=\"SCHEDULE DAY 75\", Blank Schedule Type Limits Name input -- will not be validated.\n   ** Warning ** ProcessScheduleInput: Schedule:Day:Interval=\"SCHEDULE DAY 76\", Blank Schedule Type Limits Name input -- will not be validated.\n   ** Warning ** ProcessScheduleInput: Schedule:Day:Interval=\"SCHEDULE DAY 77\", Blank Schedule Type Limits Name input -- will not be validated.\n   ** Warning ** ProcessScheduleInput: Schedule:Day:Interval=\"SCHEDULE DAY 78\", Blank Schedule Type Limits Name input -- will not be validated.\n   ** Warning ** ProcessScheduleInput: Schedule:Day:Interval=\"SCHEDULE DAY 8\", Blank Schedule Type Limits Name input -- will not be validated.\n   ** Warning ** ProcessScheduleInput: Schedule:Day:Interval=\"SCHEDULE DAY 9\", Blank Schedule Type Limits Name input -- will not be validated.\n   ** Warning ** ProcessScheduleInput: Schedule:Year=\"ECONOMIZER MAX OA FRACTION 100 PCT\", Blank Schedule Type Limits Name input -- will not be validated.\n   ** Warning ** ProcessScheduleInput: Schedule:Year=\"SCHEDULE RULESET 10\", Blank Schedule Type Limits Name input -- will not be validated.\n   ** Warning ** ProcessScheduleInput: Schedule:Year=\"SCHEDULE RULESET 11\", Blank Schedule Type Limits Name input -- will not be validated.\n   ** Warning ** ProcessScheduleInput: Schedule:Year=\"SCHEDULE RULESET 12\", Blank Schedule Type Limits Name input -- will not be validated.\n   ** Warning ** ProcessScheduleInput: Schedule:Year=\"SCHEDULE RULESET 13\", Blank Schedule Type Limits Name input -- will not be validated.\n   ** Warning ** ProcessScheduleInput: Schedule:Year=\"SCHEDULE RULESET 14\", Blank Schedule Type Limits Name input -- will not be validated.\n   ** Warning ** ProcessScheduleInput: Schedule:Year=\"SCHEDULE RULESET 15\", Blank Schedule Type Limits Name input -- will not be validated.\n   ** Warning ** ProcessScheduleInput: Schedule:Year=\"SCHEDULE RULESET 16\", Blank Schedule Type Limits Name input -- will not be validated.\n   ** Warning ** ProcessScheduleInput: Schedule:Year=\"SCHEDULE RULESET 17\", Blank Schedule Type Limits Name input -- will not be validated.\n   ** Warning ** ProcessScheduleInput: Schedule:Year=\"SCHEDULE RULESET 18\", Blank Schedule Type Limits Name input -- will not be validated.\n   ** Warning ** ProcessScheduleInput: Schedule:Year=\"SCHEDULE RULESET 19\", Blank Schedule Type Limits Name input -- will not be validated.\n   ** Warning ** ProcessScheduleInput: Schedule:Year=\"SCHEDULE RULESET 20\", Blank Schedule Type Limits Name input -- will not be validated.\n   ** Warning ** ProcessScheduleInput: Schedule:Year=\"SCHEDULE RULESET 21\", Blank Schedule Type Limits Name input -- will not be validated.\n   ** Warning ** ProcessScheduleInput: Schedule:Year=\"SCHEDULE RULESET 22\", Blank Schedule Type Limits Name input -- will not be validated.\n   ** Warning ** ProcessScheduleInput: Schedule:Year=\"SCHEDULE RULESET 23\", Blank Schedule Type Limits Name input -- will not be validated.\n   ** Warning ** ProcessScheduleInput: Schedule:Year=\"SCHEDULE RULESET 24\", Blank Schedule Type Limits Name input -- will not be validated.\n   ** Warning ** ProcessScheduleInput: Schedule:Year=\"SCHEDULE RULESET 25\", Blank Schedule Type Limits Name input -- will not be validated.\n   ** Warning ** ProcessScheduleInput: Schedule:Year=\"SCHEDULE RULESET 26\", Blank Schedule Type Limits Name input -- will not be validated.\n   ** Warning ** ProcessScheduleInput: Schedule:Year=\"SCHEDULE RULESET 27\", Blank Schedule Type Limits Name input -- will not be validated.\n   ** Warning ** ProcessScheduleInput: Schedule:Year=\"SCHEDULE RULESET 28\", Blank Schedule Type Limits Name input -- will not be validated.\n   ** Warning ** ProcessScheduleInput: Schedule:Year=\"SCHEDULE RULESET 29\", Blank Schedule Type Limits Name input -- will not be validated.\n   ** Warning ** ProcessScheduleInput: Schedule:Year=\"SCHEDULE RULESET 3\", Blank Schedule Type Limits Name input -- will not be validated.\n   ** Warning ** ProcessScheduleInput: Schedule:Year=\"SCHEDULE RULESET 30\", Blank Schedule Type Limits Name input -- will not be validated.\n   ** Warning ** ProcessScheduleInput: Schedule:Year=\"SCHEDULE RULESET 31\", Blank Schedule Type Limits Name input -- will not be validated.\n   ** Warning ** ProcessScheduleInput: Schedule:Year=\"SCHEDULE RULESET 32\", Blank Schedule Type Limits Name input -- will not be validated.\n   ** Warning ** ProcessScheduleInput: Schedule:Year=\"SCHEDULE RULESET 33\", Blank Schedule Type Limits Name input -- will not be validated.\n   ** Warning ** ProcessScheduleInput: Schedule:Year=\"SCHEDULE RULESET 34\", Blank Schedule Type Limits Name input -- will not be validated.\n   ** Warning ** ProcessScheduleInput: Schedule:Year=\"SCHEDULE RULESET 35\", Blank Schedule Type Limits Name input -- will not be validated.\n   ** Warning ** ProcessScheduleInput: Schedule:Year=\"SCHEDULE RULESET 36\", Blank Schedule Type Limits Name input -- will not be validated.\n   ** Warning ** ProcessScheduleInput: Schedule:Year=\"SCHEDULE RULESET 37\", Blank Schedule Type Limits Name input -- will not be validated.\n   ** Warning ** ProcessScheduleInput: Schedule:Year=\"SCHEDULE RULESET 38\", Blank Schedule Type Limits Name input -- will not be validated.\n   ** Warning ** ProcessScheduleInput: Schedule:Year=\"SCHEDULE RULESET 39\", Blank Schedule Type Limits Name input -- will not be validated.\n   ** Warning ** ProcessScheduleInput: Schedule:Year=\"SCHEDULE RULESET 4\", Blank Schedule Type Limits Name input -- will not be validated.\n   ** Warning ** ProcessScheduleInput: Schedule:Year=\"SCHEDULE RULESET 40\", Blank Schedule Type Limits Name input -- will not be validated.\n   ** Warning ** ProcessScheduleInput: Schedule:Year=\"SCHEDULE RULESET 41\", Blank Schedule Type Limits Name input -- will not be validated.\n   ** Warning ** ProcessScheduleInput: Schedule:Year=\"SCHEDULE RULESET 42\", Blank Schedule Type Limits Name input -- will not be validated.\n   ** Warning ** ProcessScheduleInput: Schedule:Year=\"SCHEDULE RULESET 43\", Blank Schedule Type Limits Name input -- will not be validated.\n   ** Warning ** ProcessScheduleInput: Schedule:Year=\"SCHEDULE RULESET 44\", Blank Schedule Type Limits Name input -- will not be validated.\n   ** Warning ** ProcessScheduleInput: Schedule:Year=\"SCHEDULE RULESET 45\", Blank Schedule Type Limits Name input -- will not be validated.\n   ** Warning ** ProcessScheduleInput: Schedule:Year=\"SCHEDULE RULESET 46\", Blank Schedule Type Limits Name input -- will not be validated.\n   ** Warning ** ProcessScheduleInput: Schedule:Year=\"SCHEDULE RULESET 47\", Blank Schedule Type Limits Name input -- will not be validated.\n   ** Warning ** ProcessScheduleInput: Schedule:Year=\"SCHEDULE RULESET 48\", Blank Schedule Type Limits Name input -- will not be validated.\n   ** Warning ** ProcessScheduleInput: Schedule:Year=\"SCHEDULE RULESET 49\", Blank Schedule Type Limits Name input -- will not be validated.\n   ** Warning ** ProcessScheduleInput: Schedule:Year=\"SCHEDULE RULESET 5\", Blank Schedule Type Limits Name input -- will not be validated.\n   ** Warning ** ProcessScheduleInput: Schedule:Year=\"SCHEDULE RULESET 50\", Blank Schedule Type Limits Name input -- will not be validated.\n   ** Warning ** ProcessScheduleInput: Schedule:Year=\"SCHEDULE RULESET 51\", Blank Schedule Type Limits Name input -- will not be validated.\n   ** Warning ** ProcessScheduleInput: Schedule:Year=\"SCHEDULE RULESET 52\", Blank Schedule Type Limits Name input -- will not be validated.\n   ** Warning ** ProcessScheduleInput: Schedule:Year=\"SCHEDULE RULESET 53\", Blank Schedule Type Limits Name input -- will not be validated.\n   ** Warning ** ProcessScheduleInput: Schedule:Year=\"SCHEDULE RULESET 54\", Blank Schedule Type Limits Name input -- will not be validated.\n   ** Warning ** ProcessScheduleInput: Schedule:Year=\"SCHEDULE RULESET 55\", Blank Schedule Type Limits Name input -- will not be validated.\n   ** Warning ** ProcessScheduleInput: Schedule:Year=\"SCHEDULE RULESET 56\", Blank Schedule Type Limits Name input -- will not be validated.\n   ** Warning ** ProcessScheduleInput: Schedule:Year=\"SCHEDULE RULESET 57\", Blank Schedule Type Limits Name input -- will not be validated.\n   ** Warning ** ProcessScheduleInput: Schedule:Year=\"SCHEDULE RULESET 58\", Blank Schedule Type Limits Name input -- will not be validated.\n   ** Warning ** ProcessScheduleInput: Schedule:Year=\"SCHEDULE RULESET 59\", Blank Schedule Type Limits Name input -- will not be validated.\n   ** Warning ** ProcessScheduleInput: Schedule:Year=\"SCHEDULE RULESET 6\", Blank Schedule Type Limits Name input -- will not be validated.\n   ** Warning ** ProcessScheduleInput: Schedule:Year=\"SCHEDULE RULESET 7\", Blank Schedule Type Limits Name input -- will not be validated.\n   ** Warning ** ProcessScheduleInput: Schedule:Year=\"SCHEDULE RULESET 8\", Blank Schedule Type Limits Name input -- will not be validated.\n   ** Warning ** ProcessScheduleInput: Schedule:Year=\"SCHEDULE RULESET 9\", Blank Schedule Type Limits Name input -- will not be validated.\n   ** Warning ** ProcessScheduleInput: Schedule:Constant=\"ALWAYS OFF DISCRETE\", Blank Schedule Type Limits Name input -- will not be validated.\n   ** Warning ** ProcessScheduleInput: Schedule:Constant=\"ALWAYS ON CONTINUOUS\", Blank Schedule Type Limits Name input -- will not be validated.\n   ** Warning ** CheckUsedConstructions: There are 23 nominally unused constructions in input.\n   **   ~~~   ** For explicit details on each unused construction, use Output:Diagnostics,DisplayExtraWarnings;\n   ** Warning ** GetInternalHeatGains: ElectricEquipment Combination of ZoneList and Object Name generate a name too long.\n   **   ~~~   ** Object Name=\"SPACE FUNCTION HOSPITAL - LAUNDRY/WASHING ELEC EQUIP\".\n   **   ~~~   ** ZoneList/Zone Name=\"SP-LAUNDRY_FLR_1 SYS-3 FLR-1 SCH-C HPLCMT-EAST ZN\".\n   **   ~~~   ** Item length=[101] > Maximum Length=[100]. You may need to shorten the names.\n   **   ~~~   ** Shortening the Object Name by [2] characters will assure uniqueness for this ZoneList.\n   **   ~~~   ** name that will be used (may be needed in reporting)=\"SP-LAUNDRY_FLR_1 SYS-3 FLR-1 SCH-C HPLCMT-EAST ZN SPACE FUNCTION HOSPITAL - LAUNDRY/WASHING ELEC EQUIP\".\n   ** Warning ** GetInternalHeatGains: ElectricEquipment Combination of ZoneList and Object Name generate a name too long.\n   **   ~~~   ** Object Name=\"SPACE FUNCTION HOTEL/MOTEL - ROOMS ELEC EQUIP\".\n   **   ~~~   ** ZoneList/Zone Name=\"SP-ROOM_3_MULT19_FLR_3 SYS-1 FLR-2 SCH-F HPLCMT-SOUTH ZN\".\n   **   ~~~   ** Item length=[101] > Maximum Length=[100]. You may need to shorten the names.\n   **   ~~~   ** Shortening the Object Name by [2] characters will assure uniqueness for this ZoneList.\n   **   ~~~   ** name that will be used (may be needed in reporting)=\"SP-ROOM_3_MULT19_FLR_3 SYS-1 FLR-2 SCH-F HPLCMT-SOUTH ZN SPACE FUNCTION HOTEL/MOTEL - ROOMS ELEC EQUIP\".\n   ** Warning ** GetInternalHeatGains: ElectricEquipment Combination of ZoneList and Object Name generate a name too long.\n   **   ~~~   ** Object Name=\"SPACE FUNCTION HOTEL/MOTEL - ROOMS ELEC EQUIP\".\n   **   ~~~   ** ZoneList/Zone Name=\"SP-ROOM_4_MULT19_FLR_3 SYS-1 FLR-2 SCH-F HPLCMT-NORTH ZN\".\n   **   ~~~   ** Item length=[101] > Maximum Length=[100]. You may need to shorten the names.\n   **   ~~~   ** Shortening the Object Name by [2] characters will assure uniqueness for this ZoneList.\n   **   ~~~   ** name that will be used (may be needed in reporting)=\"SP-ROOM_4_MULT19_FLR_3 SYS-1 FLR-2 SCH-F HPLCMT-NORTH ZN SPACE FUNCTION HOTEL/MOTEL - ROOMS ELEC EQUIP\".\n   ** Warning ** Calculated design heating load for zone=SP-BASEMENT SYS-4 FLR-3 SCH-E HPLCMT-NORTH ZN is zero.\n   **   ~~~   ** Check Sizing:Zone and ZoneControl:Thermostat inputs.\n   ** Warning ** Calculated design heating load for zone=SP-LOBBY_FLR_1 SYS-6 FLR-1 SCH-H HPLCMT-NORTH ZN is zero.\n   **   ~~~   ** Check Sizing:Zone and ZoneControl:Thermostat inputs.\n   ************* Beginning System Sizing Calculations\n   ** Warning ** Since Zone Minimum Air Flow Input Method = CONSTANT, input for Fixed Minimum Air Flow Rate will be ignored.\n   **   ~~~   ** Occurs in AirTerminal:SingleDuct:VAV:Reheat = AIR TERMINAL SINGLE DUCT VAV REHEAT 1\n   ** Warning ** Since Zone Minimum Air Flow Input Method = CONSTANT, input for Fixed Minimum Air Flow Rate will be ignored.\n   **   ~~~   ** Occurs in AirTerminal:SingleDuct:VAV:Reheat = AIR TERMINAL SINGLE DUCT VAV REHEAT 2\n   ** Warning ** Since Zone Minimum Air Flow Input Method = CONSTANT, input for Fixed Minimum Air Flow Rate will be ignored.\n   **   ~~~   ** Occurs in AirTerminal:SingleDuct:VAV:Reheat = AIR TERMINAL SINGLE DUCT VAV REHEAT 5\n   ** Warning ** Since Zone Minimum Air Flow Input Method = CONSTANT, input for Fixed Minimum Air Flow Rate will be ignored.\n   **   ~~~   ** Occurs in AirTerminal:SingleDuct:VAV:Reheat = AIR TERMINAL SINGLE DUCT VAV REHEAT 4\n   ** Warning ** Since Zone Minimum Air Flow Input Method = CONSTANT, input for Fixed Minimum Air Flow Rate will be ignored.\n   **   ~~~   ** Occurs in AirTerminal:SingleDuct:VAV:Reheat = AIR TERMINAL SINGLE DUCT VAV REHEAT 3\n   ** Warning ** GetDXCoils: Coil:Cooling:DX:SingleSpeed=\"COIL COOLING DX SINGLE SPEED 8 51KBTU/HR 9.3EER\", invalid\n   **   ~~~   ** ...Part Load Fraction Correlation Curve Name = DXCOOL-NECB2011-REF-COOLPLFFPLR 16 has out of range value.\n   **   ~~~   ** ...Curve maximum must be <= 1.0, curve max at PLR = 0.99 is 1.015\n   **   ~~~   ** ...Setting curve maximum to 1.0 and simulation continues.\n   ** Warning ** GetDXCoils: Coil:Cooling:DX:SingleSpeed=\"COIL COOLING DX SINGLE SPEED 5 19KBTU/HR 9.3EER\", invalid\n   **   ~~~   ** ...Part Load Fraction Correlation Curve Name = DXCOOL-NECB2011-REF-COOLPLFFPLR 13 has out of range value.\n   **   ~~~   ** ...Curve maximum must be <= 1.0, curve max at PLR = 0.99 is 1.015\n   **   ~~~   ** ...Setting curve maximum to 1.0 and simulation continues.\n   ** Warning ** GetDXCoils: Coil:Cooling:DX:SingleSpeed=\"COIL COOLING DX SINGLE SPEED 9 22KBTU/HR 9.3EER\", invalid\n   **   ~~~   ** ...Part Load Fraction Correlation Curve Name = DXCOOL-NECB2011-REF-COOLPLFFPLR 17 has out of range value.\n   **   ~~~   ** ...Curve maximum must be <= 1.0, curve max at PLR = 0.99 is 1.015\n   **   ~~~   ** ...Setting curve maximum to 1.0 and simulation continues.\n   ** Warning ** GetDXCoils: Coil:Cooling:DX:SingleSpeed=\"COIL COOLING DX SINGLE SPEED 6 18KBTU/HR 9.3EER\", invalid\n   **   ~~~   ** ...Part Load Fraction Correlation Curve Name = DXCOOL-NECB2011-REF-COOLPLFFPLR 14 has out of range value.\n   **   ~~~   ** ...Curve maximum must be <= 1.0, curve max at PLR = 0.99 is 1.015\n   **   ~~~   ** ...Setting curve maximum to 1.0 and simulation continues.\n   ** Warning ** GetDXCoils: Coil:Cooling:DX:SingleSpeed=\"COIL COOLING DX SINGLE SPEED 10 21KBTU/HR 9.3EER\", invalid\n   **   ~~~   ** ...Part Load Fraction Correlation Curve Name = DXCOOL-NECB2011-REF-COOLPLFFPLR 1 has out of range value.\n   **   ~~~   ** ...Curve maximum must be <= 1.0, curve max at PLR = 0.99 is 1.015\n   **   ~~~   ** ...Setting curve maximum to 1.0 and simulation continues.\n   ** Warning ** GetDXCoils: Coil:Cooling:DX:SingleSpeed=\"COIL COOLING DX SINGLE SPEED 7 5KBTU/HR 11.0EER\", invalid\n   **   ~~~   ** ...Part Load Fraction Correlation Curve Name = DXCOOL-NECB2011-REF-COOLPLFFPLR 15 has out of range value.\n   **   ~~~   ** ...Curve maximum must be <= 1.0, curve max at PLR = 0.99 is 1.015\n   **   ~~~   ** ...Setting curve maximum to 1.0 and simulation continues.\n   ** Warning ** GetDXCoils: Coil:Cooling:DX:SingleSpeed=\"COIL COOLING DX SINGLE SPEED 11 10KBTU/HR 10.4EER\", invalid\n   **   ~~~   ** ...Part Load Fraction Correlation Curve Name = DXCOOL-NECB2011-REF-COOLPLFFPLR 2 has out of range value.\n   **   ~~~   ** ...Curve maximum must be <= 1.0, curve max at PLR = 0.99 is 1.015\n   **   ~~~   ** ...Setting curve maximum to 1.0 and simulation continues.\n   ** Warning ** GetDXCoils: Coil:Cooling:DX:SingleSpeed=\"COIL COOLING DX SINGLE SPEED 2 3KBTU/HR 11.0EER\", invalid\n   **   ~~~   ** ...Part Load Fraction Correlation Curve Name = DXCOOL-NECB2011-REF-COOLPLFFPLR 10 has out of range value.\n   **   ~~~   ** ...Curve maximum must be <= 1.0, curve max at PLR = 0.99 is 1.015\n   **   ~~~   ** ...Setting curve maximum to 1.0 and simulation continues.\n   ** Warning ** GetDXCoils: Coil:Cooling:DX:SingleSpeed=\"COIL COOLING DX SINGLE SPEED 4 18KBTU/HR 9.3EER\", invalid\n   **   ~~~   ** ...Part Load Fraction Correlation Curve Name = DXCOOL-NECB2011-REF-COOLPLFFPLR 12 has out of range value.\n   **   ~~~   ** ...Curve maximum must be <= 1.0, curve max at PLR = 0.99 is 1.015\n   **   ~~~   ** ...Setting curve maximum to 1.0 and simulation continues.\n   ** Warning ** GetDXCoils: Coil:Cooling:DX:SingleSpeed=\"COIL COOLING DX SINGLE SPEED 3 17KBTU/HR 9.3EER\", invalid\n   **   ~~~   ** ...Part Load Fraction Correlation Curve Name = DXCOOL-NECB2011-REF-COOLPLFFPLR 11 has out of range value.\n   **   ~~~   ** ...Curve maximum must be <= 1.0, curve max at PLR = 0.99 is 1.015\n   **   ~~~   ** ...Setting curve maximum to 1.0 and simulation continues.\n   ** Warning ** GetDXCoils: Coil:Cooling:DX:SingleSpeed=\"COIL COOLING DX SINGLE SPEED 1 195KBTU/HR 9.7EER\", invalid\n   **   ~~~   ** ...Part Load Fraction Correlation Curve Name = DXCOOL-NECB2011-REF-COOLPLFFPLR has out of range value.\n   **   ~~~   ** ...Curve maximum must be <= 1.0, curve max at PLR = 0.99 is 1.015\n   **   ~~~   ** ...Setting curve maximum to 1.0 and simulation continues.\n   ** Warning ** GetDXCoils: Coil:Cooling:DX:SingleSpeed=\"COIL COOLING DX SINGLE SPEED 14 86KBTU/HR 9.7EER\", invalid\n   **   ~~~   ** ...Part Load Fraction Correlation Curve Name = DXCOOL-NECB2011-REF-COOLPLFFPLR 5 has out of range value.\n   **   ~~~   ** ...Curve maximum must be <= 1.0, curve max at PLR = 0.99 is 1.015\n   **   ~~~   ** ...Setting curve maximum to 1.0 and simulation continues.\n   ** Warning ** GetDXCoils: Coil:Cooling:DX:SingleSpeed=\"COIL COOLING DX SINGLE SPEED 18 79KBTU/HR 9.7EER\", invalid\n   **   ~~~   ** ...Part Load Fraction Correlation Curve Name = DXCOOL-NECB2011-REF-COOLPLFFPLR 9 has out of range value.\n   **   ~~~   ** ...Curve maximum must be <= 1.0, curve max at PLR = 0.99 is 1.015\n   **   ~~~   ** ...Setting curve maximum to 1.0 and simulation continues.\n   ** Warning ** GetDXCoils: Coil:Cooling:DX:SingleSpeed=\"COIL COOLING DX SINGLE SPEED 13 66KBTU/HR 9.7EER\", invalid\n   **   ~~~   ** ...Part Load Fraction Correlation Curve Name = DXCOOL-NECB2011-REF-COOLPLFFPLR 4 has out of range value.\n   **   ~~~   ** ...Curve maximum must be <= 1.0, curve max at PLR = 0.99 is 1.015\n   **   ~~~   ** ...Setting curve maximum to 1.0 and simulation continues.\n   ** Warning ** GetDXCoils: Coil:Cooling:DX:SingleSpeed=\"COIL COOLING DX SINGLE SPEED 15 86KBTU/HR 9.7EER\", invalid\n   **   ~~~   ** ...Part Load Fraction Correlation Curve Name = DXCOOL-NECB2011-REF-COOLPLFFPLR 6 has out of range value.\n   **   ~~~   ** ...Curve maximum must be <= 1.0, curve max at PLR = 0.99 is 1.015\n   **   ~~~   ** ...Setting curve maximum to 1.0 and simulation continues.\n   ** Warning ** GetDXCoils: Coil:Cooling:DX:SingleSpeed=\"COIL COOLING DX SINGLE SPEED 16 55KBTU/HR 14.0SEER\", invalid\n   **   ~~~   ** ...Part Load Fraction Correlation Curve Name = DXCOOL-NECB2011-REF-COOLPLFFPLR 7 has out of range value.\n   **   ~~~   ** ...Curve maximum must be <= 1.0, curve max at PLR = 0.99 is 1.015\n   **   ~~~   ** ...Setting curve maximum to 1.0 and simulation continues.\n   ** Warning ** GetDXCoils: Coil:Cooling:DX:SingleSpeed=\"COIL COOLING DX SINGLE SPEED 12 16KBTU/HR 14.0SEER\", invalid\n   **   ~~~   ** ...Part Load Fraction Correlation Curve Name = DXCOOL-NECB2011-REF-COOLPLFFPLR 3 has out of range value.\n   **   ~~~   ** ...Curve maximum must be <= 1.0, curve max at PLR = 0.99 is 1.015\n   **   ~~~   ** ...Setting curve maximum to 1.0 and simulation continues.\n   ** Warning ** GetDXCoils: Coil:Cooling:DX:SingleSpeed=\"COIL COOLING DX SINGLE SPEED 17 6KBTU/HR 14.0SEER\", invalid\n   **   ~~~   ** ...Part Load Fraction Correlation Curve Name = DXCOOL-NECB2011-REF-COOLPLFFPLR 8 has out of range value.\n   **   ~~~   ** ...Curve maximum must be <= 1.0, curve max at PLR = 0.99 is 1.015\n   **   ~~~   ** ...Setting curve maximum to 1.0 and simulation continues.\n   ************* Beginning Plant Sizing Calculations\n   ** Warning ** The Standard Ratings is calculated for Coil:Cooling:DX:SingleSpeed = COIL COOLING DX SINGLE SPEED 8 51KBTU/HR 9.3EER but not at the AHRI test condition due to curve out of bound.\n   **   ~~~   **  Review the Standard Ratings calculations in the Engineering Reference for this coil type. Also, use Output:Diagnostics, DisplayExtraWarnings for further guidance.\n   ** Warning ** The Standard Ratings is calculated for Coil:Cooling:DX:SingleSpeed = COIL COOLING DX SINGLE SPEED 5 19KBTU/HR 9.3EER but not at the AHRI test condition due to curve out of bound.\n   **   ~~~   **  Review the Standard Ratings calculations in the Engineering Reference for this coil type. Also, use Output:Diagnostics, DisplayExtraWarnings for further guidance.\n   ** Warning ** The Standard Ratings is calculated for Coil:Cooling:DX:SingleSpeed = COIL COOLING DX SINGLE SPEED 9 22KBTU/HR 9.3EER but not at the AHRI test condition due to curve out of bound.\n   **   ~~~   **  Review the Standard Ratings calculations in the Engineering Reference for this coil type. Also, use Output:Diagnostics, DisplayExtraWarnings for further guidance.\n   ** Warning ** The Standard Ratings is calculated for Coil:Cooling:DX:SingleSpeed = COIL COOLING DX SINGLE SPEED 6 18KBTU/HR 9.3EER but not at the AHRI test condition due to curve out of bound.\n   **   ~~~   **  Review the Standard Ratings calculations in the Engineering Reference for this coil type. Also, use Output:Diagnostics, DisplayExtraWarnings for further guidance.\n   ** Warning ** The Standard Ratings is calculated for Coil:Cooling:DX:SingleSpeed = COIL COOLING DX SINGLE SPEED 10 21KBTU/HR 9.3EER but not at the AHRI test condition due to curve out of bound.\n   **   ~~~   **  Review the Standard Ratings calculations in the Engineering Reference for this coil type. Also, use Output:Diagnostics, DisplayExtraWarnings for further guidance.\n   ** Warning ** The Standard Ratings is calculated for Coil:Cooling:DX:SingleSpeed = COIL COOLING DX SINGLE SPEED 7 5KBTU/HR 11.0EER but not at the AHRI test condition due to curve out of bound.\n   **   ~~~   **  Review the Standard Ratings calculations in the Engineering Reference for this coil type. Also, use Output:Diagnostics, DisplayExtraWarnings for further guidance.\n   ** Warning ** The Standard Ratings is calculated for Coil:Cooling:DX:SingleSpeed = COIL COOLING DX SINGLE SPEED 11 10KBTU/HR 10.4EER but not at the AHRI test condition due to curve out of bound.\n   **   ~~~   **  Review the Standard Ratings calculations in the Engineering Reference for this coil type. Also, use Output:Diagnostics, DisplayExtraWarnings for further guidance.\n   ** Warning ** The Standard Ratings is calculated for Coil:Cooling:DX:SingleSpeed = COIL COOLING DX SINGLE SPEED 2 3KBTU/HR 11.0EER but not at the AHRI test condition due to curve out of bound.\n   **   ~~~   **  Review the Standard Ratings calculations in the Engineering Reference for this coil type. Also, use Output:Diagnostics, DisplayExtraWarnings for further guidance.\n   ** Warning ** The Standard Ratings is calculated for Coil:Cooling:DX:SingleSpeed = COIL COOLING DX SINGLE SPEED 4 18KBTU/HR 9.3EER but not at the AHRI test condition due to curve out of bound.\n   **   ~~~   **  Review the Standard Ratings calculations in the Engineering Reference for this coil type. Also, use Output:Diagnostics, DisplayExtraWarnings for further guidance.\n   ** Warning ** The Standard Ratings is calculated for Coil:Cooling:DX:SingleSpeed = COIL COOLING DX SINGLE SPEED 3 17KBTU/HR 9.3EER but not at the AHRI test condition due to curve out of bound.\n   **   ~~~   **  Review the Standard Ratings calculations in the Engineering Reference for this coil type. Also, use Output:Diagnostics, DisplayExtraWarnings for further guidance.\n   ** Warning ** The Standard Ratings is calculated for Coil:Cooling:DX:SingleSpeed = COIL COOLING DX SINGLE SPEED 1 195KBTU/HR 9.7EER but not at the AHRI test condition due to curve out of bound.\n   **   ~~~   **  Review the Standard Ratings calculations in the Engineering Reference for this coil type. Also, use Output:Diagnostics, DisplayExtraWarnings for further guidance.\n   ** Warning ** The Standard Ratings is calculated for Coil:Cooling:DX:SingleSpeed = COIL COOLING DX SINGLE SPEED 14 86KBTU/HR 9.7EER but not at the AHRI test condition due to curve out of bound.\n   **   ~~~   **  Review the Standard Ratings calculations in the Engineering Reference for this coil type. Also, use Output:Diagnostics, DisplayExtraWarnings for further guidance.\n   ** Warning ** The Standard Ratings is calculated for Coil:Cooling:DX:SingleSpeed = COIL COOLING DX SINGLE SPEED 18 79KBTU/HR 9.7EER but not at the AHRI test condition due to curve out of bound.\n   **   ~~~   **  Review the Standard Ratings calculations in the Engineering Reference for this coil type. Also, use Output:Diagnostics, DisplayExtraWarnings for further guidance.\n   ** Warning ** The Standard Ratings is calculated for Coil:Cooling:DX:SingleSpeed = COIL COOLING DX SINGLE SPEED 13 66KBTU/HR 9.7EER but not at the AHRI test condition due to curve out of bound.\n   **   ~~~   **  Review the Standard Ratings calculations in the Engineering Reference for this coil type. Also, use Output:Diagnostics, DisplayExtraWarnings for further guidance.\n   ** Warning ** The Standard Ratings is calculated for Coil:Cooling:DX:SingleSpeed = COIL COOLING DX SINGLE SPEED 15 86KBTU/HR 9.7EER but not at the AHRI test condition due to curve out of bound.\n   **   ~~~   **  Review the Standard Ratings calculations in the Engineering Reference for this coil type. Also, use Output:Diagnostics, DisplayExtraWarnings for further guidance.\n   ** Warning ** The Standard Ratings is calculated for Coil:Cooling:DX:SingleSpeed = COIL COOLING DX SINGLE SPEED 16 55KBTU/HR 14.0SEER but not at the AHRI test condition due to curve out of bound.\n   **   ~~~   **  Review the Standard Ratings calculations in the Engineering Reference for this coil type. Also, use Output:Diagnostics, DisplayExtraWarnings for further guidance.\n   ** Warning ** The Standard Ratings is calculated for Coil:Cooling:DX:SingleSpeed = COIL COOLING DX SINGLE SPEED 12 16KBTU/HR 14.0SEER but not at the AHRI test condition due to curve out of bound.\n   **   ~~~   **  Review the Standard Ratings calculations in the Engineering Reference for this coil type. Also, use Output:Diagnostics, DisplayExtraWarnings for further guidance.\n   ** Warning ** The Standard Ratings is calculated for Coil:Cooling:DX:SingleSpeed = COIL COOLING DX SINGLE SPEED 17 6KBTU/HR 14.0SEER but not at the AHRI test condition due to curve out of bound.\n   **   ~~~   **  Review the Standard Ratings calculations in the Engineering Reference for this coil type. Also, use Output:Diagnostics, DisplayExtraWarnings for further guidance.\n   ** Warning ** SizeWaterCoil: Coil=\"COIL COOLING WATER 1\", Cooling Coil has leaving humidity ratio > entering humidity ratio.\n   **   ~~~   **     Wair,in =  8.149391E-003\n   **   ~~~   **     Wair,out = 9.379546E-003\n   **   ~~~   ** ....coil leaving humidity ratio will be reset to:\n   **   ~~~   **     Wair,out = 8.149391E-003\n   ** Warning ** Missing temperature setpoint for LeavingSetpointModulated mode chiller named PRIMARY CHILLER WATERCOOLED SCROLL 28TONS 0.8KW/TON\n   **   ~~~   **   A temperature setpoint is needed at the outlet node of a chiller in variable flow mode, use a SetpointManager\n   **   ~~~   **   The overall loop setpoint will be assumed for chiller. The simulation continues ... \n   ** Warning ** Missing temperature setpoint for LeavingSetpointModulated mode chiller named SECONDARY CHILLER WATERCOOLED SCROLL 0TONS 0.8KW/TON\n   **   ~~~   **   A temperature setpoint is needed at the outlet node of a chiller in variable flow mode, use a SetpointManager\n   **   ~~~   **   The overall loop setpoint will be assumed for chiller. The simulation continues ... \n   ** Warning ** Missing temperature setpoint for LeavingSetpointModulated mode Boiler named PRIMARY BOILER 2566KBTU/HR 0.833 COMBUSTION EFF\n   **   ~~~   **   A temperature setpoint is needed at the outlet node of a boiler in variable flow mode, use a SetpointManager\n   **   ~~~   **   The overall loop setpoint will be assumed for Boiler. The simulation continues ... \n   ** Warning ** Output:Meter: invalid Name=\"DISTRICTCOOLING:FACILITY\" - not found.\n   ** Warning ** Output:Meter: invalid Name=\"DISTRICTHEATING:FACILITY\" - not found.\n   ** Warning ** Output:Meter:MeterFileOnly requested for \"Electricity:Facility\" (TimeStep), already on \"Output:Meter\". Will report to both eplusout.eso and eplusout.mtr\n   ************* Testing Individual Branch Integrity\n   ************* All Branches passed integrity testing\n   ************* Testing Individual Supply Air Path Integrity\n   ************* All Supply Air Paths passed integrity testing\n   ************* Testing Individual Return Air Path Integrity\n   ************* All Return Air Paths passed integrity testing\n   ************* No node connection errors were found.\n   ************* Beginning Simulation\n   ** Warning ** CalcDoe2DXCoil: Coil:Cooling:DX:SingleSpeed \"COIL COOLING DX SINGLE SPEED 16 55KBTU/HR 14.0SEER\" - Air-cooled condenser inlet dry-bulb temperature below 0 C. Outdoor dry-bulb temperature = -3.38\n   **   ~~~   **  ... Occurrence info = RUN PERIOD 1, 01/01 01:01 - 01:03\n   **   ~~~   ** ... Operation at low ambient temperatures may require special performance curves.\n   ** Warning ** CalcDoe2DXCoil: Coil:Cooling:DX:SingleSpeed \"COIL COOLING DX SINGLE SPEED 13 66KBTU/HR 9.7EER\" - Air-cooled condenser inlet dry-bulb temperature below 0 C. Outdoor dry-bulb temperature = -2.20\n   **   ~~~   **  ... Occurrence info = RUN PERIOD 1, 01/04 07:02 - 07:04\n   **   ~~~   ** ... Operation at low ambient temperatures may require special performance curves.\n   ** Warning ** CalcDoe2DXCoil: Coil:Cooling:DX:SingleSpeed \"COIL COOLING DX SINGLE SPEED 17 6KBTU/HR 14.0SEER\" - Air-cooled condenser inlet dry-bulb temperature below 0 C. Outdoor dry-bulb temperature = -2.20\n   **   ~~~   **  ... Occurrence info = RUN PERIOD 1, 01/04 08:04 - 08:06\n   **   ~~~   ** ... Operation at low ambient temperatures may require special performance curves.\n   ** Warning ** CalcDoe2DXCoil: Coil:Cooling:DX:SingleSpeed \"COIL COOLING DX SINGLE SPEED 17 6KBTU/HR 14.0SEER\" - Full load outlet air dry-bulb temperature < 2C. This indicates the possibility of coil frost/freeze. Outlet temperature = 0.23 C.\n   **   ~~~   **  ...Occurrence info = RUN PERIOD 1, 01/04 08:04 - 08:06\n   **   ~~~   ** ... Possible reasons for low outlet air dry-bulb temperatures are: This DX coil\n   **   ~~~   **    1) may have a low inlet air dry-bulb temperature. Inlet air temperature = 14.432 C.\n   **   ~~~   **    2) may have a low air flow rate per watt of cooling capacity. Check inputs.\n   **   ~~~   **    3) is used as part of a HX assisted cooling coil which uses a high sensible effectiveness. Check inputs.\n   ** Warning ** CalcDoe2DXCoil: Coil:Cooling:DX:SingleSpeed \"COIL COOLING DX SINGLE SPEED 7 5KBTU/HR 11.0EER\" - Air-cooled condenser inlet dry-bulb temperature below 0 C. Outdoor dry-bulb temperature = -1.83\n   **   ~~~   **  ... Occurrence info = RUN PERIOD 1, 01/04 12:11 - 12:15\n   **   ~~~   ** ... Operation at low ambient temperatures may require special performance curves.\n   ** Warning ** CalcDoe2DXCoil: Coil:Cooling:DX:SingleSpeed \"COIL COOLING DX SINGLE SPEED 11 10KBTU/HR 10.4EER\" - Air-cooled condenser inlet dry-bulb temperature below 0 C. Outdoor dry-bulb temperature = -1.95\n   **   ~~~   **  ... Occurrence info = RUN PERIOD 1, 01/04 12:15 - 12:22\n   **   ~~~   ** ... Operation at low ambient temperatures may require special performance curves.\n   ** Warning ** CalcDoe2DXCoil: Coil:Cooling:DX:SingleSpeed \"COIL COOLING DX SINGLE SPEED 5 19KBTU/HR 9.3EER\" - Air-cooled condenser inlet dry-bulb temperature below 0 C. Outdoor dry-bulb temperature = -2.48\n   **   ~~~   **  ... Occurrence info = RUN PERIOD 1, 01/04 13:08 - 13:15\n   **   ~~~   ** ... Operation at low ambient temperatures may require special performance curves.\n   ** Warning ** CalcDoe2DXCoil: Coil:Cooling:DX:SingleSpeed \"COIL COOLING DX SINGLE SPEED 9 22KBTU/HR 9.3EER\" - Air-cooled condenser inlet dry-bulb temperature below 0 C. Outdoor dry-bulb temperature = -2.48\n   **   ~~~   **  ... Occurrence info = RUN PERIOD 1, 01/04 13:08 - 13:15\n   **   ~~~   ** ... Operation at low ambient temperatures may require special performance curves.\n   ** Warning ** CalcDoe2DXCoil: Coil:Cooling:DX:SingleSpeed \"COIL COOLING DX SINGLE SPEED 4 18KBTU/HR 9.3EER\" - Air-cooled condenser inlet dry-bulb temperature below 0 C. Outdoor dry-bulb temperature = -2.48\n   **   ~~~   **  ... Occurrence info = RUN PERIOD 1, 01/04 13:08 - 13:15\n   **   ~~~   ** ... Operation at low ambient temperatures may require special performance curves.\n   ** Warning ** CalcDoe2DXCoil: Coil:Cooling:DX:SingleSpeed \"COIL COOLING DX SINGLE SPEED 6 18KBTU/HR 9.3EER\" - Air-cooled condenser inlet dry-bulb temperature below 0 C. Outdoor dry-bulb temperature = -3.45\n   **   ~~~   **  ... Occurrence info = RUN PERIOD 1, 01/04 15:05 - 15:10\n   **   ~~~   ** ... Operation at low ambient temperatures may require special performance curves.\n   ** Warning ** CalcDoe2DXCoil: Coil:Cooling:DX:SingleSpeed \"COIL COOLING DX SINGLE SPEED 10 21KBTU/HR 9.3EER\" - Air-cooled condenser inlet dry-bulb temperature below 0 C. Outdoor dry-bulb temperature = -3.45\n   **   ~~~   **  ... Occurrence info = RUN PERIOD 1, 01/04 15:05 - 15:10\n   **   ~~~   ** ... Operation at low ambient temperatures may require special performance curves.\n   ** Warning ** CalcDoe2DXCoil: Coil:Cooling:DX:SingleSpeed \"COIL COOLING DX SINGLE SPEED 16 55KBTU/HR 14.0SEER\" - Full load outlet air dry-bulb temperature < 2C. This indicates the possibility of coil frost/freeze. Outlet temperature = 1.17 C.\n   **   ~~~   **  ...Occurrence info = RUN PERIOD 1, 01/08 01:01 - 01:03\n   **   ~~~   ** ... Possible reasons for low outlet air dry-bulb temperatures are: This DX coil\n   **   ~~~   **    1) may have a low inlet air dry-bulb temperature. Inlet air temperature = 15.243 C.\n   **   ~~~   **    2) may have a low air flow rate per watt of cooling capacity. Check inputs.\n   **   ~~~   **    3) is used as part of a HX assisted cooling coil which uses a high sensible effectiveness. Check inputs.\n   ** Warning ** SimHVAC: Maximum iterations (20) exceeded for all HVAC loops, at RUN PERIOD 1, 01/08 10:23 - 10:26\n   **   ~~~   ** The solution for one or more of the Air Loop HVAC systems did not appear to converge\n   **   ~~~   ** ...use Output:Diagnostics,DisplayExtraWarnings; to show more details on each max iteration exceeded.\n   ** Warning ** SimHVAC: Maximum iterations (20) exceeded for all HVAC loops, at RUN PERIOD 1, 01/08 10:30 - 10:45\n   **   ~~~   ** The solution for one or more of the Air Loop HVAC systems did not appear to converge\n   ** Warning ** SimHVAC: Maximum iterations (20) exceeded for all HVAC loops, at RUN PERIOD 1, 01/09 10:30 - 10:45\n   **   ~~~   ** The solution for one or more of the Air Loop HVAC systems did not appear to converge\n   ** Warning ** SimHVAC: Maximum iterations (20) exceeded for all HVAC loops, at RUN PERIOD 1, 01/09 10:38 - 10:45\n   **   ~~~   ** The solution for one or more of the Air Loop HVAC systems did not appear to converge\n   ** Warning ** CalcDoe2DXCoil: Coil:Cooling:DX:SingleSpeed \"COIL COOLING DX SINGLE SPEED 7 5KBTU/HR 11.0EER\" - Full load outlet air dry-bulb temperature < 2C. This indicates the possibility of coil frost/freeze. Outlet temperature = 1.79 C.\n   **   ~~~   **  ...Occurrence info = RUN PERIOD 1, 01/09 10:38 - 10:45\n   **   ~~~   ** ... Possible reasons for low outlet air dry-bulb temperatures are: This DX coil\n   **   ~~~   **    1) may have a low inlet air dry-bulb temperature. Inlet air temperature = 15.895 C.\n   **   ~~~   **    2) may have a low air flow rate per watt of cooling capacity. Check inputs.\n   **   ~~~   **    3) is used as part of a HX assisted cooling coil which uses a high sensible effectiveness. Check inputs.\n   ** Warning ** SimHVAC: Maximum iterations (20) exceeded for all HVAC loops, at RUN PERIOD 1, 01/09 10:45 - 11:00\n   **   ~~~   ** The solution for one or more of the Air Loop HVAC systems did not appear to converge\n   ** Warning ** SimHVAC: Maximum iterations (20) exceeded for all HVAC loops, at RUN PERIOD 1, 01/09 10:53 - 11:00\n   **   ~~~   ** The solution for one or more of the Air Loop HVAC systems did not appear to converge\n   ** Warning ** SimHVAC: Maximum iterations (20) exceeded for all HVAC loops, at RUN PERIOD 1, 01/15 10:45 - 11:00\n   **   ~~~   ** The solution for one or more of the Air Loop HVAC systems did not appear to converge\n   ** Warning ** SimHVAC: Maximum iterations (20) exceeded for all HVAC loops, at RUN PERIOD 1, 01/15 11:00 - 11:08\n   **   ~~~   ** The solution for one or more of the Air Loop HVAC systems did not appear to converge\n   ** Warning ** SimHVAC: Maximum iterations (20) exceeded for all HVAC loops, at RUN PERIOD 1, 01/17 10:30 - 10:45\n   **   ~~~   ** The solution for one or more of the Air Loop HVAC systems did not appear to converge\n   ** Warning ** SimHVAC: Maximum iterations (20) exceeded for all HVAC loops, at RUN PERIOD 1, 01/17 10:40 - 10:45\n   **   ~~~   ** The solution for one or more of the Air Loop HVAC systems did not appear to converge\n   ** Warning ** SimHVAC: Maximum iterations (20) exceeded for all HVAC loops, at RUN PERIOD 1, 01/17 10:45 - 11:00\n   **   ~~~   ** The solution for one or more of the Air Loop HVAC systems did not appear to converge\n   ** Warning ** SimHVAC: Maximum iterations (20) exceeded for all HVAC loops, at RUN PERIOD 1, 01/17 10:45 - 10:52\n   **   ~~~   ** The solution for one or more of the Air Loop HVAC systems did not appear to converge\n   ** Warning ** SimHVAC: Maximum iterations (20) exceeded for all HVAC loops, at RUN PERIOD 1, 01/18 11:00 - 11:08\n   **   ~~~   ** The solution for one or more of the Air Loop HVAC systems did not appear to converge\n   ** Warning ** SimHVAC: Maximum iterations (20) exceeded for all HVAC loops, at RUN PERIOD 1, 01/18 16:15 - 16:30\n   **   ~~~   ** The solution for one or more of the Air Loop HVAC systems did not appear to converge\n   ** Warning ** CalcDoe2DXCoil: Coil:Cooling:DX:SingleSpeed \"COIL COOLING DX SINGLE SPEED 12 16KBTU/HR 14.0SEER\" - Full load outlet air dry-bulb temperature < 2C. This indicates the possibility of coil frost/freeze. Outlet temperature = -2.59 C.\n   **   ~~~   **  ...Occurrence info = RUN PERIOD 1, 01/29 10:02 - 10:05\n   **   ~~~   ** ... Possible reasons for low outlet air dry-bulb temperatures are: This DX coil\n   **   ~~~   **    1) may have a low inlet air dry-bulb temperature. Inlet air temperature = 12.607 C.\n   **   ~~~   **    2) may have a low air flow rate per watt of cooling capacity. Check inputs.\n   **   ~~~   **    3) is used as part of a HX assisted cooling coil which uses a high sensible effectiveness. Check inputs.\n   ** Warning ** CalcDoe2DXCoil: Coil:Cooling:DX:SingleSpeed \"COIL COOLING DX SINGLE SPEED 2 3KBTU/HR 11.0EER\" - Air-cooled condenser inlet dry-bulb temperature below 0 C. Outdoor dry-bulb temperature = -0.40\n   **   ~~~   **  ... Occurrence info = RUN PERIOD 1, 01/31 22:00 - 22:08\n   **   ~~~   ** ... Operation at low ambient temperatures may require special performance curves.\n   ** Warning ** CalcDoe2DXCoil: Coil:Cooling:DX:SingleSpeed \"COIL COOLING DX SINGLE SPEED 2 3KBTU/HR 11.0EER\" - Full load outlet air dry-bulb temperature < 2C. This indicates the possibility of coil frost/freeze. Outlet temperature = 1.95 C.\n   **   ~~~   **  ...Occurrence info = RUN PERIOD 1, 01/31 22:45 - 23:00\n   **   ~~~   ** ... Possible reasons for low outlet air dry-bulb temperatures are: This DX coil\n   **   ~~~   **    1) may have a low inlet air dry-bulb temperature. Inlet air temperature = 15.984 C.\n   **   ~~~   **    2) may have a low air flow rate per watt of cooling capacity. Check inputs.\n   **   ~~~   **    3) is used as part of a HX assisted cooling coil which uses a high sensible effectiveness. Check inputs.\n   ** Warning ** CalcDoe2DXCoil: Coil:Cooling:DX:SingleSpeed \"COIL COOLING DX SINGLE SPEED 3 17KBTU/HR 9.3EER\" - Air-cooled condenser inlet dry-bulb temperature below 0 C. Outdoor dry-bulb temperature = -25.63\n   **   ~~~   **  ... Occurrence info = RUN PERIOD 1, 02/10 10:30 - 10:38\n   **   ~~~   ** ... Operation at low ambient temperatures may require special performance curves.\n   ** Warning ** CalcDoe2DXCoil: Coil:Cooling:DX:SingleSpeed \"COIL COOLING DX SINGLE SPEED 8 51KBTU/HR 9.3EER\" - Air-cooled condenser inlet dry-bulb temperature below 0 C. Outdoor dry-bulb temperature = -0.60\n   **   ~~~   **  ... Occurrence info = RUN PERIOD 1, 02/15 16:45 - 17:00\n   **   ~~~   ** ... Operation at low ambient temperatures may require special performance curves.\n   ** Warning ** CalcDoe2DXCoil: Coil:Cooling:DX:SingleSpeed \"COIL COOLING DX SINGLE SPEED 18 79KBTU/HR 9.7EER\" - Full load outlet air dry-bulb temperature < 2C. This indicates the possibility of coil frost/freeze. Outlet temperature = -2.51 C.\n   **   ~~~   **  ...Occurrence info = RUN PERIOD 1, 04/08 16:30 - 16:38\n   **   ~~~   ** ... Possible reasons for low outlet air dry-bulb temperatures are: This DX coil\n   **   ~~~   **    1) may have a low inlet air dry-bulb temperature. Inlet air temperature = 11.775 C.\n   **   ~~~   **    2) may have a low air flow rate per watt of cooling capacity. Check inputs.\n   **   ~~~   **    3) is used as part of a HX assisted cooling coil which uses a high sensible effectiveness. Check inputs.\n   ** Warning ** CalcDoe2DXCoil: Coil:Cooling:DX:SingleSpeed \"COIL COOLING DX SINGLE SPEED 1 195KBTU/HR 9.7EER\" - Full load outlet air dry-bulb temperature < 2C. This indicates the possibility of coil frost/freeze. Outlet temperature = 1.80 C.\n   **   ~~~   **  ...Occurrence info = RUN PERIOD 1, 04/14 11:45 - 11:52\n   **   ~~~   ** ... Possible reasons for low outlet air dry-bulb temperatures are: This DX coil\n   **   ~~~   **    1) may have a low inlet air dry-bulb temperature. Inlet air temperature = 18.700 C.\n   **   ~~~   **    2) may have a low air flow rate per watt of cooling capacity. Check inputs.\n   **   ~~~   **    3) is used as part of a HX assisted cooling coil which uses a high sensible effectiveness. Check inputs.\n   ** Warning ** CalcDoe2DXCoil: Coil:Cooling:DX:SingleSpeed \"COIL COOLING DX SINGLE SPEED 14 86KBTU/HR 9.7EER\" - Full load outlet air dry-bulb temperature < 2C. This indicates the possibility of coil frost/freeze. Outlet temperature = 0.21 C.\n   **   ~~~   **  ...Occurrence info = RUN PERIOD 1, 04/14 12:08 - 12:15\n   **   ~~~   ** ... Possible reasons for low outlet air dry-bulb temperatures are: This DX coil\n   **   ~~~   **    1) may have a low inlet air dry-bulb temperature. Inlet air temperature = 19.125 C.\n   **   ~~~   **    2) may have a low air flow rate per watt of cooling capacity. Check inputs.\n   **   ~~~   **    3) is used as part of a HX assisted cooling coil which uses a high sensible effectiveness. Check inputs.\n   ** Warning ** CalcDoe2DXCoil: Coil:Cooling:DX:SingleSpeed \"COIL COOLING DX SINGLE SPEED 15 86KBTU/HR 9.7EER\" - Full load outlet air dry-bulb temperature < 2C. This indicates the possibility of coil frost/freeze. Outlet temperature = 0.21 C.\n   **   ~~~   **  ...Occurrence info = RUN PERIOD 1, 04/14 12:08 - 12:15\n   **   ~~~   ** ... Possible reasons for low outlet air dry-bulb temperatures are: This DX coil\n   **   ~~~   **    1) may have a low inlet air dry-bulb temperature. Inlet air temperature = 19.125 C.\n   **   ~~~   **    2) may have a low air flow rate per watt of cooling capacity. Check inputs.\n   **   ~~~   **    3) is used as part of a HX assisted cooling coil which uses a high sensible effectiveness. Check inputs.\n   ************* Simulation Error Summary *************\n   ************* There are 9 unused schedules in input.\n   ************* There are 9 unused week schedules in input.\n   ************* There are 35 unused day schedules in input.\n   ************* Use Output:Diagnostics,DisplayUnusedSchedules; to see them.\n   *************\n   ************* ===== Recurring Error Summary =====\n   ************* The following recurring error messages occurred.\n   *************\n   *************  ** Warning ** CalcDoe2DXCoil: Coil:Cooling:DX:SingleSpeed=\"COIL COOLING DX SINGLE SPEED 16 55KBTU/HR 14.0SEER\" - Low condenser dry-bulb temperature error continues...\n   *************  **   ~~~   **   This error occurred 494 total times;\n   *************  **   ~~~   **   during Warmup 0 times;\n   *************  **   ~~~   **   during Sizing 0 times.\n   *************  **   ~~~   **   Max=-5.551115E-017 [C]  Min=-30.75 [C]\n   *************\n   *************  ** Warning ** CalcDoe2DXCoil: Coil:Cooling:DX:SingleSpeed=\"COIL COOLING DX SINGLE SPEED 13 66KBTU/HR 9.7EER\" - Low condenser dry-bulb temperature error continues...\n   *************  **   ~~~   **   This error occurred 255 total times;\n   *************  **   ~~~   **   during Warmup 0 times;\n   *************  **   ~~~   **   during Sizing 0 times.\n   *************  **   ~~~   **   Max=-2.500000E-002 [C]  Min=-31.625 [C]\n   *************\n   *************  ** Warning ** CalcDoe2DXCoil: Coil:Cooling:DX:SingleSpeed=\"COIL COOLING DX SINGLE SPEED 17 6KBTU/HR 14.0SEER\" - Low condenser dry-bulb temperature error continues...\n   *************  **   ~~~   **   This error occurred 135 total times;\n   *************  **   ~~~   **   during Warmup 0 times;\n   *************  **   ~~~   **   during Sizing 0 times.\n   *************  **   ~~~   **   Max=-7.500000E-002 [C]  Min=-10.65 [C]\n   *************\n   *************  ** Warning ** CalcDoe2DXCoil: Coil:Cooling:DX:SingleSpeed=\"COIL COOLING DX SINGLE SPEED 17 6KBTU/HR 14.0SEER\" - Full load outlet temperature indicates a possibility of frost/freeze error continues. Outlet air temperature statistics follow:\n   *************  **   ~~~   **   This error occurred 201 total times;\n   *************  **   ~~~   **   during Warmup 0 times;\n   *************  **   ~~~   **   during Sizing 0 times.\n   *************  **   ~~~   **   Max=1.998891  Min=-3.010917\n   *************\n   *************  ** Warning ** CalcDoe2DXCoil: Coil:Cooling:DX:SingleSpeed=\"COIL COOLING DX SINGLE SPEED 7 5KBTU/HR 11.0EER\" - Low condenser dry-bulb temperature error continues...\n   *************  **   ~~~   **   This error occurred 5284 total times;\n   *************  **   ~~~   **   during Warmup 0 times;\n   *************  **   ~~~   **   during Sizing 0 times.\n   *************  **   ~~~   **   Max=-5.551115E-017 [C]  Min=-28.9 [C]\n   *************\n   *************  ** Warning ** CalcDoe2DXCoil: Coil:Cooling:DX:SingleSpeed=\"COIL COOLING DX SINGLE SPEED 11 10KBTU/HR 10.4EER\" - Low condenser dry-bulb temperature error continues...\n   *************  **   ~~~   **   This error occurred 2106 total times;\n   *************  **   ~~~   **   during Warmup 0 times;\n   *************  **   ~~~   **   during Sizing 0 times.\n   *************  **   ~~~   **   Max=-5.551115E-017 [C]  Min=-28.1 [C]\n   *************\n   *************  ** Warning ** CalcDoe2DXCoil: Coil:Cooling:DX:SingleSpeed=\"COIL COOLING DX SINGLE SPEED 5 19KBTU/HR 9.3EER\" - Low condenser dry-bulb temperature error continues...\n   *************  **   ~~~   **   This error occurred 1269 total times;\n   *************  **   ~~~   **   during Warmup 0 times;\n   *************  **   ~~~   **   during Sizing 0 times.\n   *************  **   ~~~   **   Max=-5.000000E-002 [C]  Min=-26.725 [C]\n   *************\n   *************  ** Warning ** CalcDoe2DXCoil: Coil:Cooling:DX:SingleSpeed=\"COIL COOLING DX SINGLE SPEED 9 22KBTU/HR 9.3EER\" - Low condenser dry-bulb temperature error continues...\n   *************  **   ~~~   **   This error occurred 819 total times;\n   *************  **   ~~~   **   during Warmup 0 times;\n   *************  **   ~~~   **   during Sizing 0 times.\n   *************  **   ~~~   **   Max=-5.000000E-002 [C]  Min=-26.15 [C]\n   *************\n   *************  ** Warning ** CalcDoe2DXCoil: Coil:Cooling:DX:SingleSpeed=\"COIL COOLING DX SINGLE SPEED 4 18KBTU/HR 9.3EER\" - Low condenser dry-bulb temperature error continues...\n   *************  **   ~~~   **   This error occurred 1607 total times;\n   *************  **   ~~~   **   during Warmup 0 times;\n   *************  **   ~~~   **   during Sizing 0 times.\n   *************  **   ~~~   **   Max=-5.551115E-017 [C]  Min=-28.6 [C]\n   *************\n   *************  ** Warning ** CalcDoe2DXCoil: Coil:Cooling:DX:SingleSpeed=\"COIL COOLING DX SINGLE SPEED 6 18KBTU/HR 9.3EER\" - Low condenser dry-bulb temperature error continues...\n   *************  **   ~~~   **   This error occurred 364 total times;\n   *************  **   ~~~   **   during Warmup 0 times;\n   *************  **   ~~~   **   during Sizing 0 times.\n   *************  **   ~~~   **   Max=-5.000000E-002 [C]  Min=-26.15 [C]\n   *************\n   *************  ** Warning ** CalcDoe2DXCoil: Coil:Cooling:DX:SingleSpeed=\"COIL COOLING DX SINGLE SPEED 10 21KBTU/HR 9.3EER\" - Low condenser dry-bulb temperature error continues...\n   *************  **   ~~~   **   This error occurred 258 total times;\n   *************  **   ~~~   **   during Warmup 0 times;\n   *************  **   ~~~   **   during Sizing 0 times.\n   *************  **   ~~~   **   Max=-5.000000E-002 [C]  Min=-25.575 [C]\n   *************\n   *************  ** Warning ** CalcDoe2DXCoil: Coil:Cooling:DX:SingleSpeed=\"COIL COOLING DX SINGLE SPEED 16 55KBTU/HR 14.0SEER\" - Full load outlet temperature indicates a possibility of frost/freeze error continues. Outlet air temperature statistics follow:\n   *************  **   ~~~   **   This error occurred 5 total times;\n   *************  **   ~~~   **   during Warmup 0 times;\n   *************  **   ~~~   **   during Sizing 0 times.\n   *************  **   ~~~   **   Max=1.167501  Min=-0.258303\n   *************\n   *************  ** Warning ** CalcDoe2DXCoil: Coil:Cooling:DX:SingleSpeed=\"COIL COOLING DX SINGLE SPEED 7 5KBTU/HR 11.0EER\" - Full load outlet temperature indicates a possibility of frost/freeze error continues. Outlet air temperature statistics follow:\n   *************  **   ~~~   **   This error occurred 188 total times;\n   *************  **   ~~~   **   during Warmup 0 times;\n   *************  **   ~~~   **   during Sizing 0 times.\n   *************  **   ~~~   **   Max=1.998836  Min=1.401269\n   *************\n   *************  ** Warning ** SimHVAC: Exceeding Maximum iterations for all HVAC loops, during RUN PERIOD 1 continues\n   *************  **   ~~~   **   This error occurred 90 total times;\n   *************  **   ~~~   **   during Warmup 0 times;\n   *************  **   ~~~   **   during Sizing 0 times.\n   *************\n   *************  ** Warning ** CalcDoe2DXCoil: Coil:Cooling:DX:SingleSpeed=\"COIL COOLING DX SINGLE SPEED 12 16KBTU/HR 14.0SEER\" - Full load outlet temperature indicates a possibility of frost/freeze error continues. Outlet air temperature statistics follow:\n   *************  **   ~~~   **   This error occurred 1223 total times;\n   *************  **   ~~~   **   during Warmup 0 times;\n   *************  **   ~~~   **   during Sizing 0 times.\n   *************  **   ~~~   **   Max=1.998034  Min=-5.691943\n   *************\n   *************  ** Warning ** CalcDoe2DXCoil: Coil:Cooling:DX:SingleSpeed=\"COIL COOLING DX SINGLE SPEED 2 3KBTU/HR 11.0EER\" - Low condenser dry-bulb temperature error continues...\n   *************  **   ~~~   **   This error occurred 300 total times;\n   *************  **   ~~~   **   during Warmup 0 times;\n   *************  **   ~~~   **   during Sizing 0 times.\n   *************  **   ~~~   **   Max=-2.500000E-002 [C]  Min=-11.7 [C]\n   *************\n   *************  ** Warning ** CalcDoe2DXCoil: Coil:Cooling:DX:SingleSpeed=\"COIL COOLING DX SINGLE SPEED 2 3KBTU/HR 11.0EER\" - Full load outlet temperature indicates a possibility of frost/freeze error continues. Outlet air temperature statistics follow:\n   *************  **   ~~~   **   This error occurred 45 total times;\n   *************  **   ~~~   **   during Warmup 0 times;\n   *************  **   ~~~   **   during Sizing 0 times.\n   *************  **   ~~~   **   Max=1.998862  Min=-0.315379\n   *************\n   *************  ** Warning ** Plant loop falling below lower temperature limit, PlantLoop=\"MAIN SERVICE WATER LOOP\"\n   *************  **   ~~~   **   This error occurred 52 total times;\n   *************  **   ~~~   **   during Warmup 0 times;\n   *************  **   ~~~   **   during Sizing 0 times.\n   *************  **   ~~~   **   Min=4.363518\n   *************\n   *************  ** Warning ** CalcDoe2DXCoil: Coil:Cooling:DX:SingleSpeed=\"COIL COOLING DX SINGLE SPEED 3 17KBTU/HR 9.3EER\" - Low condenser dry-bulb temperature error continues...\n   *************  **   ~~~   **   This error occurred 408 total times;\n   *************  **   ~~~   **   during Warmup 0 times;\n   *************  **   ~~~   **   during Sizing 0 times.\n   *************  **   ~~~   **   Max=-5.551115E-017 [C]  Min=-25.625 [C]\n   *************\n   *************  ** Warning ** CalcDoe2DXCoil: Coil:Cooling:DX:SingleSpeed=\"COIL COOLING DX SINGLE SPEED 8 51KBTU/HR 9.3EER\" - Low condenser dry-bulb temperature error continues...\n   *************  **   ~~~   **   This error occurred 7 total times;\n   *************  **   ~~~   **   during Warmup 0 times;\n   *************  **   ~~~   **   during Sizing 0 times.\n   *************  **   ~~~   **   Max=-0.175 [C]  Min=-1.7 [C]\n   *************\n   *************  ** Warning ** CalcDoe2DXCoil: Coil:Cooling:DX:SingleSpeed=\"COIL COOLING DX SINGLE SPEED 18 79KBTU/HR 9.7EER\" - Full load outlet temperature indicates a possibility of frost/freeze error continues. Outlet air temperature statistics follow:\n   *************  **   ~~~   **   This error occurred 113 total times;\n   *************  **   ~~~   **   during Warmup 0 times;\n   *************  **   ~~~   **   during Sizing 0 times.\n   *************  **   ~~~   **   Max=1.998166  Min=-2.532736\n   *************\n   *************  ** Warning ** CalcDoe2DXCoil: Coil:Cooling:DX:SingleSpeed=\"COIL COOLING DX SINGLE SPEED 1 195KBTU/HR 9.7EER\" - Full load outlet temperature indicates a possibility of frost/freeze error continues. Outlet air temperature statistics follow:\n   *************  **   ~~~   **   This error occurred 22 total times;\n   *************  **   ~~~   **   during Warmup 0 times;\n   *************  **   ~~~   **   during Sizing 0 times.\n   *************  **   ~~~   **   Max=1.989787  Min=1.732674\n   *************\n   *************  ** Warning ** CalcDoe2DXCoil: Coil:Cooling:DX:SingleSpeed=\"COIL COOLING DX SINGLE SPEED 14 86KBTU/HR 9.7EER\" - Full load outlet temperature indicates a possibility of frost/freeze error continues. Outlet air temperature statistics follow:\n   *************  **   ~~~   **   This error occurred 213 total times;\n   *************  **   ~~~   **   during Warmup 0 times;\n   *************  **   ~~~   **   during Sizing 0 times.\n   *************  **   ~~~   **   Max=1.999461  Min=-0.836074\n   *************\n   *************  ** Warning ** CalcDoe2DXCoil: Coil:Cooling:DX:SingleSpeed=\"COIL COOLING DX SINGLE SPEED 15 86KBTU/HR 9.7EER\" - Full load outlet temperature indicates a possibility of frost/freeze error continues. Outlet air temperature statistics follow:\n   *************  **   ~~~   **   This error occurred 239 total times;\n   *************  **   ~~~   **   during Warmup 0 times;\n   *************  **   ~~~   **   during Sizing 0 times.\n   *************  **   ~~~   **   Max=1.999461  Min=-2.453393\n   *************\n   *************\n   ************* ===== Final Error Summary =====\n   ************* The following error categories occurred.  Consider correcting or noting.\n   ************* Nominally Unused Constructions\n   ************* ..The nominally unused constructions warning is provided to alert you to potential conditions that can cause\n   ************* ..extra time during simulation. Each construction is calculated by the algorithm indicated in the HeatBalanceAlgorithm\n   ************* ..object. You may remove the constructions indicated (when you use the DisplayExtraWarnings option).\n   *************\n   ************* EnergyPlus Warmup Error Summary. During Warmup: 0 Warning; 0 Severe Errors.\n   ************* EnergyPlus Sizing Error Summary. During Sizing: 163 Warning; 0 Severe Errors.\n   ************* EnergyPlus Completed Successfully-- 15900 Warning; 0 Severe Errors; Elapsed Time=00hr 03min 37.55sec\n",
   "file_format_version" : "0.0.1",
   "file_paths" : [ "../weather", "../seeds", "../seed" ],
   "hash" : "D4D328F1",
   "measure_paths" : [ "../measures" ],
   "name" : "LHS Autogenerated 776",
   "osa_id" : "4fef0e0f-5396-4c55-a6e1-2cd6803db3ab",
   "osd_id" : "b83301d6-dc2e-4029-ac49-779f717a01c5",
   "run_directory" : "./run",
   "seed_file" : "seed.osm",
   "started_at" : "20170710T191307Z",
   "steps" : [
      {
         "arguments" : {
            "__SKIP__" : false,
            "building_type" : "LargeHotel",
            "climate_zone" : "NECB HDD Method",
            "epw_file" : "CAN_AB_Lethbridge.712430_CWEC.epw",
            "template" : "NECB 2011"
         },
         "measure_dir_name" : "create_prototype_building",
         "name" : "create_prototype_building",
         "result" : {
            "completed_at" : "20170710T191506Z",
            "measure_class_name" : "CreatePrototypeBuilding",
            "measure_display_name" : "Create Prototype Building",
            "measure_name" : "create_prototype_building",
            "measure_taxonomy" : "Whole Building.Space Types",
            "measure_type" : "ModelMeasure",
            "measure_uid" : "ae90fsd7-a651-467a-bc8d-29d310b0f937",
            "measure_version_id" : "c6ec5c18-5595-459f-a082-09a19c8c869c",
            "measure_version_modified" : "20170519T182315Z",
            "measure_xml_checksum" : "057E8D9D",
            "started_at" : "20170710T191309Z",
            "stderr" : "",
[...]
KLZZWdVWWC8nqslJnelRefMyxnM6rC4/aVU5VtSrTrTzr506+q5Z6/ud1PYU5nj5Vv/72Tv37zW9v1embt+9++uUH9fObH346Vj+evD0pJ/AqW7X1rWdaNJVGKoniVE1mV1kdjFQeaZIoLxllzUswGZdQXF57o/NgZ/Y66rz84hLrdBZP1NSLE/0qjLy07Zklfye7lQ8eO88fK3Ux17doD2wXL2Gd8OfNJr3c95/5dM8ne/uJry+8WZiqaRxla5h+0lFPvjk4OD4+OXmy4eAZ4hCHOMQhDnGIQxziEIc4xPlz4qhkdpX9J7DytXlQ+d6dIYq1TxrSkIY0pCENaUhDGtKQhjSkKaa5yT+a9Qea83CmiUMc4hCHOMQhDnGIQxziEIc4dXDufzfQMb8beDqTfjew7+TvsD1/vrd3eEhSkpKUpCQlKUlJSlKSkpSkJCUpSbeD1M1JvVQi7eWk/b7rHgxJSlKSkpSkJCUpSUlKUpKSlKQkJel2kPYN6as4EEjdw5zUcfb3+32SkpSkJCUpSUlKUpKSlKQkJSlJSbodpHuG9N3lTCI9yEkPs2PwgqQkJSlJSUpSkpKUpCQlKUlJSlKSbgfpwJD+S/sS6X5O+vLl8fH+PklJSlKSkpSkJCUpSUlKUpKSlKQk3Q7SYf6XiZmWSIc56fHxcEhSkpKUpCQlKUlJSlKSkpSkJCUpSbeFdN+Qvo6kZEF3kJMeHLjuYEBSkpKUpCQlKUlJSlKSkpSkJCUpSRsjXaL4sXfTXit2202DNNSnl95Ud1N9m7af/BjN4mQ9xt2XZ74MrvQkCaJJqJNcYY3E06fque8rT+VK6iZIL1USXWnl99ecmVyPu950qid+u2W8WztrTlgeXS9N43brttVRw17Fk+6yk9zyJyXpXajneLveZHQZxdn5rVBfVKBdaFxEk3T3Rgfjy9RonEehX15jfm9Op7svvERnNyhVp3fJ7p56Fca7fXU6utw9UT/+Go6u0t1JFGe34D+/qF9Ojl+Yp6X6Su2pX0//o96MRua5T3aKbur3T5NRHEzTf4jP+f6pH1x/fVg8RxbLtFTgH7VGpuKPs4vkBRMdnzlOr6XyS3fU8oNkGnp3z4JJmI3tnofR6NN3LRkwU52/BpXeTbPzzdV7+tG79uaPFp5pjmsvNtWpjpQfXE1D3Z3om9Prcbv1zVcgO2qv18v/Z+10M7q+l3qZ8PvfW6F3rsPWs5avL7xZmKppHF0EoW515iNnt61nTrfXaV174Uwv/j0yq1J2TrbQHB+fnLQ+d0rpuCCdPkhnD6QzAOkMQTr7IJ0DkM4hSMfpoYRQFe2gStpB1bSDKmoHVdUOqqwdVF07qMJ2UJXtoirbha3VqMp2UZXtVqpslcyurlZ+prrUjhZrv4KMeI2qyYhXqJqMeH2qyYjzvpqMOOuryYhzvpqMOOOryYjzvZqMvJFV1AHVsbyNVdQBVbK8iVXUAdWyvIVV1AFVs7yBVdQB1bO8fVXUQa3LoHqW966KOuXr+SaYpNW3rXPzUHkd8fJU1BEvT0Ud8fJU1BGne0UdcbpX1BGne0UdcbpX1BGne0Udef+qKoSqaHkHqyqEqml5D6sqhKpqeRerKoSqa3kfqyqEqmx5J6sqBFurUZUtb2ZVhcpX9v37Fmt/V1ja5nor/6E3/+FhgIW7eYv+5i32Nm8x2LzFcPMW+5u3ONi8xeHmLVZ29k15NDC/nQYmuNPADHcamOJOA3PcaWCSOw3McqeBae40MM/dBua528Q+3sA8dxuY5269eb725xvLtVXz33cEWMh3A2Yh3wyYhXwvYBbykguzkFdcmIW84MIs5PUWZiEvtzCLgneucR7yW384D/ldQZyH/IYhzqOBKV7QVuE8GpjkBW0VzqOBaV7QVuH2P7mtwnk0sY83sJEXtFU4j3rzfO2vZJVrq+Y/owWwkO8GzEK+GTAL+V7ALOQlF2Yhr7gwC3nBhVnI6y3MQv5sFMyioK3CechtFc5DbqtwHnJbhfOQP6KF85A/l4jzkD+yiPOQP82I85A/6IjzaGCeF7RVOI8m9vEGNvKCtgrnUW8rX/tjJOXaqvmvlQAs5LsBs5BvBsxCvhcwC7mtglnIbRXMQm6rYBZyWwWzkJdbmEVBW4XzkNsqnIfcVuE85LYK5yG3VTgPua3CechtFc5DbqtwHnJbhfNoYJ4XtFU4jyb28QY28oK2CudRbytfm/lerq2ah8IDLOS7AbOQbwbMQr4XMAu5rYJZyG0VzEJuq2AWclsFs5CXW5hFQVuF85DbKpyH3FbhPOS2Cucht1U4D7mtwnnIbRXOQ26rcB5yW4XzaGCeF7RVOI8m9vEGNvKCtgrnUW8rXxutW66tmmfvAizkuwGzkG8GzEK+FzALua2CWchtFcxCbqtgFnJbBbOQl1uYRUFbhfOQ2yqch9xW4TzktgrnIbdVOA+5rcJ5yG0VzkNuq3AecluF82hgnhe0VTiPJvbxBjbygrYK51FvK1+bYFiurZpHHAIs5LsBs5BvBsxCvhcwC7mtglnIbRXMQm6rYBZyWwWzKMqdAlkUhq2hPIrSqlAeRUFWKI+ijCuUR1H8FcqjKPMN5VEUB4fyKEqKQ3kUhcihPBqY5wVtFc6jiX28gY28oK3Ceazfyj+USXhdhDerIzXRN8sE2Tw4tp1cjzt5AuzaqNhlAnSi0xfRbOIn7UGvoxxn0FF98y93UC5u9jbDuA+29v1jL9XjKL57fhsk8wTl+9dfImY6E3gT+zp+OzOBxqVPNBx3qxyvtZfMYj3HMJnMi+u+4YhvDnOYwxzmMIc5zGEOc5jDHOYwhznMYQ5zmMMc5jCHOcxhDnOYwxzmMIc5zGEOc5jDHOYwhznMYQ5zmMMc5jCHOcxhDnOYwxzmMIc5zGEO/6mG77rRtY7jwNevPfPFWqfbs/y+qvlqbLL61dhTHQc6WXy9ttVZfoF4GkZpNwwmeu1XZJOvfU93/Tdrk27+0/PTKPTSIJpkUK0k1dPdc30RxbpV7pvPP+uxnvirL2j+WHvY66i++eZyz3yR2fxPK9QXqQFbI72U7Z6NdXoySc31ySwuZpNRTtreUb+vkVgS6vuz36/9Lrc5ggvVTi+DpJvkd6WckTkenNTNrt+JN7ps/xe4qtoS33x1PGNf6J5NoyQwgi+zh8u8muVhZL5CFUc31ZCWWMHE12Y+7Dqdimcvj491T7wIdGjqrb24pvN5Mo6j2VT76ttv1d8Wj992zy69ZPH9dzPBdh6O3n11NLsgXW88fmU8uqGejNNL9b1y1T9V63kYttSz1WckYTDS7V1n533vw87a+fbFK4li1f6YvZTed+pjZrMo1YWveezv2YpT/QaZw5TxQu/9xw/dT/pOHR0dzS9ePcVcdXHbP1Z9qcvjPNbepzonf654TtXnm+u1eHVHpqxNMSwqJQ9y6J55SRKMJ9o/NhERyfv8Sn6odymXN3o6Sy7bde9Fdkufze9n/ZkUhs/KvMqueWZdlySNo0+6nM/8uXWdoqk3CtK7claLJ9d+VbnF0qquynIhWV1W6kyPyouPOZbTeXXhUbvKqapWZbqVZ/3cyXfVUs//vK6nMMfTp+rX396pf7/57a06ffP23U+//KB+fvPDT8fqx5O3J+UEXmWrtr71TIum0kglUZyqyewqq4ORyiNNEuUlo6x5CSbjEorLa290HuzMXkedl19cYp3O4omaenGiX4WRl7Y9s+TvZLfywWPn+WOlLub6Fu2B7eIlrBP+vNmkl/v+M5/u+WRvP/H1hTcLUzWNo2wN00866sk3BwfHxycnTzYcPEMc4hCHOMQhDnGIQxziEIc4f04clcyusv8EVr42DyrfuzNEsfZJQxrSkIY0pCENaUhDGtKQhjTFNDf5R7P+QHMezjRxiEMc4hCHOMQhDnGIQxziEKcOzv3vBjrmdwNPZ9LvBvad/B2258/39g4PSUpSkpKUpCQlKUlJSlKSkpSkJCXpdpC6OamXSqS9nLTfd92DIUlJSlKSkpSkJCUpSUlKUpKSlKQk3Q7SviF9FQcCqXuYkzrO/n6/T1KSkpSkJCUpSUlKUpKSlKQkJSlJt4N0z5C+u5xJpAc56WF2DF6QlKQkJSlJSUpSkpKUpCQlKUlJStLtIB0Y0n9pXyLdz0lfvjw+3t8nKUlJSlKSkpSkJCUpSUlKUpKSlKTbQTrM/zIx0xLpMCc9Ph4OSUpSkpKUpCQlKUlJSlKSkpSkJCXptpDuG9LXkZQs6A5y0oMD1x0MSEpSkpKUpCQlKUlJSlKSkpSkJCVpY6RLFD/2btprxW67aZCG+vTSm+puqm/T9pMfo1mcrMe4+/LMl8GVniRBNAl1kiuskXj6VD33feWpXEndBOmlSqIrrfz+mjOT63HXm071xG+3jHdrZ80Jy6PrpWncbt22OmrYq3jSXXaSW/6kJL0L9Rxv15uMLqM4O78V6osKtAuNi2iS7t7oYHyZGo3zKPTLa8zvzel09ziK48CP4rNXYXw2VKd3yW5fZf/e3VOno8vdE/Xjr+HoKt1Noll2I/7zi/rl5PiFeVqqr1Rf/Xr6H/VmNDLPfbJTdGu/f5qM4mCa/kN8zvdP/eD668PiObJYpqUC/6g1MnV/nF0qL5jo+MxxnJbKL+BRyw+SaejdPQsmYTa2ex5Go0/ftWTATHX+GlR6N83ON9fw6Ufv2ps/WnimOa692NSoOlJ+cDUNdXeib06vx+3WN1+B7Ki9Xi//n7WTzuj6Xuplwu9/b4XeuQ5bz1q+vvBmYaqmcXQRhLrVmY+c3baeOd1ep3XthTO9+PfIrE3ZOdlyc3x8ctL63Cml44J0+iCdPZDOAKQzBOnsg3QOQDqHIB2nhxJCVbSDKmkHVdMOqqgdVFU7qLJ2UHXtoArbQVW2i6psF7ZWoyrbRVW2W6myVTK7ulr5sepSO1qs/Qoy4jWqJiNeoWoy4vWpJiPO+2oy4qyvJiPO+Woy4oyvJiPO92oy8kZWUQdUx/I2VlEHVMnyJlZRB1TL8hZWUQdUzfIGVlEHVM/y9lVRB7Uug+pZ3rsq6pSv55tgklbfts7NQ+V1xMtTUUe8PBV1xMtTUUec7hV1xOleUUec7hV1xOleUUec7hV15P2rqhCqouUdrKoQqqblPayqEKqq5V2sqhCqruV9rKoQqrLlnayqEGytRlW2vJlVFSpf2ffvXqz9dWFpm+ut/Ife/OeHARbyf93CLPqbfxV7m7cYbN5iuHmL/c1bHGze4nDzFis7+6Y8GpjfBX+YxXnIf9nCech/9MJ5yH/pxXnIfwTGech/H8Z5yH86xnnIf1XG7X/yH5xxHvLfonEeDczzgr9g4zzqbeVrf8Sx3Nu48195BFjIdwNmIbdVMAv5XsAs5LYKZiG3VTALua2CWchtFcxCbqtgFgVtFc6jgfld0FbhPOTlFucht1U4D7mtwnnIbRXOQ26rcB5yW4XzkNsq3P4nt1U4jyb28QbmeUFbhfOoN8/X/lZWubZq/mNaAAtX3D1gFnJbBbOQ2yqYhdxWwSzktgpmIbdVMAu5rYJZyG0VzKKgrcJ5NDC/C9oqnIe83OI85OUW5yG3VTgPua3CechtFc5DbqtwHnJbhdv/5LYK59HEPt7APC9oq3Ae9eb52p8kKddWzX+zBGAht1UwC7mtglnIbRXMQm6rYBZyWwWzkNsqmIXcVsEs5LYKZlHQVuE8GpjfBW0VzkNebnEe8nKL85DbKpyH3FbhPOS2Cucht1U4D7mtwu1/cluF82hiH29gnhe0VTiPevN8bfJ7ubZqHg0PsJDbKpiF3FbBLOS2CmYht1UwC7mtglnIbRXMQm6rYBZyWwWzKGircB4NzO+CtgrnIS+3OA95ucV5yG0VzkNuq3AecluF85DbKpyH3Fbh9j+5rcJ5NLGPNzDPC9oqnEe9eb42YLdcWzVP4AVYyG0VzEJuq2AWclsFs5DbKpiF3FbBLOS2CmYht1UwC7mtglkUtFU4jwbmd0FbhfOQl1uch7zc4jzktgrnIbdVOA+5rcJ5yG0VzkNuq3D7n9xW4Tya2McbmOcFbRXOo948X5tjWK6tmgcdAizktgpmIbdVMAu5rYJZyG0VzEJuq2AWclsFs5DbKpiF3FbBLAraKpxHA/O7MKIN5VGUcYXyKIq/QnkUZb6hPIri4FAeRUlxKI+iEDmUR1G+HGr/K4qeQ3k0sY83MM8Ls+xQHuvn+YcyCa+LCGd1pCb6ZpkgmwfHtpPrcSdPgF0bFbvMgU50+iKaTfykPeh1lOMMOqpv/uUOysXN3mYY9/HWvn/spXocxXfPb4NknqN8//pLhE1nAm9iX8dvZybWuPSJhuNuleO19pJZrOcYJpl5cd03HPTNYQ5zmMMc5jCHOcxhDnOYwxzmMIc5zGEOc5jDHOYwhznMYQ5zmMMc5jCHOcxhDnOYwxzmMIc5zGEOc5jDHOYwhznMYQ5zmMMc5jCHOczhP9XwXTe61nEc+Pq1Z75Y63R7lt9XNV+NTVa/Gnuq40Ani6/XtjrLLxBPwyjthsFEr/2KbPK17+mu/2Zt0s1/en4ahV4aRJMMqpWkerp7ri+iWLfKffP5Zz3WE3/1Bc0faw97HdU331zumS8ym/9phfoiNWBrpJey3bOxTk8mqbk+mcXFbDLKSds76vc1EktCfX/2+7Xf5TZHcKHa6WWQdJP8rpQzMseDk7rZ9TvxRpft/wJXVVvim6+OZ+wL3bNplARG8GX2cJlXszyMzFeo4uimGtISK5j42syHXadT8ezl8bHuiReBDk29tRfXdD5PxnE0m2pfffut+tvi8dvu2aWXLL7/bibYzsPRu6+OZhek643Hr4xHN9STcXqpvleu+qdqPQ/Dlnq2+owkDEa6vevsvO992Fk73754JVGs2h+zl9L7Tn3MbBaluvA1j/09W3Gq3yBzmDJe6L3/+KH7Sd+po6Oj+cWrp5irLm77x6ovdXmcx9r7VOfkzxXPqfp8c70Wr+7IlLUphkWl5EEO3TMvSYLxRPvHJiIieZ9fyQ/1LuXyRk9nyWW77r3Ibumz+f2sP5PC8FmZV9k1z6zrkqRx9EmX85k/t65TNPVGQXpXzmrx5NqvKrdYWtVVWS4kq8tKnelRefExx3I6ry48alc5VdWqTLfyrJ87+a5a6vmf1/UU5nj6VP362zv17ze/vVWnb96+++mXH9TPb3746Vj9ePL2pJzAq2zV1reeadFUGqkkilM1mV1ldTBSeaRJorxklDUvwWRcQnF57Y3Og53Z66jz8otLrNNZPFFTL070qzDy0rZnlvyd7FY+eOw8f6zUxVzfoj2wXbyEdcKfN5v0ct9/5tM9n+ztJ76+8GZhqqZxlK1h+klHPfnm4OD4+OTkyYaDZ4hDHOIQhzjEIQ5xiEMc4hDnz4mjktlV9p/AytfmQeV7d4Yo1j5pSEMa0pCGNKQhDWlIQxrSkKaY5ib/aNYfaM7DmSYOcYhDHOIQhzjEIQ5xiEMc4tTBuf/dQMf8buDpTPrdwL6Tv8P2/Pne3uEhSUlKUpKSlKQkJSlJSUpSkpKUpCTdDlI3J/VSibSXk/b7rnswJClJSUpSkpKUpCQlKUlJSlKSkpSk20HaN6Sv4kAgdQ9zUsfZ3+/3SUpSkpKUpCQlKUlJSlKSkpSkJCXpdpDuGdJ3lzOJ9CAnPcyOwQuSkpSkJCUpSUlKUpKSlKQkJSlJSbodpAND+i/tS6T7OenLl8fH+/skJSlJSUpSkpKUpCQlKUlJSlKSknQ7SIf5XyZmWiId5qTHx8MhSUlKUpKSlKQkJSlJSUpSkpKUpCTdFtJ9Q/o6kpIF3UFOenDguoMBSUlKUpKSlKQkJSlJSUpSkpKUpCRtjHSJ4sfeTXut2G03DdJQn156U91N9W3afvJjNIuT9Rh3X575MrjSkySIJqFOcoU1Ek+fque+rzyVK6mbIL1USXSlld9fc2ZyPe5606me+O2W8W7trDlheXS9NI3brdtWRw17FU+6y05yy5+UpHehnuPtepPRZRRn57dCfVGBdqFxEU3S3RsdjC9To3EehX55jfm9OZ3uvgwmwWR89iqMz4bq9C7Z7avs37t76nR0uftC/fhrOLpKdydRnN2G//yifjk5fmGeluor1Ve/nv5HvRmNzHOf7BTd2O+fJqM4mKb/EJ/z/VM/uP76sHiOLJZpqcA/ao1M1R9nF8oLJjo+cxy3pfLLd9Tyg2QaenfPgkmYje2eh9Ho03ctGTBTnb8Gld5Ns/PNFXz60bv25o8WnmmOay82FaqOlB9cTUPdneib0+txu/XNVyA7aq/Xy/9n7ZQzur6Xepnw+99boXeuw9azlq8vvFmYqmkcXQShbnXmI2e3rWdOt9dpXXvhTC/+PTIrU3ZOttgcH5+ctD53Sum4IJ0+SGcPpDMA6QxBOvsgnQOQziFIx+mhhFAV7aBK2kHVtIMqagdV1Q6qrB1UXTuownZQle2iKtuFrdWoynZRle1WqmyVzK6uVn6qutSOFmu/gox4jarJiFeomox4farJiPO+mow466vJiHO+mow446vJiPO9moy8kVXUAdWxvI1V1AFVsryJVdQB1bK8hVXUAVWzvIFV1AHVs7x9VdRBrcugepb3roo65ev5Jpik1betc/NQeR3x8lTUES9PRR3x8lTUEad7RR1xulfUEad7RR1xulfUEad7RR15/6oqhKpoeQerKoSqaXkPqyqEqmp5F6sqhKpreR+rKoSqbHknqyoEW6tRlS1vZlWFylf2/XsXa39bWNrmeiv/oTf/8WGAhfxftzCL/uZfxd7mLQabtxhu3mJ/8xYHm7c43LzFys6+KY8G5nfBH2ZxHvJftnAe8h+9cB7yX3pxHvIfgXEe8t+HcR7yn45xHvJflXH7n/wHZ5yH/LdonEcD87zgL9g4j3pb+dqfcCz3Nu78Nx4BFvLdgFnIbRXMQr4XMAu5rYJZyG0VzEJuq2AWclsFs5DbKphFQVuF82hgfhe0VTgPebnFechtFc5DbqtwHnJbhfOQ2yqch9xW4Tzktgq3/8ltFc6jiX28gXle0FbhPOrN87W/lFWurZr/lBbAwhV3D5iF3FbBLOS2CmYht1UwC7mtglnIbRXMQm6rYBZyWwWzKGircB4NzO+CtgrnIS+3OA95ucV5yG0VzkNuq3AecluF85DbKpyH3Fbh9j+5rcJ5NLGPNzDPC9oqnEe9eb72B0nKtVXzXywBWMhtFcxCbqtgFnJbBbOQ2yqYhdxWwSzktgpmIbdVMAu5rYJZFLRVOI8G5ndBW4XzkJdbnIe83OI85LYK5yG3VTgPua3CechtFc5Dbqtw+5/cVuE8mtjHG5jnBW0VzqPePF+b+16urZoHwwMs5LYKZiG3VTALua2CWchtFcxCbqtgFnJbBbOQ2yqYhdxWwSwK2iqcRwPzu6CtwnnIyy3OQ15ucR5yW4XzkNsqnIfcVuE85LYK5yG3Vbj9T26rcB5N7OMNzPOCtgrnUW+er43XLddWzfN3ARZyWwWzkNsqmIXcVsEs5LYKZiG3VTALua2CWchtFcxCbqtgFgVtFc6jgfld0FbhPOTlFuchL7c4D7mtwnnIbRXOQ26rcB5yW4XzkNsq3P4nt1U4jyb28QbmeUFbhfOoN8/XphiWa6vmMYcAC7mtglnIbRXMQm6rYBZyWwWzkNsqmIXcVsEs5LYKZiG3VTCLgrYK59HA/C6MaEN5FGVcoTyK4q9QHkWZbyiPojg4lEdRUhzKoyhEDuVRlC+H2v+KoudQHk3s4w3M88IsO5TH+nn+oUzC6yLAWR2pib5ZJsjmwbHt5HrcyRNg10bFLlOgE52+iGYTP2kPeh3lOIOO6pt/uYNycbO3GcZ9uLXvH3upHkfx3fPbIJmnKN+//hJR05nAm9jX8duZCTUufaLhuFvleK29ZBbrOYbJZV5c9w3HfHOYwxzmMIc5zGEOc5jDHOYwhznMYQ5zmMMc5jCHOcxhDnOYwxzmMIc5zGEOc5jDHOYwhznMYQ5zmMMc5jCHOcxhDnOYwxzmMIc5zGEOc/hPNXzXja51HAe+fu2ZL9Y63Z7l91XNV2OT1a/Gnuo40Mni67WtzvILxNMwSrthMNFrvyKbfO17uuu/WZt085+en0ahlwbRJINqJame7p7riyjWrXLffP5Zj/XEX31B88faw15H9c03l3vmi8zmf1qhvkgN2BrppWz3bKzTk0lqrk9mcTGbjHLS9o76fY3EklDfn/1+7Xe5zRFcqHZ6GSTdJL8r5YzM8eCkbnb9TrzRZfu/wFXVlvjmq+MZ+0L3bBolgRF8mT1c5tUsDyPzFao4uqmGtMQKJr4282HX6VQ8e3l8rHviRaBDU2/txTWdz5NxHM2m2lfffqv+tnj8tnt26SWL77+bCbbzcPTuq6PZBel64/Er49EN9WScXqrvlav+qVrPw7Clnq0+IwmDkW7vOjvvex921s63L15JFKv2x+yl9L5THzObRakufM1jf89WnOo3yBymjBd67z9+6H7Sd+ro6Gh+8eop5qqL2/6x6ktdHuex9j7VOflzxXOqPt9cr8WrOzJlbYphUSl5kEP3zEuSYDzR/rGJiEje51fyQ71LubzR01ly2a57L7Jb+mx+P+vPpDB8VuZVds0z67okaRx90uV85s+t6xRNvVGQ3pWzWjy59qvKLZZWdVWWC8nqslJnelRefMyxnM6rC4/aVU5VtSrTrTzr506+q5Z6/ud1PYU5nj5Vv/72Tv37zW9v1embt+9++uUH9fObH346Vj+evD0pJ/AqW7X1rWdaNJVGKoniVE1mV1kdjFQeaZIoLxllzUswGZdQXF57o/NgZ/Y66rz84hLrdBZP1NSLE/0qjLy07Zklfye7lQ8eO88fK3Ux17doD2wXL2Gd8OfNJr3c95/5dM8ne/uJry+8WZiqaRxla5h+0lFPvjk4OD4+OXmy4eAZ4hCHOMQhDnGIQxziEIc4xPlz4qhkdpX9J7DytXlQ+d6dIYq1TxrSkIY0pCENaUhDGtKQhjSkKaa5yT+a9Qea83CmiUMc4hCHOMQhDnGIQxziEIc4dXDufzfQMb8beDqTfjew7+TvsD1/vrd3eEhSkpKUpCQlKUlJSlKSkpSkJCUpSbeD1M1JvVQi7eWk/b7rHgxJSlKSkpSkJCUpSUlKUpKSlKQkJel2kPYN6as4EEjdw5zUcfb3+32SkpSkJCUpSUlKUpKSlKQkJSlJSbodpHuG9N3lTCI9yEkPs2PwgqQkJSlJSUpSkpKUpCQlKUlJSlKSbgfpwJD+S/sS6X5O+vLl8fH+PklJSlKSkpSkJCUpSUlKUpKSlKQk3Q7SYf6XiZmWSIc56fHxcEhSkpKUpCQlKUlJSlKSkpSkJCUpSbeFdN+Qvo6kZEF3kJMeHLjuYEBSkpKUpCQlKUlJSlKSkpSkJCUpSRsjXaL4sXfTXit2202DNNSnl95Ud1N9m7af/BjN4mQ9xt2XZ74MrvQkCaJJqJNcYY3E06fque8rT+VK6iZIL1USXWnl99ecmVyPu950qid+u2W8WztrTlgeXS9N43brttVRw17Fk+6yk9zyJyXpXajneLveZHQZxdn5rVBfVKBdaFxEk3T3Rgfjy9RonEehX15jfm9Op7v/X5COLvXk7FUYnw3V6V2y21fZv3f31OnocveF+vHXcHSV7movSdV/flG/nBy/MM9K9ZXqq19P/6PejEbmqU92im7s90+TURxM03+Iz/n+qR9cf31YPEcWy7RU4B+1Rqbqj7ML5QUTHZ85Tr+l8st31PKDZBp6d8+CSZiN7Z6H0ejTdy0ZMFOdvwaV3k2z880VfPrRu/bmjxaeaY5rLzYVqo6UH1xNQ92d6JvT63G79c1XIDtqr9fL/2ftlDO6vpd6mfD731uhd67D1rOWry+8WZiqaRxdBKFudeYjZ7etZ06312lde+FMt54NBt3+4YOjP+i0RmahyiSytef4+OSk9blTStbdjGx/M7J7m5EdbEZ2uBnZ/c3IHmxG9nAzsk5vQ7obmmfOhiaas6GZ5mxoqjkbmmvOhiabs6HZ5mxoujkbmm/uhuabu6l9bUPzzd3QfHNt5ptKZldXKz8JXqdziLVfQbXs9a2mWvbqVlMte22rqZZdyaqpll3HqqmWXcWqqZZdw6qpll3BqqmWbhgqym5mdpVuFyrKbmZ+lW4WKspuZoaVbhUqym5mjpVuFCrKbmaWlW4TKspuaA/bzCwr3SNUlK09y26CSWrdHpybZ5SXLXtpK8qWvbQVZcte2oqyZRewirJlF7CKsmUXsIqyZRewirJlF7CKsqX7hKq6G5pnpTuFqrobmmmle4Wquhuaa6W7haq6G5ptpfuFqrobmm+lO4aqupva1zY030o3DVV1q823D2XeuFi8L6mO1ETfLN8Yyd8PaSfX407+xsbad0CWb24mOn0RzSZ+0h70OspxBh3VN/9yB+XeRbnNMO7fs/X9Yy/V4yi+e34bJPM3B++vRYl3UDOBN7Gv47cz815d6RMNx90qx2vtJbNYzzHM242Le2D7nnD+htSq1amOA50scDOnxQ2ZhlHaNe+SrbVMvva615Mm3bzwplHopUE0yaBaSaqnu+f6Iop1q1wl/azHeuKvvqD5Y+1hVgV9UwnmTTXH/M/iLde170YvZbtnY52eTFJzfTKLi9lklJO2d9TvJd5zNYT6/uz3a+eGOYIL1U4vgySra3NeOSNzPDipm12/E2902f4vcFW1Jf7iPcaF7tk0SgIj+DJ7uMyrWR5G5itUcXRTDWmJFUx8bSburtOpePby+Fj3xItAh6be2otrOp8n4ziaTbWvvv1W/W3x+G337NJLFuuJmWA7D0fvvjqaXZCuNx6/Mh7dUE/G6aX6Xrnqn6r1PAxb6tnqM5IwGOn2rrPzvvdhZ+18++KVRLFqf8xeSu879TGzWZTqwtc89vcj5VS/QeYwZbzQe//xQ/eTzpa3o6P5xaunmKsubvvHqi91eZzH2vtU5+TPFc+p+nxzvRav7siUtSmGRaXkG2P3bP55Iu3nnyhK3udX8kO9S7m80dNZctmuey+yW/psfj/rz6QwfFbmVXbNM+u6JGkcfdLlfObPresUTb1RkN6Vs1o8ufaryi2WVnVVlgvJ6rJSZ3pUXnzMsZzOqwuP2lVOVbUq06086+dOvquWev7ndT2FOZ4+Vb/+9k79+81vb9Xpm7fvfvrlB/Xzmx9+OlY/nrw9KSfwKlu19a1nWjSVRiqJskZ6MrvK6mCk8hYxUV4yypqXYDIuobi89kbnwc7sddR5+cUl1uksnqipFyf6VRh5adszS/5OdisfPHaeP1bqYq5v0R7YLl7COuHP/4PPff7hHdvFhzvNG7D/k4+hEoc4xCEOcYhDHOIQhzjEIc7W43z5yRdDFGufNKQhDWlIQxrSkIY0pCENaUhTTPPFZwINjfmIH3GIQxziEIc4xCEOcYhDHOIQ53+YtvhOX0117KWzWKv2qx3mLT6uvMXZdBreqedBrMyN2pLMxL1tyEzcaywzMf933XAmkE4fpLMH0hmAdIYgnX2QzgFI5xCks5IpYCWEqmgHVdIOqqYdVFE7qKp2UGXtoOraQRW2g6psF1XZLmytRlW2i6pst1Jll8/yW5GqH95nISNeofrxfBYy4ryvH8BnISPO+foRexYy4ny3CNGz0QHVsbyNWeTi2eiASlnewyyi7mx0QNUsb2AW6XU26yConuXdyyKQzkYHVM/y1lU/Y25FxiJUzkZHvDwWsXE2OuJ0twiGs9ERp7tF9JuNjjjdbcLdrIRQFS3vYDZ5bVZCqKKWNzGbCDYrIVRdy/uYTaqa1cqIqmx5K7MJSrMSQlW2vJt9IXT/e0+O+b2n05n0e099p9zfG58/39s7PARYyP91C7OQ/7sXZiH/FzHMQv4rEMxC/vsQzEL+yxHMQv6bEsxC/msTzKLgT6w4jwbmd8EfZnEeDczwgj/n4jwamOMFfwTGeTQwywv+dIzzaGCeF/zBGefRxD7ewDwv+As2zqPePHdzDy+VPHrl2qp+33UPhgAL+W7ALOSbAbOQ7wXMQl5yYRbyiguzkBdcmIW83sIs5OUWZlHQVuE8GpjfBW0VzqOBGV7QVuE8GpjjBW0VzqOBWV7QVuE8GpjnBW0VzqOJfbyBeV7QVuE86s3zvvF4FQfSr5MflmurHGd/v98HWMh3A2Yh3wyYhXwvYBbykguzkFdcmIW84MIs5PUWZiEvtzCLgrYK59HA/C5oq3AeDczwgrYK59HAHC9oq3AeDczygrYK59HAPC9oq3AeTezjDczzgrYK51Fvnu8Zj3eXM8njoFxbZX5xafACYCHfDZiFfDNgFvK9gFnISy7MQl5xYRbygguzkNdbmIW83MIsCtoqnEcD87ugrcJ5NDDDC9oqnEcDc7ygrcJ5NDDLC9oqnEcD87ygrcJ5NLGPNzDPC9oqnEe9eT4wHv/SvuSxX66tevny+Hh/H2Ah3w2YhXwzYBbyvYBZyEsuzEJecWEW8oILs5DXW5iFvNzCLAraKpxHA/O7oK3CeTQwwwvaKpxHA3O8oK3CeTQwywvaKpxHA/O8oK3CeTSxjzcwzwvaKpxHvXk+zFu3mZY8huXaquPj4RBiId8NmIV8M2AW8r2AWchLLsxCXnFhFvKCC7OQ11uYhbzcwiwK2iqcRwPzu6Ctwnk0MMML2iqcRwNzvKCtwnk0MMsL2iqcRwPzvKCtwnk0sY83MM8L2iqcR715vm88XkfSx+LdQbm26uDAdQcDgEVRzg3IoigBB2RRlI0DsijKgwJZFCVFgSyKMqRAFkXpUiCLotwpkEVh2BrKo4H5XRjRhvJoYIYXBruhPBqY44VxcCiPBmZ5YYgcyqOBeV4YPYfyaGIfb2CeF2bZoTzWz/MPZRJeFzHM6khN9M0yQTYPjm0n1+NOngC7Nip2meWc6PRFNJv4SXvQ6yjHGXRU3/zLHZSLm73NMO5zqH3/2Ev1OIrvnt8GyTwJ+f71lwiMzgTexL6O385MMHHpEw3H3SrHa+0ls1jPMUy28uK6bziRm8Mc5jCHOcxhDnOYwxzmMIc5zGEOc5jDHOYwhznMYQ5zmMMc5jCHOcxhDnOYwxzmMIc5zGEOc5jDHOYwhznMYQ5zmMMc5jCHOcxhDnOYw3+q4btudK3jOPD1a898sdbp9iy/r2q+GpusfjX2VMeBThZfr211ll8gnoZR2g2DiV77Fdnka9/TXf/N2qSb//T8NAq9NIgmGVQrSfV091xfRLFulfvm8896rCf+6guaP9Ye9jqqb7653DNfZDb/0wr1RWrA1kgvZbtnY52eTFJzfTKLi9lklJO2d9TvaySWhPr+7Pdrv8ttjuBCtdPLIOkm+V0pZ2SOByd1s+t34o0u2/8Frqq2xDdfHc/YF7pn0ygJjODL7OEyr2Z5GJmvUMXRTTWkJVYw8bWZD7tOp+LZy+Nj3RMvAh2aemsvrul8nozjaDbVvvr2W/W3xeO33bNLL1l8/91MsJ2Ho3dfHc0uSNcbj18Zj26oJ+P0Un2vXPVP1Xoehi31bPUZSRiMdHvX2Xnf+7Czdr598UqiWLU/Zi+l9536mNksSnXhax77e7biVL9B5jBlvNB7//FD95O+U0dHR/OLV08xV13c9o9VX+ryOI+196nOyZ8rnlP1+eZ6LV7dkSlrUwyLSsmDHLpnXpIE44n2j01ERPI+v5If6l3K5Y2ezpLLdt17kd3SZ/P7WX8mheGzMq+ya55Z1yVJ4+iTLuczf25dp2jqjYL0rpzV4sm1X1VusbSqq7JcSFaXlTrTo/LiY47ldF5deNSucqqqVZlu5Vk/d/JdtdTzP6/rKczx9Kn69bd36t9vfnurTt+8fffTLz+on9/88NOx+vHk7Uk5gVfZqq1vPdOiqTRSSRSnajK7yupgpPJIk0R5yShrXoLJuITi8tobnQc7s9dR5+UXl1ins3iipl6c6Fdh5KVtzyz5O9mtfPDYef5YqYu5vkV7YLt4CeuEP2826eW+/8ynez7Z2098feHNwlRN4yhbw/STjnryzcHB8fHJyZMNB88QhzjEIQ5xiEMc4hCHOMQhzp8TRyWzq+w/gZWvzYPK9+4MUax90pCGNKQhDWlIQxrSkIY0pCFNMc1N/tGsP9CchzNNHOIQhzjEIQ5xiEMc4hCHOMSpg3P/u4GO+d3A05n0u4F9J3+H7fnzvb3DQ5KSlKQkJSlJSUpSkpKUpCQlKUlJuh2kbk7qpRJpLyft9133YEhSkpKUpCQlKUlJSlKSkpSkJCUpSbeDtG9IX8WBQOoe5qSOs7/f75OUpCQlKUlJSlKSkpSkJCUpSUlK0u0g3TOk7y5nEulBTnqYHYMXJCUpSUlKUpKSlKQkJSlJSUpSkpJ0O0gHhvRf2pdI93PSly+Pj/f3SUpSkpKUpCQlKUlJSlKSkpSkJCXpdpAO879MzLREOsxJj4+HQ5KSlKQkJSlJSUpSkpKUpCQlKUlJui2k+4b0dSQlC7qDnPTgwHUHA5KSlKQkJSlJSUpSkpKUpCQlKUlJ2hjpEsWPvZv2WrHbbhqkoT699Ka6m+rbtP3kx2gWJ+sx7r4882VwpSdJEE1CneQKaySePlXPfV95KldSN0F6qZLoSiu/v+bM5Hrc9aZTPfHbLePd2llzwvLoemkat1u3rY4a9iqedJed5JY/KUnvQj3H2/Umo8sozs5vhfqiAu1C4yKapLs3OhhfpkbjPAr98hrze/N/nv+f+QV+qy+1l6o3o5E6HV0+2Sm6Sd8/TUZxME3/IT7n+6d+cP31YfEcWSzTUoF/1BqZCj7OXrQXTHR85jiDlsovxVHLD5Jp6N09CyZhNrZ7HkajT9+1ZMBMdf4aVHo3zc43V+PpR+/amz9aeKY5rr3YVJs6Un5wNQ11d6JvTq/H7dY3X4HsqL1eL/+ftdPH6Ppe6mXC739vhd65DlvPWr6+8GZhqqZxdBGEutWZj5zdtp453V6nde2FM916NjzsHj44Dg47rZFZczKFbBk5Pj45aX3ulFJ1N6La34jq3kZUBxtRHW5EdX8jqgcbUT3ciKrT24zsZmaXs5np5WxmfjmbmWDOZmaYs5kp5mxmjjmbmWTOZmaZu5lZ5m5oD9vMLHM3M8tci1mmktnV1crPeNfoEGLtVxAteW2riZa8stVES17XaqIl165qoiVXrmqiJdetaqIlV61qoiXXrGqiZRuDiqobmVNl24KKqhuZVWWbgoqqG5lXZVuCiqobmVllG4KKqhuZW2XbgYqqm9mvNjK3yvYCFVXrzq2bYJLatgHn5gnlVUte1oqqJS9rRdWSl7Wiasklq6JqySWromrJJauiasklq6JqySWromrZfqCq7GZmV9mOoKrsZuZX2Z6gquxmZljZrqCq7GbmWNm+oKrsZmZZ2c6gquyG9rDNzLKyzUFV2Uqz7EOZNxwW7w2qIzXRN8s3NPL3MdrJ9biTvyGx9p2L5RuMiU5fRLOJn7QHvY5ynEFH9c2/3EG5dz9uM4z79019/9hL9TiK757fBsn8Dbr7S1HiXcxM4E3s6/jtzLxfVvpEw3G3yvFae8ks1nMM85bf4hbYvi+bv5G0anWq40AnC9zMaXFDpmGUds27W2stk6+97vWkSTevu2kUemkQTTKoVpLq6e65vohi3SpXST/rsZ74qy9o/lh7mFVB31SCeTPMMf+zeNtz7TvCS9nu2VinJ5PUXJ/M4mI2GeWk7R31e4n3PQ2hvj/7/dq5YY7gQrXTyyDJ6tqcV87IHA9O6mbX78QbXbb/C1xVbYm/eG9woXs2jZLACL7MHi7zapaHkfkKVRzdVENaYgUTX5uJu+t0Kp69PD7WPfEi0KGpt/bims7nyTiOZlPtq2+/VX9bPH7bPbv0ksV6YibYzsPRu6+OZhek643Hr4xHN9STcXqpvleu+qdqPQ/Dlnq2+owkDEa6vevsvO992Fk73754JVGs2h+zl9L7Tn3MbBaluvA1j/39SDnVb5A5TBkv9N5//ND9pLPl7ehofvHqKeaqi9v+sepLXR7nsfY+1Tn5c8Vzqj7fXK/FqzsyZW2KYVEp+cbYPZt/pkf7+ad6kvf5lfxQ71Iub/R0lly2696L7JY+m9/P+jMpDJ+VeZVd88y6LkkaR590OZ/5c+s6RVNvFKR35awWT679qnKLpVVdleVCsrqs1JkelRcfcyyn8+rCo3aVU1WtynQrz/q5k++qpZ7/eV1PYY6nT9Wvv71T/37z21t1+ubtu59++UH9/OaHn47VjydvT8oJvMpWbX3rmRZNpZFKoqyRnsyusjoYqbxFTJSXjLLmJZiMSygur73RebAzex11Xn5xiXU6iydq6sWJfhVGXtr2zJK/k93KB4+d54+VupjrW7QHtouXsE748//gs5d/eAN28QFL84bq/+SjoMQhDnGIQxziEIc4xCEOcYiz9ThffsDFEMXaJw1pSEMa0pCGNKQhDWlIQxrSFNN88ZFAQ2M+4kcc4hCHOMQhDnGIQxziEIc4xPkfJh6+01dTHXvpLNaq/WqHmYePKvPwX56puB91/n+eX50HepIqc8tM8qH2Z9n131X7vVdbEoI43IYQxGFjIYj5V0/rhjCBdPognT2QzgCkMwTp7IN0DkA6hyCdlXQBKyFURTuoknZQNe2gitpBVbWDKmsHVdcOqrAdVGW7qMp2YWs1qrJdVGW7lSq7fGjfilT9mD4LGfEK1Y/is5AR5339uD0LGXHO14/Us5AR57tFbJ6NDqiO5W3MIgzPRgdUyvIeZhFxZ6MDqmZ5A7MIrrNZB0H1LO9eFnF0Njqgepa3rvohcysyFrFyNjri5bGIjrPREae7RTycjY443S0i4Gx0xOluE/NmJYSqaHkHswlvsxJCFbW8idlEslkJoepa3sdsgtasVkZUZctbmU18mpUQqrLl3YyhaFsRisZhDnOYwxzmMIc5zGEOc5jDHOYwhznM4cc0fNeNrnUcB75+7Zk/VDndHkPxH7wShuLfHwzFr3QwFJ+h+BUOhuL/8WAo/h8PhuJXPBiKz1D8rx4MxScOcYhDHOIQhzjEIQ5xiEMc4mxDpCRpSEMa0pCGNKQhDWlIQxrSbA/NXybKkjjEIQ5xiEMc4hCHOMQhDnHq+/0PQvFfBld6kgTRJNRJwkj8xxWJH8Wf1MnFRTAK9GR0dx+E32wE/uLZfxh5+P8v/z3/v/fqi3/c/5/zyL8z//cyvQr/8f/8/9YKSoQ="
               },
               {
                  "name" : "annual_peak_electric_demand",
                  "units" : "kW",
                  "value" : 263.88226000000003
               },
               {
                  "name" : "first_year_capital_cost",
                  "units" : "$",
                  "value" : 0
               },
               {
                  "name" : "annual_utility_cost",
                  "units" : "$",
                  "value" : 0
               },
               {
                  "name" : "total_lifecycle_cost",
                  "units" : "$",
                  "value" : 0
               }
            ],
            "step_warnings" : []
         }
      }
   ],
   "updated_at" : "20170710T191940Z",
   "weather_file" : "USA_CO_Denver.Intl.AP.725650_TMY3.epw"
}
