{
   "completed_at" : "20170710T184025Z",
   "completed_status" : "Success",
   "created_at" : "2017-07-10 18:24:07 +0000",
   "current_step" : 5,
   "description" : "",
   "eplusout_err" : "Program Version,EnergyPlus, Version 8.7.0-78a111df4a, YMD=2017.07.10 18:28,IDD_Version 8.7.0\n   ************* IDF Context for following error/warning message:\n   ************* Note -- lines truncated at 300 characters, if necessary...\n   *************      5 Building,\n   ************* indicated Name=NECB 2011-HighriseApartment-NECB HDD Method-CAN_NF_Gander.718030_CWEC.epw created: 2017-07-10 18:24:21 +0000\n   ************* Only last 1 lines before error line shown.....\n   *************      6   NECB 2011-HighriseApartment-NECB HDD Method-CAN_NF_Gander.718030_CWEC.epw created: 2017-07-10 18:24:21 +0000, !- Name\n   ** Warning ** IP: IDF line~6 Alpha Argument length exceeds maximum, will be truncated=  NECB 2011-HighriseApartment-NECB HDD Method-CAN_NF_Gander.718030_CWEC.epw created: 2017-07-10 18:24:21 +000\n   **   ~~~   ** Will be processed as Alpha=NECB 2011-HIGHRISEAPARTMENT-NECB HDD METHOD-CAN_NF_GANDER.718030_CWEC.EPW CREATED: 2017-07-10 18:24:21 +0000\n   ************* Beginning Zone Sizing Calculations\n   ** Warning ** ProcessScheduleInput: Schedule:Day:Interval=\"ECONOMIZER MAX OA FRACTION 100 PCT DEFAULT\", Blank Schedule Type Limits Name input -- will not be validated.\n   ** Warning ** ProcessScheduleInput: Schedule:Day:Interval=\"SCHEDULE DAY 1\", Blank Schedule Type Limits Name input -- will not be validated.\n   ** Warning ** ProcessScheduleInput: Schedule:Day:Interval=\"SCHEDULE DAY 10\", Blank Schedule Type Limits Name input -- will not be validated.\n   ** Warning ** ProcessScheduleInput: Schedule:Day:Interval=\"SCHEDULE DAY 100\", Blank Schedule Type Limits Name input -- will not be validated.\n   ** Warning ** ProcessScheduleInput: Schedule:Day:Interval=\"SCHEDULE DAY 101\", Blank Schedule Type Limits Name input -- will not be validated.\n   ** Warning ** ProcessScheduleInput: Schedule:Day:Interval=\"SCHEDULE DAY 102\", Blank Schedule Type Limits Name input -- will not be validated.\n   ** Warning ** ProcessScheduleInput: Schedule:Day:Interval=\"SCHEDULE DAY 103\", Blank Schedule Type Limits Name input -- will not be validated.\n   ** Warning ** ProcessScheduleInput: Schedule:Day:Interval=\"SCHEDULE DAY 104\", Blank Schedule Type Limits Name input -- will not be validated.\n   ** Warning ** ProcessScheduleInput: Schedule:Day:Interval=\"SCHEDULE DAY 105\", Blank Schedule Type Limits Name input -- will not be validated.\n   ** Warning ** ProcessScheduleInput: Schedule:Day:Interval=\"SCHEDULE DAY 106\", Blank Schedule Type Limits Name input -- will not be validated.\n   ** Warning ** ProcessScheduleInput: Schedule:Day:Interval=\"SCHEDULE DAY 107\", Blank Schedule Type Limits Name input -- will not be validated.\n   ** Warning ** ProcessScheduleInput: Schedule:Day:Interval=\"SCHEDULE DAY 108\", Blank Schedule Type Limits Name input -- will not be validated.\n   ** Warning ** ProcessScheduleInput: Schedule:Day:Interval=\"SCHEDULE DAY 109\", Blank Schedule Type Limits Name input -- will not be validated.\n   ** Warning ** ProcessScheduleInput: Schedule:Day:Interval=\"SCHEDULE DAY 11\", Blank Schedule Type Limits Name input -- will not be validated.\n   ** Warning ** ProcessScheduleInput: Schedule:Day:Interval=\"SCHEDULE DAY 110\", Blank Schedule Type Limits Name input -- will not be validated.\n   ** Warning ** ProcessScheduleInput: Schedule:Day:Interval=\"SCHEDULE DAY 111\", Blank Schedule Type Limits Name input -- will not be validated.\n   ** Warning ** ProcessScheduleInput: Schedule:Day:Interval=\"SCHEDULE DAY 112\", Blank Schedule Type Limits Name input -- will not be validated.\n   ** Warning ** ProcessScheduleInput: Schedule:Day:Interval=\"SCHEDULE DAY 113\", Blank Schedule Type Limits Name input -- will not be validated.\n   ** Warning ** ProcessScheduleInput: Schedule:Day:Interval=\"SCHEDULE DAY 114\", Blank Schedule Type Limits Name input -- will not be validated.\n   ** Warning ** ProcessScheduleInput: Schedule:Day:Interval=\"SCHEDULE DAY 115\", Blank Schedule Type Limits Name input -- will not be validated.\n   ** Warning ** ProcessScheduleInput: Schedule:Day:Interval=\"SCHEDULE DAY 116\", Blank Schedule Type Limits Name input -- will not be validated.\n   ** Warning ** ProcessScheduleInput: Schedule:Day:Interval=\"SCHEDULE DAY 117\", Blank Schedule Type Limits Name input -- will not be validated.\n   ** Warning ** ProcessScheduleInput: Schedule:Day:Interval=\"SCHEDULE DAY 118\", Blank Schedule Type Limits Name input -- will not be validated.\n   ** Warning ** ProcessScheduleInput: Schedule:Day:Interval=\"SCHEDULE DAY 119\", Blank Schedule Type Limits Name input -- will not be validated.\n   ** Warning ** ProcessScheduleInput: Schedule:Day:Interval=\"SCHEDULE DAY 12\", Blank Schedule Type Limits Name input -- will not be validated.\n   ** Warning ** ProcessScheduleInput: Schedule:Day:Interval=\"SCHEDULE DAY 120\", Blank Schedule Type Limits Name input -- will not be validated.\n   ** Warning ** ProcessScheduleInput: Schedule:Day:Interval=\"SCHEDULE DAY 121\", Blank Schedule Type Limits Name input -- will not be validated.\n   ** Warning ** ProcessScheduleInput: Schedule:Day:Interval=\"SCHEDULE DAY 122\", Blank Schedule Type Limits Name input -- will not be validated.\n   ** Warning ** ProcessScheduleInput: Schedule:Day:Interval=\"SCHEDULE DAY 123\", Blank Schedule Type Limits Name input -- will not be validated.\n   ** Warning ** ProcessScheduleInput: Schedule:Day:Interval=\"SCHEDULE DAY 124\", Blank Schedule Type Limits Name input -- will not be validated.\n   ** Warning ** ProcessScheduleInput: Schedule:Day:Interval=\"SCHEDULE DAY 125\", Blank Schedule Type Limits Name input -- will not be validated.\n   ** Warning ** ProcessScheduleInput: Schedule:Day:Interval=\"SCHEDULE DAY 126\", Blank Schedule Type Limits Name input -- will not be validated.\n   ** Warning ** ProcessScheduleInput: Schedule:Day:Interval=\"SCHEDULE DAY 127\", Blank Schedule Type Limits Name input -- will not be validated.\n   ** Warning ** ProcessScheduleInput: Schedule:Day:Interval=\"SCHEDULE DAY 128\", Blank Schedule Type Limits Name input -- will not be validated.\n   ** Warning ** ProcessScheduleInput: Schedule:Day:Interval=\"SCHEDULE DAY 129\", Blank Schedule Type Limits Name input -- will not be validated.\n   ** Warning ** ProcessScheduleInput: Schedule:Day:Interval=\"SCHEDULE DAY 13\", Blank Schedule Type Limits Name input -- will not be validated.\n   ** Warning ** ProcessScheduleInput: Schedule:Day:Interval=\"SCHEDULE DAY 130\", Blank Schedule Type Limits Name input -- will not be validated.\n   ** Warning ** ProcessScheduleInput: Schedule:Day:Interval=\"SCHEDULE DAY 131\", Blank Schedule Type Limits Name input -- will not be validated.\n   ** Warning ** ProcessScheduleInput: Schedule:Day:Interval=\"SCHEDULE DAY 132\", Blank Schedule Type Limits Name input -- will not be validated.\n   ** Warning ** ProcessScheduleInput: Schedule:Day:Interval=\"SCHEDULE DAY 133\", Blank Schedule Type Limits Name input -- will not be validated.\n   ** Warning ** ProcessScheduleInput: Schedule:Day:Interval=\"SCHEDULE DAY 134\", Blank Schedule Type Limits Name input -- will not be validated.\n   ** Warning ** ProcessScheduleInput: Schedule:Day:Interval=\"SCHEDULE DAY 135\", Blank Schedule Type Limits Name input -- will not be validated.\n   ** Warning ** ProcessScheduleInput: Schedule:Day:Interval=\"SCHEDULE DAY 136\", Blank Schedule Type Limits Name input -- will not be validated.\n   ** Warning ** ProcessScheduleInput: Schedule:Day:Interval=\"SCHEDULE DAY 137\", Blank Schedule Type Limits Name input -- will not be validated.\n   ** Warning ** ProcessScheduleInput: Schedule:Day:Interval=\"SCHEDULE DAY 138\", Blank Schedule Type Limits Name input -- will not be validated.\n   ** Warning ** ProcessScheduleInput: Schedule:Day:Interval=\"SCHEDULE DAY 139\", Blank Schedule Type Limits Name input -- will not be validated.\n   ** Warning ** ProcessScheduleInput: Schedule:Day:Interval=\"SCHEDULE DAY 14\", Blank Schedule Type Limits Name input -- will not be validated.\n   ** Warning ** ProcessScheduleInput: Schedule:Day:Interval=\"SCHEDULE DAY 140\", Blank Schedule Type Limits Name input -- will not be validated.\n   ** Warning ** ProcessScheduleInput: Schedule:Day:Interval=\"SCHEDULE DAY 141\", Blank Schedule Type Limits Name input -- will not be validated.\n   ** Warning ** ProcessScheduleInput: Schedule:Day:Interval=\"SCHEDULE DAY 142\", Blank Schedule Type Limits Name input -- will not be validated.\n   ** Warning ** ProcessScheduleInput: Schedule:Day:Interval=\"SCHEDULE DAY 143\", Blank Schedule Type Limits Name input -- will not be validated.\n   ** Warning ** ProcessScheduleInput: Schedule:Day:Interval=\"SCHEDULE DAY 144\", Blank Schedule Type Limits Name input -- will not be validated.\n   ** Warning ** ProcessScheduleInput: Schedule:Day:Interval=\"SCHEDULE DAY 145\", Blank Schedule Type Limits Name input -- will not be validated.\n   ** Warning ** ProcessScheduleInput: Schedule:Day:Interval=\"SCHEDULE DAY 146\", Blank Schedule Type Limits Name input -- will not be validated.\n   ** Warning ** ProcessScheduleInput: Schedule:Day:Interval=\"SCHEDULE DAY 147\", Blank Schedule Type Limits Name input -- will not be validated.\n   ** Warning ** ProcessScheduleInput: Schedule:Day:Interval=\"SCHEDULE DAY 148\", Blank Schedule Type Limits Name input -- will not be validated.\n   ** Warning ** ProcessScheduleInput: Schedule:Day:Interval=\"SCHEDULE DAY 149\", Blank Schedule Type Limits Name input -- will not be validated.\n   ** Warning ** ProcessScheduleInput: Schedule:Day:Interval=\"SCHEDULE DAY 15\", Blank Schedule Type Limits Name input -- will not be validated.\n   ** Warning ** ProcessScheduleInput: Schedule:Day:Interval=\"SCHEDULE DAY 150\", Blank Schedule Type Limits Name input -- will not be validated.\n   ** Warning ** ProcessScheduleInput: Schedule:Day:Interval=\"SCHEDULE DAY 151\", Blank Schedule Type Limits Name input -- will not be validated.\n   ** Warning ** ProcessScheduleInput: Schedule:Day:Interval=\"SCHEDULE DAY 152\", Blank Schedule Type Limits Name input -- will not be validated.\n   ** Warning ** ProcessScheduleInput: Schedule:Day:Interval=\"SCHEDULE DAY 153\", Blank Schedule Type Limits Name input -- will not be validated.\n   ** Warning ** ProcessScheduleInput: Schedule:Day:Interval=\"SCHEDULE DAY 154\", Blank Schedule Type Limits Name input -- will not be validated.\n   ** Warning ** ProcessScheduleInput: Schedule:Day:Interval=\"SCHEDULE DAY 155\", Blank Schedule Type Limits Name input -- will not be validated.\n   ** Warning ** ProcessScheduleInput: Schedule:Day:Interval=\"SCHEDULE DAY 156\", Blank Schedule Type Limits Name input -- will not be validated.\n   ** Warning ** ProcessScheduleInput: Schedule:Day:Interval=\"SCHEDULE DAY 157\", Blank Schedule Type Limits Name input -- will not be validated.\n   ** Warning ** ProcessScheduleInput: Schedule:Day:Interval=\"SCHEDULE DAY 158\", Blank Schedule Type Limits Name input -- will not be validated.\n   ** Warning ** ProcessScheduleInput: Schedule:Day:Interval=\"SCHEDULE DAY 159\", Blank Schedule Type Limits Name input -- will not be validated.\n   ** Warning ** ProcessScheduleInput: Schedule:Day:Interval=\"SCHEDULE DAY 16\", Blank Schedule Type Limits Name input -- will not be validated.\n   ** Warning ** ProcessScheduleInput: Schedule:Day:Interval=\"SCHEDULE DAY 160\", Blank Schedule Type Limits Name input -- will not be validated.\n   ** Warning ** ProcessScheduleInput: Schedule:Day:Interval=\"SCHEDULE DAY 161\", Blank Schedule Type Limits Name input -- will not be validated.\n   ** Warning ** ProcessScheduleInput: Schedule:Day:Interval=\"SCHEDULE DAY 162\", Blank Schedule Type Limits Name input -- will not be validated.\n   ** Warning ** ProcessScheduleInput: Schedule:Day:Interval=\"SCHEDULE DAY 163\", Blank Schedule Type Limits Name input -- will not be validated.\n   ** Warning ** ProcessScheduleInput: Schedule:Day:Interval=\"SCHEDULE DAY 164\", Blank Schedule Type Limits Name input -- will not be validated.\n   ** Warning ** ProcessScheduleInput: Schedule:Day:Interval=\"SCHEDULE DAY 165\", Blank Schedule Type Limits Name input -- will not be validated.\n   ** Warning ** ProcessScheduleInput: Schedule:Day:Interval=\"SCHEDULE DAY 166\", Blank Schedule Type Limits Name input -- will not be validated.\n   ** Warning ** ProcessScheduleInput: Schedule:Day:Interval=\"SCHEDULE DAY 167\", Blank Schedule Type Limits Name input -- will not be validated.\n   ** Warning ** ProcessScheduleInput: Schedule:Day:Interval=\"SCHEDULE DAY 168\", Blank Schedule Type Limits Name input -- will not be validated.\n   ** Warning ** ProcessScheduleInput: Schedule:Day:Interval=\"SCHEDULE DAY 169\", Blank Schedule Type Limits Name input -- will not be validated.\n   ** Warning ** ProcessScheduleInput: Schedule:Day:Interval=\"SCHEDULE DAY 17\", Blank Schedule Type Limits Name input -- will not be validated.\n   ** Warning ** ProcessScheduleInput: Schedule:Day:Interval=\"SCHEDULE DAY 170\", Blank Schedule Type Limits Name input -- will not be validated.\n   ** Warning ** ProcessScheduleInput: Schedule:Day:Interval=\"SCHEDULE DAY 171\", Blank Schedule Type Limits Name input -- will not be validated.\n   ** Warning ** ProcessScheduleInput: Schedule:Day:Interval=\"SCHEDULE DAY 172\", Blank Schedule Type Limits Name input -- will not be validated.\n   ** Warning ** ProcessScheduleInput: Schedule:Day:Interval=\"SCHEDULE DAY 173\", Blank Schedule Type Limits Name input -- will not be validated.\n   ** Warning ** ProcessScheduleInput: Schedule:Day:Interval=\"SCHEDULE DAY 174\", Blank Schedule Type Limits Name input -- will not be validated.\n   ** Warning ** ProcessScheduleInput: Schedule:Day:Interval=\"SCHEDULE DAY 175\", Blank Schedule Type Limits Name input -- will not be validated.\n   ** Warning ** ProcessScheduleInput: Schedule:Day:Interval=\"SCHEDULE DAY 176\", Blank Schedule Type Limits Name input -- will not be validated.\n   ** Warning ** ProcessScheduleInput: Schedule:Day:Interval=\"SCHEDULE DAY 177\", Blank Schedule Type Limits Name input -- will not be validated.\n   ** Warning ** ProcessScheduleInput: Schedule:Day:Interval=\"SCHEDULE DAY 178\", Blank Schedule Type Limits Name input -- will not be validated.\n   ** Warning ** ProcessScheduleInput: Schedule:Day:Interval=\"SCHEDULE DAY 179\", Blank Schedule Type Limits Name input -- will not be validated.\n   ** Warning ** ProcessScheduleInput: Schedule:Day:Interval=\"SCHEDULE DAY 18\", Blank Schedule Type Limits Name input -- will not be validated.\n   ** Warning ** ProcessScheduleInput: Schedule:Day:Interval=\"SCHEDULE DAY 180\", Blank Schedule Type Limits Name input -- will not be validated.\n   ** Warning ** ProcessScheduleInput: Schedule:Day:Interval=\"SCHEDULE DAY 181\", Blank Schedule Type Limits Name input -- will not be validated.\n   ** Warning ** ProcessScheduleInput: Schedule:Day:Interval=\"SCHEDULE DAY 182\", Blank Schedule Type Limits Name input -- will not be validated.\n   ** Warning ** ProcessScheduleInput: Schedule:Day:Interval=\"SCHEDULE DAY 183\", Blank Schedule Type Limits Name input -- will not be validated.\n   ** Warning ** ProcessScheduleInput: Schedule:Day:Interval=\"SCHEDULE DAY 184\", Blank Schedule Type Limits Name input -- will not be validated.\n   ** Warning ** ProcessScheduleInput: Schedule:Day:Interval=\"SCHEDULE DAY 185\", Blank Schedule Type Limits Name input -- will not be validated.\n   ** Warning ** ProcessScheduleInput: Schedule:Day:Interval=\"SCHEDULE DAY 186\", Blank Schedule Type Limits Name input -- will not be validated.\n   ** Warning ** ProcessScheduleInput: Schedule:Day:Interval=\"SCHEDULE DAY 187\", Blank Schedule Type Limits Name input -- will not be validated.\n   ** Warning ** ProcessScheduleInput: Schedule:Day:Interval=\"SCHEDULE DAY 188\", Blank Schedule Type Limits Name input -- will not be validated.\n   ** Warning ** ProcessScheduleInput: Schedule:Day:Interval=\"SCHEDULE DAY 189\", Blank Schedule Type Limits Name input -- will not be validated.\n   ** Warning ** ProcessScheduleInput: Schedule:Day:Interval=\"SCHEDULE DAY 19\", Blank Schedule Type Limits Name input -- will not be validated.\n   ** Warning ** ProcessScheduleInput: Schedule:Day:Interval=\"SCHEDULE DAY 190\", Blank Schedule Type Limits Name input -- will not be validated.\n   ** Warning ** ProcessScheduleInput: Schedule:Day:Interval=\"SCHEDULE DAY 191\", Blank Schedule Type Limits Name input -- will not be validated.\n   ** Warning ** ProcessScheduleInput: Schedule:Day:Interval=\"SCHEDULE DAY 192\", Blank Schedule Type Limits Name input -- will not be validated.\n   ** Warning ** ProcessScheduleInput: Schedule:Day:Interval=\"SCHEDULE DAY 193\", Blank Schedule Type Limits Name input -- will not be validated.\n   ** Warning ** ProcessScheduleInput: Schedule:Day:Interval=\"SCHEDULE DAY 194\", Blank Schedule Type Limits Name input -- will not be validated.\n   ** Warning ** ProcessScheduleInput: Schedule:Day:Interval=\"SCHEDULE DAY 195\", Blank Schedule Type Limits Name input -- will not be validated.\n   ** Warning ** ProcessScheduleInput: Schedule:Day:Interval=\"SCHEDULE DAY 196\", Blank Schedule Type Limits Name input -- will not be validated.\n   ** Warning ** ProcessScheduleInput: Schedule:Day:Interval=\"SCHEDULE DAY 197\", Blank Schedule Type Limits Name input -- will not be validated.\n   ** Warning ** ProcessScheduleInput: Schedule:Day:Interval=\"SCHEDULE DAY 198\", Blank Schedule Type Limits Name input -- will not be validated.\n   ** Warning ** ProcessScheduleInput: Schedule:Day:Interval=\"SCHEDULE DAY 199\", Blank Schedule Type Limits Name input -- will not be validated.\n   ** Warning ** ProcessScheduleInput: Schedule:Day:Interval=\"SCHEDULE DAY 2\", Blank Schedule Type Limits Name input -- will not be validated.\n   ** Warning ** ProcessScheduleInput: Schedule:Day:Interval=\"SCHEDULE DAY 20\", Blank Schedule Type Limits Name input -- will not be validated.\n   ** Warning ** ProcessScheduleInput: Schedule:Day:Interval=\"SCHEDULE DAY 200\", Blank Schedule Type Limits Name input -- will not be validated.\n   ** Warning ** ProcessScheduleInput: Schedule:Day:Interval=\"SCHEDULE DAY 201\", Blank Schedule Type Limits Name input -- will not be validated.\n   ** Warning ** ProcessScheduleInput: Schedule:Day:Interval=\"SCHEDULE DAY 202\", Blank Schedule Type Limits Name input -- will not be validated.\n   ** Warning ** ProcessScheduleInput: Schedule:Day:Interval=\"SCHEDULE DAY 203\", Blank Schedule Type Limits Name input -- will not be validated.\n   ** Warning ** ProcessScheduleInput: Schedule:Day:Interval=\"SCHEDULE DAY 204\", Blank Schedule Type Limits Name input -- will not be validated.\n   ** Warning ** ProcessScheduleInput: Schedule:Day:Interval=\"SCHEDULE DAY 205\", Blank Schedule Type Limits Name input -- will not be validated.\n   ** Warning ** ProcessScheduleInput: Schedule:Day:Interval=\"SCHEDULE DAY 206\", Blank Schedule Type Limits Name input -- will not be validated.\n   ** Warning ** ProcessScheduleInput: Schedule:Day:Interval=\"SCHEDULE DAY 207\", Blank Schedule Type Limits Name input -- will not be validated.\n   ** Warning ** ProcessScheduleInput: Schedule:Day:Interval=\"SCHEDULE DAY 208\", Blank Schedule Type Limits Name input -- will not be validated.\n   ** Warning ** ProcessScheduleInput: Schedule:Day:Interval=\"SCHEDULE DAY 209\", Blank Schedule Type Limits Name input -- will not be validated.\n   ** Warning ** ProcessScheduleInput: Schedule:Day:Interval=\"SCHEDULE DAY 21\", Blank Schedule Type Limits Name input -- will not be validated.\n   ** Warning ** ProcessScheduleInput: Schedule:Day:Interval=\"SCHEDULE DAY 210\", Blank Schedule Type Limits Name input -- will not be validated.\n   ** Warning ** ProcessScheduleInput: Schedule:Day:Interval=\"SCHEDULE DAY 211\", Blank Schedule Type Limits Name input -- will not be validated.\n   ** Warning ** ProcessScheduleInput: Schedule:Day:Interval=\"SCHEDULE DAY 212\", Blank Schedule Type Limits Name input -- will not be validated.\n   ** Warning ** ProcessScheduleInput: Schedule:Day:Interval=\"SCHEDULE DAY 213\", Blank Schedule Type Limits Name input -- will not be validated.\n   ** Warning ** ProcessScheduleInput: Schedule:Day:Interval=\"SCHEDULE DAY 214\", Blank Schedule Type Limits Name input -- will not be validated.\n   ** Warning ** ProcessScheduleInput: Schedule:Day:Interval=\"SCHEDULE DAY 215\", Blank Schedule Type Limits Name input -- will not be validated.\n   ** Warning ** ProcessScheduleInput: Schedule:Day:Interval=\"SCHEDULE DAY 216\", Blank Schedule Type Limits Name input -- will not be validated.\n   ** Warning ** ProcessScheduleInput: Schedule:Day:Interval=\"SCHEDULE DAY 217\", Blank Schedule Type Limits Name input -- will not be validated.\n   ** Warning ** ProcessScheduleInput: Schedule:Day:Interval=\"SCHEDULE DAY 218\", Blank Schedule Type Limits Name input -- will not be validated.\n   ** Warning ** ProcessScheduleInput: Schedule:Day:Interval=\"SCHEDULE DAY 219\", Blank Schedule Type Limits Name input -- will not be validated.\n   ** Warning ** ProcessScheduleInput: Schedule:Day:Interval=\"SCHEDULE DAY 22\", Blank Schedule Type Limits Name input -- will not be validated.\n   ** Warning ** ProcessScheduleInput: Schedule:Day:Interval=\"SCHEDULE DAY 220\", Blank Schedule Type Limits Name input -- will not be validated.\n   ** Warning ** ProcessScheduleInput: Schedule:Day:Interval=\"SCHEDULE DAY 221\", Blank Schedule Type Limits Name input -- will not be validated.\n   ** Warning ** ProcessScheduleInput: Schedule:Day:Interval=\"SCHEDULE DAY 222\", Blank Schedule Type Limits Name input -- will not be validated.\n   ** Warning ** ProcessScheduleInput: Schedule:Day:Interval=\"SCHEDULE DAY 223\", Blank Schedule Type Limits Name input -- will not be validated.\n   ** Warning ** ProcessScheduleInput: Schedule:Day:Interval=\"SCHEDULE DAY 224\", Blank Schedule Type Limits Name input -- will not be validated.\n   ** Warning ** ProcessScheduleInput: Schedule:Day:Interval=\"SCHEDULE DAY 225\", Blank Schedule Type Limits Name input -- will not be validated.\n   ** Warning ** ProcessScheduleInput: Schedule:Day:Interval=\"SCHEDULE DAY 226\", Blank Schedule Type Limits Name input -- will not be validated.\n   ** Warning ** ProcessScheduleInput: Schedule:Day:Interval=\"SCHEDULE DAY 227\", Blank Schedule Type Limits Name input -- will not be validated.\n   ** Warning ** ProcessScheduleInput: Schedule:Day:Interval=\"SCHEDULE DAY 228\", Blank Schedule Type Limits Name input -- will not be validated.\n   ** Warning ** ProcessScheduleInput: Schedule:Day:Interval=\"SCHEDULE DAY 229\", Blank Schedule Type Limits Name input -- will not be validated.\n   ** Warning ** ProcessScheduleInput: Schedule:Day:Interval=\"SCHEDULE DAY 23\", Blank Schedule Type Limits Name input -- will not be validated.\n   ** Warning ** ProcessScheduleInput: Schedule:Day:Interval=\"SCHEDULE DAY 230\", Blank Schedule Type Limits Name input -- will not be validated.\n   ** Warning ** ProcessScheduleInput: Schedule:Day:Interval=\"SCHEDULE DAY 231\", Blank Schedule Type Limits Name input -- will not be validated.\n   ** Warning ** ProcessScheduleInput: Schedule:Day:Interval=\"SCHEDULE DAY 232\", Blank Schedule Type Limits Name input -- will not be validated.\n   ** Warning ** ProcessScheduleInput: Schedule:Day:Interval=\"SCHEDULE DAY 233\", Blank Schedule Type Limits Name input -- will not be validated.\n   ** Warning ** ProcessScheduleInput: Schedule:Day:Interval=\"SCHEDULE DAY 234\", Blank Schedule Type Limits Name input -- will not be validated.\n   ** Warning ** ProcessScheduleInput: Schedule:Day:Interval=\"SCHEDULE DAY 235\", Blank Schedule Type Limits Name input -- will not be validated.\n   ** Warning ** ProcessScheduleInput: Schedule:Day:Interval=\"SCHEDULE DAY 236\", Blank Schedule Type Limits Name input -- will not be validated.\n   ** Warning ** ProcessScheduleInput: Schedule:Day:Interval=\"SCHEDULE DAY 237\", Blank Schedule Type Limits Name input -- will not be validated.\n   ** Warning ** ProcessScheduleInput: Schedule:Day:Interval=\"SCHEDULE DAY 238\", Blank Schedule Type Limits Name input -- will not be validated.\n   ** Warning ** ProcessScheduleInput: Schedule:Day:Interval=\"SCHEDULE DAY 239\", Blank Schedule Type Limits Name input -- will not be validated.\n   ** Warning ** ProcessScheduleInput: Schedule:Day:Interval=\"SCHEDULE DAY 24\", Blank Schedule Type Limits Name input -- will not be validated.\n   ** Warning ** ProcessScheduleInput: Schedule:Day:Interval=\"SCHEDULE DAY 240\", Blank Schedule Type Limits Name input -- will not be validated.\n   ** Warning ** ProcessScheduleInput: Schedule:Day:Interval=\"SCHEDULE DAY 241\", Blank Schedule Type Limits Name input -- will not be validated.\n   ** Warning ** ProcessScheduleInput: Schedule:Day:Interval=\"SCHEDULE DAY 242\", Blank Schedule Type Limits Name input -- will not be validated.\n   ** Warning ** ProcessScheduleInput: Schedule:Day:Interval=\"SCHEDULE DAY 243\", Blank Schedule Type Limits Name input -- will not be validated.\n   ** Warning ** ProcessScheduleInput: Schedule:Day:Interval=\"SCHEDULE DAY 244\", Blank Schedule Type Limits Name input -- will not be validated.\n   ** Warning ** ProcessScheduleInput: Schedule:Day:Interval=\"SCHEDULE DAY 245\", Blank Schedule Type Limits Name input -- will not be validated.\n   ** Warning ** ProcessScheduleInput: Schedule:Day:Interval=\"SCHEDULE DAY 246\", Blank Schedule Type Limits Name input -- will not be validated.\n   ** Warning ** ProcessScheduleInput: Schedule:Day:Interval=\"SCHEDULE DAY 247\", Blank Schedule Type Limits Name input -- will not be validated.\n   ** Warning ** ProcessScheduleInput: Schedule:Day:Interval=\"SCHEDULE DAY 248\", Blank Schedule Type Limits Name input -- will not be validated.\n   ** Warning ** ProcessScheduleInput: Schedule:Day:Interval=\"SCHEDULE DAY 249\", Blank Schedule Type Limits Name input -- will not be validated.\n   ** Warning ** ProcessScheduleInput: Schedule:Day:Interval=\"SCHEDULE DAY 25\", Blank Schedule Type Limits Name input -- will not be validated.\n   ** Warning ** ProcessScheduleInput: Schedule:Day:Interval=\"SCHEDULE DAY 250\", Blank Schedule Type Limits Name input -- will not be validated.\n   ** Warning ** ProcessScheduleInput: Schedule:Day:Interval=\"SCHEDULE DAY 251\", Blank Schedule Type Limits Name input -- will not be validated.\n   ** Warning ** ProcessScheduleInput: Schedule:Day:Interval=\"SCHEDULE DAY 26\", Blank Schedule Type Limits Name input -- will not be validated.\n   ** Warning ** ProcessScheduleInput: Schedule:Day:Interval=\"SCHEDULE DAY 27\", Blank Schedule Type Limits Name input -- will not be validated.\n   ** Warning ** ProcessScheduleInput: Schedule:Day:Interval=\"SCHEDULE DAY 28\", Blank Schedule Type Limits Name input -- will not be validated.\n   ** Warning ** ProcessScheduleInput: Schedule:Day:Interval=\"SCHEDULE DAY 29\", Blank Schedule Type Limits Name input -- will not be validated.\n   ** Warning ** ProcessScheduleInput: Schedule:Day:Interval=\"SCHEDULE DAY 30\", Blank Schedule Type Limits Name input -- will not be validated.\n   ** Warning ** ProcessScheduleInput: Schedule:Day:Interval=\"SCHEDULE DAY 31\", Blank Schedule Type Limits Name input -- will not be validated.\n   ** Warning ** ProcessScheduleInput: Schedule:Day:Interval=\"SCHEDULE DAY 32\", Blank Schedule Type Limits Name input -- will not be validated.\n   ** Warning ** ProcessScheduleInput: Schedule:Day:Interval=\"SCHEDULE DAY 33\", Blank Schedule Type Limits Name input -- will not be validated.\n   ** Warning ** ProcessScheduleInput: Schedule:Day:Interval=\"SCHEDULE DAY 34\", Blank Schedule Type Limits Name input -- will not be validated.\n   ** Warning ** ProcessScheduleInput: Schedule:Day:Interval=\"SCHEDULE DAY 35\", Blank Schedule Type Limits Name input -- will not be validated.\n   ** Warning ** ProcessScheduleInput: Schedule:Day:Interval=\"SCHEDULE DAY 36\", Blank Schedule Type Limits Name input -- will not be validated.\n   ** Warning ** ProcessScheduleInput: Schedule:Day:Interval=\"SCHEDULE DAY 37\", Blank Schedule Type Limits Name input -- will not be validated.\n   ** Warning ** ProcessScheduleInput: Schedule:Day:Interval=\"SCHEDULE DAY 38\", Blank Schedule Type Limits Name input -- will not be validated.\n   ** Warning ** ProcessScheduleInput: Schedule:Day:Interval=\"SCHEDULE DAY 39\", Blank Schedule Type Limits Name input -- will not be validated.\n   ** Warning ** ProcessScheduleInput: Schedule:Day:Interval=\"SCHEDULE DAY 40\", Blank Schedule Type Limits Name input -- will not be validated.\n   ** Warning ** ProcessScheduleInput: Schedule:Day:Interval=\"SCHEDULE DAY 41\", Blank Schedule Type Limits Name input -- will not be validated.\n   ** Warning ** ProcessScheduleInput: Schedule:Day:Interval=\"SCHEDULE DAY 42\", Blank Schedule Type Limits Name input -- will not be validated.\n   ** Warning ** ProcessScheduleInput: Schedule:Day:Interval=\"SCHEDULE DAY 43\", Blank Schedule Type Limits Name input -- will not be validated.\n   ** Warning ** ProcessScheduleInput: Schedule:Day:Interval=\"SCHEDULE DAY 44\", Blank Schedule Type Limits Name input -- will not be validated.\n   ** Warning ** ProcessScheduleInput: Schedule:Day:Interval=\"SCHEDULE DAY 45\", Blank Schedule Type Limits Name input -- will not be validated.\n   ** Warning ** ProcessScheduleInput: Schedule:Day:Interval=\"SCHEDULE DAY 46\", Blank Schedule Type Limits Name input -- will not be validated.\n   ** Warning ** ProcessScheduleInput: Schedule:Day:Interval=\"SCHEDULE DAY 47\", Blank Schedule Type Limits Name input -- will not be validated.\n   ** Warning ** ProcessScheduleInput: Schedule:Day:Interval=\"SCHEDULE DAY 48\", Blank Schedule Type Limits Name input -- will not be validated.\n   ** Warning ** ProcessScheduleInput: Schedule:Day:Interval=\"SCHEDULE DAY 49\", Blank Schedule Type Limits Name input -- will not be validated.\n   ** Warning ** ProcessScheduleInput: Schedule:Day:Interval=\"SCHEDULE DAY 50\", Blank Schedule Type Limits Name input -- will not be validated.\n   ** Warning ** ProcessScheduleInput: Schedule:Day:Interval=\"SCHEDULE DAY 51\", Blank Schedule Type Limits Name input -- will not be validated.\n   ** Warning ** ProcessScheduleInput: Schedule:Day:Interval=\"SCHEDULE DAY 52\", Blank Schedule Type Limits Name input -- will not be validated.\n   ** Warning ** ProcessScheduleInput: Schedule:Day:Interval=\"SCHEDULE DAY 53\", Blank Schedule Type Limits Name input -- will not be validated.\n   ** Warning ** ProcessScheduleInput: Schedule:Day:Interval=\"SCHEDULE DAY 54\", Blank Schedule Type Limits Name input -- will not be validated.\n   ** Warning ** ProcessScheduleInput: Schedule:Day:Interval=\"SCHEDULE DAY 55\", Blank Schedule Type Limits Name input -- will not be validated.\n   ** Warning ** ProcessScheduleInput: Schedule:Day:Interval=\"SCHEDULE DAY 56\", Blank Schedule Type Limits Name input -- will not be validated.\n   ** Warning ** ProcessScheduleInput: Schedule:Day:Interval=\"SCHEDULE DAY 57\", Blank Schedule Type Limits Name input -- will not be validated.\n   ** Warning ** ProcessScheduleInput: Schedule:Day:Interval=\"SCHEDULE DAY 58\", Blank Schedule Type Limits Name input -- will not be validated.\n   ** Warning ** ProcessScheduleInput: Schedule:Day:Interval=\"SCHEDULE DAY 59\", Blank Schedule Type Limits Name input -- will not be validated.\n   ** Warning ** ProcessScheduleInput: Schedule:Day:Interval=\"SCHEDULE DAY 60\", Blank Schedule Type Limits Name input -- will not be validated.\n   ** Warning ** ProcessScheduleInput: Schedule:Day:Interval=\"SCHEDULE DAY 61\", Blank Schedule Type Limits Name input -- will not be validated.\n   ** Warning ** ProcessScheduleInput: Schedule:Day:Interval=\"SCHEDULE DAY 62\", Blank Schedule Type Limits Name input -- will not be validated.\n   ** Warning ** ProcessScheduleInput: Schedule:Day:Interval=\"SCHEDULE DAY 63\", Blank Schedule Type Limits Name input -- will not be validated.\n   ** Warning ** ProcessScheduleInput: Schedule:Day:Interval=\"SCHEDULE DAY 64\", Blank Schedule Type Limits Name input -- will not be validated.\n   ** Warning ** ProcessScheduleInput: Schedule:Day:Interval=\"SCHEDULE DAY 65\", Blank Schedule Type Limits Name input -- will not be validated.\n   ** Warning ** ProcessScheduleInput: Schedule:Day:Interval=\"SCHEDULE DAY 66\", Blank Schedule Type Limits Name input -- will not be validated.\n   ** Warning ** ProcessScheduleInput: Schedule:Day:Interval=\"SCHEDULE DAY 67\", Blank Schedule Type Limits Name input -- will not be validated.\n   ** Warning ** ProcessScheduleInput: Schedule:Day:Interval=\"SCHEDULE DAY 68\", Blank Schedule Type Limits Name input -- will not be validated.\n   ** Warning ** ProcessScheduleInput: Schedule:Day:Interval=\"SCHEDULE DAY 69\", Blank Schedule Type Limits Name input -- will not be validated.\n   ** Warning ** ProcessScheduleInput: Schedule:Day:Interval=\"SCHEDULE DAY 70\", Blank Schedule Type Limits Name input -- will not be validated.\n   ** Warning ** ProcessScheduleInput: Schedule:Day:Interval=\"SCHEDULE DAY 71\", Blank Schedule Type Limits Name input -- will not be validated.\n   ** Warning ** ProcessScheduleInput: Schedule:Day:Interval=\"SCHEDULE DAY 72\", Blank Schedule Type Limits Name input -- will not be validated.\n   ** Warning ** ProcessScheduleInput: Schedule:Day:Interval=\"SCHEDULE DAY 73\", Blank Schedule Type Limits Name input -- will not be validated.\n   ** Warning ** ProcessScheduleInput: Schedule:Day:Interval=\"SCHEDULE DAY 74\", Blank Schedule Type Limits Name input -- will not be validated.\n   ** Warning ** ProcessScheduleInput: Schedule:Day:Interval=\"SCHEDULE DAY 75\", Blank Schedule Type Limits Name input -- will not be validated.\n   ** Warning ** ProcessScheduleInput: Schedule:Day:Interval=\"SCHEDULE DAY 76\", Blank Schedule Type Limits Name input -- will not be validated.\n   ** Warning ** ProcessScheduleInput: Schedule:Day:Interval=\"SCHEDULE DAY 77\", Blank Schedule Type Limits Name input -- will not be validated.\n   ** Warning ** ProcessScheduleInput: Schedule:Day:Interval=\"SCHEDULE DAY 78\", Blank Schedule Type Limits Name input -- will not be validated.\n   ** Warning ** ProcessScheduleInput: Schedule:Day:Interval=\"SCHEDULE DAY 79\", Blank Schedule Type Limits Name input -- will not be validated.\n   ** Warning ** ProcessScheduleInput: Schedule:Day:Interval=\"SCHEDULE DAY 8\", Blank Schedule Type Limits Name input -- will not be validated.\n   ** Warning ** ProcessScheduleInput: Schedule:Day:Interval=\"SCHEDULE DAY 80\", Blank Schedule Type Limits Name input -- will not be validated.\n   ** Warning ** ProcessScheduleInput: Schedule:Day:Interval=\"SCHEDULE DAY 81\", Blank Schedule Type Limits Name input -- will not be validated.\n   ** Warning ** ProcessScheduleInput: Schedule:Day:Interval=\"SCHEDULE DAY 82\", Blank Schedule Type Limits Name input -- will not be validated.\n   ** Warning ** ProcessScheduleInput: Schedule:Day:Interval=\"SCHEDULE DAY 83\", Blank Schedule Type Limits Name input -- will not be validated.\n   ** Warning ** ProcessScheduleInput: Schedule:Day:Interval=\"SCHEDULE DAY 84\", Blank Schedule Type Limits Name input -- will not be validated.\n   ** Warning ** ProcessScheduleInput: Schedule:Day:Interval=\"SCHEDULE DAY 85\", Blank Schedule Type Limits Name input -- will not be validated.\n   ** Warning ** ProcessScheduleInput: Schedule:Day:Interval=\"SCHEDULE DAY 86\", Blank Schedule Type Limits Name input -- will not be validated.\n   ** Warning ** ProcessScheduleInput: Schedule:Day:Interval=\"SCHEDULE DAY 87\", Blank Schedule Type Limits Name input -- will not be validated.\n   ** Warning ** ProcessScheduleInput: Schedule:Day:Interval=\"SCHEDULE DAY 88\", Blank Schedule Type Limits Name input -- will not be validated.\n   ** Warning ** ProcessScheduleInput: Schedule:Day:Interval=\"SCHEDULE DAY 89\", Blank Schedule Type Limits Name input -- will not be validated.\n   ** Warning ** ProcessScheduleInput: Schedule:Day:Interval=\"SCHEDULE DAY 9\", Blank Schedule Type Limits Name input -- will not be validated.\n   ** Warning ** ProcessScheduleInput: Schedule:Day:Interval=\"SCHEDULE DAY 90\", Blank Schedule Type Limits Name input -- will not be validated.\n   ** Warning ** ProcessScheduleInput: Schedule:Day:Interval=\"SCHEDULE DAY 91\", Blank Schedule Type Limits Name input -- will not be validated.\n   ** Warning ** ProcessScheduleInput: Schedule:Day:Interval=\"SCHEDULE DAY 92\", Blank Schedule Type Limits Name input -- will not be validated.\n   ** Warning ** ProcessScheduleInput: Schedule:Day:Interval=\"SCHEDULE DAY 93\", Blank Schedule Type Limits Name input -- will not be validated.\n   ** Warning ** ProcessScheduleInput: Schedule:Day:Interval=\"SCHEDULE DAY 94\", Blank Schedule Type Limits Name input -- will not be validated.\n   ** Warning ** ProcessScheduleInput: Schedule:Day:Interval=\"SCHEDULE DAY 95\", Blank Schedule Type Limits Name input -- will not be validated.\n   ** Warning ** ProcessScheduleInput: Schedule:Day:Interval=\"SCHEDULE DAY 96\", Blank Schedule Type Limits Name input -- will not be validated.\n   ** Warning ** ProcessScheduleInput: Schedule:Day:Interval=\"SCHEDULE DAY 97\", Blank Schedule Type Limits Name input -- will not be validated.\n   ** Warning ** ProcessScheduleInput: Schedule:Day:Interval=\"SCHEDULE DAY 98\", Blank Schedule Type Limits Name input -- will not be validated.\n   ** Warning ** ProcessScheduleInput: Schedule:Day:Interval=\"SCHEDULE DAY 99\", Blank Schedule Type Limits Name input -- will not be validated.\n   ** Warning ** ProcessScheduleInput: Schedule:Year=\"ECONOMIZER MAX OA FRACTION 100 PCT\", Blank Schedule Type Limits Name input -- will not be validated.\n   ** Warning ** ProcessScheduleInput: Schedule:Year=\"SCHEDULE RULESET 10\", Blank Schedule Type Limits Name input -- will not be validated.\n   ** Warning ** ProcessScheduleInput: Schedule:Year=\"SCHEDULE RULESET 100\", Blank Schedule Type Limits Name input -- will not be validated.\n   ** Warning ** ProcessScheduleInput: Schedule:Year=\"SCHEDULE RULESET 101\", Blank Schedule Type Limits Name input -- will not be validated.\n   ** Warning ** ProcessScheduleInput: Schedule:Year=\"SCHEDULE RULESET 102\", Blank Schedule Type Limits Name input -- will not be validated.\n   ** Warning ** ProcessScheduleInput: Schedule:Year=\"SCHEDULE RULESET 103\", Blank Schedule Type Limits Name input -- will not be validated.\n   ** Warning ** ProcessScheduleInput: Schedule:Year=\"SCHEDULE RULESET 104\", Blank Schedule Type Limits Name input -- will not be validated.\n   ** Warning ** ProcessScheduleInput: Schedule:Year=\"SCHEDULE RULESET 105\", Blank Schedule Type Limits Name input -- will not be validated.\n   ** Warning ** ProcessScheduleInput: Schedule:Year=\"SCHEDULE RULESET 106\", Blank Schedule Type Limits Name input -- will not be validated.\n   ** Warning ** ProcessScheduleInput: Schedule:Year=\"SCHEDULE RULESET 107\", Blank Schedule Type Limits Name input -- will not be validated.\n   ** Warning ** ProcessScheduleInput: Schedule:Year=\"SCHEDULE RULESET 108\", Blank Schedule Type Limits Name input -- will not be validated.\n   ** Warning ** ProcessScheduleInput: Schedule:Year=\"SCHEDULE RULESET 109\", Blank Schedule Type Limits Name input -- will not be validated.\n   ** Warning ** ProcessScheduleInput: Schedule:Year=\"SCHEDULE RULESET 11\", Blank Schedule Type Limits Name input -- will not be validated.\n   ** Warning ** ProcessScheduleInput: Schedule:Year=\"SCHEDULE RULESET 110\", Blank Schedule Type Limits Name input -- will not be validated.\n   ** Warning ** ProcessScheduleInput: Schedule:Year=\"SCHEDULE RULESET 111\", Blank Schedule Type Limits Name input -- will not be validated.\n   ** Warning ** ProcessScheduleInput: Schedule:Year=\"SCHEDULE RULESET 112\", Blank Schedule Type Limits Name input -- will not be validated.\n   ** Warning ** ProcessScheduleInput: Schedule:Year=\"SCHEDULE RULESET 113\", Blank Schedule Type Limits Name input -- will not be validated.\n   ** Warning ** ProcessScheduleInput: Schedule:Year=\"SCHEDULE RULESET 114\", Blank Schedule Type Limits Name input -- will not be validated.\n   ** Warning ** ProcessScheduleInput: Schedule:Year=\"SCHEDULE RULESET 115\", Blank Schedule Type Limits Name input -- will not be validated.\n   ** Warning ** ProcessScheduleInput: Schedule:Year=\"SCHEDULE RULESET 116\", Blank Schedule Type Limits Name input -- will not be validated.\n   ** Warning ** ProcessScheduleInput: Schedule:Year=\"SCHEDULE RULESET 117\", Blank Schedule Type Limits Name input -- will not be validated.\n   ** Warning ** ProcessScheduleInput: Schedule:Year=\"SCHEDULE RULESET 118\", Blank Schedule Type Limits Name input -- will not be validated.\n   ** Warning ** ProcessScheduleInput: Schedule:Year=\"SCHEDULE RULESET 119\", Blank Schedule Type Limits Name input -- will not be validated.\n   ** Warning ** ProcessScheduleInput: Schedule:Year=\"SCHEDULE RULESET 12\", Blank Schedule Type Limits Name input -- will not be validated.\n   ** Warning ** ProcessScheduleInput: Schedule:Year=\"SCHEDULE RULESET 120\", Blank Schedule Type Limits Name input -- will not be validated.\n   ** Warning ** ProcessScheduleInput: Schedule:Year=\"SCHEDULE RULESET 121\", Blank Schedule Type Limits Name input -- will not be validated.\n   ** Warning ** ProcessScheduleInput: Schedule:Year=\"SCHEDULE RULESET 122\", Blank Schedule Type Limits Name input -- will not be validated.\n   ** Warning ** ProcessScheduleInput: Schedule:Year=\"SCHEDULE RULESET 123\", Blank Schedule Type Limits Name input -- will not be validated.\n   ** Warning ** ProcessScheduleInput: Schedule:Year=\"SCHEDULE RULESET 124\", Blank Schedule Type Limits Name input -- will not be validated.\n   ** Warning ** ProcessScheduleInput: Schedule:Year=\"SCHEDULE RULESET 125\", Blank Schedule Type Limits Name input -- will not be validated.\n   ** Warning ** ProcessScheduleInput: Schedule:Year=\"SCHEDULE RULESET 126\", Blank Schedule Type Limits Name input -- will not be validated.\n   ** Warning ** ProcessScheduleInput: Schedule:Year=\"SCHEDULE RULESET 127\", Blank Schedule Type Limits Name input -- will not be validated.\n   ** Warning ** ProcessScheduleInput: Schedule:Year=\"SCHEDULE RULESET 128\", Blank Schedule Type Limits Name input -- will not be validated.\n   ** Warning ** ProcessScheduleInput: Schedule:Year=\"SCHEDULE RULESET 129\", Blank Schedule Type Limits Name input -- will not be validated.\n   ** Warning ** ProcessScheduleInput: Schedule:Year=\"SCHEDULE RULESET 13\", Blank Schedule Type Limits Name input -- will not be validated.\n   ** Warning ** ProcessScheduleInput: Schedule:Year=\"SCHEDULE RULESET 130\", Blank Schedule Type Limits Name input -- will not be validated.\n   ** Warning ** ProcessScheduleInput: Schedule:Year=\"SCHEDULE RULESET 131\", Blank Schedule Type Limits Name input -- will not be validated.\n   ** Warning ** ProcessScheduleInput: Schedule:Year=\"SCHEDULE RULESET 132\", Blank Schedule Type Limits Name input -- will not be validated.\n   ** Warning ** ProcessScheduleInput: Schedule:Year=\"SCHEDULE RULESET 133\", Blank Schedule Type Limits Name input -- will not be validated.\n   ** Warning ** ProcessScheduleInput: Schedule:Year=\"SCHEDULE RULESET 134\", Blank Schedule Type Limits Name input -- will not be validated.\n   ** Warning ** ProcessScheduleInput: Schedule:Year=\"SCHEDULE RULESET 135\", Blank Schedule Type Limits Name input -- will not be validated.\n   ** Warning ** ProcessScheduleInput: Schedule:Year=\"SCHEDULE RULESET 136\", Blank Schedule Type Limits Name input -- will not be validated.\n   ** Warning ** ProcessScheduleInput: Schedule:Year=\"SCHEDULE RULESET 137\", Blank Schedule Type Limits Name input -- will not be validated.\n   ** Warning ** ProcessScheduleInput: Schedule:Year=\"SCHEDULE RULESET 138\", Blank Schedule Type Limits Name input -- will not be validated.\n   ** Warning ** ProcessScheduleInput: Schedule:Year=\"SCHEDULE RULESET 139\", Blank Schedule Type Limits Name input -- will not be validated.\n   ** Warning ** ProcessScheduleInput: Schedule:Year=\"SCHEDULE RULESET 14\", Blank Schedule Type Limits Name input -- will not be validated.\n   ** Warning ** ProcessScheduleInput: Schedule:Year=\"SCHEDULE RULESET 140\", Blank Schedule Type Limits Name input -- will not be validated.\n   ** Warning ** ProcessScheduleInput: Schedule:Year=\"SCHEDULE RULESET 141\", Blank Schedule Type Limits Name input -- will not be validated.\n   ** Warning ** ProcessScheduleInput: Schedule:Year=\"SCHEDULE RULESET 142\", Blank Schedule Type Limits Name input -- will not be validated.\n   ** Warning ** ProcessScheduleInput: Schedule:Year=\"SCHEDULE RULESET 143\", Blank Schedule Type Limits Name input -- will not be validated.\n   ** Warning ** ProcessScheduleInput: Schedule:Year=\"SCHEDULE RULESET 144\", Blank Schedule Type Limits Name input -- will not be validated.\n   ** Warning ** ProcessScheduleInput: Schedule:Year=\"SCHEDULE RULESET 145\", Blank Schedule Type Limits Name input -- will not be validated.\n   ** Warning ** ProcessScheduleInput: Schedule:Year=\"SCHEDULE RULESET 146\", Blank Schedule Type Limits Name input -- will not be validated.\n   ** Warning ** ProcessScheduleInput: Schedule:Year=\"SCHEDULE RULESET 147\", Blank Schedule Type Limits Name input -- will not be validated.\n   ** Warning ** ProcessScheduleInput: Schedule:Year=\"SCHEDULE RULESET 148\", Blank Schedule Type Limits Name input -- will not be validated.\n   ** Warning ** ProcessScheduleInput: Schedule:Year=\"SCHEDULE RULESET 149\", Blank Schedule Type Limits Name input -- will not be validated.\n   ** Warning ** ProcessScheduleInput: Schedule:Year=\"SCHEDULE RULESET 15\", Blank Schedule Type Limits Name input -- will not be validated.\n   ** Warning ** ProcessScheduleInput: Schedule:Year=\"SCHEDULE RULESET 150\", Blank Schedule Type Limits Name input -- will not be validated.\n   ** Warning ** ProcessScheduleInput: Schedule:Year=\"SCHEDULE RULESET 151\", Blank Schedule Type Limits Name input -- will not be validated.\n   ** Warning ** ProcessScheduleInput: Schedule:Year=\"SCHEDULE RULESET 152\", Blank Schedule Type Limits Name input -- will not be validated.\n   ** Warning ** ProcessScheduleInput: Schedule:Year=\"SCHEDULE RULESET 153\", Blank Schedule Type Limits Name input -- will not be validated.\n   ** Warning ** ProcessScheduleInput: Schedule:Year=\"SCHEDULE RULESET 154\", Blank Schedule Type Limits Name input -- will not be validated.\n   ** Warning ** ProcessScheduleInput: Schedule:Year=\"SCHEDULE RULESET 155\", Blank Schedule Type Limits Name input -- will not be validated.\n   ** Warning ** ProcessScheduleInput: Schedule:Year=\"SCHEDULE RULESET 156\", Blank Schedule Type Limits Name input -- will not be validated.\n   ** Warning ** ProcessScheduleInput: Schedule:Year=\"SCHEDULE RULESET 157\", Blank Schedule Type Limits Name input -- will not be validated.\n   ** Warning ** ProcessScheduleInput: Schedule:Year=\"SCHEDULE RULESET 158\", Blank Schedule Type Limits Name input -- will not be validated.\n   ** Warning ** ProcessScheduleInput: Schedule:Year=\"SCHEDULE RULESET 159\", Blank Schedule Type Limits Name input -- will not be validated.\n   ** Warning ** ProcessScheduleInput: Schedule:Year=\"SCHEDULE RULESET 16\", Blank Schedule Type Limits Name input -- will not be validated.\n   ** Warning ** ProcessScheduleInput: Schedule:Year=\"SCHEDULE RULESET 160\", Blank Schedule Type Limits Name input -- will not be validated.\n   ** Warning ** ProcessScheduleInput: Schedule:Year=\"SCHEDULE RULESET 161\", Blank Schedule Type Limits Name input -- will not be validated.\n   ** Warning ** ProcessScheduleInput: Schedule:Year=\"SCHEDULE RULESET 162\", Blank Schedule Type Limits Name input -- will not be validated.\n   ** Warning ** ProcessScheduleInput: Schedule:Year=\"SCHEDULE RULESET 163\", Blank Schedule Type Limits Name input -- will not be validated.\n   ** Warning ** ProcessScheduleInput: Schedule:Year=\"SCHEDULE RULESET 164\", Blank Schedule Type Limits Name input -- will not be validated.\n   ** Warning ** ProcessScheduleInput: Schedule:Year=\"SCHEDULE RULESET 165\", Blank Schedule Type Limits Name input -- will not be validated.\n   ** Warning ** ProcessScheduleInput: Schedule:Year=\"SCHEDULE RULESET 166\", Blank Schedule Type Limits Name input -- will not be validated.\n   ** Warning ** ProcessScheduleInput: Schedule:Year=\"SCHEDULE RULESET 167\", Blank Schedule Type Limits Name input -- will not be validated.\n   ** Warning ** ProcessScheduleInput: Schedule:Year=\"SCHEDULE RULESET 168\", Blank Schedule Type Limits Name input -- will not be validated.\n   ** Warning ** ProcessScheduleInput: Schedule:Year=\"SCHEDULE RULESET 169\", Blank Schedule Type Limits Name input -- will not be validated.\n   ** Warning ** ProcessScheduleInput: Schedule:Year=\"SCHEDULE RULESET 17\", Blank Schedule Type Limits Name input -- will not be validated.\n   ** Warning ** ProcessScheduleInput: Schedule:Year=\"SCHEDULE RULESET 170\", Blank Schedule Type Limits Name input -- will not be validated.\n   ** Warning ** ProcessScheduleInput: Schedule:Year=\"SCHEDULE RULESET 171\", Blank Schedule Type Limits Name input -- will not be validated.\n   ** Warning ** ProcessScheduleInput: Schedule:Year=\"SCHEDULE RULESET 172\", Blank Schedule Type Limits Name input -- will not be validated.\n   ** Warning ** ProcessScheduleInput: Schedule:Year=\"SCHEDULE RULESET 173\", Blank Schedule Type Limits Name input -- will not be validated.\n   ** Warning ** ProcessScheduleInput: Schedule:Year=\"SCHEDULE RULESET 174\", Blank Schedule Type Limits Name input -- will not be validated.\n   ** Warning ** ProcessScheduleInput: Schedule:Year=\"SCHEDULE RULESET 175\", Blank Schedule Type Limits Name input -- will not be validated.\n   ** Warning ** ProcessScheduleInput: Schedule:Year=\"SCHEDULE RULESET 176\", Blank Schedule Type Limits Name input -- will not be validated.\n   ** Warning ** ProcessScheduleInput: Schedule:Year=\"SCHEDULE RULESET 177\", Blank Schedule Type Limits Name input -- will not be validated.\n   ** Warning ** ProcessScheduleInput: Schedule:Year=\"SCHEDULE RULESET 178\", Blank Schedule Type Limits Name input -- will not be validated.\n   ** Warning ** ProcessScheduleInput: Schedule:Year=\"SCHEDULE RULESET 179\", Blank Schedule Type Limits Name input -- will not be validated.\n   ** Warning ** ProcessScheduleInput: Schedule:Year=\"SCHEDULE RULESET 18\", Blank Schedule Type Limits Name input -- will not be validated.\n   ** Warning ** ProcessScheduleInput: Schedule:Year=\"SCHEDULE RULESET 180\", Blank Schedule Type Limits Name input -- will not be validated.\n   ** Warning ** ProcessScheduleInput: Schedule:Year=\"SCHEDULE RULESET 181\", Blank Schedule Type Limits Name input -- will not be validated.\n   ** Warning ** ProcessScheduleInput: Schedule:Year=\"SCHEDULE RULESET 182\", Blank Schedule Type Limits Name input -- will not be validated.\n   ** Warning ** ProcessScheduleInput: Schedule:Year=\"SCHEDULE RULESET 183\", Blank Schedule Type Limits Name input -- will not be validated.\n   ** Warning ** ProcessScheduleInput: Schedule:Year=\"SCHEDULE RULESET 184\", Blank Schedule Type Limits Name input -- will not be validated.\n   ** Warning ** ProcessScheduleInput: Schedule:Year=\"SCHEDULE RULESET 185\", Blank Schedule Type Limits Name input -- will not be validated.\n   ** Warning ** ProcessScheduleInput: Schedule:Year=\"SCHEDULE RULESET 186\", Blank Schedule Type Limits Name input -- will not be validated.\n   ** Warning ** ProcessScheduleInput: Schedule:Year=\"SCHEDULE RULESET 187\", Blank Schedule Type Limits Name input -- will not be validated.\n   ** Warning ** ProcessScheduleInput: Schedule:Year=\"SCHEDULE RULESET 188\", Blank Schedule Type Limits Name input -- will not be validated.\n   ** Warning ** ProcessScheduleInput: Schedule:Year=\"SCHEDULE RULESET 189\", Blank Schedule Type Limits Name input -- will not be validated.\n   ** Warning ** ProcessScheduleInput: Schedule:Year=\"SCHEDULE RULESET 19\", Blank Schedule Type Limits Name input -- will not be validated.\n   ** Warning ** ProcessScheduleInput: Schedule:Year=\"SCHEDULE RULESET 190\", Blank Schedule Type Limits Name input -- will not be validated.\n   ** Warning ** ProcessScheduleInput: Schedule:Year=\"SCHEDULE RULESET 191\", Blank Schedule Type Limits Name input -- will not be validated.\n   ** Warning ** ProcessScheduleInput: Schedule:Year=\"SCHEDULE RULESET 192\", Blank Schedule Type Limits Name input -- will not be validated.\n   ** Warning ** ProcessScheduleInput: Schedule:Year=\"SCHEDULE RULESET 193\", Blank Schedule Type Limits Name input -- will not be validated.\n   ** Warning ** ProcessScheduleInput: Schedule:Year=\"SCHEDULE RULESET 194\", Blank Schedule Type Limits Name input -- will not be validated.\n   ** Warning ** ProcessScheduleInput: Schedule:Year=\"SCHEDULE RULESET 195\", Blank Schedule Type Limits Name input -- will not be validated.\n   ** Warning ** ProcessScheduleInput: Schedule:Year=\"SCHEDULE RULESET 196\", Blank Schedule Type Limits Name input -- will not be validated.\n   ** Warning ** ProcessScheduleInput: Schedule:Year=\"SCHEDULE RULESET 197\", Blank Schedule Type Limits Name input -- will not be validated.\n   ** Warning ** ProcessScheduleInput: Schedule:Year=\"SCHEDULE RULESET 198\", Blank Schedule Type Limits Name input -- will not be validated.\n   ** Warning ** ProcessScheduleInput: Schedule:Year=\"SCHEDULE RULESET 199\", Blank Schedule Type Limits Name input -- will not be validated.\n   ** Warning ** ProcessScheduleInput: Schedule:Year=\"SCHEDULE RULESET 20\", Blank Schedule Type Limits Name input -- will not be validated.\n   ** Warning ** ProcessScheduleInput: Schedule:Year=\"SCHEDULE RULESET 200\", Blank Schedule Type Limits Name input -- will not be validated.\n   ** Warning ** ProcessScheduleInput: Schedule:Year=\"SCHEDULE RULESET 201\", Blank Schedule Type Limits Name input -- will not be validated.\n   ** Warning ** ProcessScheduleInput: Schedule:Year=\"SCHEDULE RULESET 202\", Blank Schedule Type Limits Name input -- will not be validated.\n   ** Warning ** ProcessScheduleInput: Schedule:Year=\"SCHEDULE RULESET 203\", Blank Schedule Type Limits Name input -- will not be validated.\n   ** Warning ** ProcessScheduleInput: Schedule:Year=\"SCHEDULE RULESET 204\", Blank Schedule Type Limits Name input -- will not be validated.\n   ** Warning ** ProcessScheduleInput: Schedule:Year=\"SCHEDULE RULESET 205\", Blank Schedule Type Limits Name input -- will not be validated.\n   ** Warning ** ProcessScheduleInput: Schedule:Year=\"SCHEDULE RULESET 206\", Blank Schedule Type Limits Name input -- will not be validated.\n   ** Warning ** ProcessScheduleInput: Schedule:Year=\"SCHEDULE RULESET 207\", Blank Schedule Type Limits Name input -- will not be validated.\n   ** Warning ** ProcessScheduleInput: Schedule:Year=\"SCHEDULE RULESET 208\", Blank Schedule Type Limits Name input -- will not be validated.\n   ** Warning ** ProcessScheduleInput: Schedule:Year=\"SCHEDULE RULESET 209\", Blank Schedule Type Limits Name input -- will not be validated.\n   ** Warning ** ProcessScheduleInput: Schedule:Year=\"SCHEDULE RULESET 21\", Blank Schedule Type Limits Name input -- will not be validated.\n   ** Warning ** ProcessScheduleInput: Schedule:Year=\"SCHEDULE RULESET 210\", Blank Schedule Type Limits Name input -- will not be validated.\n   ** Warning ** ProcessScheduleInput: Schedule:Year=\"SCHEDULE RULESET 211\", Blank Schedule Type Limits Name input -- will not be validated.\n   ** Warning ** ProcessScheduleInput: Schedule:Year=\"SCHEDULE RULESET 212\", Blank Schedule Type Limits Name input -- will not be validated.\n   ** Warning ** ProcessScheduleInput: Schedule:Year=\"SCHEDULE RULESET 213\", Blank Schedule Type Limits Name input -- will not be validated.\n   ** Warning ** ProcessScheduleInput: Schedule:Year=\"SCHEDULE RULESET 214\", Blank Schedule Type Limits Name input -- will not be validated.\n   ** Warning ** ProcessScheduleInput: Schedule:Year=\"SCHEDULE RULESET 215\", Blank Schedule Type Limits Name input -- will not be validated.\n   ** Warning ** ProcessScheduleInput: Schedule:Year=\"SCHEDULE RULESET 216\", Blank Schedule Type Limits Name input -- will not be validated.\n   ** Warning ** ProcessScheduleInput: Schedule:Year=\"SCHEDULE RULESET 217\", Blank Schedule Type Limits Name input -- will not be validated.\n   ** Warning ** ProcessScheduleInput: Schedule:Year=\"SCHEDULE RULESET 218\", Blank Schedule Type Limits Name input -- will not be validated.\n   ** Warning ** ProcessScheduleInput: Schedule:Year=\"SCHEDULE RULESET 219\", Blank Schedule Type Limits Name input -- will not be validated.\n   ** Warning ** ProcessScheduleInput: Schedule:Year=\"SCHEDULE RULESET 22\", Blank Schedule Type Limits Name input -- will not be validated.\n   ** Warning ** ProcessScheduleInput: Schedule:Year=\"SCHEDULE RULESET 220\", Blank Schedule Type Limits Name input -- will not be validated.\n   ** Warning ** ProcessScheduleInput: Schedule:Year=\"SCHEDULE RULESET 221\", Blank Schedule Type Limits Name input -- will not be validated.\n   ** Warning ** ProcessScheduleInput: Schedule:Year=\"SCHEDULE RULESET 222\", Blank Schedule Type Limits Name input -- will not be validated.\n   ** Warning ** ProcessScheduleInput: Schedule:Year=\"SCHEDULE RULESET 223\", Blank Schedule Type Limits Name input -- will not be validated.\n   ** Warning ** ProcessScheduleInput: Schedule:Year=\"SCHEDULE RULESET 224\", Blank Schedule Type Limits Name input -- will not be validated.\n   ** Warning ** ProcessScheduleInput: Schedule:Year=\"SCHEDULE RULESET 225\", Blank Schedule Type Limits Name input -- will not be validated.\n   ** Warning ** ProcessScheduleInput: Schedule:Year=\"SCHEDULE RULESET 226\", Blank Schedule Type Limits Name input -- will not be validated.\n   ** Warning ** ProcessScheduleInput: Schedule:Year=\"SCHEDULE RULESET 227\", Blank Schedule Type Limits Name input -- will not be validated.\n   ** Warning ** ProcessScheduleInput: Schedule:Year=\"SCHEDULE RULESET 228\", Blank Schedule Type Limits Name input -- will not be validated.\n   ** Warning ** ProcessScheduleInput: Schedule:Year=\"SCHEDULE RULESET 229\", Blank Schedule Type Limits Name input -- will not be validated.\n   ** Warning ** ProcessScheduleInput: Schedule:Year=\"SCHEDULE RULESET 23\", Blank Schedule Type Limits Name input -- will not be validated.\n   ** Warning ** ProcessScheduleInput: Schedule:Year=\"SCHEDULE RULESET 230\", Blank Schedule Type Limits Name input -- will not be validated.\n   ** Warning ** ProcessScheduleInput: Schedule:Year=\"SCHEDULE RULESET 231\", Blank Schedule Type Limits Name input -- will not be validated.\n   ** Warning ** ProcessScheduleInput: Schedule:Year=\"SCHEDULE RULESET 232\", Blank Schedule Type Limits Name input -- will not be validated.\n   ** Warning ** ProcessScheduleInput: Schedule:Year=\"SCHEDULE RULESET 233\", Blank Schedule Type Limits Name input -- will not be validated.\n   ** Warning ** ProcessScheduleInput: Schedule:Year=\"SCHEDULE RULESET 234\", Blank Schedule Type Limits Name input -- will not be validated.\n   ** Warning ** ProcessScheduleInput: Schedule:Year=\"SCHEDULE RULESET 235\", Blank Schedule Type Limits Name input -- will not be validated.\n   ** Warning ** ProcessScheduleInput: Schedule:Year=\"SCHEDULE RULESET 236\", Blank Schedule Type Limits Name input -- will not be validated.\n   ** Warning ** ProcessScheduleInput: Schedule:Year=\"SCHEDULE RULESET 237\", Blank Schedule Type Limits Name input -- will not be validated.\n   ** Warning ** ProcessScheduleInput: Schedule:Year=\"SCHEDULE RULESET 238\", Blank Schedule Type Limits Name input -- will not be validated.\n   ** Warning ** ProcessScheduleInput: Schedule:Year=\"SCHEDULE RULESET 239\", Blank Schedule Type Limits Name input -- will not be validated.\n   ** Warning ** ProcessScheduleInput: Schedule:Year=\"SCHEDULE RULESET 24\", Blank Schedule Type Limits Name input -- will not be validated.\n   ** Warning ** ProcessScheduleInput: Schedule:Year=\"SCHEDULE RULESET 240\", Blank Schedule Type Limits Name input -- will not be validated.\n   ** Warning ** ProcessScheduleInput: Schedule:Year=\"SCHEDULE RULESET 241\", Blank Schedule Type Limits Name input -- will not be validated.\n   ** Warning ** ProcessScheduleInput: Schedule:Year=\"SCHEDULE RULESET 242\", Blank Schedule Type Limits Name input -- will not be validated.\n   ** Warning ** ProcessScheduleInput: Schedule:Year=\"SCHEDULE RULESET 25\", Blank Schedule Type Limits Name input -- will not be validated.\n   ** Warning ** ProcessScheduleInput: Schedule:Year=\"SCHEDULE RULESET 26\", Blank Schedule Type Limits Name input -- will not be validated.\n   ** Warning ** ProcessScheduleInput: Schedule:Year=\"SCHEDULE RULESET 27\", Blank Schedule Type Limits Name input -- will not be validated.\n   ** Warning ** ProcessScheduleInput: Schedule:Year=\"SCHEDULE RULESET 28\", Blank Schedule Type Limits Name input -- will not be validated.\n   ** Warning ** ProcessScheduleInput: Schedule:Year=\"SCHEDULE RULESET 29\", Blank Schedule Type Limits Name input -- will not be validated.\n   ** Warning ** ProcessScheduleInput: Schedule:Year=\"SCHEDULE RULESET 3\", Blank Schedule Type Limits Name input -- will not be validated.\n   ** Warning ** ProcessScheduleInput: Schedule:Year=\"SCHEDULE RULESET 30\", Blank Schedule Type Limits Name input -- will not be validated.\n   ** Warning ** ProcessScheduleInput: Schedule:Year=\"SCHEDULE RULESET 31\", Blank Schedule Type Limits Name input -- will not be validated.\n   ** Warning ** ProcessScheduleInput: Schedule:Year=\"SCHEDULE RULESET 32\", Blank Schedule Type Limits Name input -- will not be validated.\n   ** Warning ** ProcessScheduleInput: Schedule:Year=\"SCHEDULE RULESET 33\", Blank Schedule Type Limits Name input -- will not be validated.\n   ** Warning ** ProcessScheduleInput: Schedule:Year=\"SCHEDULE RULESET 34\", Blank Schedule Type Limits Name input -- will not be validated.\n   ** Warning ** ProcessScheduleInput: Schedule:Year=\"SCHEDULE RULESET 35\", Blank Schedule Type Limits Name input -- will not be validated.\n   ** Warning ** ProcessScheduleInput: Schedule:Year=\"SCHEDULE RULESET 36\", Blank Schedule Type Limits Name input -- will not be validated.\n   ** Warning ** ProcessScheduleInput: Schedule:Year=\"SCHEDULE RULESET 37\", Blank Schedule Type Limits Name input -- will not be validated.\n   ** Warning ** ProcessScheduleInput: Schedule:Year=\"SCHEDULE RULESET 38\", Blank Schedule Type Limits Name input -- will not be validated.\n   ** Warning ** ProcessScheduleInput: Schedule:Year=\"SCHEDULE RULESET 39\", Blank Schedule Type Limits Name input -- will not be validated.\n   ** Warning ** ProcessScheduleInput: Schedule:Year=\"SCHEDULE RULESET 4\", Blank Schedule Type Limits Name input -- will not be validated.\n   ** Warning ** ProcessScheduleInput: Schedule:Year=\"SCHEDULE RULESET 40\", Blank Schedule Type Limits Name input -- will not be validated.\n   ** Warning ** ProcessScheduleInput: Schedule:Year=\"SCHEDULE RULESET 41\", Blank Schedule Type Limits Name input -- will not be validated.\n   ** Warning ** ProcessScheduleInput: Schedule:Year=\"SCHEDULE RULESET 42\", Blank Schedule Type Limits Name input -- will not be validated.\n   ** Warning ** ProcessScheduleInput: Schedule:Year=\"SCHEDULE RULESET 43\", Blank Schedule Type Limits Name input -- will not be validated.\n   ** Warning ** ProcessScheduleInput: Schedule:Year=\"SCHEDULE RULESET 44\", Blank Schedule Type Limits Name input -- will not be validated.\n   ** Warning ** ProcessScheduleInput: Schedule:Year=\"SCHEDULE RULESET 45\", Blank Schedule Type Limits Name input -- will not be validated.\n   ** Warning ** ProcessScheduleInput: Schedule:Year=\"SCHEDULE RULESET 46\", Blank Schedule Type Limits Name input -- will not be validated.\n   ** Warning ** ProcessScheduleInput: Schedule:Year=\"SCHEDULE RULESET 47\", Blank Schedule Type Limits Name input -- will not be validated.\n   ** Warning ** ProcessScheduleInput: Schedule:Year=\"SCHEDULE RULESET 48\", Blank Schedule Type Limits Name input -- will not be validated.\n   ** Warning ** ProcessScheduleInput: Schedule:Year=\"SCHEDULE RULESET 49\", Blank Schedule Type Limits Name input -- will not be validated.\n   ** Warning ** ProcessScheduleInput: Schedule:Year=\"SCHEDULE RULESET 5\", Blank Schedule Type Limits Name input -- will not be validated.\n   ** Warning ** ProcessScheduleInput: Schedule:Year=\"SCHEDULE RULESET 50\", Blank Schedule Type Limits Name input -- will not be validated.\n   ** Warning ** ProcessScheduleInput: Schedule:Year=\"SCHEDULE RULESET 51\", Blank Schedule Type Limits Name input -- will not be validated.\n   ** Warning ** ProcessScheduleInput: Schedule:Year=\"SCHEDULE RULESET 52\", Blank Schedule Type Limits Name input -- will not be validated.\n   ** Warning ** ProcessScheduleInput: Schedule:Year=\"SCHEDULE RULESET 53\", Blank Schedule Type Limits Name input -- will not be validated.\n   ** Warning ** ProcessScheduleInput: Schedule:Year=\"SCHEDULE RULESET 54\", Blank Schedule Type Limits Name input -- will not be validated.\n   ** Warning ** ProcessScheduleInput: Schedule:Year=\"SCHEDULE RULESET 55\", Blank Schedule Type Limits Name input -- will not be validated.\n   ** Warning ** ProcessScheduleInput: Schedule:Year=\"SCHEDULE RULESET 56\", Blank Schedule Type Limits Name input -- will not be validated.\n   ** Warning ** ProcessScheduleInput: Schedule:Year=\"SCHEDULE RULESET 57\", Blank Schedule Type Limits Name input -- will not be validated.\n   ** Warning ** ProcessScheduleInput: Schedule:Year=\"SCHEDULE RULESET 58\", Blank Schedule Type Limits Name input -- will not be validated.\n   ** Warning ** ProcessScheduleInput: Schedule:Year=\"SCHEDULE RULESET 59\", Blank Schedule Type Limits Name input -- will not be validated.\n   ** Warning ** ProcessScheduleInput: Schedule:Year=\"SCHEDULE RULESET 6\", Blank Schedule Type Limits Name input -- will not be validated.\n   ** Warning ** ProcessScheduleInput: Schedule:Year=\"SCHEDULE RULESET 60\", Blank Schedule Type Limits Name input -- will not be validated.\n   ** Warning ** ProcessScheduleInput: Schedule:Year=\"SCHEDULE RULESET 61\", Blank Schedule Type Limits Name input -- will not be validated.\n   ** Warning ** ProcessScheduleInput: Schedule:Year=\"SCHEDULE RULESET 62\", Blank Schedule Type Limits Name input -- will not be validated.\n   ** Warning ** ProcessScheduleInput: Schedule:Year=\"SCHEDULE RULESET 63\", Blank Schedule Type Limits Name input -- will not be validated.\n   ** Warning ** ProcessScheduleInput: Schedule:Year=\"SCHEDULE RULESET 64\", Blank Schedule Type Limits Name input -- will not be validated.\n   ** Warning ** ProcessScheduleInput: Schedule:Year=\"SCHEDULE RULESET 65\", Blank Schedule Type Limits Name input -- will not be validated.\n   ** Warning ** ProcessScheduleInput: Schedule:Year=\"SCHEDULE RULESET 66\", Blank Schedule Type Limits Name input -- will not be validated.\n   ** Warning ** ProcessScheduleInput: Schedule:Year=\"SCHEDULE RULESET 67\", Blank Schedule Type Limits Name input -- will not be validated.\n   ** Warning ** ProcessScheduleInput: Schedule:Year=\"SCHEDULE RULESET 68\", Blank Schedule Type Limits Name input -- will not be validated.\n   ** Warning ** ProcessScheduleInput: Schedule:Year=\"SCHEDULE RULESET 69\", Blank Schedule Type Limits Name input -- will not be validated.\n   ** Warning ** ProcessScheduleInput: Schedule:Year=\"SCHEDULE RULESET 7\", Blank Schedule Type Limits Name input -- will not be validated.\n   ** Warning ** ProcessScheduleInput: Schedule:Year=\"SCHEDULE RULESET 70\", Blank Schedule Type Limits Name input -- will not be validated.\n   ** Warning ** ProcessScheduleInput: Schedule:Year=\"SCHEDULE RULESET 71\", Blank Schedule Type Limits Name input -- will not be validated.\n   ** Warning ** ProcessScheduleInput: Schedule:Year=\"SCHEDULE RULESET 72\", Blank Schedule Type Limits Name input -- will not be validated.\n   ** Warning ** ProcessScheduleInput: Schedule:Year=\"SCHEDULE RULESET 73\", Blank Schedule Type Limits Name input -- will not be validated.\n   ** Warning ** ProcessScheduleInput: Schedule:Year=\"SCHEDULE RULESET 74\", Blank Schedule Type Limits Name input -- will not be validated.\n   ** Warning ** ProcessScheduleInput: Schedule:Year=\"SCHEDULE RULESET 75\", Blank Schedule Type Limits Name input -- will not be validated.\n   ** Warning ** ProcessScheduleInput: Schedule:Year=\"SCHEDULE RULESET 76\", Blank Schedule Type Limits Name input -- will not be validated.\n   ** Warning ** ProcessScheduleInput: Schedule:Year=\"SCHEDULE RULESET 77\", Blank Schedule Type Limits Name input -- will not be validated.\n   ** Warning ** ProcessScheduleInput: Schedule:Year=\"SCHEDULE RULESET 78\", Blank Schedule Type Limits Name input -- will not be validated.\n   ** Warning ** ProcessScheduleInput: Schedule:Year=\"SCHEDULE RULESET 79\", Blank Schedule Type Limits Name input -- will not be validated.\n   ** Warning ** ProcessScheduleInput: Schedule:Year=\"SCHEDULE RULESET 8\", Blank Schedule Type Limits Name input -- will not be validated.\n   ** Warning ** ProcessScheduleInput: Schedule:Year=\"SCHEDULE RULESET 80\", Blank Schedule Type Limits Name input -- will not be validated.\n   ** Warning ** ProcessScheduleInput: Schedule:Year=\"SCHEDULE RULESET 81\", Blank Schedule Type Limits Name input -- will not be validated.\n   ** Warning ** ProcessScheduleInput: Schedule:Year=\"SCHEDULE RULESET 82\", Blank Schedule Type Limits Name input -- will not be validated.\n   ** Warning ** ProcessScheduleInput: Schedule:Year=\"SCHEDULE RULESET 83\", Blank Schedule Type Limits Name input -- will not be validated.\n   ** Warning ** ProcessScheduleInput: Schedule:Year=\"SCHEDULE RULESET 84\", Blank Schedule Type Limits Name input -- will not be validated.\n   ** Warning ** ProcessScheduleInput: Schedule:Year=\"SCHEDULE RULESET 85\", Blank Schedule Type Limits Name input -- will not be validated.\n   ** Warning ** ProcessScheduleInput: Schedule:Year=\"SCHEDULE RULESET 86\", Blank Schedule Type Limits Name input -- will not be validated.\n   ** Warning ** ProcessScheduleInput: Schedule:Year=\"SCHEDULE RULESET 87\", Blank Schedule Type Limits Name input -- will not be validated.\n   ** Warning ** ProcessScheduleInput: Schedule:Year=\"SCHEDULE RULESET 88\", Blank Schedule Type Limits Name input -- will not be validated.\n   ** Warning ** ProcessScheduleInput: Schedule:Year=\"SCHEDULE RULESET 89\", Blank Schedule Type Limits Name input -- will not be validated.\n   ** Warning ** ProcessScheduleInput: Schedule:Year=\"SCHEDULE RULESET 9\", Blank Schedule Type Limits Name input -- will not be validated.\n   ** Warning ** ProcessScheduleInput: Schedule:Year=\"SCHEDULE RULESET 90\", Blank Schedule Type Limits Name input -- will not be validated.\n   ** Warning ** ProcessScheduleInput: Schedule:Year=\"SCHEDULE RULESET 91\", Blank Schedule Type Limits Name input -- will not be validated.\n   ** Warning ** ProcessScheduleInput: Schedule:Year=\"SCHEDULE RULESET 92\", Blank Schedule Type Limits Name input -- will not be validated.\n   ** Warning ** ProcessScheduleInput: Schedule:Year=\"SCHEDULE RULESET 93\", Blank Schedule Type Limits Name input -- will not be validated.\n   ** Warning ** ProcessScheduleInput: Schedule:Year=\"SCHEDULE RULESET 94\", Blank Schedule Type Limits Name input -- will not be validated.\n   ** Warning ** ProcessScheduleInput: Schedule:Year=\"SCHEDULE RULESET 95\", Blank Schedule Type Limits Name input -- will not be validated.\n   ** Warning ** ProcessScheduleInput: Schedule:Year=\"SCHEDULE RULESET 96\", Blank Schedule Type Limits Name input -- will not be validated.\n   ** Warning ** ProcessScheduleInput: Schedule:Year=\"SCHEDULE RULESET 97\", Blank Schedule Type Limits Name input -- will not be validated.\n   ** Warning ** ProcessScheduleInput: Schedule:Year=\"SCHEDULE RULESET 98\", Blank Schedule Type Limits Name input -- will not be validated.\n   ** Warning ** ProcessScheduleInput: Schedule:Year=\"SCHEDULE RULESET 99\", Blank Schedule Type Limits Name input -- will not be validated.\n   ** Warning ** ProcessScheduleInput: Schedule:Constant=\"ALWAYS OFF DISCRETE\", Blank Schedule Type Limits Name input -- will not be validated.\n   ** Warning ** ProcessScheduleInput: Schedule:Constant=\"ALWAYS ON CONTINUOUS\", Blank Schedule Type Limits Name input -- will not be validated.\n   ** Warning ** CheckUsedConstructions: There are 24 nominally unused constructions in input.\n   **   ~~~   ** For explicit details on each unused construction, use Output:Diagnostics,DisplayExtraWarnings;\n   ************* Beginning System Sizing Calculations\n   ** Warning ** GetDXCoils: Coil:Cooling:DX:SingleSpeed=\"COIL COOLING DX SINGLE SPEED 59 5KBTU/HR 11.0EER\", invalid\n   **   ~~~   ** ...Part Load Fraction Correlation Curve Name = DXCOOL-NECB2011-REF-COOLPLFFPLR 54 has out of range value.\n   **   ~~~   ** ...Curve maximum must be <= 1.0, curve max at PLR = 0.99 is 1.015\n   **   ~~~   ** ...Setting curve maximum to 1.0 and simulation continues.\n   ** Warning ** GetDXCoils: Coil:Cooling:DX:SingleSpeed=\"COIL COOLING DX SINGLE SPEED 56 5KBTU/HR 11.0EER\", invalid\n   **   ~~~   ** ...Part Load Fraction Correlation Curve Name = DXCOOL-NECB2011-REF-COOLPLFFPLR 51 has out of range value.\n   **   ~~~   ** ...Curve maximum must be <= 1.0, curve max at PLR = 0.99 is 1.015\n   **   ~~~   ** ...Setting curve maximum to 1.0 and simulation continues.\n   ** Warning ** GetDXCoils: Coil:Cooling:DX:SingleSpeed=\"COIL COOLING DX SINGLE SPEED 57 5KBTU/HR 11.0EER\", invalid\n   **   ~~~   ** ...Part Load Fraction Correlation Curve Name = DXCOOL-NECB2011-REF-COOLPLFFPLR 52 has out of range value.\n   **   ~~~   ** ...Curve maximum must be <= 1.0, curve max at PLR = 0.99 is 1.015\n   **   ~~~   ** ...Setting curve maximum to 1.0 and simulation continues.\n   ** Warning ** GetDXCoils: Coil:Cooling:DX:SingleSpeed=\"COIL COOLING DX SINGLE SPEED 58 8KBTU/HR 10.8EER\", invalid\n   **   ~~~   ** ...Part Load Fraction Correlation Curve Name = DXCOOL-NECB2011-REF-COOLPLFFPLR 53 has out of range value.\n   **   ~~~   ** ...Curve maximum must be <= 1.0, curve max at PLR = 0.99 is 1.015\n   **   ~~~   ** ...Setting curve maximum to 1.0 and simulation continues.\n   ** Warning ** GetDXCoils: Coil:Cooling:DX:SingleSpeed=\"COIL COOLING DX SINGLE SPEED 55 9KBTU/HR 10.6EER\", invalid\n   **   ~~~   ** ...Part Load Fraction Correlation Curve Name = DXCOOL-NECB2011-REF-COOLPLFFPLR 50 has out of range value.\n   **   ~~~   ** ...Curve maximum must be <= 1.0, curve max at PLR = 0.99 is 1.015\n   **   ~~~   ** ...Setting curve maximum to 1.0 and simulation continues.\n   ** Warning ** GetDXCoils: Coil:Cooling:DX:SingleSpeed=\"COIL COOLING DX SINGLE SPEED 63 10KBTU/HR 10.4EER\", invalid\n   **   ~~~   ** ...Part Load Fraction Correlation Curve Name = DXCOOL-NECB2011-REF-COOLPLFFPLR 59 has out of range value.\n   **   ~~~   ** ...Curve maximum must be <= 1.0, curve max at PLR = 0.99 is 1.015\n   **   ~~~   ** ...Setting curve maximum to 1.0 and simulation continues.\n   ** Warning ** GetDXCoils: Coil:Cooling:DX:SingleSpeed=\"COIL COOLING DX SINGLE SPEED 62 10KBTU/HR 10.4EER\", invalid\n   **   ~~~   ** ...Part Load Fraction Correlation Curve Name = DXCOOL-NECB2011-REF-COOLPLFFPLR 58 has out of range value.\n   **   ~~~   ** ...Curve maximum must be <= 1.0, curve max at PLR = 0.99 is 1.015\n   **   ~~~   ** ...Setting curve maximum to 1.0 and simulation continues.\n   ** Warning ** GetDXCoils: Coil:Cooling:DX:SingleSpeed=\"COIL COOLING DX SINGLE SPEED 60 13KBTU/HR 9.8EER\", invalid\n   **   ~~~   ** ...Part Load Fraction Correlation Curve Name = DXCOOL-NECB2011-REF-COOLPLFFPLR 56 has out of range value.\n   **   ~~~   ** ...Curve maximum must be <= 1.0, curve max at PLR = 0.99 is 1.015\n   **   ~~~   ** ...Setting curve maximum to 1.0 and simulation continues.\n   ** Warning ** GetDXCoils: Coil:Cooling:DX:SingleSpeed=\"COIL COOLING DX SINGLE SPEED 61 13KBTU/HR 9.8EER\", invalid\n   **   ~~~   ** ...Part Load Fraction Correlation Curve Name = DXCOOL-NECB2011-REF-COOLPLFFPLR 57 has out of range value.\n   **   ~~~   ** ...Curve maximum must be <= 1.0, curve max at PLR = 0.99 is 1.015\n   **   ~~~   ** ...Setting curve maximum to 1.0 and simulation continues.\n   ** Warning ** GetDXCoils: Coil:Cooling:DX:SingleSpeed=\"COIL COOLING DX SINGLE SPEED 77 5KBTU/HR 11.0EER\", invalid\n   **   ~~~   ** ...Part Load Fraction Correlation Curve Name = DXCOOL-NECB2011-REF-COOLPLFFPLR 74 has out of range value.\n   **   ~~~   ** ...Curve maximum must be <= 1.0, curve max at PLR = 0.99 is 1.015\n   **   ~~~   ** ...Setting curve maximum to 1.0 and simulation continues.\n   ** Warning ** GetDXCoils: Coil:Cooling:DX:SingleSpeed=\"COIL COOLING DX SINGLE SPEED 73 5KBTU/HR 11.0EER\", invalid\n   **   ~~~   ** ...Part Load Fraction Correlation Curve Name = DXCOOL-NECB2011-REF-COOLPLFFPLR 70 has out of range value.\n   **   ~~~   ** ...Curve maximum must be <= 1.0, curve max at PLR = 0.99 is 1.015\n   **   ~~~   ** ...Setting curve maximum to 1.0 and simulation continues.\n   ** Warning ** GetDXCoils: Coil:Cooling:DX:SingleSpeed=\"COIL COOLING DX SINGLE SPEED 75 5KBTU/HR 11.0EER\", invalid\n   **   ~~~   ** ...Part Load Fraction Correlation Curve Name = DXCOOL-NECB2011-REF-COOLPLFFPLR 72 has out of range value.\n   **   ~~~   ** ...Curve maximum must be <= 1.0, curve max at PLR = 0.99 is 1.015\n   **   ~~~   ** ...Setting curve maximum to 1.0 and simulation continues.\n   ** Warning ** GetDXCoils: Coil:Cooling:DX:SingleSpeed=\"COIL COOLING DX SINGLE SPEED 76 8KBTU/HR 10.8EER\", invalid\n   **   ~~~   ** ...Part Load Fraction Correlation Curve Name = DXCOOL-NECB2011-REF-COOLPLFFPLR 73 has out of range value.\n   **   ~~~   ** ...Curve maximum must be <= 1.0, curve max at PLR = 0.99 is 1.015\n   **   ~~~   ** ...Setting curve maximum to 1.0 and simulation continues.\n   ** Warning ** GetDXCoils: Coil:Cooling:DX:SingleSpeed=\"COIL COOLING DX SINGLE SPEED 74 9KBTU/HR 10.6EER\", invalid\n   **   ~~~   ** ...Part Load Fraction Correlation Curve Name = DXCOOL-NECB2011-REF-COOLPLFFPLR 71 has out of range value.\n   **   ~~~   ** ...Curve maximum must be <= 1.0, curve max at PLR = 0.99 is 1.015\n   **   ~~~   ** ...Setting curve maximum to 1.0 and simulation continues.\n   ** Warning ** GetDXCoils: Coil:Cooling:DX:SingleSpeed=\"COIL COOLING DX SINGLE SPEED 81 10KBTU/HR 10.4EER\", invalid\n   **   ~~~   ** ...Part Load Fraction Correlation Curve Name = DXCOOL-NECB2011-REF-COOLPLFFPLR 79 has out of range value.\n   **   ~~~   ** ...Curve maximum must be <= 1.0, curve max at PLR = 0.99 is 1.015\n   **   ~~~   ** ...Setting curve maximum to 1.0 and simulation continues.\n   ** Warning ** GetDXCoils: Coil:Cooling:DX:SingleSpeed=\"COIL COOLING DX SINGLE SPEED 80 10KBTU/HR 10.4EER\", invalid\n   **   ~~~   ** ...Part Load Fraction Correlation Curve Name = DXCOOL-NECB2011-REF-COOLPLFFPLR 78 has out of range value.\n   **   ~~~   ** ...Curve maximum must be <= 1.0, curve max at PLR = 0.99 is 1.015\n   **   ~~~   ** ...Setting curve maximum to 1.0 and simulation continues.\n   ** Warning ** GetDXCoils: Coil:Cooling:DX:SingleSpeed=\"COIL COOLING DX SINGLE SPEED 78 13KBTU/HR 9.8EER\", invalid\n   **   ~~~   ** ...Part Load Fraction Correlation Curve Name = DXCOOL-NECB2011-REF-COOLPLFFPLR 75 has out of range value.\n   **   ~~~   ** ...Curve maximum must be <= 1.0, curve max at PLR = 0.99 is 1.015\n   **   ~~~   ** ...Setting curve maximum to 1.0 and simulation continues.\n   ** Warning ** GetDXCoils: Coil:Cooling:DX:SingleSpeed=\"COIL COOLING DX SINGLE SPEED 79 13KBTU/HR 9.8EER\", invalid\n   **   ~~~   ** ...Part Load Fraction Correlation Curve Name = DXCOOL-NECB2011-REF-COOLPLFFPLR 76 has out of range value.\n   *
[...]
y9Toz2CQ1mnBndDU7M9UkO5oQ5Gp2ZqQpgrTtHMmQJgTFl0hypAlB8eGXLGlCUHz4JU+aEBQffs2UpiTZup2ZbJosTUmy1Tsz3DRfmpJka3hmvmnKNOVeaet4ZsRp1jQlydbxzJRDnIY4DXHaPULEafVCnIY4DXFaZiFOQ5zW6VUhTmvs3+H5iNO2F+K0zerhc1p75hcABxxwwAEHHHDAAQcccMAZPM6eaQeggQYaaKCBBhpooIEGGmiGQ/NodAfggAMOOOCAAw444IADDjjl+yFOWy/EaRtx2mwg4rTZEMRps52J02a3Xwstldy4gsauoIkraOoKmrmC5q6ghSto6QpqfP9eS7J1O9nKnWztTrZ6J1u/k63gydbwZKt4snW8snW88t2/bR2vbB2vunW8vTitmVUuTlNy4qtULk5TcuK7QLk4TcmJ7wDl4jQlJz79gjhNCnI1OjPeBHGaFOQqdWa2CeI0KcjV68xgE8Rp0p3R1ezMVBPEaVKQq9mZkVYuTmvmCOI0KSi+RII4TQqKD78gTpOC4sMviNOkoPjwK+I0LcnW7cxkU8RpWpKt3pnhpojTtCRbwzPzTRGnafdKW8czI04Rp2lJto5nphziNMRpiNPuESJOqxfiNMRpiNMyC3Ea4rROrwpxWmP/Ds9HnLa9EKdtVg+f09ozvwA44IADDjjggAMOOOCAA87gcfZMOwANNNBAAw000EADDTTQQDMcmkejOwAHHHDAAQcccMABBxxwwCnfD3HaeiFO24jT5gMRp82HIE6b70ycdnhQWbxpSs7YlDMx5UxNOTNTztyUszDlLE05ja/dS0GuRidXpZOr08lV6uRqdXLVOrl6nVzFTq5mV65mV7Z7tavZlavZVadmtxekNaLK/WhCTHiFyu1oQkx47svdaEJMeObLzWhCTHjeBS+akmPqcTzGBCmakmOqcjzDBCOakmNqczzABB2ach809TmeXoILTckx9TkeXeUitEaM4EFTcsLLI1jQlJzwuAsONCUnPO6CAU3JCY+74j+TglyNjieYIj+TglyljoeYYj6Tgly9jueYoj2T7oyuZsejTHGeSUGuZsfTDOEZwjOEZ/cIEZ7VC+EZwjOEZ5mF8AzhWadXhfCssX+H5yM8214Izzarh89X7ZkXABxwwAEHHHDAAQcccMABZ/A4e6YLgAYaaKCBBhpooIEGGmigGQ7No9EUgAMOOOCAAw444IADDjjglO+H8Gy9EJ5thGeLgQjPFkMQni12KDw7nJqMZ0LQ2BU0cQVNXUEzV9DcFbRwBS1dQe994V5JsnU72cqdbO1OtnonW7+TreDJ1vBkq3iydbyydbzy3b9tHa9sHa+6dbyLCG07SzGhlefEV0lxoZXnxHcBxYZWnhPfARQfWnlOfPolI5oQ5Gp0ZrxJUjQhyFXqzGyTvGhCkKvXmcEmqdGEO6Or2ZmpJtnRhCBXszMjTRGkbedIhjQhKL5EkiNNCIoPv2RJE4Liwy950oSg+PBrpjQlydbtzGTTZGlKkq3emeGm+dKUJFvDM/NNU6Yp90pbxzMjTrOmKUm2jmemHOI0xGmI0+4RIk6rF+I0xGmI0zILcRritE6vCnFaY/8Oz0ectr0Qp21WD5/T2jO/ADjggAMOOOCAAw444IADzuBx9kw7AA000EADDTTQQAMNNNBAMxyaR6M7AAcccMABBxxwwAEHHHDAKd8Pcdp6IU7biNOWAxGnLYcgTlvuTJw2u/1aaKnkxhU0dgVNXEFTV9DMFTR3BS1cQUtXUOP791qSrdvJVu5ka3ey1TvZ+p1sBU+2hidbxZOt45Wt45Xv/m3reGXreNWt4+3Fac2scnGakhNfpXJxmpIT3wXKxWlKTnwHKBenKTnx6RfEaVKQq9GZ8SaI06QgV6kzs00Qp0lBrl5nBpsgTpPujK5mZ6aaIE6TglzNzoy0cnFaM0cQp0lB8SUSxGlSUHz4BXGaFBQffkGcJgXFh18Rp2lJtm5nJpsiTtOSbPXODDdFnKYl2RqemW+KOE27V9o6nhlxijhNS7J1PDPlEKchTkOcdo8QcVq9EKchTkOcllmI0xCndXpViNMa+3d4PuK07YU4bbN6+JzWnvkFwAEHHHDAAQcccMABBxxwBo+zZ9oBaKCBBhpooIEGGmiggQaa4dA8Gt0BOOCAAw444IADDjjggANO+X6I09YLcdqdOG0xDG/a9HAA3rQbSLxpRUF40x4OwpvWKglvGt40vGl40/Cm4U3Dm4Y3DW/ar94Z8aY9HIQ37cEgvGl40/Cm4U2zJeFNa5eENy2GwZuGN+39hTftDh9v2vsLb1qbhTet2/PxpuFN6/Sq8KY19u/wfLxp2wtv2mb18DGtPdMLgAMOOOCAAw444IADDjjgDB5nz6wD0EADDTTQQAMNNNBAAw00w6F5NLYDcMABBxxwwAEHHHDAAQec8v3wpq0X3rSNN+1wIOK0NARxWtqZOO3woLJ405ScsSlnYsqZmnJmppy5KWdhylmachpfu5eCXI1OrkonV6eTq9TJ1erkqnVy9Tq5ip1cza5cza5s92pXsytXs6tOzW4vSGtElfvRhJjwCpXb0YSY8NyXu9GEmPDMl5vRhJjwvAteNCXH1ON4jAlSNCXHVOV4hglGNCXH1OZ4gAk6NOU+aOpzPL0EF5qSY+pzPLrKRWiNGMGDpuSEl0ewoCk54XEXHGhKTnjcBQOakhMed8V/JgW5Gh1PMEV+JgW5Sh0PMcV8JgW5eh3PMUV7Jt0ZXc2OR5niPJOCXM2OpxnCM4RnCM/uESI8qxfCM4RnCM8yC+EZwrNOrwrhWWP/Ds9HeLa9EJ5tVg+fr9ozLwA44IADDjjggAMOOOCAA87gcfZMFwANNNBAAw000EADDTTQQDMcmkejKQAHHHDAAQcccMABBxxwwCnfD+HZeiE82wjP0kCEZ9UQhGfVDoVnh1OT8UwIGruCJq6gqSto5gqau4IWrqClK+i9L9wrSbZuJ1u5k63dyVbvZOt3shU82RqebBVPto5Xto5Xvvu3reOVreNVt453EaFtZykmtPKc+CopLrTynPguoNjQynPiO4DiQyvPiU+/ZEQTglyNzow3SYomBLlKnZltkhdNCHL1OjPYJDWacGd0NTsz1SQ7mhDkanZmpCmCtO0cyZAmBMWXSHKkCUHx4ZcsaUJQfPglT5oQFB9+zZSmJNm6nZlsmixNSbLVOzPcNF+akmRreGa+aco05V5p63hmxGnWNCXJ1vHMlEOchjgNcdo9QsRp9UKchjgNcVpmIU5DnNbpVSFOa+zf4fmI07YX4rTN6uFzWnvmFwAHHHDAAQcccMABBxxwwBk8zp5pB6CBBhpooIEGGmiggQYaaIZD82h0B+CAAw444IADDjjggAMOOOX7IU5bL8RpG3FaNRBx2ngI4rTxzsRps9uvhZZKblxBY1fQxBU0dQXNXEFzV9DCFbR0BTW+f68l2bqdbOVOtnYnW72Trd/JVvBka3iyVTzZOl7ZOl757t+2jle2jlfdOt5enNbMKhenKTnxVSoXpyk58V2gXJym5MR3gHJxmpITn35BnCYFuRqdGW+COE0KcpU6M9sEcZoU5Op1ZrAJ4jTpzuhqdmaqCeI0KcjV7MxIKxenNXMEcZoUFF8iQZwmBcWHXxCnSUHx4RfEaVJQfPgVcZqWZOt2ZrIp4jQtyVbvzHBTxGlakq3hmfmmiNO0e6Wt45kRp4jTtCRbxzNTDnEa4jTEafcIEafVC3Ea4jTEaZmFOA1xWqdXhTitsX+H5yNO216I0zarh89p7ZlfABxwwAEHHHDAAQcccMABZ/A4e6YdgAYaaKCBBhpooIEGGmigGQ7No9EdgAMOOOCAAw444IADDjjglO+HOG29EKdtxGnjgYjTJkMQp012Jk47PKgs3jQlZ2zKmZhypqacmSlnbspZmHKWppzG1+6lIFejk6vSydXp5Cp1crU6uWqdXL1OrmInV7MrV7Mr273a1ezK1eyqU7PbC9IaUeV+NCEmvELldjQhJjz35W40ISY88+VmNCEmPO+CF03JMfU4HmOCFE3JMVU5nmGCEU3JMbU5HmCCDk25D5r6HE8vwYWm5Jj6HI+uchFaI0bwoCk54eURLGhKTnjcBQeakhMed8GApuSEx13xn0lBrkbHE0yRn0lBrlLHQ0wxn0lBrl7Hc0zRnkl3Rlez41GmOM+kIFez42mG8AzhGcKze4QIz+qF8AzhGcKzzEJ4hvCs06tCeNbYv8PzEZ5tL4Rnm9XD56v2zAsADjjggAMOOOCAAw444IAzeJw90wVAAw000EADDTTQQAMNNNAMh+bRaArAAQcccMABBxxwwAEHHHDK90N4tl4IzzbCs8lAhGfTIQjPpjsUnh1OTcYzIWjsCpq4gqauoJkraO4KWriClq6g975wryTZup1s5U62didbvZOt38lW8GRreLJVPNk6Xtk6Xvnu37aOV7aOV9063kWEtp2lmNDKc+KrpLjQynPiu4BiQyvPie8Aig+tPCc+/ZIRTQhyNToz3iQpmhDkKnVmtkleNCHI1evMYJPUaMKd0dXszFST7GhCkKvZmZGmCNK2cyRDmhAUXyLJkSYExYdfsqQJQfHhlzxpQlB8+DVTmpJk63ZmsmmyNCXJVu/McNN8aUqSreGZ+aYp05R7pa3jmRGnWdOUJFvHM1MOcRriNMRp9wgRp9ULcRriNMRpmYU4DXFap1eFOK2xf4fnI07bXojTNquHz2ntmV8AHHDAAQcccMABBxxwwAFn8Dh7ph2ABhpooIEGGmiggQYaaKAZDs2j0R2AAw444IADDjjggAMOOOCU74c4bb0Qp23EadOBiNNmQxCnzXYmTpvdfi20VHLjChq7giauoKkraOYKmruCFq6gpSuo8f17LcnW7WQrd7K1O9nqnWz9TraCJ1vDk63iydbxytbxynf/tnW8snW86tbx9uK0Zla5OE3Jia9SuThNyYnvAuXiNCUnvgOUi9OUnPj0C+I0KcjV6Mx4E8RpUpCr1JnZJojTpCBXrzODTRCnSXdGV7MzU00Qp0lBrmZnRlq5OK2ZI4jTpKD4EgniNCkoPvyCOE0Kig+/IE6TguLDr4jTtCRbtzOTTRGnaUm2emeGmyJO05JsDc/MN0Wcpt0rbR3PjDhFnKYl2TqemXKI0xCnIU67R4g4rV6I0xCnIU7LLMRpiNM6vSrEaY39Ozwfcdr2Qpy2WT18TmvP/ALggAMOOOCAAw444IADDjiDx9kz7QA00EADDTTQQAMNNNBAA81waB6N7gAccMABBxxwwAEHHHDAAad8P8Rp64U4bSNOmw1EnDYfgjhtvjNx2uFBZfGmKTljU87ElDM15cxMOXNTzsKUszTlNL52LwW5Gp1clU6uTidXqZOr1clV6+TqdXIVO7maXbmaXdnu1a5mV65mV52a3V6Q1ogq96MJMeEVKrejCTHhuS93owkx4ZkvN6MJMeF5F7xoSo6px/EYE6RoSo6pyvEME4xoSo6pzfEAE3Royn3Q1Od4egkuNCXH1Od4dJWL0BoxggdNyQkvj2BBU3LC4y440JSc8LgLBjQlJzzuiv9MCnI1Op5givxMCnKVOh5iivlMCnL1Op5jivZMujO6mh2PMsV5JgW5mh1PM4RnCM8Qnt0jRHhWL4RnCM8QnmUWwjOEZ51eFcKzxv4dno/wbHshPNusHj5ftWdeAHDAAQcccMABBxxwwAEHnMHj7JkuABpooIEGGmiggQYaaKCBZjg0j0ZTAA444IADDjjggAMOOOCAU74fwrP1Qni2EZ7NByI8WwxBeLbYofDscGoynglBY1fQxBU0dQXNXEFzV9DCFbR0Bb33hXslydbtZCt3srU72eqdbP1OtoInW8OTreLJ1vHK1vHKd/+2dbyydbzq1vEuIrTtLMWEVp4TXyXFhVaeE98FFBtaeU58B1B8aOU58emXjGhCkKvRmfEmSdGEIFepM7NN8qIJQa5eZwabpEYT7oyuZmemmmRHE4Jczc6MNEWQtp0jGdKEoPgSSY40ISg+/JIlTQiKD7/kSROC4sOvmdKUJFu3M5NNk6UpSbZ6Z4ab5ktTkmwNz8w3TZmm3CttHc+MOM2apiTZOp6ZcojTEKchTrtHiDitXojTEKchTsssxGmI0zq9KsRpjf07PB9x2vZCnLZZPXxOa8/8AuCAAw444IADDjjggAMOOIPH2TPtADTQQAMNNNBAAw000EADzXBoHo3uABxwwAEHHHDAAQcccMABp3w/xGnrhThtI05bDEScthyCOG25M3Ha7PZroaWSG1fQ2BU0cQVNXUEzV9DcFbRwBS1dQY3v32tJtm4nW7mTrd3JVu9k63eyFTzZGp5sFU+2jle2jle++7et45Wt41W3jrcXpzWzysVpSk58lcrFaUpOfBcoF6cpOfEdoFycpuTEp18Qp0lBrkZnxpsgTpOCXKXOzDZBnCYFuXqdGWyCOE26M7qanZlqgjhNCnI1OzPSysVpzRxBnCYFxZdIEKdJQfHhF8RpUlB8+AVxmhQUH35FnKYl2bqdmWyKOE1LstU7M9wUcZqWZGt4Zr4p4jTtXmnreGbEKeI0LcnW8cyUQ5yGOA1x2j1CxGn1QpyGOA1xWmYhTkOc1ulVIU5r7N/h+YjTthfitM3q4XNae+YXAAcccMABBxxwwAEHHHDAGTzOnmkHoIEGGmiggQYaaKCBBhpohkPzaHQH4IADDjjggAMOOOCAAw445fshTlsvxGkbcdpyGOK02eEAxGk3kLsSpx0eVBZvmpIzNuVMTDlTU87MlDM35SxMOUtTTuNr91KQq9HJVenk6nRylTq5Wp1ctU6uXidXsZOr2ZWr2ZXtXu1qduVqdtWp2e0FaY2ocj+aEBNeoXI7mhATnvtyN5oQE575cjOaEBOed8GLpuSYehyPMUGKpuSYqhzPMMGIpuSY2hwPMEGHptwHTX2Op5fgQlNyTH2OR1e5CK0RI3jQlJzw8ggWNCUnPO6CA03JCY+7YEBTcsLjrvjPpCBXo+MJpsjPpCBXqeMhppjPpCBXr+M5pmjPpDujq9nxKFOcZ1KQq9nxNEN4hvAM4dk9QoRn9UJ4hvAM4VlmITxDeNbpVSE8a+zf4fkIz7YXwrPN6uHzVXvmBQAHHHDAAQcccMABBxxwwBk8zp7pAqCBBhpooIEGGmiggQYaaIZD82g0BeCAAw444IADDjjggAMOOOX7ITxbL4Rnd8KzofjO0hB8ZwnfGb6zh79mj+8M3xm+M3xnbYLwneE7w3eG7wzfGb4zfGf4zjoNLnxn+M5aBeE7ezgI39nDQfjOHg7CdxbB4DvDd/b+wnd2h4/v7P2F76zNwnfW7fn4zvCddXpV+M4a+3d4Pr6z7YXvbLN6+HjVnmkBwAEHHHDAAQcccMABBxxwBo+zZ7YAaKCBBhpooIEGGmiggQaa4dA8GksBOOCAAw444IADDjjggANO+X74ztYL39nGd3Y4EOFZNQThWbVD4dnh1GQ8E4LGrqCJK2jqCpq5guauoIUraOkKeu8L90qSrdvJVu5ka3ey1TvZ+p1sBU+2hidbxZOt45Wt45Xv/m3reGXreNWt411EaNtZigmtPCe+SooLrTwnvgsoNrTynPgOoPjQynPi0y8Z0YQgV6Mz402SoglBrlJnZpvkRROCXL3ODDZJjSbcGV3Nzkw1yY4mBLmanRlpiiBtO0cypAlB8SWSHGlCUHz4JUuaEBQffsmTJgTFh18zpSlJtm5nJpsmS1OSbPXODDfNl6Yk2RqemW+aMk25V9o6nhlxmjVNSbJ1PDPlEKchTkOcdo8QcVq9EKchTkOcllmI0xCndXpViNMa+3d4PuK07YU4bbN6+JzWnvkFwAEHHHDAAQcccMABBxxwBo+zZ9oBaKCBBhpooIEGGmiggQaa4dA8Gt0BOOCAAw444IADDjjggANO+X6I09YLcdpGnJYGIk4bD0GcNt6ZOG12+7XQUsmNK2jsCpq4gqauoJkraO4KWriClq6gxvfvtSRbt5Ot3MnW7mSrd7L1O9kKnmwNT7aKJ1vHK1vHK9/929bxytbxqlvH24vTmlnl4jQlJ75K5eI0JSe+C5SL05Sc+A5QLk5TcuLTL4jTpCBXozPjTRCnSUGuUmdmmyBOk4Jcvc4MNkGcJt0ZXc3OTDVBnCYFuZqdGWnl4rRmjiBOk4LiSySI06Sg+PAL4jQpKD78gjhNCooPvyJO05Js3c5MNkWcpiXZ6p0Zboo4TUuyNTwz3xRxmnavtHU8M+IUcZqWZOt4ZsohTkOchjjtHiHitHohTkOchjgtsxCnIU7r9KoQpzX27/B8xGnbC3HaZvXwOa098wuAAw444IADDjjggAMOOOAMHmfPtAPQQAMNNNBAAw000EADDTTDoXk0ugNwwAEHHHDAAQcccMABB5zy/RCnrRfitI04rRqIOG0yBHHaZGfitMODyuJNU3LGppyJKWdqypmZcuamnIUpZ2nKaXztXgpyNTq5Kp1cnU6uUidXq5Or1snV6+QqdnI1u3I1u7Ldq13NrlzNrjo1u70grRFV7kcTYsIrVG5HE2LCc1/uRhNiwjNfbkYTYsLzLnjRlBxTj+MxJkjRlBxTleMZJhjRlBxTm+MBJujQlPugqc/x9BJcaEqOqc/x6CoXoTViBA+akhNeHsGCpuSEx11woCk54XEXDGhKTnjcFf+ZFORqdDzBFPmZFOQqdTzEFPOZFOTqdTzHFO2ZdGd0NTseZYrzTApyNTueZgjPEJ4hPLtHiPCsXgjPEJ4hPMsshGcIzzq9KoRnjf07PB/h2fZCeLZZPXy+as+8AOCAAw444IADDjjggAMOOIPH2TNdADTQQAMNNNBAAw000EADzXBoHo2mABxwwAEHHHDAAQcccMABp3w/hGfrhfBsIzwbD0R4Nh2C8Gy6Q+HZ4dRkPBOCxq6giSto6gqauYLmrqCFK2jpCnrvC/dKkq3byVbuZGt3stU72fqdbAVPtoYnW8WTreOVreOV7/5t63hl63jVreNdRGjbWYoJrTwnvkqKC608J74LKDa08pz4DqD40Mpz4tMvGdGEIFejM+NNkqIJQa5SZ2ab5EUTgly9zgw2SY0m3Bldzc5MNcmOJgS5mp0ZaYogbTtHMqQJQfElkhxpQlB8+CVLmhAUH37JkyYExYdfM6UpSbZuZyabJktTkmz1zgw3zZemJNkanplvmjJNuVfaOp4ZcZo1TUmydTwz5RCnIU5DnHaPEHFavRCnIU5DnJZZiNMQp3V6VYjTGvt3eD7itO2FOG2zevic1p75BcABBxxwwAEHHHDAAQcccAaPs2faAWiggQYaaKCBBhpooIEGmuHQPBrdATjggAMOOOCAAw444IADTvl+iNPWC3HaRpw2GYg4bTYEcdpsZ+K02e3XQkslN66gsSto4gqauoJmrqC5K2jhClq6ghrfv9eSbN1OtnInW7uTrd7J1u9kK3iyNTzZKp5sHa9sHa98929bxytbx6tuHW8vTmtmlYvTlJz4KpWL05Sc+C5QLk5TcuI7QLk4TcmJT78gTpOCXI3OjDdBnCYFuUqdmW2COE0KcvU6M9gEcZp0Z3Q1OzPVBHGaFORqdmaklYvTmjmCOE0Kii+RIE6TguLDL4jTpKD48AviNCkoPvyKOE1LsnU7M9kUcZqWZKt3Zrgp4jQtydbwzHxTxGnavdLW8cyIU8RpWpKt45kphzgNcRritHuEiNPqhTgNcRritMxCnIY4rdOrQpzW2L/D8xGnbS/EaZvVw+e09swvAA444IADDjjggAMOOOCAM3icPdMOQAMNNNBAAw000EADDTTQDIfm0egOwAEHHHDAAQcccMABBxxwyvdDnLZeiNM24rTpQMRp8yGI0+Y7E6cdHlQWb5qSMzblTEw5U1POzJQzN+UsTDlLU07ja/dSkKvRyVXp5Op0cpU6uVqdXLVOrl4nV7GTq9mVq9mV7V7tanblanbVqdntBWmNqHI/mhATXqFyO5oQE577cjeaEBOe+XIzmhATnnfBi6bkmHocjzFBiqbkmKoczzDBiKbkmNocDzBBh6bcB019jqeX4EJTckx9jkdXuQitESN40JSc8PIIFjQlJzzuggNNyQmPu2BAU3LC4674z6QgV6PjCabIz6QgV6njIaaYz6QgV6/jOaZoz6Q7o6vZ8ShTnGdSkKvZ8TRDeIbwDOHZPUKEZ/VCeIbwDOFZZiE8Q3jW6VUhPGvs3+H5CM+2F8Kzzerh81V75gUABxxwwAEHHHDAAQcccMAZPM6e6QKggQYaaKCBBhpooIEGGmiGQ/NoNAXggAMOOOCAAw444IADDjjl+yE8Wy+EZxvh2WwgwrPFEIRnix0Kzw6nJuOZEDR2BU1cQVNX0MwVNHcFLVxBS1fQe1+4V5Js3U62cidbu5Ot3snW72QreLI1PNkqnmwdr2wdr3z3b1vHK1vHq24d7yJC285STGjlOfFVUlxo5TnxXUCxoZXnxHcAxYdWnhOffsmIJgS5Gp0Zb5IUTQhylToz2yQvmhDk6nVmsElqNOHO6Gp2ZqpJdjQhyNXszEhTBGnbOZIhTQiKL5HkSBOC4sMvWdKEoPjwS540ISg+/JopTUmydTsz2TRZmpJkq3dmuGm+NCXJ1vDMfNOUacq90tbxzIjTrGlKkq3jmSmHOA1xGuK0e4SI0+qFOA1xGuK0zEKchjit06tCnNbYv8PzEadtL8Rpm9XD57T2zC8ADjjggAMOOOCAAw444IAzeJw90w5AAw000EADDTTQQAMNNNAMh+bR6A7AAQcccMABBxxwwAEHHHDK90Octl6I0zbitPlAxGnLIYjTljsTp81uvxZaKrlxBY1dQRNX0NQVNHMFzV1BC1fQ0hXU+P69lmTrdrKVO9nanWz1TrZ+J1vBk63hyVbxZOt4Zet45bt/2zpe2Tpedet4e3FaM6tcnKbkxFepXJym5MR3gXJxmpIT3wHKxWlKTnz6BXGaFORqdGa8CeI0KchV6sxsE8RpUpCr15nBJojTpDujq9mZqSaI06QgV7MzI61cnNbMEcRpUlB8iQRxmhQUH35BnCYFxYdfEKdJQfHhV8RpWpKt25nJpojTtCRbvTPDTRGnaUm2hmfmmyJO0+6Vto5nRpwiTtOSbB3PTDnEaYjTEKfdI0ScVi/EaYjTEKdlFuI0xGmdXhXitMb+HZ6POG17IU7brB4+p7VnfgFwwAEHHHDAAQcccMABB5zB4+yZdgAaaKCBBhpooIEGGmiggWY4NI9GdwAOOOCAAw444IADDjjggFO+H+K09UKcthGnLYYhTpsfDkCcdgO5K3Ha4UFl8aYpOWNTzsSUMzXlzEw5c1POwpSzNOU0vnYvBbkanVyVTq5OJ1epk6vVyVXr5Op1chU7uZpduZpd2e7VrmZXrmZXnZrdXpDWiCr3owkx4RUqt6MJMeG5L3ejCTHhmS83owkx4XkXvGhKjqnH8RgTpGhKjqnK8QwTjGhKjqnN8QATdGjKfdDU53h6CS40JcfU53h0lYvQGjGCB03JCS+PYEFTcsLjLjjQlJzwuAsGNCUnPO6K/0wKcjU6nmCK/EwKcpU6HmKK+UwKcvU6nmOK9ky6M7qaHY8yxXkmBbmaHU8zhGcIzxCe3SNEeFYvhGcIzxCeZRbCM4RnnV4VwrPG/h2ej/BseyE826wePl+1Z14AcMABBxxwwAEHHHDAAQecwePsmS4AGmiggQYaaKCBBhpooIFmODSPRlMADjjggAMOOOCAAw444IBTvh/Cs/VCeLYRni0HIjxLQxCepZ0Jz9Lk8OBwa6WJxX9mjB33EzvpJ3baT+ysn9h5P7GLfmKX/cQ2vu7vzO3pnKWeDlrq6aSlno5a6umspZ4OW+rptKWejlvq6bxVPZ23qq+51tN5q3o6b5Vy3tqL5XLJ5Z45X2rbq1tuofOltr2TlTvqfKlt72LlBjtfats7mOC3M8b2c7pav10QZHjG2H4OWOv3CoI5zxjbzxlr/UZB0OwZp0I/p6z1uwTByWeM7eeUtX6LUC7wy6UKPj9jbNtLK9j+jLFtb2CCC9AY2/YGJpgCjbFtb2CKR9CZ29M5a/1OQZEOOnN7Omqt3ywohkJnbk+nrfX7BUVn6JwTPZ231m8ZFPehM7en89b6XQOiRESJiBLvESJKrBeiRESJiBIzC1EiosROrwpRYmP/Ds9HlLi9ECVuVg+fy9wznwg44IADDjjggAMOOOCAA87gcfZMMwINNNBAAw000EADDTTQQDMcmkejNwEHHHDAAQcccMABBxxwwCnf728gSvzz6oc3q4ujq+uL1ejp5x/gTdwvb+Lq4seTl6vRfx7Vzfvj+fmbUf0Lqz/nPDn8fCAKxWoICsVqZwrF6fRgvNxa46lFoWiMHfcTO+kndtpP7Kyf2Hk/sYt+Ypf9xDZMB87cns5Z6umgpZ5OWurpqKWezlrq6bClnk5b6um4pZ7OW9XTeav6mms9nbeqp/NWKeetvUIxl1yuUPSltr265QpFX2rbO1m5QtGX2vYuVq5Q9KW2vYMJCkVjbD+nq/XbBUGhaIzt54C1fq8gKBSNsf2csdZvFASFonEq9HPKWr9LEBSKxth+TlnrtwjlCsVcqqBQNMa2vbSCQtEY2/YGJigUjbFtb2CCQtEY2/YGpigUnbk9nbPW7xQUhaIzt6ej1vrNgqJQdOb2dNpav19QFIrOOdHTeWv9lkFRKDpzezpvrd81oFBEoYhC8R4hCsV6oVBEoYhCMbNQKKJQ7PSqUCg29u/wfBSK2wuF4mb18InNPTONgAMOOOCAAw444IADDjjgDB5nzwQk0EADDTTQQAMNNNBAAw00w6F5NOITcMABBxxwwAEHHHDAAQec8v1QKP76erwKxes3b07fjj45ubhVJw7EmTgegjNxvDNn4u0/l8qZTDljU87ElDM15cxMOXNTzsKUszTlNJwCUpCr0clV6eTqdHKVOrlanVy1Tq5eJ1exk6vZlavZle1e7Wp25Wp21anZ7V1+jahyeZ8QE16hcj2fEBOe+3IBnxATnvlyxZ4QE553QaKn5Jh6HI8xwYun5JiqHM8wQXWn5JjaHA8wwV6n3AdNfY6nlyCkU3JMfY5HV7ljrhEjSOWUnPDyCNo4JSc87oIYTskJj7ugflNywuOuyN2kIFej4wmm+NqkIFep4yGmKNikIFev4zmmWNWkO6Or2fEoU0RpUpCr2fE0uxf0bxcn5xcnV29HafR89PSr67MPagvV7Pn/Ozp7fpie3/7zp6uXz8cpGnOHjf9H75NPJpPl0rBF1f8W4/63mPS/xbT/LWb9bzHvf4tF/1ss+9+iMdn72mMH5zvt4ICnHZzwtIMjnnZwxtMODnnawSlPOzjmaQfnvNrBOa92Mcd3cM6rHZzzquycV7d7HF1Fexy2e1s1HlfVYmbYIv5t2LaIfxm2LeLfhW2L+JZr2yK+49q2iG+4ti3i+61ti/h2a9si87bKt8cOznfmbZVvjx2c8MzbKt8eOzjjmbdVvj12cMozb6t8e+zgnGfeVvn22MUc38E5z7yt8u1Rds7H9R6fX5wEe1TLdm+rUprPx2PDFvFvw7ZF/MuwbRH/LmxbxLdc2xbxHde2RXzDtW0R329tW8SfjbJtkflAoG+P+BNVvj3iD1v59og/h+XbI/6Ilm+P+HOJvj3ijyz69og/zejbI/6go2+PHZzzzNsq3x67mOM7GOSZt1W+PcpG+aTe48+vr6M9Fu3eVtX/xqXp7w1bxL8N2xbxL8O2Rfy7sG0Rv62ybRG/rbJtEb+tsm0Rv62ybRHfbm1bZN5W+faI31b59ojfVvn2iN9W+faI31b59ojfVvn2iN9W+faI31b59ojfVvn22ME5z7yt8u2xizm+g0GeeVvl26NslE/rPf5zdRztMW/3turTT1+8mM8NW8S/DdsW8S/DtkX8u7BtEb+tsm0Rv62ybRG/rbJtEb+tsm0R325tW2TeVvn2iN9W+faI31b59ojfVvn2iN9W+faI31b59ojfVvn2iN9W+faI31b59tjBOc+8rfLtsYs5voNBnnlb5dujbJTPbt+6Xa+iPWbt3la9eDGbWbaIfxu2LeJfhm2L+Hdh2yJ+W2XbIn5bZdsifltl2yJ+W2XbIr7d2rbIvK3y7RG/rfLtEb+t8u0Rv63y7RG/rfLtEb+t8u0Rv63y7RG/rfLtEb+t8u2xg3OeeVvl22MXc3wHgzzztsq3R9kon9d7/Ok8+lh8NW33tmqxqKrp1LBF/NuwbRH/MmxbxL8L2xbx2yrbFvHbKtsW8dsq2xbx2yrbFjnvlGmLrGzNtUfOVuXaIyeycu2Rc1y59sjpr1x75Jxvrj1yOjjXHjlTnGuPnETOtccOznnmbZVvj13M8R0M8szbKt8eD4/yv7QxvK41zKOPR2ern+4Msrfi2KeXP756dmuAfVAVe+dyvlxd/f78+uz48un08Nkopemz0bj+p2raTjf78w3GxkN9fPzi6Gr16vzi7Sc/n1y+MyFvXn8LYfRNwBcXx6uLL69rMXHrH6w53jY5/rQ6ury+WL3DqN3K6+ves5Gbh3mYh3mYh3mYh3mYh3mYh3mYh3mYh3mYh3mYh3mYh3mYh3mYh3mYh3mYh3mYh3mYh3mYh3mYh3mYh3mYh3mYh3mYh3mYh3mYh3mYh3mYh3mYh3mYh/9XPfz24PzH1cXFyfHqT0f1F2vTwaH4fdX6q7GXza/GfrW6OFldrr9e++TZ3ReI35yeXx2cnpytHvyK7OWvfU/34W/WXh7c/qvn35yfHl2dnJ/dQD25vFq9ef7t6rvzi9WTdt98/uPq1ersuPmC3v3Z09nhs9G4/ubyYf1F5vo/npyuvruqwR6Ivos9+ObV6uqzs6v6+txs8d312ctb0qcfjP77gYg7wtXmp79+8Lvc9Tr5bvT06vXJ5cHl7W+l3Ub12vqhg5vr99nRy9dP/we4a9odfv3V8Rv2de43b84vT+rAT2/+uM2ruVt1zK9QXZz/1A3pDuvk7HhVn4fn6VnHn75b35f+4Hcnq9O6b0/X1/TdOXl1cX79ZnU8+s1vRv93/ec/H3zz+uhy/f33+oB9sP3o21999OaCHBy9evV5vcfB6ers1dXr0e9G1eifRk8+OT19Mvqo+YzL05OXq6fP0wdfH/7lgwfP271Xcn4xevr9zUs5/IfR9zfbrKu63rf+s7+/ueN0/wXVq67xOu/r7/9y8NfV29HHH3/87uKVJd6mrn/t33d9qXfr24vV0V9LfviXjj/T9fn19Vq/uo/rWtdlWDflVuRw8M3R5eXJq7PV8YtaEXH59e2V/EvZpbz7Rb+5vnz9tPR3cfMr/ejd77P8JJ2eftTmVR7Uzyzd5fLq4vyvq3b7vHtu6U7nb45enly9bbfV+snFr+p2i7utSlPubiTN20rJ8eh886nX3XFu3nhGz0epa1qX49ae9Zdnt1O11fN/eeg9Rb0+/HD0b//+59F/ffHvX46++uLLP//Lv/5h9Mcv/vAvL0b//NmXn7UL+Pzmrr36+ah+iza6Oh9dnl9cjc6uf7jpwcvRrdLkcnR0+fLmzcvJ2asWiXfXvs7ZmsxHz0bftr+5XKyuri/ORm+OLi5Xn5+eH109Papv+R/c/Cq3/uzb2z9rdTEffou2te36JTwU/Eu/ppfN+8/b43572J/+9nj13dH16dXozcX5zT1s9dtno9/+3WLx4sVnn/22Z/EMOOCAAw444IADDjjggAPO/06c0eX1Dzf/L/DoeFX/4ej46G1NdLE6hgYaaKCBBhpooIEGGmiggSZP89PtR7Peo/n29HoFDjjggAMOOOCAAw444IADTgnO5t8bmOp/b+BX19G/N3Ccbv+G7ZNPJpPlElJIIYUUUkghhRRSSCGFFFJIIR0GaXVLenQVkR7eko7HVbWYQQoppJBCCimkkEIKKaSQQgoppMMgHdekn1+cBKTV8pY0pfl8PIYUUkghhRRSSCGFFFJIIYUUUkiHQTqpSf/8+joiXdySLm/W9PeQQgoppJBCCimkkEIKKaSQQgrpMEinNel/ro4j0vkt6aefvngxn0MKKaSQQgoppJBCCimkkEIKKaTDIJ3d/i8T16uIdHZL+uLFbAYppJBCCimkkEIKKaSQQgoppJAOhXRek/7pPDILVtNb0sWiqqZTSCGFFFJIIYUUUkghhRRSSCGFdGekdyjHF0c/PX0w7OeDq5Or09VXr4/erA6uVj9fPf3tP59fX1w+jPH2/k9+evLD6uzy5PzsdHV5m/BAxIcfjj45Ph4djW6TRj+dXL0eXZ7/sBodjx/4ycsfXx0cvXmzOjt++qTe+8kHD/zA3To4urq6ePrk5yfPRrPDjj/09uaHqvY/dHn19nT1Du/50dnL1+cXNz//5HT1XQfadcZ352dXz39anbx6fVVnfHt+etw+493v5j8++Y93F/jL1evV0dXoi5cvR1+9fP3bD3K/pN99ePny4uTN1T+Gz/ndh8cnP/76w+HPxGE3WaOT44+fvKwb/OLmRR+dnK0uvqnmkyej20vx8ZPjk8s3p0dvPzo5O7157Pm3p+cv//oPT2LAm9R3r2F09fbNzc/XV+PD749+PHr3p9mfrNePRxd120Yfj45Pfnhzujo4W/301Y+vnj75u1+BfDaaHB7e/seDx6fOPT66OroJ/vq/n5wefbs6ffLRk+PVd0fXp1ejNxfn352crp48e/fINz8/+SgdHD578uPR6fXqyUez5cFyay2Wz568rO85Nwk3t5EXLz777Mkvz1qlVr2kjntJnfSSOu0lddZL6ryX1EUvqcteUtNhP7H9nK7Uz/FK/Zyv1M8BS/2csNTPEUv9nLHUzyFL/Zyyqp9TVvU0w/o5ZVU/p6wSTtno8vqHHxr/Gu+CdwgXq+MOoS2vbbfQlle2W2jL69ottOW9q1toyztXt9CW961uoS3vWt1CW96zuoW2fWPQMbWXM9X2bUHH1F5OVds3BR1TezlXbd8SdEzt5WS1fUPQMbWXs9X27UDH1H7mVS9nq+17gY6ppWfrp5OzK/VtwLf1E9qntrysHVNbXtaOqS0va8fUlresjqktb1kdU1vesjqmtrxldUxtecvqmNr2/UDX2H5OV9t3BF1j+zlfbd8TdI3t54S1fVfQNbafM9b2fUHX2H5OWdt3Bl1je5ph/Zyytm8OusZ2OmV/afMXDuu/Gxx9PDpb/XT3Fxq3f4/x9PLHV89u/0Liwb+5uPsLxsvV1e/Pr8+OL59OD5+NUpo+G43rf6qm7f724+cbjM3fmx4fvzi6Wr06v3j7yc8nl+/+gm5zKVr8LeZNwBcXx6uLL6/rvy9r/YM1x9smx59WR5fXF6t3GPVf+a1/Berfy97+RVJzq69WFyeryzXuzU7rX8ib0/Org/pvtx7c8vLXXvfDpJcHt717c356dHVyfnYD9eTyavXm+ber784vVk/aNemPq1ers+PmC3r3Z09nNy0Y102o/zIs1f+x/mvPB/9G+C724JtXq6vPzq7q63OzxXfXZy9vSZ9+MPrvFn/vWROuNj/99YNno14n342eXr0+ubzpdf1z7Taq19YPHdxcv8+OXr5++j/AXdPu8Nd/N7jO/ebN+eVJHfjpzR+3eTV3q475FaqL85+6Id1hnZwdr+qD+zw96/jTd+v70h/87mR1Wvft6fqavjsnry7Or9+sjke/+c3o/67//OeDb14fXa7vJ/UB+2D70be/+ujNBTk4evXq83qPg9PV2aur16PfjarRP42efHJ6+mT0UfMZl6cnL1dPn6cPvj78ywcPnrd7r+T8YvT0+5uXcvgPo+9vtllXdb1v/Wd///Eodf8F1auu8Trv6+//cvDX1c3t7eOP3128ssTb1PWv/fuuL/VufXuxOvpryQ//0vFnuj6/vl7rV/dxXeu6DOum3A7Gg2/efaZndXz7qZ7Lr2+v5F/KLuXdL/rN9eXrp6W/i5tf6Ufvfp/lJ+n09KM2r/KgfmbpLpdXF+d/XbXb591zS3c6f3P08uTqbbut1k8uflW3W9xtVZpydyNp3lZKjkfnm0+97o5z88Yzej5KXdO6HLf2rL88u52qrZ7/y0PvKer14Yejf/v3P4/+64t//3L01Rdf/vlf/vUPoz9+8Yd/eTH658++/KxdwOc3d+3Vz0f1W7TR1fno8vzmjfTZ9Q83PXg5un2LeDk6unx58+bl5OxVi8S7a1/nbE3mo2ejb9vfXC5WV9cXZ6M3RxeXq89Pz4+unh7Vt/wPbn6VW3/27e2ftbqYD79F29p2/RIeCv7lb/DZy/f+Anb9Acv6L1T/Jh8FBQcccMABBxxwwAEHHHDAGTzO/Q+41EQXq2NooIEGGmiggQYaaKCBBhpo8jT3PhJY09Qf8QMHHHDAAQcccMABBxxwwAHnb2g8/PPqhzeri6Or64vV6OnnH+A83Cvn4X8e1Y3759Xtf33yw7cnq7OrUf0rq82Hq+Prm+v/fDQ//HwgEsTpECSI051JEG+/eloqYTLljE05E1PO1JQzM+XMTTkLU87SlNOwC0hBrkYnV6WTq9PJVerkanVy1Tq5ep1cxU6uZleuZle2e7Wr2ZWr2VWnZreX9jWiyjV9Qkx4hcpVfEJMeO7LdXtCTHjmy5V6Qkx43gVtnpJj6nE8xgQZnpJjqnI8wwTFnZJjanM8wARxnXIfNPU5nl6Cjk7JMfU5Hl3lkrlGjKCVU3LCyyOo45Sc8LgLejglJzzuggJOyQmPu6J5k4JcjY4nmCJvk4JcpY6HmKJkk4JcvY7nmCJak+6MrmbHo0zRp0lBrmbH0wwp2iCkaDzMwzzMwzzMwzzMwzzMwzzMwzzMwzzMwzy8Tw+/PTj/cXVxcXK8+tNR/T9UpYNDpPhbrwQp/mYhxe+0kOIjxe+wkOK/v5Div7+Q4ndcSPGR4v/qQooPDjjggAMOOOCAAw444IADzhCUktBAAw000EADDTTQQAMNNMOheTQqS3DAAQcccMABBxxwwAEHnPL9/gZS/E9PflidXZ6cn52uLi9R4u+XEv/84q+jz7777uTlyers5duNCH+3Cvz1s997ZPv/vvvnd/+9SV//w+a/vj0/flv/9+urH07/8f/8f1zxLL4="
               },
               {
                  "name" : "annual_peak_electric_demand",
                  "units" : "kW",
                  "value" : 444.40871999999996
               },
               {
                  "name" : "first_year_capital_cost",
                  "units" : "$",
                  "value" : 0
               },
               {
                  "name" : "annual_utility_cost",
                  "units" : "$",
                  "value" : 33753.389999999999
               },
               {
                  "name" : "total_lifecycle_cost",
                  "units" : "$",
                  "value" : 565113.15000000002
               }
            ],
            "step_warnings" : [ "A table in Annual Overview section returned false and was skipped." ]
         }
      }
   ],
   "updated_at" : "20170710T184025Z",
   "weather_file" : "USA_CO_Denver.Intl.AP.725650_TMY3.epw"
}
